AV-unprocessed.smi:1145|AV-procd|sdf|4882|dock2
  -GOLD-   22720 3453D 1   1.00000     0.00000
 Structure written by MMmdl.
 36 37  0  0  0  0  0  0  0  0  1 V2000
  145.8908  133.7783  154.2708 C   0  0  0  0  0  0  0  0  0  0  0  0
  146.1331  134.8843  153.2337 C   0  0  2  0  0  0  0  0  0  0  0  0
  146.6009  134.3110  151.8824 C   0  0  0  0  0  0  0  0  0  0  0  0
  145.6036  133.4431  151.2798 N   0  0  0  0  0  0  0  0  0  0  0  0
  145.7179  132.1089  150.9509 C   0  0  0  0  0  0  0  0  0  0  0  0
  144.5225  131.7173  150.4198 C   0  0  0  0  0  0  0  0  0  0  0  0
  143.7286  132.8972  150.4678 C   0  0  0  0  0  0  0  0  0  0  0  0
  144.3782  133.9285  150.9831 N   0  0  0  0  0  0  0  0  0  0  0  0
  147.1245  135.8282  153.7455 N   0  0  0  0  0  0  0  0  0  0  0  0
  147.0366  136.5048  154.9007 C   0  0  0  0  0  0  0  0  0  0  0  0
  146.1093  136.3651  155.6991 O   0  0  0  0  0  0  0  0  0  0  0  0
  148.1691  137.4974  155.1945 C   0  0  2  0  0  0  0  0  0  0  0  0
  148.2020  138.6291  154.1542 C   0  0  0  0  0  0  0  0  0  0  0  0
  149.3037  139.6485  154.4846 C   0  0  0  0  0  0  0  0  0  0  0  0
  150.6498  138.9986  154.8379 C   0  0  0  0  0  0  0  0  0  0  0  0
  151.6756  139.6743  154.8005 O   0  0  0  0  0  0  0  0  0  0  0  0
  150.6713  137.7084  155.2166 N   0  0  0  0  0  0  0  0  0  0  0  0
  149.5373  136.7837  155.2168 C   0  0  0  0  0  0  0  0  0  0  0  0
  145.1348  133.0740  153.9228 H   0  0  0  0  0  0  0  0  0  0  0  0
  145.5395  134.1957  155.2152 H   0  0  0  0  0  0  0  0  0  0  0  0
  146.8027  133.2158  154.4735 H   0  0  0  0  0  0  0  0  0  0  0  0
  145.1839  135.3967  153.0658 H   0  0  0  0  0  0  0  0  0  0  0  0
  146.8483  135.1142  151.1860 H   0  0  0  0  0  0  0  0  0  0  0  0
  147.5116  133.7268  152.0190 H   0  0  0  0  0  0  0  0  0  0  0  0
  146.6293  131.5556  151.1235 H   0  0  0  0  0  0  0  0  0  0  0  0
  144.2551  130.7368  150.0539 H   0  0  0  0  0  0  0  0  0  0  0  0
  142.7070  133.0338  150.1451 H   0  0  0  0  0  0  0  0  0  0  0  0
  147.9221  136.0104  153.1535 H   0  0  0  0  0  0  0  0  0  0  0  0
  147.9961  137.9440  156.1757 H   0  0  0  0  0  0  0  0  0  0  0  0
  148.3751  138.2212  153.1565 H   0  0  0  0  0  0  0  0  0  0  0  0
  147.2371  139.1365  154.1157 H   0  0  0  0  0  0  0  0  0  0  0  0
  149.4393  140.3355  153.6487 H   0  0  0  0  0  0  0  0  0  0  0  0
  148.9958  140.2529  155.3384 H   0  0  0  0  0  0  0  0  0  0  0  0
  151.5668  137.3180  155.4725 H   0  0  0  0  0  0  0  0  0  0  0  0
  149.6105  136.1424  156.0961 H   0  0  0  0  0  0  0  0  0  0  0  0
  149.6482  136.1340  154.3472 H   0  0  0  0  0  0  0  0  0  0  0  0
  1  2  1  0  0  0  0
  1 19  1  0  0  0  0
  1 20  1  0  0  0  0
  1 21  1  0  0  0  0
  2  3  1  0  0  0  0
  2  9  1  0  0  0  0
  2 22  1  0  0  0  0
  3  4  1  0  0  0  0
  3 23  1  0  0  0  0
  3 24  1  0  0  0  0
  4  8  1  0  0  0  0
  4  5  1  0  0  0  0
  5  6  2  0  0  0  0
  5 25  1  0  0  0  0
  6  7  1  0  0  0  0
  6 26  1  0  0  0  0
  7  8  2  0  0  0  0
  7 27  1  0  0  0  0
  9 10  1  0  0  0  0
  9 28  1  0  0  0  0
 10 11  2  0  0  0  0
 10 12  1  0  0  0  0
 12 18  1  0  0  0  0
 12 13  1  0  0  0  0
 12 29  1  0  0  0  0
 13 14  1  0  0  0  0
 13 30  1  0  0  0  0
 13 31  1  0  0  0  0
 14 15  1  0  0  0  0
 14 32  1  0  0  0  0
 14 33  1  0  0  0  0
 15 16  2  0  0  0  0
 15 17  1  0  0  0  0
 17 18  1  0  0  0  0
 17 34  1  0  0  0  0
 18 35  1  0  0  0  0
 18 36  1  0  0  0  0
M  END
> <s_m_source_file>
AV-unprocessed.smi

> <i_m_source_file_index>
1145

> <i_lp_mmshare_version>
43012

> <i_f3d_flags>
0

> <s_epik_input>
bjFbY0hdW2NIXVtjSF1uMVtDSDJdW0NAQEhdKFtDSDNdKVtOSF1DKD1PKVtDQEBIXTJbQ0gyXVtDSDJdQyg9TylbTkhdW0NIMl0y

> <s_epik_cmdline>
J2VwaWtfcHl0aG9uJywgJy1waCcsICc3LjAnLCAnLXRuJywgJzgnLCAnLW1hJywgJzIwMCcsICctbWV0YWxfYmluZGluZycsICctaW1hZScsICc8aW5maWxlLm1hZT4nLCAnLW9tYWUnLCAnPG91dGZpbGUubWFlPic=

> <r_lp_tautomer_probability>
1

> <r_epik_Ionization_Penalty>
0.000314064

> <r_epik_Ionization_Penalty_Charging>
0

> <r_epik_Ionization_Penalty_Neutral>
0.000314064

> <r_epik_State_Penalty>
-0

> <r_epik_Charging_Adjusted_Penalty>
0

> <i_epik_Tot_Q>
0

> <i_epik_Tot_abs_Q>
0

> <r_epik_Metal_State_Penalty>
-0

> <b_epik_Metal_Only>
0

> <s_lp_Force_Field>
OPLS_2005

> <r_lp_Energy>
12.6815

> <b_lp_Chiralities_Consistent>
1

> <s_lp_Variant>
AV-unprocessed.smi:1145-1

> <Gold.Version>
5.8.1

> <Gold.Id.Protein>
6NUR|6NUR_protein|mol2

> <Gold.PLP.Fitness>
36.5901

> <Gold.PLP.PLP>
-24.6237

> <Gold.PLP.part.hbond>
-2.0000

> <Gold.PLP.part.metal>
0.0000

> <Gold.PLP.part.buried>
-4.0174

> <Gold.PLP.part.nonpolar>
-19.4283

> <Gold.PLP.part.repulsive>
0.2713

> <Gold.PLP.ligand.clash>
0.0000

> <Gold.PLP.ligand.torsion>
0.0291

> <Gold.PLP.Chemscore.Hbond>
2.0000

> <Gold.PLP.Chemscore.CHOScore>
2.0000

> <Gold.PLP.Chemscore.Metal>
0.0000

> <Gold.Chemscore.Hbonds>
donor molecule, donor type, donor heavy atom, donor atom, acceptor molecule, acceptor atom, score
      L1  H     9    28       P1  7948  1.00
      P1  H  7989  7998       L1    16  1.00
      L1  C     5    25       P1 10747  0.85
      L1  C     7    27       P1 10186  1.00

> <Gold.PLP.Chemscore.Internal.Correction>
0.0247

> <Gold.Rescore>
     Score         DG    S(hbond)    S(metal)    S(lipo)     H(rot)  DE(clash)    DE(int)     intcor
     13.96     -14.13       1.99        0.00      56.54       1.80       0.09       0.08       ----

> <Gold.Chemscore.Fitness>
13.9577

> <Gold.Chemscore.DG>
-14.1342

> <Gold.Chemscore.ZeroCoef>
-5.4800

> <Gold.Chemscore.Hbond>
1.9887

> <Gold.Chemscore.Metal>
0.0000

> <Gold.Chemscore.Lipo>
56.5435

> <Gold.Chemscore.Internal_Hbond>
0.0000

> <Gold.Chemscore.DEClash>
0.0922

> <Gold.Chemscore.DEInternal>
0.0843

> <Gold.Chemscore.Rot>
1.7982

> <Gold.Chemscore.Internal.Correction>
   9.000000E+99

> <Gold.Chemscore.Hbonds>
donor molecule, donor type, donor heavy atom, donor atom, acceptor molecule, acceptor atom, score
      L1  H     9    28       P1  7948  1.00
      P1  H  7989  7998       L1    16  0.84

> <Gold.Chemscore.Hbond.Weighted>
-6.6421

> <Gold.Chemscore.Metal.Weighted>
-0.0000

> <Gold.Chemscore.Lipo.Weighted>
-6.6156

> <Gold.Chemscore.Internal_Hbond.Weighted>
0.0000

> <Gold.Chemscore.DEClash.Weighted>
0.0922

> <Gold.Chemscore.DEInternal.Weighted>
0.0843

> <Gold.Chemscore.Rot.Weighted>
4.6035

> <Gold.Chemscore.Internal.Correction.Weighted>
   9.000000E+99

> <Gold.Protein.RotatedTorsions>
[ 6907 6896 6895 6894 ] final  -17.79 input  -60.11 | X-H torsion
[ 7974 7965 7964 7962 ] final -106.51 input  175.53 | X-H torsion
[ 8008 7997 7996 7995 ] final  -78.74 input   59.86 | X-H torsion
[ 10167 10162 10161 10158 ] final   58.02 input  -65.29 | X-H torsion
[ 10718 10713 10712 10709 ] final   44.74 input   66.30 | X-H torsion
[ 10763 10752 10751 10750 ] final -111.82 input  -60.55 | X-H torsion
[ 11005 11000 10999 10996 ] final   45.57 input  -57.11 | X-H torsion

> <Gold.Protein.ActiveResidues>
 VAL166  LYS551  ARG553  GLY616  TRP617  ASP618  TYR619  PRO620  LYS621  CYS622 
 ASP623  PHE694  ASN695  SER759  ASP760  ASP761  ALA762  ILE779  LEU786  VAL792 
 PHE793  MET794  SER795  GLU796  ALA797  LYS798  CYS799  TRP800  GLU811  SER814 

> <Gold.Protein.RotatedAtoms>
  151.2881  135.0733  159.9193 H   0  0  0  0  0  0  0  0  0  0  0  0  # atno 6907 bound_to 6896
  152.5321  133.9961  159.7883 H   0  0  0  0  0  0  0  0  0  0  0  0  # atno 6908 bound_to 6896
  151.0226  133.5812  159.2700 H   0  0  0  0  0  0  0  0  0  0  0  0  # atno 6909 bound_to 6896
  145.2170  140.9119  143.3281 H   0  0  0  0  0  0  0  0  0  0  0  0  # atno 7974 bound_to 7965
  154.5718  140.0689  156.8976 H   0  0  0  0  0  0  0  0  0  0  0  0  # atno 8008 bound_to 7997
  155.2620  140.3359  155.4254 H   0  0  0  0  0  0  0  0  0  0  0  0  # atno 8009 bound_to 7997
  156.2124  140.1764  156.7650 H   0  0  0  0  0  0  0  0  0  0  0  0  # atno 8010 bound_to 7997
  140.1917  144.4079  150.6568 H   0  0  0  0  0  0  0  0  0  0  0  0  # atno 10167 bound_to 10162
  157.4301  130.8019  149.7595 H   0  0  0  0  0  0  0  0  0  0  0  0  # atno 10718 bound_to 10713
  154.8319  135.4513  154.1098 H   0  0  0  0  0  0  0  0  0  0  0  0  # atno 10763 bound_to 10752
  153.2364  135.6911  153.7839 H   0  0  0  0  0  0  0  0  0  0  0  0  # atno 10764 bound_to 10752
  153.7202  135.3343  155.3241 H   0  0  0  0  0  0  0  0  0  0  0  0  # atno 10765 bound_to 10752
  140.1448  134.4537  155.8424 H   0  0  0  0  0  0  0  0  0  0  0  0  # atno 11005 bound_to 11000
  144.9801  139.3791  143.6266 LP  0  0  0  0  0  0  0  0  0  0  0  0  # atno 17320 bound_to 7965
  146.3385  139.8938  142.8805 LP  0  0  0  0  0  0  0  0  0  0  0  0  # atno 17321 bound_to 7965
  140.6451  143.2212  151.6203 LP  0  0  0  0  0  0  0  0  0  0  0  0  # atno 17342 bound_to 10162
  139.5253  144.3078  152.1019 LP  0  0  0  0  0  0  0  0  0  0  0  0  # atno 17343 bound_to 10162
  155.9910  130.3940  150.3003 LP  0  0  0  0  0  0  0  0  0  0  0  0  # atno 17370 bound_to 10713
  157.1159  131.0234  151.3029 LP  0  0  0  0  0  0  0  0  0  0  0  0  # atno 17371 bound_to 10713
  141.2191  133.6848  156.7313 LP  0  0  0  0  0  0  0  0  0  0  0  0  # atno 17394 bound_to 11000
  140.2678  134.8416  157.3819 LP  0  0  0  0  0  0  0  0  0  0  0  0  # atno 17395 bound_to 11000

$$$$
