AV-unprocessed.smi:3275|AV-procd|sdf|12530|dock5
  -GOLD-   2272018443D 1   1.00000     0.00000
 Structure written by MMmdl.
 35 36  0  0  0  0  0  0  0  0  2 V2000
  150.0404  140.1010  153.6447 O   0  0  0  0  0  0  0  0  0  0  0  0
  150.2362  138.8635  154.2945 C   0  0  0  0  0  0  0  0  0  0  0  0
  151.4063  138.9734  155.2772 C   0  0  0  0  0  0  0  0  0  0  0  0
  151.2162  140.1386  156.0707 O   0  0  0  0  0  0  0  0  0  0  0  0
  152.0921  140.3287  157.1815 C   0  0  2  0  0  0  0  0  0  0  0  0
  152.2758  139.0585  158.0375 C   0  0  0  0  0  0  0  0  0  0  0  0
  153.2950  139.3273  159.1570 C   0  0  0  0  0  0  0  0  0  0  0  0
  152.8909  140.5582  159.9882 C   0  0  0  0  0  0  0  0  0  0  0  0
  152.6866  141.7217  159.1289 N   0  0  0  0  0  0  0  0  0  0  0  0
  152.5328  142.9190  159.8436 C   0  0  0  0  0  0  0  0  0  0  0  0
  152.3283  142.9154  161.2446 C   0  0  0  0  0  0  0  0  0  0  0  0
  152.1767  144.1398  161.9263 C   0  0  0  0  0  0  0  0  0  0  0  0
  152.2304  145.3020  161.2410 N   0  3  0  0  0  0  0  0  0  0  0  0
  152.4269  145.3544  159.9059 C   0  0  0  0  0  0  0  0  0  0  0  0
  152.5846  144.1629  159.1684 C   0  0  0  0  0  0  0  0  0  0  0  0
  152.8320  144.2490  157.4597 Cl  0  0  0  0  0  0  0  0  0  0  0  0
  151.7056  141.5354  158.0628 C   0  0  0  0  0  0  0  0  0  0  0  0
  149.7992  139.9339  152.7463 H   0  0  0  0  0  0  0  0  0  0  0  0
  149.3209  138.5840  154.8170 H   0  0  0  0  0  0  0  0  0  0  0  0
  150.4349  138.0956  153.5465 H   0  0  0  0  0  0  0  0  0  0  0  0
  151.4371  138.0807  155.9015 H   0  0  0  0  0  0  0  0  0  0  0  0
  152.3422  139.0262  154.7217 H   0  0  0  0  0  0  0  0  0  0  0  0
  153.0598  140.5557  156.7314 H   0  0  0  0  0  0  0  0  0  0  0  0
  151.3319  138.7555  158.4899 H   0  0  0  0  0  0  0  0  0  0  0  0
  152.6102  138.2277  157.4156 H   0  0  0  0  0  0  0  0  0  0  0  0
  153.3820  138.4529  159.8023 H   0  0  0  0  0  0  0  0  0  0  0  0
  154.2815  139.4898  158.7208 H   0  0  0  0  0  0  0  0  0  0  0  0
  151.9731  140.3480  160.5393 H   0  0  0  0  0  0  0  0  0  0  0  0
  153.6645  140.7744  160.7264 H   0  0  0  0  0  0  0  0  0  0  0  0
  152.2896  141.9868  161.7954 H   0  0  0  0  0  0  0  0  0  0  0  0
  152.0166  144.2235  162.9913 H   0  0  0  0  0  0  0  0  0  0  0  0
  152.4512  146.3420  159.4693 H   0  0  0  0  0  0  0  0  0  0  0  0
  151.6492  142.4385  157.4535 H   0  0  0  0  0  0  0  0  0  0  0  0
  150.7238  141.3835  158.5108 H   0  0  0  0  0  0  0  0  0  0  0  0
  152.1181  146.1774  161.7533 H   0  0  0  0  0  0  0  0  0  0  0  0
  1  2  1  0  0  0  0
  1 18  1  0  0  0  0
  2  3  1  0  0  0  0
  2 19  1  0  0  0  0
  2 20  1  0  0  0  0
  3  4  1  0  0  0  0
  3 21  1  0  0  0  0
  3 22  1  0  0  0  0
  4  5  1  0  0  0  0
  5 17  1  0  0  0  0
  5  6  1  0  0  0  0
  5 23  1  0  0  0  0
  6  7  1  0  0  0  0
  6 24  1  0  0  0  0
  6 25  1  0  0  0  0
  7  8  1  0  0  0  0
  7 26  1  0  0  0  0
  7 27  1  0  0  0  0
  8  9  1  0  0  0  0
  8 28  1  0  0  0  0
  8 29  1  0  0  0  0
  9 10  1  0  0  0  0
  9 17  1  0  0  0  0
 10 15  1  0  0  0  0
 10 11  2  0  0  0  0
 11 12  1  0  0  0  0
 11 30  1  0  0  0  0
 12 13  2  0  0  0  0
 12 31  1  0  0  0  0
 13 14  1  0  0  0  0
 13 35  1  0  0  0  0
 14 15  2  0  0  0  0
 14 32  1  0  0  0  0
 15 16  1  0  0  0  0
 17 33  1  0  0  0  0
 17 34  1  0  0  0  0
M  CHG  1  13   1
M  END
> <s_m_source_file>
AV-unprocessed.smi

> <i_m_source_file_index>
3275

> <i_lp_mmshare_version>
43012

> <i_f3d_flags>
0

> <s_epik_input>
W09IXVtDSDJdW0NIMl1PW0NAQEhdMVtDSDJdW0NIMl1bQ0gyXU4oW0NIMl0xKWMyW2NIXVtjSF1uW2NIXWMyQ2w=

> <s_epik_cmdline>
J2VwaWtfcHl0aG9uJywgJy1waCcsICc3LjAnLCAnLXRuJywgJzgnLCAnLW1hJywgJzIwMCcsICctbWV0YWxfYmluZGluZycsICctaW1hZScsICc8aW5maWxlLm1hZT4nLCAnLW9tYWUnLCAnPG91dGZpbGUubWFlPic=

> <r_lp_tautomer_probability>
1

> <r_epik_Ionization_Penalty>
0.0778579

> <r_epik_Ionization_Penalty_Charging>
0.0778578

> <r_epik_Ionization_Penalty_Neutral>
8.80348e-08

> <r_epik_State_Penalty>
0.0687871

> <r_epik_Charging_Adjusted_Penalty>
0.146645

> <i_epik_Tot_Q>
1

> <i_epik_Tot_abs_Q>
1

> <r_epik_Metal_State_Penalty>
2.85646

> <b_epik_Metal_Only>
0

> <s_lp_Force_Field>
OPLS_2005

> <r_lp_Energy>
28.015

> <b_lp_Chiralities_Consistent>
1

> <s_lp_Variant>
AV-unprocessed.smi:3275-1

> <Gold.Version>
5.8.1

> <Gold.Id.Protein>
6NUR|6NUR_protein|mol2

> <Gold.PLP.Fitness>
44.9714

> <Gold.PLP.PLP>
-40.7362

> <Gold.PLP.part.hbond>
-3.0000

> <Gold.PLP.part.metal>
0.0000

> <Gold.PLP.part.buried>
-2.5198

> <Gold.PLP.part.nonpolar>
-34.4822

> <Gold.PLP.part.repulsive>
0.0937

> <Gold.PLP.ligand.clash>
0.7557

> <Gold.PLP.ligand.torsion>
0.2414

> <Gold.PLP.Chemscore.Hbond>
1.7520

> <Gold.PLP.Chemscore.CHOScore>
0.0000

> <Gold.PLP.Chemscore.Metal>
0.0000

> <Gold.Chemscore.Hbonds>
donor molecule, donor type, donor heavy atom, donor atom, acceptor molecule, acceptor atom, score
      L1  H     1    18       P1  7957  1.00
      P1  H  7989  7998       L1     1  0.72

> <Gold.PLP.Chemscore.Internal.Correction>
0.2177

> <Gold.Rescore>
     Score         DG    S(hbond)    S(metal)    S(lipo)     H(rot)  DE(clash)    DE(int)     intcor
     14.83     -17.81       1.00        0.00     123.82       2.14       1.47       1.52       ----

> <Gold.Chemscore.Fitness>
14.8283

> <Gold.Chemscore.DG>
-17.8130

> <Gold.Chemscore.ZeroCoef>
-5.4800

> <Gold.Chemscore.Hbond>
0.9955

> <Gold.Chemscore.Metal>
0.0000

> <Gold.Chemscore.Lipo>
123.8158

> <Gold.Chemscore.Internal_Hbond>
0.0000

> <Gold.Chemscore.DEClash>
1.4674

> <Gold.Chemscore.DEInternal>
1.5174

> <Gold.Chemscore.Rot>
2.1400

> <Gold.Chemscore.Internal.Correction>
   9.000000E+99

> <Gold.Chemscore.Hbonds>
donor molecule, donor type, donor heavy atom, donor atom, acceptor molecule, acceptor atom, score
      L1  H     1    18       P1  7957  0.98
      P1  H  7989  7998       L1     1  0.16

> <Gold.Chemscore.Hbond.Weighted>
-3.3249

> <Gold.Chemscore.Metal.Weighted>
-0.0000

> <Gold.Chemscore.Lipo.Weighted>
-14.4865

> <Gold.Chemscore.Internal_Hbond.Weighted>
0.0000

> <Gold.Chemscore.DEClash.Weighted>
1.4674

> <Gold.Chemscore.DEInternal.Weighted>
1.5174

> <Gold.Chemscore.Rot.Weighted>
5.4783

> <Gold.Chemscore.Internal.Correction.Weighted>
   9.000000E+99

> <Gold.Protein.RotatedTorsions>
[ 6907 6896 6895 6894 ] final -107.62 input  -60.11 | X-H torsion
[ 7974 7965 7964 7962 ] final   41.52 input  175.53 | X-H torsion
[ 8008 7997 7996 7995 ] final -162.67 input   59.86 | X-H torsion
[ 10167 10162 10161 10158 ] final   69.07 input  -65.29 | X-H torsion
[ 10718 10713 10712 10709 ] final -125.73 input   66.30 | X-H torsion
[ 10763 10752 10751 10750 ] final   56.40 input  -60.55 | X-H torsion
[ 11005 11000 10999 10996 ] final  134.73 input  -57.11 | X-H torsion

> <Gold.Protein.ActiveResidues>
 VAL166  LYS551  ARG553  GLY616  TRP617  ASP618  TYR619  PRO620  LYS621  CYS622 
 ASP623  PHE694  ASN695  SER759  ASP760  ASP761  ALA762  ILE779  LEU786  VAL792 
 PHE793  MET794  SER795  GLU796  ALA797  LYS798  CYS799  TRP800  GLU811  SER814 

> <Gold.Protein.RotatedAtoms>
  150.7454  133.9799  159.3572 H   0  0  0  0  0  0  0  0  0  0  0  0  # atno 6907 bound_to 6896
  151.7739  135.0777  160.0373 H   0  0  0  0  0  0  0  0  0  0  0  0  # atno 6908 bound_to 6896
  152.3320  133.5932  159.5852 H   0  0  0  0  0  0  0  0  0  0  0  0  # atno 6909 bound_to 6896
  146.0816  139.5406  142.9533 H   0  0  0  0  0  0  0  0  0  0  0  0  # atno 7974 bound_to 7965
  155.8102  140.0904  157.1908 H   0  0  0  0  0  0  0  0  0  0  0  0  # atno 8008 bound_to 7997
  154.3980  140.1456  156.3437 H   0  0  0  0  0  0  0  0  0  0  0  0  # atno 8009 bound_to 7997
  155.8373  140.3440  155.5612 H   0  0  0  0  0  0  0  0  0  0  0  0  # atno 8010 bound_to 7997
  140.0718  144.5146  150.7222 H   0  0  0  0  0  0  0  0  0  0  0  0  # atno 10167 bound_to 10162
  156.1701  130.6661  151.0168 H   0  0  0  0  0  0  0  0  0  0  0  0  # atno 10718 bound_to 10713
  152.9831  135.5677  154.5222 H   0  0  0  0  0  0  0  0  0  0  0  0  # atno 10763 bound_to 10752
  154.4708  135.2785  155.1646 H   0  0  0  0  0  0  0  0  0  0  0  0  # atno 10764 bound_to 10752
  154.3194  135.6272  153.5554 H   0  0  0  0  0  0  0  0  0  0  0  0  # atno 10765 bound_to 10752
  139.9934  134.9506  156.9908 H   0  0  0  0  0  0  0  0  0  0  0  0  # atno 11005 bound_to 11000
  145.6207  141.0323  143.1916 LP  0  0  0  0  0  0  0  0  0  0  0  0  # atno 17320 bound_to 7965
  144.7297  139.7763  143.7351 LP  0  0  0  0  0  0  0  0  0  0  0  0  # atno 17321 bound_to 7965
  140.7122  143.2514  151.4547 LP  0  0  0  0  0  0  0  0  0  0  0  0  # atno 17342 bound_to 10162
  139.5831  144.1664  152.1994 LP  0  0  0  0  0  0  0  0  0  0  0  0  # atno 17343 bound_to 10162
  157.6796  131.0841  150.7403 LP  0  0  0  0  0  0  0  0  0  0  0  0  # atno 17370 bound_to 10713
  156.7463  130.4754  149.5466 LP  0  0  0  0  0  0  0  0  0  0  0  0  # atno 17371 bound_to 10713
  140.4865  134.1236  155.7225 LP  0  0  0  0  0  0  0  0  0  0  0  0  # atno 17394 bound_to 11000
  141.1584  133.8838  157.1914 LP  0  0  0  0  0  0  0  0  0  0  0  0  # atno 17395 bound_to 11000

$$$$
