AV-unprocessed.smi:1310|AV-procd|sdf|5445|dock4
  -GOLD-   22720 5 13D 1   1.00000     0.00000
 Structure written by MMmdl.
 34 35  0  0  0  0  0  0  0  0  1 V2000
  146.4954  138.6036  151.9559 C   0  0  0  0  0  0  0  0  0  0  0  0
  146.8823  138.3247  153.2968 O   0  0  0  0  0  0  0  0  0  0  0  0
  147.5746  139.2938  153.9940 C   0  0  0  0  0  0  0  0  0  0  0  0
  148.1248  138.9595  155.2470 C   0  0  0  0  0  0  0  0  0  0  0  0
  148.8321  139.9421  155.9661 C   0  0  0  0  0  0  0  0  0  0  0  0
  148.9715  141.2343  155.4038 C   0  0  0  0  0  0  0  0  0  0  0  0
  149.6479  142.3235  156.0192 N   0  0  0  0  0  0  0  0  0  0  0  0
  150.7136  142.3205  156.8445 C   0  0  0  0  0  0  0  0  0  0  0  0
  151.3215  141.3169  157.2088 O   0  0  0  0  0  0  0  0  0  0  0  0
  151.0857  143.5444  157.2616 N   0  0  0  0  0  0  0  0  0  0  0  0
  152.1907  143.9011  158.1553 C   0  0  0  0  0  0  0  0  0  0  0  0
  152.3170  142.8769  159.2995 C   0  0  0  0  0  0  0  0  0  0  0  0
  152.4755  143.6939  160.5823 C   0  0  0  0  0  0  0  0  0  0  0  0
  151.6959  144.9753  160.3085 C   0  0  0  0  0  0  0  0  0  0  0  0
  151.9639  145.2694  158.8322 C   0  0  0  0  0  0  0  0  0  0  0  0
  148.3767  141.4672  154.1465 C   0  0  0  0  0  0  0  0  0  0  0  0
  147.6975  140.5302  153.4521 N   0  0  0  0  0  0  0  0  0  0  0  0
  145.9677  137.7424  151.5463 H   0  0  0  0  0  0  0  0  0  0  0  0
  147.3623  138.7929  151.3210 H   0  0  0  0  0  0  0  0  0  0  0  0
  145.8208  139.4593  151.9056 H   0  0  0  0  0  0  0  0  0  0  0  0
  148.0041  137.9657  155.6525 H   0  0  0  0  0  0  0  0  0  0  0  0
  149.2383  139.6798  156.9294 H   0  0  0  0  0  0  0  0  0  0  0  0
  149.2841  143.2361  155.7872 H   0  0  0  0  0  0  0  0  0  0  0  0
  150.5235  144.3171  156.9352 H   0  0  0  0  0  0  0  0  0  0  0  0
  153.1280  143.9208  157.5962 H   0  0  0  0  0  0  0  0  0  0  0  0
  151.4111  142.2728  159.3766 H   0  0  0  0  0  0  0  0  0  0  0  0
  153.1494  142.1889  159.1481 H   0  0  0  0  0  0  0  0  0  0  0  0
  152.1168  143.1636  161.4649 H   0  0  0  0  0  0  0  0  0  0  0  0
  153.5282  143.9319  160.7399 H   0  0  0  0  0  0  0  0  0  0  0  0
  150.6308  144.7958  160.4604 H   0  0  0  0  0  0  0  0  0  0  0  0
  151.9924  145.7971  160.9610 H   0  0  0  0  0  0  0  0  0  0  0  0
  152.8720  145.8670  158.7433 H   0  0  0  0  0  0  0  0  0  0  0  0
  151.1564  145.8495  158.3836 H   0  0  0  0  0  0  0  0  0  0  0  0
  148.4476  142.4387  153.6792 H   0  0  0  0  0  0  0  0  0  0  0  0
  1  2  1  0  0  0  0
  1 18  1  0  0  0  0
  1 19  1  0  0  0  0
  1 20  1  0  0  0  0
  2  3  1  0  0  0  0
  3 17  1  0  0  0  0
  3  4  2  0  0  0  0
  4  5  1  0  0  0  0
  4 21  1  0  0  0  0
  5  6  2  0  0  0  0
  5 22  1  0  0  0  0
  6  7  1  0  0  0  0
  6 16  1  0  0  0  0
  7  8  1  0  0  0  0
  7 23  1  0  0  0  0
  8  9  2  0  0  0  0
  8 10  1  0  0  0  0
 10 11  1  0  0  0  0
 10 24  1  0  0  0  0
 11 15  1  0  0  0  0
 11 12  1  0  0  0  0
 11 25  1  0  0  0  0
 12 13  1  0  0  0  0
 12 26  1  0  0  0  0
 12 27  1  0  0  0  0
 13 14  1  0  0  0  0
 13 28  1  0  0  0  0
 13 29  1  0  0  0  0
 14 15  1  0  0  0  0
 14 30  1  0  0  0  0
 14 31  1  0  0  0  0
 15 32  1  0  0  0  0
 15 33  1  0  0  0  0
 16 17  2  0  0  0  0
 16 34  1  0  0  0  0
M  END
> <s_m_source_file>
AV-unprocessed.smi

> <i_m_source_file_index>
1310

> <i_lp_mmshare_version>
43012

> <i_f3d_flags>
0

> <s_epik_input>
W0NIM11PYzFbY0hdW2NIXWMoW2NIXW4xKVtOSF1DKD1PKVtOSF1bQ0hdMltDSDJdW0NIMl1bQ0gyXVtDSDJdMg==

> <s_epik_cmdline>
J2VwaWtfcHl0aG9uJywgJy1waCcsICc3LjAnLCAnLXRuJywgJzgnLCAnLW1hJywgJzIwMCcsICctbWV0YWxfYmluZGluZycsICctaW1hZScsICc8aW5maWxlLm1hZT4nLCAnLW9tYWUnLCAnPG91dGZpbGUubWFlPic=

> <r_lp_tautomer_probability>
1

> <r_epik_Ionization_Penalty>
0.000100082

> <r_epik_Ionization_Penalty_Charging>
0

> <r_epik_Ionization_Penalty_Neutral>
0.000100082

> <r_epik_State_Penalty>
-0

> <r_epik_Charging_Adjusted_Penalty>
0

> <i_epik_Tot_Q>
0

> <i_epik_Tot_abs_Q>
0

> <r_epik_Metal_State_Penalty>
-0

> <b_epik_Metal_Only>
0

> <s_lp_Force_Field>
OPLS_2005

> <r_lp_Energy>
31.5118

> <b_lp_Chiralities_Consistent>
1

> <s_lp_Variant>
AV-unprocessed.smi:1310-1

> <Gold.Version>
5.8.1

> <Gold.Id.Protein>
6NUR|6NUR_protein|mol2

> <Gold.PLP.Fitness>
41.0438

> <Gold.PLP.PLP>
-36.9918

> <Gold.PLP.part.hbond>
-2.0000

> <Gold.PLP.part.metal>
0.0000

> <Gold.PLP.part.buried>
-6.2737

> <Gold.PLP.part.nonpolar>
-31.2882

> <Gold.PLP.part.repulsive>
1.2549

> <Gold.PLP.ligand.clash>
0.0000

> <Gold.PLP.ligand.torsion>
0.5923

> <Gold.PLP.Chemscore.Hbond>
1.7441

> <Gold.PLP.Chemscore.CHOScore>
0.0000

> <Gold.PLP.Chemscore.Metal>
0.0000

> <Gold.Chemscore.Hbonds>
donor molecule, donor type, donor heavy atom, donor atom, acceptor molecule, acceptor atom, score
      L1  H     7    23       P1  8028  1.00
      L1  H    10    24       P1  8028  0.73

> <Gold.PLP.Chemscore.Internal.Correction>
0.0042

> <Gold.Rescore>
     Score         DG    S(hbond)    S(metal)    S(lipo)     H(rot)  DE(clash)    DE(int)     intcor
     16.96     -18.97       1.82        0.00      90.40       1.23       0.04       1.96       ----

> <Gold.Chemscore.Fitness>
16.9604

> <Gold.Chemscore.DG>
-18.9694

> <Gold.Chemscore.ZeroCoef>
-5.4800

> <Gold.Chemscore.Hbond>
1.8158

> <Gold.Chemscore.Metal>
0.0000

> <Gold.Chemscore.Lipo>
90.4031

> <Gold.Chemscore.Internal_Hbond>
0.0000

> <Gold.Chemscore.DEClash>
0.0444

> <Gold.Chemscore.DEInternal>
1.9645

> <Gold.Chemscore.Rot>
1.2315

> <Gold.Chemscore.Internal.Correction>
   9.000000E+99

> <Gold.Chemscore.Hbonds>
donor molecule, donor type, donor heavy atom, donor atom, acceptor molecule, acceptor atom, score
      L1  H     7    23       P1  8028  0.94
      L1  H    10    24       P1  8028  0.66

> <Gold.Chemscore.Hbond.Weighted>
-6.0648

> <Gold.Chemscore.Metal.Weighted>
-0.0000

> <Gold.Chemscore.Lipo.Weighted>
-10.5772

> <Gold.Chemscore.Internal_Hbond.Weighted>
0.0000

> <Gold.Chemscore.DEClash.Weighted>
0.0444

> <Gold.Chemscore.DEInternal.Weighted>
1.9645

> <Gold.Chemscore.Rot.Weighted>
3.1526

> <Gold.Chemscore.Internal.Correction.Weighted>
   9.000000E+99

> <Gold.Protein.RotatedTorsions>
[ 6907 6896 6895 6894 ] final  148.74 input  -60.11 | X-H torsion
[ 7974 7965 7964 7962 ] final  -27.50 input  175.53 | X-H torsion
[ 8008 7997 7996 7995 ] final   69.00 input   59.86 | X-H torsion
[ 10167 10162 10161 10158 ] final  -98.22 input  -65.29 | X-H torsion
[ 10718 10713 10712 10709 ] final  146.53 input   66.30 | X-H torsion
[ 10763 10752 10751 10750 ] final  -75.41 input  -60.55 | X-H torsion
[ 11005 11000 10999 10996 ] final  144.34 input  -57.11 | X-H torsion

> <Gold.Protein.ActiveResidues>
 VAL166  LYS551  ARG553  GLY616  TRP617  ASP618  TYR619  PRO620  LYS621  CYS622 
 ASP623  PHE694  ASN695  SER759  ASP760  ASP761  ALA762  ILE779  LEU786  VAL792 
 PHE793  MET794  SER795  GLU796  ALA797  LYS798  CYS799  TRP800  GLU811  SER814 

> <Gold.Protein.RotatedAtoms>
  152.1375  133.4444  159.4750 H   0  0  0  0  0  0  0  0  0  0  0  0  # atno 6907 bound_to 6896
  150.6883  134.2346  159.4457 H   0  0  0  0  0  0  0  0  0  0  0  0  # atno 6908 bound_to 6896
  152.0234  134.9809  160.0622 H   0  0  0  0  0  0  0  0  0  0  0  0  # atno 6909 bound_to 6896
  146.1353  140.5160  142.8675 H   0  0  0  0  0  0  0  0  0  0  0  0  # atno 7974 bound_to 7965
  155.7169  140.3494  155.4998 H   0  0  0  0  0  0  0  0  0  0  0  0  # atno 8008 bound_to 7997
  155.9305  140.1083  157.1158 H   0  0  0  0  0  0  0  0  0  0  0  0  # atno 8009 bound_to 7997
  154.4084  140.1232  156.4783 H   0  0  0  0  0  0  0  0  0  0  0  0  # atno 8010 bound_to 7997
  140.2752  143.3318  152.0495 H   0  0  0  0  0  0  0  0  0  0  0  0  # atno 10167 bound_to 10162
  157.3321  131.0922  151.1154 H   0  0  0  0  0  0  0  0  0  0  0  0  # atno 10718 bound_to 10713
  154.4862  135.5832  153.6426 H   0  0  0  0  0  0  0  0  0  0  0  0  # atno 10763 bound_to 10752
  152.9855  135.6102  154.3183 H   0  0  0  0  0  0  0  0  0  0  0  0  # atno 10764 bound_to 10752
  154.3078  135.2845  155.2559 H   0  0  0  0  0  0  0  0  0  0  0  0  # atno 10765 bound_to 10752
  140.0625  134.9197  157.1208 H   0  0  0  0  0  0  0  0  0  0  0  0  # atno 11005 bound_to 11000
  144.7734  140.5686  143.6655 LP  0  0  0  0  0  0  0  0  0  0  0  0  # atno 17320 bound_to 7965
  145.5169  139.1477  143.3574 LP  0  0  0  0  0  0  0  0  0  0  0  0  # atno 17321 bound_to 7965
  139.4977  144.6629  151.6423 LP  0  0  0  0  0  0  0  0  0  0  0  0  # atno 17342 bound_to 10162
  140.5857  143.9868  150.6294 LP  0  0  0  0  0  0  0  0  0  0  0  0  # atno 17343 bound_to 10162
  157.2398  130.6564  149.5885 LP  0  0  0  0  0  0  0  0  0  0  0  0  # atno 17370 bound_to 10713
  155.9697  130.4572  150.5953 LP  0  0  0  0  0  0  0  0  0  0  0  0  # atno 17371 bound_to 10713
  140.3749  134.2350  155.7175 LP  0  0  0  0  0  0  0  0  0  0  0  0  # atno 17394 bound_to 11000
  141.1979  133.8048  157.0607 LP  0  0  0  0  0  0  0  0  0  0  0  0  # atno 17395 bound_to 11000

$$$$
