AV-unprocessed.smi:73|AV-procd|sdf|759|dock1
  -GOLD-   2262017 93D 1   1.00000     0.00000
 Structure written by MMmdl.
 35 36  0  0  0  0  0  0  0  0  2 V2000
  146.2799  138.4497  155.4369 C   0  0  0  0  0  0  0  0  0  0  0  0
  147.0970  138.8001  156.6891 C   0  0  0  0  0  0  0  0  0  0  0  0
  148.5725  138.8567  156.5719 N   0  0  0  0  0  0  0  0  0  0  0  0
  149.1430  138.7954  157.9307 C   0  0  0  0  0  0  0  0  0  0  0  0
  148.9666  137.4755  158.6137 C   0  0  0  0  0  0  0  0  0  0  0  0
  149.4059  136.2842  158.2007 N   0  0  0  0  0  0  0  0  0  0  0  0
  148.9892  135.3814  159.1538 N   0  0  0  0  0  0  0  0  0  0  0  0
  148.3315  136.0970  160.0693 C   0  0  0  0  0  0  0  0  0  0  0  0
  147.6786  135.5972  161.3123 C   0  0  0  0  0  0  0  0  0  0  0  0
  148.2853  137.4247  159.7876 O   0  0  0  0  0  0  0  0  0  0  0  0
  149.0310  140.0699  155.8485 C   0  0  2  0  0  0  0  0  0  0  0  0
  148.5271  141.4052  156.4632 C   0  0  0  0  0  0  0  0  0  0  0  0
  147.8591  142.1875  155.4108 N   0  3  0  0  0  0  0  0  0  0  0  0
  148.3432  141.6810  154.1290 C   0  0  0  0  0  0  0  0  0  0  0  0
  148.5540  140.1916  154.3763 C   0  0  1  0  0  0  0  0  0  0  0  0
  149.5227  139.7101  153.4657 O   0  0  0  0  0  0  0  0  0  0  0  0
  147.6019  139.6790  154.2288 H   0  0  0  0  0  0  0  0  0  0  0  0
  145.2570  138.1975  155.7174 H   0  0  0  0  0  0  0  0  0  0  0  0
  146.6952  137.5852  154.9181 H   0  0  0  0  0  0  0  0  0  0  0  0
  146.2090  139.2833  154.7402 H   0  0  0  0  0  0  0  0  0  0  0  0
  146.7244  139.7352  157.1102 H   0  0  0  0  0  0  0  0  0  0  0  0
  146.8213  138.0350  157.4141 H   0  0  0  0  0  0  0  0  0  0  0  0
  150.2175  138.9635  157.9153 H   0  0  0  0  0  0  0  0  0  0  0  0
  148.7173  139.5819  158.5558 H   0  0  0  0  0  0  0  0  0  0  0  0
  147.4325  134.5401  161.2108 H   0  0  0  0  0  0  0  0  0  0  0  0
  146.7604  136.1526  161.5052 H   0  0  0  0  0  0  0  0  0  0  0  0
  148.3504  135.7223  162.1613 H   0  0  0  0  0  0  0  0  0  0  0  0
  150.1223  140.0949  155.8505 H   0  0  0  0  0  0  0  0  0  0  0  0
  147.7873  141.2653  157.2492 H   0  0  0  0  0  0  0  0  0  0  0  0
  149.3599  141.9788  156.8711 H   0  0  0  0  0  0  0  0  0  0  0  0
  146.8666  142.0072  155.4657 H   0  0  0  0  0  0  0  0  0  0  0  0
  147.6441  141.8855  153.3176 H   0  0  0  0  0  0  0  0  0  0  0  0
  149.2880  142.1781  153.9012 H   0  0  0  0  0  0  0  0  0  0  0  0
  149.1381  139.6776  152.6030 H   0  0  0  0  0  0  0  0  0  0  0  0
  148.0342  143.1771  155.5126 H   0  0  0  0  0  0  0  0  0  0  0  0
  1  2  1  0  0  0  0
  1 18  1  0  0  0  0
  1 19  1  0  0  0  0
  1 20  1  0  0  0  0
  2  3  1  0  0  0  0
  2 21  1  0  0  0  0
  2 22  1  0  0  0  0
  3  4  1  0  0  0  0
  3 11  1  0  0  0  0
  4  5  1  0  0  0  0
  4 23  1  0  0  0  0
  4 24  1  0  0  0  0
  5 10  1  0  0  0  0
  5  6  2  0  0  0  0
  6  7  1  0  0  0  0
  7  8  2  0  0  0  0
  8  9  1  0  0  0  0
  8 10  1  0  0  0  0
  9 25  1  0  0  0  0
  9 26  1  0  0  0  0
  9 27  1  0  0  0  0
 11 15  1  0  0  0  0
 11 12  1  0  0  0  0
 11 28  1  0  0  0  0
 12 13  1  0  0  0  0
 12 29  1  0  0  0  0
 12 30  1  0  0  0  0
 13 14  1  0  0  0  0
 13 31  1  0  0  0  0
 13 35  1  0  0  0  0
 14 15  1  0  0  0  0
 14 32  1  0  0  0  0
 14 33  1  0  0  0  0
 15 17  1  0  0  0  0
 15 16  1  0  0  0  0
 16 34  1  0  0  0  0
M  CHG  1  13   1
M  END
> <s_m_source_file>
AV-unprocessed.smi

> <i_m_source_file_index>
73

> <i_lp_mmshare_version>
43012

> <i_f3d_flags>
0

> <s_epik_input>
W09IXVtDQEBIXTFbQ0gyXVtOSF1bQ0gyXVtDQEhdMU4oW0NIMl1bQ0gzXSlbQ0gyXWMybm5jKG8yKVtDSDNd

> <s_epik_cmdline>
J2VwaWtfcHl0aG9uJywgJy1waCcsICc3LjAnLCAnLXRuJywgJzgnLCAnLW1hJywgJzIwMCcsICctbWV0YWxfYmluZGluZycsICctaW1hZScsICc8aW5maWxlLm1hZT4nLCAnLW9tYWUnLCAnPG91dGZpbGUubWFlPic=

> <r_lp_tautomer_probability>
1

> <r_epik_Ionization_Penalty>
0.00160433

> <r_epik_Ionization_Penalty_Charging>
0.000122314

> <r_epik_Ionization_Penalty_Neutral>
0.00148202

> <r_epik_State_Penalty>
-0

> <r_epik_Charging_Adjusted_Penalty>
0.000122314

> <i_epik_Tot_Q>
1

> <i_epik_Tot_abs_Q>
1

> <r_epik_Metal_State_Penalty>
-0

> <b_epik_Metal_Only>
0

> <s_lp_Force_Field>
OPLS_2005

> <r_lp_Energy>
42.0904

> <b_lp_Chiralities_Consistent>
1

> <s_lp_Variant>
AV-unprocessed.smi:73-1

> <Gold.Version>
5.8.1

> <Gold.Id.Protein>
6NUR|6NUR_protein|mol2

> <Gold.PLP.Fitness>
36.7160

> <Gold.PLP.PLP>
-21.1140

> <Gold.PLP.part.hbond>
-5.8406

> <Gold.PLP.part.metal>
0.0000

> <Gold.PLP.part.buried>
-2.6140

> <Gold.PLP.part.nonpolar>
-12.7166

> <Gold.PLP.part.repulsive>
0.0890

> <Gold.PLP.ligand.clash>
0.0000

> <Gold.PLP.ligand.torsion>
0.1915

> <Gold.PLP.Chemscore.Hbond>
5.3063

> <Gold.PLP.Chemscore.CHOScore>
0.0000

> <Gold.PLP.Chemscore.Metal>
0.0000

> <Gold.Chemscore.Hbonds>
donor molecule, donor type, donor heavy atom, donor atom, acceptor molecule, acceptor atom, score
      L1  H    13    35       P1  8028  2.00
      L1  H    16    34       P1  7957  0.72
      P1  H  6896  6908       L1     7  0.95
      P1  H  6931  6943       L1    10  0.06
      P1  H  6934  6947       L1    10  0.26
      P1  H  7989  7998       L1    16  0.07

> <Gold.PLP.Chemscore.Internal.Correction>
0.0663

> <Gold.Rescore>
     Score         DG    S(hbond)    S(metal)    S(lipo)     H(rot)  DE(clash)    DE(int)     intcor
     12.88     -14.20       3.33        0.00      34.29       2.51       1.00       0.32       ----

> <Gold.Chemscore.Fitness>
12.8762

> <Gold.Chemscore.DG>
-14.1956

> <Gold.Chemscore.ZeroCoef>
-5.4800

> <Gold.Chemscore.Hbond>
3.3285

> <Gold.Chemscore.Metal>
0.0000

> <Gold.Chemscore.Lipo>
34.2865

> <Gold.Chemscore.Internal_Hbond>
0.0000

> <Gold.Chemscore.DEClash>
0.9988

> <Gold.Chemscore.DEInternal>
0.3207

> <Gold.Chemscore.Rot>
2.5051

> <Gold.Chemscore.Internal.Correction>
   9.000000E+99

> <Gold.Chemscore.Hbonds>
donor molecule, donor type, donor heavy atom, donor atom, acceptor molecule, acceptor atom, score
      L1  H    13    35       P1  8028  0.74
      L1  H    16    34       P1  7957  0.69
      P1  H  6896  6908       L1     7  0.21
      P1  H  6931  6943       L1    10  0.02
      P1  H  6934  6947       L1    10  0.26
      P1  H  7989  7998       L1    16  0.07

> <Gold.Chemscore.Hbond.Weighted>
-11.1172

> <Gold.Chemscore.Metal.Weighted>
-0.0000

> <Gold.Chemscore.Lipo.Weighted>
-4.0115

> <Gold.Chemscore.Internal_Hbond.Weighted>
0.0000

> <Gold.Chemscore.DEClash.Weighted>
0.9988

> <Gold.Chemscore.DEInternal.Weighted>
0.3207

> <Gold.Chemscore.Rot.Weighted>
6.4131

> <Gold.Chemscore.Internal.Correction.Weighted>
   9.000000E+99

> <Gold.Protein.RotatedTorsions>
[ 6907 6896 6895 6894 ] final  168.99 input  -60.11 | X-H torsion
[ 7974 7965 7964 7962 ] final  -17.44 input  175.53 | X-H torsion
[ 8008 7997 7996 7995 ] final   56.01 input   59.86 | X-H torsion
[ 10167 10162 10161 10158 ] final   86.48 input  -65.29 | X-H torsion
[ 10718 10713 10712 10709 ] final   80.33 input   66.30 | X-H torsion
[ 10763 10752 10751 10750 ] final  -94.04 input  -60.55 | X-H torsion
[ 11005 11000 10999 10996 ] final    6.08 input  -57.11 | X-H torsion

> <Gold.Protein.ActiveResidues>
 VAL166  LYS551  ARG553  GLY616  TRP617  ASP618  TYR619  PRO620  LYS621  CYS622 
 ASP623  PHE694  ASN695  SER759  ASP760  ASP761  ALA762  ILE779  LEU786  VAL792 
 PHE793  MET794  SER795  GLU796  ALA797  LYS798  CYS799  TRP800  GLU811  SER814 

> <Gold.Protein.RotatedAtoms>
  151.8389  133.3420  159.3636 H   0  0  0  0  0  0  0  0  0  0  0  0  # atno 6907 bound_to 6896
  150.7241  134.5410  159.5756 H   0  0  0  0  0  0  0  0  0  0  0  0  # atno 6908 bound_to 6896
  152.2879  134.7755  160.0435 H   0  0  0  0  0  0  0  0  0  0  0  0  # atno 6909 bound_to 6896
  146.1941  140.3779  142.8447 H   0  0  0  0  0  0  0  0  0  0  0  0  # atno 7974 bound_to 7965
  155.5104  140.3477  155.4387 H   0  0  0  0  0  0  0  0  0  0  0  0  # atno 8008 bound_to 7997
  156.0853  140.1397  156.9688 H   0  0  0  0  0  0  0  0  0  0  0  0  # atno 8009 bound_to 7997
  154.4603  140.0937  156.6851 H   0  0  0  0  0  0  0  0  0  0  0  0  # atno 8010 bound_to 7997
  139.8871  144.6407  150.8780 H   0  0  0  0  0  0  0  0  0  0  0  0  # atno 10167 bound_to 10162
  157.6803  130.9954  150.2063 H   0  0  0  0  0  0  0  0  0  0  0  0  # atno 10718 bound_to 10713
  154.7017  135.5172  153.8536 H   0  0  0  0  0  0  0  0  0  0  0  0  # atno 10763 bound_to 10752
  153.0709  135.6601  154.0259 H   0  0  0  0  0  0  0  0  0  0  0  0  # atno 10764 bound_to 10752
  154.0117  135.3001  155.3371 H   0  0  0  0  0  0  0  0  0  0  0  0  # atno 10765 bound_to 10752
  140.5635  134.0170  155.7981 H   0  0  0  0  0  0  0  0  0  0  0  0  # atno 11005 bound_to 11000
  144.8544  140.7049  143.6147 LP  0  0  0  0  0  0  0  0  0  0  0  0  # atno 17320 bound_to 7965
  145.3700  139.1661  143.4337 LP  0  0  0  0  0  0  0  0  0  0  0  0  # atno 17321 bound_to 7965
  140.7734  143.3540  151.1959 LP  0  0  0  0  0  0  0  0  0  0  0  0  # atno 17342 bound_to 10162
  139.7143  143.9325  152.2960 LP  0  0  0  0  0  0  0  0  0  0  0  0  # atno 17343 bound_to 10162
  156.2743  130.3725  149.8000 LP  0  0  0  0  0  0  0  0  0  0  0  0  # atno 17370 bound_to 10713
  156.5707  130.8423  151.3355 LP  0  0  0  0  0  0  0  0  0  0  0  0  # atno 17371 bound_to 10713
  141.1100  133.9632  157.2928 LP  0  0  0  0  0  0  0  0  0  0  0  0  # atno 17394 bound_to 11000
  139.9396  135.0192  156.8666 LP  0  0  0  0  0  0  0  0  0  0  0  0  # atno 17395 bound_to 11000

$$$$
