AV-unprocessed.smi:1434|AV-procd|sdf|5849|dock10
  -GOLD-   22720 5513D 1   1.00000     0.00000
 Structure written by MMmdl.
 44 45  0  0  0  0  0  0  0  0  1 V2000
  146.4533  138.1900  151.8332 C   0  0  0  0  0  0  0  0  0  0  0  0
  145.9103  137.6886  153.5158 S   0  0  0  0  0  0  0  0  0  0  0  0
  144.7900  136.7450  153.3824 O   0  0  0  0  0  0  0  0  0  0  0  0
  147.0914  137.3246  154.3126 O   0  0  0  0  0  0  0  0  0  0  0  0
  145.2862  139.1620  154.1604 N   0  0  0  0  0  0  0  0  0  0  0  0
  146.2278  140.1457  154.6977 C   0  0  2  0  0  0  0  0  0  0  0  0
  145.5247  141.5046  154.9058 C   0  0  0  0  0  0  0  0  0  0  0  0
  146.5261  142.6144  155.2774 C   0  0  0  0  0  0  0  0  0  0  0  0
  147.7113  142.6366  154.2963 C   0  0  0  0  0  0  0  0  0  0  0  0
  148.3421  141.3052  154.2878 N   0  0  0  0  0  0  0  0  0  0  0  0
  149.5455  140.9791  154.8238 C   0  0  0  0  0  0  0  0  0  0  0  0
  150.1771  139.9732  154.4981 O   0  0  0  0  0  0  0  0  0  0  0  0
  150.0012  141.8436  155.7473 N   0  0  0  0  0  0  0  0  0  0  0  0
  151.2814  141.7583  156.4458 C   0  0  0  0  0  0  0  0  0  0  0  0
  151.1010  141.6229  157.9694 C   0  0  0  0  0  0  0  0  0  0  0  0
  151.3555  142.9135  158.7293 C   0  0  0  0  0  0  0  0  0  0  0  0
  152.2365  142.9402  159.8321 C   0  0  0  0  0  0  0  0  0  0  0  0
  152.4162  144.1570  160.5173 C   0  0  0  0  0  0  0  0  0  0  0  0
  151.7144  145.2945  160.0745 C   0  0  0  0  0  0  0  0  0  0  0  0
  150.8605  145.1642  158.9611 C   0  0  0  0  0  0  0  0  0  0  0  0
  150.6805  144.0022  158.2972 N   0  0  0  0  0  0  0  0  0  0  0  0
  147.4304  140.2905  153.7439 C   0  0  0  0  0  0  0  0  0  0  0  0
  146.8701  137.3263  151.3154 H   0  0  0  0  0  0  0  0  0  0  0  0
  147.2138  138.9669  151.9104 H   0  0  0  0  0  0  0  0  0  0  0  0
  145.5992  138.5704  151.2730 H   0  0  0  0  0  0  0  0  0  0  0  0
  144.6355  139.5992  153.5084 H   0  0  0  0  0  0  0  0  0  0  0  0
  146.5967  139.7833  155.6590 H   0  0  0  0  0  0  0  0  0  0  0  0
  145.0110  141.7898  153.9865 H   0  0  0  0  0  0  0  0  0  0  0  0
  144.7566  141.4266  155.6753 H   0  0  0  0  0  0  0  0  0  0  0  0
  146.0240  143.5822  155.2834 H   0  0  0  0  0  0  0  0  0  0  0  0
  146.8951  142.4496  156.2904 H   0  0  0  0  0  0  0  0  0  0  0  0
  147.3559  142.8685  153.2912 H   0  0  0  0  0  0  0  0  0  0  0  0
  148.3914  143.4492  154.5514 H   0  0  0  0  0  0  0  0  0  0  0  0
  149.4187  142.6377  155.9687 H   0  0  0  0  0  0  0  0  0  0  0  0
  151.8148  140.8876  156.0648 H   0  0  0  0  0  0  0  0  0  0  0  0
  151.9097  142.6208  156.2183 H   0  0  0  0  0  0  0  0  0  0  0  0
  150.0918  141.2727  158.1900 H   0  0  0  0  0  0  0  0  0  0  0  0
  151.7749  140.8536  158.3487 H   0  0  0  0  0  0  0  0  0  0  0  0
  152.7545  142.0482  160.1525 H   0  0  0  0  0  0  0  0  0  0  0  0
  153.0787  144.2160  161.3683 H   0  0  0  0  0  0  0  0  0  0  0  0
  151.8269  146.2445  160.5757 H   0  0  0  0  0  0  0  0  0  0  0  0
  150.3078  146.0159  158.5935 H   0  0  0  0  0  0  0  0  0  0  0  0
  147.9141  139.3227  153.6019 H   0  0  0  0  0  0  0  0  0  0  0  0
  147.0958  140.6014  152.7529 H   0  0  0  0  0  0  0  0  0  0  0  0
  1  2  1  0  0  0  0
  1 23  1  0  0  0  0
  1 24  1  0  0  0  0
  1 25  1  0  0  0  0
  2  3  2  0  0  0  0
  2  4  2  0  0  0  0
  2  5  1  0  0  0  0
  5  6  1  0  0  0  0
  5 26  1  0  0  0  0
  6 22  1  0  0  0  0
  6  7  1  0  0  0  0
  6 27  1  0  0  0  0
  7  8  1  0  0  0  0
  7 28  1  0  0  0  0
  7 29  1  0  0  0  0
  8  9  1  0  0  0  0
  8 30  1  0  0  0  0
  8 31  1  0  0  0  0
  9 10  1  0  0  0  0
  9 32  1  0  0  0  0
  9 33  1  0  0  0  0
 10 11  1  0  0  0  0
 10 22  1  0  0  0  0
 11 12  2  0  0  0  0
 11 13  1  0  0  0  0
 13 14  1  0  0  0  0
 13 34  1  0  0  0  0
 14 15  1  0  0  0  0
 14 35  1  0  0  0  0
 14 36  1  0  0  0  0
 15 16  1  0  0  0  0
 15 37  1  0  0  0  0
 15 38  1  0  0  0  0
 16 21  1  0  0  0  0
 16 17  2  0  0  0  0
 17 18  1  0  0  0  0
 17 39  1  0  0  0  0
 18 19  2  0  0  0  0
 18 40  1  0  0  0  0
 19 20  1  0  0  0  0
 19 41  1  0  0  0  0
 20 21  2  0  0  0  0
 20 42  1  0  0  0  0
 22 43  1  0  0  0  0
 22 44  1  0  0  0  0
M  END
> <s_m_source_file>
AV-unprocessed.smi

> <i_m_source_file_index>
1434

> <i_lp_mmshare_version>
43012

> <i_f3d_flags>
0

> <s_epik_input>
W0NIM11TKD1PKSg9TylbTkhdW0NAQEhdMVtDSDJdW0NIMl1bQ0gyXU4oW0NIMl0xKUMoPU8pW05IXVtDSDJdW0NIMl1jMltjSF1bY0hdW2NIXVtjSF1uMg==

> <s_epik_cmdline>
J2VwaWtfcHl0aG9uJywgJy1waCcsICc3LjAnLCAnLXRuJywgJzgnLCAnLW1hJywgJzIwMCcsICctbWV0YWxfYmluZGluZycsICctaW1hZScsICc8aW5maWxlLm1hZT4nLCAnLW9tYWUnLCAnPG91dGZpbGUubWFlPic=

> <r_epik_Ionization_Penalty>
0.0449488

> <r_epik_Ionization_Penalty_Charging>
0

> <r_epik_Ionization_Penalty_Neutral>
0.0449488

> <r_epik_State_Penalty>
0.0380669

> <r_epik_Charging_Adjusted_Penalty>
0.0380669

> <i_epik_Tot_Q>
0

> <i_epik_Tot_abs_Q>
0

> <r_epik_Metal_State_Penalty>
0.0441384

> <b_epik_Metal_Only>
0

> <s_lp_Force_Field>
OPLS_2005

> <r_lp_Energy>
23.2159

> <b_lp_Chiralities_Consistent>
1

> <s_lp_Variant>
AV-unprocessed.smi:1434-1

> <Gold.Version>
5.8.1

> <Gold.Id.Protein>
6NUR|6NUR_protein|mol2

> <Gold.PLP.Fitness>
48.3093

> <Gold.PLP.PLP>
-38.9327

> <Gold.PLP.part.hbond>
-3.0000

> <Gold.PLP.part.metal>
0.0000

> <Gold.PLP.part.buried>
-0.5111

> <Gold.PLP.part.nonpolar>
-36.2060

> <Gold.PLP.part.repulsive>
1.0019

> <Gold.PLP.ligand.clash>
0.0000

> <Gold.PLP.ligand.torsion>
1.1302

> <Gold.PLP.Chemscore.Hbond>
2.8960

> <Gold.PLP.Chemscore.CHOScore>
0.9408

> <Gold.PLP.Chemscore.Metal>
0.0000

> <Gold.Chemscore.Hbonds>
donor molecule, donor type, donor heavy atom, donor atom, acceptor molecule, acceptor atom, score
      L1  H     5    26       P1 10175  1.00
      L1  H    13    34       P1  8028  0.64
      P1  H  7989  7998       L1    12  0.90
      L1  C    20    42       P1  8029  0.49

> <Gold.PLP.Chemscore.Internal.Correction>
0.1267

> <Gold.Rescore>
     Score         DG    S(hbond)    S(metal)    S(lipo)     H(rot)  DE(clash)    DE(int)     intcor
     16.64     -20.96       2.47        0.00     106.32       2.03       1.95       2.37       ----

> <Gold.Chemscore.Fitness>
16.6374

> <Gold.Chemscore.DG>
-20.9574

> <Gold.Chemscore.ZeroCoef>
-5.4800

> <Gold.Chemscore.Hbond>
2.4685

> <Gold.Chemscore.Metal>
0.0000

> <Gold.Chemscore.Lipo>
106.3227

> <Gold.Chemscore.Internal_Hbond>
0.0000

> <Gold.Chemscore.DEClash>
1.9481

> <Gold.Chemscore.DEInternal>
2.3719

> <Gold.Chemscore.Rot>
2.0340

> <Gold.Chemscore.Internal.Correction>
   9.000000E+99

> <Gold.Chemscore.Hbonds>
donor molecule, donor type, donor heavy atom, donor atom, acceptor molecule, acceptor atom, score
      L1  H     5    26       P1 10175  1.00
      L1  H    13    34       P1  8028  0.61
      P1  H  7989  7998       L1    12  0.17

> <Gold.Chemscore.Hbond.Weighted>
-8.2447

> <Gold.Chemscore.Metal.Weighted>
-0.0000

> <Gold.Chemscore.Lipo.Weighted>
-12.4398

> <Gold.Chemscore.Internal_Hbond.Weighted>
0.0000

> <Gold.Chemscore.DEClash.Weighted>
1.9481

> <Gold.Chemscore.DEInternal.Weighted>
2.3719

> <Gold.Chemscore.Rot.Weighted>
5.2071

> <Gold.Chemscore.Internal.Correction.Weighted>
   9.000000E+99

> <Gold.Protein.RotatedTorsions>
[ 6907 6896 6895 6894 ] final   99.81 input  -60.11 | X-H torsion
[ 7974 7965 7964 7962 ] final  -15.67 input  175.53 | X-H torsion
[ 8008 7997 7996 7995 ] final  111.71 input   59.86 | X-H torsion
[ 10167 10162 10161 10158 ] final  -64.55 input  -65.29 | X-H torsion
[ 10718 10713 10712 10709 ] final   91.73 input   66.30 | X-H torsion
[ 10763 10752 10751 10750 ] final   96.22 input  -60.55 | X-H torsion
[ 11005 11000 10999 10996 ] final   49.55 input  -57.11 | X-H torsion

> <Gold.Protein.ActiveResidues>
 VAL166  LYS551  ARG553  GLY616  TRP617  ASP618  TYR619  PRO620  LYS621  CYS622 
 ASP623  PHE694  ASN695  SER759  ASP760  ASP761  ALA762  ILE779  LEU786  VAL792 
 PHE793  MET794  SER795  GLU796  ALA797  LYS798  CYS799  TRP800  GLU811  SER814 

> <Gold.Protein.RotatedAtoms>
  152.5385  134.0371  159.8050 H   0  0  0  0  0  0  0  0  0  0  0  0  # atno 6907 bound_to 6896
  151.0533  133.5598  159.2647 H   0  0  0  0  0  0  0  0  0  0  0  0  # atno 6908 bound_to 6896
  151.2524  135.0634  159.9121 H   0  0  0  0  0  0  0  0  0  0  0  0  # atno 6909 bound_to 6896
  146.2022  140.3525  142.8419 H   0  0  0  0  0  0  0  0  0  0  0  0  # atno 7974 bound_to 7965
  156.2142  140.3014  155.9802 H   0  0  0  0  0  0  0  0  0  0  0  0  # atno 8008 bound_to 7997
  155.2646  140.0431  157.3018 H   0  0  0  0  0  0  0  0  0  0  0  0  # atno 8009 bound_to 7997
  154.5744  140.2357  155.8153 H   0  0  0  0  0  0  0  0  0  0  0  0  # atno 8010 bound_to 7997
  140.5793  143.2325  151.6376 H   0  0  0  0  0  0  0  0  0  0  0  0  # atno 10167 bound_to 10162
  157.6960  131.0418  150.3773 H   0  0  0  0  0  0  0  0  0  0  0  0  # atno 10718 bound_to 10713
  153.2623  135.4226  155.0906 H   0  0  0  0  0  0  0  0  0  0  0  0  # atno 10763 bound_to 10752
  154.8425  135.3452  154.6360 H   0  0  0  0  0  0  0  0  0  0  0  0  # atno 10764 bound_to 10752
  153.6780  135.7040  153.5184 H   0  0  0  0  0  0  0  0  0  0  0  0  # atno 10765 bound_to 10752
  140.1093  134.4976  155.8692 H   0  0  0  0  0  0  0  0  0  0  0  0  # atno 11005 bound_to 11000
  144.8709  140.7271  143.6047 LP  0  0  0  0  0  0  0  0  0  0  0  0  # atno 17320 bound_to 7965
  145.3445  139.1723  143.4468 LP  0  0  0  0  0  0  0  0  0  0  0  0  # atno 17321 bound_to 7965
  139.5160  144.3359  152.0784 LP  0  0  0  0  0  0  0  0  0  0  0  0  # atno 17342 bound_to 10162
  140.2507  144.4172  150.6223 LP  0  0  0  0  0  0  0  0  0  0  0  0  # atno 17343 bound_to 10162
  156.4191  130.3949  149.6837 LP  0  0  0  0  0  0  0  0  0  0  0  0  # atno 17370 bound_to 10713
  156.4094  130.7714  151.2727 LP  0  0  0  0  0  0  0  0  0  0  0  0  # atno 17371 bound_to 10713
  141.2126  133.6722  156.6674 LP  0  0  0  0  0  0  0  0  0  0  0  0  # atno 17394 bound_to 11000
  140.3112  134.8084  157.4178 LP  0  0  0  0  0  0  0  0  0  0  0  0  # atno 17395 bound_to 11000

$$$$
