AV-unprocessed.smi:1971|AV-procd|sdf|7967|dock10
  -GOLD-   2272010143D 1   1.00000     0.00000
 Structure written by MMmdl.
 43 44  0  0  0  0  0  0  0  0  1 V2000
  153.3501  141.6948  159.6202 C   0  0  0  0  0  0  0  0  0  0  0  0
  151.8284  141.8953  159.5867 C   0  0  0  0  0  0  0  0  0  0  0  0
  151.1294  141.1400  158.5485 N   0  0  0  0  0  0  0  0  0  0  0  0
  151.2336  141.8136  157.2563 C   0  0  0  0  0  0  0  0  0  0  0  0
  150.4946  141.0425  156.1478 C   0  0  0  0  0  0  0  0  0  0  0  0
  151.0181  139.6802  155.9814 N   0  0  0  0  0  0  0  0  0  0  0  0
  150.3342  138.9341  154.9034 C   0  0  1  0  0  0  0  0  0  0  0  0
  151.0687  137.6380  154.4926 C   0  0  0  0  0  0  0  0  0  0  0  0
  148.8648  138.5684  155.2293 C   0  0  0  0  0  0  0  0  0  0  0  0
  148.2748  137.7364  154.1867 N   0  0  0  0  0  0  0  0  0  0  0  0
  147.0045  137.3146  154.1793 C   0  0  0  0  0  0  0  0  0  0  0  0
  146.1869  137.6111  155.0511 O   0  0  0  0  0  0  0  0  0  0  0  0
  146.7583  136.5342  153.1126 N   0  0  0  0  0  0  0  0  0  0  0  0
  145.5438  135.8928  152.7550 C   0  0  0  0  0  0  0  0  0  0  0  0
  144.7533  135.2394  153.6146 N   0  0  0  0  0  0  0  0  0  0  0  0
  143.6231  134.7083  152.9878 C   0  0  0  0  0  0  0  0  0  0  0  0
  143.5695  134.9678  151.6409 C   0  0  0  0  0  0  0  0  0  0  0  0
  144.9424  135.8984  151.1037 S   0  0  0  0  0  0  0  0  0  0  0  0
  150.9175  139.0100  157.2853 C   0  0  0  0  0  0  0  0  0  0  0  0
  151.6553  139.7834  158.3937 C   0  0  0  0  0  0  0  0  0  0  0  0
  153.7848  142.2101  160.4768 H   0  0  0  0  0  0  0  0  0  0  0  0
  153.8340  142.0892  158.7270 H   0  0  0  0  0  0  0  0  0  0  0  0
  153.6060  140.6385  159.7058 H   0  0  0  0  0  0  0  0  0  0  0  0
  151.4385  141.5972  160.5608 H   0  0  0  0  0  0  0  0  0  0  0  0
  151.6038  142.9584  159.4874 H   0  0  0  0  0  0  0  0  0  0  0  0
  150.8152  142.8179  157.3307 H   0  0  0  0  0  0  0  0  0  0  0  0
  152.2824  141.9336  156.9799 H   0  0  0  0  0  0  0  0  0  0  0  0
  149.4264  141.0099  156.3685 H   0  0  0  0  0  0  0  0  0  0  0  0
  150.6091  141.6109  155.2265 H   0  0  0  0  0  0  0  0  0  0  0  0
  150.3057  139.5707  154.0177 H   0  0  0  0  0  0  0  0  0  0  0  0
  150.4829  137.0620  153.7758 H   0  0  0  0  0  0  0  0  0  0  0  0
  151.2591  136.9955  155.3530 H   0  0  0  0  0  0  0  0  0  0  0  0
  152.0223  137.8426  154.0070 H   0  0  0  0  0  0  0  0  0  0  0  0
  148.7906  138.0566  156.1890 H   0  0  0  0  0  0  0  0  0  0  0  0
  148.2702  139.4765  155.3418 H   0  0  0  0  0  0  0  0  0  0  0  0
  148.8855  137.4463  153.4368 H   0  0  0  0  0  0  0  0  0  0  0  0
  147.5342  136.3719  152.4878 H   0  0  0  0  0  0  0  0  0  0  0  0
  142.9056  134.1579  153.5779 H   0  0  0  0  0  0  0  0  0  0  0  0
  142.8082  134.6702  150.9353 H   0  0  0  0  0  0  0  0  0  0  0  0
  149.8695  138.8800  157.5601 H   0  0  0  0  0  0  0  0  0  0  0  0
  151.3557  138.0145  157.2385 H   0  0  0  0  0  0  0  0  0  0  0  0
  152.7222  139.8175  158.1680 H   0  0  0  0  0  0  0  0  0  0  0  0
  151.5510  139.2310  159.3270 H   0  0  0  0  0  0  0  0  0  0  0  0
  1  2  1  0  0  0  0
  1 21  1  0  0  0  0
  1 22  1  0  0  0  0
  1 23  1  0  0  0  0
  2  3  1  0  0  0  0
  2 24  1  0  0  0  0
  2 25  1  0  0  0  0
  3 20  1  0  0  0  0
  3  4  1  0  0  0  0
  4  5  1  0  0  0  0
  4 26  1  0  0  0  0
  4 27  1  0  0  0  0
  5  6  1  0  0  0  0
  5 28  1  0  0  0  0
  5 29  1  0  0  0  0
  6  7  1  0  0  0  0
  6 19  1  0  0  0  0
  7  8  1  0  0  0  0
  7  9  1  0  0  0  0
  7 30  1  0  0  0  0
  8 31  1  0  0  0  0
  8 32  1  0  0  0  0
  8 33  1  0  0  0  0
  9 10  1  0  0  0  0
  9 34  1  0  0  0  0
  9 35  1  0  0  0  0
 10 11  1  0  0  0  0
 10 36  1  0  0  0  0
 11 12  2  0  0  0  0
 11 13  1  0  0  0  0
 13 14  1  0  0  0  0
 13 37  1  0  0  0  0
 14 18  1  0  0  0  0
 14 15  2  0  0  0  0
 15 16  1  0  0  0  0
 16 17  2  0  0  0  0
 16 38  1  0  0  0  0
 17 18  1  0  0  0  0
 17 39  1  0  0  0  0
 19 20  1  0  0  0  0
 19 40  1  0  0  0  0
 19 41  1  0  0  0  0
 20 42  1  0  0  0  0
 20 43  1  0  0  0  0
M  END
> <s_m_source_file>
AV-unprocessed.smi

> <i_m_source_file_index>
1971

> <i_lp_mmshare_version>
43012

> <i_f3d_flags>
0

> <s_epik_input>
W0NIM11bQ0gyXU4xW0NIMl1bQ0gyXU4oW0NIMl1bQ0gyXTEpW0NASF0oW0NIM10pW0NIMl1bTkhdQyg9TylbTkhdYzJuW2NIXVtjSF1zMg==

> <s_epik_cmdline>
J2VwaWtfcHl0aG9uJywgJy1waCcsICc3LjAnLCAnLXRuJywgJzgnLCAnLW1hJywgJzIwMCcsICctbWV0YWxfYmluZGluZycsICctaW1hZScsICc8aW5maWxlLm1hZT4nLCAnLW9tYWUnLCAnPG91dGZpbGUubWFlPic=

> <r_lp_tautomer_probability>
0.999

> <r_epik_Ionization_Penalty>
2.43994

> <r_epik_Ionization_Penalty_Charging>
0

> <r_epik_Ionization_Penalty_Neutral>
2.43994

> <r_epik_State_Penalty>
1.7682

> <r_epik_Charging_Adjusted_Penalty>
1.7682

> <i_epik_Tot_Q>
0

> <i_epik_Tot_abs_Q>
0

> <r_epik_Metal_State_Penalty>
1.80147

> <b_epik_Metal_Only>
0

> <s_lp_Force_Field>
OPLS_2005

> <r_lp_Energy>
42.8393

> <b_lp_Chiralities_Consistent>
1

> <s_lp_Variant>
AV-unprocessed.smi:1971-6

> <Gold.Version>
5.8.1

> <Gold.Id.Protein>
6NUR|6NUR_protein|mol2

> <Gold.PLP.Fitness>
40.6334

> <Gold.PLP.PLP>
-30.4610

> <Gold.PLP.part.hbond>
-1.9906

> <Gold.PLP.part.metal>
0.0000

> <Gold.PLP.part.buried>
-5.6318

> <Gold.PLP.part.nonpolar>
-24.7691

> <Gold.PLP.part.repulsive>
0.1682

> <Gold.PLP.ligand.clash>
0.0000

> <Gold.PLP.ligand.torsion>
0.7043

> <Gold.PLP.Chemscore.Hbond>
1.8480

> <Gold.PLP.Chemscore.CHOScore>
1.9944

> <Gold.PLP.Chemscore.Metal>
0.0000

> <Gold.Chemscore.Hbonds>
donor molecule, donor type, donor heavy atom, donor atom, acceptor molecule, acceptor atom, score
      L1  H    10    36       P1  7948  0.86
      L1  H    13    37       P1  7948  1.00
      L1  C    16    38       P1 10957  0.61
      L1  C    17    39       P1 10186  0.77

> <Gold.PLP.Chemscore.Internal.Correction>
0.0537

> <Gold.Rescore>
     Score         DG    S(hbond)    S(metal)    S(lipo)     H(rot)  DE(clash)    DE(int)     intcor
     16.11     -16.63       1.90        0.00      79.27       1.75       0.04       0.48       ----

> <Gold.Chemscore.Fitness>
16.1098

> <Gold.Chemscore.DG>
-16.6329

> <Gold.Chemscore.ZeroCoef>
-5.4800

> <Gold.Chemscore.Hbond>
1.9014

> <Gold.Chemscore.Metal>
0.0000

> <Gold.Chemscore.Lipo>
79.2746

> <Gold.Chemscore.Internal_Hbond>
0.0000

> <Gold.Chemscore.DEClash>
0.0412

> <Gold.Chemscore.DEInternal>
0.4819

> <Gold.Chemscore.Rot>
1.7473

> <Gold.Chemscore.Internal.Correction>
   9.000000E+99

> <Gold.Chemscore.Hbonds>
donor molecule, donor type, donor heavy atom, donor atom, acceptor molecule, acceptor atom, score
      L1  H    10    36       P1  7948  0.83
      L1  H    13    37       P1  7948  0.95

> <Gold.Chemscore.Hbond.Weighted>
-6.3508

> <Gold.Chemscore.Metal.Weighted>
-0.0000

> <Gold.Chemscore.Lipo.Weighted>
-9.2751

> <Gold.Chemscore.Internal_Hbond.Weighted>
0.0000

> <Gold.Chemscore.DEClash.Weighted>
0.0412

> <Gold.Chemscore.DEInternal.Weighted>
0.4819

> <Gold.Chemscore.Rot.Weighted>
4.4731

> <Gold.Chemscore.Internal.Correction.Weighted>
   9.000000E+99

> <Gold.Protein.RotatedTorsions>
[ 6907 6896 6895 6894 ] final  -28.22 input  -60.11 | X-H torsion
[ 7974 7965 7964 7962 ] final   72.06 input  175.53 | X-H torsion
[ 8008 7997 7996 7995 ] final   -1.99 input   59.86 | X-H torsion
[ 10167 10162 10161 10158 ] final  161.68 input  -65.29 | X-H torsion
[ 10718 10713 10712 10709 ] final -124.50 input   66.30 | X-H torsion
[ 10763 10752 10751 10750 ] final -146.45 input  -60.55 | X-H torsion
[ 11005 11000 10999 10996 ] final   -0.59 input  -57.11 | X-H torsion

> <Gold.Protein.ActiveResidues>
 VAL166  LYS551  ARG553  GLY616  TRP617  ASP618  TYR619  PRO620  LYS621  CYS622 
 ASP623  PHE694  ASN695  SER759  ASP760  ASP761  ALA762  ILE779  LEU786  VAL792 
 PHE793  MET794  SER795  GLU796  ALA797  LYS798  CYS799  TRP800  GLU811  SER814 

> <Gold.Protein.RotatedAtoms>
  151.1360  135.0155  159.8603 H   0  0  0  0  0  0  0  0  0  0  0  0  # atno 6907 bound_to 6896
  152.5452  134.1554  159.8546 H   0  0  0  0  0  0  0  0  0  0  0  0  # atno 6908 bound_to 6896
  151.1625  133.4790  159.2627 H   0  0  0  0  0  0  0  0  0  0  0  0  # atno 6909 bound_to 6896
  145.7581  139.2788  143.1392 H   0  0  0  0  0  0  0  0  0  0  0  0  # atno 7974 bound_to 7965
  154.6407  140.2545  155.7326 H   0  0  0  0  0  0  0  0  0  0  0  0  # atno 8008 bound_to 7997
  156.2527  140.2888  156.0719 H   0  0  0  0  0  0  0  0  0  0  0  0  # atno 8009 bound_to 7997
  155.1602  140.0384  157.2831 H   0  0  0  0  0  0  0  0  0  0  0  0  # atno 8010 bound_to 7997
  139.4852  144.4513  151.8826 H   0  0  0  0  0  0  0  0  0  0  0  0  # atno 10167 bound_to 10162
  156.1593  130.6590  151.0026 H   0  0  0  0  0  0  0  0  0  0  0  0  # atno 10718 bound_to 10713
  154.8335  135.3386  154.6663 H   0  0  0  0  0  0  0  0  0  0  0  0  # atno 10763 bound_to 10752
  153.7280  135.6954  153.5001 H   0  0  0  0  0  0  0  0  0  0  0  0  # atno 10764 bound_to 10752
  153.2333  135.4409  155.0571 H   0  0  0  0  0  0  0  0  0  0  0  0  # atno 10765 bound_to 10752
  140.6380  133.9515  155.8310 H   0  0  0  0  0  0  0  0  0  0  0  0  # atno 11005 bound_to 11000
  146.0291  140.8275  142.9885 LP  0  0  0  0  0  0  0  0  0  0  0  0  # atno 17320 bound_to 7965
  144.6836  140.2742  143.7301 LP  0  0  0  0  0  0  0  0  0  0  0  0  # atno 17321 bound_to 7965
  140.3970  144.2543  150.5895 LP  0  0  0  0  0  0  0  0  0  0  0  0  # atno 17342 bound_to 10162
  140.5093  143.2295  151.8560 LP  0  0  0  0  0  0  0  0  0  0  0  0  # atno 17343 bound_to 10162
  157.6720  131.0859  150.7589 LP  0  0  0  0  0  0  0  0  0  0  0  0  # atno 17370 bound_to 10713
  156.7653  130.4811  149.5429 LP  0  0  0  0  0  0  0  0  0  0  0  0  # atno 17371 bound_to 10713
  141.0627  134.0322  157.3636 LP  0  0  0  0  0  0  0  0  0  0  0  0  # atno 17394 bound_to 11000
  139.9091  135.0186  156.7614 LP  0  0  0  0  0  0  0  0  0  0  0  0  # atno 17395 bound_to 11000

$$$$
