AV-unprocessed.smi:3234|AV-procd|sdf|12358|dock10
  -GOLD-   2272018223D 1   1.00000     0.00000
 Structure written by MMmdl.
 37 39  0  0  0  0  0  0  0  0  4 V2000
  152.0458  140.0064  156.3826 O   0  0  0  0  0  0  0  0  0  0  0  0
  151.1995  140.7892  155.9350 C   0  0  0  0  0  0  0  0  0  0  0  0
  150.9695  141.9631  156.5494 N   0  0  0  0  0  0  0  0  0  0  0  0
  151.5501  142.4709  157.7424 C   0  0  0  0  0  0  0  0  0  0  0  0
  152.0497  141.5416  158.6810 C   0  0  0  0  0  0  0  0  0  0  0  0
  152.6526  142.0088  159.8664 C   0  0  0  0  0  0  0  0  0  0  0  0
  152.7601  143.3366  160.0883 N   0  3  0  0  0  0  0  0  0  0  0  0
  152.3146  144.2621  159.2115 C   0  0  0  0  0  0  0  0  0  0  0  0
  151.7023  143.8548  158.0091 C   0  0  0  0  0  0  0  0  0  0  0  0
  150.4284  140.6289  154.8255 N   0  5  0  0  0  0  0  0  0  0  0  0
  149.7805  139.3753  154.4343 C   0  0  2  0  0  0  0  0  0  0  0  0
  148.8823  138.8319  155.5464 C   0  0  0  0  0  0  0  0  0  0  0  0
  148.8557  137.3144  155.3079 C   0  0  0  0  0  0  0  0  0  0  0  0
  149.9755  137.0086  154.3868 N   0  3  2  0  0  0  0  0  0  0  0  0
  150.7560  135.8060  154.7486 C   0  0  0  0  0  0  0  0  0  0  0  0
  149.9005  134.6421  155.1887 C   0  0  0  0  0  0  0  0  0  0  0  0
  150.6687  135.4494  156.2129 C   0  0  0  0  0  0  0  0  0  0  0  0
  150.7833  138.2357  154.2493 C   0  0  0  0  0  0  0  0  0  0  0  0
  150.3501  142.5931  156.0608 H   0  0  0  0  0  0  0  0  0  0  0  0
  151.9653  140.4796  158.4999 H   0  0  0  0  0  0  0  0  0  0  0  0
  153.0514  141.3649  160.6365 H   0  0  0  0  0  0  0  0  0  0  0  0
  152.4663  145.2941  159.4915 H   0  0  0  0  0  0  0  0  0  0  0  0
  151.3710  144.6051  157.3070 H   0  0  0  0  0  0  0  0  0  0  0  0
  149.1862  139.4756  153.5244 H   0  0  0  0  0  0  0  0  0  0  0  0
  149.3205  139.0318  156.5261 H   0  0  0  0  0  0  0  0  0  0  0  0
  147.8865  139.2758  155.5337 H   0  0  0  0  0  0  0  0  0  0  0  0
  148.9499  136.7776  156.2534 H   0  0  0  0  0  0  0  0  0  0  0  0
  147.9202  136.9979  154.8441 H   0  0  0  0  0  0  0  0  0  0  0  0
  151.6745  135.6361  154.1894 H   0  0  0  0  0  0  0  0  0  0  0  0
  148.8184  134.7600  155.1637 H   0  0  0  0  0  0  0  0  0  0  0  0
  150.2639  133.6407  154.9679 H   0  0  0  0  0  0  0  0  0  0  0  0
  151.5383  134.9793  156.6676 H   0  0  0  0  0  0  0  0  0  0  0  0
  150.0969  136.1032  156.8691 H   0  0  0  0  0  0  0  0  0  0  0  0
  151.2907  138.2738  153.2847 H   0  0  0  0  0  0  0  0  0  0  0  0
  151.5425  138.2616  155.0337 H   0  0  0  0  0  0  0  0  0  0  0  0
  149.5592  136.8457  153.4814 H   0  0  0  0  0  0  0  0  0  0  0  0
  153.2014  143.6539  160.9517 H   0  0  0  0  0  0  0  0  0  0  0  0
  1  2  2  0  0  0  0
  2  3  1  0  0  0  0
  2 10  1  0  0  0  0
  3  4  1  0  0  0  0
  3 19  1  0  0  0  0
  4  9  1  0  0  0  0
  4  5  2  0  0  0  0
  5  6  1  0  0  0  0
  5 20  1  0  0  0  0
  6  7  2  0  0  0  0
  6 21  1  0  0  0  0
  7  8  1  0  0  0  0
  7 37  1  0  0  0  0
  8  9  2  0  0  0  0
  8 22  1  0  0  0  0
  9 23  1  0  0  0  0
 10 11  1  0  0  0  0
 11 18  1  0  0  0  0
 11 12  1  0  0  0  0
 11 24  1  0  0  0  0
 12 13  1  0  0  0  0
 12 25  1  0  0  0  0
 12 26  1  0  0  0  0
 13 14  1  0  0  0  0
 13 27  1  0  0  0  0
 13 28  1  0  0  0  0
 14 15  1  0  0  0  0
 14 18  1  0  0  0  0
 14 36  1  0  0  0  0
 15 17  1  0  0  0  0
 15 16  1  0  0  0  0
 15 29  1  0  0  0  0
 16 17  1  0  0  0  0
 16 30  1  0  0  0  0
 16 31  1  0  0  0  0
 17 32  1  0  0  0  0
 17 33  1  0  0  0  0
 18 34  1  0  0  0  0
 18 35  1  0  0  0  0
M  CHG  1   7   1
M  CHG  1  10  -1
M  CHG  1  14   1
M  END
> <s_m_source_file>
AV-unprocessed.smi

> <i_m_source_file_index>
3234

> <i_lp_mmshare_version>
43012

> <i_f3d_flags>
0

> <s_epik_input>
W2NIXTFbY0hdbltjSF1bY0hdYzFbTkhdQyg9TylbTkhdW0NAQEhdMltDSDJdW0NIMl1OKFtDSDJdMilbQ0hdM1tDSDJdW0NIMl0z

> <s_epik_cmdline>
J2VwaWtfcHl0aG9uJywgJy1waCcsICc3LjAnLCAnLXRuJywgJzgnLCAnLW1hJywgJzIwMCcsICctbWV0YWxfYmluZGluZycsICctaW1hZScsICc8aW5maWxlLm1hZT4nLCAnLW9tYWUnLCAnPG91dGZpbGUubWFlPic=

> <r_epik_Ionization_Penalty>
8.3234

> <r_epik_Ionization_Penalty_Charging>
8.3234

> <r_epik_Ionization_Penalty_Neutral>
3.58513e-06

> <r_epik_State_Penalty>
7.99376

> <r_epik_Charging_Adjusted_Penalty>
16.3172

> <i_epik_Tot_Q>
1

> <i_epik_Tot_abs_Q>
3

> <r_epik_Metal_State_Penalty>
3.98956

> <b_epik_Metal_Only>
1

> <s_lp_Force_Field>
OPLS_2005

> <r_lp_Energy>
39.7431

> <b_lp_Chiralities_Consistent>
1

> <s_lp_Variant>
AV-unprocessed.smi:3234-11

> <Gold.Version>
5.8.1

> <Gold.Id.Protein>
6NUR|6NUR_protein|mol2

> <Gold.PLP.Fitness>
44.1960

> <Gold.PLP.PLP>
-35.2809

> <Gold.PLP.part.hbond>
-2.3293

> <Gold.PLP.part.metal>
0.0000

> <Gold.PLP.part.buried>
-4.3449

> <Gold.PLP.part.nonpolar>
-27.1212

> <Gold.PLP.part.repulsive>
0.2611

> <Gold.PLP.ligand.clash>
0.0000

> <Gold.PLP.ligand.torsion>
1.1345

> <Gold.PLP.Chemscore.Hbond>
3.3018

> <Gold.PLP.Chemscore.CHOScore>
0.0000

> <Gold.PLP.Chemscore.Metal>
0.0000

> <Gold.Chemscore.Hbonds>
donor molecule, donor type, donor heavy atom, donor atom, acceptor molecule, acceptor atom, score
      L1  H    14    36       P1  7948  2.00
      P1  H  7989  7998       L1    10  0.93
      P1  H  7997  8010       L1     1  0.34

> <Gold.PLP.Chemscore.Internal.Correction>
1.2789

> <Gold.Rescore>
     Score         DG    S(hbond)    S(metal)    S(lipo)     H(rot)  DE(clash)    DE(int)     intcor
     16.28     -19.89       2.06        0.00      90.74       1.21       0.44       3.17       ----

> <Gold.Chemscore.Fitness>
16.2840

> <Gold.Chemscore.DG>
-19.8898

> <Gold.Chemscore.ZeroCoef>
-5.4800

> <Gold.Chemscore.Hbond>
2.0638

> <Gold.Chemscore.Metal>
0.0000

> <Gold.Chemscore.Lipo>
90.7381

> <Gold.Chemscore.Internal_Hbond>
0.0000

> <Gold.Chemscore.DEClash>
0.4365

> <Gold.Chemscore.DEInternal>
3.1693

> <Gold.Chemscore.Rot>
1.2108

> <Gold.Chemscore.Internal.Correction>
   9.000000E+99

> <Gold.Chemscore.Hbonds>
donor molecule, donor type, donor heavy atom, donor atom, acceptor molecule, acceptor atom, score
      L1  H    14    36       P1  7948  0.78
      P1  H  7989  7998       L1    10  0.12
      P1  H  7997  8010       L1     1  0.33

> <Gold.Chemscore.Hbond.Weighted>
-6.8930

> <Gold.Chemscore.Metal.Weighted>
-0.0000

> <Gold.Chemscore.Lipo.Weighted>
-10.6164

> <Gold.Chemscore.Internal_Hbond.Weighted>
0.0000

> <Gold.Chemscore.DEClash.Weighted>
0.4365

> <Gold.Chemscore.DEInternal.Weighted>
3.1693

> <Gold.Chemscore.Rot.Weighted>
3.0996

> <Gold.Chemscore.Internal.Correction.Weighted>
   9.000000E+99

> <Gold.Protein.RotatedTorsions>
[ 6907 6896 6895 6894 ] final  133.75 input  -60.11 | X-H torsion
[ 7974 7965 7964 7962 ] final  171.25 input  175.53 | X-H torsion
[ 8008 7997 7996 7995 ] final   69.93 input   59.86 | X-H torsion
[ 10167 10162 10161 10158 ] final  -33.93 input  -65.29 | X-H torsion
[ 10718 10713 10712 10709 ] final -163.04 input   66.30 | X-H torsion
[ 10763 10752 10751 10750 ] final  -89.24 input  -60.55 | X-H torsion
[ 11005 11000 10999 10996 ] final   78.70 input  -57.11 | X-H torsion

> <Gold.Protein.ActiveResidues>
 VAL166  LYS551  ARG553  GLY616  TRP617  ASP618  TYR619  PRO620  LYS621  CYS622 
 ASP623  PHE694  ASN695  SER759  ASP760  ASP761  ALA762  ILE779  LEU786  VAL792 
 PHE793  MET794  SER795  GLU796  ALA797  LYS798  CYS799  TRP800  GLU811  SER814 

> <Gold.Protein.RotatedAtoms>
  152.3187  133.5830  159.5729 H   0  0  0  0  0  0  0  0  0  0  0  0  # atno 6907 bound_to 6896
  150.7360  134.0044  159.3658 H   0  0  0  0  0  0  0  0  0  0  0  0  # atno 6908 bound_to 6896
  151.7931  135.0731  160.0441 H   0  0  0  0  0  0  0  0  0  0  0  0  # atno 6909 bound_to 6896
  144.7300  139.9322  143.6425 H   0  0  0  0  0  0  0  0  0  0  0  0  # atno 7974 bound_to 7965
  155.7311  140.3492  155.5060 H   0  0  0  0  0  0  0  0  0  0  0  0  # atno 8008 bound_to 7997
  155.9182  140.1062  157.1249 H   0  0  0  0  0  0  0  0  0  0  0  0  # atno 8009 bound_to 7997
  154.4065  140.1255  156.4631 H   0  0  0  0  0  0  0  0  0  0  0  0  # atno 8010 bound_to 7997
  140.7195  143.3584  151.2012 H   0  0  0  0  0  0  0  0  0  0  0  0  # atno 10167 bound_to 10162
  156.6190  130.8882  151.2953 H   0  0  0  0  0  0  0  0  0  0  0  0  # atno 10718 bound_to 10713
  154.6531  135.5348  153.7926 H   0  0  0  0  0  0  0  0  0  0  0  0  # atno 10763 bound_to 10752
  153.0398  135.6487  154.0986 H   0  0  0  0  0  0  0  0  0  0  0  0  # atno 10764 bound_to 10752
  154.0901  135.2940  155.3253 H   0  0  0  0  0  0  0  0  0  0  0  0  # atno 10765 bound_to 10752
  139.9202  134.7785  156.1684 H   0  0  0  0  0  0  0  0  0  0  0  0  # atno 11005 bound_to 11000
  146.0849  139.3837  143.0442 LP  0  0  0  0  0  0  0  0  0  0  0  0  # atno 17320 bound_to 7965
  145.7791  140.9864  143.1109 LP  0  0  0  0  0  0  0  0  0  0  0  0  # atno 17321 bound_to 7965
  139.7131  143.9345  152.2955 LP  0  0  0  0  0  0  0  0  0  0  0  0  # atno 17342 bound_to 10162
  139.9076  144.6875  150.8597 LP  0  0  0  0  0  0  0  0  0  0  0  0  # atno 17343 bound_to 10162
  157.7233  130.9588  150.1528 LP  0  0  0  0  0  0  0  0  0  0  0  0  # atno 17370 bound_to 10713
  156.2327  130.3683  149.8426 LP  0  0  0  0  0  0  0  0  0  0  0  0  # atno 17371 bound_to 10713
  141.0715  133.6794  156.2150 LP  0  0  0  0  0  0  0  0  0  0  0  0  # atno 17394 bound_to 11000
  140.6498  134.5079  157.5576 LP  0  0  0  0  0  0  0  0  0  0  0  0  # atno 17395 bound_to 11000

$$$$
