AV-unprocessed.smi:2886|AV-procd|sdf|11097|dock3
  -GOLD-   2272015563D 1   1.00000     0.00000
 Structure written by MMmdl.
 27 29  0  0  0  0  0  0  0  0  2 V2000
  152.1476  137.5073  154.6755 O   0  0  0  0  0  0  0  0  0  0  0  0
  151.5962  138.5698  154.9575 C   0  0  0  0  0  0  0  0  0  0  0  0
  150.7215  139.1848  154.1047 N   0  5  0  0  0  0  0  0  0  0  0  0
  150.0894  140.4284  154.4854 N   0  0  0  0  0  0  0  0  0  0  0  0
  150.3402  140.9760  155.6084 C   0  0  0  0  0  0  0  0  0  0  0  0
  151.2878  140.3864  156.5861 C   0  0  0  0  0  0  0  0  0  0  0  0
  151.5608  140.9825  157.8107 N   0  0  0  0  0  0  0  0  0  0  0  0
  151.0211  142.2181  158.3616 C   0  0  2  0  0  0  0  0  0  0  0  0
  151.2628  143.4316  157.4626 C   0  0  0  0  0  0  0  0  0  0  0  0
  151.9478  144.4041  158.4337 C   0  0  2  0  0  0  0  0  0  0  0  0
  153.4013  143.9965  158.7063 C   0  0  0  0  0  0  0  0  0  0  0  0
  153.2179  142.7648  159.5911 C   0  0  0  0  0  0  0  0  0  0  0  0
  151.6860  142.6593  159.6770 C   0  0  1  0  0  0  0  0  0  0  0  0
  151.3433  144.0352  159.6629 O   0  0  0  0  0  0  0  0  0  0  0  0
  151.8778  139.2121  156.2472 C   0  0  0  0  0  0  0  0  0  0  0  0
  152.9895  138.4378  157.3290 Cl  0  0  0  0  0  0  0  0  0  0  0  0
  149.8567  141.9104  155.9021 H   0  0  0  0  0  0  0  0  0  0  0  0
  152.3248  140.5852  158.3383 H   0  0  0  0  0  0  0  0  0  0  0  0
  149.9462  142.1225  158.5142 H   0  0  0  0  0  0  0  0  0  0  0  0
  151.8847  143.2172  156.5921 H   0  0  0  0  0  0  0  0  0  0  0  0
  150.3135  143.8354  157.1091 H   0  0  0  0  0  0  0  0  0  0  0  0
  151.8259  145.4544  158.1680 H   0  0  0  0  0  0  0  0  0  0  0  0
  153.9526  143.7824  157.7902 H   0  0  0  0  0  0  0  0  0  0  0  0
  153.9302  144.7809  159.2488 H   0  0  0  0  0  0  0  0  0  0  0  0
  153.6861  141.8703  159.1797 H   0  0  0  0  0  0  0  0  0  0  0  0
  153.6449  142.9422  160.5788 H   0  0  0  0  0  0  0  0  0  0  0  0
  151.3291  142.1172  160.5531 H   0  0  0  0  0  0  0  0  0  0  0  0
  1  2  2  0  0  0  0
  2 15  1  0  0  0  0
  2  3  1  0  0  0  0
  3  4  1  0  0  0  0
  4  5  2  0  0  0  0
  5  6  1  0  0  0  0
  5 17  1  0  0  0  0
  6  7  1  0  0  0  0
  6 15  2  0  0  0  0
  7  8  1  0  0  0  0
  7 18  1  0  0  0  0
  8 13  1  0  0  0  0
  8  9  1  0  0  0  0
  8 19  1  0  0  0  0
  9 10  1  0  0  0  0
  9 20  1  0  0  0  0
  9 21  1  0  0  0  0
 10 14  1  0  0  0  0
 10 11  1  0  0  0  0
 10 22  1  0  0  0  0
 11 12  1  0  0  0  0
 11 23  1  0  0  0  0
 11 24  1  0  0  0  0
 12 13  1  0  0  0  0
 12 25  1  0  0  0  0
 12 26  1  0  0  0  0
 13 14  1  0  0  0  0
 13 27  1  0  0  0  0
 15 16  1  0  0  0  0
M  CHG  1   3  -1
M  END
> <s_m_source_file>
AV-unprocessed.smi

> <i_m_source_file_index>
2886

> <i_lp_mmshare_version>
43012

> <i_f3d_flags>
0

> <s_epik_input>
Tz1jMVtuSF1uW2NIXWMoYzFDbClbTkhdW0NASF0oW0NIMl1bQ0BASF0yMylbQ0BASF0oTzMpW0NIMl1bQ0gyXTI=

> <s_epik_cmdline>
J2VwaWtfcHl0aG9uJywgJy1waCcsICc3LjAnLCAnLXRuJywgJzgnLCAnLW1hJywgJzIwMCcsICctbWV0YWxfYmluZGluZycsICctaW1hZScsICc8aW5maWxlLm1hZT4nLCAnLW9tYWUnLCAnPG91dGZpbGUubWFlPic=

> <r_lp_tautomer_probability>
0.986175

> <r_epik_Ionization_Penalty>
3.84253

> <r_epik_Ionization_Penalty_Charging>
0.0129711

> <r_epik_Ionization_Penalty_Neutral>
3.82956

> <r_epik_State_Penalty>
3.8249

> <r_epik_Charging_Adjusted_Penalty>
3.83787

> <i_epik_Tot_Q>
-1

> <i_epik_Tot_abs_Q>
1

> <r_epik_Metal_State_Penalty>
0.57612

> <b_epik_Metal_Only>
1

> <s_lp_Force_Field>
OPLS_2005

> <r_lp_Energy>
60.9826

> <b_lp_Chiralities_Consistent>
1

> <s_lp_Variant>
AV-unprocessed.smi:2886-11

> <Gold.Version>
5.8.1

> <Gold.Id.Protein>
6NUR|6NUR_protein|mol2

> <Gold.PLP.Fitness>
33.2146

> <Gold.PLP.PLP>
-30.9840

> <Gold.PLP.part.hbond>
-3.0000

> <Gold.PLP.part.metal>
0.0000

> <Gold.PLP.part.buried>
-3.4664

> <Gold.PLP.part.nonpolar>
-24.7320

> <Gold.PLP.part.repulsive>
0.5338

> <Gold.PLP.ligand.clash>
0.0000

> <Gold.PLP.ligand.torsion>
0.0312

> <Gold.PLP.Chemscore.Hbond>
0.7613

> <Gold.PLP.Chemscore.CHOScore>
0.0000

> <Gold.PLP.Chemscore.Metal>
0.0000

> <Gold.Chemscore.Hbonds>
donor molecule, donor type, donor heavy atom, donor atom, acceptor molecule, acceptor atom, score
      P1  H 10752 10764       L1     1  0.76

> <Gold.PLP.Chemscore.Internal.Correction>
0.0091

> <Gold.Rescore>
     Score         DG    S(hbond)    S(metal)    S(lipo)     H(rot)  DE(clash)    DE(int)     intcor
     16.13     -16.17       0.80        0.00      90.56       1.00       0.04       0.01       ----

> <Gold.Chemscore.Fitness>
16.1257

> <Gold.Chemscore.DG>
-16.1747

> <Gold.Chemscore.ZeroCoef>
-5.4800

> <Gold.Chemscore.Hbond>
0.7962

> <Gold.Chemscore.Metal>
0.0000

> <Gold.Chemscore.Lipo>
90.5601

> <Gold.Chemscore.Internal_Hbond>
0.0000

> <Gold.Chemscore.DEClash>
0.0361

> <Gold.Chemscore.DEInternal>
0.0130

> <Gold.Chemscore.Rot>
1.0000

> <Gold.Chemscore.Internal.Correction>
   9.000000E+99

> <Gold.Chemscore.Hbonds>
donor molecule, donor type, donor heavy atom, donor atom, acceptor molecule, acceptor atom, score
      P1  H 10752 10764       L1     1  0.72

> <Gold.Chemscore.Hbond.Weighted>
-2.6592

> <Gold.Chemscore.Metal.Weighted>
-0.0000

> <Gold.Chemscore.Lipo.Weighted>
-10.5955

> <Gold.Chemscore.Internal_Hbond.Weighted>
0.0000

> <Gold.Chemscore.DEClash.Weighted>
0.0361

> <Gold.Chemscore.DEInternal.Weighted>
0.0130

> <Gold.Chemscore.Rot.Weighted>
2.5600

> <Gold.Chemscore.Internal.Correction.Weighted>
   9.000000E+99

> <Gold.Protein.RotatedTorsions>
[ 6907 6896 6895 6894 ] final  -88.48 input  -60.11 | X-H torsion
[ 7974 7965 7964 7962 ] final -141.20 input  175.53 | X-H torsion
[ 8008 7997 7996 7995 ] final   34.97 input   59.86 | X-H torsion
[ 10167 10162 10161 10158 ] final  154.71 input  -65.29 | X-H torsion
[ 10718 10713 10712 10709 ] final -131.27 input   66.30 | X-H torsion
[ 10763 10752 10751 10750 ] final  -76.16 input  -60.55 | X-H torsion
[ 11005 11000 10999 10996 ] final  -44.13 input  -57.11 | X-H torsion

> <Gold.Protein.ActiveResidues>
 VAL166  LYS551  ARG553  GLY616  TRP617  ASP618  TYR619  PRO620  LYS621  CYS622 
 ASP623  PHE694  ASN695  SER759  ASP760  ASP761  ALA762  ILE779  LEU786  VAL792 
 PHE793  MET794  SER795  GLU796  ALA797  LYS798  CYS799  TRP800  GLU811  SER814 

> <Gold.Protein.RotatedAtoms>
  150.6869  134.2734  159.4597 H   0  0  0  0  0  0  0  0  0  0  0  0  # atno 6907 bound_to 6896
  152.0655  134.9565  160.0584 H   0  0  0  0  0  0  0  0  0  0  0  0  # atno 6908 bound_to 6896
  152.0975  133.4197  159.4609 H   0  0  0  0  0  0  0  0  0  0  0  0  # atno 6909 bound_to 6896
  144.8537  140.6108  143.5373 H   0  0  0  0  0  0  0  0  0  0  0  0  # atno 7974 bound_to 7965
  155.1634  140.3285  155.4407 H   0  0  0  0  0  0  0  0  0  0  0  0  # atno 8008 bound_to 7997
  156.2535  140.1956  156.6691 H   0  0  0  0  0  0  0  0  0  0  0  0  # atno 8009 bound_to 7997
  154.6389  140.0573  156.9808 H   0  0  0  0  0  0  0  0  0  0  0  0  # atno 8010 bound_to 7997
  139.4822  144.5162  151.7947 H   0  0  0  0  0  0  0  0  0  0  0  0  # atno 10167 bound_to 10162
  156.2228  130.6989  151.0774 H   0  0  0  0  0  0  0  0  0  0  0  0  # atno 10718 bound_to 10713
  154.4961  135.5807  153.6495 H   0  0  0  0  0  0  0  0  0  0  0  0  # atno 10763 bound_to 10752
  152.9870  135.6124  154.3063 H   0  0  0  0  0  0  0  0  0  0  0  0  # atno 10764 bound_to 10752
  154.2966  135.2847  155.2609 H   0  0  0  0  0  0  0  0  0  0  0  0  # atno 10765 bound_to 10752
  141.0430  133.6772  156.2830 H   0  0  0  0  0  0  0  0  0  0  0  0  # atno 11005 bound_to 11000
  145.4448  139.1531  143.3950 LP  0  0  0  0  0  0  0  0  0  0  0  0  # atno 17320 bound_to 7965
  146.2806  140.4571  142.8778 LP  0  0  0  0  0  0  0  0  0  0  0  0  # atno 17321 bound_to 7965
  140.4671  144.1640  150.5913 LP  0  0  0  0  0  0  0  0  0  0  0  0  # atno 17342 bound_to 10162
  140.4422  143.2521  151.9458 LP  0  0  0  0  0  0  0  0  0  0  0  0  # atno 17343 bound_to 10162
  157.7096  131.0740  150.6548 LP  0  0  0  0  0  0  0  0  0  0  0  0  # atno 17370 bound_to 10713
  156.6612  130.4513  149.5687 LP  0  0  0  0  0  0  0  0  0  0  0  0  # atno 17371 bound_to 10713
  140.6199  134.5372  157.5546 LP  0  0  0  0  0  0  0  0  0  0  0  0  # atno 17394 bound_to 11000
  139.9290  134.8000  156.0984 LP  0  0  0  0  0  0  0  0  0  0  0  0  # atno 17395 bound_to 11000

$$$$
