AV-unprocessed.smi:167|AV-procd|sdf|1394|dock7
  -GOLD-   2262019133D 1   1.00000     0.00000
 Structure written by MMmdl.
 51 55  0  0  0  0  0  0  0  0  1 V2000
  148.5792  124.9612  154.2571 O   0  0  0  0  0  0  0  0  0  0  0  0
  147.4081  125.6554  153.8837 C   0  0  0  0  0  0  0  0  0  0  0  0
  147.6901  127.1669  153.8002 C   0  0  2  0  0  0  0  0  0  0  0  0
  146.4831  128.0278  153.3839 C   0  0  0  0  0  0  0  0  0  0  0  0
  147.0951  128.8912  152.2589 C   0  0  2  0  0  0  0  0  0  0  0  0
  147.2188  128.0320  150.9903 C   0  0  0  0  0  0  0  0  0  0  0  0
  148.4221  127.1478  151.3475 C   0  0  0  0  0  0  0  0  0  0  0  0
  148.7509  127.6368  152.7717 C   0  0  1  0  0  0  0  0  0  0  0  0
  148.4875  129.0639  152.6548 N   0  0  0  0  0  0  0  0  0  0  0  0
  148.8187  129.9217  153.6602 C   0  0  0  0  0  0  0  0  0  0  0  0
  149.3005  129.4082  154.8236 N   0  0  0  0  0  0  0  0  0  0  0  0
  149.6414  130.2131  155.8332 C   0  0  0  0  0  0  0  0  0  0  0  0
  149.5736  131.5430  155.8982 N   0  0  0  0  0  0  0  0  0  0  0  0
  149.0715  132.0676  154.7444 C   0  0  0  0  0  0  0  0  0  0  0  0
  148.6731  131.3388  153.5864 C   0  0  0  0  0  0  0  0  0  0  0  0
  148.2155  132.2243  152.6171 N   0  0  0  0  0  0  0  0  0  0  0  0
  148.3535  133.4023  153.1602 C   0  0  0  0  0  0  0  0  0  0  0  0
  148.8378  133.3987  154.4480 N   0  0  0  0  0  0  0  0  0  0  0  0
  149.1175  134.5377  155.2727 C   0  0  0  0  0  0  0  0  0  0  0  0
  149.0691  135.9541  154.6929 C   0  0  0  0  0  0  0  0  0  0  0  0
  150.1882  136.3798  155.6723 C   0  0  0  0  0  0  0  0  0  0  0  0
  151.2777  137.3282  155.1337 C   0  0  0  0  0  0  0  0  0  0  0  0
  152.2068  136.6700  154.2962 O   0  0  0  0  0  0  0  0  0  0  0  0
  149.7064  136.9592  157.0161 C   0  0  0  0  0  0  0  0  0  0  0  0
  150.2775  136.2734  158.1117 O   0  0  0  0  0  0  0  0  0  0  0  0
  150.5430  134.8754  155.7238 C   0  0  0  0  0  0  0  0  0  0  0  0
  148.9769  124.6020  153.4786 H   0  0  0  0  0  0  0  0  0  0  0  0
  147.0269  125.2559  152.9449 H   0  0  0  0  0  0  0  0  0  0  0  0
  146.6419  125.4637  154.6353 H   0  0  0  0  0  0  0  0  0  0  0  0
  148.0126  127.4935  154.7906 H   0  0  0  0  0  0  0  0  0  0  0  0
  145.6313  127.4407  153.0382 H   0  0  0  0  0  0  0  0  0  0  0  0
  146.1464  128.6438  154.2187 H   0  0  0  0  0  0  0  0  0  0  0  0
  146.5482  129.8173  152.0778 H   0  0  0  0  0  0  0  0  0  0  0  0
  146.3162  127.4578  150.7784 H   0  0  0  0  0  0  0  0  0  0  0  0
  147.4421  128.6494  150.1193 H   0  0  0  0  0  0  0  0  0  0  0  0
  148.2128  126.0815  151.2793 H   0  0  0  0  0  0  0  0  0  0  0  0
  149.2541  127.3588  150.6743 H   0  0  0  0  0  0  0  0  0  0  0  0
  149.7669  127.3719  153.0575 H   0  0  0  0  0  0  0  0  0  0  0  0
  150.0209  129.7206  156.7165 H   0  0  0  0  0  0  0  0  0  0  0  0
  148.0960  134.3088  152.6319 H   0  0  0  0  0  0  0  0  0  0  0  0
  148.4514  134.4534  156.1330 H   0  0  0  0  0  0  0  0  0  0  0  0
  149.3715  135.9794  153.6447 H   0  0  0  0  0  0  0  0  0  0  0  0
  148.1136  136.4611  154.8299 H   0  0  0  0  0  0  0  0  0  0  0  0
  150.8390  138.1430  154.5574 H   0  0  0  0  0  0  0  0  0  0  0  0
  151.8329  137.7863  155.9528 H   0  0  0  0  0  0  0  0  0  0  0  0
  151.7925  136.4994  153.4641 H   0  0  0  0  0  0  0  0  0  0  0  0
  149.9667  138.0136  157.1114 H   0  0  0  0  0  0  0  0  0  0  0  0
  148.6203  136.9059  157.0987 H   0  0  0  0  0  0  0  0  0  0  0  0
  151.2081  136.4393  158.1170 H   0  0  0  0  0  0  0  0  0  0  0  0
  150.8006  134.4990  156.7143 H   0  0  0  0  0  0  0  0  0  0  0  0
  151.2931  134.5764  154.9902 H   0  0  0  0  0  0  0  0  0  0  0  0
  1  2  1  0  0  0  0
  1 27  1  0  0  0  0
  2  3  1  0  0  0  0
  2 28  1  0  0  0  0
  2 29  1  0  0  0  0
  3  8  1  0  0  0  0
  3  4  1  0  0  0  0
  3 30  1  0  0  0  0
  4  5  1  0  0  0  0
  4 31  1  0  0  0  0
  4 32  1  0  0  0  0
  5  9  1  0  0  0  0
  5  6  1  0  0  0  0
  5 33  1  0  0  0  0
  6  7  1  0  0  0  0
  6 34  1  0  0  0  0
  6 35  1  0  0  0  0
  7  8  1  0  0  0  0
  7 36  1  0  0  0  0
  7 37  1  0  0  0  0
  8  9  1  0  0  0  0
  8 38  1  0  0  0  0
  9 10  1  0  0  0  0
 10 15  1  0  0  0  0
 10 11  2  0  0  0  0
 11 12  1  0  0  0  0
 12 13  2  0  0  0  0
 12 39  1  0  0  0  0
 13 14  1  0  0  0  0
 14 18  1  0  0  0  0
 14 15  2  0  0  0  0
 15 16  1  0  0  0  0
 16 17  2  0  0  0  0
 17 18  1  0  0  0  0
 17 40  1  0  0  0  0
 18 19  1  0  0  0  0
 19 26  1  0  0  0  0
 19 20  1  0  0  0  0
 19 41  1  0  0  0  0
 20 21  1  0  0  0  0
 20 42  1  0  0  0  0
 20 43  1  0  0  0  0
 21 22  1  0  0  0  0
 21 24  1  0  0  0  0
 21 26  1  0  0  0  0
 22 23  1  0  0  0  0
 22 44  1  0  0  0  0
 22 45  1  0  0  0  0
 23 46  1  0  0  0  0
 24 25  1  0  0  0  0
 24 47  1  0  0  0  0
 24 48  1  0  0  0  0
 25 49  1  0  0  0  0
 26 50  1  0  0  0  0
 26 51  1  0  0  0  0
M  END
> <s_m_source_file>
AV-unprocessed.smi

> <i_m_source_file_index>
167

> <i_lp_mmshare_version>
43012

> <i_f3d_flags>
0

> <s_epik_input>
W09IXVtDSDJdW0NASF0oW0NIMl1bQ0BASF0xMilbQ0BIXShbQ0gyXVtDSDJdMSlOMmMobltjSF1uMyljKGMzNCluW2NIXW40W0NIXShbQ0gyXTUpW0NIMl1DNShbQ0gyXVtPSF0pW0NIMl1bT0hd

> <s_epik_cmdline>
J2VwaWtfcHl0aG9uJywgJy1waCcsICc3LjAnLCAnLXRuJywgJzgnLCAnLW1hJywgJzIwMCcsICctbWV0YWxfYmluZGluZycsICctaW1hZScsICc8aW5maWxlLm1hZT4nLCAnLW9tYWUnLCAnPG91dGZpbGUubWFlPic=

> <r_lp_tautomer_probability>
1

> <r_epik_Ionization_Penalty>
0.0047903

> <r_epik_Ionization_Penalty_Charging>
0

> <r_epik_Ionization_Penalty_Neutral>
0.0047903

> <r_epik_State_Penalty>
0.00341021

> <r_epik_Charging_Adjusted_Penalty>
0.00341021

> <i_epik_Tot_Q>
0

> <i_epik_Tot_abs_Q>
0

> <r_epik_Metal_State_Penalty>
-0

> <b_epik_Metal_Only>
0

> <s_lp_Force_Field>
OPLS_2005

> <r_lp_Energy>
89.3367

> <b_lp_Chiralities_Consistent>
1

> <s_lp_Variant>
AV-unprocessed.smi:167-3

> <Gold.Version>
5.8.1

> <Gold.Id.Protein>
6NUR|6NUR_protein|mol2

> <Gold.PLP.Fitness>
46.2751

> <Gold.PLP.PLP>
-38.4657

> <Gold.PLP.part.hbond>
-3.0000

> <Gold.PLP.part.metal>
0.0000

> <Gold.PLP.part.buried>
-5.4757

> <Gold.PLP.part.nonpolar>
-31.9704

> <Gold.PLP.part.repulsive>
1.9847

> <Gold.PLP.ligand.clash>
0.0000

> <Gold.PLP.ligand.torsion>
1.5234

> <Gold.PLP.Chemscore.Hbond>
2.5200

> <Gold.PLP.Chemscore.CHOScore>
0.9402

> <Gold.PLP.Chemscore.Metal>
0.0000

> <Gold.Chemscore.Hbonds>
donor molecule, donor type, donor heavy atom, donor atom, acceptor molecule, acceptor atom, score
      L1  H    23    46       P1  7949  0.76
      P1  H 10752 10763       L1    23  0.23
      L1  C    17    40       P1  7948  1.00

> <Gold.PLP.Chemscore.Internal.Correction>
0.4756

> <Gold.Rescore>
     Score         DG    S(hbond)    S(metal)    S(lipo)     H(rot)  DE(clash)    DE(int)     intcor
      7.30     -10.29       1.96        0.00      77.18       4.20       0.05       2.93       ----

> <Gold.Chemscore.Fitness>
7.2989

> <Gold.Chemscore.DG>
-10.2862

> <Gold.Chemscore.ZeroCoef>
-5.4800

> <Gold.Chemscore.Hbond>
1.9575

> <Gold.Chemscore.Metal>
0.0000

> <Gold.Chemscore.Lipo>
77.1768

> <Gold.Chemscore.Internal_Hbond>
0.0000

> <Gold.Chemscore.DEClash>
0.0523

> <Gold.Chemscore.DEInternal>
2.9349

> <Gold.Chemscore.Rot>
4.2038

> <Gold.Chemscore.Internal.Correction>
   9.000000E+99

> <Gold.Chemscore.Hbonds>
donor molecule, donor type, donor heavy atom, donor atom, acceptor molecule, acceptor atom, score
      L1  H    23    46       P1  7949  0.74
      P1  H 10752 10763       L1    23  0.03

> <Gold.Chemscore.Hbond.Weighted>
-6.5382

> <Gold.Chemscore.Metal.Weighted>
-0.0000

> <Gold.Chemscore.Lipo.Weighted>
-9.0297

> <Gold.Chemscore.Internal_Hbond.Weighted>
0.0000

> <Gold.Chemscore.DEClash.Weighted>
0.0523

> <Gold.Chemscore.DEInternal.Weighted>
2.9349

> <Gold.Chemscore.Rot.Weighted>
10.7617

> <Gold.Chemscore.Internal.Correction.Weighted>
   9.000000E+99

> <Gold.Protein.RotatedTorsions>
[ 6907 6896 6895 6894 ] final   79.06 input  -60.11 | X-H torsion
[ 7974 7965 7964 7962 ] final  162.60 input  175.53 | X-H torsion
[ 8008 7997 7996 7995 ] final   39.80 input   59.86 | X-H torsion
[ 10167 10162 10161 10158 ] final  -97.76 input  -65.29 | X-H torsion
[ 10718 10713 10712 10709 ] final  -24.49 input   66.30 | X-H torsion
[ 10763 10752 10751 10750 ] final   42.10 input  -60.55 | X-H torsion
[ 11005 11000 10999 10996 ] final   13.85 input  -57.11 | X-H torsion

> <Gold.Protein.ActiveResidues>
 VAL166  LYS551  ARG553  GLY616  TRP617  ASP618  TYR619  PRO620  LYS621  CYS622 
 ASP623  PHE694  ASN695  SER759  ASP760  ASP761  ALA762  ILE779  LEU786  VAL792 
 PHE793  MET794  SER795  GLU796  ALA797  LYS798  CYS799  TRP800  GLU811  SER814 

> <Gold.Protein.RotatedAtoms>
  152.5184  134.3568  159.9270 H   0  0  0  0  0  0  0  0  0  0  0  0  # atno 6907 bound_to 6896
  151.3520  133.3915  159.2689 H   0  0  0  0  0  0  0  0  0  0  0  0  # atno 6908 bound_to 6896
  150.9719  134.9109  159.7851 H   0  0  0  0  0  0  0  0  0  0  0  0  # atno 6909 bound_to 6896
  144.7629  139.8063  143.6326 H   0  0  0  0  0  0  0  0  0  0  0  0  # atno 7974 bound_to 7965
  155.2426  140.3346  155.4290 H   0  0  0  0  0  0  0  0  0  0  0  0  # atno 8008 bound_to 7997
  156.2249  140.1825  156.7432 H   0  0  0  0  0  0  0  0  0  0  0  0  # atno 8009 bound_to 7997
  154.5883  140.0642  156.9188 H   0  0  0  0  0  0  0  0  0  0  0  0  # atno 8010 bound_to 7997
  140.2800  143.3288  152.0450 H   0  0  0  0  0  0  0  0  0  0  0  0  # atno 10167 bound_to 10162
  156.4770  130.4537  149.6835 H   0  0  0  0  0  0  0  0  0  0  0  0  # atno 10718 bound_to 10713
  152.9891  135.6142  154.2895 H   0  0  0  0  0  0  0  0  0  0  0  0  # atno 10763 bound_to 10752
  154.2620  135.2782  155.2776 H   0  0  0  0  0  0  0  0  0  0  0  0  # atno 10764 bound_to 10752
  154.5197  135.5818  153.6728 H   0  0  0  0  0  0  0  0  0  0  0  0  # atno 10765 bound_to 10752
  140.4761  134.0982  155.7742 H   0  0  0  0  0  0  0  0  0  0  0  0  # atno 11005 bound_to 11000
  146.1709  139.4859  142.9928 LP  0  0  0  0  0  0  0  0  0  0  0  0  # atno 17320 bound_to 7965
  145.6562  141.0251  143.1733 LP  0  0  0  0  0  0  0  0  0  0  0  0  # atno 17321 bound_to 7965
  139.4965  144.6598  151.6490 LP  0  0  0  0  0  0  0  0  0  0  0  0  # atno 17342 bound_to 10162
  140.5819  143.9930  150.6273 LP  0  0  0  0  0  0  0  0  0  0  0  0  # atno 17343 bound_to 10162
  156.3561  130.7457  151.2423 LP  0  0  0  0  0  0  0  0  0  0  0  0  # atno 17370 bound_to 10713
  157.7486  131.0363  150.4405 LP  0  0  0  0  0  0  0  0  0  0  0  0  # atno 17371 bound_to 10713
  141.1554  133.8893  157.1991 LP  0  0  0  0  0  0  0  0  0  0  0  0  # atno 17394 bound_to 11000
  139.9855  135.0083  156.9852 LP  0  0  0  0  0  0  0  0  0  0  0  0  # atno 17395 bound_to 11000

$$$$
