AV-unprocessed.smi:2958|AV-procd|sdf|11308|dock2
  -GOLD-   2272016203D 1   1.00000     0.00000
 Structure written by MMmdl.
 40 42  0  0  0  0  0  0  0  0  2 V2000
  154.3759  140.2670  161.1220 C   0  0  0  0  0  0  0  0  0  0  0  0
  153.4360  141.3379  160.6079 C   0  0  0  0  0  0  0  0  0  0  0  0
  153.3777  142.5972  161.2379 C   0  0  0  0  0  0  0  0  0  0  0  0
  152.5014  143.5850  160.7525 C   0  0  0  0  0  0  0  0  0  0  0  0
  151.6841  143.3160  159.6384 C   0  0  0  0  0  0  0  0  0  0  0  0
  151.7307  142.0623  158.9954 C   0  0  0  0  0  0  0  0  0  0  0  0
  150.8988  141.8855  157.9107 O   0  0  0  0  0  0  0  0  0  0  0  0
  150.8057  140.5887  157.3396 C   0  0  0  0  0  0  0  0  0  0  0  0
  151.2432  140.6709  155.8725 C   0  0  0  0  0  0  0  0  0  0  0  0
  150.3609  139.8915  154.9950 N   0  0  0  0  0  0  0  0  0  0  0  0
  150.4766  138.6104  154.5415 C   0  0  0  0  0  0  0  0  0  0  0  0
  151.5799  137.6507  154.8419 C   0  0  0  0  0  0  0  0  0  0  0  0
  152.2666  137.2421  153.6797 O   0  0  0  0  0  0  0  0  0  0  0  0
  149.3932  138.3628  153.7522 N   0  3  0  0  0  0  0  0  0  0  0  0
  148.5747  139.4923  153.7058 C   0  0  0  0  0  0  0  0  0  0  0  0
  147.3730  139.7212  153.0425 C   0  0  0  0  0  0  0  0  0  0  0  0
  146.7903  140.9947  153.2102 C   0  0  0  0  0  0  0  0  0  0  0  0
  147.3999  141.9815  154.0123 C   0  0  0  0  0  0  0  0  0  0  0  0
  148.6187  141.7382  154.6794 C   0  0  0  0  0  0  0  0  0  0  0  0
  149.1889  140.4776  154.5058 C   0  0  0  0  0  0  0  0  0  0  0  0
  152.6160  141.0718  159.4919 C   0  0  0  0  0  0  0  0  0  0  0  0
  154.9556  140.6216  161.9747 H   0  0  0  0  0  0  0  0  0  0  0  0
  155.0717  139.9679  160.3377 H   0  0  0  0  0  0  0  0  0  0  0  0
  153.8123  139.3880  161.4359 H   0  0  0  0  0  0  0  0  0  0  0  0
  154.0024  142.8108  162.0928 H   0  0  0  0  0  0  0  0  0  0  0  0
  152.4560  144.5504  161.2344 H   0  0  0  0  0  0  0  0  0  0  0  0
  151.0146  144.0808  159.2725 H   0  0  0  0  0  0  0  0  0  0  0  0
  151.4523  139.8918  157.8755 H   0  0  0  0  0  0  0  0  0  0  0  0
  149.7798  140.2223  157.4036 H   0  0  0  0  0  0  0  0  0  0  0  0
  151.2692  141.7041  155.5249 H   0  0  0  0  0  0  0  0  0  0  0  0
  152.2554  140.2810  155.7593 H   0  0  0  0  0  0  0  0  0  0  0  0
  152.2858  138.1137  155.5320 H   0  0  0  0  0  0  0  0  0  0  0  0
  151.1718  136.7717  155.3415 H   0  0  0  0  0  0  0  0  0  0  0  0
  151.6306  137.0210  153.0162 H   0  0  0  0  0  0  0  0  0  0  0  0
  146.9035  138.9665  152.4284 H   0  0  0  0  0  0  0  0  0  0  0  0
  145.8567  141.2190  152.7146 H   0  0  0  0  0  0  0  0  0  0  0  0
  146.9231  142.9452  154.1181 H   0  0  0  0  0  0  0  0  0  0  0  0
  149.0770  142.4998  155.2926 H   0  0  0  0  0  0  0  0  0  0  0  0
  152.6845  140.0976  159.0318 H   0  0  0  0  0  0  0  0  0  0  0  0
  149.2296  137.4832  153.2794 H   0  0  0  0  0  0  0  0  0  0  0  0
  1  2  1  0  0  0  0
  1 22  1  0  0  0  0
  1 23  1  0  0  0  0
  1 24  1  0  0  0  0
  2 21  1  0  0  0  0
  2  3  2  0  0  0  0
  3  4  1  0  0  0  0
  3 25  1  0  0  0  0
  4  5  2  0  0  0  0
  4 26  1  0  0  0  0
  5  6  1  0  0  0  0
  5 27  1  0  0  0  0
  6  7  1  0  0  0  0
  6 21  2  0  0  0  0
  7  8  1  0  0  0  0
  8  9  1  0  0  0  0
  8 28  1  0  0  0  0
  8 29  1  0  0  0  0
  9 10  1  0  0  0  0
  9 30  1  0  0  0  0
  9 31  1  0  0  0  0
 10 20  1  0  0  0  0
 10 11  1  0  0  0  0
 11 12  1  0  0  0  0
 11 14  2  0  0  0  0
 12 13  1  0  0  0  0
 12 32  1  0  0  0  0
 12 33  1  0  0  0  0
 13 34  1  0  0  0  0
 14 15  1  0  0  0  0
 14 40  1  0  0  0  0
 15 20  2  0  0  0  0
 15 16  1  0  0  0  0
 16 17  2  0  0  0  0
 16 35  1  0  0  0  0
 17 18  1  0  0  0  0
 17 36  1  0  0  0  0
 18 19  2  0  0  0  0
 18 37  1  0  0  0  0
 19 20  1  0  0  0  0
 19 38  1  0  0  0  0
 21 39  1  0  0  0  0
M  CHG  1  14   1
M  END
> <s_m_source_file>
AV-unprocessed.smi

> <i_m_source_file_index>
2958

> <i_lp_mmshare_version>
43012

> <i_f3d_flags>
0

> <s_epik_input>
W0NIM11jMVtjSF1bY0hdW2NIXWMoW2NIXTEpT1tDSDJdW0NIMl1uKGMobjIpW0NIMl1bT0hdKWMoYzIzKVtjSF1bY0hdW2NIXVtjSF0z

> <s_epik_cmdline>
J2VwaWtfcHl0aG9uJywgJy1waCcsICc3LjAnLCAnLXRuJywgJzgnLCAnLW1hJywgJzIwMCcsICctbWV0YWxfYmluZGluZycsICctaW1hZScsICc8aW5maWxlLm1hZT4nLCAnLW9tYWUnLCAnPG91dGZpbGUubWFlPic=

> <r_lp_tautomer_probability>
1

> <r_epik_Ionization_Penalty>
1.51131

> <r_epik_Ionization_Penalty_Charging>
1.51045

> <r_epik_Ionization_Penalty_Neutral>
0.000855784

> <r_epik_State_Penalty>
1.60143

> <r_epik_Charging_Adjusted_Penalty>
3.11188

> <i_epik_Tot_Q>
1

> <i_epik_Tot_abs_Q>
1

> <r_epik_Metal_State_Penalty>
5.65313

> <b_epik_Metal_Only>
0

> <s_lp_Force_Field>
OPLS_2005

> <r_lp_Energy>
18.3571

> <b_lp_Chiralities_Consistent>
1

> <s_lp_Variant>
AV-unprocessed.smi:2958-2

> <Gold.Version>
5.8.1

> <Gold.Id.Protein>
6NUR|6NUR_protein|mol2

> <Gold.PLP.Fitness>
59.5309

> <Gold.PLP.PLP>
-49.7323

> <Gold.PLP.part.hbond>
-3.7295

> <Gold.PLP.part.metal>
0.0000

> <Gold.PLP.part.buried>
0.1327

> <Gold.PLP.part.nonpolar>
-45.6758

> <Gold.PLP.part.repulsive>
0.0926

> <Gold.PLP.ligand.clash>
0.0000

> <Gold.PLP.ligand.torsion>
1.0877

> <Gold.PLP.Chemscore.Hbond>
3.9760

> <Gold.PLP.Chemscore.CHOScore>
0.0000

> <Gold.PLP.Chemscore.Metal>
0.0000

> <Gold.Chemscore.Hbonds>
donor molecule, donor type, donor heavy atom, donor atom, acceptor molecule, acceptor atom, score
      L1  H    13    34       P1  7949  0.96
      L1  H    14    40       P1  7948  2.00
      P1  H 10752 10765       L1    13  0.99

> <Gold.PLP.Chemscore.Internal.Correction>
0.0458

> <Gold.Rescore>
     Score         DG    S(hbond)    S(metal)    S(lipo)     H(rot)  DE(clash)    DE(int)     intcor
     21.55     -23.52       2.49        0.00     131.75       2.23       0.90       1.07       ----

> <Gold.Chemscore.Fitness>
21.5513

> <Gold.Chemscore.DG>
-23.5205

> <Gold.Chemscore.ZeroCoef>
-5.4800

> <Gold.Chemscore.Hbond>
2.4923

> <Gold.Chemscore.Metal>
0.0000

> <Gold.Chemscore.Lipo>
131.7459

> <Gold.Chemscore.Internal_Hbond>
0.0000

> <Gold.Chemscore.DEClash>
0.9015

> <Gold.Chemscore.DEInternal>
1.0677

> <Gold.Chemscore.Rot>
2.2258

> <Gold.Chemscore.Internal.Correction>
   9.000000E+99

> <Gold.Chemscore.Hbonds>
donor molecule, donor type, donor heavy atom, donor atom, acceptor molecule, acceptor atom, score
      L1  H    13    34       P1  7949  0.89
      L1  H    14    40       P1  7948  0.98
      P1  H 10752 10765       L1    13  0.28

> <Gold.Chemscore.Hbond.Weighted>
-8.3244

> <Gold.Chemscore.Metal.Weighted>
-0.0000

> <Gold.Chemscore.Lipo.Weighted>
-15.4143

> <Gold.Chemscore.Internal_Hbond.Weighted>
0.0000

> <Gold.Chemscore.DEClash.Weighted>
0.9015

> <Gold.Chemscore.DEInternal.Weighted>
1.0677

> <Gold.Chemscore.Rot.Weighted>
5.6982

> <Gold.Chemscore.Internal.Correction.Weighted>
   9.000000E+99

> <Gold.Protein.RotatedTorsions>
[ 6907 6896 6895 6894 ] final -149.97 input  -60.11 | X-H torsion
[ 7974 7965 7964 7962 ] final   59.15 input  175.53 | X-H torsion
[ 8008 7997 7996 7995 ] final  173.69 input   59.86 | X-H torsion
[ 10167 10162 10161 10158 ] final   18.36 input  -65.29 | X-H torsion
[ 10718 10713 10712 10709 ] final   78.05 input   66.30 | X-H torsion
[ 10763 10752 10751 10750 ] final  141.50 input  -60.55 | X-H torsion
[ 11005 11000 10999 10996 ] final   81.12 input  -57.11 | X-H torsion

> <Gold.Protein.ActiveResidues>
 VAL166  LYS551  ARG553  GLY616  TRP617  ASP618  TYR619  PRO620  LYS621  CYS622 
 ASP623  PHE694  ASN695  SER759  ASP760  ASP761  ALA762  ILE779  LEU786  VAL792 
 PHE793  MET794  SER795  GLU796  ALA797  LYS798  CYS799  TRP800  GLU811  SER814 

> <Gold.Protein.RotatedAtoms>
  151.1917  133.4663  159.2594 H   0  0  0  0  0  0  0  0  0  0  0  0  # atno 6907 bound_to 6896
  151.1157  135.0051  159.8525 H   0  0  0  0  0  0  0  0  0  0  0  0  # atno 6908 bound_to 6896
  152.5453  134.1833  159.8697 H   0  0  0  0  0  0  0  0  0  0  0  0  # atno 6909 bound_to 6896
  145.9103  139.3649  143.0539 H   0  0  0  0  0  0  0  0  0  0  0  0  # atno 7974 bound_to 7965
  156.1050  140.1453  156.9417 H   0  0  0  0  0  0  0  0  0  0  0  0  # atno 8008 bound_to 7997
  154.4727  140.0904  156.7230 H   0  0  0  0  0  0  0  0  0  0  0  0  # atno 8009 bound_to 7997
  155.4695  140.3441  155.4326 H   0  0  0  0  0  0  0  0  0  0  0  0  # atno 8010 bound_to 7997
  140.5659  143.9252  150.6676 H   0  0  0  0  0  0  0  0  0  0  0  0  # atno 10167 bound_to 10162
  157.6732  130.9850  150.1730 H   0  0  0  0  0  0  0  0  0  0  0  0  # atno 10718 bound_to 10713
  153.9403  135.2980  155.3443 H   0  0  0  0  0  0  0  0  0  0  0  0  # atno 10763 bound_to 10752
  154.7480  135.4993  153.9242 H   0  0  0  0  0  0  0  0  0  0  0  0  # atno 10764 bound_to 10752
  153.1045  135.6743  153.9717 H   0  0  0  0  0  0  0  0  0  0  0  0  # atno 10765 bound_to 10752
  139.9109  134.7972  156.1999 H   0  0  0  0  0  0  0  0  0  0  0  0  # atno 11005 bound_to 11000
  145.8680  140.9436  143.0665 LP  0  0  0  0  0  0  0  0  0  0  0  0  # atno 17320 bound_to 7965
  144.6743  140.0617  143.7476 LP  0  0  0  0  0  0  0  0  0  0  0  0  # atno 17321 bound_to 7965
  140.2715  143.3453  152.1234 LP  0  0  0  0  0  0  0  0  0  0  0  0  # atno 17342 bound_to 10162
  139.5092  144.6864  151.5876 LP  0  0  0  0  0  0  0  0  0  0  0  0  # atno 17343 bound_to 10162
  156.2480  130.3697  149.8264 LP  0  0  0  0  0  0  0  0  0  0  0  0  # atno 17370 bound_to 10713
  156.6045  130.8560  151.3439 LP  0  0  0  0  0  0  0  0  0  0  0  0  # atno 17371 bound_to 10713
  141.0531  133.6879  156.1809 LP  0  0  0  0  0  0  0  0  0  0  0  0  # atno 17394 bound_to 11000
  140.6779  134.4798  157.5588 LP  0  0  0  0  0  0  0  0  0  0  0  0  # atno 17395 bound_to 11000

$$$$
