AV-unprocessed.smi:2835|AV-procd|sdf|10918|dock1
  -GOLD-   2272015363D 1   1.00000     0.00000
 Structure written by MMmdl.
 34 35  0  0  0  0  0  0  0  0  2 V2000
  150.3008  141.0449  158.4497 O   0  0  0  0  0  0  0  0  0  0  0  0
  151.4868  140.8584  158.1838 C   0  0  0  0  0  0  0  0  0  0  0  0
  152.5439  141.4863  159.1080 C   0  0  0  0  0  0  0  0  0  0  0  0
  152.2798  142.8750  159.4591 N   0  0  0  0  0  0  0  0  0  0  0  0
  152.2693  143.9807  158.6340 C   0  0  0  0  0  0  0  0  0  0  0  0
  151.9947  145.0674  159.4139 C   0  0  0  0  0  0  0  0  0  0  0  0
  151.8497  144.5188  160.7188 C   0  0  0  0  0  0  0  0  0  0  0  0
  152.0159  143.2064  160.7420 N   0  0  0  0  0  0  0  0  0  0  0  0
  151.9303  140.1404  157.1317 N   0  0  0  0  0  0  0  0  0  0  0  0
  151.2380  139.4041  156.0627 C   0  0  0  0  0  0  0  0  0  0  0  0
  152.3658  138.9511  155.0995 C   0  0  0  0  0  0  0  0  0  0  0  0
  153.0913  139.8326  154.5871 O   0  0  0  0  0  0  0  0  0  0  0  0
  152.4627  137.7284  154.8492 O   0  5  0  0  0  0  0  0  0  0  0  0
  150.3853  138.1881  156.5480 C   0  0  0  0  0  0  0  0  0  0  0  0
  149.5494  137.5447  155.4239 C   0  0  0  0  0  0  0  0  0  0  0  0
  148.6326  138.5780  154.7538 C   0  0  0  0  0  0  0  0  0  0  0  0
  149.4343  139.7839  154.2433 C   0  0  0  0  0  0  0  0  0  0  0  0
  150.2784  140.4135  155.3692 C   0  0  0  0  0  0  0  0  0  0  0  0
  152.6013  140.9036  160.0279 H   0  0  0  0  0  0  0  0  0  0  0  0
  153.5223  141.4203  158.6299 H   0  0  0  0  0  0  0  0  0  0  0  0
  152.4631  143.9028  157.5742 H   0  0  0  0  0  0  0  0  0  0  0  0
  151.9140  146.0977  159.1009 H   0  0  0  0  0  0  0  0  0  0  0  0
  151.6299  145.0319  161.6434 H   0  0  0  0  0  0  0  0  0  0  0  0
  152.9356  140.0645  157.0739 H   0  0  0  0  0  0  0  0  0  0  0  0
  151.0111  137.4264  157.0154 H   0  0  0  0  0  0  0  0  0  0  0  0
  149.6878  138.5185  157.3184 H   0  0  0  0  0  0  0  0  0  0  0  0
  150.2023  137.0921  154.6770 H   0  0  0  0  0  0  0  0  0  0  0  0
  148.9489  136.7320  155.8330 H   0  0  0  0  0  0  0  0  0  0  0  0
  148.0894  138.1153  153.9294 H   0  0  0  0  0  0  0  0  0  0  0  0
  147.8815  138.9163  155.4687 H   0  0  0  0  0  0  0  0  0  0  0  0
  150.0776  139.4751  153.4189 H   0  0  0  0  0  0  0  0  0  0  0  0
  148.7535  140.5304  153.8335 H   0  0  0  0  0  0  0  0  0  0  0  0
  149.6010  140.8280  156.1173 H   0  0  0  0  0  0  0  0  0  0  0  0
  150.8271  141.2705  154.9755 H   0  0  0  0  0  0  0  0  0  0  0  0
  1  2  2  0  0  0  0
  2  3  1  0  0  0  0
  2  9  1  0  0  0  0
  3  4  1  0  0  0  0
  3 19  1  0  0  0  0
  3 20  1  0  0  0  0
  4  8  1  0  0  0  0
  4  5  1  0  0  0  0
  5  6  2  0  0  0  0
  5 21  1  0  0  0  0
  6  7  1  0  0  0  0
  6 22  1  0  0  0  0
  7  8  2  0  0  0  0
  7 23  1  0  0  0  0
  9 10  1  0  0  0  0
  9 24  1  0  0  0  0
 10 18  1  0  0  0  0
 10 11  1  0  0  0  0
 10 14  1  0  0  0  0
 11 12  2  0  0  0  0
 11 13  1  0  0  0  0
 14 15  1  0  0  0  0
 14 25  1  0  0  0  0
 14 26  1  0  0  0  0
 15 16  1  0  0  0  0
 15 27  1  0  0  0  0
 15 28  1  0  0  0  0
 16 17  1  0  0  0  0
 16 29  1  0  0  0  0
 16 30  1  0  0  0  0
 17 18  1  0  0  0  0
 17 31  1  0  0  0  0
 17 32  1  0  0  0  0
 18 33  1  0  0  0  0
 18 34  1  0  0  0  0
M  CHG  1  13  -1
M  END
> <s_m_source_file>
AV-unprocessed.smi

> <i_m_source_file_index>
2835

> <i_lp_mmshare_version>
43012

> <i_f3d_flags>
0

> <s_epik_input>
bjFbY0hdW2NIXVtjSF1uMVtDSDJdQyg9TylbTkhdQzIoQyg9TylbT0hdKVtDSDJdW0NIMl1bQ0gyXVtDSDJdW0NIMl0y

> <s_epik_cmdline>
J2VwaWtfcHl0aG9uJywgJy1waCcsICc3LjAnLCAnLXRuJywgJzgnLCAnLW1hJywgJzIwMCcsICctbWV0YWxfYmluZGluZycsICctaW1hZScsICc8aW5maWxlLm1hZT4nLCAnLW9tYWUnLCAnPG91dGZpbGUubWFlPic=

> <r_lp_tautomer_probability>
1

> <r_epik_Ionization_Penalty>
0.000342313

> <r_epik_Ionization_Penalty_Charging>
0.000323848

> <r_epik_Ionization_Penalty_Neutral>
1.84652e-05

> <r_epik_State_Penalty>
0.000195685

> <r_epik_Charging_Adjusted_Penalty>
0.000519533

> <i_epik_Tot_Q>
-1

> <i_epik_Tot_abs_Q>
1

> <r_epik_Metal_State_Penalty>
-0

> <b_epik_Metal_Only>
0

> <s_lp_Force_Field>
OPLS_2005

> <r_lp_Energy>
5.56985

> <b_lp_Chiralities_Consistent>
1

> <s_lp_Variant>
AV-unprocessed.smi:2835-1

> <Gold.Version>
5.8.1

> <Gold.Id.Protein>
6NUR|6NUR_protein|mol2

> <Gold.PLP.Fitness>
46.7682

> <Gold.PLP.PLP>
-37.0670

> <Gold.PLP.part.hbond>
-3.0000

> <Gold.PLP.part.metal>
0.0000

> <Gold.PLP.part.buried>
-4.4141

> <Gold.PLP.part.nonpolar>
-30.5394

> <Gold.PLP.part.repulsive>
0.2650

> <Gold.PLP.ligand.clash>
0.0000

> <Gold.PLP.ligand.torsion>
0.2651

> <Gold.PLP.Chemscore.Hbond>
3.3892

> <Gold.PLP.Chemscore.CHOScore>
0.0000

> <Gold.PLP.Chemscore.Metal>
0.0000

> <Gold.Chemscore.Hbonds>
donor molecule, donor type, donor heavy atom, donor atom, acceptor molecule, acceptor atom, score
      P1  H  7989  7998       L1    12  0.26
      P1  H  7997  8010       L1    12  2.00
      P1  H 10752 10764       L1    13  0.75

> <Gold.PLP.Chemscore.Internal.Correction>
0.0638

> <Gold.Rescore>
     Score         DG    S(hbond)    S(metal)    S(lipo)     H(rot)  DE(clash)    DE(int)     intcor
     14.12     -15.47       1.84        0.00      77.24       2.03       0.16       1.18       ----

> <Gold.Chemscore.Fitness>
14.1216

> <Gold.Chemscore.DG>
-15.4680

> <Gold.Chemscore.ZeroCoef>
-5.4800

> <Gold.Chemscore.Hbond>
1.8436

> <Gold.Chemscore.Metal>
0.0000

> <Gold.Chemscore.Lipo>
77.2389

> <Gold.Chemscore.Internal_Hbond>
0.0000

> <Gold.Chemscore.DEClash>
0.1646

> <Gold.Chemscore.DEInternal>
1.1818

> <Gold.Chemscore.Rot>
2.0338

> <Gold.Chemscore.Internal.Correction>
   9.000000E+99

> <Gold.Chemscore.Hbonds>
donor molecule, donor type, donor heavy atom, donor atom, acceptor molecule, acceptor atom, score
      P1  H  7989  7998       L1    12  0.07
      P1  H  7997  8010       L1    12  0.78
      P1  H 10752 10764       L1    13  0.37

> <Gold.Chemscore.Hbond.Weighted>
-6.1576

> <Gold.Chemscore.Metal.Weighted>
-0.0000

> <Gold.Chemscore.Lipo.Weighted>
-9.0369

> <Gold.Chemscore.Internal_Hbond.Weighted>
0.0000

> <Gold.Chemscore.DEClash.Weighted>
0.1646

> <Gold.Chemscore.DEInternal.Weighted>
1.1818

> <Gold.Chemscore.Rot.Weighted>
5.2066

> <Gold.Chemscore.Internal.Correction.Weighted>
   9.000000E+99

> <Gold.Protein.RotatedTorsions>
[ 6907 6896 6895 6894 ] final  -97.60 input  -60.11 | X-H torsion
[ 7974 7965 7964 7962 ] final  -11.54 input  175.53 | X-H torsion
[ 8008 7997 7996 7995 ] final  116.03 input   59.86 | X-H torsion
[ 10167 10162 10161 10158 ] final  129.87 input  -65.29 | X-H torsion
[ 10718 10713 10712 10709 ] final  179.02 input   66.30 | X-H torsion
[ 10763 10752 10751 10750 ] final  -66.08 input  -60.55 | X-H torsion
[ 11005 11000 10999 10996 ] final  -67.91 input  -57.11 | X-H torsion

> <Gold.Protein.ActiveResidues>
 VAL166  LYS551  ARG553  GLY616  TRP617  ASP618  TYR619  PRO620  LYS621  CYS622 
 ASP623  PHE694  ASN695  SER759  ASP760  ASP761  ALA762  ILE779  LEU786  VAL792 
 PHE793  MET794  SER795  GLU796  ALA797  LYS798  CYS799  TRP800  GLU811  SER814 

> <Gold.Protein.RotatedAtoms>
  150.7021  134.1324  159.4074 H   0  0  0  0  0  0  0  0  0  0  0  0  # atno 6907 bound_to 6896
  151.9309  135.0254  160.0538 H   0  0  0  0  0  0  0  0  0  0  0  0  # atno 6908 bound_to 6896
  152.2176  133.4923  159.5181 H   0  0  0  0  0  0  0  0  0  0  0  0  # atno 6909 bound_to 6896
  146.2184  140.2927  142.8369 H   0  0  0  0  0  0  0  0  0  0  0  0  # atno 7974 bound_to 7965
  156.2416  140.2926  156.0460 H   0  0  0  0  0  0  0  0  0  0  0  0  # atno 8008 bound_to 7997
  155.1935  140.0407  157.2922 H   0  0  0  0  0  0  0  0  0  0  0  0  # atno 8009 bound_to 7997
  154.6179  140.2468  155.7594 H   0  0  0  0  0  0  0  0  0  0  0  0  # atno 8010 bound_to 7997
  139.5457  144.6771  151.4481 H   0  0  0  0  0  0  0  0  0  0  0  0  # atno 10167 bound_to 10162
  156.8820  130.9819  151.3061 H   0  0  0  0  0  0  0  0  0  0  0  0  # atno 10718 bound_to 10713
  154.3545  135.6129  153.5659 H   0  0  0  0  0  0  0  0  0  0  0  0  # atno 10763 bound_to 10752
  152.9796  135.5800  154.4704 H   0  0  0  0  0  0  0  0  0  0  0  0  # atno 10764 bound_to 10752
  154.4431  135.2850  155.1811 H   0  0  0  0  0  0  0  0  0  0  0  0  # atno 10765 bound_to 10752
  141.1519  133.6729  156.6364 H   0  0  0  0  0  0  0  0  0  0  0  0  # atno 11005 bound_to 11000
  144.9115  140.7763  143.5804 LP  0  0  0  0  0  0  0  0  0  0  0  0  # atno 17320 bound_to 7965
  145.2858  139.1901  143.4767 LP  0  0  0  0  0  0  0  0  0  0  0  0  # atno 17321 bound_to 7965
  140.6704  143.8306  150.6992 LP  0  0  0  0  0  0  0  0  0  0  0  0  # atno 17342 bound_to 10162
  140.1728  143.4180  152.1988 LP  0  0  0  0  0  0  0  0  0  0  0  0  # atno 17343 bound_to 10162
  157.6135  130.8600  149.8990 LP  0  0  0  0  0  0  0  0  0  0  0  0  # atno 17370 bound_to 10713
  156.0672  130.3690  150.0852 LP  0  0  0  0  0  0  0  0  0  0  0  0  # atno 17371 bound_to 10713
  140.3427  134.7836  157.4409 LP  0  0  0  0  0  0  0  0  0  0  0  0  # atno 17394 bound_to 11000
  140.0925  134.5582  155.8430 LP  0  0  0  0  0  0  0  0  0  0  0  0  # atno 17395 bound_to 11000

$$$$
