AV-unprocessed.smi:1361|AV-procd|sdf|5556|dock7
  -GOLD-   22720 5143D 1   1.00000     0.00000
 Structure written by MMmdl.
 46 47  0  0  0  0  0  0  0  0  1 V2000
  146.4870  138.6050  151.7568 C   0  0  0  0  0  0  0  0  0  0  0  0
  146.8600  139.2753  153.0612 C   0  0  0  0  0  0  0  0  0  0  0  0
  146.6333  140.6416  153.0698 N   0  0  0  0  0  0  0  0  0  0  0  0
  146.9325  141.3405  154.2260 C   0  0  0  0  0  0  0  0  0  0  0  0
  146.6419  142.8298  154.1548 C   0  0  0  0  0  0  0  0  0  0  0  0
  147.4409  140.7107  155.3156 C   0  0  0  0  0  0  0  0  0  0  0  0
  147.7747  141.4435  156.6131 C   0  0  0  0  0  0  0  0  0  0  0  0
  149.2399  141.3744  157.0463 C   0  0  0  0  0  0  0  0  0  0  0  0
  149.7653  140.2836  157.2666 O   0  0  0  0  0  0  0  0  0  0  0  0
  149.8848  142.5457  157.1620 N   0  0  0  0  0  0  0  0  0  0  0  0
  151.2782  142.7173  157.5672 C   0  0  0  0  0  0  0  0  0  0  0  0
  151.5268  141.9709  158.8972 C   0  0  0  0  0  0  0  0  0  0  0  0
  152.8805  142.2762  159.5650 C   0  0  0  0  0  0  0  0  0  0  0  0
  152.7779  143.0162  160.9117 C   0  0  0  0  0  0  0  0  0  0  0  0
  151.7842  144.1939  160.9939 C   0  0  0  0  0  0  0  0  0  0  0  0
  151.9227  145.2814  159.9138 C   0  0  0  0  0  0  0  0  0  0  0  0
  151.0311  145.0924  158.6672 C   0  0  0  0  0  0  0  0  0  0  0  0
  151.6387  144.2216  157.5510 C   0  0  0  0  0  0  0  0  0  0  0  0
  147.6782  139.2495  155.2399 C   0  0  0  0  0  0  0  0  0  0  0  0
  148.1562  138.6242  156.1854 O   0  0  0  0  0  0  0  0  0  0  0  0
  147.3451  138.5856  154.0482 N   0  0  0  0  0  0  0  0  0  0  0  0
  146.2550  141.1485  152.2824 H   0  0  0  0  0  0  0  0  0  0  0  0
  146.5431  137.5194  151.8465 H   0  0  0  0  0  0  0  0  0  0  0  0
  147.1664  138.9176  150.9634 H   0  0  0  0  0  0  0  0  0  0  0  0
  145.4694  138.8699  151.4678 H   0  0  0  0  0  0  0  0  0  0  0  0
  145.9177  143.1158  154.9177 H   0  0  0  0  0  0  0  0  0  0  0  0
  146.2328  143.1131  153.1842 H   0  0  0  0  0  0  0  0  0  0  0  0
  147.5551  143.4041  154.3114 H   0  0  0  0  0  0  0  0  0  0  0  0
  147.1608  141.0737  157.4349 H   0  0  0  0  0  0  0  0  0  0  0  0
  147.4807  142.4881  156.5041 H   0  0  0  0  0  0  0  0  0  0  0  0
  149.3682  143.3886  156.9574 H   0  0  0  0  0  0  0  0  0  0  0  0
  151.9105  142.2528  156.8080 H   0  0  0  0  0  0  0  0  0  0  0  0
  150.7048  142.1477  159.5898 H   0  0  0  0  0  0  0  0  0  0  0  0
  151.4805  140.8999  158.6953 H   0  0  0  0  0  0  0  0  0  0  0  0
  153.4034  141.3353  159.7403 H   0  0  0  0  0  0  0  0  0  0  0  0
  153.5357  142.8253  158.8910 H   0  0  0  0  0  0  0  0  0  0  0  0
  152.5028  142.2952  161.6824 H   0  0  0  0  0  0  0  0  0  0  0  0
  153.7728  143.3689  161.1857 H   0  0  0  0  0  0  0  0  0  0  0  0
  150.7559  143.8342  161.0309 H   0  0  0  0  0  0  0  0  0  0  0  0
  151.9406  144.6667  161.9642 H   0  0  0  0  0  0  0  0  0  0  0  0
  151.6173  146.2216  160.3751 H   0  0  0  0  0  0  0  0  0  0  0  0
  152.9675  145.4273  159.6373 H   0  0  0  0  0  0  0  0  0  0  0  0
  150.0346  144.7453  158.9424 H   0  0  0  0  0  0  0  0  0  0  0  0
  150.8776  146.0847  158.2413 H   0  0  0  0  0  0  0  0  0  0  0  0
  152.7197  144.3577  157.5275 H   0  0  0  0  0  0  0  0  0  0  0  0
  151.3035  144.6238  156.5937 H   0  0  0  0  0  0  0  0  0  0  0  0
  1 23  1  0  0  0  0
  1 24  1  0  0  0  0
  1 25  1  0  0  0  0
  1  2  1  0  0  0  0
  2  3  1  0  0  0  0
  2 21  2  0  0  0  0
  3  4  1  0  0  0  0
  3 22  1  0  0  0  0
  4  6  2  0  0  0  0
  4  5  1  0  0  0  0
  5 26  1  0  0  0  0
  5 27  1  0  0  0  0
  5 28  1  0  0  0  0
  6 19  1  0  0  0  0
  6  7  1  0  0  0  0
  7  8  1  0  0  0  0
  7 29  1  0  0  0  0
  7 30  1  0  0  0  0
  8  9  2  0  0  0  0
  8 10  1  0  0  0  0
 10 11  1  0  0  0  0
 10 31  1  0  0  0  0
 11 18  1  0  0  0  0
 11 12  1  0  0  0  0
 11 32  1  0  0  0  0
 12 13  1  0  0  0  0
 12 33  1  0  0  0  0
 12 34  1  0  0  0  0
 13 14  1  0  0  0  0
 13 35  1  0  0  0  0
 13 36  1  0  0  0  0
 14 15  1  0  0  0  0
 14 37  1  0  0  0  0
 14 38  1  0  0  0  0
 15 16  1  0  0  0  0
 15 39  1  0  0  0  0
 15 40  1  0  0  0  0
 16 17  1  0  0  0  0
 16 41  1  0  0  0  0
 16 42  1  0  0  0  0
 17 18  1  0  0  0  0
 17 43  1  0  0  0  0
 17 44  1  0  0  0  0
 18 45  1  0  0  0  0
 18 46  1  0  0  0  0
 19 20  2  0  0  0  0
 19 21  1  0  0  0  0
M  END
> <s_m_source_file>
AV-unprocessed.smi

> <i_m_source_file_index>
1361

> <i_lp_mmshare_version>
43012

> <i_f3d_flags>
0

> <s_epik_input>
W0NIM11jMW5jKFtDSDNdKWMoYyg9TylbbkhdMSlbQ0gyXUMoPU8pW05IXVtDSF0yW0NIMl1bQ0gyXVtDSDJdW0NIMl1bQ0gyXVtDSDJdW0NIMl0y

> <s_epik_cmdline>
J2VwaWtfcHl0aG9uJywgJy1waCcsICc3LjAnLCAnLXRuJywgJzgnLCAnLW1hJywgJzIwMCcsICctbWV0YWxfYmluZGluZycsICctaW1hZScsICc8aW5maWxlLm1hZT4nLCAnLW9tYWUnLCAnPG91dGZpbGUubWFlPic=

> <r_lp_tautomer_probability>
0.156392

> <r_epik_Ionization_Penalty>
0.0140222

> <r_epik_Ionization_Penalty_Charging>
0.0138986

> <r_epik_Ionization_Penalty_Neutral>
0.000123575

> <r_epik_State_Penalty>
1.53084

> <r_epik_Charging_Adjusted_Penalty>
1.54474

> <i_epik_Tot_Q>
0

> <i_epik_Tot_abs_Q>
0

> <r_epik_Metal_State_Penalty>
1.70646

> <b_epik_Metal_Only>
0

> <s_lp_Force_Field>
OPLS_2005

> <r_lp_Energy>
27.031

> <b_lp_Chiralities_Consistent>
1

> <s_lp_Variant>
AV-unprocessed.smi:1361-2

> <Gold.Version>
5.8.1

> <Gold.Id.Protein>
6NUR|6NUR_protein|mol2

> <Gold.PLP.Fitness>
49.1331

> <Gold.PLP.PLP>
-46.2726

> <Gold.PLP.part.hbond>
-1.7209

> <Gold.PLP.part.metal>
0.0000

> <Gold.PLP.part.buried>
-5.2943

> <Gold.PLP.part.nonpolar>
-40.5717

> <Gold.PLP.part.repulsive>
0.2363

> <Gold.PLP.ligand.clash>
0.0000

> <Gold.PLP.ligand.torsion>
0.0282

> <Gold.PLP.Chemscore.Hbond>
0.9600

> <Gold.PLP.Chemscore.CHOScore>
0.0000

> <Gold.PLP.Chemscore.Metal>
0.0000

> <Gold.Chemscore.Hbonds>
donor molecule, donor type, donor heavy atom, donor atom, acceptor molecule, acceptor atom, score
      L1  H    10    31       P1  8028  0.98

> <Gold.PLP.Chemscore.Internal.Correction>
0.0369

> <Gold.Rescore>
     Score         DG    S(hbond)    S(metal)    S(lipo)     H(rot)  DE(clash)    DE(int)     intcor
     16.27     -19.16       0.93        0.00     122.40       1.47       0.09       2.79       ----

> <Gold.Chemscore.Fitness>
16.2711

> <Gold.Chemscore.DG>
-19.1572

> <Gold.Chemscore.ZeroCoef>
-5.4800

> <Gold.Chemscore.Hbond>
0.9333

> <Gold.Chemscore.Metal>
0.0000

> <Gold.Chemscore.Lipo>
122.3987

> <Gold.Chemscore.Internal_Hbond>
0.0000

> <Gold.Chemscore.DEClash>
0.0948

> <Gold.Chemscore.DEInternal>
2.7914

> <Gold.Chemscore.Rot>
1.4690

> <Gold.Chemscore.Internal.Correction>
   9.000000E+99

> <Gold.Chemscore.Hbonds>
donor molecule, donor type, donor heavy atom, donor atom, acceptor molecule, acceptor atom, score
      L1  H    10    31       P1  8028  0.87

> <Gold.Chemscore.Hbond.Weighted>
-3.1172

> <Gold.Chemscore.Metal.Weighted>
-0.0000

> <Gold.Chemscore.Lipo.Weighted>
-14.3206

> <Gold.Chemscore.Internal_Hbond.Weighted>
0.0000

> <Gold.Chemscore.DEClash.Weighted>
0.0948

> <Gold.Chemscore.DEInternal.Weighted>
2.7914

> <Gold.Chemscore.Rot.Weighted>
3.7607

> <Gold.Chemscore.Internal.Correction.Weighted>
   9.000000E+99

> <Gold.Protein.RotatedTorsions>
[ 6907 6896 6895 6894 ] final  137.60 input  -60.11 | X-H torsion
[ 7974 7965 7964 7962 ] final  149.89 input  175.53 | X-H torsion
[ 8008 7997 7996 7995 ] final  -59.73 input   59.86 | X-H torsion
[ 10167 10162 10161 10158 ] final -156.05 input  -65.29 | X-H torsion
[ 10718 10713 10712 10709 ] final  144.72 input   66.30 | X-H torsion
[ 10763 10752 10751 10750 ] final   76.24 input  -60.55 | X-H torsion
[ 11005 11000 10999 10996 ] final  108.24 input  -57.11 | X-H torsion

> <Gold.Protein.ActiveResidues>
 VAL166  LYS551  ARG553  GLY616  TRP617  ASP618  TYR619  PRO620  LYS621  CYS622 
 ASP623  PHE694  ASN695  SER759  ASP760  ASP761  ALA762  ILE779  LEU786  VAL792 
 PHE793  MET794  SER795  GLU796  ALA797  LYS798  CYS799  TRP800  GLU811  SER814 

> <Gold.Protein.RotatedAtoms>
  152.2763  133.5428  159.5469 H   0  0  0  0  0  0  0  0  0  0  0  0  # atno 6907 bound_to 6896
  150.7178  134.0627  159.3846 H   0  0  0  0  0  0  0  0  0  0  0  0  # atno 6908 bound_to 6896
  151.8540  135.0548  160.0513 H   0  0  0  0  0  0  0  0  0  0  0  0  # atno 6909 bound_to 6896
  144.8404  139.6338  143.6019 H   0  0  0  0  0  0  0  0  0  0  0  0  # atno 7974 bound_to 7965
  154.4366  140.1055  156.6162 H   0  0  0  0  0  0  0  0  0  0  0  0  # atno 8008 bound_to 7997
  155.5757  140.3490  155.4508 H   0  0  0  0  0  0  0  0  0  0  0  0  # atno 8009 bound_to 7997
  156.0356  140.1270  157.0200 H   0  0  0  0  0  0  0  0  0  0  0  0  # atno 8010 bound_to 7997
  139.6882  143.9466  152.2371 H   0  0  0  0  0  0  0  0  0  0  0  0  # atno 10167 bound_to 10162
  157.3539  131.0955  151.0976 H   0  0  0  0  0  0  0  0  0  0  0  0  # atno 10718 bound_to 10713
  153.0711  135.4959  154.8307 H   0  0  0  0  0  0  0  0  0  0  0  0  # atno 10763 bound_to 10752
  154.7024  135.3004  154.9323 H   0  0  0  0  0  0  0  0  0  0  0  0  # atno 10764 bound_to 10752
  154.0043  135.6762  153.4814 H   0  0  0  0  0  0  0  0  0  0  0  0  # atno 10765 bound_to 10752
  139.8841  134.9424  156.5942 H   0  0  0  0  0  0  0  0  0  0  0  0  # atno 11005 bound_to 11000
  146.2697  139.6606  142.9304 LP  0  0  0  0  0  0  0  0  0  0  0  0  # atno 17320 bound_to 7965
  145.4706  141.0436  143.2701 LP  0  0  0  0  0  0  0  0  0  0  0  0  # atno 17321 bound_to 7965
  139.9274  144.6762  150.8398 LP  0  0  0  0  0  0  0  0  0  0  0  0  # atno 17342 bound_to 10162
  140.7674  143.3332  151.2365 LP  0  0  0  0  0  0  0  0  0  0  0  0  # atno 17343 bound_to 10162
  157.2141  130.6451  149.5785 LP  0  0  0  0  0  0  0  0  0  0  0  0  # atno 17370 bound_to 10713
  155.9726  130.4650  150.6239 LP  0  0  0  0  0  0  0  0  0  0  0  0  # atno 17371 bound_to 10713
  140.7933  133.8565  155.8664 LP  0  0  0  0  0  0  0  0  0  0  0  0  # atno 17394 bound_to 11000
  140.9658  134.1596  157.4617 LP  0  0  0  0  0  0  0  0  0  0  0  0  # atno 17395 bound_to 11000

$$$$
