AV-unprocessed.smi:1191|AV-procd|sdf|4987|dock1
  -GOLD-   22720 3583D 1   1.00000     0.00000
 Structure written by MMmdl.
 47 48  0  0  0  0  0  0  0  0  2 V2000
  151.7524  141.2284  157.7070 C   0  0  0  0  0  0  0  0  0  0  0  0
  151.0389  140.6140  156.5388 C   0  0  0  0  0  0  0  0  0  0  0  0
  149.7941  140.9956  155.9652 C   0  0  0  0  0  0  0  0  0  0  0  0
  149.6096  140.1122  154.9393 C   0  0  0  0  0  0  0  0  0  0  0  0
  148.4836  139.9928  153.9651 C   0  0  0  0  0  0  0  0  0  0  0  0
  150.7067  139.2676  154.9346 N   0  0  0  0  0  0  0  0  0  0  0  0
  151.0058  138.1510  154.0510 C   0  0  0  0  0  0  0  0  0  0  0  0
  151.0339  136.8278  154.8189 C   0  0  0  0  0  0  0  0  0  0  0  0
  151.8049  136.6776  155.7671 O   0  0  0  0  0  0  0  0  0  0  0  0
  150.1766  135.8789  154.4118 N   0  0  0  0  0  0  0  0  0  0  0  0
  150.0211  134.5747  155.0436 C   0  0  0  0  0  0  0  0  0  0  0  0
  149.5269  133.5212  154.0333 C   0  0  0  0  0  0  0  0  0  0  0  0
  148.3312  133.9752  153.2799 N   0  3  2  0  0  0  0  0  0  0  0  0
  147.2144  134.3584  154.1818 C   0  0  0  0  0  0  0  0  0  0  0  0
  146.0398  134.9514  153.3880 C   0  0  0  0  0  0  0  0  0  0  0  0
  145.5561  133.9725  152.3110 C   0  0  0  0  0  0  0  0  0  0  0  0
  146.7255  133.5600  151.4018 C   0  0  2  0  0  0  0  0  0  0  0  0
  146.2745  132.5567  150.3310 C   0  0  0  0  0  0  0  0  0  0  0  0
  147.8878  132.9999  152.2468 C   0  0  0  0  0  0  0  0  0  0  0  0
  151.5805  139.5808  155.9160 N   0  0  0  0  0  0  0  0  0  0  0  0
  151.1645  142.0326  158.1496 H   0  0  0  0  0  0  0  0  0  0  0  0
  152.7126  141.6467  157.4048 H   0  0  0  0  0  0  0  0  0  0  0  0
  151.9402  140.4887  158.4857 H   0  0  0  0  0  0  0  0  0  0  0  0
  149.1349  141.7973  156.2638 H   0  0  0  0  0  0  0  0  0  0  0  0
  147.8076  140.8441  154.0470 H   0  0  0  0  0  0  0  0  0  0  0  0
  147.9053  139.0876  154.1507 H   0  0  0  0  0  0  0  0  0  0  0  0
  148.8527  139.9580  152.9401 H   0  0  0  0  0  0  0  0  0  0  0  0
  150.2634  138.1246  153.2522 H   0  0  0  0  0  0  0  0  0  0  0  0
  151.9749  138.3111  153.5758 H   0  0  0  0  0  0  0  0  0  0  0  0
  149.5840  136.0806  153.6191 H   0  0  0  0  0  0  0  0  0  0  0  0
  150.9882  134.2762  155.4491 H   0  0  0  0  0  0  0  0  0  0  0  0
  149.3441  134.6673  155.8934 H   0  0  0  0  0  0  0  0  0  0  0  0
  150.3157  133.2446  153.3319 H   0  0  0  0  0  0  0  0  0  0  0  0
  149.2818  132.6151  154.5895 H   0  0  0  0  0  0  0  0  0  0  0  0
  146.8850  133.4854  154.7476 H   0  0  0  0  0  0  0  0  0  0  0  0
  147.5610  135.0956  154.9074 H   0  0  0  0  0  0  0  0  0  0  0  0
  145.2197  135.1971  154.0634 H   0  0  0  0  0  0  0  0  0  0  0  0
  146.3479  135.8882  152.9219 H   0  0  0  0  0  0  0  0  0  0  0  0
  145.1226  133.0906  152.7851 H   0  0  0  0  0  0  0  0  0  0  0  0
  144.7616  134.4323  151.7221 H   0  0  0  0  0  0  0  0  0  0  0  0
  147.0834  134.4518  150.8851 H   0  0  0  0  0  0  0  0  0  0  0  0
  145.9015  131.6361  150.7815 H   0  0  0  0  0  0  0  0  0  0  0  0
  147.0982  132.2926  149.6673 H   0  0  0  0  0  0  0  0  0  0  0  0
  145.4765  132.9720  149.7147 H   0  0  0  0  0  0  0  0  0  0  0  0
  148.7178  132.7524  151.5859 H   0  0  0  0  0  0  0  0  0  0  0  0
  147.5870  132.0697  152.7322 H   0  0  0  0  0  0  0  0  0  0  0  0
  148.6011  134.8187  152.7944 H   0  0  0  0  0  0  0  0  0  0  0  0
  1  2  1  0  0  0  0
  1 21  1  0  0  0  0
  1 22  1  0  0  0  0
  1 23  1  0  0  0  0
  2 20  2  0  0  0  0
  2  3  1  0  0  0  0
  3  4  2  0  0  0  0
  3 24  1  0  0  0  0
  4  5  1  0  0  0  0
  4  6  1  0  0  0  0
  5 25  1  0  0  0  0
  5 26  1  0  0  0  0
  5 27  1  0  0  0  0
  6  7  1  0  0  0  0
  6 20  1  0  0  0  0
  7  8  1  0  0  0  0
  7 28  1  0  0  0  0
  7 29  1  0  0  0  0
  8  9  2  0  0  0  0
  8 10  1  0  0  0  0
 10 11  1  0  0  0  0
 10 30  1  0  0  0  0
 11 12  1  0  0  0  0
 11 31  1  0  0  0  0
 11 32  1  0  0  0  0
 12 13  1  0  0  0  0
 12 33  1  0  0  0  0
 12 34  1  0  0  0  0
 13 19  1  0  0  0  0
 13 14  1  0  0  0  0
 13 47  1  0  0  0  0
 14 15  1  0  0  0  0
 14 35  1  0  0  0  0
 14 36  1  0  0  0  0
 15 16  1  0  0  0  0
 15 37  1  0  0  0  0
 15 38  1  0  0  0  0
 16 17  1  0  0  0  0
 16 39  1  0  0  0  0
 16 40  1  0  0  0  0
 17 18  1  0  0  0  0
 17 19  1  0  0  0  0
 17 41  1  0  0  0  0
 18 42  1  0  0  0  0
 18 43  1  0  0  0  0
 18 44  1  0  0  0  0
 19 45  1  0  0  0  0
 19 46  1  0  0  0  0
M  CHG  1  13   1
M  END
> <s_m_source_file>
AV-unprocessed.smi

> <i_m_source_file_index>
1191

> <i_lp_mmshare_version>
43012

> <i_f3d_flags>
0

> <s_epik_input>
W0NIM11jMVtjSF1jKFtDSDNdKW4objEpW0NIMl1DKD1PKVtOSF1bQ0gyXVtDSDJdTjJbQ0gyXVtDSDJdW0NIMl1bQ0BASF0oW0NIM10pW0NIMl0y

> <s_epik_cmdline>
J2VwaWtfcHl0aG9uJywgJy1waCcsICc3LjAnLCAnLXRuJywgJzgnLCAnLW1hJywgJzIwMCcsICctbWV0YWxfYmluZGluZycsICctaW1hZScsICc8aW5maWxlLm1hZT4nLCAnLW9tYWUnLCAnPG91dGZpbGUubWFlPic=

> <r_lp_tautomer_probability>
1

> <r_epik_Ionization_Penalty>
0.00249932

> <r_epik_Ionization_Penalty_Charging>
0.00230623

> <r_epik_Ionization_Penalty_Neutral>
0.000193092

> <r_epik_State_Penalty>
-0

> <r_epik_Charging_Adjusted_Penalty>
0.00230623

> <i_epik_Tot_Q>
1

> <i_epik_Tot_abs_Q>
1

> <r_epik_Metal_State_Penalty>
-0

> <b_epik_Metal_Only>
0

> <s_lp_Force_Field>
OPLS_2005

> <r_lp_Energy>
14.4812

> <b_lp_Chiralities_Consistent>
1

> <s_lp_Variant>
AV-unprocessed.smi:1191-4

> <Gold.Version>
5.8.1

> <Gold.Id.Protein>
6NUR|6NUR_protein|mol2

> <Gold.PLP.Fitness>
48.2058

> <Gold.PLP.PLP>
-36.6181

> <Gold.PLP.part.hbond>
-3.6545

> <Gold.PLP.part.metal>
0.0000

> <Gold.PLP.part.buried>
-1.8086

> <Gold.PLP.part.nonpolar>
-31.5611

> <Gold.PLP.part.repulsive>
0.0972

> <Gold.PLP.ligand.clash>
0.0000

> <Gold.PLP.ligand.torsion>
0.2351

> <Gold.PLP.Chemscore.Hbond>
4.0000

> <Gold.PLP.Chemscore.CHOScore>
0.0000

> <Gold.PLP.Chemscore.Metal>
0.0000

> <Gold.Chemscore.Hbonds>
donor molecule, donor type, donor heavy atom, donor atom, acceptor molecule, acceptor atom, score
      L1  H    10    30       P1  7948  1.00
      L1  H    13    47       P1  7948  2.00
      P1  H 10752 10765       L1     9  1.00

> <Gold.PLP.Chemscore.Internal.Correction>
0.0579

> <Gold.Rescore>
     Score         DG    S(hbond)    S(metal)    S(lipo)     H(rot)  DE(clash)    DE(int)     intcor
     18.34     -18.85       2.57        0.00      77.26       1.67       0.07       0.44       ----

> <Gold.Chemscore.Fitness>
18.3437

> <Gold.Chemscore.DG>
-18.8521

> <Gold.Chemscore.ZeroCoef>
-5.4800

> <Gold.Chemscore.Hbond>
2.5739

> <Gold.Chemscore.Metal>
0.0000

> <Gold.Chemscore.Lipo>
77.2581

> <Gold.Chemscore.Internal_Hbond>
0.0000

> <Gold.Chemscore.DEClash>
0.0686

> <Gold.Chemscore.DEInternal>
0.4398

> <Gold.Chemscore.Rot>
1.6657

> <Gold.Chemscore.Internal.Correction>
   9.000000E+99

> <Gold.Chemscore.Hbonds>
donor molecule, donor type, donor heavy atom, donor atom, acceptor molecule, acceptor atom, score
      L1  H    10    30       P1  7948  0.39
      L1  H    13    47       P1  7948  0.26
      P1  H 10752 10765       L1     9  0.34

> <Gold.Chemscore.Hbond.Weighted>
-8.5969

> <Gold.Chemscore.Metal.Weighted>
-0.0000

> <Gold.Chemscore.Lipo.Weighted>
-9.0392

> <Gold.Chemscore.Internal_Hbond.Weighted>
0.0000

> <Gold.Chemscore.DEClash.Weighted>
0.0686

> <Gold.Chemscore.DEInternal.Weighted>
0.4398

> <Gold.Chemscore.Rot.Weighted>
4.2641

> <Gold.Chemscore.Internal.Correction.Weighted>
   9.000000E+99

> <Gold.Protein.RotatedTorsions>
[ 6907 6896 6895 6894 ] final   42.62 input  -60.11 | X-H torsion
[ 7974 7965 7964 7962 ] final  -97.86 input  175.53 | X-H torsion
[ 8008 7997 7996 7995 ] final   30.17 input   59.86 | X-H torsion
[ 10167 10162 10161 10158 ] final -143.06 input  -65.29 | X-H torsion
[ 10718 10713 10712 10709 ] final   17.72 input   66.30 | X-H torsion
[ 10763 10752 10751 10750 ] final -151.44 input  -60.55 | X-H torsion
[ 11005 11000 10999 10996 ] final    4.92 input  -57.11 | X-H torsion

> <Gold.Protein.ActiveResidues>
 VAL166  LYS551  ARG553  GLY616  TRP617  ASP618  TYR619  PRO620  LYS621  CYS622 
 ASP623  PHE694  ASN695  SER759  ASP760  ASP761  ALA762  ILE779  LEU786  VAL792 
 PHE793  MET794  SER795  GLU796  ALA797  LYS798  CYS799  TRP800  GLU811  SER814 

> <Gold.Protein.RotatedAtoms>
  152.2102  134.8508  160.0498 H   0  0  0  0  0  0  0  0  0  0  0  0  # atno 6907 bound_to 6896
  151.9330  133.3611  159.3946 H   0  0  0  0  0  0  0  0  0  0  0  0  # atno 6908 bound_to 6896
  150.6974  134.4443  159.5350 H   0  0  0  0  0  0  0  0  0  0  0  0  # atno 6909 bound_to 6896
  145.3282  140.9436  143.2677 H   0  0  0  0  0  0  0  0  0  0  0  0  # atno 7974 bound_to 7965
  155.0862  140.3215  155.4587 H   0  0  0  0  0  0  0  0  0  0  0  0  # atno 8008 bound_to 7997
  156.2754  140.2086  156.5935 H   0  0  0  0  0  0  0  0  0  0  0  0  # atno 8009 bound_to 7997
  154.6939  140.0513  157.0379 H   0  0  0  0  0  0  0  0  0  0  0  0  # atno 8010 bound_to 7997
  139.8029  143.7809  152.2659 H   0  0  0  0  0  0  0  0  0  0  0  0  # atno 10167 bound_to 10162
  157.0861  130.6408  149.5838 H   0  0  0  0  0  0  0  0  0  0  0  0  # atno 10718 bound_to 10713
  154.8057  135.3260  154.7436 H   0  0  0  0  0  0  0  0  0  0  0  0  # atno 10763 bound_to 10752
  153.8095  135.6897  153.4847 H   0  0  0  0  0  0  0  0  0  0  0  0  # atno 10764 bound_to 10752
  153.1801  135.4590  154.9962 H   0  0  0  0  0  0  0  0  0  0  0  0  # atno 10765 bound_to 10752
  140.5765  134.0053  155.8030 H   0  0  0  0  0  0  0  0  0  0  0  0  # atno 11005 bound_to 11000
  144.8885  139.4807  143.6689 LP  0  0  0  0  0  0  0  0  0  0  0  0  # atno 17320 bound_to 7965
  146.3056  139.7568  142.9059 LP  0  0  0  0  0  0  0  0  0  0  0  0  # atno 17321 bound_to 7965
  139.7934  144.7401  150.9923 LP  0  0  0  0  0  0  0  0  0  0  0  0  # atno 17342 bound_to 10162
  140.7820  143.4418  151.0540 LP  0  0  0  0  0  0  0  0  0  0  0  0  # atno 17343 bound_to 10162
  155.9910  130.4963  150.7282 LP  0  0  0  0  0  0  0  0  0  0  0  0  # atno 17370 bound_to 10713
  157.4760  131.0898  151.0590 LP  0  0  0  0  0  0  0  0  0  0  0  0  # atno 17371 bound_to 10713
  141.1023  133.9748  157.3057 LP  0  0  0  0  0  0  0  0  0  0  0  0  # atno 17394 bound_to 11000
  139.9337  135.0198  156.8485 LP  0  0  0  0  0  0  0  0  0  0  0  0  # atno 17395 bound_to 11000

$$$$
