AV-unprocessed.smi:2445|AV-procd|sdf|9635|dock6
  -GOLD-   2272013273D 1   1.00000     0.00000
 Structure written by MMmdl.
 40 41  0  0  0  0  0  0  0  0  1 V2000
  150.8725  142.5292  158.2898 C   0  0  0  0  0  0  0  0  0  0  0  0
  150.5596  141.7293  157.0711 C   0  0  0  0  0  0  0  0  0  0  0  0
  151.4427  141.1029  156.2270 C   0  0  0  0  0  0  0  0  0  0  0  0
  150.8301  140.4285  155.1685 N   0  0  0  0  0  0  0  0  0  0  0  0
  149.4984  140.5322  155.1992 C   0  0  0  0  0  0  0  0  0  0  0  0
  148.5902  139.9201  154.1760 C   0  0  2  0  0  0  0  0  0  0  0  0
  147.7342  140.9730  153.4580 C   0  0  0  0  0  0  0  0  0  0  0  0
  147.7568  138.7415  154.7274 C   0  0  0  0  0  0  0  0  0  0  0  0
  147.3465  137.7980  153.6911 N   0  0  0  0  0  0  0  0  0  0  0  0
  146.0789  137.5297  153.3511 C   0  0  0  0  0  0  0  0  0  0  0  0
  145.0977  138.0294  153.9011 O   0  0  0  0  0  0  0  0  0  0  0  0
  146.0160  136.6618  152.3324 N   0  0  0  0  0  0  0  0  0  0  0  0
  144.7904  136.1727  151.7000 C   0  0  1  0  0  0  0  0  0  0  0  0
  145.1210  135.3617  150.4471 C   0  0  0  0  0  0  0  0  0  0  0  0
  144.4194  134.0238  150.6674 C   0  0  0  0  0  0  0  0  0  0  0  0
  144.3679  133.9023  152.0782 O   0  0  0  0  0  0  0  0  0  0  0  0
  144.0138  135.1783  152.5889 C   0  0  1  0  0  0  0  0  0  0  0  0
  144.2673  135.2422  154.1039 C   0  0  0  0  0  0  0  0  0  0  0  0
  148.9113  141.4890  156.5552 S   0  0  0  0  0  0  0  0  0  0  0  0
  151.9491  142.6091  158.4417 H   0  0  0  0  0  0  0  0  0  0  0  0
  150.4407  142.0657  159.1767 H   0  0  0  0  0  0  0  0  0  0  0  0
  150.4687  143.5381  158.2044 H   0  0  0  0  0  0  0  0  0  0  0  0
  152.5198  141.0855  156.3034 H   0  0  0  0  0  0  0  0  0  0  0  0
  149.2454  139.5020  153.4105 H   0  0  0  0  0  0  0  0  0  0  0  0
  148.3593  141.7355  152.9920 H   0  0  0  0  0  0  0  0  0  0  0  0
  147.0581  141.4738  154.1517 H   0  0  0  0  0  0  0  0  0  0  0  0
  147.1286  140.5182  152.6739 H   0  0  0  0  0  0  0  0  0  0  0  0
  148.3525  138.1828  155.4500 H   0  0  0  0  0  0  0  0  0  0  0  0
  146.8829  139.1084  155.2679 H   0  0  0  0  0  0  0  0  0  0  0  0
  148.0846  137.3369  153.1794 H   0  0  0  0  0  0  0  0  0  0  0  0
  146.8849  136.3122  151.9556 H   0  0  0  0  0  0  0  0  0  0  0  0
  144.1301  137.0023  151.4415 H   0  0  0  0  0  0  0  0  0  0  0  0
  144.7861  135.8512  149.5322 H   0  0  0  0  0  0  0  0  0  0  0  0
  146.1960  135.1979  150.3560 H   0  0  0  0  0  0  0  0  0  0  0  0
  143.4045  134.0468  150.2671 H   0  0  0  0  0  0  0  0  0  0  0  0
  144.9499  133.1887  150.2096 H   0  0  0  0  0  0  0  0  0  0  0  0
  142.9456  135.3160  152.4098 H   0  0  0  0  0  0  0  0  0  0  0  0
  144.0342  136.2315  154.4982 H   0  0  0  0  0  0  0  0  0  0  0  0
  145.3047  135.0140  154.3501 H   0  0  0  0  0  0  0  0  0  0  0  0
  143.6415  134.5206  154.6291 H   0  0  0  0  0  0  0  0  0  0  0  0
  1  2  1  0  0  0  0
  1 20  1  0  0  0  0
  1 21  1  0  0  0  0
  1 22  1  0  0  0  0
  2 19  1  0  0  0  0
  2  3  2  0  0  0  0
  3  4  1  0  0  0  0
  3 23  1  0  0  0  0
  4  5  2  0  0  0  0
  5  6  1  0  0  0  0
  5 19  1  0  0  0  0
  6  7  1  0  0  0  0
  6  8  1  0  0  0  0
  6 24  1  0  0  0  0
  7 25  1  0  0  0  0
  7 26  1  0  0  0  0
  7 27  1  0  0  0  0
  8  9  1  0  0  0  0
  8 28  1  0  0  0  0
  8 29  1  0  0  0  0
  9 10  1  0  0  0  0
  9 30  1  0  0  0  0
 10 11  2  0  0  0  0
 10 12  1  0  0  0  0
 12 13  1  0  0  0  0
 12 31  1  0  0  0  0
 13 17  1  0  0  0  0
 13 14  1  0  0  0  0
 13 32  1  0  0  0  0
 14 15  1  0  0  0  0
 14 33  1  0  0  0  0
 14 34  1  0  0  0  0
 15 16  1  0  0  0  0
 15 35  1  0  0  0  0
 15 36  1  0  0  0  0
 16 17  1  0  0  0  0
 17 18  1  0  0  0  0
 17 37  1  0  0  0  0
 18 38  1  0  0  0  0
 18 39  1  0  0  0  0
 18 40  1  0  0  0  0
M  END
> <s_m_source_file>
AV-unprocessed.smi

> <i_m_source_file_index>
2445

> <i_lp_mmshare_version>
43012

> <i_f3d_flags>
0

> <s_epik_input>
W0NIM11jMVtjSF1uYyhzMSlbQ0BIXShbQ0gzXSlbQ0gyXVtOSF1DKD1PKVtOSF1bQ0BASF0yW0NIMl1bQ0gyXU9bQ0BIXTJbQ0gzXQ==

> <s_epik_cmdline>
J2VwaWtfcHl0aG9uJywgJy1waCcsICc3LjAnLCAnLXRuJywgJzgnLCAnLW1hJywgJzIwMCcsICctbWV0YWxfYmluZGluZycsICctaW1hZScsICc8aW5maWxlLm1hZT4nLCAnLW9tYWUnLCAnPG91dGZpbGUubWFlPic=

> <r_epik_Ionization_Penalty>
0.000649483

> <r_epik_Ionization_Penalty_Charging>
0

> <r_epik_Ionization_Penalty_Neutral>
0.000649483

> <r_epik_State_Penalty>
0.000379895

> <r_epik_Charging_Adjusted_Penalty>
0.000379895

> <i_epik_Tot_Q>
0

> <i_epik_Tot_abs_Q>
0

> <r_epik_Metal_State_Penalty>
-0

> <b_epik_Metal_Only>
0

> <s_lp_Force_Field>
OPLS_2005

> <r_lp_Energy>
6.16207

> <b_lp_Chiralities_Consistent>
1

> <s_lp_Variant>
AV-unprocessed.smi:2445-3

> <Gold.Version>
5.8.1

> <Gold.Id.Protein>
6NUR|6NUR_protein|mol2

> <Gold.PLP.Fitness>
35.6442

> <Gold.PLP.PLP>
-27.3665

> <Gold.PLP.part.hbond>
-3.0000

> <Gold.PLP.part.metal>
0.0000

> <Gold.PLP.part.buried>
-3.7764

> <Gold.PLP.part.nonpolar>
-21.0272

> <Gold.PLP.part.repulsive>
0.3144

> <Gold.PLP.ligand.clash>
0.0000

> <Gold.PLP.ligand.torsion>
0.4129

> <Gold.PLP.Chemscore.Hbond>
2.9913

> <Gold.PLP.Chemscore.CHOScore>
0.0000

> <Gold.PLP.Chemscore.Metal>
0.0000

> <Gold.Chemscore.Hbonds>
donor molecule, donor type, donor heavy atom, donor atom, acceptor molecule, acceptor atom, score
      L1  H     9    30       P1  7948  1.00
      L1  H    12    31       P1  7948  0.96
      P1  H  7989  7998       L1     4  1.00

> <Gold.PLP.Chemscore.Internal.Correction>
0.1296

> <Gold.Rescore>
     Score         DG    S(hbond)    S(metal)    S(lipo)     H(rot)  DE(clash)    DE(int)     intcor
     18.48     -19.17       2.76        0.00      71.79       1.53       0.19       0.50       ----

> <Gold.Chemscore.Fitness>
18.4845

> <Gold.Chemscore.DG>
-19.1703

> <Gold.Chemscore.ZeroCoef>
-5.4800

> <Gold.Chemscore.Hbond>
2.7587

> <Gold.Chemscore.Metal>
0.0000

> <Gold.Chemscore.Lipo>
71.7923

> <Gold.Chemscore.Internal_Hbond>
0.0000

> <Gold.Chemscore.DEClash>
0.1866

> <Gold.Chemscore.DEInternal>
0.4992

> <Gold.Chemscore.Rot>
1.5325

> <Gold.Chemscore.Internal.Correction>
   9.000000E+99

> <Gold.Chemscore.Hbonds>
donor molecule, donor type, donor heavy atom, donor atom, acceptor molecule, acceptor atom, score
      L1  H     9    30       P1  7948  0.99
      L1  H    12    31       P1  7948  0.88
      P1  H  7989  7998       L1     4  0.68

> <Gold.Chemscore.Hbond.Weighted>
-9.2139

> <Gold.Chemscore.Metal.Weighted>
-0.0000

> <Gold.Chemscore.Lipo.Weighted>
-8.3997

> <Gold.Chemscore.Internal_Hbond.Weighted>
0.0000

> <Gold.Chemscore.DEClash.Weighted>
0.1866

> <Gold.Chemscore.DEInternal.Weighted>
0.4992

> <Gold.Chemscore.Rot.Weighted>
3.9233

> <Gold.Chemscore.Internal.Correction.Weighted>
   9.000000E+99

> <Gold.Protein.RotatedTorsions>
[ 6907 6896 6895 6894 ] final -170.47 input  -60.11 | X-H torsion
[ 7974 7965 7964 7962 ] final  122.33 input  175.53 | X-H torsion
[ 8008 7997 7996 7995 ] final -101.53 input   59.86 | X-H torsion
[ 10167 10162 10161 10158 ] final -103.72 input  -65.29 | X-H torsion
[ 10718 10713 10712 10709 ] final  -52.19 input   66.30 | X-H torsion
[ 10763 10752 10751 10750 ] final   92.50 input  -60.55 | X-H torsion
[ 11005 11000 10999 10996 ] final  140.99 input  -57.11 | X-H torsion

> <Gold.Protein.ActiveResidues>
 VAL166  LYS551  ARG553  GLY616  TRP617  ASP618  TYR619  PRO620  LYS621  CYS622 
 ASP623  PHE694  ASN695  SER759  ASP760  ASP761  ALA762  ILE779  LEU786  VAL792 
 PHE793  MET794  SER795  GLU796  ALA797  LYS798  CYS799  TRP800  GLU811  SER814 

> <Gold.Protein.RotatedAtoms>
  151.5082  133.3490  159.2880 H   0  0  0  0  0  0  0  0  0  0  0  0  # atno 6907 bound_to 6896
  150.8729  134.8109  159.7179 H   0  0  0  0  0  0  0  0  0  0  0  0  # atno 6908 bound_to 6896
  152.4711  134.4968  159.9764 H   0  0  0  0  0  0  0  0  0  0  0  0  # atno 6909 bound_to 6896
  145.1088  139.3467  143.4774 H   0  0  0  0  0  0  0  0  0  0  0  0  # atno 7974 bound_to 7965
  154.8439  140.0434  157.1559 H   0  0  0  0  0  0  0  0  0  0  0  0  # atno 8008 bound_to 7997
  154.9017  140.3001  155.5294 H   0  0  0  0  0  0  0  0  0  0  0  0  # atno 8009 bound_to 7997
  156.2993  140.2374  156.4045 H   0  0  0  0  0  0  0  0  0  0  0  0  # atno 8010 bound_to 7997
  140.2169  143.3704  152.1003 H   0  0  0  0  0  0  0  0  0  0  0  0  # atno 10167 bound_to 10162
  156.1643  130.4149  149.9745 H   0  0  0  0  0  0  0  0  0  0  0  0  # atno 10718 bound_to 10713
  153.2199  135.4359  155.0477 H   0  0  0  0  0  0  0  0  0  0  0  0  # atno 10763 bound_to 10752
  154.8244  135.3353  154.6943 H   0  0  0  0  0  0  0  0  0  0  0  0  # atno 10764 bound_to 10752
  153.7375  135.7007  153.5030 H   0  0  0  0  0  0  0  0  0  0  0  0  # atno 10765 bound_to 10752
  140.0368  134.9325  157.0768 H   0  0  0  0  0  0  0  0  0  0  0  0  # atno 11005 bound_to 11000
  146.3527  140.0998  142.8608 LP  0  0  0  0  0  0  0  0  0  0  0  0  # atno 17320 bound_to 7965
  145.0870  140.9259  143.4791 LP  0  0  0  0  0  0  0  0  0  0  0  0  # atno 17321 bound_to 7965
  139.5158  144.6969  151.5605 LP  0  0  0  0  0  0  0  0  0  0  0  0  # atno 17342 bound_to 10162
  140.6283  143.9126  150.6583 LP  0  0  0  0  0  0  0  0  0  0  0  0  # atno 17343 bound_to 10162
  156.7564  130.9135  151.3639 LP  0  0  0  0  0  0  0  0  0  0  0  0  # atno 17370 bound_to 10713
  157.6756  130.9091  150.0142 LP  0  0  0  0  0  0  0  0  0  0  0  0  # atno 17371 bound_to 10713
  140.4135  134.1956  155.7163 LP  0  0  0  0  0  0  0  0  0  0  0  0  # atno 17394 bound_to 11000
  141.1861  133.8308  157.1079 LP  0  0  0  0  0  0  0  0  0  0  0  0  # atno 17395 bound_to 11000

$$$$
