AV-unprocessed.smi:1419|AV-procd|sdf|5777|dock9
  -GOLD-   22720 5423D 1   1.00000     0.00000
 Structure written by MMmdl.
 42 43  0  0  0  0  0  0  0  0  2 V2000
  153.9796  141.5426  160.4318 C   0  0  0  0  0  0  0  0  0  0  0  0
  152.5396  141.4017  159.9130 C   0  0  1  0  0  0  0  0  0  0  0  0
  152.2816  142.2097  158.6224 C   0  0  0  0  0  0  0  0  0  0  0  0
  151.7144  143.5353  158.8836 N   0  0  0  0  0  0  0  0  0  0  0  0
  152.2425  144.5325  159.6630 C   0  0  0  0  0  0  0  0  0  0  0  0
  151.3631  145.5828  159.6017 C   0  0  0  0  0  0  0  0  0  0  0  0
  150.3381  145.1834  158.7863 N   0  3  0  0  0  0  0  0  0  0  0  0
  150.5549  143.9388  158.3488 C   0  0  0  0  0  0  0  0  0  0  0  0
  152.2470  139.9894  159.6889 N   0  0  0  0  0  0  0  0  0  0  0  0
  152.7734  139.2279  158.7140 C   0  0  0  0  0  0  0  0  0  0  0  0
  153.5634  139.6810  157.8846 O   0  0  0  0  0  0  0  0  0  0  0  0
  152.3588  137.9369  158.7188 N   0  0  0  0  0  0  0  0  0  0  0  0
  152.8421  136.8519  157.8537 C   0  0  0  0  0  0  0  0  0  0  0  0
  151.7379  136.4892  156.8388 C   0  0  2  0  0  0  0  0  0  0  0  0
  151.5018  137.5630  155.7612 C   0  0  0  0  0  0  0  0  0  0  0  0
  150.5283  136.1718  157.5350 O   0  0  0  0  0  0  0  0  0  0  0  0
  150.0649  137.1596  158.4598 C   0  0  1  0  0  0  0  0  0  0  0  0
  148.8104  136.6113  159.1482 C   0  0  0  0  0  0  0  0  0  0  0  0
  151.1838  137.4880  159.4677 C   0  0  0  0  0  0  0  0  0  0  0  0
  154.2092  142.5741  160.6994 H   0  0  0  0  0  0  0  0  0  0  0  0
  154.7043  141.2232  159.6822 H   0  0  0  0  0  0  0  0  0  0  0  0
  154.1355  140.9355  161.3244 H   0  0  0  0  0  0  0  0  0  0  0  0
  151.8737  141.7689  160.6964 H   0  0  0  0  0  0  0  0  0  0  0  0
  153.2083  142.3455  158.0628 H   0  0  0  0  0  0  0  0  0  0  0  0
  151.5905  141.6827  157.9627 H   0  0  0  0  0  0  0  0  0  0  0  0
  153.1787  144.4225  160.1911 H   0  0  0  0  0  0  0  0  0  0  0  0
  151.3895  146.5589  160.0642 H   0  0  0  0  0  0  0  0  0  0  0  0
  149.9184  143.3705  157.6936 H   0  0  0  0  0  0  0  0  0  0  0  0
  151.5984  139.5518  160.3273 H   0  0  0  0  0  0  0  0  0  0  0  0
  153.7713  137.0768  157.3302 H   0  0  0  0  0  0  0  0  0  0  0  0
  153.0673  135.9835  158.4747 H   0  0  0  0  0  0  0  0  0  0  0  0
  152.0434  135.5787  156.3225 H   0  0  0  0  0  0  0  0  0  0  0  0
  152.4100  137.7369  155.1839 H   0  0  0  0  0  0  0  0  0  0  0  0
  151.1980  138.5197  156.1847 H   0  0  0  0  0  0  0  0  0  0  0  0
  150.7243  137.2472  155.0653 H   0  0  0  0  0  0  0  0  0  0  0  0
  149.7859  138.0633  157.9169 H   0  0  0  0  0  0  0  0  0  0  0  0
  148.4053  137.3319  159.8589 H   0  0  0  0  0  0  0  0  0  0  0  0
  149.0281  135.6912  159.6914 H   0  0  0  0  0  0  0  0  0  0  0  0
  148.0311  136.3908  158.4184 H   0  0  0  0  0  0  0  0  0  0  0  0
  151.4412  136.6038  160.0528 H   0  0  0  0  0  0  0  0  0  0  0  0
  150.8351  138.2307  160.1867 H   0  0  0  0  0  0  0  0  0  0  0  0
  149.5318  145.7467  158.5462 H   0  0  0  0  0  0  0  0  0  0  0  0
  1  2  1  0  0  0  0
  1 20  1  0  0  0  0
  1 21  1  0  0  0  0
  1 22  1  0  0  0  0
  2  3  1  0  0  0  0
  2  9  1  0  0  0  0
  2 23  1  0  0  0  0
  3  4  1  0  0  0  0
  3 24  1  0  0  0  0
  3 25  1  0  0  0  0
  4  8  1  0  0  0  0
  4  5  1  0  0  0  0
  5  6  2  0  0  0  0
  5 26  1  0  0  0  0
  6  7  1  0  0  0  0
  6 27  1  0  0  0  0
  7  8  2  0  0  0  0
  7 42  1  0  0  0  0
  8 28  1  0  0  0  0
  9 10  1  0  0  0  0
  9 29  1  0  0  0  0
 10 11  2  0  0  0  0
 10 12  1  0  0  0  0
 12 19  1  0  0  0  0
 12 13  1  0  0  0  0
 13 14  1  0  0  0  0
 13 30  1  0  0  0  0
 13 31  1  0  0  0  0
 14 15  1  0  0  0  0
 14 16  1  0  0  0  0
 14 32  1  0  0  0  0
 15 33  1  0  0  0  0
 15 34  1  0  0  0  0
 15 35  1  0  0  0  0
 16 17  1  0  0  0  0
 17 18  1  0  0  0  0
 17 19  1  0  0  0  0
 17 36  1  0  0  0  0
 18 37  1  0  0  0  0
 18 38  1  0  0  0  0
 18 39  1  0  0  0  0
 19 40  1  0  0  0  0
 19 41  1  0  0  0  0
M  CHG  1   7   1
M  END
> <s_m_source_file>
AV-unprocessed.smi

> <i_m_source_file_index>
1419

> <i_lp_mmshare_version>
43012

> <i_f3d_flags>
0

> <s_epik_input>
W2NIXTFuW2NIXVtjSF1uMVtDSDJdW0NAQEhdKFtDSDNdKVtOSF1DKD1PKU4yW0NIMl1bQ0BASF0oW0NIM10pT1tDQEBIXShbQ0gzXSlbQ0gyXTI=

> <s_epik_cmdline>
J2VwaWtfcHl0aG9uJywgJy1waCcsICc3LjAnLCAnLXRuJywgJzgnLCAnLW1hJywgJzIwMCcsICctbWV0YWxfYmluZGluZycsICctaW1hZScsICc8aW5maWxlLm1hZT4nLCAnLW9tYWUnLCAnPG91dGZpbGUubWFlPic=

> <r_lp_tautomer_probability>
1

> <r_epik_Ionization_Penalty>
0.253607

> <r_epik_Ionization_Penalty_Charging>
0

> <r_epik_Ionization_Penalty_Neutral>
0.253607

> <r_epik_State_Penalty>
0.245018

> <r_epik_Charging_Adjusted_Penalty>
0.245018

> <i_epik_Tot_Q>
1

> <i_epik_Tot_abs_Q>
1

> <r_epik_Metal_State_Penalty>
0.535379

> <b_epik_Metal_Only>
0

> <s_lp_Force_Field>
OPLS_2005

> <r_lp_Energy>
32.5002

> <b_lp_Chiralities_Consistent>
1

> <s_lp_Variant>
AV-unprocessed.smi:1419-4

> <Gold.Version>
5.8.1

> <Gold.Id.Protein>
6NUR|6NUR_protein|mol2

> <Gold.PLP.Fitness>
41.0996

> <Gold.PLP.PLP>
-32.0597

> <Gold.PLP.part.hbond>
-1.9180

> <Gold.PLP.part.metal>
0.0000

> <Gold.PLP.part.buried>
-1.5066

> <Gold.PLP.part.nonpolar>
-28.9429

> <Gold.PLP.part.repulsive>
0.3769

> <Gold.PLP.ligand.clash>
0.8339

> <Gold.PLP.ligand.torsion>
0.6235

> <Gold.PLP.Chemscore.Hbond>
2.9840

> <Gold.PLP.Chemscore.CHOScore>
0.7074

> <Gold.PLP.Chemscore.Metal>
0.0000

> <Gold.Chemscore.Hbonds>
donor molecule, donor type, donor heavy atom, donor atom, acceptor molecule, acceptor atom, score
      L1  H     7    42       P1  8029  1.66
      P1  H  7997  8009       L1    11  0.78
      L1  C     8    28       P1  8028  0.51

> <Gold.PLP.Chemscore.Internal.Correction>
0.0466

> <Gold.Rescore>
     Score         DG    S(hbond)    S(metal)    S(lipo)     H(rot)  DE(clash)    DE(int)     intcor
     14.79     -16.45       1.87        0.00      76.03       1.63       0.00       1.66       ----

> <Gold.Chemscore.Fitness>
14.7920

> <Gold.Chemscore.DG>
-16.4531

> <Gold.Chemscore.ZeroCoef>
-5.4800

> <Gold.Chemscore.Hbond>
1.8692

> <Gold.Chemscore.Metal>
0.0000

> <Gold.Chemscore.Lipo>
76.0313

> <Gold.Chemscore.Internal_Hbond>
0.0000

> <Gold.Chemscore.DEClash>
0.0000

> <Gold.Chemscore.DEInternal>
1.6611

> <Gold.Chemscore.Rot>
1.6273

> <Gold.Chemscore.Internal.Correction>
   9.000000E+99

> <Gold.Chemscore.Hbonds>
donor molecule, donor type, donor heavy atom, donor atom, acceptor molecule, acceptor atom, score
      L1  H     7    42       P1  8029  0.75
      P1  H  7997  8009       L1    11  0.74

> <Gold.Chemscore.Hbond.Weighted>
-6.2433

> <Gold.Chemscore.Metal.Weighted>
-0.0000

> <Gold.Chemscore.Lipo.Weighted>
-8.8957

> <Gold.Chemscore.Internal_Hbond.Weighted>
0.0000

> <Gold.Chemscore.DEClash.Weighted>
0.0000

> <Gold.Chemscore.DEInternal.Weighted>
1.6611

> <Gold.Chemscore.Rot.Weighted>
4.1658

> <Gold.Chemscore.Internal.Correction.Weighted>
   9.000000E+99

> <Gold.Protein.RotatedTorsions>
[ 6907 6896 6895 6894 ] final   25.41 input  -60.11 | X-H torsion
[ 7974 7965 7964 7962 ] final -174.57 input  175.53 | X-H torsion
[ 8008 7997 7996 7995 ] final  171.10 input   59.86 | X-H torsion
[ 10167 10162 10161 10158 ] final -129.47 input  -65.29 | X-H torsion
[ 10718 10713 10712 10709 ] final  -51.33 input   66.30 | X-H torsion
[ 10763 10752 10751 10750 ] final    9.50 input  -60.55 | X-H torsion
[ 11005 11000 10999 10996 ] final   93.10 input  -57.11 | X-H torsion

> <Gold.Protein.ActiveResidues>
 VAL166  LYS551  ARG553  GLY616  TRP617  ASP618  TYR619  PRO620  LYS621  CYS622 
 ASP623  PHE694  ASN695  SER759  ASP760  ASP761  ALA762  ILE779  LEU786  VAL792 
 PHE793  MET794  SER795  GLU796  ALA797  LYS798  CYS799  TRP800  GLU811  SER814 

> <Gold.Protein.RotatedAtoms>
  151.9722  135.0071  160.0553 H   0  0  0  0  0  0  0  0  0  0  0  0  # atno 6907 bound_to 6896
  152.1773  133.4679  159.4948 H   0  0  0  0  0  0  0  0  0  0  0  0  # atno 6908 bound_to 6896
  150.6911  134.1795  159.4286 H   0  0  0  0  0  0  0  0  0  0  0  0  # atno 6909 bound_to 6896
  144.7131  140.1451  143.6388 H   0  0  0  0  0  0  0  0  0  0  0  0  # atno 7974 bound_to 7965
  156.1303  140.1521  156.9075 H   0  0  0  0  0  0  0  0  0  0  0  0  # atno 8008 bound_to 7997
  154.4904  140.0853  156.7621 H   0  0  0  0  0  0  0  0  0  0  0  0  # atno 8009 bound_to 7997
  155.4267  140.3425  155.4278 H   0  0  0  0  0  0  0  0  0  0  0  0  # atno 8010 bound_to 7997
  139.9394  143.6180  152.2508 H   0  0  0  0  0  0  0  0  0  0  0  0  # atno 10167 bound_to 10162
  156.1719  130.4149  149.9634 H   0  0  0  0  0  0  0  0  0  0  0  0  # atno 10718 bound_to 10713
  153.2134  135.6872  153.8087 H   0  0  0  0  0  0  0  0  0  0  0  0  # atno 10763 bound_to 10752
  153.7311  135.3252  155.3287 H   0  0  0  0  0  0  0  0  0  0  0  0  # atno 10764 bound_to 10752
  154.8233  135.4636  154.0951 H   0  0  0  0  0  0  0  0  0  0  0  0  # atno 10765 bound_to 10752
  139.8814  134.8771  156.3669 H   0  0  0  0  0  0  0  0  0  0  0  0  # atno 11005 bound_to 11000
  145.9166  139.2520  143.1406 LP  0  0  0  0  0  0  0  0  0  0  0  0  # atno 17320 bound_to 7965
  145.9662  140.8796  143.0185 LP  0  0  0  0  0  0  0  0  0  0  0  0  # atno 17321 bound_to 7965
  139.6717  144.7660  151.1771 LP  0  0  0  0  0  0  0  0  0  0  0  0  # atno 17342 bound_to 10162
  140.7615  143.5856  150.8850 LP  0  0  0  0  0  0  0  0  0  0  0  0  # atno 17343 bound_to 10162
  156.7431  130.9087  151.3633 LP  0  0  0  0  0  0  0  0  0  0  0  0  # atno 17370 bound_to 10713
  157.6809  130.9139  150.0265 LP  0  0  0  0  0  0  0  0  0  0  0  0  # atno 17371 bound_to 10713
  140.9491  133.7463  156.0247 LP  0  0  0  0  0  0  0  0  0  0  0  0  # atno 17394 bound_to 11000
  140.8128  134.3380  157.5406 LP  0  0  0  0  0  0  0  0  0  0  0  0  # atno 17395 bound_to 11000

$$$$
