AV-unprocessed.smi:190|AV-procd|sdf|1491|dock2
  -GOLD-   2262019313D 1   1.00000     0.00000
 Structure written by MMmdl.
 54 58  0  0  0  0  0  0  0  0  1 V2000
  148.5651  135.7021  154.7093 O   0  0  0  0  0  0  0  0  0  0  0  0
  148.5541  136.8727  155.5024 C   0  0  0  0  0  0  0  0  0  0  0  0
  149.9638  137.2285  156.0551 C   0  0  0  0  0  0  0  0  0  0  0  0
  150.3396  136.1447  157.1126 C   0  0  0  0  0  0  0  0  0  0  0  0
  149.3597  135.9232  158.1669 N   0  0  0  0  0  0  0  0  0  0  0  0
  149.3334  136.5149  159.4081 C   0  0  0  0  0  0  0  0  0  0  0  0
  148.3529  136.1380  160.1810 N   0  0  0  0  0  0  0  0  0  0  0  0
  147.6506  135.2025  159.4269 C   0  0  0  0  0  0  0  0  0  0  0  0
  146.4906  134.3976  159.6516 C   0  0  0  0  0  0  0  0  0  0  0  0
  145.7568  134.4159  160.8040 N   0  0  0  0  0  0  0  0  0  0  0  0
  145.2052  133.1711  161.3298 C   0  0  0  0  0  0  0  0  0  0  0  0
  144.7701  133.4609  162.7694 C   0  0  0  0  0  0  0  0  0  0  0  0
  144.7702  134.9862  162.8536 C   0  0  0  0  0  0  0  0  0  0  0  0
  145.8934  135.3997  161.8884 C   0  0  1  0  0  0  0  0  0  0  0  0
  147.2586  135.3508  162.5925 C   0  0  0  0  0  0  0  0  0  0  0  0
  147.5280  136.8150  162.9168 C   0  0  0  0  0  0  0  0  0  0  0  0
  146.9981  137.4903  161.7893 O   0  0  0  0  0  0  0  0  0  0  0  0
  145.7553  136.8804  161.4643 C   0  0  0  0  0  0  0  0  0  0  0  0
  146.1268  133.5630  158.6418 N   0  0  0  0  0  0  0  0  0  0  0  0
  146.8186  133.5154  157.5014 C   0  0  0  0  0  0  0  0  0  0  0  0
  147.9029  134.2085  157.1575 N   0  0  0  0  0  0  0  0  0  0  0  0
  148.2871  135.0478  158.1603 C   0  0  0  0  0  0  0  0  0  0  0  0
  151.0159  137.2924  154.9172 C   0  0  0  0  0  0  0  0  0  0  0  0
  150.7814  138.4749  153.9593 C   0  0  0  0  0  0  0  0  0  0  0  0
  150.7857  139.6963  154.6881 O   0  0  0  0  0  0  0  0  0  0  0  0
  149.7523  139.7677  155.6627 C   0  0  0  0  0  0  0  0  0  0  0  0
  149.9260  138.6403  156.6979 C   0  0  0  0  0  0  0  0  0  0  0  0
  148.7381  135.9476  153.8131 H   0  0  0  0  0  0  0  0  0  0  0  0
  148.1351  137.6727  154.8948 H   0  0  0  0  0  0  0  0  0  0  0  0
  147.8540  136.7193  156.3244 H   0  0  0  0  0  0  0  0  0  0  0  0
  150.5108  135.1885  156.6165 H   0  0  0  0  0  0  0  0  0  0  0  0
  151.2838  136.3995  157.5954 H   0  0  0  0  0  0  0  0  0  0  0  0
  150.0669  137.2430  159.7230 H   0  0  0  0  0  0  0  0  0  0  0  0
  144.3371  132.8867  160.7345 H   0  0  0  0  0  0  0  0  0  0  0  0
  145.9316  132.3584  161.2915 H   0  0  0  0  0  0  0  0  0  0  0  0
  143.8001  133.0264  163.0117 H   0  0  0  0  0  0  0  0  0  0  0  0
  145.5022  133.0494  163.4652 H   0  0  0  0  0  0  0  0  0  0  0  0
  143.8094  135.3603  162.4952 H   0  0  0  0  0  0  0  0  0  0  0  0
  144.9096  135.3568  163.8699 H   0  0  0  0  0  0  0  0  0  0  0  0
  147.2760  134.7218  163.4829 H   0  0  0  0  0  0  0  0  0  0  0  0
  148.0428  134.9829  161.9317 H   0  0  0  0  0  0  0  0  0  0  0  0
  146.9930  137.1233  163.8164 H   0  0  0  0  0  0  0  0  0  0  0  0
  148.5882  137.0283  163.0532 H   0  0  0  0  0  0  0  0  0  0  0  0
  145.5137  137.0178  160.4103 H   0  0  0  0  0  0  0  0  0  0  0  0
  144.9746  137.3826  162.0374 H   0  0  0  0  0  0  0  0  0  0  0  0
  146.4492  132.8225  156.7598 H   0  0  0  0  0  0  0  0  0  0  0  0
  152.0131  137.4130  155.3383 H   0  0  0  0  0  0  0  0  0  0  0  0
  151.0395  136.3573  154.3572 H   0  0  0  0  0  0  0  0  0  0  0  0
  151.5796  138.5124  153.2179 H   0  0  0  0  0  0  0  0  0  0  0  0
  149.8489  138.3673  153.4047 H   0  0  0  0  0  0  0  0  0  0  0  0
  149.8148  140.7362  156.1596 H   0  0  0  0  0  0  0  0  0  0  0  0
  148.7746  139.7331  155.1820 H   0  0  0  0  0  0  0  0  0  0  0  0
  149.1370  138.6961  157.4487 H   0  0  0  0  0  0  0  0  0  0  0  0
  150.8591  138.8407  157.2232 H   0  0  0  0  0  0  0  0  0  0  0  0
  1  2  1  0  0  0  0
  1 28  1  0  0  0  0
  2  3  1  0  0  0  0
  2 29  1  0  0  0  0
  2 30  1  0  0  0  0
  3 27  1  0  0  0  0
  3  4  1  0  0  0  0
  3 23  1  0  0  0  0
  4  5  1  0  0  0  0
  4 31  1  0  0  0  0
  4 32  1  0  0  0  0
  5 22  1  0  0  0  0
  5  6  1  0  0  0  0
  6  7  2  0  0  0  0
  6 33  1  0  0  0  0
  7  8  1  0  0  0  0
  8 22  2  0  0  0  0
  8  9  1  0  0  0  0
  9 10  1  0  0  0  0
  9 19  2  0  0  0  0
 10 14  1  0  0  0  0
 10 11  1  0  0  0  0
 11 12  1  0  0  0  0
 11 34  1  0  0  0  0
 11 35  1  0  0  0  0
 12 13  1  0  0  0  0
 12 36  1  0  0  0  0
 12 37  1  0  0  0  0
 13 14  1  0  0  0  0
 13 38  1  0  0  0  0
 13 39  1  0  0  0  0
 14 18  1  0  0  0  0
 14 15  1  0  0  0  0
 15 16  1  0  0  0  0
 15 40  1  0  0  0  0
 15 41  1  0  0  0  0
 16 17  1  0  0  0  0
 16 42  1  0  0  0  0
 16 43  1  0  0  0  0
 17 18  1  0  0  0  0
 18 44  1  0  0  0  0
 18 45  1  0  0  0  0
 19 20  1  0  0  0  0
 20 21  2  0  0  0  0
 20 46  1  0  0  0  0
 21 22  1  0  0  0  0
 23 24  1  0  0  0  0
 23 47  1  0  0  0  0
 23 48  1  0  0  0  0
 24 25  1  0  0  0  0
 24 49  1  0  0  0  0
 24 50  1  0  0  0  0
 25 26  1  0  0  0  0
 26 27  1  0  0  0  0
 26 51  1  0  0  0  0
 26 52  1  0  0  0  0
 27 53  1  0  0  0  0
 27 54  1  0  0  0  0
M  END
> <s_m_source_file>
AV-unprocessed.smi

> <i_m_source_file_index>
190

> <i_lp_mmshare_version>
43012

> <i_f3d_flags>
0

> <s_epik_input>
W0NIMl0xW0NIMl1PW0NIMl1bQ0gyXUMxKFtDSDJdW09IXSlbQ0gyXW4oW2NIXW4yKWMoYzIzKW5bY0hdbmMzTihbQ0gyXVtDSDJdW0NIMl00KVtDQF00NVtDSDJdW0NIMl1PW0NIMl01

> <s_epik_cmdline>
J2VwaWtfcHl0aG9uJywgJy1waCcsICc3LjAnLCAnLXRuJywgJzgnLCAnLW1hJywgJzIwMCcsICctbWV0YWxfYmluZGluZycsICctaW1hZScsICc8aW5maWxlLm1hZT4nLCAnLW9tYWUnLCAnPG91dGZpbGUubWFlPic=

> <r_lp_tautomer_probability>
1

> <r_epik_Ionization_Penalty>
0.00423054

> <r_epik_Ionization_Penalty_Charging>
0

> <r_epik_Ionization_Penalty_Neutral>
0.00423054

> <r_epik_State_Penalty>
0.00298851

> <r_epik_Charging_Adjusted_Penalty>
0.00298851

> <i_epik_Tot_Q>
0

> <i_epik_Tot_abs_Q>
0

> <r_epik_Metal_State_Penalty>
-0

> <b_epik_Metal_Only>
0

> <s_lp_Force_Field>
OPLS_2005

> <r_lp_Energy>
66.7697

> <b_lp_Chiralities_Consistent>
1

> <s_lp_Variant>
AV-unprocessed.smi:190-1

> <Gold.Version>
5.8.1

> <Gold.Id.Protein>
6NUR|6NUR_protein|mol2

> <Gold.PLP.Fitness>
40.6639

> <Gold.PLP.PLP>
-33.3380

> <Gold.PLP.part.hbond>
-4.0000

> <Gold.PLP.part.metal>
0.0000

> <Gold.PLP.part.buried>
-4.9755

> <Gold.PLP.part.nonpolar>
-25.1763

> <Gold.PLP.part.repulsive>
0.0756

> <Gold.PLP.ligand.clash>
0.0000

> <Gold.PLP.ligand.torsion>
0.7618

> <Gold.PLP.Chemscore.Hbond>
2.8800

> <Gold.PLP.Chemscore.CHOScore>
0.0000

> <Gold.PLP.Chemscore.Metal>
0.0000

> <Gold.Chemscore.Hbonds>
donor molecule, donor type, donor heavy atom, donor atom, acceptor molecule, acceptor atom, score
      L1  H     1    28       P1  7948  1.00
      P1  H  6934  6947       L1    17  0.85
      P1  H  7989  7998       L1    25  1.00

> <Gold.PLP.Chemscore.Internal.Correction>
0.2095

> <Gold.Rescore>
     Score         DG    S(hbond)    S(metal)    S(lipo)     H(rot)  DE(clash)    DE(int)     intcor
     13.23     -19.33       2.84        0.00      83.28       2.10       0.07       6.04       ----

> <Gold.Chemscore.Fitness>
13.2257

> <Gold.Chemscore.DG>
-19.3316

> <Gold.Chemscore.ZeroCoef>
-5.4800

> <Gold.Chemscore.Hbond>
2.8379

> <Gold.Chemscore.Metal>
0.0000

> <Gold.Chemscore.Lipo>
83.2753

> <Gold.Chemscore.Internal_Hbond>
0.0000

> <Gold.Chemscore.DEClash>
0.0677

> <Gold.Chemscore.DEInternal>
6.0382

> <Gold.Chemscore.Rot>
2.0978

> <Gold.Chemscore.Internal.Correction>
   9.000000E+99

> <Gold.Chemscore.Hbonds>
donor molecule, donor type, donor heavy atom, donor atom, acceptor molecule, acceptor atom, score
      L1  H     1    28       P1  7948  0.98
      P1  H  6934  6947       L1    17  0.65
      P1  H  7989  7998       L1    25  0.35

> <Gold.Chemscore.Hbond.Weighted>
-9.4787

> <Gold.Chemscore.Metal.Weighted>
-0.0000

> <Gold.Chemscore.Lipo.Weighted>
-9.7432

> <Gold.Chemscore.Internal_Hbond.Weighted>
0.0000

> <Gold.Chemscore.DEClash.Weighted>
0.0677

> <Gold.Chemscore.DEInternal.Weighted>
6.0382

> <Gold.Chemscore.Rot.Weighted>
5.3703

> <Gold.Chemscore.Internal.Correction.Weighted>
   9.000000E+99

> <Gold.Protein.RotatedTorsions>
[ 6907 6896 6895 6894 ] final    1.88 input  -60.11 | X-H torsion
[ 7974 7965 7964 7962 ] final    5.29 input  175.53 | X-H torsion
[ 8008 7997 7996 7995 ] final  -92.38 input   59.86 | X-H torsion
[ 10167 10162 10161 10158 ] final  -50.00 input  -65.29 | X-H torsion
[ 10718 10713 10712 10709 ] final -103.40 input   66.30 | X-H torsion
[ 10763 10752 10751 10750 ] final  117.35 input  -60.55 | X-H torsion
[ 11005 11000 10999 10996 ] final   97.46 input  -57.11 | X-H torsion

> <Gold.Protein.ActiveResidues>
 VAL166  LYS551  ARG553  GLY616  TRP617  ASP618  TYR619  PRO620  LYS621  CYS622 
 ASP623  PHE694  ASN695  SER759  ASP760  ASP761  ALA762  ILE779  LEU786  VAL792 
 PHE793  MET794  SER795  GLU796  ALA797  LYS798  CYS799  TRP800  GLU811  SER814 

> <Gold.Protein.RotatedAtoms>
  151.5998  135.1048  160.0057 H   0  0  0  0  0  0  0  0  0  0  0  0  # atno 6907 bound_to 6896
  152.4263  133.7197  159.6537 H   0  0  0  0  0  0  0  0  0  0  0  0  # atno 6908 bound_to 6896
  150.8153  133.8277  159.3186 H   0  0  0  0  0  0  0  0  0  0  0  0  # atno 6909 bound_to 6896
  146.2441  140.0406  142.8382 H   0  0  0  0  0  0  0  0  0  0  0  0  # atno 7974 bound_to 7965
  154.7224  140.0509  157.0651 H   0  0  0  0  0  0  0  0  0  0  0  0  # atno 8008 bound_to 7997
  155.0410  140.3168  155.4705 H   0  0  0  0  0  0  0  0  0  0  0  0  # atno 8009 bound_to 7997
  156.2820  140.2133  156.5534 H   0  0  0  0  0  0  0  0  0  0  0  0  # atno 8010 bound_to 7997
  140.6658  143.2675  151.4297 H   0  0  0  0  0  0  0  0  0  0  0  0  # atno 10167 bound_to 10162
  156.0264  130.5465  150.7247 H   0  0  0  0  0  0  0  0  0  0  0  0  # atno 10718 bound_to 10713
  153.5510  135.3539  155.2759 H   0  0  0  0  0  0  0  0  0  0  0  0  # atno 10763 bound_to 10752
  154.8707  135.4114  154.2937 H   0  0  0  0  0  0  0  0  0  0  0  0  # atno 10764 bound_to 10752
  153.3663  135.7062  153.6741 H   0  0  0  0  0  0  0  0  0  0  0  0  # atno 10765 bound_to 10752
  139.8776  134.9002  156.4310 H   0  0  0  0  0  0  0  0  0  0  0  0  # atno 11005 bound_to 11000
  145.1073  140.9383  143.4677 LP  0  0  0  0  0  0  0  0  0  0  0  0  # atno 17320 bound_to 7965
  145.0612  139.3104  143.5879 LP  0  0  0  0  0  0  0  0  0  0  0  0  # atno 17321 bound_to 7965
  139.5907  144.1506  152.2084 LP  0  0  0  0  0  0  0  0  0  0  0  0  # atno 17342 bound_to 10162
  140.0859  144.5661  150.7089 LP  0  0  0  0  0  0  0  0  0  0  0  0  # atno 17343 bound_to 10162
  157.4854  131.0906  151.0488 LP  0  0  0  0  0  0  0  0  0  0  0  0  # atno 17370 bound_to 10713
  157.0909  130.5942  149.5439 LP  0  0  0  0  0  0  0  0  0  0  0  0  # atno 17371 bound_to 10713
  140.9067  133.7741  155.9743 LP  0  0  0  0  0  0  0  0  0  0  0  0  # atno 17394 bound_to 11000
  140.8592  134.2861  157.5242 LP  0  0  0  0  0  0  0  0  0  0  0  0  # atno 17395 bound_to 11000

$$$$
