AV-unprocessed.smi:37|AV-procd|sdf|323|dock3
  -GOLD-   2262016143D 1   1.00000     0.00000
 Structure written by MMmdl.
 43 44  0  0  0  0  0  0  0  0  2 V2000
  144.3435  144.0881  161.1681 C   0  0  0  0  0  0  0  0  0  0  0  0
  145.7301  143.4276  161.1722 C   0  0  0  0  0  0  0  0  0  0  0  0
  145.9409  142.4376  160.0246 C   0  0  0  0  0  0  0  0  0  0  0  0
  145.7896  141.2224  160.1622 O   0  0  0  0  0  0  0  0  0  0  0  0
  146.3000  143.0563  158.8915 O   0  0  0  0  0  0  0  0  0  0  0  0
  146.5412  142.2956  157.7193 C   0  0  0  0  0  0  0  0  0  0  0  0
  147.8978  141.5928  157.8453 C   0  0  2  0  0  0  0  0  0  0  0  0
  148.8325  142.2455  156.9809 O   0  0  0  0  0  0  0  0  0  0  0  0
  149.5390  141.3103  156.2199 C   0  0  1  0  0  0  0  0  0  0  0  0
  150.8277  140.9141  156.9266 N   0  0  0  0  0  0  0  0  0  0  0  0
  151.1287  141.3576  158.2058 C   0  0  0  0  0  0  0  0  0  0  0  0
  152.2643  140.9846  158.8297 C   0  0  0  0  0  0  0  0  0  0  0  0
  152.5211  141.4277  160.0726 F   0  0  0  0  0  0  0  0  0  0  0  0
  153.2103  140.1064  158.1459 C   0  0  0  0  0  0  0  0  0  0  0  0
  154.2327  139.7495  158.7289 O   0  0  0  0  0  0  0  0  0  0  0  0
  152.9137  139.7212  156.8715 N   0  5  0  0  0  0  0  0  0  0  0  0
  151.7689  140.1026  156.2333 C   0  0  0  0  0  0  0  0  0  0  0  0
  151.5074  139.7774  155.0750 O   0  0  0  0  0  0  0  0  0  0  0  0
  148.5928  140.1120  156.0806 C   0  0  2  0  0  0  0  0  0  0  0  0
  147.2991  140.4681  154.6085 Br  0  0  0  0  0  0  0  0  0  0  0  0
  147.8573  140.1165  157.4087 C   0  0  1  0  0  0  0  0  0  0  0  0
  148.5847  139.3155  158.3321 O   0  0  0  0  0  0  0  0  0  0  0  0
  148.7581  138.0004  158.1175 C   0  0  0  0  0  0  0  0  0  0  0  0
  148.2862  137.3516  157.1835 O   0  0  0  0  0  0  0  0  0  0  0  0
  149.6029  137.3361  159.2034 C   0  0  0  0  0  0  0  0  0  0  0  0
  148.8166  136.2900  160.0068 C   0  0  0  0  0  0  0  0  0  0  0  0
  144.2480  144.7836  162.0018 H   0  0  0  0  0  0  0  0  0  0  0  0
  143.5492  143.3471  161.2646 H   0  0  0  0  0  0  0  0  0  0  0  0
  144.1730  144.6506  160.2495 H   0  0  0  0  0  0  0  0  0  0  0  0
  146.5024  144.1949  161.1125 H   0  0  0  0  0  0  0  0  0  0  0  0
  145.8826  142.9007  162.1144 H   0  0  0  0  0  0  0  0  0  0  0  0
  145.7439  141.5676  157.5661 H   0  0  0  0  0  0  0  0  0  0  0  0
  146.5476  142.9619  156.8557 H   0  0  0  0  0  0  0  0  0  0  0  0
  148.2442  141.6866  158.8753 H   0  0  0  0  0  0  0  0  0  0  0  0
  149.8637  141.7418  155.2717 H   0  0  0  0  0  0  0  0  0  0  0  0
  150.4581  142.0174  158.7324 H   0  0  0  0  0  0  0  0  0  0  0  0
  149.1037  139.1752  155.8577 H   0  0  0  0  0  0  0  0  0  0  0  0
  146.8429  139.7315  157.2916 H   0  0  0  0  0  0  0  0  0  0  0  0
  150.4727  136.8722  158.7378 H   0  0  0  0  0  0  0  0  0  0  0  0
  149.9782  138.1088  159.8749 H   0  0  0  0  0  0  0  0  0  0  0  0
  149.4230  135.8983  160.8234 H   0  0  0  0  0  0  0  0  0  0  0  0
  148.5231  135.4443  159.3832 H   0  0  0  0  0  0  0  0  0  0  0  0
  147.9132  136.7186  160.4422 H   0  0  0  0  0  0  0  0  0  0  0  0
  1  2  1  0  0  0  0
  1 27  1  0  0  0  0
  1 28  1  0  0  0  0
  1 29  1  0  0  0  0
  2  3  1  0  0  0  0
  2 30  1  0  0  0  0
  2 31  1  0  0  0  0
  3  4  2  0  0  0  0
  3  5  1  0  0  0  0
  5  6  1  0  0  0  0
  6  7  1  0  0  0  0
  6 32  1  0  0  0  0
  6 33  1  0  0  0  0
  7 21  1  0  0  0  0
  7  8  1  0  0  0  0
  7 34  1  0  0  0  0
  8  9  1  0  0  0  0
  9 10  1  0  0  0  0
  9 19  1  0  0  0  0
  9 35  1  0  0  0  0
 10 17  1  0  0  0  0
 10 11  1  0  0  0  0
 11 12  2  0  0  0  0
 11 36  1  0  0  0  0
 12 13  1  0  0  0  0
 12 14  1  0  0  0  0
 14 15  2  0  0  0  0
 14 16  1  0  0  0  0
 16 17  1  0  0  0  0
 17 18  2  0  0  0  0
 19 20  1  0  0  0  0
 19 21  1  0  0  0  0
 19 37  1  0  0  0  0
 21 22  1  0  0  0  0
 21 38  1  0  0  0  0
 22 23  1  0  0  0  0
 23 24  2  0  0  0  0
 23 25  1  0  0  0  0
 25 26  1  0  0  0  0
 25 39  1  0  0  0  0
 25 40  1  0  0  0  0
 26 41  1  0  0  0  0
 26 42  1  0  0  0  0
 26 43  1  0  0  0  0
M  CHG  1  16  -1
M  END
> <s_m_source_file>
AV-unprocessed.smi

> <i_m_source_file_index>
37

> <i_lp_mmshare_version>
43012

> <i_f3d_flags>
0

> <s_epik_input>
W0NIM11bQ0gyXUMoPU8pT1tDSDJdW0NAQEhdMU9bQ0BASF0objJbY0hdYyhGKWMoPU8pW25IXWMyPU8pW0NAQEhdKEJyKVtDQEhdMU9DKD1PKVtDSDJdW0NIM10=

> <s_epik_cmdline>
J2VwaWtfcHl0aG9uJywgJy1waCcsICc3LjAnLCAnLXRuJywgJzgnLCAnLW1hJywgJzIwMCcsICctbWV0YWxfYmluZGluZycsICctaW1hZScsICc8aW5maWxlLm1hZT4nLCAnLW9tYWUnLCAnPG91dGZpbGUubWFlPic=

> <r_epik_Ionization_Penalty>
1.08158

> <r_epik_Ionization_Penalty_Charging>
9.05154e-09

> <r_epik_Ionization_Penalty_Neutral>
1.08158

> <r_epik_State_Penalty>
1.13706

> <r_epik_Charging_Adjusted_Penalty>
1.13706

> <i_epik_Tot_Q>
-1

> <i_epik_Tot_abs_Q>
1

> <r_epik_Metal_State_Penalty>
0.00343535

> <b_epik_Metal_Only>
0

> <s_epik_Chemistry_Notes>
This compound has an ester and may undergo hydrolysis at high or low pH. This compound contains an acetal/aminal-like group ( X-CH(R)-Y where X, Y are N, S, or O) that may be acid/base labile, releasing an aldehyde.

> <s_lp_Force_Field>
OPLS_2005

> <r_lp_Energy>
30.4092

> <b_lp_Chiralities_Consistent>
1

> <s_lp_Variant>
AV-unprocessed.smi:37-21

> <Gold.Version>
5.8.1

> <Gold.Id.Protein>
6NUR|6NUR_protein|mol2

> <Gold.PLP.Fitness>
36.6388

> <Gold.PLP.PLP>
-27.8655

> <Gold.PLP.part.hbond>
-4.8670

> <Gold.PLP.part.metal>
0.0000

> <Gold.PLP.part.buried>
-4.2526

> <Gold.PLP.part.nonpolar>
-21.8346

> <Gold.PLP.part.repulsive>
3.0086

> <Gold.PLP.ligand.clash>
0.0000

> <Gold.PLP.ligand.torsion>
1.2114

> <Gold.PLP.Chemscore.Hbond>
3.6480

> <Gold.PLP.Chemscore.CHOScore>
0.0000

> <Gold.PLP.Chemscore.Metal>
0.0000

> <Gold.Chemscore.Hbonds>
donor molecule, donor type, donor heavy atom, donor atom, acceptor molecule, acceptor atom, score
      P1  H  6934  6946       L1     4  0.36
      P1  H  7989  7998       L1    18  1.00
      P1  H  7997  8009       L1    15  0.57
      P1  H  7997  8010       L1    16  0.93

> <Gold.PLP.Chemscore.Internal.Correction>
0.2520

> <Gold.Rescore>
     Score         DG    S(hbond)    S(metal)    S(lipo)     H(rot)  DE(clash)    DE(int)     intcor
      3.79      -8.02       1.81        0.00      41.62       3.27       1.89       2.34       ----

> <Gold.Chemscore.Fitness>
3.7878

> <Gold.Chemscore.DG>
-8.0161

> <Gold.Chemscore.ZeroCoef>
-5.4800

> <Gold.Chemscore.Hbond>
1.8053

> <Gold.Chemscore.Metal>
0.0000

> <Gold.Chemscore.Lipo>
41.6220

> <Gold.Chemscore.Internal_Hbond>
0.0000

> <Gold.Chemscore.DEClash>
1.8881

> <Gold.Chemscore.DEInternal>
2.3403

> <Gold.Chemscore.Rot>
3.2669

> <Gold.Chemscore.Internal.Correction>
   9.000000E+99

> <Gold.Chemscore.Hbonds>
donor molecule, donor type, donor heavy atom, donor atom, acceptor molecule, acceptor atom, score
      P1  H  6934  6946       L1     4  0.16
      P1  H  7989  7998       L1    18  0.99
      P1  H  7997  8009       L1    15  0.10
      P1  H  7997  8010       L1    16  0.14

> <Gold.Chemscore.Hbond.Weighted>
-6.0297

> <Gold.Chemscore.Metal.Weighted>
-0.0000

> <Gold.Chemscore.Lipo.Weighted>
-4.8698

> <Gold.Chemscore.Internal_Hbond.Weighted>
0.0000

> <Gold.Chemscore.DEClash.Weighted>
1.8881

> <Gold.Chemscore.DEInternal.Weighted>
2.3403

> <Gold.Chemscore.Rot.Weighted>
8.3634

> <Gold.Chemscore.Internal.Correction.Weighted>
   9.000000E+99

> <Gold.Protein.RotatedTorsions>
[ 6907 6896 6895 6894 ] final  -69.69 input  -60.11 | X-H torsion
[ 7974 7965 7964 7962 ] final -179.81 input  175.53 | X-H torsion
[ 8008 7997 7996 7995 ] final  102.24 input   59.86 | X-H torsion
[ 10167 10162 10161 10158 ] final  149.31 input  -65.29 | X-H torsion
[ 10718 10713 10712 10709 ] final  -20.57 input   66.30 | X-H torsion
[ 10763 10752 10751 10750 ] final  107.66 input  -60.55 | X-H torsion
[ 11005 11000 10999 10996 ] final  -20.35 input  -57.11 | X-H torsion

> <Gold.Protein.ActiveResidues>
 VAL166  LYS551  ARG553  GLY616  TRP617  ASP618  TYR619  PRO620  LYS621  CYS622 
 ASP623  PHE694  ASN695  SER759  ASP760  ASP761  ALA762  ILE779  LEU786  VAL792 
 PHE793  MET794  SER795  GLU796  ALA797  LYS798  CYS799  TRP800  GLU811  SER814 

> <Gold.Protein.RotatedAtoms>
  150.7293  134.5560  159.5817 H   0  0  0  0  0  0  0  0  0  0  0  0  # atno 6907 bound_to 6896
  152.3035  134.7580  160.0361 H   0  0  0  0  0  0  0  0  0  0  0  0  # atno 6908 bound_to 6896
  151.8152  133.3351  159.3604 H   0  0  0  0  0  0  0  0  0  0  0  0  # atno 6909 bound_to 6896
  144.7139  140.0661  143.6431 H   0  0  0  0  0  0  0  0  0  0  0  0  # atno 7974 bound_to 7965
  156.1375  140.3184  155.8443 H   0  0  0  0  0  0  0  0  0  0  0  0  # atno 8008 bound_to 7997
  155.4217  140.0513  157.3042 H   0  0  0  0  0  0  0  0  0  0  0  0  # atno 8009 bound_to 7997
  154.4948  140.2106  155.9482 H   0  0  0  0  0  0  0  0  0  0  0  0  # atno 8010 bound_to 7997
  139.4863  144.5612  151.7228 H   0  0  0  0  0  0  0  0  0  0  0  0  # atno 10167 bound_to 10162
  156.5300  130.4653  149.6552 H   0  0  0  0  0  0  0  0  0  0  0  0  # atno 10718 bound_to 10713
  153.4098  135.3837  155.2043 H   0  0  0  0  0  0  0  0  0  0  0  0  # atno 10763 bound_to 10752
  154.8737  135.3791  154.4514 H   0  0  0  0  0  0  0  0  0  0  0  0  # atno 10764 bound_to 10752
  153.5022  135.7088  153.5888 H   0  0  0  0  0  0  0  0  0  0  0  0  # atno 10765 bound_to 10752
  140.8456  133.7894  155.9908 H   0  0  0  0  0  0  0  0  0  0  0  0  # atno 11005 bound_to 11000
  145.9823  139.2951  143.1034 LP  0  0  0  0  0  0  0  0  0  0  0  0  # atno 17320 bound_to 7965
  145.8997  140.9251  143.0509 LP  0  0  0  0  0  0  0  0  0  0  0  0  # atno 17321 bound_to 7965
  140.5182  144.0920  150.6014 LP  0  0  0  0  0  0  0  0  0  0  0  0  # atno 17342 bound_to 10162
  140.3869  143.2773  152.0105 LP  0  0  0  0  0  0  0  0  0  0  0  0  # atno 17343 bound_to 10162
  156.3068  130.7207  151.2091 LP  0  0  0  0  0  0  0  0  0  0  0  0  # atno 17370 bound_to 10713
  157.7423  131.0491  150.5033 LP  0  0  0  0  0  0  0  0  0  0  0  0  # atno 17371 bound_to 10713
  140.8847  134.2568  157.5126 LP  0  0  0  0  0  0  0  0  0  0  0  0  # atno 17394 bound_to 11000
  139.8703  134.9632  156.4455 LP  0  0  0  0  0  0  0  0  0  0  0  0  # atno 17395 bound_to 11000

$$$$
