AV-unprocessed.smi:3049|AV-procd|sdf|11630|dock7
  -GOLD-   2272017 23D 1   1.00000     0.00000
 Structure written by MMmdl.
 52 53  0  0  0  0  0  0  0  0  2 V2000
  153.7686  140.8572  160.2398 C   0  0  0  0  0  0  0  0  0  0  0  0
  152.5648  140.9455  159.2873 C   0  0  0  0  0  0  0  0  0  0  0  0
  152.3919  142.3294  158.6114 C   0  0  0  0  0  0  0  0  0  0  0  0
  152.4122  143.4802  159.6432 C   0  0  0  0  0  0  0  0  0  0  0  0
  152.2954  144.8775  159.0183 C   0  0  0  0  0  0  0  0  0  0  0  0
  151.0918  142.4110  157.7766 C   0  0  0  0  0  0  0  0  0  0  0  0
  150.2383  143.2344  158.1113 O   0  0  0  0  0  0  0  0  0  0  0  0
  150.8997  141.5694  156.7296 N   0  0  0  0  0  0  0  0  0  0  0  0
  151.8730  140.6117  156.1920 C   0  0  0  0  0  0  0  0  0  0  0  0
  151.4354  139.1951  156.6022 C   0  0  0  0  0  0  0  0  0  0  0  0
  150.0058  138.8932  156.0992 C   0  0  0  0  0  0  0  0  0  0  0  0
  149.5414  137.6319  156.6682 N   0  0  0  0  0  0  0  0  0  0  0  0
  149.2022  137.4390  157.9508 C   0  0  0  0  0  0  0  0  0  0  0  0
  149.2357  138.3307  158.7984 O   0  0  0  0  0  0  0  0  0  0  0  0
  148.8514  136.1581  158.1652 N   0  0  0  0  0  0  0  0  0  0  0  0
  148.3992  135.5580  159.3484 C   0  0  0  0  0  0  0  0  0  0  0  0
  148.0241  134.2342  159.5329 C   0  0  0  0  0  0  0  0  0  0  0  0
  147.6067  133.6323  160.6689 N   0  5  0  0  0  0  0  0  0  0  0  0
  147.5309  134.3784  161.8081 C   0  0  0  0  0  0  0  0  0  0  0  0
  147.1588  133.8942  162.8763 O   0  0  0  0  0  0  0  0  0  0  0  0
  147.9075  135.8046  161.7501 C   0  0  0  0  0  0  0  0  0  0  0  0
  147.8221  136.6361  163.0186 C   0  0  0  0  0  0  0  0  0  0  0  0
  148.3163  136.3392  160.5732 C   0  0  0  0  0  0  0  0  0  0  0  0
  149.0226  140.0373  156.4465 C   0  0  0  0  0  0  0  0  0  0  0  0
  149.5978  141.4153  156.0699 C   0  0  0  0  0  0  0  0  0  0  0  0
  153.8038  139.8824  160.7262 H   0  0  0  0  0  0  0  0  0  0  0  0
  153.7069  141.6149  161.0215 H   0  0  0  0  0  0  0  0  0  0  0  0
  154.7142  140.9940  159.7147 H   0  0  0  0  0  0  0  0  0  0  0  0
  152.6384  140.1601  158.5339 H   0  0  0  0  0  0  0  0  0  0  0  0
  151.6714  140.7106  159.8650 H   0  0  0  0  0  0  0  0  0  0  0  0
  153.2508  142.4335  157.9508 H   0  0  0  0  0  0  0  0  0  0  0  0
  151.5860  143.3632  160.3466 H   0  0  0  0  0  0  0  0  0  0  0  0
  153.3223  143.4254  160.2421 H   0  0  0  0  0  0  0  0  0  0  0  0
  152.2546  145.6426  159.7938 H   0  0  0  0  0  0  0  0  0  0  0  0
  151.3889  144.9666  158.4192 H   0  0  0  0  0  0  0  0  0  0  0  0
  153.1464  145.1082  158.3780 H   0  0  0  0  0  0  0  0  0  0  0  0
  151.8870  140.6888  155.1037 H   0  0  0  0  0  0  0  0  0  0  0  0
  152.9002  140.8104  156.4924 H   0  0  0  0  0  0  0  0  0  0  0  0
  152.1350  138.4585  156.2055 H   0  0  0  0  0  0  0  0  0  0  0  0
  151.4761  139.1082  157.6893 H   0  0  0  0  0  0  0  0  0  0  0  0
  150.0541  138.8015  155.0124 H   0  0  0  0  0  0  0  0  0  0  0  0
  149.4872  136.8425  156.0416 H   0  0  0  0  0  0  0  0  0  0  0  0
  148.9287  135.5331  157.3766 H   0  0  0  0  0  0  0  0  0  0  0  0
  148.0892  133.5412  158.6707 H   0  0  0  0  0  0  0  0  0  0  0  0
  148.1362  137.6650  162.8410 H   0  0  0  0  0  0  0  0  0  0  0  0
  148.4638  136.2167  163.7937 H   0  0  0  0  0  0  0  0  0  0  0  0
  146.7978  136.6562  163.3919 H   0  0  0  0  0  0  0  0  0  0  0  0
  148.5883  137.3841  160.5391 H   0  0  0  0  0  0  0  0  0  0  0  0
  148.0700  139.8823  155.9385 H   0  0  0  0  0  0  0  0  0  0  0  0
  148.8065  140.0242  157.5160 H   0  0  0  0  0  0  0  0  0  0  0  0
  148.8870  142.1976  156.3392 H   0  0  0  0  0  0  0  0  0  0  0  0
  149.7215  141.4891  154.9885 H   0  0  0  0  0  0  0  0  0  0  0  0
  1  2  1  0  0  0  0
  1 26  1  0  0  0  0
  1 27  1  0  0  0  0
  1 28  1  0  0  0  0
  2  3  1  0  0  0  0
  2 29  1  0  0  0  0
  2 30  1  0  0  0  0
  3  4  1  0  0  0  0
  3  6  1  0  0  0  0
  3 31  1  0  0  0  0
  4  5  1  0  0  0  0
  4 32  1  0  0  0  0
  4 33  1  0  0  0  0
  5 34  1  0  0  0  0
  5 35  1  0  0  0  0
  5 36  1  0  0  0  0
  6  7  2  0  0  0  0
  6  8  1  0  0  0  0
  8 25  1  0  0  0  0
  8  9  1  0  0  0  0
  9 10  1  0  0  0  0
  9 37  1  0  0  0  0
  9 38  1  0  0  0  0
 10 11  1  0  0  0  0
 10 39  1  0  0  0  0
 10 40  1  0  0  0  0
 11 12  1  0  0  0  0
 11 24  1  0  0  0  0
 11 41  1  0  0  0  0
 12 13  1  0  0  0  0
 12 42  1  0  0  0  0
 13 14  2  0  0  0  0
 13 15  1  0  0  0  0
 15 16  1  0  0  0  0
 15 43  1  0  0  0  0
 16 23  1  0  0  0  0
 16 17  2  0  0  0  0
 17 18  1  0  0  0  0
 17 44  1  0  0  0  0
 18 19  1  0  0  0  0
 19 20  2  0  0  0  0
 19 21  1  0  0  0  0
 21 22  1  0  0  0  0
 21 23  2  0  0  0  0
 22 45  1  0  0  0  0
 22 46  1  0  0  0  0
 22 47  1  0  0  0  0
 23 48  1  0  0  0  0
 24 25  1  0  0  0  0
 24 49  1  0  0  0  0
 24 50  1  0  0  0  0
 25 51  1  0  0  0  0
 25 52  1  0  0  0  0
M  CHG  1  18  -1
M  END
> <s_m_source_file>
AV-unprocessed.smi

> <i_m_source_file_index>
3049

> <i_lp_mmshare_version>
43012

> <i_f3d_flags>
0

> <s_epik_input>
W0NIM11bQ0gyXVtDSF0oW0NIMl1bQ0gzXSlDKD1PKU4xW0NIMl1bQ0gyXVtDSF0oW0NIMl1bQ0gyXTEpW05IXUMoPU8pW05IXWMyW2NIXVtuSF1jKD1PKWMoW0NIM10pW2NIXTI=

> <s_epik_cmdline>
J2VwaWtfcHl0aG9uJywgJy1waCcsICc3LjAnLCAnLXRuJywgJzgnLCAnLW1hJywgJzIwMCcsICctbWV0YWxfYmluZGluZycsICctaW1hZScsICc8aW5maWxlLm1hZT4nLCAnLW9tYWUnLCAnPG91dGZpbGUubWFlPic=

> <r_lp_tautomer_probability>
1

> <r_epik_Ionization_Penalty>
7.58311

> <r_epik_Ionization_Penalty_Charging>
1.51652

> <r_epik_Ionization_Penalty_Neutral>
6.06659

> <r_epik_State_Penalty>
6.06654

> <r_epik_Charging_Adjusted_Penalty>
7.58305

> <i_epik_Tot_Q>
-1

> <i_epik_Tot_abs_Q>
1

> <r_epik_Metal_State_Penalty>
2.01464

> <b_epik_Metal_Only>
1

> <s_lp_Force_Field>
OPLS_2005

> <r_lp_Energy>
39.554

> <b_lp_Chiralities_Consistent>
1

> <s_lp_Variant>
AV-unprocessed.smi:3049-2

> <Gold.Version>
5.8.1

> <Gold.Id.Protein>
6NUR|6NUR_protein|mol2

> <Gold.PLP.Fitness>
45.9715

> <Gold.PLP.PLP>
-46.2359

> <Gold.PLP.part.hbond>
-2.3232

> <Gold.PLP.part.metal>
0.0000

> <Gold.PLP.part.buried>
-5.1151

> <Gold.PLP.part.nonpolar>
-39.1536

> <Gold.PLP.part.repulsive>
0.6367

> <Gold.PLP.ligand.clash>
0.0000

> <Gold.PLP.ligand.torsion>
0.2023

> <Gold.PLP.Chemscore.Hbond>
0.0000

> <Gold.PLP.Chemscore.CHOScore>
0.0000

> <Gold.PLP.Chemscore.Metal>
0.0000

> <Gold.PLP.Chemscore.Internal.Correction>
0.1401

> <Gold.Rescore>
     Score         DG    S(hbond)    S(metal)    S(lipo)     H(rot)  DE(clash)    DE(int)     intcor
     10.54     -14.45       0.00        0.00     110.27       1.54       0.06       3.85       ----

> <Gold.Chemscore.Fitness>
10.5351

> <Gold.Chemscore.DG>
-14.4474

> <Gold.Chemscore.ZeroCoef>
-5.4800

> <Gold.Chemscore.Hbond>
0.0000

> <Gold.Chemscore.Metal>
0.0000

> <Gold.Chemscore.Lipo>
110.2687

> <Gold.Chemscore.Internal_Hbond>
0.0000

> <Gold.Chemscore.DEClash>
0.0613

> <Gold.Chemscore.DEInternal>
3.8511

> <Gold.Chemscore.Rot>
1.5367

> <Gold.Chemscore.Internal.Correction>
   9.000000E+99

> <Gold.Chemscore.Hbond.Weighted>
-0.0000

> <Gold.Chemscore.Metal.Weighted>
-0.0000

> <Gold.Chemscore.Lipo.Weighted>
-12.9014

> <Gold.Chemscore.Internal_Hbond.Weighted>
0.0000

> <Gold.Chemscore.DEClash.Weighted>
0.0613

> <Gold.Chemscore.DEInternal.Weighted>
3.8511

> <Gold.Chemscore.Rot.Weighted>
3.9340

> <Gold.Chemscore.Internal.Correction.Weighted>
   9.000000E+99

> <Gold.Protein.RotatedTorsions>
[ 6907 6896 6895 6894 ] final  -84.79 input  -60.11 | X-H torsion
[ 7974 7965 7964 7962 ] final  155.54 input  175.53 | X-H torsion
[ 8008 7997 7996 7995 ] final   76.15 input   59.86 | X-H torsion
[ 10167 10162 10161 10158 ] final -110.83 input  -65.29 | X-H torsion
[ 10718 10713 10712 10709 ] final   -1.72 input   66.30 | X-H torsion
[ 10763 10752 10751 10750 ] final  -95.92 input  -60.55 | X-H torsion
[ 11005 11000 10999 10996 ] final  -25.88 input  -57.11 | X-H torsion

> <Gold.Protein.ActiveResidues>
 VAL166  LYS551  ARG553  GLY616  TRP617  ASP618  TYR619  PRO620  LYS621  CYS622 
 ASP623  PHE694  ASN695  SER759  ASP760  ASP761  ALA762  ILE779  LEU786  VAL792 
 PHE793  MET794  SER795  GLU796  ALA797  LYS798  CYS799  TRP800  GLU811  SER814 

> <Gold.Protein.RotatedAtoms>
  150.6874  134.3304  159.4824 H   0  0  0  0  0  0  0  0  0  0  0  0  # atno 6907 bound_to 6896
  152.1169  134.9231  160.0574 H   0  0  0  0  0  0  0  0  0  0  0  0  # atno 6908 bound_to 6896
  152.0452  133.3960  159.4390 H   0  0  0  0  0  0  0  0  0  0  0  0  # atno 6909 bound_to 6896
  144.8018  139.7082  143.6178 H   0  0  0  0  0  0  0  0  0  0  0  0  # atno 7974 bound_to 7965
  155.8231  140.3469  155.5526 H   0  0  0  0  0  0  0  0  0  0  0  0  # atno 8008 bound_to 7997
  155.8321  140.0928  157.1806 H   0  0  0  0  0  0  0  0  0  0  0  0  # atno 8009 bound_to 7997
  154.4004  140.1410  156.3614 H   0  0  0  0  0  0  0  0  0  0  0  0  # atno 8010 bound_to 7997
  140.1402  143.4285  152.1567 H   0  0  0  0  0  0  0  0  0  0  0  0  # atno 10167 bound_to 10162
  156.8015  130.5394  149.5721 H   0  0  0  0  0  0  0  0  0  0  0  0  # atno 10718 bound_to 10713
  154.7193  135.5102  153.8786 H   0  0  0  0  0  0  0  0  0  0  0  0  # atno 10763 bound_to 10752
  153.0848  135.6642  153.9980 H   0  0  0  0  0  0  0  0  0  0  0  0  # atno 10764 bound_to 10752
  153.9807  135.3029  155.3400 H   0  0  0  0  0  0  0  0  0  0  0  0  # atno 10765 bound_to 10752
  140.8978  133.7544  156.0504 H   0  0  0  0  0  0  0  0  0  0  0  0  # atno 11005 bound_to 11000
  146.2302  139.5798  142.9560 LP  0  0  0  0  0  0  0  0  0  0  0  0  # atno 17320 bound_to 7965
  145.5533  141.0411  143.2266 LP  0  0  0  0  0  0  0  0  0  0  0  0  # atno 17321 bound_to 7965
  139.5476  144.7311  151.4536 LP  0  0  0  0  0  0  0  0  0  0  0  0  # atno 17342 bound_to 10162
  140.6765  143.8178  150.7065 LP  0  0  0  0  0  0  0  0  0  0  0  0  # atno 17343 bound_to 10162
  156.1098  130.6032  151.0029 LP  0  0  0  0  0  0  0  0  0  0  0  0  # atno 17370 bound_to 10713
  157.6551  131.0890  150.7965 LP  0  0  0  0  0  0  0  0  0  0  0  0  # atno 17371 bound_to 10713
  140.8267  134.3225  157.5363 LP  0  0  0  0  0  0  0  0  0  0  0  0  # atno 17394 bound_to 11000
  139.8738  134.9340  156.3596 LP  0  0  0  0  0  0  0  0  0  0  0  0  # atno 17395 bound_to 11000

$$$$
