AV-unprocessed.smi:136|AV-procd|sdf|1174|dock5
  -GOLD-   2262018323D 1   1.00000     0.00000
 Structure written by MMmdl.
 54 58  0  0  0  0  0  0  0  0  1 V2000
  152.7523  136.6184  159.3094 O   0  0  0  0  0  0  0  0  0  0  0  0
  152.0599  137.4665  158.7434 C   0  0  0  0  0  0  0  0  0  0  0  0
  152.7353  138.6078  157.9538 C   0  0  0  0  0  0  0  0  0  0  0  0
  152.7855  139.8893  158.6911 N   0  0  0  0  0  0  0  0  0  0  0  0
  153.4182  139.9231  159.9586 C   0  0  0  0  0  0  0  0  0  0  0  0
  153.9282  138.9129  160.4454 O   0  0  0  0  0  0  0  0  0  0  0  0
  153.4099  141.2169  160.6322 C   0  0  0  0  0  0  0  0  0  0  0  0
  153.9826  141.3415  161.8415 F   0  0  0  0  0  0  0  0  0  0  0  0
  152.8316  142.2935  160.0613 C   0  0  0  0  0  0  0  0  0  0  0  0
  152.2191  142.2458  158.8224 N   0  0  0  0  0  0  0  0  0  0  0  0
  151.5647  143.4693  158.2209 C   0  0  1  0  0  0  0  0  0  0  0  0
  150.4220  143.9543  159.1200 C   0  0  0  0  0  0  0  0  0  0  0  0
  151.1123  145.0071  159.9599 C   0  0  0  0  0  0  0  0  0  0  0  0
  152.1012  145.5953  158.9599 C   0  0  0  0  0  0  0  0  0  0  0  0
  152.5074  144.5002  158.1432 O   0  0  0  0  0  0  0  0  0  0  0  0
  152.1699  141.0258  158.1140 C   0  0  0  0  0  0  0  0  0  0  0  0
  151.5948  140.9516  157.0257 O   0  0  0  0  0  0  0  0  0  0  0  0
  150.7090  137.4275  158.7804 N   0  0  0  0  0  0  0  0  0  0  0  0
  150.0165  136.5551  159.5551 N   0  0  0  0  0  0  0  0  0  0  0  0
  148.7689  136.8460  159.5288 C   0  0  0  0  0  0  0  0  0  0  0  0
  147.7216  136.1069  160.2680 C   0  0  0  0  0  0  0  0  0  0  0  0
  146.4354  136.6771  160.4053 C   0  0  0  0  0  0  0  0  0  0  0  0
  145.4374  135.9746  161.1084 C   0  0  0  0  0  0  0  0  0  0  0  0
  145.7211  134.7132  161.6694 C   0  0  0  0  0  0  0  0  0  0  0  0
  144.4945  133.8585  162.5305 Cl  0  0  0  0  0  0  0  0  0  0  0  0
  147.0047  134.1487  161.5284 C   0  0  0  0  0  0  0  0  0  0  0  0
  148.0113  134.8419  160.8278 C   0  0  0  0  0  0  0  0  0  0  0  0
  148.4435  138.0231  158.6726 C   0  0  0  0  0  0  0  0  0  0  0  0
  149.8221  138.3948  158.1202 C   0  0  2  0  0  0  0  0  0  0  0  0
  149.8765  138.3527  156.6192 C   0  0  0  0  0  0  0  0  0  0  0  0
  149.3046  139.0903  155.6167 C   0  0  0  0  0  0  0  0  0  0  0  0
  149.7736  138.5407  154.3921 C   0  0  0  0  0  0  0  0  0  0  0  0
  150.6015  137.5106  154.7355 C   0  0  0  0  0  0  0  0  0  0  0  0
  150.6764  137.3848  156.0881 O   0  0  0  0  0  0  0  0  0  0  0  0
  153.7352  138.2827  157.6626 H   0  0  0  0  0  0  0  0  0  0  0  0
  152.2125  138.7423  157.0054 H   0  0  0  0  0  0  0  0  0  0  0  0
  152.8500  143.2239  160.6092 H   0  0  0  0  0  0  0  0  0  0  0  0
  151.2492  143.1860  157.2155 H   0  0  0  0  0  0  0  0  0  0  0  0
  149.6546  144.4089  158.4923 H   0  0  0  0  0  0  0  0  0  0  0  0
  149.9729  143.1454  159.6979 H   0  0  0  0  0  0  0  0  0  0  0  0
  150.4257  145.7492  160.3677 H   0  0  0  0  0  0  0  0  0  0  0  0
  151.6438  144.5400  160.7899 H   0  0  0  0  0  0  0  0  0  0  0  0
  151.6073  146.3364  158.3301 H   0  0  0  0  0  0  0  0  0  0  0  0
  152.9541  146.0732  159.4420 H   0  0  0  0  0  0  0  0  0  0  0  0
  146.1981  137.6427  159.9824 H   0  0  0  0  0  0  0  0  0  0  0  0
  144.4529  136.4057  161.2166 H   0  0  0  0  0  0  0  0  0  0  0  0
  147.2193  133.1812  161.9582 H   0  0  0  0  0  0  0  0  0  0  0  0
  148.9865  134.3878  160.7339 H   0  0  0  0  0  0  0  0  0  0  0  0
  147.7409  137.7518  157.8833 H   0  0  0  0  0  0  0  0  0  0  0  0
  148.0145  138.8348  159.2612 H   0  0  0  0  0  0  0  0  0  0  0  0
  150.0882  139.3972  158.4607 H   0  0  0  0  0  0  0  0  0  0  0  0
  148.6293  139.9228  155.7491 H   0  0  0  0  0  0  0  0  0  0  0  0
  149.5366  138.8592  153.3877 H   0  0  0  0  0  0  0  0  0  0  0  0
  151.1890  136.8005  154.1724 H   0  0  0  0  0  0  0  0  0  0  0  0
  1  2  2  0  0  0  0
  2  3  1  0  0  0  0
  2 18  1  0  0  0  0
  3  4  1  0  0  0  0
  3 35  1  0  0  0  0
  3 36  1  0  0  0  0
  4 16  1  0  0  0  0
  4  5  1  0  0  0  0
  5  6  2  0  0  0  0
  5  7  1  0  0  0  0
  7  8  1  0  0  0  0
  7  9  2  0  0  0  0
  9 10  1  0  0  0  0
  9 37  1  0  0  0  0
 10 11  1  0  0  0  0
 10 16  1  0  0  0  0
 11 15  1  0  0  0  0
 11 12  1  0  0  0  0
 11 38  1  0  0  0  0
 12 13  1  0  0  0  0
 12 39  1  0  0  0  0
 12 40  1  0  0  0  0
 13 14  1  0  0  0  0
 13 41  1  0  0  0  0
 13 42  1  0  0  0  0
 14 15  1  0  0  0  0
 14 43  1  0  0  0  0
 14 44  1  0  0  0  0
 16 17  2  0  0  0  0
 18 29  1  0  0  0  0
 18 19  1  0  0  0  0
 19 20  2  0  0  0  0
 20 21  1  0  0  0  0
 20 28  1  0  0  0  0
 21 27  1  0  0  0  0
 21 22  2  0  0  0  0
 22 23  1  0  0  0  0
 22 45  1  0  0  0  0
 23 24  2  0  0  0  0
 23 46  1  0  0  0  0
 24 25  1  0  0  0  0
 24 26  1  0  0  0  0
 26 27  2  0  0  0  0
 26 47  1  0  0  0  0
 27 48  1  0  0  0  0
 28 29  1  0  0  0  0
 28 49  1  0  0  0  0
 28 50  1  0  0  0  0
 29 30  1  0  0  0  0
 29 51  1  0  0  0  0
 30 34  1  0  0  0  0
 30 31  2  0  0  0  0
 31 32  1  0  0  0  0
 31 52  1  0  0  0  0
 32 33  2  0  0  0  0
 32 53  1  0  0  0  0
 33 34  1  0  0  0  0
 33 54  1  0  0  0  0
M  END
> <s_m_source_file>
AV-unprocessed.smi

> <i_m_source_file_index>
136

> <i_lp_mmshare_version>
43012

> <i_f3d_flags>
0

> <s_epik_input>
bzFbY0hdW2NIXVtjSF1jMVtDQEBIXTJbQ0gyXUMoYzNbY0hdW2NIXWMoQ2wpW2NIXVtjSF0zKT1OTjJDKD1PKVtDSDJdbjRjKD1PKWMoRilbY0hdbihjND1PKVtDQEBIXTVbQ0gyXVtDSDJdW0NIMl1PNQ==

> <s_epik_cmdline>
J2VwaWtfcHl0aG9uJywgJy1waCcsICc3LjAnLCAnLXRuJywgJzgnLCAnLW1hJywgJzIwMCcsICctbWV0YWxfYmluZGluZycsICctaW1hZScsICc8aW5maWxlLm1hZT4nLCAnLW9tYWUnLCAnPG91dGZpbGUubWFlPic=

> <r_lp_tautomer_probability>
1

> <r_epik_Ionization_Penalty>
2.55467e-08

> <r_epik_Ionization_Penalty_Charging>
4.85705e-09

> <r_epik_Ionization_Penalty_Neutral>
2.06897e-08

> <r_epik_State_Penalty>
-0

> <r_epik_Charging_Adjusted_Penalty>
4.85705e-09

> <i_epik_Tot_Q>
0

> <i_epik_Tot_abs_Q>
0

> <r_epik_Metal_State_Penalty>
-0

> <b_epik_Metal_Only>
0

> <s_epik_Chemistry_Notes>
This compound has an imine and may undergo hydrolysis. This compound contains an acetal/aminal-like group ( X-CH(R)-Y where X, Y are N, S, or O) that may be acid/base labile, releasing an aldehyde.

> <s_lp_Force_Field>
OPLS_2005

> <r_lp_Energy>
39.5424

> <b_lp_Chiralities_Consistent>
1

> <s_lp_Variant>
AV-unprocessed.smi:136-4

> <Gold.Version>
5.8.1

> <Gold.Id.Protein>
6NUR|6NUR_protein|mol2

> <Gold.PLP.Fitness>
62.3904

> <Gold.PLP.PLP>
-57.4914

> <Gold.PLP.part.hbond>
-2.0000

> <Gold.PLP.part.metal>
0.0000

> <Gold.PLP.part.buried>
-8.3870

> <Gold.PLP.part.nonpolar>
-46.7321

> <Gold.PLP.part.repulsive>
0.0609

> <Gold.PLP.ligand.clash>
0.0000

> <Gold.PLP.ligand.torsion>
0.4627

> <Gold.PLP.Chemscore.Hbond>
1.4869

> <Gold.PLP.Chemscore.CHOScore>
0.4335

> <Gold.PLP.Chemscore.Metal>
0.0000

> <Gold.Chemscore.Hbonds>
donor molecule, donor type, donor heavy atom, donor atom, acceptor molecule, acceptor atom, score
      P1  H  6896  6908       L1    19  0.91
      P1  H  6896  6909       L1     1  0.56
      L1  C    33    54       P1  7949  0.33

> <Gold.PLP.Chemscore.Internal.Correction>
0.0633

> <Gold.Rescore>
     Score         DG    S(hbond)    S(metal)    S(lipo)     H(rot)  DE(clash)    DE(int)     intcor
     16.88     -20.85       1.49        0.00     128.29       1.81       0.07       3.90       ----

> <Gold.Chemscore.Fitness>
16.8796

> <Gold.Chemscore.DG>
-20.8480

> <Gold.Chemscore.ZeroCoef>
-5.4800

> <Gold.Chemscore.Hbond>
1.4912

> <Gold.Chemscore.Metal>
0.0000

> <Gold.Chemscore.Lipo>
128.2877

> <Gold.Chemscore.Internal_Hbond>
0.0000

> <Gold.Chemscore.DEClash>
0.0705

> <Gold.Chemscore.DEInternal>
3.8979

> <Gold.Chemscore.Rot>
1.8056

> <Gold.Chemscore.Internal.Correction>
   9.000000E+99

> <Gold.Chemscore.Hbonds>
donor molecule, donor type, donor heavy atom, donor atom, acceptor molecule, acceptor atom, score
      P1  H  6896  6908       L1    19  0.80
      P1  H  6896  6909       L1     1  0.52

> <Gold.Chemscore.Hbond.Weighted>
-4.9806

> <Gold.Chemscore.Metal.Weighted>
-0.0000

> <Gold.Chemscore.Lipo.Weighted>
-15.0097

> <Gold.Chemscore.Internal_Hbond.Weighted>
0.0000

> <Gold.Chemscore.DEClash.Weighted>
0.0705

> <Gold.Chemscore.DEInternal.Weighted>
3.8979

> <Gold.Chemscore.Rot.Weighted>
4.6223

> <Gold.Chemscore.Internal.Correction.Weighted>
   9.000000E+99

> <Gold.Protein.RotatedTorsions>
[ 6907 6896 6895 6894 ] final  178.61 input  -60.11 | X-H torsion
[ 7974 7965 7964 7962 ] final  -62.06 input  175.53 | X-H torsion
[ 8008 7997 7996 7995 ] final  -40.29 input   59.86 | X-H torsion
[ 10167 10162 10161 10158 ] final   32.97 input  -65.29 | X-H torsion
[ 10718 10713 10712 10709 ] final  -16.54 input   66.30 | X-H torsion
[ 10763 10752 10751 10750 ] final  178.99 input  -60.55 | X-H torsion
[ 11005 11000 10999 10996 ] final  -38.37 input  -57.11 | X-H torsion

> <Gold.Protein.ActiveResidues>
 VAL166  LYS551  ARG553  GLY616  TRP617  ASP618  TYR619  PRO620  LYS621  CYS622 
 ASP623  PHE694  ASN695  SER759  ASP760  ASP761  ALA762  ILE779  LEU786  VAL792 
 PHE793  MET794  SER795  GLU796  ALA797  LYS798  CYS799  TRP800  GLU811  SER814 

> <Gold.Protein.RotatedAtoms>
  151.6851  133.3311  159.3228 H   0  0  0  0  0  0  0  0  0  0  0  0  # atno 6907 bound_to 6896
  150.7805  134.6747  159.6420 H   0  0  0  0  0  0  0  0  0  0  0  0  # atno 6908 bound_to 6896
  152.3860  134.6519  160.0177 H   0  0  0  0  0  0  0  0  0  0  0  0  # atno 6909 bound_to 6896
  145.7959  140.8683  143.0256 H   0  0  0  0  0  0  0  0  0  0  0  0  # atno 7974 bound_to 7965
  154.4013  140.1529  156.3003 H   0  0  0  0  0  0  0  0  0  0  0  0  # atno 8008 bound_to 7997
  155.8706  140.3449  155.5797 H   0  0  0  0  0  0  0  0  0  0  0  0  # atno 8009 bound_to 7997
  155.7778  140.0839  157.2065 H   0  0  0  0  0  0  0  0  0  0  0  0  # atno 8010 bound_to 7997
  140.4450  144.1132  150.6181 H   0  0  0  0  0  0  0  0  0  0  0  0  # atno 10167 bound_to 10162
  156.5861  130.4787  149.6299 H   0  0  0  0  0  0  0  0  0  0  0  0  # atno 10718 bound_to 10713
  154.5148  135.2790  155.1312 H   0  0  0  0  0  0  0  0  0  0  0  0  # atno 10763 bound_to 10752
  154.2893  135.6270  153.5382 H   0  0  0  0  0  0  0  0  0  0  0  0  # atno 10764 bound_to 10752
  152.9925  135.5670  154.5623 H   0  0  0  0  0  0  0  0  0  0  0  0  # atno 10765 bound_to 10752
  141.0023  133.6949  156.2045 H   0  0  0  0  0  0  0  0  0  0  0  0  # atno 11005 bound_to 11000
  144.6775  140.0190  143.7484 LP  0  0  0  0  0  0  0  0  0  0  0  0  # atno 17320 bound_to 7965
  145.9928  139.3028  143.0974 LP  0  0  0  0  0  0  0  0  0  0  0  0  # atno 17321 bound_to 7965
  140.4274  143.2584  151.9639 LP  0  0  0  0  0  0  0  0  0  0  0  0  # atno 17342 bound_to 10162
  139.4792  144.5776  151.7987 LP  0  0  0  0  0  0  0  0  0  0  0  0  # atno 17343 bound_to 10162
  156.2590  130.6951  151.1713 LP  0  0  0  0  0  0  0  0  0  0  0  0  # atno 17370 bound_to 10713
  157.7315  131.0608  150.5675 LP  0  0  0  0  0  0  0  0  0  0  0  0  # atno 17371 bound_to 10713
  140.6870  134.4707  157.5589 LP  0  0  0  0  0  0  0  0  0  0  0  0  # atno 17394 bound_to 11000
  139.9045  134.8480  156.1761 LP  0  0  0  0  0  0  0  0  0  0  0  0  # atno 17395 bound_to 11000

$$$$
