AV-unprocessed.smi:1701|AV-procd|sdf|6838|dock7
  -GOLD-   22720 8 13D 1   1.00000     0.00000
 Structure written by MMmdl.
 54 56  0  0  0  0  0  0  0  0  4 V2000
  151.3903  142.7516  156.6183 C   0  0  0  0  0  0  0  0  0  0  0  0
  151.2354  142.2058  158.0464 C   0  0  0  0  0  0  0  0  0  0  0  0
  152.4358  142.3757  158.8651 N   0  0  0  0  0  0  0  0  0  0  0  0
  152.8537  143.7246  159.2547 C   0  0  0  0  0  0  0  0  0  0  0  0
  151.7785  144.4870  160.0425 C   0  0  0  0  0  0  0  0  0  0  0  0
  153.0755  141.2464  159.4330 C   0  0  0  0  0  0  0  0  0  0  0  0
  154.0749  141.3340  160.4350 C   0  0  0  0  0  0  0  0  0  0  0  0
  154.6629  140.1606  160.9494 C   0  0  0  0  0  0  0  0  0  0  0  0
  154.2453  138.9009  160.4753 C   0  0  0  0  0  0  0  0  0  0  0  0
  154.8786  137.7454  161.0069 N   0  0  0  0  0  0  0  0  0  0  0  0
  154.7330  136.4466  160.6455 C   0  0  0  0  0  0  0  0  0  0  0  0
  153.9149  136.1572  159.7747 O   0  0  0  0  0  0  0  0  0  0  0  0
  155.4709  135.4804  161.2703 N   0  5  0  0  0  0  0  0  0  0  0  0
  155.0236  134.2291  161.9063 C   0  0  1  0  0  0  0  0  0  0  0  0
  156.2256  133.3072  162.1469 C   0  0  0  0  0  0  0  0  0  0  0  0
  156.8219  133.7450  163.4988 C   0  0  0  0  0  0  0  0  0  0  0  0
  155.7858  134.5468  164.2001 N   0  3  1  0  0  0  0  0  0  0  0  0
  156.2616  135.9163  164.5518 C   0  0  0  0  0  0  0  0  0  0  0  0
  155.1277  136.8169  165.0556 C   0  0  0  0  0  0  0  0  0  0  0  0
  154.0470  136.9445  163.9802 C   0  0  0  0  0  0  0  0  0  0  0  0
  153.4795  135.5565  163.6549 C   0  0  0  0  0  0  0  0  0  0  0  0
  154.5591  134.4783  163.3567 C   0  0  1  0  0  0  0  0  0  0  0  0
  153.2569  138.8613  159.4652 C   0  0  0  0  0  0  0  0  0  0  0  0
  152.7222  140.0107  159.0001 N   0  3  0  0  0  0  0  0  0  0  0  0
  150.4662  142.6171  156.0560 H   0  0  0  0  0  0  0  0  0  0  0  0
  152.1788  142.2353  156.0730 H   0  0  0  0  0  0  0  0  0  0  0  0
  151.6241  143.8160  156.6140 H   0  0  0  0  0  0  0  0  0  0  0  0
  150.3781  142.6630  158.5399 H   0  0  0  0  0  0  0  0  0  0  0  0
  150.9977  141.1433  157.9910 H   0  0  0  0  0  0  0  0  0  0  0  0
  153.7796  143.6816  159.8288 H   0  0  0  0  0  0  0  0  0  0  0  0
  153.1019  144.2894  158.3556 H   0  0  0  0  0  0  0  0  0  0  0  0
  152.1529  145.4624  160.3538 H   0  0  0  0  0  0  0  0  0  0  0  0
  151.4802  143.9467  160.9412 H   0  0  0  0  0  0  0  0  0  0  0  0
  150.8868  144.6597  159.4418 H   0  0  0  0  0  0  0  0  0  0  0  0
  154.4095  142.2837  160.8226 H   0  0  0  0  0  0  0  0  0  0  0  0
  155.4269  140.2309  161.7099 H   0  0  0  0  0  0  0  0  0  0  0  0
  155.4851  137.9080  161.7971 H   0  0  0  0  0  0  0  0  0  0  0  0
  154.2465  133.7208  161.3338 H   0  0  0  0  0  0  0  0  0  0  0  0
  155.8728  132.2782  162.2290 H   0  0  0  0  0  0  0  0  0  0  0  0
  156.9575  133.3282  161.3379 H   0  0  0  0  0  0  0  0  0  0  0  0
  157.0964  132.8796  164.1028 H   0  0  0  0  0  0  0  0  0  0  0  0
  157.7345  134.3236  163.3415 H   0  0  0  0  0  0  0  0  0  0  0  0
  157.0386  135.8342  165.3123 H   0  0  0  0  0  0  0  0  0  0  0  0
  156.7259  136.3866  163.6834 H   0  0  0  0  0  0  0  0  0  0  0  0
  154.7020  136.4100  165.9736 H   0  0  0  0  0  0  0  0  0  0  0  0
  155.5211  137.8033  165.3030 H   0  0  0  0  0  0  0  0  0  0  0  0
  153.2487  137.6018  164.3253 H   0  0  0  0  0  0  0  0  0  0  0  0
  154.4623  137.4067  163.0840 H   0  0  0  0  0  0  0  0  0  0  0  0
  152.9130  135.2279  164.5274 H   0  0  0  0  0  0  0  0  0  0  0  0
  152.7458  135.6263  162.8495 H   0  0  0  0  0  0  0  0  0  0  0  0
  154.0914  133.5363  163.6497 H   0  0  0  0  0  0  0  0  0  0  0  0
  152.8807  137.9620  159.0008 H   0  0  0  0  0  0  0  0  0  0  0  0
  155.5641  134.0884  165.0716 H   0  0  0  0  0  0  0  0  0  0  0  0
  152.0098  139.9426  158.2733 H   0  0  0  0  0  0  0  0  0  0  0  0
  1  2  1  0  0  0  0
  1 25  1  0  0  0  0
  1 26  1  0  0  0  0
  1 27  1  0  0  0  0
  2  3  1  0  0  0  0
  2 28  1  0  0  0  0
  2 29  1  0  0  0  0
  3  4  1  0  0  0  0
  3  6  1  0  0  0  0
  4  5  1  0  0  0  0
  4 30  1  0  0  0  0
  4 31  1  0  0  0  0
  5 32  1  0  0  0  0
  5 33  1  0  0  0  0
  5 34  1  0  0  0  0
  6 24  1  0  0  0  0
  6  7  2  0  0  0  0
  7  8  1  0  0  0  0
  7 35  1  0  0  0  0
  8  9  2  0  0  0  0
  8 36  1  0  0  0  0
  9 10  1  0  0  0  0
  9 23  1  0  0  0  0
 10 11  1  0  0  0  0
 10 37  1  0  0  0  0
 11 12  2  0  0  0  0
 11 13  1  0  0  0  0
 13 14  1  0  0  0  0
 14 22  1  0  0  0  0
 14 15  1  0  0  0  0
 14 38  1  0  0  0  0
 15 16  1  0  0  0  0
 15 39  1  0  0  0  0
 15 40  1  0  0  0  0
 16 17  1  0  0  0  0
 16 41  1  0  0  0  0
 16 42  1  0  0  0  0
 17 22  1  0  0  0  0
 17 18  1  0  0  0  0
 17 53  1  0  0  0  0
 18 19  1  0  0  0  0
 18 43  1  0  0  0  0
 18 44  1  0  0  0  0
 19 20  1  0  0  0  0
 19 45  1  0  0  0  0
 19 46  1  0  0  0  0
 20 21  1  0  0  0  0
 20 47  1  0  0  0  0
 20 48  1  0  0  0  0
 21 22  1  0  0  0  0
 21 49  1  0  0  0  0
 21 50  1  0  0  0  0
 22 51  1  0  0  0  0
 23 24  2  0  0  0  0
 23 52  1  0  0  0  0
 24 54  1  0  0  0  0
M  CHG  1  13  -1
M  CHG  1  17   1
M  CHG  1  24   1
M  END
> <s_m_source_file>
AV-unprocessed.smi

> <i_m_source_file_index>
1701

> <i_lp_mmshare_version>
43012

> <i_f3d_flags>
0

> <s_epik_input>
W0NIM11bQ0gyXU4oW0NIMl1bQ0gzXSljMVtjSF1bY0hdYyhbY0hdbjEpW05IXUMoPU8pW05IXVtDQEhdKFtDSDJdW0NIMl0yKVtDQEBIXShOMjMpW0NIMl1bQ0gyXVtDSDJdW0NIMl0z

> <s_epik_cmdline>
J2VwaWtfcHl0aG9uJywgJy1waCcsICc3LjAnLCAnLXRuJywgJzgnLCAnLW1hJywgJzIwMCcsICctbWV0YWxfYmluZGluZycsICctaW1hZScsICc8aW5maWxlLm1hZT4nLCAnLW9tYWUnLCAnPG91dGZpbGUubWFlPic=

> <r_lp_tautomer_probability>
0.999994

> <r_epik_Ionization_Penalty>
7.37095

> <r_epik_Ionization_Penalty_Charging>
7.37095

> <r_epik_Ionization_Penalty_Neutral>
3.78969e-06

> <r_epik_State_Penalty>
6.83842

> <r_epik_Charging_Adjusted_Penalty>
14.2094

> <i_epik_Tot_Q>
1

> <i_epik_Tot_abs_Q>
3

> <r_epik_Metal_State_Penalty>
2.78552

> <b_epik_Metal_Only>
1

> <s_lp_Force_Field>
OPLS_2005

> <r_lp_Energy>
56.1591

> <b_lp_Chiralities_Consistent>
1

> <s_lp_Variant>
AV-unprocessed.smi:1701-18

> <Gold.Version>
5.8.1

> <Gold.Id.Protein>
6NUR|6NUR_protein|mol2

> <Gold.PLP.Fitness>
44.9071

> <Gold.PLP.PLP>
-43.3587

> <Gold.PLP.part.hbond>
-1.0000

> <Gold.PLP.part.metal>
0.0000

> <Gold.PLP.part.buried>
-4.6783

> <Gold.PLP.part.nonpolar>
-36.7837

> <Gold.PLP.part.repulsive>
0.1221

> <Gold.PLP.ligand.clash>
0.0000

> <Gold.PLP.ligand.torsion>
0.8134

> <Gold.PLP.Chemscore.Hbond>
1.0000

> <Gold.PLP.Chemscore.CHOScore>
0.0000

> <Gold.PLP.Chemscore.Metal>
0.0000

> <Gold.Chemscore.Hbonds>
donor molecule, donor type, donor heavy atom, donor atom, acceptor molecule, acceptor atom, score
      P1  H  6896  6909       L1    12  0.71

> <Gold.PLP.Chemscore.Internal.Correction>
0.1752

> <Gold.Rescore>
     Score         DG    S(hbond)    S(metal)    S(lipo)     H(rot)  DE(clash)    DE(int)     intcor
     17.02     -19.19       1.00        0.00     116.68       1.28       0.08       2.09       ----

> <Gold.Chemscore.Fitness>
17.0162

> <Gold.Chemscore.DG>
-19.1850

> <Gold.Chemscore.ZeroCoef>
-5.4800

> <Gold.Chemscore.Hbond>
1.0000

> <Gold.Chemscore.Metal>
0.0000

> <Gold.Chemscore.Lipo>
116.6800

> <Gold.Chemscore.Internal_Hbond>
0.0000

> <Gold.Chemscore.DEClash>
0.0801

> <Gold.Chemscore.DEInternal>
2.0887

> <Gold.Chemscore.Rot>
1.2838

> <Gold.Chemscore.Internal.Correction>
   9.000000E+99

> <Gold.Chemscore.Hbonds>
donor molecule, donor type, donor heavy atom, donor atom, acceptor molecule, acceptor atom, score
      P1  H  6896  6909       L1    12  0.69

> <Gold.Chemscore.Hbond.Weighted>
-3.3400

> <Gold.Chemscore.Metal.Weighted>
-0.0000

> <Gold.Chemscore.Lipo.Weighted>
-13.6516

> <Gold.Chemscore.Internal_Hbond.Weighted>
0.0000

> <Gold.Chemscore.DEClash.Weighted>
0.0801

> <Gold.Chemscore.DEInternal.Weighted>
2.0887

> <Gold.Chemscore.Rot.Weighted>
3.2865

> <Gold.Chemscore.Internal.Correction.Weighted>
   9.000000E+99

> <Gold.Protein.RotatedTorsions>
[ 6907 6896 6895 6894 ] final  152.83 input  -60.11 | X-H torsion
[ 7974 7965 7964 7962 ] final  165.06 input  175.53 | X-H torsion
[ 8008 7997 7996 7995 ] final  -52.54 input   59.86 | X-H torsion
[ 10167 10162 10161 10158 ] final -128.35 input  -65.29 | X-H torsion
[ 10718 10713 10712 10709 ] final  122.08 input   66.30 | X-H torsion
[ 10763 10752 10751 10750 ] final  -57.07 input  -60.55 | X-H torsion
[ 11005 11000 10999 10996 ] final  -14.52 input  -57.11 | X-H torsion

> <Gold.Protein.ActiveResidues>
 VAL166  LYS551  ARG553  GLY616  TRP617  ASP618  TYR619  PRO620  LYS621  CYS622 
 ASP623  PHE694  ASN695  SER759  ASP760  ASP761  ALA762  ILE779  LEU786  VAL792 
 PHE793  MET794  SER795  GLU796  ALA797  LYS798  CYS799  TRP800  GLU811  SER814 

> <Gold.Protein.RotatedAtoms>
  152.0813  133.4154  159.4502 H   0  0  0  0  0  0  0  0  0  0  0  0  # atno 6907 bound_to 6896
  150.6862  134.2979  159.4703 H   0  0  0  0  0  0  0  0  0  0  0  0  # atno 6908 bound_to 6896
  152.0821  134.9464  160.0624 H   0  0  0  0  0  0  0  0  0  0  0  0  # atno 6909 bound_to 6896
  144.7518  139.8416  143.6363 H   0  0  0  0  0  0  0  0  0  0  0  0  # atno 7974 bound_to 7965
  154.4109  140.1221  156.5009 H   0  0  0  0  0  0  0  0  0  0  0  0  # atno 8008 bound_to 7997
  155.6896  140.3495  155.4869 H   0  0  0  0  0  0  0  0  0  0  0  0  # atno 8009 bound_to 7997
  155.9480  140.1099  157.0990 H   0  0  0  0  0  0  0  0  0  0  0  0  # atno 8010 bound_to 7997
  139.9512  143.6053  152.2474 H   0  0  0  0  0  0  0  0  0  0  0  0  # atno 10167 bound_to 10162
  157.5770  131.1078  150.8261 H   0  0  0  0  0  0  0  0  0  0  0  0  # atno 10718 bound_to 10713
  154.2166  135.6385  153.5131 H   0  0  0  0  0  0  0  0  0  0  0  0  # atno 10763 bound_to 10752
  152.9978  135.5486  154.6159 H   0  0  0  0  0  0  0  0  0  0  0  0  # atno 10764 bound_to 10752
  154.5608  135.2909  155.0894 H   0  0  0  0  0  0  0  0  0  0  0  0  # atno 10765 bound_to 10752
  140.7873  133.8316  155.9347 H   0  0  0  0  0  0  0  0  0  0  0  0  # atno 11005 bound_to 11000
  146.1479  139.4553  143.0067 LP  0  0  0  0  0  0  0  0  0  0  0  0  # atno 17320 bound_to 7965
  145.6916  141.0162  143.1552 LP  0  0  0  0  0  0  0  0  0  0  0  0  # atno 17321 bound_to 7965
  139.6627  144.7662  151.1933 LP  0  0  0  0  0  0  0  0  0  0  0  0  # atno 17342 bound_to 10162
  140.7582  143.5986  150.8723 LP  0  0  0  0  0  0  0  0  0  0  0  0  # atno 17343 bound_to 10162
  156.8717  130.5148  149.5296 LP  0  0  0  0  0  0  0  0  0  0  0  0  # atno 17370 bound_to 10713
  156.0814  130.5824  150.9570 LP  0  0  0  0  0  0  0  0  0  0  0  0  # atno 17371 bound_to 10713
  140.9424  134.1883  157.4788 LP  0  0  0  0  0  0  0  0  0  0  0  0  # atno 17394 bound_to 11000
  139.8735  134.9877  156.5380 LP  0  0  0  0  0  0  0  0  0  0  0  0  # atno 17395 bound_to 11000

$$$$
