AV-unprocessed.smi:801|AV-procd|sdf|3790|dock3
  -GOLD-   22720 1223D 1   1.00000     0.00000
 Structure written by MMmdl.
 43 44  0  0  0  0  0  0  0  0  2 V2000
  147.7518  129.7039  153.8515 C   0  0  0  0  0  0  0  0  0  0  0  0
  147.5448  130.6381  154.8961 O   0  0  0  0  0  0  0  0  0  0  0  0
  148.6485  131.5106  155.0691 C   0  0  0  0  0  0  0  0  0  0  0  0
  148.1645  132.7945  155.7592 C   0  0  0  0  0  0  0  0  0  0  0  0
  149.2579  133.7820  155.8857 N   0  0  0  0  0  0  0  0  0  0  0  0
  149.2940  134.8938  155.0019 C   0  0  0  0  0  0  0  0  0  0  0  0
  148.3196  134.9851  153.9934 N   0  0  0  0  0  0  0  0  0  0  0  0
  146.9938  135.0865  154.1981 C   0  0  0  0  0  0  0  0  0  0  0  0
  146.1232  135.0584  152.9470 C   0  0  0  0  0  0  0  0  0  0  0  0
  146.4707  135.1857  155.3081 O   0  0  0  0  0  0  0  0  0  0  0  0
  150.2876  135.8242  155.0937 C   0  0  0  0  0  0  0  0  0  0  0  0
  150.3696  136.8944  154.1986 N   0  0  0  0  0  0  0  0  0  0  0  0
  151.3129  137.9968  154.0867 C   0  0  0  0  0  0  0  0  0  0  0  0
  150.7905  139.3010  154.6642 C   0  0  0  0  0  0  0  0  0  0  0  0
  149.5475  139.8254  154.2457 C   0  0  0  0  0  0  0  0  0  0  0  0
  149.0718  141.0380  154.7819 C   0  0  0  0  0  0  0  0  0  0  0  0
  149.8377  141.7350  155.7362 C   0  0  0  0  0  0  0  0  0  0  0  0
  151.0807  141.2200  156.1517 C   0  0  0  0  0  0  0  0  0  0  0  0
  151.5569  140.0076  155.6155 C   0  0  0  0  0  0  0  0  0  0  0  0
  151.2992  135.6493  156.1518 C   0  0  0  0  0  0  0  0  0  0  0  0
  152.1980  136.4722  156.3209 O   0  0  0  0  0  0  0  0  0  0  0  0
  151.2124  134.5452  156.9399 N   0  5  0  0  0  0  0  0  0  0  0  0
  150.2329  133.6067  156.8252 C   0  0  0  0  0  0  0  0  0  0  0  0
  150.2067  132.6068  157.5443 O   0  0  0  0  0  0  0  0  0  0  0  0
  146.8793  129.0571  153.7601 H   0  0  0  0  0  0  0  0  0  0  0  0
  148.6186  129.0729  154.0522 H   0  0  0  0  0  0  0  0  0  0  0  0
  147.8991  130.2078  152.8952 H   0  0  0  0  0  0  0  0  0  0  0  0
  149.4183  131.0258  155.6717 H   0  0  0  0  0  0  0  0  0  0  0  0
  149.0891  131.7457  154.0991 H   0  0  0  0  0  0  0  0  0  0  0  0
  147.3169  133.2121  155.2161 H   0  0  0  0  0  0  0  0  0  0  0  0
  147.7414  132.5448  156.7337 H   0  0  0  0  0  0  0  0  0  0  0  0
  148.6355  134.8027  153.0522 H   0  0  0  0  0  0  0  0  0  0  0  0
  146.1949  134.0867  152.4577 H   0  0  0  0  0  0  0  0  0  0  0  0
  146.4429  135.8262  152.2418 H   0  0  0  0  0  0  0  0  0  0  0  0
  145.0774  135.2396  153.1976 H   0  0  0  0  0  0  0  0  0  0  0  0
  149.6368  136.9280  153.5052 H   0  0  0  0  0  0  0  0  0  0  0  0
  152.2379  137.7214  154.5949 H   0  0  0  0  0  0  0  0  0  0  0  0
  151.5525  138.1632  153.0360 H   0  0  0  0  0  0  0  0  0  0  0  0
  148.9543  139.3008  153.5108 H   0  0  0  0  0  0  0  0  0  0  0  0
  148.1201  141.4342  154.4598 H   0  0  0  0  0  0  0  0  0  0  0  0
  149.4735  142.6649  156.1473 H   0  0  0  0  0  0  0  0  0  0  0  0
  151.6695  141.7554  156.8819 H   0  0  0  0  0  0  0  0  0  0  0  0
  152.5123  139.6214  155.9393 H   0  0  0  0  0  0  0  0  0  0  0  0
  1  2  1  0  0  0  0
  1 25  1  0  0  0  0
  1 26  1  0  0  0  0
  1 27  1  0  0  0  0
  2  3  1  0  0  0  0
  3  4  1  0  0  0  0
  3 28  1  0  0  0  0
  3 29  1  0  0  0  0
  4  5  1  0  0  0  0
  4 30  1  0  0  0  0
  4 31  1  0  0  0  0
  5 23  1  0  0  0  0
  5  6  1  0  0  0  0
  6  7  1  0  0  0  0
  6 11  2  0  0  0  0
  7  8  1  0  0  0  0
  7 32  1  0  0  0  0
  8  9  1  0  0  0  0
  8 10  2  0  0  0  0
  9 33  1  0  0  0  0
  9 34  1  0  0  0  0
  9 35  1  0  0  0  0
 11 12  1  0  0  0  0
 11 20  1  0  0  0  0
 12 13  1  0  0  0  0
 12 36  1  0  0  0  0
 13 14  1  0  0  0  0
 13 37  1  0  0  0  0
 13 38  1  0  0  0  0
 14 19  1  0  0  0  0
 14 15  2  0  0  0  0
 15 16  1  0  0  0  0
 15 39  1  0  0  0  0
 16 17  2  0  0  0  0
 16 40  1  0  0  0  0
 17 18  1  0  0  0  0
 17 41  1  0  0  0  0
 18 19  2  0  0  0  0
 18 42  1  0  0  0  0
 19 43  1  0  0  0  0
 20 21  2  0  0  0  0
 20 22  1  0  0  0  0
 22 23  1  0  0  0  0
 23 24  2  0  0  0  0
M  CHG  1  22  -1
M  END
> <s_m_source_file>
AV-unprocessed.smi

> <i_m_source_file_index>
801

> <i_lp_mmshare_version>
43012

> <i_f3d_flags>
0

> <s_epik_input>
W0NIM11PW0NIMl1bQ0gyXW4xYyhbTkhdQyg9TylbQ0gzXSljKGMoPU8pW25IXWMxPU8pW05IXVtDSDJdYzJbY0hdW2NIXVtjSF1bY0hdW2NIXTI=

> <s_epik_cmdline>
J2VwaWtfcHl0aG9uJywgJy1waCcsICc3LjAnLCAnLXRuJywgJzgnLCAnLW1hJywgJzIwMCcsICctbWV0YWxfYmluZGluZycsICctaW1hZScsICc8aW5maWxlLm1hZT4nLCAnLW9tYWUnLCAnPG91dGZpbGUubWFlPic=

> <r_lp_tautomer_probability>
0.999901

> <r_epik_Ionization_Penalty>
3.93073

> <r_epik_Ionization_Penalty_Charging>
1.379e-07

> <r_epik_Ionization_Penalty_Neutral>
3.93073

> <r_epik_State_Penalty>
3.9304

> <r_epik_Charging_Adjusted_Penalty>
3.9304

> <i_epik_Tot_Q>
-1

> <i_epik_Tot_abs_Q>
1

> <r_epik_Metal_State_Penalty>
0.600886

> <b_epik_Metal_Only>
1

> <s_lp_Force_Field>
OPLS_2005

> <r_lp_Energy>
31.5589

> <b_lp_Chiralities_Consistent>
1

> <s_lp_Variant>
AV-unprocessed.smi:801-2

> <Gold.Version>
5.8.1

> <Gold.Id.Protein>
6NUR|6NUR_protein|mol2

> <Gold.PLP.Fitness>
41.2875

> <Gold.PLP.PLP>
-34.1883

> <Gold.PLP.part.hbond>
-5.9442

> <Gold.PLP.part.metal>
0.0000

> <Gold.PLP.part.buried>
0.4345

> <Gold.PLP.part.nonpolar>
-28.6788

> <Gold.PLP.part.repulsive>
0.1222

> <Gold.PLP.ligand.clash>
0.0000

> <Gold.PLP.ligand.torsion>
1.0731

> <Gold.PLP.Chemscore.Hbond>
2.7009

> <Gold.PLP.Chemscore.CHOScore>
0.0000

> <Gold.PLP.Chemscore.Metal>
0.0000

> <Gold.Chemscore.Hbonds>
donor molecule, donor type, donor heavy atom, donor atom, acceptor molecule, acceptor atom, score
      L1  H     7    32       P1  7948  0.45
      L1  H    12    36       P1  7948  0.91
      P1  H  6896  6908       L1    24  0.75
      P1  H 10752 10764       L1    21  0.52

> <Gold.PLP.Chemscore.Internal.Correction>
1.1426

> <Gold.Rescore>
     Score         DG    S(hbond)    S(metal)    S(lipo)     H(rot)  DE(clash)    DE(int)     intcor
     11.64     -14.21       1.74        0.00      68.41       1.98       0.15       2.42       ----

> <Gold.Chemscore.Fitness>
11.6429

> <Gold.Chemscore.DG>
-14.2118

> <Gold.Chemscore.ZeroCoef>
-5.4800

> <Gold.Chemscore.Hbond>
1.7375

> <Gold.Chemscore.Metal>
0.0000

> <Gold.Chemscore.Lipo>
68.4063

> <Gold.Chemscore.Internal_Hbond>
0.0000

> <Gold.Chemscore.DEClash>
0.1524

> <Gold.Chemscore.DEInternal>
2.4165

> <Gold.Chemscore.Rot>
1.9824

> <Gold.Chemscore.Internal.Correction>
   9.000000E+99

> <Gold.Chemscore.Hbonds>
donor molecule, donor type, donor heavy atom, donor atom, acceptor molecule, acceptor atom, score
      L1  H     7    32       P1  7948  0.15
      L1  H    12    36       P1  7948  0.63
      P1  H  6896  6908       L1    24  0.15
      P1  H 10752 10764       L1    21  0.05

> <Gold.Chemscore.Hbond.Weighted>
-5.8031

> <Gold.Chemscore.Metal.Weighted>
-0.0000

> <Gold.Chemscore.Lipo.Weighted>
-8.0035

> <Gold.Chemscore.Internal_Hbond.Weighted>
0.0000

> <Gold.Chemscore.DEClash.Weighted>
0.1524

> <Gold.Chemscore.DEInternal.Weighted>
2.4165

> <Gold.Chemscore.Rot.Weighted>
5.0749

> <Gold.Chemscore.Internal.Correction.Weighted>
   9.000000E+99

> <Gold.Protein.RotatedTorsions>
[ 6907 6896 6895 6894 ] final   87.30 input  -60.11 | X-H torsion
[ 7974 7965 7964 7962 ] final -112.93 input  175.53 | X-H torsion
[ 8008 7997 7996 7995 ] final  105.44 input   59.86 | X-H torsion
[ 10167 10162 10161 10158 ] final  -93.67 input  -65.29 | X-H torsion
[ 10718 10713 10712 10709 ] final   95.06 input   66.30 | X-H torsion
[ 10763 10752 10751 10750 ] final    3.66 input  -60.55 | X-H torsion
[ 11005 11000 10999 10996 ] final   64.86 input  -57.11 | X-H torsion

> <Gold.Protein.ActiveResidues>
 VAL166  LYS551  ARG553  GLY616  TRP617  ASP618  TYR619  PRO620  LYS621  CYS622 
 ASP623  PHE694  ASN695  SER759  ASP760  ASP761  ALA762  ILE779  LEU786  VAL792 
 PHE793  MET794  SER795  GLU796  ALA797  LYS798  CYS799  TRP800  GLU811  SER814 

> <Gold.Protein.RotatedAtoms>
  152.5409  134.2297  159.8819 H   0  0  0  0  0  0  0  0  0  0  0  0  # atno 6907 bound_to 6896
  151.2270  133.4464  159.2610 H   0  0  0  0  0  0  0  0  0  0  0  0  # atno 6908 bound_to 6896
  151.0752  134.9837  159.8384 H   0  0  0  0  0  0  0  0  0  0  0  0  # atno 6909 bound_to 6896
  145.1381  140.8762  143.3718 H   0  0  0  0  0  0  0  0  0  0  0  0  # atno 7974 bound_to 7965
  156.1659  140.3130  155.8888 H   0  0  0  0  0  0  0  0  0  0  0  0  # atno 8008 bound_to 7997
  155.3686  140.0480  157.3063 H   0  0  0  0  0  0  0  0  0  0  0  0  # atno 8009 bound_to 7997
  154.5192  140.2192  155.9018 H   0  0  0  0  0  0  0  0  0  0  0  0  # atno 8010 bound_to 7997
  140.3222  143.3042  152.0033 H   0  0  0  0  0  0  0  0  0  0  0  0  # atno 10167 bound_to 10162
  157.6942  131.0533  150.4281 H   0  0  0  0  0  0  0  0  0  0  0  0  # atno 10718 bound_to 10713
  153.2806  135.6940  153.7389 H   0  0  0  0  0  0  0  0  0  0  0  0  # atno 10763 bound_to 10752
  153.6378  135.3398  155.3063 H   0  0  0  0  0  0  0  0  0  0  0  0  # atno 10764 bound_to 10752
  154.8494  135.4424  154.1858 H   0  0  0  0  0  0  0  0  0  0  0  0  # atno 10765 bound_to 10752
  139.9931  134.6560  156.0056 H   0  0  0  0  0  0  0  0  0  0  0  0  # atno 11005 bound_to 11000
  145.0562  139.3141  143.5903 LP  0  0  0  0  0  0  0  0  0  0  0  0  # atno 17320 bound_to 7965
  146.3508  139.9988  142.8678 LP  0  0  0  0  0  0  0  0  0  0  0  0  # atno 17321 bound_to 7965
  139.4872  144.6301  151.7086 LP  0  0  0  0  0  0  0  0  0  0  0  0  # atno 17342 bound_to 10162
  140.5473  144.0483  150.6112 LP  0  0  0  0  0  0  0  0  0  0  0  0  # atno 17343 bound_to 10162
  156.4650  130.4040  149.6553 LP  0  0  0  0  0  0  0  0  0  0  0  0  # atno 17370 bound_to 10713
  156.3654  130.7503  151.2480 LP  0  0  0  0  0  0  0  0  0  0  0  0  # atno 17371 bound_to 10713
  141.1582  133.6541  156.4232 LP  0  0  0  0  0  0  0  0  0  0  0  0  # atno 17394 bound_to 11000
  140.4870  134.6611  157.5195 LP  0  0  0  0  0  0  0  0  0  0  0  0  # atno 17395 bound_to 11000

$$$$
