AV-unprocessed.smi:1640|AV-procd|sdf|6554|dock6
  -GOLD-   22720 7233D 1   1.00000     0.00000
 Structure written by MMmdl.
 47 48  0  0  0  0  0  0  0  0  1 V2000
  147.0432  135.5020  162.7481 C   0  0  0  0  0  0  0  0  0  0  0  0
  146.4380  134.5913  161.6669 C   0  0  0  0  0  0  0  0  0  0  0  0
  145.5608  133.5064  162.3099 C   0  0  0  0  0  0  0  0  0  0  0  0
  147.5140  133.9569  160.7629 C   0  0  0  0  0  0  0  0  0  0  0  0
  147.9334  134.8381  159.5764 C   0  0  0  0  0  0  0  0  0  0  0  0
  148.0842  136.5983  160.0923 S   0  0  0  0  0  0  0  0  0  0  0  0
  146.7342  137.1728  160.1981 O   0  0  0  0  0  0  0  0  0  0  0  0
  149.0085  136.6869  161.2325 O   0  0  0  0  0  0  0  0  0  0  0  0
  148.8567  137.3263  158.7361 N   0  0  0  0  0  0  0  0  0  0  0  0
  150.1770  137.9249  158.9243 C   0  0  0  0  0  0  0  0  0  0  0  0
  150.8401  138.3003  157.6077 C   0  0  0  0  0  0  0  0  0  0  0  0
  150.4028  137.6947  156.4106 C   0  0  0  0  0  0  0  0  0  0  0  0
  151.0287  138.0388  155.1987 C   0  0  0  0  0  0  0  0  0  0  0  0
  152.0758  138.9778  155.2321 C   0  0  0  0  0  0  0  0  0  0  0  0
  152.5060  139.5645  156.3683 N   0  0  0  0  0  0  0  0  0  0  0  0
  151.9046  139.2374  157.5382 C   0  0  0  0  0  0  0  0  0  0  0  0
  152.3575  139.8825  158.7020 N   0  0  0  0  0  0  0  0  0  0  0  0
  153.6729  139.4757  159.1829 C   0  0  0  0  0  0  0  0  0  0  0  0
  153.9602  140.1391  160.5403 C   0  0  0  0  0  0  0  0  0  0  0  0
  153.8491  141.5536  160.4101 O   0  0  0  0  0  0  0  0  0  0  0  0
  152.5422  141.9547  160.0072 C   0  0  0  0  0  0  0  0  0  0  0  0
  152.2033  141.3301  158.6425 C   0  0  0  0  0  0  0  0  0  0  0  0
  147.7407  134.9545  163.3827 H   0  0  0  0  0  0  0  0  0  0  0  0
  146.2655  135.9161  163.3904 H   0  0  0  0  0  0  0  0  0  0  0  0
  147.5790  136.3444  162.3119 H   0  0  0  0  0  0  0  0  0  0  0  0
  145.7873  135.2028  161.0406 H   0  0  0  0  0  0  0  0  0  0  0  0
  146.1493  132.8486  162.9503 H   0  0  0  0  0  0  0  0  0  0  0  0
  145.0784  132.8886  161.5519 H   0  0  0  0  0  0  0  0  0  0  0  0
  144.7732  133.9478  162.9211 H   0  0  0  0  0  0  0  0  0  0  0  0
  148.3919  133.6997  161.3569 H   0  0  0  0  0  0  0  0  0  0  0  0
  147.1316  133.0143  160.3686 H   0  0  0  0  0  0  0  0  0  0  0  0
  148.8964  134.5191  159.1776 H   0  0  0  0  0  0  0  0  0  0  0  0
  147.2034  134.7901  158.7690 H   0  0  0  0  0  0  0  0  0  0  0  0
  148.8214  136.7342  157.9066 H   0  0  0  0  0  0  0  0  0  0  0  0
  150.0779  138.7994  159.5680 H   0  0  0  0  0  0  0  0  0  0  0  0
  150.8201  137.2232  159.4565 H   0  0  0  0  0  0  0  0  0  0  0  0
  149.5988  136.9733  156.4176 H   0  0  0  0  0  0  0  0  0  0  0  0
  150.7151  137.5925  154.2666 H   0  0  0  0  0  0  0  0  0  0  0  0
  152.5805  139.2669  154.3222 H   0  0  0  0  0  0  0  0  0  0  0  0
  153.7114  138.3900  159.2791 H   0  0  0  0  0  0  0  0  0  0  0  0
  154.4398  139.7668  158.4640 H   0  0  0  0  0  0  0  0  0  0  0  0
  153.2723  139.7765  161.3055 H   0  0  0  0  0  0  0  0  0  0  0  0
  154.9678  139.8914  160.8740 H   0  0  0  0  0  0  0  0  0  0  0  0
  151.8118  141.6612  160.7621 H   0  0  0  0  0  0  0  0  0  0  0  0
  152.5098  143.0422  159.9409 H   0  0  0  0  0  0  0  0  0  0  0  0
  152.8652  141.7322  157.8739 H   0  0  0  0  0  0  0  0  0  0  0  0
  151.1837  141.5897  158.3558 H   0  0  0  0  0  0  0  0  0  0  0  0
  1  2  1  0  0  0  0
  1 23  1  0  0  0  0
  1 24  1  0  0  0  0
  1 25  1  0  0  0  0
  2  3  1  0  0  0  0
  2  4  1  0  0  0  0
  2 26  1  0  0  0  0
  3 27  1  0  0  0  0
  3 28  1  0  0  0  0
  3 29  1  0  0  0  0
  4  5  1  0  0  0  0
  4 30  1  0  0  0  0
  4 31  1  0  0  0  0
  5  6  1  0  0  0  0
  5 32  1  0  0  0  0
  5 33  1  0  0  0  0
  6  7  2  0  0  0  0
  6  8  2  0  0  0  0
  6  9  1  0  0  0  0
  9 10  1  0  0  0  0
  9 34  1  0  0  0  0
 10 11  1  0  0  0  0
 10 35  1  0  0  0  0
 10 36  1  0  0  0  0
 11 16  1  0  0  0  0
 11 12  2  0  0  0  0
 12 13  1  0  0  0  0
 12 37  1  0  0  0  0
 13 14  2  0  0  0  0
 13 38  1  0  0  0  0
 14 15  1  0  0  0  0
 14 39  1  0  0  0  0
 15 16  2  0  0  0  0
 16 17  1  0  0  0  0
 17 22  1  0  0  0  0
 17 18  1  0  0  0  0
 18 19  1  0  0  0  0
 18 40  1  0  0  0  0
 18 41  1  0  0  0  0
 19 20  1  0  0  0  0
 19 42  1  0  0  0  0
 19 43  1  0  0  0  0
 20 21  1  0  0  0  0
 21 22  1  0  0  0  0
 21 44  1  0  0  0  0
 21 45  1  0  0  0  0
 22 46  1  0  0  0  0
 22 47  1  0  0  0  0
M  END
> <s_m_source_file>
AV-unprocessed.smi

> <i_m_source_file_index>
1640

> <i_lp_mmshare_version>
43012

> <i_f3d_flags>
0

> <s_epik_input>
W0NIM11bQ0hdKFtDSDNdKVtDSDJdW0NIMl1TKD1PKSg9TylbTkhdW0NIMl1jMVtjSF1bY0hdW2NIXW5jMU4yW0NIMl1bQ0gyXU9bQ0gyXVtDSDJdMg==

> <s_epik_cmdline>
J2VwaWtfcHl0aG9uJywgJy1waCcsICc3LjAnLCAnLXRuJywgJzgnLCAnLW1hJywgJzIwMCcsICctbWV0YWxfYmluZGluZycsICctaW1hZScsICc8aW5maWxlLm1hZT4nLCAnLW9tYWUnLCAnPG91dGZpbGUubWFlPic=

> <r_lp_tautomer_probability>
1

> <r_epik_Ionization_Penalty>
0.00729723

> <r_epik_Ionization_Penalty_Charging>
0

> <r_epik_Ionization_Penalty_Neutral>
0.00729723

> <r_epik_State_Penalty>
0.00542751

> <r_epik_Charging_Adjusted_Penalty>
0.00542751

> <i_epik_Tot_Q>
0

> <i_epik_Tot_abs_Q>
0

> <r_epik_Metal_State_Penalty>
0.0195039

> <b_epik_Metal_Only>
0

> <s_lp_Force_Field>
OPLS_2005

> <r_lp_Energy>
17.806

> <b_lp_Chiralities_Consistent>
1

> <s_lp_Variant>
AV-unprocessed.smi:1640-1

> <Gold.Version>
5.8.1

> <Gold.Id.Protein>
6NUR|6NUR_protein|mol2

> <Gold.PLP.Fitness>
42.5389

> <Gold.PLP.PLP>
-35.3506

> <Gold.PLP.part.hbond>
-3.0000

> <Gold.PLP.part.metal>
0.0000

> <Gold.PLP.part.buried>
-3.7653

> <Gold.PLP.part.nonpolar>
-29.6753

> <Gold.PLP.part.repulsive>
0.0000

> <Gold.PLP.ligand.clash>
0.0000

> <Gold.PLP.ligand.torsion>
1.0635

> <Gold.PLP.Chemscore.Hbond>
3.0000

> <Gold.PLP.Chemscore.CHOScore>
0.0000

> <Gold.PLP.Chemscore.Metal>
0.0000

> <Gold.Chemscore.Hbonds>
donor molecule, donor type, donor heavy atom, donor atom, acceptor molecule, acceptor atom, score
      P1  H  6931  6943       L1     8  1.00
      P1  H  6934  6947       L1     7  0.99
      P1  H  7997  8010       L1    15  1.00

> <Gold.PLP.Chemscore.Internal.Correction>
0.3154

> <Gold.Rescore>
     Score         DG    S(hbond)    S(metal)    S(lipo)     H(rot)  DE(clash)    DE(int)     intcor
     15.57     -18.82       2.19        0.00      94.99       1.99       0.29       2.95       ----

> <Gold.Chemscore.Fitness>
15.5689

> <Gold.Chemscore.DG>
-18.8167

> <Gold.Chemscore.ZeroCoef>
-5.4800

> <Gold.Chemscore.Hbond>
2.1874

> <Gold.Chemscore.Metal>
0.0000

> <Gold.Chemscore.Lipo>
94.9901

> <Gold.Chemscore.Internal_Hbond>
0.0000

> <Gold.Chemscore.DEClash>
0.2946

> <Gold.Chemscore.DEInternal>
2.9532

> <Gold.Chemscore.Rot>
1.9856

> <Gold.Chemscore.Internal.Correction>
   9.000000E+99

> <Gold.Chemscore.Hbonds>
donor molecule, donor type, donor heavy atom, donor atom, acceptor molecule, acceptor atom, score
      P1  H  6931  6943       L1     8  0.83
      P1  H  6934  6947       L1     7  0.28
      P1  H  7997  8010       L1    15  0.84

> <Gold.Chemscore.Hbond.Weighted>
-7.3059

> <Gold.Chemscore.Metal.Weighted>
-0.0000

> <Gold.Chemscore.Lipo.Weighted>
-11.1138

> <Gold.Chemscore.Internal_Hbond.Weighted>
0.0000

> <Gold.Chemscore.DEClash.Weighted>
0.2946

> <Gold.Chemscore.DEInternal.Weighted>
2.9532

> <Gold.Chemscore.Rot.Weighted>
5.0830

> <Gold.Chemscore.Internal.Correction.Weighted>
   9.000000E+99

> <Gold.Protein.RotatedTorsions>
[ 6907 6896 6895 6894 ] final -163.89 input  -60.11 | X-H torsion
[ 7974 7965 7964 7962 ] final  133.85 input  175.53 | X-H torsion
[ 8008 7997 7996 7995 ] final   82.35 input   59.86 | X-H torsion
[ 10167 10162 10161 10158 ] final -138.08 input  -65.29 | X-H torsion
[ 10718 10713 10712 10709 ] final  -85.43 input   66.30 | X-H torsion
[ 10763 10752 10751 10750 ] final  116.52 input  -60.55 | X-H torsion
[ 11005 11000 10999 10996 ] final   84.32 input  -57.11 | X-H torsion

> <Gold.Protein.ActiveResidues>
 VAL166  LYS551  ARG553  GLY616  TRP617  ASP618  TYR619  PRO620  LYS621  CYS622 
 ASP623  PHE694  ASN695  SER759  ASP760  ASP761  ALA762  ILE779  LEU786  VAL792 
 PHE793  MET794  SER795  GLU796  ALA797  LYS798  CYS799  TRP800  GLU811  SER814 

> <Gold.Protein.RotatedAtoms>
  151.4032  133.3750  159.2734 H   0  0  0  0  0  0  0  0  0  0  0  0  # atno 6907 bound_to 6896
  150.9418  134.8827  159.7627 H   0  0  0  0  0  0  0  0  0  0  0  0  # atno 6908 bound_to 6896
  152.5074  134.3983  159.9460 H   0  0  0  0  0  0  0  0  0  0  0  0  # atno 6909 bound_to 6896
  144.9823  139.4491  143.5380 H   0  0  0  0  0  0  0  0  0  0  0  0  # atno 7974 bound_to 7965
  155.9094  140.3428  155.6087 H   0  0  0  0  0  0  0  0  0  0  0  0  # atno 8008 bound_to 7997
  155.7405  140.0807  157.2266 H   0  0  0  0  0  0  0  0  0  0  0  0  # atno 8009 bound_to 7997
  154.4054  140.1571  156.2598 H   0  0  0  0  0  0  0  0  0  0  0  0  # atno 8010 bound_to 7997
  139.8514  143.7194  152.2657 H   0  0  0  0  0  0  0  0  0  0  0  0  # atno 10167 bound_to 10162
  155.9997  130.4731  150.4561 H   0  0  0  0  0  0  0  0  0  0  0  0  # atno 10718 bound_to 10713
  153.5385  135.3563  155.2708 H   0  0  0  0  0  0  0  0  0  0  0  0  # atno 10763 bound_to 10752
  154.8720  135.4085  154.3071 H   0  0  0  0  0  0  0  0  0  0  0  0  # atno 10764 bound_to 10752
  153.3773  135.7067  153.6660 H   0  0  0  0  0  0  0  0  0  0  0  0  # atno 10765 bound_to 10752
  139.9004  134.8208  156.2430 H   0  0  0  0  0  0  0  0  0  0  0  0  # atno 11005 bound_to 11000
  146.3411  139.9104  142.8781 LP  0  0  0  0  0  0  0  0  0  0  0  0  # atno 17320 bound_to 7965
  145.2403  141.0006  143.3940 LP  0  0  0  0  0  0  0  0  0  0  0  0  # atno 17321 bound_to 7965
  139.7462  144.7546  151.0576 LP  0  0  0  0  0  0  0  0  0  0  0  0  # atno 17342 bound_to 10162
  140.7787  143.4914  150.9889 LP  0  0  0  0  0  0  0  0  0  0  0  0  # atno 17343 bound_to 10162
  157.2590  131.0563  151.2332 LP  0  0  0  0  0  0  0  0  0  0  0  0  # atno 17370 bound_to 10713
  157.3454  130.7054  149.6407 LP  0  0  0  0  0  0  0  0  0  0  0  0  # atno 17371 bound_to 10713
  141.0273  133.7008  156.1369 LP  0  0  0  0  0  0  0  0  0  0  0  0  # atno 17394 bound_to 11000
  140.7148  134.4422  157.5579 LP  0  0  0  0  0  0  0  0  0  0  0  0  # atno 17395 bound_to 11000

$$$$
