AV-unprocessed.smi:1758|AV-procd|sdf|7080|dock1
  -GOLD-   22720 8303D 1   1.00000     0.00000
 Structure written by MMmdl.
 44 46  0  0  0  0  0  0  0  0  2 V2000
  150.9746  142.0445  156.5323 C   0  0  0  0  0  0  0  0  0  0  0  0
  150.0639  140.8960  156.9817 C   0  0  0  0  0  0  0  0  0  0  0  0
  149.8293  139.9484  155.9101 N   0  0  0  0  0  0  0  0  0  0  0  0
  148.8888  138.9392  155.8553 C   0  0  0  0  0  0  0  0  0  0  0  0
  149.0745  138.3265  154.6482 C   0  0  0  0  0  0  0  0  0  0  0  0
  148.3765  137.2314  154.0796 N   0  0  0  0  0  0  0  0  0  0  0  0
  147.1416  136.8048  154.3903 C   0  0  0  0  0  0  0  0  0  0  0  0
  146.4116  137.3068  155.2451 O   0  0  0  0  0  0  0  0  0  0  0  0
  146.7922  135.7382  153.6576 N   0  0  0  0  0  0  0  0  0  0  0  0
  145.5170  135.0360  153.7748 C   0  0  1  0  0  0  0  0  0  0  0  0
  144.3146  135.8925  153.3993 C   0  0  0  0  0  0  0  0  0  0  0  0
  143.2182  134.8532  153.1414 C   0  0  0  0  0  0  0  0  0  0  0  0
  143.8998  133.6005  152.7311 N   0  3  1  0  0  0  0  0  0  0  0  0
  143.4392  133.0618  151.4231 C   0  0  0  0  0  0  0  0  0  0  0  0
  144.4321  132.0267  150.8741 C   0  0  0  0  0  0  0  0  0  0  0  0
  145.8159  132.6531  150.6181 C   0  0  0  0  0  0  0  0  0  0  0  0
  146.0623  133.9096  151.4756 C   0  0  0  0  0  0  0  0  0  0  0  0
  145.3709  133.8063  152.8574 C   0  0  1  0  0  0  0  0  0  0  0  0
  150.1440  139.0189  154.0230 C   0  0  0  0  0  0  0  0  0  0  0  0
  150.5975  139.9959  154.7935 N   0  0  0  0  0  0  0  0  0  0  0  0
  151.1421  142.7478  157.3482 H   0  0  0  0  0  0  0  0  0  0  0  0
  150.5327  142.5967  155.7024 H   0  0  0  0  0  0  0  0  0  0  0  0
  151.9472  141.6724  156.2088 H   0  0  0  0  0  0  0  0  0  0  0  0
  150.5129  140.3665  157.8226 H   0  0  0  0  0  0  0  0  0  0  0  0
  149.1049  141.2845  157.3273 H   0  0  0  0  0  0  0  0  0  0  0  0
  148.1940  138.7590  156.6621 H   0  0  0  0  0  0  0  0  0  0  0  0
  148.8740  136.7148  153.3689 H   0  0  0  0  0  0  0  0  0  0  0  0
  147.4500  135.3886  152.9760 H   0  0  0  0  0  0  0  0  0  0  0  0
  145.3846  134.7174  154.8110 H   0  0  0  0  0  0  0  0  0  0  0  0
  144.0425  136.6076  154.1764 H   0  0  0  0  0  0  0  0  0  0  0  0
  144.5174  136.4505  152.4839 H   0  0  0  0  0  0  0  0  0  0  0  0
  142.6717  134.6489  154.0628 H   0  0  0  0  0  0  0  0  0  0  0  0
  142.4941  135.2093  152.4075 H   0  0  0  0  0  0  0  0  0  0  0  0
  142.4517  132.6172  151.5508 H   0  0  0  0  0  0  0  0  0  0  0  0
  143.3299  133.8709  150.6987 H   0  0  0  0  0  0  0  0  0  0  0  0
  144.5281  131.2118  151.5930 H   0  0  0  0  0  0  0  0  0  0  0  0
  144.0501  131.5789  149.9562 H   0  0  0  0  0  0  0  0  0  0  0  0
  146.5853  131.9068  150.8192 H   0  0  0  0  0  0  0  0  0  0  0  0
  145.9183  132.9181  149.5654 H   0  0  0  0  0  0  0  0  0  0  0  0
  147.1370  134.0599  151.5808 H   0  0  0  0  0  0  0  0  0  0  0  0
  145.6843  134.7868  150.9483 H   0  0  0  0  0  0  0  0  0  0  0  0
  145.7885  132.9370  153.3678 H   0  0  0  0  0  0  0  0  0  0  0  0
  150.5988  138.8483  153.0584 H   0  0  0  0  0  0  0  0  0  0  0  0
  143.6610  132.9087  153.4273 H   0  0  0  0  0  0  0  0  0  0  0  0
  1  2  1  0  0  0  0
  1 21  1  0  0  0  0
  1 22  1  0  0  0  0
  1 23  1  0  0  0  0
  2  3  1  0  0  0  0
  2 24  1  0  0  0  0
  2 25  1  0  0  0  0
  3 20  1  0  0  0  0
  3  4  1  0  0  0  0
  4  5  2  0  0  0  0
  4 26  1  0  0  0  0
  5  6  1  0  0  0  0
  5 19  1  0  0  0  0
  6  7  1  0  0  0  0
  6 27  1  0  0  0  0
  7  8  2  0  0  0  0
  7  9  1  0  0  0  0
  9 10  1  0  0  0  0
  9 28  1  0  0  0  0
 10 18  1  0  0  0  0
 10 11  1  0  0  0  0
 10 29  1  0  0  0  0
 11 12  1  0  0  0  0
 11 30  1  0  0  0  0
 11 31  1  0  0  0  0
 12 13  1  0  0  0  0
 12 32  1  0  0  0  0
 12 33  1  0  0  0  0
 13 18  1  0  0  0  0
 13 14  1  0  0  0  0
 13 44  1  0  0  0  0
 14 15  1  0  0  0  0
 14 34  1  0  0  0  0
 14 35  1  0  0  0  0
 15 16  1  0  0  0  0
 15 36  1  0  0  0  0
 15 37  1  0  0  0  0
 16 17  1  0  0  0  0
 16 38  1  0  0  0  0
 16 39  1  0  0  0  0
 17 18  1  0  0  0  0
 17 40  1  0  0  0  0
 17 41  1  0  0  0  0
 18 42  1  0  0  0  0
 19 20  2  0  0  0  0
 19 43  1  0  0  0  0
M  CHG  1  13   1
M  END
> <s_m_source_file>
AV-unprocessed.smi

> <i_m_source_file_index>
1758

> <i_lp_mmshare_version>
43012

> <i_f3d_flags>
0

> <s_epik_input>
W0NIM11bQ0gyXW4xW2NIXWMoW2NIXW4xKVtOSF1DKD1PKVtOSF1bQ0BIXShbQ0gyXVtDSDJdMilbQ0BASF0oTjIzKVtDSDJdW0NIMl1bQ0gyXVtDSDJdMw==

> <s_epik_cmdline>
J2VwaWtfcHl0aG9uJywgJy1waCcsICc3LjAnLCAnLXRuJywgJzgnLCAnLW1hJywgJzIwMCcsICctbWV0YWxfYmluZGluZycsICctaW1hZScsICc8aW5maWxlLm1hZT4nLCAnLW9tYWUnLCAnPG91dGZpbGUubWFlPic=

> <r_lp_tautomer_probability>
1

> <r_epik_Ionization_Penalty>
0.00111541

> <r_epik_Ionization_Penalty_Charging>
0.000974069

> <r_epik_Ionization_Penalty_Neutral>
0.000141346

> <r_epik_State_Penalty>
0.000633842

> <r_epik_Charging_Adjusted_Penalty>
0.00160791

> <i_epik_Tot_Q>
1

> <i_epik_Tot_abs_Q>
1

> <r_epik_Metal_State_Penalty>
-0

> <b_epik_Metal_Only>
0

> <s_lp_Force_Field>
OPLS_2005

> <r_lp_Energy>
44.5039

> <b_lp_Chiralities_Consistent>
1

> <s_lp_Variant>
AV-unprocessed.smi:1758-2

> <Gold.Version>
5.8.1

> <Gold.Id.Protein>
6NUR|6NUR_protein|mol2

> <Gold.PLP.Fitness>
43.6366

> <Gold.PLP.PLP>
-28.0950

> <Gold.PLP.part.hbond>
-3.8721

> <Gold.PLP.part.metal>
0.0000

> <Gold.PLP.part.buried>
-4.3680

> <Gold.PLP.part.nonpolar>
-19.9889

> <Gold.PLP.part.repulsive>
0.0967

> <Gold.PLP.ligand.clash>
0.0000

> <Gold.PLP.ligand.torsion>
0.2674

> <Gold.PLP.Chemscore.Hbond>
4.6057

> <Gold.PLP.Chemscore.CHOScore>
0.7488

> <Gold.PLP.Chemscore.Metal>
0.0000

> <Gold.Chemscore.Hbonds>
donor molecule, donor type, donor heavy atom, donor atom, acceptor molecule, acceptor atom, score
      L1  H     6    27       P1  7948  0.99
      L1  H     9    28       P1  7948  0.71
      L1  H    13    44       P1 10957  2.00
      P1  H  7989  7998       L1    20  0.85
      L1  C    19    43       P1  7957  0.75

> <Gold.PLP.Chemscore.Internal.Correction>
0.0129

> <Gold.Rescore>
     Score         DG    S(hbond)    S(metal)    S(lipo)     H(rot)  DE(clash)    DE(int)     intcor
     18.04     -19.76       2.78        0.00      68.79       1.19       0.44       1.28       ----

> <Gold.Chemscore.Fitness>
18.0382

> <Gold.Chemscore.DG>
-19.7587

> <Gold.Chemscore.ZeroCoef>
-5.4800

> <Gold.Chemscore.Hbond>
2.7761

> <Gold.Chemscore.Metal>
0.0000

> <Gold.Chemscore.Lipo>
68.7933

> <Gold.Chemscore.Internal_Hbond>
0.0000

> <Gold.Chemscore.DEClash>
0.4445

> <Gold.Chemscore.DEInternal>
1.2761

> <Gold.Chemscore.Rot>
1.1884

> <Gold.Chemscore.Internal.Correction>
   9.000000E+99

> <Gold.Chemscore.Hbonds>
donor molecule, donor type, donor heavy atom, donor atom, acceptor molecule, acceptor atom, score
      L1  H     6    27       P1  7948  0.91
      L1  H     9    28       P1  7948  0.66
      L1  H    13    44       P1 10957  0.69
      P1  H  7989  7998       L1    20  0.15

> <Gold.Chemscore.Hbond.Weighted>
-9.2722

> <Gold.Chemscore.Metal.Weighted>
-0.0000

> <Gold.Chemscore.Lipo.Weighted>
-8.0488

> <Gold.Chemscore.Internal_Hbond.Weighted>
0.0000

> <Gold.Chemscore.DEClash.Weighted>
0.4445

> <Gold.Chemscore.DEInternal.Weighted>
1.2761

> <Gold.Chemscore.Rot.Weighted>
3.0423

> <Gold.Chemscore.Internal.Correction.Weighted>
   9.000000E+99

> <Gold.Protein.RotatedTorsions>
[ 6907 6896 6895 6894 ] final  -53.07 input  -60.11 | X-H torsion
[ 7974 7965 7964 7962 ] final  -56.05 input  175.53 | X-H torsion
[ 8008 7997 7996 7995 ] final   63.78 input   59.86 | X-H torsion
[ 10167 10162 10161 10158 ] final  123.34 input  -65.29 | X-H torsion
[ 10718 10713 10712 10709 ] final   45.29 input   66.30 | X-H torsion
[ 10763 10752 10751 10750 ] final  -32.41 input  -60.55 | X-H torsion
[ 11005 11000 10999 10996 ] final -164.45 input  -57.11 | X-H torsion

> <Gold.Protein.ActiveResidues>
 VAL166  LYS551  ARG553  GLY616  TRP617  ASP618  TYR619  PRO620  LYS621  CYS622 
 ASP623  PHE694  ASN695  SER759  ASP760  ASP761  ALA762  ILE779  LEU786  VAL792 
 PHE793  MET794  SER795  GLU796  ALA797  LYS798  CYS799  TRP800  GLU811  SER814 

> <Gold.Protein.RotatedAtoms>
  150.8460  134.7768  159.6970 H   0  0  0  0  0  0  0  0  0  0  0  0  # atno 6907 bound_to 6896
  152.4536  134.5336  159.9828 H   0  0  0  0  0  0  0  0  0  0  0  0  # atno 6908 bound_to 6896
  151.5467  133.3386  159.2981 H   0  0  0  0  0  0  0  0  0  0  0  0  # atno 6909 bound_to 6896
  145.8671  140.8243  142.9907 H   0  0  0  0  0  0  0  0  0  0  0  0  # atno 7974 bound_to 7965
  155.6356  140.3496  155.4697 H   0  0  0  0  0  0  0  0  0  0  0  0  # atno 8008 bound_to 7997
  155.9968  140.1205  157.0610 H   0  0  0  0  0  0  0  0  0  0  0  0  # atno 8009 bound_to 7997
  154.4236  140.1108  156.5627 H   0  0  0  0  0  0  0  0  0  0  0  0  # atno 8010 bound_to 7997
  139.5805  144.6984  151.3541 H   0  0  0  0  0  0  0  0  0  0  0  0  # atno 10167 bound_to 10162
  157.4359  130.8052  149.7648 H   0  0  0  0  0  0  0  0  0  0  0  0  # atno 10718 bound_to 10713
  153.8133  135.6880  153.4838 H   0  0  0  0  0  0  0  0  0  0  0  0  # atno 10763 bound_to 10752
  153.1615  135.4578  154.9777 H   0  0  0  0  0  0  0  0  0  0  0  0  # atno 10764 bound_to 10752
  154.7958  135.3319  154.7611 H   0  0  0  0  0  0  0  0  0  0  0  0  # atno 10765 bound_to 10752
  140.5868  134.5086  157.5187 H   0  0  0  0  0  0  0  0  0  0  0  0  # atno 11005 bound_to 11000
  144.6726  140.1182  143.7451 LP  0  0  0  0  0  0  0  0  0  0  0  0  # atno 17320 bound_to 7965
  145.9181  139.2528  143.1398 LP  0  0  0  0  0  0  0  0  0  0  0  0  # atno 17321 bound_to 7965
  140.7084  143.7455  150.7522 LP  0  0  0  0  0  0  0  0  0  0  0  0  # atno 17342 bound_to 10162
  140.0986  143.4809  152.2438 LP  0  0  0  0  0  0  0  0  0  0  0  0  # atno 17343 bound_to 10162
  155.9930  130.3927  150.2917 LP  0  0  0  0  0  0  0  0  0  0  0  0  # atno 17370 bound_to 10713
  157.1077  131.0213  151.3060 LP  0  0  0  0  0  0  0  0  0  0  0  0  # atno 17371 bound_to 10713
  139.9292  134.7996  156.0979 LP  0  0  0  0  0  0  0  0  0  0  0  0  # atno 17394 bound_to 11000
  141.0961  133.6695  156.2648 LP  0  0  0  0  0  0  0  0  0  0  0  0  # atno 17395 bound_to 11000

$$$$
