AV-unprocessed.smi:2759|AV-procd|sdf|10627|dock2
  -GOLD-   2272015 73D 1   1.00000     0.00000
 Structure written by MMmdl.
 43 44  0  0  0  0  0  0  0  0  1 V2000
  150.5746  144.2993  158.9685 C   0  0  0  0  0  0  0  0  0  0  0  0
  151.9966  143.7254  158.8241 C   0  0  0  0  0  0  0  0  0  0  0  0
  152.8351  144.6835  157.9557 C   0  0  0  0  0  0  0  0  0  0  0  0
  152.0076  142.2789  158.2609 C   0  0  1  0  0  0  0  0  0  0  0  0
  151.1480  141.4797  159.0534 O   0  0  0  0  0  0  0  0  0  0  0  0
  151.5222  142.1636  156.7988 C   0  0  0  0  0  0  0  0  0  0  0  0
  151.6532  140.7820  156.2446 C   0  0  0  0  0  0  0  0  0  0  0  0
  150.9917  140.2632  155.2130 N   0  0  0  0  0  0  0  0  0  0  0  0
  151.4817  138.9922  155.1995 C   0  0  0  0  0  0  0  0  0  0  0  0
  151.0597  137.9704  154.1898 C   0  0  0  0  0  0  0  0  0  0  0  0
  150.7819  136.6078  154.8363 C   0  0  0  0  0  0  0  0  0  0  0  0
  151.5577  136.1348  155.6683 O   0  0  0  0  0  0  0  0  0  0  0  0
  149.6643  135.9812  154.4367 N   0  0  0  0  0  0  0  0  0  0  0  0
  149.2059  134.6843  154.9285 C   0  0  0  0  0  0  0  0  0  0  0  0
  150.2997  133.6126  154.7561 C   0  0  0  0  0  0  0  0  0  0  0  0
  149.6163  132.4112  154.1008 C   0  0  0  0  0  0  0  0  0  0  0  0
  148.4901  133.0226  153.2738 C   0  0  0  0  0  0  0  0  0  0  0  0
  147.9849  134.1824  154.1324 C   0  0  0  0  0  0  0  0  0  0  0  0
  152.3538  138.6983  156.1578 N   0  0  0  0  0  0  0  0  0  0  0  0
  152.4702  139.9006  156.8701 O   0  0  0  0  0  0  0  0  0  0  0  0
  150.0327  144.2582  158.0231 H   0  0  0  0  0  0  0  0  0  0  0  0
  150.6043  145.3421  159.2858 H   0  0  0  0  0  0  0  0  0  0  0  0
  149.9898  143.7663  159.7168 H   0  0  0  0  0  0  0  0  0  0  0  0
  152.4449  143.7081  159.8188 H   0  0  0  0  0  0  0  0  0  0  0  0
  152.4577  144.7232  156.9334 H   0  0  0  0  0  0  0  0  0  0  0  0
  153.8820  144.3827  157.9125 H   0  0  0  0  0  0  0  0  0  0  0  0
  152.8136  145.6977  158.3556 H   0  0  0  0  0  0  0  0  0  0  0  0
  153.0203  141.8802  158.3382 H   0  0  0  0  0  0  0  0  0  0  0  0
  150.9761  140.6725  158.5924 H   0  0  0  0  0  0  0  0  0  0  0  0
  150.4854  142.4911  156.7096 H   0  0  0  0  0  0  0  0  0  0  0  0
  152.1029  142.8124  156.1456 H   0  0  0  0  0  0  0  0  0  0  0  0
  150.1706  138.3280  153.6680 H   0  0  0  0  0  0  0  0  0  0  0  0
  151.8423  137.8526  153.4397 H   0  0  0  0  0  0  0  0  0  0  0  0
  149.0837  136.4379  153.7483 H   0  0  0  0  0  0  0  0  0  0  0  0
  148.9427  134.7620  155.9853 H   0  0  0  0  0  0  0  0  0  0  0  0
  151.0927  133.9719  154.0981 H   0  0  0  0  0  0  0  0  0  0  0  0
  150.7667  133.3459  155.7049 H   0  0  0  0  0  0  0  0  0  0  0  0
  150.3024  131.8124  153.5011 H   0  0  0  0  0  0  0  0  0  0  0  0
  149.1943  131.7636  154.8705 H   0  0  0  0  0  0  0  0  0  0  0  0
  148.8904  133.4065  152.3345 H   0  0  0  0  0  0  0  0  0  0  0  0
  147.7056  132.3041  153.0344 H   0  0  0  0  0  0  0  0  0  0  0  0
  147.2315  133.8119  154.8289 H   0  0  0  0  0  0  0  0  0  0  0  0
  147.5079  134.9574  153.5308 H   0  0  0  0  0  0  0  0  0  0  0  0
  1  2  1  0  0  0  0
  1 21  1  0  0  0  0
  1 22  1  0  0  0  0
  1 23  1  0  0  0  0
  2  3  1  0  0  0  0
  2  4  1  0  0  0  0
  2 24  1  0  0  0  0
  3 25  1  0  0  0  0
  3 26  1  0  0  0  0
  3 27  1  0  0  0  0
  4  5  1  0  0  0  0
  4  6  1  0  0  0  0
  4 28  1  0  0  0  0
  5 29  1  0  0  0  0
  6  7  1  0  0  0  0
  6 30  1  0  0  0  0
  6 31  1  0  0  0  0
  7 20  1  0  0  0  0
  7  8  2  0  0  0  0
  8  9  1  0  0  0  0
  9 10  1  0  0  0  0
  9 19  2  0  0  0  0
 10 11  1  0  0  0  0
 10 32  1  0  0  0  0
 10 33  1  0  0  0  0
 11 12  2  0  0  0  0
 11 13  1  0  0  0  0
 13 14  1  0  0  0  0
 13 34  1  0  0  0  0
 14 18  1  0  0  0  0
 14 15  1  0  0  0  0
 14 35  1  0  0  0  0
 15 16  1  0  0  0  0
 15 36  1  0  0  0  0
 15 37  1  0  0  0  0
 16 17  1  0  0  0  0
 16 38  1  0  0  0  0
 16 39  1  0  0  0  0
 17 18  1  0  0  0  0
 17 40  1  0  0  0  0
 17 41  1  0  0  0  0
 18 42  1  0  0  0  0
 18 43  1  0  0  0  0
 19 20  1  0  0  0  0
M  END
> <s_m_source_file>
AV-unprocessed.smi

> <i_m_source_file_index>
2759

> <i_lp_mmshare_version>
43012

> <i_f3d_flags>
0

> <s_epik_input>
W0NIM11bQ0hdKFtDSDNdKVtDQEhdKFtPSF0pW0NIMl1jMW5jKG5vMSlbQ0gyXUMoPU8pW05IXVtDSF0yW0NIMl1bQ0gyXVtDSDJdW0NIMl0y

> <s_epik_cmdline>
J2VwaWtfcHl0aG9uJywgJy1waCcsICc3LjAnLCAnLXRuJywgJzgnLCAnLW1hJywgJzIwMCcsICctbWV0YWxfYmluZGluZycsICctaW1hZScsICc8aW5maWxlLm1hZT4nLCAnLW9tYWUnLCAnPG91dGZpbGUubWFlPic=

> <r_lp_tautomer_probability>
1

> <r_epik_Ionization_Penalty>
1.20032e-07

> <r_epik_Ionization_Penalty_Charging>
0

> <r_epik_Ionization_Penalty_Neutral>
1.20032e-07

> <r_epik_State_Penalty>
-0

> <r_epik_Charging_Adjusted_Penalty>
0

> <i_epik_Tot_Q>
0

> <i_epik_Tot_abs_Q>
0

> <r_epik_Metal_State_Penalty>
-0

> <b_epik_Metal_Only>
0

> <s_lp_Force_Field>
OPLS_2005

> <r_lp_Energy>
21.2868

> <b_lp_Chiralities_Consistent>
1

> <s_lp_Variant>
AV-unprocessed.smi:2759-2

> <Gold.Version>
5.8.1

> <Gold.Id.Protein>
6NUR|6NUR_protein|mol2

> <Gold.PLP.Fitness>
48.8283

> <Gold.PLP.PLP>
-39.9286

> <Gold.PLP.part.hbond>
-4.2293

> <Gold.PLP.part.metal>
0.0000

> <Gold.PLP.part.buried>
-5.5591

> <Gold.PLP.part.nonpolar>
-28.7888

> <Gold.PLP.part.repulsive>
0.1314

> <Gold.PLP.ligand.clash>
0.0000

> <Gold.PLP.ligand.torsion>
0.7458

> <Gold.PLP.Chemscore.Hbond>
3.4367

> <Gold.PLP.Chemscore.CHOScore>
0.0000

> <Gold.PLP.Chemscore.Metal>
0.0000

> <Gold.Chemscore.Hbonds>
donor molecule, donor type, donor heavy atom, donor atom, acceptor molecule, acceptor atom, score
      L1  H    13    34       P1  7948  0.61
      P1  H  7989  7998       L1     8  1.00
      P1  H  7997  8008       L1    20  0.85
      P1  H 10752 10765       L1    12  1.00

> <Gold.PLP.Chemscore.Internal.Correction>
0.0810

> <Gold.Rescore>
     Score         DG    S(hbond)    S(metal)    S(lipo)     H(rot)  DE(clash)    DE(int)     intcor
     12.57     -17.59       2.49        0.00      90.36       2.65       1.85       3.18       ----

> <Gold.Chemscore.Fitness>
12.5657

> <Gold.Chemscore.DG>
-17.5876

> <Gold.Chemscore.ZeroCoef>
-5.4800

> <Gold.Chemscore.Hbond>
2.4940

> <Gold.Chemscore.Metal>
0.0000

> <Gold.Chemscore.Lipo>
90.3645

> <Gold.Chemscore.Internal_Hbond>
0.0000

> <Gold.Chemscore.DEClash>
1.8463

> <Gold.Chemscore.DEInternal>
3.1756

> <Gold.Chemscore.Rot>
2.6543

> <Gold.Chemscore.Internal.Correction>
   9.000000E+99

> <Gold.Chemscore.Hbonds>
donor molecule, donor type, donor heavy atom, donor atom, acceptor molecule, acceptor atom, score
      L1  H    13    34       P1  7948  0.61
      P1  H  7989  7998       L1     8  0.21
      P1  H  7997  8008       L1    20  0.14
      P1  H 10752 10765       L1    12  0.82

> <Gold.Chemscore.Hbond.Weighted>
-8.3300

> <Gold.Chemscore.Metal.Weighted>
-0.0000

> <Gold.Chemscore.Lipo.Weighted>
-10.5726

> <Gold.Chemscore.Internal_Hbond.Weighted>
0.0000

> <Gold.Chemscore.DEClash.Weighted>
1.8463

> <Gold.Chemscore.DEInternal.Weighted>
3.1756

> <Gold.Chemscore.Rot.Weighted>
6.7950

> <Gold.Chemscore.Internal.Correction.Weighted>
   9.000000E+99

> <Gold.Protein.RotatedTorsions>
[ 6907 6896 6895 6894 ] final -105.26 input  -60.11 | X-H torsion
[ 7974 7965 7964 7962 ] final  -98.69 input  175.53 | X-H torsion
[ 8008 7997 7996 7995 ] final  -66.22 input   59.86 | X-H torsion
[ 10167 10162 10161 10158 ] final   29.27 input  -65.29 | X-H torsion
[ 10718 10713 10712 10709 ] final  176.65 input   66.30 | X-H torsion
[ 10763 10752 10751 10750 ] final -160.58 input  -60.55 | X-H torsion
[ 11005 11000 10999 10996 ] final   60.56 input  -57.11 | X-H torsion

> <Gold.Protein.ActiveResidues>
 VAL166  LYS551  ARG553  GLY616  TRP617  ASP618  TYR619  PRO620  LYS621  CYS622 
 ASP623  PHE694  ASN695  SER759  ASP760  ASP761  ALA762  ILE779  LEU786  VAL792 
 PHE793  MET794  SER795  GLU796  ALA797  LYS798  CYS799  TRP800  GLU811  SER814 

> <Gold.Protein.RotatedAtoms>
  150.7328  134.0153  159.3683 H   0  0  0  0  0  0  0  0  0  0  0  0  # atno 6907 bound_to 6896
  151.8115  135.0677  160.0423 H   0  0  0  0  0  0  0  0  0  0  0  0  # atno 6908 bound_to 6896
  152.3069  133.5676  159.5691 H   0  0  0  0  0  0  0  0  0  0  0  0  # atno 6909 bound_to 6896
  145.3173  140.9414  143.2735 H   0  0  0  0  0  0  0  0  0  0  0  0  # atno 7974 bound_to 7965
  154.4721  140.0917  156.7170 H   0  0  0  0  0  0  0  0  0  0  0  0  # atno 8008 bound_to 7997
  155.4696  140.3464  155.4305 H   0  0  0  0  0  0  0  0  0  0  0  0  # atno 8009 bound_to 7997
  156.1056  140.1434  156.9397 H   0  0  0  0  0  0  0  0  0  0  0  0  # atno 8010 bound_to 7997
  140.4780  144.0659  150.6257 H   0  0  0  0  0  0  0  0  0  0  0  0  # atno 10167 bound_to 10162
  156.9169  130.9928  151.3011 H   0  0  0  0  0  0  0  0  0  0  0  0  # atno 10718 bound_to 10713
  154.7378  135.3061  154.8782 H   0  0  0  0  0  0  0  0  0  0  0  0  # atno 10763 bound_to 10752
  153.9605  135.6753  153.4749 H   0  0  0  0  0  0  0  0  0  0  0  0  # atno 10764 bound_to 10752
  153.0979  135.4926  154.8736 H   0  0  0  0  0  0  0  0  0  0  0  0  # atno 10765 bound_to 10752
  140.0223  134.6135  155.9622 H   0  0  0  0  0  0  0  0  0  0  0  0  # atno 11005 bound_to 11000
  144.8967  139.4702  143.6652 LP  0  0  0  0  0  0  0  0  0  0  0  0  # atno 17320 bound_to 7965
  146.3095  139.7698  142.9030 LP  0  0  0  0  0  0  0  0  0  0  0  0  # atno 17321 bound_to 7965
  140.3893  143.2761  152.0079 LP  0  0  0  0  0  0  0  0  0  0  0  0  # atno 17342 bound_to 10162
  139.4829  144.6090  151.7468 LP  0  0  0  0  0  0  0  0  0  0  0  0  # atno 17343 bound_to 10162
  157.5932  130.8459  149.8690 LP  0  0  0  0  0  0  0  0  0  0  0  0  # atno 17370 bound_to 10713
  156.0509  130.3718  150.1203 LP  0  0  0  0  0  0  0  0  0  0  0  0  # atno 17371 bound_to 10713
  141.1781  133.6543  156.4910 LP  0  0  0  0  0  0  0  0  0  0  0  0  # atno 17394 bound_to 11000
  140.4366  134.7053  157.4970 LP  0  0  0  0  0  0  0  0  0  0  0  0  # atno 17395 bound_to 11000

$$$$
