AV-unprocessed.smi:3301|AV-procd|sdf|12654|dock8
  -GOLD-   2272018593D 1   1.00000     0.00000
 Structure written by MMmdl.
 36 37  0  0  0  0  0  0  0  0  1 V2000
  149.5446  139.6931  156.8519 C   0  0  0  0  0  0  0  0  0  0  0  0
  149.8675  141.1880  156.7255 C   0  0  2  0  0  0  0  0  0  0  0  0
  149.8807  141.6367  155.2481 C   0  0  0  0  0  0  0  0  0  0  0  0
  148.6123  141.4087  154.5797 N   0  0  0  0  0  0  0  0  0  0  0  0
  147.4045  142.0452  154.8339 C   0  0  0  0  0  0  0  0  0  0  0  0
  146.4814  141.4959  153.9734 C   0  0  0  0  0  0  0  0  0  0  0  0
  147.0977  140.5341  153.1765 N   0  0  0  0  0  0  0  0  0  0  0  0
  148.3582  140.5408  153.5907 C   0  0  0  0  0  0  0  0  0  0  0  0
  151.1584  141.4514  157.3611 N   0  0  0  0  0  0  0  0  0  0  0  0
  151.3419  142.1215  158.5097 C   0  0  0  0  0  0  0  0  0  0  0  0
  150.4164  142.5613  159.1931 O   0  0  0  0  0  0  0  0  0  0  0  0
  152.7948  142.3149  158.9578 C   0  0  0  0  0  0  0  0  0  0  0  0
  152.8867  142.8339  160.3222 N   0  0  0  0  0  0  0  0  0  0  0  0
  153.6478  142.1267  161.3388 C   0  0  0  0  0  0  0  0  0  0  0  0
  153.2847  142.8193  162.6601 C   0  0  0  0  0  0  0  0  0  0  0  0
  152.6013  144.1338  162.2674 C   0  0  0  0  0  0  0  0  0  0  0  0
  152.3094  143.9484  160.7884 C   0  0  0  0  0  0  0  0  0  0  0  0
  151.6273  144.7389  160.1378 O   0  0  0  0  0  0  0  0  0  0  0  0
  148.5704  139.4650  156.4186 H   0  0  0  0  0  0  0  0  0  0  0  0
  149.5190  139.3836  157.8972 H   0  0  0  0  0  0  0  0  0  0  0  0
  150.2876  139.0804  156.3402 H   0  0  0  0  0  0  0  0  0  0  0  0
  149.0787  141.7312  157.2491 H   0  0  0  0  0  0  0  0  0  0  0  0
  150.1325  142.6955  155.1716 H   0  0  0  0  0  0  0  0  0  0  0  0
  150.6495  141.0931  154.6977 H   0  0  0  0  0  0  0  0  0  0  0  0
  147.3007  142.8060  155.5934 H   0  0  0  0  0  0  0  0  0  0  0  0
  145.4298  141.7176  153.8676 H   0  0  0  0  0  0  0  0  0  0  0  0
  149.1132  139.8926  153.1709 H   0  0  0  0  0  0  0  0  0  0  0  0
  151.9786  141.1214  156.8733 H   0  0  0  0  0  0  0  0  0  0  0  0
  153.3102  141.3557  158.8944 H   0  0  0  0  0  0  0  0  0  0  0  0
  153.3127  142.9916  158.2757 H   0  0  0  0  0  0  0  0  0  0  0  0
  153.3993  141.0647  161.3574 H   0  0  0  0  0  0  0  0  0  0  0  0
  154.7127  142.2257  161.1242 H   0  0  0  0  0  0  0  0  0  0  0  0
  152.5911  142.1983  163.2288 H   0  0  0  0  0  0  0  0  0  0  0  0
  154.1635  142.9851  163.2840 H   0  0  0  0  0  0  0  0  0  0  0  0
  151.6869  144.3093  162.8351 H   0  0  0  0  0  0  0  0  0  0  0  0
  153.2683  144.9859  162.4017 H   0  0  0  0  0  0  0  0  0  0  0  0
  1  2  1  0  0  0  0
  1 19  1  0  0  0  0
  1 20  1  0  0  0  0
  1 21  1  0  0  0  0
  2  3  1  0  0  0  0
  2  9  1  0  0  0  0
  2 22  1  0  0  0  0
  3  4  1  0  0  0  0
  3 23  1  0  0  0  0
  3 24  1  0  0  0  0
  4  8  1  0  0  0  0
  4  5  1  0  0  0  0
  5  6  2  0  0  0  0
  5 25  1  0  0  0  0
  6  7  1  0  0  0  0
  6 26  1  0  0  0  0
  7  8  2  0  0  0  0
  8 27  1  0  0  0  0
  9 10  1  0  0  0  0
  9 28  1  0  0  0  0
 10 11  2  0  0  0  0
 10 12  1  0  0  0  0
 12 13  1  0  0  0  0
 12 29  1  0  0  0  0
 12 30  1  0  0  0  0
 13 17  1  0  0  0  0
 13 14  1  0  0  0  0
 14 15  1  0  0  0  0
 14 31  1  0  0  0  0
 14 32  1  0  0  0  0
 15 16  1  0  0  0  0
 15 33  1  0  0  0  0
 15 34  1  0  0  0  0
 16 17  1  0  0  0  0
 16 35  1  0  0  0  0
 16 36  1  0  0  0  0
 17 18  2  0  0  0  0
M  END
> <s_m_source_file>
AV-unprocessed.smi

> <i_m_source_file_index>
3301

> <i_lp_mmshare_version>
43012

> <i_f3d_flags>
0

> <s_epik_input>
W2NIXTFuW2NIXVtjSF1uMVtDSDJdW0NAQEhdKFtDSDNdKVtOSF1DKD1PKVtDSDJdTjJbQ0gyXVtDSDJdW0NIMl1DMj1P

> <s_epik_cmdline>
J2VwaWtfcHl0aG9uJywgJy1waCcsICc3LjAnLCAnLXRuJywgJzgnLCAnLW1hJywgJzIwMCcsICctbWV0YWxfYmluZGluZycsICctaW1hZScsICc8aW5maWxlLm1hZT4nLCAnLW9tYWUnLCAnPG91dGZpbGUubWFlPic=

> <r_lp_tautomer_probability>
1

> <r_epik_Ionization_Penalty>
0.623868

> <r_epik_Ionization_Penalty_Charging>
0.623868

> <r_epik_Ionization_Penalty_Neutral>
4.45089e-08

> <r_epik_State_Penalty>
0.640129

> <r_epik_Charging_Adjusted_Penalty>
1.264

> <i_epik_Tot_Q>
0

> <i_epik_Tot_abs_Q>
0

> <r_epik_Metal_State_Penalty>
0.307431

> <b_epik_Metal_Only>
0

> <s_lp_Force_Field>
OPLS_2005

> <r_lp_Energy>
13.1823

> <b_lp_Chiralities_Consistent>
1

> <s_lp_Variant>
AV-unprocessed.smi:3301-3

> <Gold.Version>
5.8.1

> <Gold.Id.Protein>
6NUR|6NUR_protein|mol2

> <Gold.PLP.Fitness>
46.0903

> <Gold.PLP.PLP>
-39.1212

> <Gold.PLP.part.hbond>
-1.0000

> <Gold.PLP.part.metal>
0.0000

> <Gold.PLP.part.buried>
-1.7296

> <Gold.PLP.part.nonpolar>
-36.6785

> <Gold.PLP.part.repulsive>
0.3682

> <Gold.PLP.ligand.clash>
0.0000

> <Gold.PLP.ligand.torsion>
0.2507

> <Gold.PLP.Chemscore.Hbond>
0.0000

> <Gold.PLP.Chemscore.CHOScore>
2.4778

> <Gold.PLP.Chemscore.Metal>
0.0000

> <Gold.Chemscore.Hbonds>
donor molecule, donor type, donor heavy atom, donor atom, acceptor molecule, acceptor atom, score
      L1  C     5    25       P1  8028  0.77
      L1  C     6    26       P1 10175  0.83
      L1  C     8    27       P1  7957  0.80

> <Gold.PLP.Chemscore.Internal.Correction>
0.0372

> <Gold.Rescore>
     Score         DG    S(hbond)    S(metal)    S(lipo)     H(rot)  DE(clash)    DE(int)     intcor
      4.98      -7.94       0.00        0.00      70.56       2.26       0.12       2.84       ----

> <Gold.Chemscore.Fitness>
4.9781

> <Gold.Chemscore.DG>
-7.9383

> <Gold.Chemscore.ZeroCoef>
-5.4800

> <Gold.Chemscore.Hbond>
0.0000

> <Gold.Chemscore.Metal>
0.0000

> <Gold.Chemscore.Lipo>
70.5624

> <Gold.Chemscore.Internal_Hbond>
0.0000

> <Gold.Chemscore.DEClash>
0.1189

> <Gold.Chemscore.DEInternal>
2.8413

> <Gold.Chemscore.Rot>
2.2647

> <Gold.Chemscore.Internal.Correction>
   9.000000E+99

> <Gold.Chemscore.Hbond.Weighted>
-0.0000

> <Gold.Chemscore.Metal.Weighted>
-0.0000

> <Gold.Chemscore.Lipo.Weighted>
-8.2558

> <Gold.Chemscore.Internal_Hbond.Weighted>
0.0000

> <Gold.Chemscore.DEClash.Weighted>
0.1189

> <Gold.Chemscore.DEInternal.Weighted>
2.8413

> <Gold.Chemscore.Rot.Weighted>
5.7975

> <Gold.Chemscore.Internal.Correction.Weighted>
   9.000000E+99

> <Gold.Protein.RotatedTorsions>
[ 6907 6896 6895 6894 ] final -151.40 input  -60.11 | X-H torsion
[ 7974 7965 7964 7962 ] final  168.82 input  175.53 | X-H torsion
[ 8008 7997 7996 7995 ] final  -17.00 input   59.86 | X-H torsion
[ 10167 10162 10161 10158 ] final  -20.88 input  -65.29 | X-H torsion
[ 10718 10713 10712 10709 ] final   69.13 input   66.30 | X-H torsion
[ 10763 10752 10751 10750 ] final  121.80 input  -60.55 | X-H torsion
[ 11005 11000 10999 10996 ] final   63.40 input  -57.11 | X-H torsion

> <Gold.Protein.ActiveResidues>
 VAL166  LYS551  ARG553  GLY616  TRP617  ASP618  TYR619  PRO620  LYS621  CYS622 
 ASP623  PHE694  ASN695  SER759  ASP760  ASP761  ALA762  ILE779  LEU786  VAL792 
 PHE793  MET794  SER795  GLU796  ALA797  LYS798  CYS799  TRP800  GLU811  SER814 

> <Gold.Protein.RotatedAtoms>
  151.2126  133.4547  159.2598 H   0  0  0  0  0  0  0  0  0  0  0  0  # atno 6907 bound_to 6896
  151.0962  134.9945  159.8437 H   0  0  0  0  0  0  0  0  0  0  0  0  # atno 6908 bound_to 6896
  152.5439  134.2056  159.8782 H   0  0  0  0  0  0  0  0  0  0  0  0  # atno 6909 bound_to 6896
  144.7375  139.8964  143.6406 H   0  0  0  0  0  0  0  0  0  0  0  0  # atno 7974 bound_to 7965
  154.5010  140.2154  155.9346 H   0  0  0  0  0  0  0  0  0  0  0  0  # atno 8008 bound_to 7997
  156.1434  140.3175  155.8499 H   0  0  0  0  0  0  0  0  0  0  0  0  # atno 8009 bound_to 7997
  155.4077  140.0488  157.3024 H   0  0  0  0  0  0  0  0  0  0  0  0  # atno 8010 bound_to 7997
  140.7279  143.4681  151.0285 H   0  0  0  0  0  0  0  0  0  0  0  0  # atno 10167 bound_to 10162
  157.6329  130.9410  150.0472 H   0  0  0  0  0  0  0  0  0  0  0  0  # atno 10718 bound_to 10713
  153.6197  135.3415  155.3006 H   0  0  0  0  0  0  0  0  0  0  0  0  # atno 10763 bound_to 10752
  154.8602  135.4270  154.2221 H   0  0  0  0  0  0  0  0  0  0  0  0  # atno 10764 bound_to 10752
  153.3091  135.7030  153.7205 H   0  0  0  0  0  0  0  0  0  0  0  0  # atno 10765 bound_to 10752
  140.0027  134.6417  155.9905 H   0  0  0  0  0  0  0  0  0  0  0  0  # atno 11005 bound_to 11000
  146.1104  139.4108  143.0291 LP  0  0  0  0  0  0  0  0  0  0  0  0  # atno 17320 bound_to 7965
  145.7451  140.9993  143.1280 LP  0  0  0  0  0  0  0  0  0  0  0  0  # atno 17321 bound_to 7965
  139.8370  143.7614  152.3180 LP  0  0  0  0  0  0  0  0  0  0  0  0  # atno 17342 bound_to 10162
  139.7749  144.7464  151.0170 LP  0  0  0  0  0  0  0  0  0  0  0  0  # atno 17343 bound_to 10162
  156.1545  130.3643  149.9389 LP  0  0  0  0  0  0  0  0  0  0  0  0  # atno 17370 bound_to 10713
  156.7401  130.9076  151.3631 LP  0  0  0  0  0  0  0  0  0  0  0  0  # atno 17371 bound_to 10713
  141.1654  133.6537  156.4461 LP  0  0  0  0  0  0  0  0  0  0  0  0  # atno 17394 bound_to 11000
  140.4698  134.6763  157.5124 LP  0  0  0  0  0  0  0  0  0  0  0  0  # atno 17395 bound_to 11000

$$$$
