AV-unprocessed.smi:644|AV-procd|sdf|3155|dock6
  -GOLD-   22720 0 73D 1   1.00000     0.00000
 Structure written by MMmdl.
 37 39  0  0  0  0  0  0  0  0  1 V2000
  151.6492  144.7639  159.1664 C   0  0  0  0  0  0  0  0  0  0  0  0
  152.1381  143.3637  159.4922 C   0  0  0  0  0  0  0  0  0  0  0  0
  152.1750  142.3929  158.4660 C   0  0  0  0  0  0  0  0  0  0  0  0
  152.6253  141.0803  158.7266 C   0  0  0  0  0  0  0  0  0  0  0  0
  152.7462  139.9874  157.8854 N   0  0  0  0  0  0  0  0  0  0  0  0
  153.2197  139.0617  158.7145 C   0  0  0  0  0  0  0  0  0  0  0  0
  153.4238  139.4270  159.9947 N   0  0  0  0  0  0  0  0  0  0  0  0
  153.9318  138.5976  161.0732 C   0  0  0  0  0  0  0  0  0  0  0  0
  154.2359  137.1584  160.6153 C   0  0  2  0  0  0  0  0  0  0  0  0
  153.0244  136.4947  160.3076 O   0  0  0  0  0  0  0  0  0  0  0  0
  154.9893  136.3578  161.6891 C   0  0  0  0  0  0  0  0  0  0  0  0
  154.1474  136.4123  163.2974 S   0  0  0  0  0  0  0  0  0  0  0  0
  154.4070  134.7365  163.7497 C   0  0  0  0  0  0  0  0  0  0  0  0
  155.0274  133.8431  162.9695 N   0  0  0  0  0  0  0  0  0  0  0  0
  155.1006  132.5903  163.5652 N   0  0  0  0  0  0  0  0  0  0  0  0
  154.5286  132.5880  164.7725 C   0  0  0  0  0  0  0  0  0  0  0  0
  153.8485  134.1168  165.2988 S   0  0  0  0  0  0  0  0  0  0  0  0
  153.0398  140.7623  160.0531 C   0  0  0  0  0  0  0  0  0  0  0  0
  153.0062  141.7188  161.0831 C   0  0  0  0  0  0  0  0  0  0  0  0
  152.5554  143.0263  160.8050 C   0  0  0  0  0  0  0  0  0  0  0  0
  152.5263  144.0535  161.9231 C   0  0  0  0  0  0  0  0  0  0  0  0
  151.3470  144.8468  158.1221 H   0  0  0  0  0  0  0  0  0  0  0  0
  152.4380  145.4950  159.3453 H   0  0  0  0  0  0  0  0  0  0  0  0
  150.7892  145.0228  159.7844 H   0  0  0  0  0  0  0  0  0  0  0  0
  151.8579  142.6496  157.4659 H   0  0  0  0  0  0  0  0  0  0  0  0
  153.4353  138.0605  158.3709 H   0  0  0  0  0  0  0  0  0  0  0  0
  154.8339  139.0678  161.4667 H   0  0  0  0  0  0  0  0  0  0  0  0
  153.2028  138.5936  161.8852 H   0  0  0  0  0  0  0  0  0  0  0  0
  154.8412  137.1938  159.7087 H   0  0  0  0  0  0  0  0  0  0  0  0
  152.5524  137.0120  159.6729 H   0  0  0  0  0  0  0  0  0  0  0  0
  155.0674  135.3123  161.3879 H   0  0  0  0  0  0  0  0  0  0  0  0
  156.0076  136.7331  161.7988 H   0  0  0  0  0  0  0  0  0  0  0  0
  154.5069  131.6798  165.3565 H   0  0  0  0  0  0  0  0  0  0  0  0
  153.3268  141.4477  162.0781 H   0  0  0  0  0  0  0  0  0  0  0  0
  152.9042  143.6367  162.8572 H   0  0  0  0  0  0  0  0  0  0  0  0
  151.5068  144.3976  162.0984 H   0  0  0  0  0  0  0  0  0  0  0  0
  153.1441  144.9149  161.6681 H   0  0  0  0  0  0  0  0  0  0  0  0
  1  2  1  0  0  0  0
  1 22  1  0  0  0  0
  1 23  1  0  0  0  0
  1 24  1  0  0  0  0
  2 20  1  0  0  0  0
  2  3  2  0  0  0  0
  3  4  1  0  0  0  0
  3 25  1  0  0  0  0
  4 18  2  0  0  0  0
  4  5  1  0  0  0  0
  5  6  2  0  0  0  0
  6  7  1  0  0  0  0
  6 26  1  0  0  0  0
  7  8  1  0  0  0  0
  7 18  1  0  0  0  0
  8  9  1  0  0  0  0
  8 27  1  0  0  0  0
  8 28  1  0  0  0  0
  9 10  1  0  0  0  0
  9 11  1  0  0  0  0
  9 29  1  0  0  0  0
 10 30  1  0  0  0  0
 11 12  1  0  0  0  0
 11 31  1  0  0  0  0
 11 32  1  0  0  0  0
 12 13  1  0  0  0  0
 13 17  1  0  0  0  0
 13 14  2  0  0  0  0
 14 15  1  0  0  0  0
 15 16  2  0  0  0  0
 16 17  1  0  0  0  0
 16 33  1  0  0  0  0
 18 19  1  0  0  0  0
 19 20  2  0  0  0  0
 19 34  1  0  0  0  0
 20 21  1  0  0  0  0
 21 35  1  0  0  0  0
 21 36  1  0  0  0  0
 21 37  1  0  0  0  0
M  END
> <s_m_source_file>
AV-unprocessed.smi

> <i_m_source_file_index>
644

> <i_lp_mmshare_version>
43012

> <i_f3d_flags>
0

> <s_epik_input>
W0NIM11jKFtjSF0xKWMoW0NIM10pW2NIXWMoYzEyKW4oW2NIXW4yKVtDSDJdW0NASF0oW09IXSlbQ0gyXVNjM25uW2NIXXMz

> <s_epik_cmdline>
J2VwaWtfcHl0aG9uJywgJy1waCcsICc3LjAnLCAnLXRuJywgJzgnLCAnLW1hJywgJzIwMCcsICctbWV0YWxfYmluZGluZycsICctaW1hZScsICc8aW5maWxlLm1hZT4nLCAnLW9tYWUnLCAnPG91dGZpbGUubWFlPic=

> <r_lp_tautomer_probability>
1

> <r_epik_Ionization_Penalty>
0.105397

> <r_epik_Ionization_Penalty_Charging>
0

> <r_epik_Ionization_Penalty_Neutral>
0.105397

> <r_epik_State_Penalty>
0.0952713

> <r_epik_Charging_Adjusted_Penalty>
0.0952713

> <i_epik_Tot_Q>
0

> <i_epik_Tot_abs_Q>
0

> <r_epik_Metal_State_Penalty>
0.0807681

> <b_epik_Metal_Only>
0

> <s_lp_Force_Field>
OPLS_2005

> <r_lp_Energy>
9.27729

> <b_lp_Chiralities_Consistent>
1

> <s_lp_Variant>
AV-unprocessed.smi:644-1

> <Gold.Version>
5.8.1

> <Gold.Id.Protein>
6NUR|6NUR_protein|mol2

> <Gold.PLP.Fitness>
47.7910

> <Gold.PLP.PLP>
-43.5748

> <Gold.PLP.part.hbond>
-2.0000

> <Gold.PLP.part.metal>
0.0000

> <Gold.PLP.part.buried>
-3.4006

> <Gold.PLP.part.nonpolar>
-36.0914

> <Gold.PLP.part.repulsive>
0.0000

> <Gold.PLP.ligand.clash>
0.0000

> <Gold.PLP.ligand.torsion>
0.3651

> <Gold.PLP.Chemscore.Hbond>
1.6272

> <Gold.PLP.Chemscore.CHOScore>
0.0000

> <Gold.PLP.Chemscore.Metal>
0.0000

> <Gold.Chemscore.Hbonds>
donor molecule, donor type, donor heavy atom, donor atom, acceptor molecule, acceptor atom, score
      P1  H  6896  6908       L1    10  0.75
      P1  H  7997  8008       L1     5  0.75

> <Gold.PLP.Chemscore.Internal.Correction>
0.0649

> <Gold.Rescore>
     Score         DG    S(hbond)    S(metal)    S(lipo)     H(rot)  DE(clash)    DE(int)     intcor
     17.33     -17.96       0.97        0.00     132.67       2.46       0.07       0.56       ----

> <Gold.Chemscore.Fitness>
17.3288

> <Gold.Chemscore.DG>
-17.9610

> <Gold.Chemscore.ZeroCoef>
-5.4800

> <Gold.Chemscore.Hbond>
0.9741

> <Gold.Chemscore.Metal>
0.0000

> <Gold.Chemscore.Lipo>
132.6680

> <Gold.Chemscore.Internal_Hbond>
0.0000

> <Gold.Chemscore.DEClash>
0.0739

> <Gold.Chemscore.DEInternal>
0.5583

> <Gold.Chemscore.Rot>
2.4588

> <Gold.Chemscore.Internal.Correction>
   9.000000E+99

> <Gold.Chemscore.Hbonds>
donor molecule, donor type, donor heavy atom, donor atom, acceptor molecule, acceptor atom, score
      P1  H  6896  6908       L1    10  0.09
      P1  H  7997  8008       L1     5  0.14

> <Gold.Chemscore.Hbond.Weighted>
-3.2534

> <Gold.Chemscore.Metal.Weighted>
-0.0000

> <Gold.Chemscore.Lipo.Weighted>
-15.5222

> <Gold.Chemscore.Internal_Hbond.Weighted>
0.0000

> <Gold.Chemscore.DEClash.Weighted>
0.0739

> <Gold.Chemscore.DEInternal.Weighted>
0.5583

> <Gold.Chemscore.Rot.Weighted>
6.2946

> <Gold.Chemscore.Internal.Correction.Weighted>
   9.000000E+99

> <Gold.Protein.RotatedTorsions>
[ 6907 6896 6895 6894 ] final  -92.55 input  -60.11 | X-H torsion
[ 7974 7965 7964 7962 ] final  -66.01 input  175.53 | X-H torsion
[ 8008 7997 7996 7995 ] final  -55.52 input   59.86 | X-H torsion
[ 10167 10162 10161 10158 ] final  -54.40 input  -65.29 | X-H torsion
[ 10718 10713 10712 10709 ] final  -36.33 input   66.30 | X-H torsion
[ 10763 10752 10751 10750 ] final  -66.94 input  -60.55 | X-H torsion
[ 11005 11000 10999 10996 ] final   88.26 input  -57.11 | X-H torsion

> <Gold.Protein.ActiveResidues>
 VAL166  LYS551  ARG553  GLY616  TRP617  ASP618  TYR619  PRO620  LYS621  CYS622 
 ASP623  PHE694  ASN695  SER759  ASP760  ASP761  ALA762  ILE779  LEU786  VAL792 
 PHE793  MET794  SER795  GLU796  ALA797  LYS798  CYS799  TRP800  GLU811  SER814 

> <Gold.Protein.RotatedAtoms>
  150.6908  134.2105  159.4356 H   0  0  0  0  0  0  0  0  0  0  0  0  # atno 6907 bound_to 6896
  152.0066  134.9896  160.0576 H   0  0  0  0  0  0  0  0  0  0  0  0  # atno 6908 bound_to 6896
  152.1528  133.4497  159.4859 H   0  0  0  0  0  0  0  0  0  0  0  0  # atno 6909 bound_to 6896
  145.7471  140.8926  143.0499 H   0  0  0  0  0  0  0  0  0  0  0  0  # atno 7974 bound_to 7965
  154.4198  140.1151  156.5491 H   0  0  0  0  0  0  0  0  0  0  0  0  # atno 8008 bound_to 7997
  155.6429  140.3496  155.4702 H   0  0  0  0  0  0  0  0  0  0  0  0  # atno 8009 bound_to 7997
  155.9856  140.1169  157.0676 H   0  0  0  0  0  0  0  0  0  0  0  0  # atno 8010 bound_to 7997
  140.6432  143.2520  151.4931 H   0  0  0  0  0  0  0  0  0  0  0  0  # atno 10167 bound_to 10162
  156.3281  130.4275  149.7897 H   0  0  0  0  0  0  0  0  0  0  0  0  # atno 10718 bound_to 10713
  154.3671  135.6103  153.5721 H   0  0  0  0  0  0  0  0  0  0  0  0  # atno 10763 bound_to 10752
  152.9791  135.5829  154.4565 H   0  0  0  0  0  0  0  0  0  0  0  0  # atno 10764 bound_to 10752
  154.4312  135.2848  155.1888 H   0  0  0  0  0  0  0  0  0  0  0  0  # atno 10765 bound_to 10752
  139.8900  134.8476  156.2975 H   0  0  0  0  0  0  0  0  0  0  0  0  # atno 11005 bound_to 11000
  144.6858  139.9540  143.7478 LP  0  0  0  0  0  0  0  0  0  0  0  0  # atno 17320 bound_to 7965
  146.0392  139.3406  143.0707 LP  0  0  0  0  0  0  0  0  0  0  0  0  # atno 17321 bound_to 7965
  139.5642  144.2083  152.1739 LP  0  0  0  0  0  0  0  0  0  0  0  0  # atno 17342 bound_to 10162
  140.1360  144.5246  150.6773 LP  0  0  0  0  0  0  0  0  0  0  0  0  # atno 17343 bound_to 10162
  156.5180  130.8202  151.3193 LP  0  0  0  0  0  0  0  0  0  0  0  0  # atno 17370 bound_to 10713
  157.7425  130.9892  150.2522 LP  0  0  0  0  0  0  0  0  0  0  0  0  # atno 17371 bound_to 10713
  140.9935  133.7194  156.0850 LP  0  0  0  0  0  0  0  0  0  0  0  0  # atno 17394 bound_to 11000
  140.7593  134.3957  157.5528 LP  0  0  0  0  0  0  0  0  0  0  0  0  # atno 17395 bound_to 11000

$$$$
