AV-unprocessed.smi:635|AV-procd|sdf|3139|dock5
  -GOLD-   22720 0 63D 1   1.00000     0.00000
 Structure written by MMmdl.
 37 38  0  0  0  0  0  0  0  0  1 V2000
  149.4694  132.7402  153.7060 C   0  0  0  0  0  0  0  0  0  0  0  0
  149.2930  134.1130  154.3642 C   0  0  0  0  0  0  0  0  0  0  0  0
  150.5212  134.5366  155.1845 C   0  0  0  0  0  0  0  0  0  0  0  0
  150.4967  136.0185  155.5796 C   0  0  0  0  0  0  0  0  0  0  0  0
  151.6533  136.6603  155.0548 O   0  0  0  0  0  0  0  0  0  0  0  0
  151.4048  137.8962  154.3910 C   0  0  0  0  0  0  0  0  0  0  0  0
  151.6091  139.0892  155.3314 C   0  0  0  0  0  0  0  0  0  0  0  0
  151.2947  140.2166  154.9511 O   0  0  0  0  0  0  0  0  0  0  0  0
  152.1432  138.8059  156.5343 N   0  0  0  0  0  0  0  0  0  0  0  0
  152.4553  139.7023  157.5893 C   0  0  0  0  0  0  0  0  0  0  0  0
  151.5185  140.7352  157.8019 C   0  0  0  0  0  0  0  0  0  0  0  0
  151.7635  141.6551  158.8355 C   0  0  0  0  0  0  0  0  0  0  0  0
  152.9370  141.4816  159.5927 C   0  0  0  0  0  0  0  0  0  0  0  0
  153.2999  142.3872  160.7281 C   0  0  0  0  0  0  0  0  0  0  0  0
  152.6132  142.2783  162.0715 C   0  0  0  0  0  0  0  0  0  0  0  0
  152.3515  143.4714  161.1863 C   0  0  0  0  0  0  0  0  0  0  0  0
  153.8016  140.4706  159.3541 N   0  0  0  0  0  0  0  0  0  0  0  0
  153.5640  139.6004  158.3673 N   0  0  0  0  0  0  0  0  0  0  0  0
  148.5843  132.4694  153.1300 H   0  0  0  0  0  0  0  0  0  0  0  0
  149.6309  131.9629  154.4534 H   0  0  0  0  0  0  0  0  0  0  0  0
  150.3224  132.7358  153.0268 H   0  0  0  0  0  0  0  0  0  0  0  0
  149.0922  134.8557  153.5914 H   0  0  0  0  0  0  0  0  0  0  0  0
  148.4127  134.0921  155.0073 H   0  0  0  0  0  0  0  0  0  0  0  0
  150.5714  133.9306  156.0898 H   0  0  0  0  0  0  0  0  0  0  0  0
  151.4326  134.3257  154.6237 H   0  0  0  0  0  0  0  0  0  0  0  0
  149.5923  136.4950  155.1987 H   0  0  0  0  0  0  0  0  0  0  0  0
  150.4731  136.1000  156.6668 H   0  0  0  0  0  0  0  0  0  0  0  0
  152.1073  137.9899  153.5626 H   0  0  0  0  0  0  0  0  0  0  0  0
  150.4021  137.9092  153.9604 H   0  0  0  0  0  0  0  0  0  0  0  0
  152.3384  137.8321  156.7157 H   0  0  0  0  0  0  0  0  0  0  0  0
  150.6321  140.8226  157.1905 H   0  0  0  0  0  0  0  0  0  0  0  0
  151.0748  142.4615  159.0395 H   0  0  0  0  0  0  0  0  0  0  0  0
  154.3646  142.6135  160.7228 H   0  0  0  0  0  0  0  0  0  0  0  0
  151.8061  141.5567  162.1814 H   0  0  0  0  0  0  0  0  0  0  0  0
  153.2109  142.4521  162.9640 H   0  0  0  0  0  0  0  0  0  0  0  0
  152.7802  144.4212  161.4994 H   0  0  0  0  0  0  0  0  0  0  0  0
  151.3772  143.5319  160.7051 H   0  0  0  0  0  0  0  0  0  0  0  0
  1  2  1  0  0  0  0
  1 19  1  0  0  0  0
  1 20  1  0  0  0  0
  1 21  1  0  0  0  0
  2  3  1  0  0  0  0
  2 22  1  0  0  0  0
  2 23  1  0  0  0  0
  3  4  1  0  0  0  0
  3 24  1  0  0  0  0
  3 25  1  0  0  0  0
  4  5  1  0  0  0  0
  4 26  1  0  0  0  0
  4 27  1  0  0  0  0
  5  6  1  0  0  0  0
  6  7  1  0  0  0  0
  6 28  1  0  0  0  0
  6 29  1  0  0  0  0
  7  8  2  0  0  0  0
  7  9  1  0  0  0  0
  9 10  1  0  0  0  0
  9 30  1  0  0  0  0
 10 18  1  0  0  0  0
 10 11  2  0  0  0  0
 11 12  1  0  0  0  0
 11 31  1  0  0  0  0
 12 13  2  0  0  0  0
 12 32  1  0  0  0  0
 13 14  1  0  0  0  0
 13 17  1  0  0  0  0
 14 16  1  0  0  0  0
 14 15  1  0  0  0  0
 14 33  1  0  0  0  0
 15 16  1  0  0  0  0
 15 34  1  0  0  0  0
 15 35  1  0  0  0  0
 16 36  1  0  0  0  0
 16 37  1  0  0  0  0
 17 18  2  0  0  0  0
M  END
> <s_m_source_file>
AV-unprocessed.smi

> <i_m_source_file_index>
635

> <i_lp_mmshare_version>
43012

> <i_f3d_flags>
0

> <s_epik_input>
W0NIM11bQ0gyXVtDSDJdW0NIMl1PW0NIMl1DKD1PKVtOSF1jMVtjSF1bY0hdYyhubjEpW0NIXTJbQ0gyXVtDSDJdMg==

> <s_epik_cmdline>
J2VwaWtfcHl0aG9uJywgJy1waCcsICc3LjAnLCAnLXRuJywgJzgnLCAnLW1hJywgJzIwMCcsICctbWV0YWxfYmluZGluZycsICctaW1hZScsICc8aW5maWxlLm1hZT4nLCAnLW9tYWUnLCAnPG91dGZpbGUubWFlPic=

> <r_lp_tautomer_probability>
1

> <r_epik_Ionization_Penalty>
0.00559584

> <r_epik_Ionization_Penalty_Charging>
0

> <r_epik_Ionization_Penalty_Neutral>
0.00559584

> <r_epik_State_Penalty>
-0

> <r_epik_Charging_Adjusted_Penalty>
0

> <i_epik_Tot_Q>
0

> <i_epik_Tot_abs_Q>
0

> <r_epik_Metal_State_Penalty>
-0

> <b_epik_Metal_Only>
0

> <s_lp_Force_Field>
OPLS_2005

> <r_lp_Energy>
16.6483

> <b_lp_Chiralities_Consistent>
1

> <s_lp_Variant>
AV-unprocessed.smi:635-1

> <Gold.Version>
5.8.1

> <Gold.Id.Protein>
6NUR|6NUR_protein|mol2

> <Gold.PLP.Fitness>
46.0729

> <Gold.PLP.PLP>
-40.0985

> <Gold.PLP.part.hbond>
-3.4176

> <Gold.PLP.part.metal>
0.0000

> <Gold.PLP.part.buried>
-5.1572

> <Gold.PLP.part.nonpolar>
-31.7342

> <Gold.PLP.part.repulsive>
0.2755

> <Gold.PLP.ligand.clash>
0.0000

> <Gold.PLP.ligand.torsion>
1.6086

> <Gold.PLP.Chemscore.Hbond>
3.0000

> <Gold.PLP.Chemscore.CHOScore>
0.0000

> <Gold.PLP.Chemscore.Metal>
0.0000

> <Gold.Chemscore.Hbonds>
donor molecule, donor type, donor heavy atom, donor atom, acceptor molecule, acceptor atom, score
      P1  H  7989  7998       L1     8  1.00
      P1  H  7997  8010       L1    18  1.00
      P1  H 10752 10765       L1     5  1.00

> <Gold.PLP.Chemscore.Internal.Correction>
0.1915

> <Gold.Rescore>
     Score         DG    S(hbond)    S(metal)    S(lipo)     H(rot)  DE(clash)    DE(int)     intcor
     15.45     -18.09       2.09        0.00      87.75       1.82       0.02       2.62       ----

> <Gold.Chemscore.Fitness>
15.4507

> <Gold.Chemscore.DG>
-18.0865

> <Gold.Chemscore.ZeroCoef>
-5.4800

> <Gold.Chemscore.Hbond>
2.0918

> <Gold.Chemscore.Metal>
0.0000

> <Gold.Chemscore.Lipo>
87.7531

> <Gold.Chemscore.Internal_Hbond>
0.0000

> <Gold.Chemscore.DEClash>
0.0180

> <Gold.Chemscore.DEInternal>
2.6179

> <Gold.Chemscore.Rot>
1.8153

> <Gold.Chemscore.Internal.Correction>
   9.000000E+99

> <Gold.Chemscore.Hbonds>
donor molecule, donor type, donor heavy atom, donor atom, acceptor molecule, acceptor atom, score
      P1  H  7989  7998       L1     8  0.98
      P1  H  7997  8010       L1    18  0.10
      P1  H 10752 10765       L1     5  0.90

> <Gold.Chemscore.Hbond.Weighted>
-6.9866

> <Gold.Chemscore.Metal.Weighted>
-0.0000

> <Gold.Chemscore.Lipo.Weighted>
-10.2671

> <Gold.Chemscore.Internal_Hbond.Weighted>
0.0000

> <Gold.Chemscore.DEClash.Weighted>
0.0180

> <Gold.Chemscore.DEInternal.Weighted>
2.6179

> <Gold.Chemscore.Rot.Weighted>
4.6472

> <Gold.Chemscore.Internal.Correction.Weighted>
   9.000000E+99

> <Gold.Protein.RotatedTorsions>
[ 6907 6896 6895 6894 ] final  150.99 input  -60.11 | X-H torsion
[ 7974 7965 7964 7962 ] final   58.77 input  175.53 | X-H torsion
[ 8008 7997 7996 7995 ] final   15.02 input   59.86 | X-H torsion
[ 10167 10162 10161 10158 ] final  -92.68 input  -65.29 | X-H torsion
[ 10718 10713 10712 10709 ] final  -84.82 input   66.30 | X-H torsion
[ 10763 10752 10751 10750 ] final  174.48 input  -60.55 | X-H torsion
[ 11005 11000 10999 10996 ] final   50.61 input  -57.11 | X-H torsion

> <Gold.Protein.ActiveResidues>
 VAL166  LYS551  ARG553  GLY616  TRP617  ASP618  TYR619  PRO620  LYS621  CYS622 
 ASP623  PHE694  ASN695  SER759  ASP760  ASP761  ALA762  ILE779  LEU786  VAL792 
 PHE793  MET794  SER795  GLU796  ALA797  LYS798  CYS799  TRP800  GLU811  SER814 

> <Gold.Protein.RotatedAtoms>
  152.1069  133.4279  159.4612 H   0  0  0  0  0  0  0  0  0  0  0  0  # atno 6907 bound_to 6896
  150.6866  134.2694  159.4591 H   0  0  0  0  0  0  0  0  0  0  0  0  # atno 6908 bound_to 6896
  152.0560  134.9624  160.0625 H   0  0  0  0  0  0  0  0  0  0  0  0  # atno 6909 bound_to 6896
  145.9146  139.3681  143.0515 H   0  0  0  0  0  0  0  0  0  0  0  0  # atno 7974 bound_to 7965
  154.8567  140.2938  155.5564 H   0  0  0  0  0  0  0  0  0  0  0  0  # atno 8008 bound_to 7997
  156.3018  140.2485  156.3467 H   0  0  0  0  0  0  0  0  0  0  0  0  # atno 8009 bound_to 7997
  154.8962  140.0393  157.1856 H   0  0  0  0  0  0  0  0  0  0  0  0  # atno 8010 bound_to 7997
  140.3324  143.2987  151.9927 H   0  0  0  0  0  0  0  0  0  0  0  0  # atno 10167 bound_to 10162
  156.0002  130.4710  150.4468 H   0  0  0  0  0  0  0  0  0  0  0  0  # atno 10718 bound_to 10713
  154.4545  135.2766  155.1757 H   0  0  0  0  0  0  0  0  0  0  0  0  # atno 10763 bound_to 10752
  154.3570  135.6137  153.5675 H   0  0  0  0  0  0  0  0  0  0  0  0  # atno 10764 bound_to 10752
  152.9849  135.5825  154.4896 H   0  0  0  0  0  0  0  0  0  0  0  0  # atno 10765 bound_to 10752
  140.1002  134.5091  155.8769 H   0  0  0  0  0  0  0  0  0  0  0  0  # atno 11005 bound_to 11000
  145.8628  140.9465  143.0691 LP  0  0  0  0  0  0  0  0  0  0  0  0  # atno 17320 bound_to 7965
  144.6746  140.0553  143.7477 LP  0  0  0  0  0  0  0  0  0  0  0  0  # atno 17321 bound_to 7965
  139.4854  144.6224  151.7229 LP  0  0  0  0  0  0  0  0  0  0  0  0  # atno 17342 bound_to 10162
  140.5385  144.0617  150.6079 LP  0  0  0  0  0  0  0  0  0  0  0  0  # atno 17343 bound_to 10162
  157.2505  131.0545  151.2382 LP  0  0  0  0  0  0  0  0  0  0  0  0  # atno 17370 bound_to 10713
  157.3533  130.7093  149.6454 LP  0  0  0  0  0  0  0  0  0  0  0  0  # atno 17371 bound_to 10713
  141.2103  133.6694  156.6503 LP  0  0  0  0  0  0  0  0  0  0  0  0  # atno 17394 bound_to 11000
  140.3230  134.7992  157.4267 LP  0  0  0  0  0  0  0  0  0  0  0  0  # atno 17395 bound_to 11000

$$$$
