AV-unprocessed.smi:2858|AV-procd|sdf|11001|dock10
  -GOLD-   2272015453D 1   1.00000     0.00000
 Structure written by MMmdl.
 39 40  0  0  0  0  0  0  0  0  1 V2000
  151.7970  135.0171  157.1395 O   0  0  0  0  0  0  0  0  0  0  0  0
  150.7743  135.5519  156.7174 C   0  0  0  0  0  0  0  0  0  0  0  0
  150.8745  136.8261  155.8607 C   0  0  0  0  0  0  0  0  0  0  0  0
  149.6025  137.5653  155.6699 N   0  0  0  0  0  0  0  0  0  0  0  0
  149.7861  138.6054  154.6537 C   0  0  0  0  0  0  0  0  0  0  0  0
  148.6504  139.6482  154.6355 C   0  0  0  0  0  0  0  0  0  0  0  0
  149.0695  140.9927  154.0140 C   0  0  0  0  0  0  0  0  0  0  0  0
  149.4403  141.9642  155.0366 N   0  0  0  0  0  0  0  0  0  0  0  0
  150.2857  141.7302  156.0510 C   0  0  0  0  0  0  0  0  0  0  0  0
  150.8546  140.6520  156.2249 O   0  0  0  0  0  0  0  0  0  0  0  0
  150.4222  142.8169  156.8317 N   0  0  0  0  0  0  0  0  0  0  0  0
  151.2073  142.9617  158.0069 C   0  0  0  0  0  0  0  0  0  0  0  0
  151.4647  144.2965  158.3940 C   0  0  0  0  0  0  0  0  0  0  0  0
  152.2323  144.5477  159.5477 C   0  0  0  0  0  0  0  0  0  0  0  0
  152.7228  143.4564  160.2865 C   0  0  0  0  0  0  0  0  0  0  0  0
  152.4213  142.1593  159.8324 C   0  0  0  0  0  0  0  0  0  0  0  0
  151.6864  141.9164  158.7265 N   0  0  0  0  0  0  0  0  0  0  0  0
  148.5135  136.6396  155.3505 C   0  0  0  0  0  0  0  0  0  0  0  0
  148.3118  135.6697  156.5294 C   0  0  0  0  0  0  0  0  0  0  0  0
  149.5569  135.0419  156.9560 N   0  0  0  0  0  0  0  0  0  0  0  0
  151.6145  137.4913  156.3080 H   0  0  0  0  0  0  0  0  0  0  0  0
  151.2692  136.5226  154.8895 H   0  0  0  0  0  0  0  0  0  0  0  0
  150.7203  139.1365  154.8438 H   0  0  0  0  0  0  0  0  0  0  0  0
  149.8913  138.1468  153.6690 H   0  0  0  0  0  0  0  0  0  0  0  0
  147.8277  139.2344  154.0512 H   0  0  0  0  0  0  0  0  0  0  0  0
  148.2420  139.8065  155.6326 H   0  0  0  0  0  0  0  0  0  0  0  0
  149.9314  140.8516  153.3619 H   0  0  0  0  0  0  0  0  0  0  0  0
  148.2699  141.3916  153.3875 H   0  0  0  0  0  0  0  0  0  0  0  0
  149.0183  142.8787  154.9688 H   0  0  0  0  0  0  0  0  0  0  0  0
  149.8971  143.6340  156.5581 H   0  0  0  0  0  0  0  0  0  0  0  0
  151.0792  145.1236  157.8156 H   0  0  0  0  0  0  0  0  0  0  0  0
  152.4401  145.5605  159.8598 H   0  0  0  0  0  0  0  0  0  0  0  0
  153.3142  143.6091  161.1771 H   0  0  0  0  0  0  0  0  0  0  0  0
  152.7788  141.2938  160.3702 H   0  0  0  0  0  0  0  0  0  0  0  0
  147.5785  137.1692  155.1755 H   0  0  0  0  0  0  0  0  0  0  0  0
  148.7447  136.0891  154.4368 H   0  0  0  0  0  0  0  0  0  0  0  0
  147.8917  136.2035  157.3828 H   0  0  0  0  0  0  0  0  0  0  0  0
  147.5952  134.8936  156.2599 H   0  0  0  0  0  0  0  0  0  0  0  0
  149.4891  134.1934  157.4994 H   0  0  0  0  0  0  0  0  0  0  0  0
  1  2  2  0  0  0  0
  2 20  1  0  0  0  0
  2  3  1  0  0  0  0
  3  4  1  0  0  0  0
  3 21  1  0  0  0  0
  3 22  1  0  0  0  0
  4  5  1  0  0  0  0
  4 18  1  0  0  0  0
  5  6  1  0  0  0  0
  5 23  1  0  0  0  0
  5 24  1  0  0  0  0
  6  7  1  0  0  0  0
  6 25  1  0  0  0  0
  6 26  1  0  0  0  0
  7  8  1  0  0  0  0
  7 27  1  0  0  0  0
  7 28  1  0  0  0  0
  8  9  1  0  0  0  0
  8 29  1  0  0  0  0
  9 10  2  0  0  0  0
  9 11  1  0  0  0  0
 11 12  1  0  0  0  0
 11 30  1  0  0  0  0
 12 17  1  0  0  0  0
 12 13  2  0  0  0  0
 13 14  1  0  0  0  0
 13 31  1  0  0  0  0
 14 15  2  0  0  0  0
 14 32  1  0  0  0  0
 15 16  1  0  0  0  0
 15 33  1  0  0  0  0
 16 17  2  0  0  0  0
 16 34  1  0  0  0  0
 18 19  1  0  0  0  0
 18 35  1  0  0  0  0
 18 36  1  0  0  0  0
 19 20  1  0  0  0  0
 19 37  1  0  0  0  0
 19 38  1  0  0  0  0
 20 39  1  0  0  0  0
M  END
> <s_m_source_file>
AV-unprocessed.smi

> <i_m_source_file_index>
2858

> <i_lp_mmshare_version>
43012

> <i_f3d_flags>
0

> <s_epik_input>
Tz1DMVtDSDJdTihbQ0gyXVtDSDJdW05IXTEpW0NIMl1bQ0gyXVtDSDJdW05IXUMoPU8pW05IXWMyW2NIXVtjSF1bY0hdW2NIXW4y

> <s_epik_cmdline>
J2VwaWtfcHl0aG9uJywgJy1waCcsICc3LjAnLCAnLXRuJywgJzgnLCAnLW1hJywgJzIwMCcsICctbWV0YWxfYmluZGluZycsICctaW1hZScsICc8aW5maWxlLm1hZT4nLCAnLW9tYWUnLCAnPG91dGZpbGUubWFlPic=

> <r_epik_Ionization_Penalty>
1.05093

> <r_epik_Ionization_Penalty_Charging>
0

> <r_epik_Ionization_Penalty_Neutral>
1.05093

> <r_epik_State_Penalty>
1.10373

> <r_epik_Charging_Adjusted_Penalty>
1.10373

> <i_epik_Tot_Q>
0

> <i_epik_Tot_abs_Q>
0

> <r_epik_Metal_State_Penalty>
1.17671

> <b_epik_Metal_Only>
0

> <s_lp_Force_Field>
OPLS_2005

> <r_lp_Energy>
22.2327

> <b_lp_Chiralities_Consistent>
1

> <s_lp_Variant>
AV-unprocessed.smi:2858-3

> <Gold.Version>
5.8.1

> <Gold.Id.Protein>
6NUR|6NUR_protein|mol2

> <Gold.PLP.Fitness>
43.4147

> <Gold.PLP.PLP>
-35.5534

> <Gold.PLP.part.hbond>
-3.0548

> <Gold.PLP.part.metal>
0.0000

> <Gold.PLP.part.buried>
-4.3868

> <Gold.PLP.part.nonpolar>
-28.1913

> <Gold.PLP.part.repulsive>
0.4441

> <Gold.PLP.ligand.clash>
0.0000

> <Gold.PLP.ligand.torsion>
0.5823

> <Gold.PLP.Chemscore.Hbond>
3.0000

> <Gold.PLP.Chemscore.CHOScore>
0.0000

> <Gold.PLP.Chemscore.Metal>
0.0000

> <Gold.Chemscore.Hbonds>
donor molecule, donor type, donor heavy atom, donor atom, acceptor molecule, acceptor atom, score
      L1  H     8    29       P1  8028  0.99
      L1  H    11    30       P1  8028  1.00

> <Gold.PLP.Chemscore.Internal.Correction>
0.0259

> <Gold.Rescore>
     Score         DG    S(hbond)    S(metal)    S(lipo)     H(rot)  DE(clash)    DE(int)     intcor
     14.38     -18.94       2.87        0.00      77.22       2.02       0.00       4.56       ----

> <Gold.Chemscore.Fitness>
14.3834

> <Gold.Chemscore.DG>
-18.9394

> <Gold.Chemscore.ZeroCoef>
-5.4800

> <Gold.Chemscore.Hbond>
2.8738

> <Gold.Chemscore.Metal>
0.0000

> <Gold.Chemscore.Lipo>
77.2235

> <Gold.Chemscore.Internal_Hbond>
0.0000

> <Gold.Chemscore.DEClash>
0.0000

> <Gold.Chemscore.DEInternal>
4.5560

> <Gold.Chemscore.Rot>
2.0213

> <Gold.Chemscore.Internal.Correction>
   9.000000E+99

> <Gold.Chemscore.Hbonds>
donor molecule, donor type, donor heavy atom, donor atom, acceptor molecule, acceptor atom, score
      L1  H     8    29       P1  8028  0.92
      L1  H    11    30       P1  8028  1.00
      P1  H 10752 10763       L1     1  0.01

> <Gold.Chemscore.Hbond.Weighted>
-9.5986

> <Gold.Chemscore.Metal.Weighted>
-0.0000

> <Gold.Chemscore.Lipo.Weighted>
-9.0352

> <Gold.Chemscore.Internal_Hbond.Weighted>
0.0000

> <Gold.Chemscore.DEClash.Weighted>
0.0000

> <Gold.Chemscore.DEInternal.Weighted>
4.5560

> <Gold.Chemscore.Rot.Weighted>
5.1744

> <Gold.Chemscore.Internal.Correction.Weighted>
   9.000000E+99

> <Gold.Protein.RotatedTorsions>
[ 6907 6896 6895 6894 ] final  153.53 input  -60.11 | X-H torsion
[ 7974 7965 7964 7962 ] final  164.99 input  175.53 | X-H torsion
[ 8008 7997 7996 7995 ] final  167.28 input   59.86 | X-H torsion
[ 10167 10162 10161 10158 ] final   76.53 input  -65.29 | X-H torsion
[ 10718 10713 10712 10709 ] final -100.82 input   66.30 | X-H torsion
[ 10763 10752 10751 10750 ] final  109.03 input  -60.55 | X-H torsion
[ 11005 11000 10999 10996 ] final   93.60 input  -57.11 | X-H torsion

> <Gold.Protein.ActiveResidues>
 VAL166  LYS551  ARG553  GLY616  TRP617  ASP618  TYR619  PRO620  LYS621  CYS622 
 ASP623  PHE694  ASN695  SER759  ASP760  ASP761  ALA762  ILE779  LEU786  VAL792 
 PHE793  MET794  SER795  GLU796  ALA797  LYS798  CYS799  TRP800  GLU811  SER814 

> <Gold.Protein.RotatedAtoms>
  152.0714  133.4108  159.4460 H   0  0  0  0  0  0  0  0  0  0  0  0  # atno 6907 bound_to 6896
  150.6863  134.3087  159.4746 H   0  0  0  0  0  0  0  0  0  0  0  0  # atno 6908 bound_to 6896
  152.0919  134.9401  160.0622 H   0  0  0  0  0  0  0  0  0  0  0  0  # atno 6909 bound_to 6896
  144.7521  139.8405  143.6362 H   0  0  0  0  0  0  0  0  0  0  0  0  # atno 7974 bound_to 7965
  156.1647  140.1621  156.8551 H   0  0  0  0  0  0  0  0  0  0  0  0  # atno 8008 bound_to 7997
  154.5196  140.0781  156.8181 H   0  0  0  0  0  0  0  0  0  0  0  0  # atno 8009 bound_to 7997
  155.3635  140.3396  155.4243 H   0  0  0  0  0  0  0  0  0  0  0  0  # atno 8010 bound_to 7997
  139.9913  144.5755  150.7816 H   0  0  0  0  0  0  0  0  0  0  0  0  # atno 10167 bound_to 10162
  156.0175  130.5345  150.6872 H   0  0  0  0  0  0  0  0  0  0  0  0  # atno 10718 bound_to 10713
  153.4290  135.3793  155.2159 H   0  0  0  0  0  0  0  0  0  0  0  0  # atno 10763 bound_to 10752
  154.8749  135.3835  154.4291 H   0  0  0  0  0  0  0  0  0  0  0  0  # atno 10764 bound_to 10752
  153.4821  135.7088  153.5995 H   0  0  0  0  0  0  0  0  0  0  0  0  # atno 10765 bound_to 10752
  139.8808  134.8799  156.3741 H   0  0  0  0  0  0  0  0  0  0  0  0  # atno 11005 bound_to 11000
  146.1486  139.4562  143.0063 LP  0  0  0  0  0  0  0  0  0  0  0  0  # atno 17320 bound_to 7965
  145.6906  141.0165  143.1557 LP  0  0  0  0  0  0  0  0  0  0  0  0  # atno 17321 bound_to 7965
  140.7454  143.2874  151.3424 LP  0  0  0  0  0  0  0  0  0  0  0  0  # atno 17342 bound_to 10162
  139.6338  144.0669  152.2499 LP  0  0  0  0  0  0  0  0  0  0  0  0  # atno 17343 bound_to 10162
  157.4562  131.0878  151.0794 LP  0  0  0  0  0  0  0  0  0  0  0  0  # atno 17370 bound_to 10713
  157.1296  130.6096  149.5526 LP  0  0  0  0  0  0  0  0  0  0  0  0  # atno 17371 bound_to 10713
  140.9444  133.7493  156.0188 LP  0  0  0  0  0  0  0  0  0  0  0  0  # atno 17394 bound_to 11000
  140.8181  134.3321  157.5390 LP  0  0  0  0  0  0  0  0  0  0  0  0  # atno 17395 bound_to 11000

$$$$
