AV-unprocessed.smi:60|AV-procd|sdf|594|dock9
  -GOLD-   2262016493D 1   1.00000     0.00000
 Structure written by MMmdl.
 35 36  0  0  0  0  0  0  0  0  2 V2000
  153.8947  139.4984  158.5916 O   0  0  0  0  0  0  0  0  0  0  0  0
  152.9889  139.8015  157.8156 C   0  0  0  0  0  0  0  0  0  0  0  0
  152.9484  139.3378  156.5321 N   0  5  0  0  0  0  0  0  0  0  0  0
  151.9492  139.6400  155.6481 C   0  0  0  0  0  0  0  0  0  0  0  0
  151.9425  139.2138  154.4924 O   0  0  0  0  0  0  0  0  0  0  0  0
  150.9262  140.4397  156.0709 N   0  0  0  0  0  0  0  0  0  0  0  0
  149.8485  140.8167  155.1641 C   0  0  0  0  0  0  0  0  0  0  0  0
  148.8452  139.8458  155.1262 O   0  0  0  0  0  0  0  0  0  0  0  0
  148.2525  139.6301  153.8513 C   0  0  0  0  0  0  0  0  0  0  0  0
  147.3834  140.8420  153.4952 C   0  0  0  0  0  0  0  0  0  0  0  0
  146.0863  140.6880  154.0312 O   0  0  0  0  0  0  0  0  0  0  0  0
  150.9300  140.9648  157.3735 C   0  0  0  0  0  0  0  0  0  0  0  0
  151.9055  140.6850  158.2624 C   0  0  0  0  0  0  0  0  0  0  0  0
  151.9062  141.2710  159.6673 C   0  0  0  0  0  0  0  0  0  0  0  0
  151.9731  142.7873  159.6826 C   0  0  0  0  0  0  0  0  0  0  0  0
  151.9106  143.4909  160.9042 C   0  0  0  0  0  0  0  0  0  0  0  0
  151.9748  144.8980  160.9145 C   0  0  0  0  0  0  0  0  0  0  0  0
  152.1036  145.6067  159.7043 C   0  0  0  0  0  0  0  0  0  0  0  0
  152.1677  144.9077  158.4833 C   0  0  0  0  0  0  0  0  0  0  0  0
  152.1015  143.5009  158.4722 C   0  0  0  0  0  0  0  0  0  0  0  0
  149.4185  141.7586  155.5091 H   0  0  0  0  0  0  0  0  0  0  0  0
  150.2447  140.9858  154.1616 H   0  0  0  0  0  0  0  0  0  0  0  0
  149.0060  139.4467  153.0835 H   0  0  0  0  0  0  0  0  0  0  0  0
  147.6147  138.7466  153.8971 H   0  0  0  0  0  0  0  0  0  0  0  0
  147.8137  141.7444  153.9299 H   0  0  0  0  0  0  0  0  0  0  0  0
  147.3371  140.9931  152.4164 H   0  0  0  0  0  0  0  0  0  0  0  0
  145.4581  140.8037  153.3349 H   0  0  0  0  0  0  0  0  0  0  0  0
  150.0979  141.6127  157.6068 H   0  0  0  0  0  0  0  0  0  0  0  0
  151.0344  140.9426  160.2344 H   0  0  0  0  0  0  0  0  0  0  0  0
  152.7677  140.8705  160.2033 H   0  0  0  0  0  0  0  0  0  0  0  0
  151.8143  142.9543  161.8368 H   0  0  0  0  0  0  0  0  0  0  0  0
  151.9258  145.4334  161.8511 H   0  0  0  0  0  0  0  0  0  0  0  0
  152.1531  146.6856  159.7126 H   0  0  0  0  0  0  0  0  0  0  0  0
  152.2679  145.4498  157.5547 H   0  0  0  0  0  0  0  0  0  0  0  0
  152.1519  142.9694  157.5329 H   0  0  0  0  0  0  0  0  0  0  0  0
  1  2  2  0  0  0  0
  2 13  1  0  0  0  0
  2  3  1  0  0  0  0
  3  4  1  0  0  0  0
  4  5  2  0  0  0  0
  4  6  1  0  0  0  0
  6  7  1  0  0  0  0
  6 12  1  0  0  0  0
  7  8  1  0  0  0  0
  7 21  1  0  0  0  0
  7 22  1  0  0  0  0
  8  9  1  0  0  0  0
  9 10  1  0  0  0  0
  9 23  1  0  0  0  0
  9 24  1  0  0  0  0
 10 11  1  0  0  0  0
 10 25  1  0  0  0  0
 10 26  1  0  0  0  0
 11 27  1  0  0  0  0
 12 13  2  0  0  0  0
 12 28  1  0  0  0  0
 13 14  1  0  0  0  0
 14 15  1  0  0  0  0
 14 29  1  0  0  0  0
 14 30  1  0  0  0  0
 15 20  1  0  0  0  0
 15 16  2  0  0  0  0
 16 17  1  0  0  0  0
 16 31  1  0  0  0  0
 17 18  2  0  0  0  0
 17 32  1  0  0  0  0
 18 19  1  0  0  0  0
 18 33  1  0  0  0  0
 19 20  2  0  0  0  0
 19 34  1  0  0  0  0
 20 35  1  0  0  0  0
M  CHG  1   3  -1
M  END
> <s_m_source_file>
AV-unprocessed.smi

> <i_m_source_file_index>
60

> <i_lp_mmshare_version>
43012

> <i_f3d_flags>
0

> <s_epik_input>
W09IXVtDSDJdW0NIMl1PW0NIMl1uKGMoPU8pW25IXWMxPU8pW2NIXWMxW0NIMl1jMltjSF1bY0hdW2NIXVtjSF1bY0hdMg==

> <s_epik_cmdline>
J2VwaWtfcHl0aG9uJywgJy1waCcsICc3LjAnLCAnLXRuJywgJzgnLCAnLW1hJywgJzIwMCcsICctbWV0YWxfYmluZGluZycsICctaW1hZScsICc8aW5maWxlLm1hZT4nLCAnLW9tYWUnLCAnPG91dGZpbGUubWFlPic=

> <r_lp_tautomer_probability>
0.999537

> <r_epik_Ionization_Penalty>
3.13547

> <r_epik_Ionization_Penalty_Charging>
5.3765e-08

> <r_epik_Ionization_Penalty_Neutral>
3.13547

> <r_epik_State_Penalty>
3.13458

> <r_epik_Charging_Adjusted_Penalty>
3.13458

> <i_epik_Tot_Q>
-1

> <i_epik_Tot_abs_Q>
1

> <r_epik_Metal_State_Penalty>
0.106912

> <b_epik_Metal_Only>
1

> <s_epik_Chemistry_Notes>
This compound contains an acetal/aminal-like group ( X-CH(R)-Y where X, Y are N, S, or O) that may be acid/base labile, releasing an aldehyde.

> <s_lp_Force_Field>
OPLS_2005

> <r_lp_Energy>
15.9602

> <b_lp_Chiralities_Consistent>
1

> <s_lp_Variant>
AV-unprocessed.smi:60-2

> <Gold.Version>
5.8.1

> <Gold.Id.Protein>
6NUR|6NUR_protein|mol2

> <Gold.PLP.Fitness>
50.6374

> <Gold.PLP.PLP>
-41.6800

> <Gold.PLP.part.hbond>
-4.0000

> <Gold.PLP.part.metal>
0.0000

> <Gold.PLP.part.buried>
0.3875

> <Gold.PLP.part.nonpolar>
-38.2121

> <Gold.PLP.part.repulsive>
0.1429

> <Gold.PLP.ligand.clash>
0.0000

> <Gold.PLP.ligand.torsion>
0.7925

> <Gold.PLP.Chemscore.Hbond>
3.5020

> <Gold.PLP.Chemscore.CHOScore>
0.0000

> <Gold.PLP.Chemscore.Metal>
0.0000

> <Gold.Chemscore.Hbonds>
donor molecule, donor type, donor heavy atom, donor atom, acceptor molecule, acceptor atom, score
      L1  H    11    27       P1 10175  1.00
      P1  H  7989  7998       L1     5  0.91
      P1  H  7997  8008       L1     1  0.38
      P1  H  7997  8009       L1     3  1.15

> <Gold.PLP.Chemscore.Internal.Correction>
0.0364

> <Gold.Rescore>
     Score         DG    S(hbond)    S(metal)    S(lipo)     H(rot)  DE(clash)    DE(int)     intcor
     11.19     -14.42       1.42        0.00     106.16       3.22       1.48       1.75       ----

> <Gold.Chemscore.Fitness>
11.1900

> <Gold.Chemscore.DG>
-14.4236

> <Gold.Chemscore.ZeroCoef>
-5.4800

> <Gold.Chemscore.Hbond>
1.4231

> <Gold.Chemscore.Metal>
0.0000

> <Gold.Chemscore.Lipo>
106.1629

> <Gold.Chemscore.Internal_Hbond>
0.0000

> <Gold.Chemscore.DEClash>
1.4836

> <Gold.Chemscore.DEInternal>
1.7500

> <Gold.Chemscore.Rot>
3.2151

> <Gold.Chemscore.Internal.Correction>
   9.000000E+99

> <Gold.Chemscore.Hbonds>
donor molecule, donor type, donor heavy atom, donor atom, acceptor molecule, acceptor atom, score
      L1  H    11    27       P1 10175  0.70
      P1  H  7989  7998       L1     5  0.27
      P1  H  7997  8008       L1     1  0.05
      P1  H  7997  8009       L1     3  0.06

> <Gold.Chemscore.Hbond.Weighted>
-4.7532

> <Gold.Chemscore.Metal.Weighted>
-0.0000

> <Gold.Chemscore.Lipo.Weighted>
-12.4211

> <Gold.Chemscore.Internal_Hbond.Weighted>
0.0000

> <Gold.Chemscore.DEClash.Weighted>
1.4836

> <Gold.Chemscore.DEInternal.Weighted>
1.7500

> <Gold.Chemscore.Rot.Weighted>
8.2306

> <Gold.Chemscore.Internal.Correction.Weighted>
   9.000000E+99

> <Gold.Protein.RotatedTorsions>
[ 6907 6896 6895 6894 ] final  -70.62 input  -60.11 | X-H torsion
[ 7974 7965 7964 7962 ] final  132.22 input  175.53 | X-H torsion
[ 8008 7997 7996 7995 ] final -139.50 input   59.86 | X-H torsion
[ 10167 10162 10161 10158 ] final  170.27 input  -65.29 | X-H torsion
[ 10718 10713 10712 10709 ] final  -45.48 input   66.30 | X-H torsion
[ 10763 10752 10751 10750 ] final -140.31 input  -60.55 | X-H torsion
[ 11005 11000 10999 10996 ] final  -50.13 input  -57.11 | X-H torsion

> <Gold.Protein.ActiveResidues>
 VAL166  LYS551  ARG553  GLY616  TRP617  ASP618  TYR619  PRO620  LYS621  CYS622 
 ASP623  PHE694  ASN695  SER759  ASP760  ASP761  ALA762  ILE779  LEU786  VAL792 
 PHE793  MET794  SER795  GLU796  ALA797  LYS798  CYS799  TRP800  GLU811  SER814 

> <Gold.Protein.RotatedAtoms>
  150.7249  134.5426  159.5754 H   0  0  0  0  0  0  0  0  0  0  0  0  # atno 6907 bound_to 6896
  152.2933  134.7693  160.0382 H   0  0  0  0  0  0  0  0  0  0  0  0  # atno 6908 bound_to 6896
  151.8299  133.3371  159.3647 H   0  0  0  0  0  0  0  0  0  0  0  0  # atno 6909 bound_to 6896
  144.9991  139.4329  143.5301 H   0  0  0  0  0  0  0  0  0  0  0  0  # atno 7974 bound_to 7965
  155.4459  140.0535  157.3006 H   0  0  0  0  0  0  0  0  0  0  0  0  # atno 8008 bound_to 7997
  154.4798  140.2076  155.9748 H   0  0  0  0  0  0  0  0  0  0  0  0  # atno 8009 bound_to 7997
  156.1188  140.3192  155.8182 H   0  0  0  0  0  0  0  0  0  0  0  0  # atno 8010 bound_to 7997
  139.5014  144.3615  151.9820 H   0  0  0  0  0  0  0  0  0  0  0  0  # atno 10167 bound_to 10162
  156.2279  130.4170  149.8911 H   0  0  0  0  0  0  0  0  0  0  0  0  # atno 10718 bound_to 10713
  154.8582  135.3557  154.5686 H   0  0  0  0  0  0  0  0  0  0  0  0  # atno 10763 bound_to 10752
  153.6300  135.7002  153.5284 H   0  0  0  0  0  0  0  0  0  0  0  0  # atno 10764 bound_to 10752
  153.3057  135.4193  155.1252 H   0  0  0  0  0  0  0  0  0  0  0  0  # atno 10765 bound_to 10752
  141.0799  133.6656  156.3686 H   0  0  0  0  0  0  0  0  0  0  0  0  # atno 11005 bound_to 11000
  146.3448  139.9369  142.8746 LP  0  0  0  0  0  0  0  0  0  0  0  0  # atno 17320 bound_to 7965
  145.2178  140.9922  143.4063 LP  0  0  0  0  0  0  0  0  0  0  0  0  # atno 17321 bound_to 7965
  140.3051  144.3602  150.6049 LP  0  0  0  0  0  0  0  0  0  0  0  0  # atno 17342 bound_to 10162
  140.5843  143.2171  151.7371 LP  0  0  0  0  0  0  0  0  0  0  0  0  # atno 17343 bound_to 10162
  156.6535  130.8753  151.3535 LP  0  0  0  0  0  0  0  0  0  0  0  0  # atno 17370 bound_to 10713
  157.7119  130.9451  150.1120 LP  0  0  0  0  0  0  0  0  0  0  0  0  # atno 17371 bound_to 10713
  140.5492  134.6044  157.5403 LP  0  0  0  0  0  0  0  0  0  0  0  0  # atno 17394 bound_to 11000
  139.9612  134.7449  156.0233 LP  0  0  0  0  0  0  0  0  0  0  0  0  # atno 17395 bound_to 11000

$$$$
