AV-unprocessed.smi:103|AV-procd|sdf|991|dock10
  -GOLD-   2262017573D 1   1.00000     0.00000
 Structure written by MMmdl.
 53 55  0  0  0  0  0  0  0  0  1 V2000
  150.6915  142.0731  156.6688 C   0  0  0  0  0  0  0  0  0  0  0  0
  150.0219  140.9380  155.9059 C   0  0  0  0  0  0  0  0  0  0  0  0
  150.2110  140.7748  154.7002 O   0  0  0  0  0  0  0  0  0  0  0  0
  149.2431  140.1812  156.6948 O   0  0  0  0  0  0  0  0  0  0  0  0
  148.4530  139.1492  156.1261 C   0  0  0  0  0  0  0  0  0  0  0  0
  149.3736  138.1207  155.4462 C   0  0  2  0  0  0  0  0  0  0  0  0
  148.5435  137.1541  154.7965 O   0  0  0  0  0  0  0  0  0  0  0  0
  148.7284  135.8876  155.3514 C   0  0  2  0  0  0  0  0  0  0  0  0
  147.4133  135.1685  155.4214 N   0  0  0  0  0  0  0  0  0  0  0  0
  147.0775  133.9263  154.9221 C   0  0  0  0  0  0  0  0  0  0  0  0
  148.1308  132.8522  153.9556 S   0  0  0  0  0  0  0  0  0  0  0  0
  147.5144  133.1629  152.2520 C   0  0  0  0  0  0  0  0  0  0  0  0
  149.5046  133.3643  154.0720 O   0  0  0  0  0  0  0  0  0  0  0  0
  147.8115  131.4708  154.3484 O   0  0  0  0  0  0  0  0  0  0  0  0
  145.8389  133.5455  155.0765 N   0  0  0  0  0  0  0  0  0  0  0  0
  145.2829  134.5806  155.8138 C   0  0  0  0  0  0  0  0  0  0  0  0
  143.9974  134.8173  156.3627 C   0  0  0  0  0  0  0  0  0  0  0  0
  142.9777  133.9571  156.2335 N   0  0  0  0  0  0  0  0  0  0  0  0
  143.7885  135.9631  157.0519 N   0  0  0  0  0  0  0  0  0  0  0  0
  144.7895  136.8370  157.1944 C   0  0  0  0  0  0  0  0  0  0  0  0
  146.0400  136.7545  156.7343 N   0  0  0  0  0  0  0  0  0  0  0  0
  146.2536  135.5986  156.0400 C   0  0  0  0  0  0  0  0  0  0  0  0
  149.3832  136.0884  156.7239 C   0  0  2  0  0  0  0  0  0  0  0  0
  148.4140  136.3645  157.7348 O   0  0  0  0  0  0  0  0  0  0  0  0
  148.7748  136.4741  159.0256 C   0  0  0  0  0  0  0  0  0  0  0  0
  147.5719  136.5966  159.9504 C   0  0  0  0  0  0  0  0  0  0  0  0
  149.9253  136.4585  159.4626 O   0  0  0  0  0  0  0  0  0  0  0  0
  150.2397  137.3027  156.4211 C   0  0  2  0  0  0  0  0  0  0  0  0
  150.6361  137.9795  157.6091 O   0  0  0  0  0  0  0  0  0  0  0  0
  151.5699  138.9438  157.5584 C   0  0  0  0  0  0  0  0  0  0  0  0
  151.8269  139.5746  158.9203 C   0  0  0  0  0  0  0  0  0  0  0  0
  152.1712  139.3179  156.5516 O   0  0  0  0  0  0  0  0  0  0  0  0
  151.1335  141.7011  157.5934 H   0  0  0  0  0  0  0  0  0  0  0  0
  149.9613  142.8431  156.9180 H   0  0  0  0  0  0  0  0  0  0  0  0
  151.4807  142.5250  156.0671 H   0  0  0  0  0  0  0  0  0  0  0  0
  147.8801  138.6801  156.9264 H   0  0  0  0  0  0  0  0  0  0  0  0
  147.7367  139.5492  155.4085 H   0  0  0  0  0  0  0  0  0  0  0  0
  150.0096  138.6226  154.7163 H   0  0  0  0  0  0  0  0  0  0  0  0
  149.3446  135.3061  154.6665 H   0  0  0  0  0  0  0  0  0  0  0  0
  148.0816  132.5583  151.5450 H   0  0  0  0  0  0  0  0  0  0  0  0
  147.6337  134.2180  152.0067 H   0  0  0  0  0  0  0  0  0  0  0  0
  146.4594  132.8951  152.1940 H   0  0  0  0  0  0  0  0  0  0  0  0
  143.1092  133.0941  155.7256 H   0  0  0  0  0  0  0  0  0  0  0  0
  142.0818  134.1719  156.6464 H   0  0  0  0  0  0  0  0  0  0  0  0
  144.5565  137.7300  157.7557 H   0  0  0  0  0  0  0  0  0  0  0  0
  150.0010  135.2273  156.9797 H   0  0  0  0  0  0  0  0  0  0  0  0
  146.8800  135.7711  159.7803 H   0  0  0  0  0  0  0  0  0  0  0  0
  147.0468  137.5341  159.7659 H   0  0  0  0  0  0  0  0  0  0  0  0
  147.8866  136.5744  160.9940 H   0  0  0  0  0  0  0  0  0  0  0  0
  151.1219  136.9472  155.8854 H   0  0  0  0  0  0  0  0  0  0  0  0
  151.9643  138.8030  159.6782 H   0  0  0  0  0  0  0  0  0  0  0  0
  150.9830  140.2006  159.2108 H   0  0  0  0  0  0  0  0  0  0  0  0
  152.7240  140.1934  158.8923 H   0  0  0  0  0  0  0  0  0  0  0  0
  1  2  1  0  0  0  0
  1 33  1  0  0  0  0
  1 34  1  0  0  0  0
  1 35  1  0  0  0  0
  2  3  2  0  0  0  0
  2  4  1  0  0  0  0
  4  5  1  0  0  0  0
  5  6  1  0  0  0  0
  5 36  1  0  0  0  0
  5 37  1  0  0  0  0
  6 28  1  0  0  0  0
  6  7  1  0  0  0  0
  6 38  1  0  0  0  0
  7  8  1  0  0  0  0
  8  9  1  0  0  0  0
  8 23  1  0  0  0  0
  8 39  1  0  0  0  0
  9 22  1  0  0  0  0
  9 10  1  0  0  0  0
 10 11  1  0  0  0  0
 10 15  2  0  0  0  0
 11 12  1  0  0  0  0
 11 13  2  0  0  0  0
 11 14  2  0  0  0  0
 12 40  1  0  0  0  0
 12 41  1  0  0  0  0
 12 42  1  0  0  0  0
 15 16  1  0  0  0  0
 16 22  2  0  0  0  0
 16 17  1  0  0  0  0
 17 18  1  0  0  0  0
 17 19  2  0  0  0  0
 18 43  1  0  0  0  0
 18 44  1  0  0  0  0
 19 20  1  0  0  0  0
 20 21  2  0  0  0  0
 20 45  1  0  0  0  0
 21 22  1  0  0  0  0
 23 24  1  0  0  0  0
 23 28  1  0  0  0  0
 23 46  1  0  0  0  0
 24 25  1  0  0  0  0
 25 26  1  0  0  0  0
 25 27  2  0  0  0  0
 26 47  1  0  0  0  0
 26 48  1  0  0  0  0
 26 49  1  0  0  0  0
 28 29  1  0  0  0  0
 28 50  1  0  0  0  0
 29 30  1  0  0  0  0
 30 31  1  0  0  0  0
 30 32  2  0  0  0  0
 31 51  1  0  0  0  0
 31 52  1  0  0  0  0
 31 53  1  0  0  0  0
M  END
> <s_m_source_file>
AV-unprocessed.smi

> <i_m_source_file_index>
103

> <i_lp_mmshare_version>
43012

> <i_f3d_flags>
0

> <s_epik_input>
W0NIM11DKD1PKU9bQ0gyXVtDQEBIXTFPW0NASF0oW0NAQEhdKE9DKD1PKVtDSDNdKVtDQEhdMU9DKD1PKVtDSDNdKW4oYyhuMilTKD1PKSg9TylbQ0gzXSljKGMyMyluW2NIXW5jM1tOSDJd

> <s_epik_cmdline>
J2VwaWtfcHl0aG9uJywgJy1waCcsICc3LjAnLCAnLXRuJywgJzgnLCAnLW1hJywgJzIwMCcsICctbWV0YWxfYmluZGluZycsICctaW1hZScsICc8aW5maWxlLm1hZT4nLCAnLW9tYWUnLCAnPG91dGZpbGUubWFlPic=

> <r_lp_tautomer_probability>
1

> <r_epik_Ionization_Penalty>
1.51338e-05

> <r_epik_Ionization_Penalty_Charging>
0

> <r_epik_Ionization_Penalty_Neutral>
1.51338e-05

> <r_epik_State_Penalty>
-0

> <r_epik_Charging_Adjusted_Penalty>
0

> <i_epik_Tot_Q>
0

> <i_epik_Tot_abs_Q>
0

> <r_epik_Metal_State_Penalty>
-0

> <b_epik_Metal_Only>
0

> <s_epik_Chemistry_Notes>
This compound has an ester and may undergo hydrolysis at high or low pH. This compound contains an acetal/aminal-like group ( X-CH(R)-Y where X, Y are N, S, or O) that may be acid/base labile, releasing an aldehyde.

> <s_lp_Force_Field>
OPLS_2005

> <r_lp_Energy>
16.3317

> <b_lp_Chiralities_Consistent>
1

> <s_lp_Variant>
AV-unprocessed.smi:103-15

> <Gold.Version>
5.8.1

> <Gold.Id.Protein>
6NUR|6NUR_protein|mol2

> <Gold.PLP.Fitness>
39.4774

> <Gold.PLP.PLP>
-25.1353

> <Gold.PLP.part.hbond>
-4.6211

> <Gold.PLP.part.metal>
0.0000

> <Gold.PLP.part.buried>
-3.9865

> <Gold.PLP.part.nonpolar>
-16.7045

> <Gold.PLP.part.repulsive>
1.0199

> <Gold.PLP.ligand.clash>
0.0000

> <Gold.PLP.ligand.torsion>
1.2956

> <Gold.PLP.Chemscore.Hbond>
4.8320

> <Gold.PLP.Chemscore.CHOScore>
0.0000

> <Gold.PLP.Chemscore.Metal>
0.0000

> <Gold.Chemscore.Hbonds>
donor molecule, donor type, donor heavy atom, donor atom, acceptor molecule, acceptor atom, score
      L1  H    18    43       P1 10957  1.00
      L1  H    18    44       P1 11000  1.00
      P1  H  6896  6908       L1    27  1.00
      P1  H  7989  7998       L1     3  0.80
      P1  H  7997  8009       L1    32  0.31

> <Gold.PLP.Chemscore.Internal.Correction>
2.4374

> <Gold.Rescore>
     Score         DG    S(hbond)    S(metal)    S(lipo)     H(rot)  DE(clash)    DE(int)     intcor
      2.51     -13.08       4.31        0.00      34.87       4.25       0.41      10.17       ----

> <Gold.Chemscore.Fitness>
2.5071

> <Gold.Chemscore.DG>
-13.0806

> <Gold.Chemscore.ZeroCoef>
-5.4800

> <Gold.Chemscore.Hbond>
4.3083

> <Gold.Chemscore.Metal>
0.0000

> <Gold.Chemscore.Lipo>
34.8662

> <Gold.Chemscore.Internal_Hbond>
0.0000

> <Gold.Chemscore.DEClash>
0.4051

> <Gold.Chemscore.DEInternal>
10.1683

> <Gold.Chemscore.Rot>
4.2456

> <Gold.Chemscore.Internal.Correction>
   9.000000E+99

> <Gold.Chemscore.Hbonds>
donor molecule, donor type, donor heavy atom, donor atom, acceptor molecule, acceptor atom, score
      L1  H    18    43       P1 10957  0.98
      L1  H    18    44       P1 11000  0.85
      P1  H  6896  6908       L1    27  0.98
      P1  H  7989  7998       L1     3  0.80
      P1  H  7997  8009       L1    32  0.31

> <Gold.Chemscore.Hbond.Weighted>
-14.3899

> <Gold.Chemscore.Metal.Weighted>
-0.0000

> <Gold.Chemscore.Lipo.Weighted>
-4.0793

> <Gold.Chemscore.Internal_Hbond.Weighted>
0.0000

> <Gold.Chemscore.DEClash.Weighted>
0.4051

> <Gold.Chemscore.DEInternal.Weighted>
10.1683

> <Gold.Chemscore.Rot.Weighted>
10.8687

> <Gold.Chemscore.Internal.Correction.Weighted>
   9.000000E+99

> <Gold.Protein.RotatedTorsions>
[ 6907 6896 6895 6894 ] final -142.76 input  -60.11 | X-H torsion
[ 7974 7965 7964 7962 ] final  115.80 input  175.53 | X-H torsion
[ 8008 7997 7996 7995 ] final -171.84 input   59.86 | X-H torsion
[ 10167 10162 10161 10158 ] final   44.28 input  -65.29 | X-H torsion
[ 10718 10713 10712 10709 ] final  -67.63 input   66.30 | X-H torsion
[ 10763 10752 10751 10750 ] final -136.80 input  -60.55 | X-H torsion
[ 11005 11000 10999 10996 ] final  114.98 input  -57.11 | X-H torsion

> <Gold.Protein.ActiveResidues>
 VAL166  LYS551  ARG553  GLY616  TRP617  ASP618  TYR619  PRO620  LYS621  CYS622 
 ASP623  PHE694  ASN695  SER759  ASP760  ASP761  ALA762  ILE779  LEU786  VAL792 
 PHE793  MET794  SER795  GLU796  ALA797  LYS798  CYS799  TRP800  GLU811  SER814 

> <Gold.Protein.RotatedAtoms>
  151.0914  133.5313  159.2614 H   0  0  0  0  0  0  0  0  0  0  0  0  # atno 6907 bound_to 6896
  151.2178  135.0506  159.8947 H   0  0  0  0  0  0  0  0  0  0  0  0  # atno 6908 bound_to 6896
  152.5434  134.0721  159.8252 H   0  0  0  0  0  0  0  0  0  0  0  0  # atno 6909 bound_to 6896
  145.1875  139.3017  143.4385 H   0  0  0  0  0  0  0  0  0  0  0  0  # atno 7974 bound_to 7965
  155.9368  140.1101  157.1088 H   0  0  0  0  0  0  0  0  0  0  0  0  # atno 8008 bound_to 7997
  154.4081  140.1227  156.4941 H   0  0  0  0  0  0  0  0  0  0  0  0  # atno 8009 bound_to 7997
  155.7011  140.3472  155.4936 H   0  0  0  0  0  0  0  0  0  0  0  0  # atno 8010 bound_to 7997
  140.3358  144.2531  150.6162 H   0  0  0  0  0  0  0  0  0  0  0  0  # atno 10167 bound_to 10162
  156.0547  130.4281  150.1882 H   0  0  0  0  0  0  0  0  0  0  0  0  # atno 10718 bound_to 10713
  154.8676  135.3661  154.5119 H   0  0  0  0  0  0  0  0  0  0  0  0  # atno 10763 bound_to 10752
  153.5754  135.7019  153.5491 H   0  0  0  0  0  0  0  0  0  0  0  0  # atno 10764 bound_to 10752
  153.3505  135.4073  155.1605 H   0  0  0  0  0  0  0  0  0  0  0  0  # atno 10765 bound_to 10752
  139.8996  134.9576  156.6975 H   0  0  0  0  0  0  0  0  0  0  0  0  # atno 11005 bound_to 11000
  146.3442  140.2076  142.8590 LP  0  0  0  0  0  0  0  0  0  0  0  0  # atno 17320 bound_to 7965
  145.0074  140.8685  143.5245 LP  0  0  0  0  0  0  0  0  0  0  0  0  # atno 17321 bound_to 7965
  140.5355  143.2234  151.8170 LP  0  0  0  0  0  0  0  0  0  0  0  0  # atno 17342 bound_to 10162
  139.4848  144.4667  151.9475 LP  0  0  0  0  0  0  0  0  0  0  0  0  # atno 17343 bound_to 10162
  156.9960  130.9908  151.3403 LP  0  0  0  0  0  0  0  0  0  0  0  0  # atno 17370 bound_to 10713
  157.5507  130.8180  149.8141 LP  0  0  0  0  0  0  0  0  0  0  0  0  # atno 17371 bound_to 10713
  140.7177  133.9168  155.8126 LP  0  0  0  0  0  0  0  0  0  0  0  0  # atno 17394 bound_to 11000
  141.0252  134.0834  157.4077 LP  0  0  0  0  0  0  0  0  0  0  0  0  # atno 17395 bound_to 11000

$$$$
