AV-unprocessed.smi:2585|AV-procd|sdf|10144|dock7
  -GOLD-   2272014153D 1   1.00000     0.00000
 Structure written by MMmdl.
 34 35  0  0  0  0  0  0  0  0  1 V2000
  151.1769  140.8412  157.1317 C   0  0  0  0  0  0  0  0  0  0  0  0
  151.4942  139.8535  156.0490 C   0  0  0  0  0  0  0  0  0  0  0  0
  152.5572  140.0357  155.2937 N   0  0  0  0  0  0  0  0  0  0  0  0
  152.6674  138.7875  154.1756 S   0  0  0  0  0  0  0  0  0  0  0  0
  151.2343  137.9515  154.7091 C   0  0  0  0  0  0  0  0  0  0  0  0
  150.7189  136.8007  154.2039 N   0  0  0  0  0  0  0  0  0  0  0  0
  150.9054  135.5384  154.6261 C   0  0  0  0  0  0  0  0  0  0  0  0
  151.6088  135.2038  155.5789 O   0  0  0  0  0  0  0  0  0  0  0  0
  150.2157  134.6744  153.8624 N   0  0  0  0  0  0  0  0  0  0  0  0
  150.1448  133.2091  153.9713 C   0  0  0  0  0  0  0  0  0  0  0  0
  151.5254  132.6446  154.3708 C   0  0  0  0  0  0  0  0  0  0  0  0
  149.1178  132.8666  155.0725 C   0  0  0  0  0  0  0  0  0  0  0  0
  147.6771  133.2137  154.6511 C   0  0  0  0  0  0  0  0  0  0  0  0
  147.3485  132.5467  153.4382 O   0  0  0  0  0  0  0  0  0  0  0  0
  148.1827  132.9305  152.3516 C   0  0  0  0  0  0  0  0  0  0  0  0
  149.6445  132.5589  152.6582 C   0  0  0  0  0  0  0  0  0  0  0  0
  150.7230  138.6844  155.7454 C   0  0  0  0  0  0  0  0  0  0  0  0
  149.3206  138.3163  156.6383 Cl  0  0  0  0  0  0  0  0  0  0  0  0
  150.1858  141.2729  156.9903 H   0  0  0  0  0  0  0  0  0  0  0  0
  151.8918  141.6649  157.1547 H   0  0  0  0  0  0  0  0  0  0  0  0
  151.1939  140.3664  158.1132 H   0  0  0  0  0  0  0  0  0  0  0  0
  150.1119  136.9172  153.4056 H   0  0  0  0  0  0  0  0  0  0  0  0
  149.6749  135.0745  153.1096 H   0  0  0  0  0  0  0  0  0  0  0  0
  151.4757  131.5701  154.5503 H   0  0  0  0  0  0  0  0  0  0  0  0
  151.8949  133.1112  155.2848 H   0  0  0  0  0  0  0  0  0  0  0  0
  152.2733  132.8020  153.5937 H   0  0  0  0  0  0  0  0  0  0  0  0
  149.1623  131.7995  155.2955 H   0  0  0  0  0  0  0  0  0  0  0  0
  149.3673  133.3803  156.0021 H   0  0  0  0  0  0  0  0  0  0  0  0
  146.9773  132.8967  155.4242 H   0  0  0  0  0  0  0  0  0  0  0  0
  147.5474  134.2904  154.5324 H   0  0  0  0  0  0  0  0  0  0  0  0
  147.8472  132.4110  151.4540 H   0  0  0  0  0  0  0  0  0  0  0  0
  148.0789  133.9986  152.1554 H   0  0  0  0  0  0  0  0  0  0  0  0
  150.2806  132.8233  151.8136 H   0  0  0  0  0  0  0  0  0  0  0  0
  149.7109  131.4737  152.7464 H   0  0  0  0  0  0  0  0  0  0  0  0
  1  2  1  0  0  0  0
  1 19  1  0  0  0  0
  1 20  1  0  0  0  0
  1 21  1  0  0  0  0
  2 17  1  0  0  0  0
  2  3  2  0  0  0  0
  3  4  1  0  0  0  0
  4  5  1  0  0  0  0
  5  6  1  0  0  0  0
  5 17  2  0  0  0  0
  6  7  1  0  0  0  0
  6 22  1  0  0  0  0
  7  8  2  0  0  0  0
  7  9  1  0  0  0  0
  9 10  1  0  0  0  0
  9 23  1  0  0  0  0
 10 16  1  0  0  0  0
 10 11  1  0  0  0  0
 10 12  1  0  0  0  0
 11 24  1  0  0  0  0
 11 25  1  0  0  0  0
 11 26  1  0  0  0  0
 12 13  1  0  0  0  0
 12 27  1  0  0  0  0
 12 28  1  0  0  0  0
 13 14  1  0  0  0  0
 13 29  1  0  0  0  0
 13 30  1  0  0  0  0
 14 15  1  0  0  0  0
 15 16  1  0  0  0  0
 15 31  1  0  0  0  0
 15 32  1  0  0  0  0
 16 33  1  0  0  0  0
 16 34  1  0  0  0  0
 17 18  1  0  0  0  0
M  END
> <s_m_source_file>
AV-unprocessed.smi

> <i_m_source_file_index>
2585

> <i_lp_mmshare_version>
43012

> <i_f3d_flags>
0

> <s_epik_input>
W0NIM11jMW5zYyhjMUNsKVtOSF1DKD1PKVtOSF1DMihbQ0gzXSlbQ0gyXVtDSDJdT1tDSDJdW0NIMl0y

> <s_epik_cmdline>
J2VwaWtfcHl0aG9uJywgJy1waCcsICc3LjAnLCAnLXRuJywgJzgnLCAnLW1hJywgJzIwMCcsICctbWV0YWxfYmluZGluZycsICctaW1hZScsICc8aW5maWxlLm1hZT4nLCAnLW9tYWUnLCAnPG91dGZpbGUubWFlPic=

> <r_lp_tautomer_probability>
1

> <r_epik_Ionization_Penalty>
3.55893e-05

> <r_epik_Ionization_Penalty_Charging>
0

> <r_epik_Ionization_Penalty_Neutral>
3.55893e-05

> <r_epik_State_Penalty>
-0

> <r_epik_Charging_Adjusted_Penalty>
0

> <i_epik_Tot_Q>
0

> <i_epik_Tot_abs_Q>
0

> <r_epik_Metal_State_Penalty>
-0

> <b_epik_Metal_Only>
0

> <s_lp_Force_Field>
OPLS_2005

> <r_lp_Energy>
7.47922

> <b_lp_Chiralities_Consistent>
1

> <s_lp_Variant>
AV-unprocessed.smi:2585-1

> <Gold.Version>
5.8.1

> <Gold.Id.Protein>
6NUR|6NUR_protein|mol2

> <Gold.PLP.Fitness>
35.7851

> <Gold.PLP.PLP>
-29.0201

> <Gold.PLP.part.hbond>
-4.6927

> <Gold.PLP.part.metal>
0.0000

> <Gold.PLP.part.buried>
-3.8771

> <Gold.PLP.part.nonpolar>
-21.5547

> <Gold.PLP.part.repulsive>
0.2142

> <Gold.PLP.ligand.clash>
0.0000

> <Gold.PLP.ligand.torsion>
1.1874

> <Gold.PLP.Chemscore.Hbond>
3.0444

> <Gold.PLP.Chemscore.CHOScore>
0.0000

> <Gold.PLP.Chemscore.Metal>
0.0000

> <Gold.Chemscore.Hbonds>
donor molecule, donor type, donor heavy atom, donor atom, acceptor molecule, acceptor atom, score
      L1  H     6    22       P1  7948  0.80
      L1  H     9    23       P1  7948  0.10
      P1  H  7997  8009       L1     3  1.00

> <Gold.PLP.Chemscore.Internal.Correction>
0.0065

> <Gold.Rescore>
     Score         DG    S(hbond)    S(metal)    S(lipo)     H(rot)  DE(clash)    DE(int)     intcor
     15.36     -17.62       2.52        0.00      53.72       1.00       0.00       2.25       ----

> <Gold.Chemscore.Fitness>
15.3643

> <Gold.Chemscore.DG>
-17.6201

> <Gold.Chemscore.ZeroCoef>
-5.4800

> <Gold.Chemscore.Hbond>
2.5194

> <Gold.Chemscore.Metal>
0.0000

> <Gold.Chemscore.Lipo>
53.7198

> <Gold.Chemscore.Internal_Hbond>
0.0000

> <Gold.Chemscore.DEClash>
0.0015

> <Gold.Chemscore.DEInternal>
2.2543

> <Gold.Chemscore.Rot>
1.0000

> <Gold.Chemscore.Internal.Correction>
   9.000000E+99

> <Gold.Chemscore.Hbonds>
donor molecule, donor type, donor heavy atom, donor atom, acceptor molecule, acceptor atom, score
      L1  H     6    22       P1  7948  0.11
      P1  H  7997  8009       L1     3  0.28

> <Gold.Chemscore.Hbond.Weighted>
-8.4149

> <Gold.Chemscore.Metal.Weighted>
-0.0000

> <Gold.Chemscore.Lipo.Weighted>
-6.2852

> <Gold.Chemscore.Internal_Hbond.Weighted>
0.0000

> <Gold.Chemscore.DEClash.Weighted>
0.0015

> <Gold.Chemscore.DEInternal.Weighted>
2.2543

> <Gold.Chemscore.Rot.Weighted>
2.5600

> <Gold.Chemscore.Internal.Correction.Weighted>
   9.000000E+99

> <Gold.Protein.RotatedTorsions>
[ 6907 6896 6895 6894 ] final   16.96 input  -60.11 | X-H torsion
[ 7974 7965 7964 7962 ] final  -76.71 input  175.53 | X-H torsion
[ 8008 7997 7996 7995 ] final -130.99 input   59.86 | X-H torsion
[ 10167 10162 10161 10158 ] final -114.56 input  -65.29 | X-H torsion
[ 10718 10713 10712 10709 ] final   90.97 input   66.30 | X-H torsion
[ 10763 10752 10751 10750 ] final  146.34 input  -60.55 | X-H torsion
[ 11005 11000 10999 10996 ] final  -75.84 input  -57.11 | X-H torsion

> <Gold.Protein.ActiveResidues>
 VAL166  LYS551  ARG553  GLY616  TRP617  ASP618  TYR619  PRO620  LYS621  CYS622 
 ASP623  PHE694  ASN695  SER759  ASP760  ASP761  ALA762  ILE779  LEU786  VAL792 
 PHE793  MET794  SER795  GLU796  ALA797  LYS798  CYS799  TRP800  GLU811  SER814 

> <Gold.Protein.RotatedAtoms>
  151.8421  135.0587  160.0448 H   0  0  0  0  0  0  0  0  0  0  0  0  # atno 6907 bound_to 6896
  152.2801  133.5458  159.5501 H   0  0  0  0  0  0  0  0  0  0  0  0  # atno 6908 bound_to 6896
  150.7186  134.0492  159.3834 H   0  0  0  0  0  0  0  0  0  0  0  0  # atno 6909 bound_to 6896
  145.6092  140.9390  143.1198 H   0  0  0  0  0  0  0  0  0  0  0  0  # atno 7974 bound_to 7965
  155.3050  140.0454  157.3031 H   0  0  0  0  0  0  0  0  0  0  0  0  # atno 8008 bound_to 7997
  154.5465  140.2304  155.8521 H   0  0  0  0  0  0  0  0  0  0  0  0  # atno 8009 bound_to 7997
  156.1929  140.3046  155.9375 H   0  0  0  0  0  0  0  0  0  0  0  0  # atno 8010 bound_to 7997
  140.0996  143.4625  152.1820 H   0  0  0  0  0  0  0  0  0  0  0  0  # atno 10167 bound_to 10162
  157.6960  131.0390  150.3659 H   0  0  0  0  0  0  0  0  0  0  0  0  # atno 10718 bound_to 10713
  154.0203  135.2906  155.3381 H   0  0  0  0  0  0  0  0  0  0  0  0  # atno 10763 bound_to 10752
  154.7050  135.5173  153.8585 H   0  0  0  0  0  0  0  0  0  0  0  0  # atno 10764 bound_to 10752
  153.0684  135.6639  154.0426 H   0  0  0  0  0  0  0  0  0  0  0  0  # atno 10765 bound_to 10752
  141.1649  133.6961  156.7578 H   0  0  0  0  0  0  0  0  0  0  0  0  # atno 11005 bound_to 11000
  144.7277  139.7824  143.7359 LP  0  0  0  0  0  0  0  0  0  0  0  0  # atno 17320 bound_to 7965
  146.1517  139.4602  143.0044 LP  0  0  0  0  0  0  0  0  0  0  0  0  # atno 17321 bound_to 7965
  139.5679  144.7446  151.3972 LP  0  0  0  0  0  0  0  0  0  0  0  0  # atno 17342 bound_to 10162
  140.6985  143.7690  150.7365 LP  0  0  0  0  0  0  0  0  0  0  0  0  # atno 17343 bound_to 10162
  156.4090  130.3930  149.6905 LP  0  0  0  0  0  0  0  0  0  0  0  0  # atno 17370 bound_to 10713
  156.4196  130.7762  151.2779 LP  0  0  0  0  0  0  0  0  0  0  0  0  # atno 17371 bound_to 10713
  140.2556  134.8507  157.3709 LP  0  0  0  0  0  0  0  0  0  0  0  0  # atno 17394 bound_to 11000
  140.1660  134.4668  155.7862 LP  0  0  0  0  0  0  0  0  0  0  0  0  # atno 17395 bound_to 11000

$$$$
