AV-unprocessed.smi:1033|AV-procd|sdf|4502|dock9
  -GOLD-   22720 2503D 1   1.00000     0.00000
 Structure written by MMmdl.
 57 59  0  0  0  0  0  0  0  0  3 V2000
  151.9217  145.4648  160.3845 C   0  0  0  0  0  0  0  0  0  0  0  0
  151.8994  144.1545  159.6158 C   0  0  0  0  0  0  0  0  0  0  0  0
  151.1941  144.1024  158.3919 C   0  0  0  0  0  0  0  0  0  0  0  0
  151.1904  142.8894  157.7133 C   0  0  0  0  0  0  0  0  0  0  0  0
  150.5970  142.5166  156.5049 N   0  3  0  0  0  0  0  0  0  0  0  0
  150.8730  141.2078  156.2474 C   0  0  0  0  0  0  0  0  0  0  0  0
  151.6382  140.7420  157.2720 N   0  0  0  0  0  0  0  0  0  0  0  0
  152.2098  139.4087  157.4979 C   0  0  0  0  0  0  0  0  0  0  0  0
  151.1667  138.3884  157.9976 C   0  0  2  0  0  0  0  0  0  0  0  0
  151.7445  137.0992  157.9934 O   0  0  0  0  0  0  0  0  0  0  0  0
  149.9071  138.3474  157.1113 C   0  0  0  0  0  0  0  0  0  0  0  0
  149.9968  137.4781  155.9319 N   0  0  0  0  0  0  0  0  0  0  0  0
  148.7427  136.7819  155.6466 C   0  0  0  0  0  0  0  0  0  0  0  0
  147.6435  137.7095  155.0888 C   0  0  0  0  0  0  0  0  0  0  0  0
  148.1183  138.3969  153.8603 N   0  3  0  0  0  0  0  0  0  0  0  0
  147.0670  139.2470  153.2448 C   0  0  0  0  0  0  0  0  0  0  0  0
  146.3099  138.5294  152.1098 C   0  0  2  0  0  0  0  0  0  0  0  0
  145.3360  137.4718  152.6454 C   0  0  0  0  0  0  0  0  0  0  0  0
  147.2403  137.8826  151.2648 O   0  0  0  0  0  0  0  0  0  0  0  0
  149.3935  139.1168  154.1225 C   0  0  0  0  0  0  0  0  0  0  0  0
  150.4426  138.1494  154.7078 C   0  0  0  0  0  0  0  0  0  0  0  0
  151.8573  141.7539  158.2117 C   0  0  0  0  0  0  0  0  0  0  0  0
  152.5561  141.7868  159.4157 C   0  0  0  0  0  0  0  0  0  0  0  0
  152.5717  143.0113  160.1211 C   0  0  0  0  0  0  0  0  0  0  0  0
  153.3260  143.0784  161.4379 C   0  0  0  0  0  0  0  0  0  0  0  0
  151.3740  146.2465  159.8570 H   0  0  0  0  0  0  0  0  0  0  0  0
  152.9459  145.8121  160.5216 H   0  0  0  0  0  0  0  0  0  0  0  0
  151.4627  145.3408  161.3656 H   0  0  0  0  0  0  0  0  0  0  0  0
  150.6796  144.9685  158.0017 H   0  0  0  0  0  0  0  0  0  0  0  0
  150.5465  140.6427  155.3860 H   0  0  0  0  0  0  0  0  0  0  0  0
  152.6731  139.0760  156.5682 H   0  0  0  0  0  0  0  0  0  0  0  0
  153.0171  139.5150  158.2240 H   0  0  0  0  0  0  0  0  0  0  0  0
  150.8951  138.6044  159.0301 H   0  0  0  0  0  0  0  0  0  0  0  0
  151.2383  136.5459  157.4184 H   0  0  0  0  0  0  0  0  0  0  0  0
  149.0752  138.0128  157.7327 H   0  0  0  0  0  0  0  0  0  0  0  0
  149.6531  139.3630  156.8083 H   0  0  0  0  0  0  0  0  0  0  0  0
  148.9339  135.9876  154.9237 H   0  0  0  0  0  0  0  0  0  0  0  0
  148.3832  136.2816  156.5463 H   0  0  0  0  0  0  0  0  0  0  0  0
  146.7597  137.1148  154.8547 H   0  0  0  0  0  0  0  0  0  0  0  0
  147.3378  138.4454  155.8337 H   0  0  0  0  0  0  0  0  0  0  0  0
  146.3454  139.5470  154.0069 H   0  0  0  0  0  0  0  0  0  0  0  0
  147.5216  140.1691  152.8788 H   0  0  0  0  0  0  0  0  0  0  0  0
  145.7438  139.2431  151.5126 H   0  0  0  0  0  0  0  0  0  0  0  0
  144.5818  137.9257  153.2892 H   0  0  0  0  0  0  0  0  0  0  0  0
  145.8542  136.7095  153.2284 H   0  0  0  0  0  0  0  0  0  0  0  0
  144.8126  136.9697  151.8309 H   0  0  0  0  0  0  0  0  0  0  0  0
  147.6748  137.2012  151.7555 H   0  0  0  0  0  0  0  0  0  0  0  0
  149.7856  139.5380  153.1978 H   0  0  0  0  0  0  0  0  0  0  0  0
  149.2192  139.9562  154.7966 H   0  0  0  0  0  0  0  0  0  0  0  0
  151.3807  138.6756  154.8767 H   0  0  0  0  0  0  0  0  0  0  0  0
  150.6718  137.3920  153.9568 H   0  0  0  0  0  0  0  0  0  0  0  0
  153.0660  140.9157  159.7994 H   0  0  0  0  0  0  0  0  0  0  0  0
  153.7959  142.1241  161.6779 H   0  0  0  0  0  0  0  0  0  0  0  0
  152.6484  143.3313  162.2539 H   0  0  0  0  0  0  0  0  0  0  0  0
  154.1111  143.8334  161.3921 H   0  0  0  0  0  0  0  0  0  0  0  0
  148.3232  137.6673  153.1922 H   0  0  0  0  0  0  0  0  0  0  0  0
  150.0427  143.1088  155.8997 H   0  0  0  0  0  0  0  0  0  0  0  0
  1  2  1  0  0  0  0
  1 26  1  0  0  0  0
  1 27  1  0  0  0  0
  1 28  1  0  0  0  0
  2 24  1  0  0  0  0
  2  3  2  0  0  0  0
  3  4  1  0  0  0  0
  3 29  1  0  0  0  0
  4 22  2  0  0  0  0
  4  5  1  0  0  0  0
  5  6  2  0  0  0  0
  5 57  1  0  0  0  0
  6  7  1  0  0  0  0
  6 30  1  0  0  0  0
  7  8  1  0  0  0  0
  7 22  1  0  0  0  0
  8  9  1  0  0  0  0
  8 31  1  0  0  0  0
  8 32  1  0  0  0  0
  9 10  1  0  0  0  0
  9 11  1  0  0  0  0
  9 33  1  0  0  0  0
 10 34  1  0  0  0  0
 11 12  1  0  0  0  0
 11 35  1  0  0  0  0
 11 36  1  0  0  0  0
 12 21  1  0  0  0  0
 12 13  1  0  0  0  0
 13 14  1  0  0  0  0
 13 37  1  0  0  0  0
 13 38  1  0  0  0  0
 14 15  1  0  0  0  0
 14 39  1  0  0  0  0
 14 40  1  0  0  0  0
 15 16  1  0  0  0  0
 15 20  1  0  0  0  0
 15 56  1  0  0  0  0
 16 17  1  0  0  0  0
 16 41  1  0  0  0  0
 16 42  1  0  0  0  0
 17 18  1  0  0  0  0
 17 19  1  0  0  0  0
 17 43  1  0  0  0  0
 18 44  1  0  0  0  0
 18 45  1  0  0  0  0
 18 46  1  0  0  0  0
 19 47  1  0  0  0  0
 20 21  1  0  0  0  0
 20 48  1  0  0  0  0
 20 49  1  0  0  0  0
 21 50  1  0  0  0  0
 21 51  1  0  0  0  0
 22 23  1  0  0  0  0
 23 24  2  0  0  0  0
 23 52  1  0  0  0  0
 24 25  1  0  0  0  0
 25 53  1  0  0  0  0
 25 54  1  0  0  0  0
 25 55  1  0  0  0  0
M  CHG  1   5   1
M  CHG  1  15   1
M  END
> <s_m_source_file>
AV-unprocessed.smi

> <i_m_source_file_index>
1033

> <i_lp_mmshare_version>
43012

> <i_f3d_flags>
0

> <s_epik_input>
W0NIM11jKFtjSF0xKWMoW0NIM10pW2NIXWMoYzEyKW4oW2NIXW4yKVtDSDJdW0NASF0oW09IXSlbQ0gyXU4zW0NIMl1bQ0gyXU4oW0NIMl1bQ0gyXTMpW0NIMl1bQ0BIXShbQ0gzXSlbT0hd

> <s_epik_cmdline>
J2VwaWtfcHl0aG9uJywgJy1waCcsICc3LjAnLCAnLXRuJywgJzgnLCAnLW1hJywgJzIwMCcsICctbWV0YWxfYmluZGluZycsICctaW1hZScsICc8aW5maWxlLm1hZT4nLCAnLW9tYWUnLCAnPG91dGZpbGUubWFlPic=

> <r_epik_Ionization_Penalty>
1.28617

> <r_epik_Ionization_Penalty_Charging>
1.23646

> <r_epik_Ionization_Penalty_Neutral>
0.0497112

> <r_epik_State_Penalty>
1.79157

> <r_epik_Charging_Adjusted_Penalty>
3.02803

> <i_epik_Tot_Q>
2

> <i_epik_Tot_abs_Q>
2

> <r_epik_Metal_State_Penalty>
5.81739

> <b_epik_Metal_Only>
0

> <s_lp_Force_Field>
OPLS_2005

> <r_lp_Energy>
39.1755

> <b_lp_Chiralities_Consistent>
1

> <s_lp_Variant>
AV-unprocessed.smi:1033-13

> <Gold.Version>
5.8.1

> <Gold.Id.Protein>
6NUR|6NUR_protein|mol2

> <Gold.PLP.Fitness>
63.1804

> <Gold.PLP.PLP>
-48.8994

> <Gold.PLP.part.hbond>
-4.3783

> <Gold.PLP.part.metal>
0.0000

> <Gold.PLP.part.buried>
-4.8189

> <Gold.PLP.part.nonpolar>
-40.7549

> <Gold.PLP.part.repulsive>
0.1189

> <Gold.PLP.ligand.clash>
0.0000

> <Gold.PLP.ligand.torsion>
1.6628

> <Gold.PLP.Chemscore.Hbond>
5.8213

> <Gold.PLP.Chemscore.CHOScore>
0.0000

> <Gold.PLP.Chemscore.Metal>
0.0000

> <Gold.Chemscore.Hbonds>
donor molecule, donor type, donor heavy atom, donor atom, acceptor molecule, acceptor atom, score
      L1  H     5    57       P1  8028  1.98
      L1  H    15    56       P1  7948  1.92
      L1  H    19    47       P1  7948  0.90
      P1  H  7954  7966       L1    19  0.95

> <Gold.PLP.Chemscore.Internal.Correction>
0.1427

> <Gold.Rescore>
     Score         DG    S(hbond)    S(metal)    S(lipo)     H(rot)  DE(clash)    DE(int)     intcor
     21.84     -24.29       3.39        0.00     132.75       3.15       0.61       1.84       ----

> <Gold.Chemscore.Fitness>
21.8409

> <Gold.Chemscore.DG>
-24.2862

> <Gold.Chemscore.ZeroCoef>
-5.4800

> <Gold.Chemscore.Hbond>
3.3936

> <Gold.Chemscore.Metal>
0.0000

> <Gold.Chemscore.Lipo>
132.7450

> <Gold.Chemscore.Internal_Hbond>
0.0000

> <Gold.Chemscore.DEClash>
0.6053

> <Gold.Chemscore.DEInternal>
1.8399

> <Gold.Chemscore.Rot>
3.1483

> <Gold.Chemscore.Internal.Correction>
   9.000000E+99

> <Gold.Chemscore.Hbonds>
donor molecule, donor type, donor heavy atom, donor atom, acceptor molecule, acceptor atom, score
      L1  H     5    57       P1  8028  0.91
      L1  H    15    56       P1  7948  0.91
      L1  H    19    47       P1  7948  0.86
      P1  H  7954  7966       L1    19  0.21

> <Gold.Chemscore.Hbond.Weighted>
-11.3347

> <Gold.Chemscore.Metal.Weighted>
-0.0000

> <Gold.Chemscore.Lipo.Weighted>
-15.5312

> <Gold.Chemscore.Internal_Hbond.Weighted>
0.0000

> <Gold.Chemscore.DEClash.Weighted>
0.6053

> <Gold.Chemscore.DEInternal.Weighted>
1.8399

> <Gold.Chemscore.Rot.Weighted>
8.0597

> <Gold.Chemscore.Internal.Correction.Weighted>
   9.000000E+99

> <Gold.Protein.RotatedTorsions>
[ 6907 6896 6895 6894 ] final  -86.25 input  -60.11 | X-H torsion
[ 7974 7965 7964 7962 ] final -142.35 input  175.53 | X-H torsion
[ 8008 7997 7996 7995 ] final   45.65 input   59.86 | X-H torsion
[ 10167 10162 10161 10158 ] final  -62.42 input  -65.29 | X-H torsion
[ 10718 10713 10712 10709 ] final   54.43 input   66.30 | X-H torsion
[ 10763 10752 10751 10750 ] final -148.40 input  -60.55 | X-H torsion
[ 11005 11000 10999 10996 ] final  -49.56 input  -57.11 | X-H torsion

> <Gold.Protein.ActiveResidues>
 VAL166  LYS551  ARG553  GLY616  TRP617  ASP618  TYR619  PRO620  LYS621  CYS622 
 ASP623  PHE694  ASN695  SER759  ASP760  ASP761  ALA762  ILE779  LEU786  VAL792 
 PHE793  MET794  SER795  GLU796  ALA797  LYS798  CYS799  TRP800  GLU811  SER814 

> <Gold.Protein.RotatedAtoms>
  150.6867  134.3079  159.4733 H   0  0  0  0  0  0  0  0  0  0  0  0  # atno 6907 bound_to 6896
  152.0968  134.9367  160.0580 H   0  0  0  0  0  0  0  0  0  0  0  0  # atno 6908 bound_to 6896
  152.0661  133.4050  159.4476 H   0  0  0  0  0  0  0  0  0  0  0  0  # atno 6909 bound_to 6896
  144.8450  140.5969  143.5427 H   0  0  0  0  0  0  0  0  0  0  0  0  # atno 7974 bound_to 7965
  155.3394  140.3407  155.4239 H   0  0  0  0  0  0  0  0  0  0  0  0  # atno 8008 bound_to 7997
  156.1821  140.1667  156.8291 H   0  0  0  0  0  0  0  0  0  0  0  0  # atno 8009 bound_to 7997
  154.5345  140.0738  156.8386 H   0  0  0  0  0  0  0  0  0  0  0  0  # atno 8010 bound_to 7997
  140.5940  143.2347  151.6076 H   0  0  0  0  0  0  0  0  0  0  0  0  # atno 10167 bound_to 10162
  157.5256  130.8595  149.8617 H   0  0  0  0  0  0  0  0  0  0  0  0  # atno 10718 bound_to 10713
  154.8235  135.3335  154.6968 H   0  0  0  0  0  0  0  0  0  0  0  0  # atno 10763 bound_to 10752
  153.7597  135.6933  153.4932 H   0  0  0  0  0  0  0  0  0  0  0  0  # atno 10764 bound_to 10752
  153.2118  135.4479  155.0338 H   0  0  0  0  0  0  0  0  0  0  0  0  # atno 10765 bound_to 10752
  141.0766  133.6664  156.3603 H   0  0  0  0  0  0  0  0  0  0  0  0  # atno 11005 bound_to 11000
  145.4615  139.1512  143.3864 LP  0  0  0  0  0  0  0  0  0  0  0  0  # atno 17320 bound_to 7965
  146.2736  140.4745  142.8804 LP  0  0  0  0  0  0  0  0  0  0  0  0  # atno 17321 bound_to 7965
  139.5246  144.3099  152.1002 LP  0  0  0  0  0  0  0  0  0  0  0  0  # atno 17342 bound_to 10162
  140.2268  144.4410  150.6317 LP  0  0  0  0  0  0  0  0  0  0  0  0  # atno 17343 bound_to 10162
  156.0384  130.3745  150.1498 LP  0  0  0  0  0  0  0  0  0  0  0  0  # atno 17370 bound_to 10713
  156.9685  130.9827  151.3464 LP  0  0  0  0  0  0  0  0  0  0  0  0  # atno 17371 bound_to 10713
  140.5560  134.5981  157.5421 LP  0  0  0  0  0  0  0  0  0  0  0  0  # atno 17394 bound_to 11000
  139.9578  134.7504  156.0302 LP  0  0  0  0  0  0  0  0  0  0  0  0  # atno 17395 bound_to 11000

$$$$
