AV-unprocessed.smi:2680|AV-procd|sdf|10372|dock6
  -GOLD-   2272014403D 1   1.00000     0.00000
 Structure written by MMmdl.
 37 38  0  0  0  0  0  0  0  0  2 V2000
  151.5349  145.4877  159.5071 C   0  0  0  0  0  0  0  0  0  0  0  0
  151.8064  144.0268  159.2924 C   0  0  0  0  0  0  0  0  0  0  0  0
  151.3563  143.1993  158.2248 C   0  0  0  0  0  0  0  0  0  0  0  0
  151.7795  141.9500  158.3278 N   0  0  0  0  0  0  0  0  0  0  0  0
  152.5230  141.9364  159.4549 N   0  0  0  0  0  0  0  0  0  0  0  0
  153.1617  140.7009  159.8843 C   0  0  0  0  0  0  0  0  0  0  0  0
  153.1468  139.6357  158.7837 C   0  0  0  0  0  0  0  0  0  0  0  0
  154.2057  139.1064  158.4498 O   0  0  0  0  0  0  0  0  0  0  0  0
  151.9399  139.3613  158.2514 N   0  0  0  0  0  0  0  0  0  0  0  0
  151.5218  138.4938  157.1393 C   0  0  0  0  0  0  0  0  0  0  0  0
  152.0790  137.0943  157.5081 C   0  0  0  0  0  0  0  0  0  0  0  0
  151.6967  136.5772  158.5819 O   0  0  0  0  0  0  0  0  0  0  0  0
  152.9210  136.5767  156.7399 O   0  5  0  0  0  0  0  0  0  0  0  0
  149.9799  138.4375  156.8932 C   0  0  0  0  0  0  0  0  0  0  0  0
  149.5963  137.6412  155.6307 C   0  0  0  0  0  0  0  0  0  0  0  0
  150.2912  138.2106  154.3854 C   0  0  0  0  0  0  0  0  0  0  0  0
  151.8137  138.2664  154.5758 C   0  0  0  0  0  0  0  0  0  0  0  0
  152.1914  139.0488  155.8496 C   0  0  0  0  0  0  0  0  0  0  0  0
  152.5439  143.1750  160.0643 C   0  0  0  0  0  0  0  0  0  0  0  0
  150.8507  145.8879  158.7586 H   0  0  0  0  0  0  0  0  0  0  0  0
  152.4506  146.0770  159.4525 H   0  0  0  0  0  0  0  0  0  0  0  0
  151.0887  145.6749  160.4838 H   0  0  0  0  0  0  0  0  0  0  0  0
  150.7371  143.4689  157.3820 H   0  0  0  0  0  0  0  0  0  0  0  0
  154.1888  140.9276  160.1728 H   0  0  0  0  0  0  0  0  0  0  0  0
  152.6554  140.3105  160.7686 H   0  0  0  0  0  0  0  0  0  0  0  0
  151.1776  139.8926  158.6470 H   0  0  0  0  0  0  0  0  0  0  0  0
  149.4545  138.0242  157.7553 H   0  0  0  0  0  0  0  0  0  0  0  0
  149.5958  139.4500  156.7637 H   0  0  0  0  0  0  0  0  0  0  0  0
  149.8587  136.5898  155.7518 H   0  0  0  0  0  0  0  0  0  0  0  0
  148.5152  137.6702  155.4931 H   0  0  0  0  0  0  0  0  0  0  0  0
  150.0465  137.6054  153.5122 H   0  0  0  0  0  0  0  0  0  0  0  0
  149.9123  139.2133  154.1841 H   0  0  0  0  0  0  0  0  0  0  0  0
  152.2145  137.2536  154.6230 H   0  0  0  0  0  0  0  0  0  0  0  0
  152.2758  138.7348  153.7064 H   0  0  0  0  0  0  0  0  0  0  0  0
  151.8921  140.0894  155.7157 H   0  0  0  0  0  0  0  0  0  0  0  0
  153.2776  139.0752  155.9513 H   0  0  0  0  0  0  0  0  0  0  0  0
  153.0877  143.3479  160.9816 H   0  0  0  0  0  0  0  0  0  0  0  0
  1  2  1  0  0  0  0
  1 20  1  0  0  0  0
  1 21  1  0  0  0  0
  1 22  1  0  0  0  0
  2 19  2  0  0  0  0
  2  3  1  0  0  0  0
  3  4  2  0  0  0  0
  3 23  1  0  0  0  0
  4  5  1  0  0  0  0
  5  6  1  0  0  0  0
  5 19  1  0  0  0  0
  6  7  1  0  0  0  0
  6 24  1  0  0  0  0
  6 25  1  0  0  0  0
  7  8  2  0  0  0  0
  7  9  1  0  0  0  0
  9 10  1  0  0  0  0
  9 26  1  0  0  0  0
 10 18  1  0  0  0  0
 10 11  1  0  0  0  0
 10 14  1  0  0  0  0
 11 12  2  0  0  0  0
 11 13  1  0  0  0  0
 14 15  1  0  0  0  0
 14 27  1  0  0  0  0
 14 28  1  0  0  0  0
 15 16  1  0  0  0  0
 15 29  1  0  0  0  0
 15 30  1  0  0  0  0
 16 17  1  0  0  0  0
 16 31  1  0  0  0  0
 16 32  1  0  0  0  0
 17 18  1  0  0  0  0
 17 33  1  0  0  0  0
 17 34  1  0  0  0  0
 18 35  1  0  0  0  0
 18 36  1  0  0  0  0
 19 37  1  0  0  0  0
M  CHG  1  13  -1
M  END
> <s_m_source_file>
AV-unprocessed.smi

> <i_m_source_file_index>
2680

> <i_lp_mmshare_version>
43012

> <i_f3d_flags>
0

> <s_epik_input>
W0NIM11jMVtjSF1ubihbY0hdMSlbQ0gyXUMoPU8pW05IXUMyKEMoPU8pW09IXSlbQ0gyXVtDSDJdW0NIMl1bQ0gyXVtDSDJdMg==

> <s_epik_cmdline>
J2VwaWtfcHl0aG9uJywgJy1waCcsICc3LjAnLCAnLXRuJywgJzgnLCAnLW1hJywgJzIwMCcsICctbWV0YWxfYmluZGluZycsICctaW1hZScsICc8aW5maWxlLm1hZT4nLCAnLW9tYWUnLCAnPG91dGZpbGUubWFlPic=

> <r_lp_tautomer_probability>
1

> <r_epik_Ionization_Penalty>
0.000361632

> <r_epik_Ionization_Penalty_Charging>
0.000323848

> <r_epik_Ionization_Penalty_Neutral>
3.77838e-05

> <r_epik_State_Penalty>
0.000195685

> <r_epik_Charging_Adjusted_Penalty>
0.000519533

> <i_epik_Tot_Q>
-1

> <i_epik_Tot_abs_Q>
1

> <r_epik_Metal_State_Penalty>
-0

> <b_epik_Metal_Only>
0

> <s_lp_Force_Field>
OPLS_2005

> <r_lp_Energy>
4.37628

> <b_lp_Chiralities_Consistent>
1

> <s_lp_Variant>
AV-unprocessed.smi:2680-1

> <Gold.Version>
5.8.1

> <Gold.Id.Protein>
6NUR|6NUR_protein|mol2

> <Gold.PLP.Fitness>
50.2944

> <Gold.PLP.PLP>
-36.3252

> <Gold.PLP.part.hbond>
-3.0000

> <Gold.PLP.part.metal>
0.0000

> <Gold.PLP.part.buried>
-3.3701

> <Gold.PLP.part.nonpolar>
-30.4072

> <Gold.PLP.part.repulsive>
0.0897

> <Gold.PLP.ligand.clash>
0.0000

> <Gold.PLP.ligand.torsion>
0.2370

> <Gold.PLP.Chemscore.Hbond>
4.5360

> <Gold.PLP.Chemscore.CHOScore>
0.2622

> <Gold.PLP.Chemscore.Metal>
0.0000

> <Gold.Chemscore.Hbonds>
donor molecule, donor type, donor heavy atom, donor atom, acceptor molecule, acceptor atom, score
      P1  H  6896  6907       L1    12  1.41
      P1  H  7997  8010       L1     8  1.00
      P1  H 10752 10765       L1    13  1.95
      L1  C     3    23       P1  8028  0.31

> <Gold.PLP.Chemscore.Internal.Correction>
0.0488

> <Gold.Rescore>
     Score         DG    S(hbond)    S(metal)    S(lipo)     H(rot)  DE(clash)    DE(int)     intcor
     18.43     -19.93       2.64        0.00      91.16       1.96       0.03       1.48       ----

> <Gold.Chemscore.Fitness>
18.4287

> <Gold.Chemscore.DG>
-19.9316

> <Gold.Chemscore.ZeroCoef>
-5.4800

> <Gold.Chemscore.Hbond>
2.6376

> <Gold.Chemscore.Metal>
0.0000

> <Gold.Chemscore.Lipo>
91.1558

> <Gold.Chemscore.Internal_Hbond>
0.0000

> <Gold.Chemscore.DEClash>
0.0251

> <Gold.Chemscore.DEInternal>
1.4778

> <Gold.Chemscore.Rot>
1.9622

> <Gold.Chemscore.Internal.Correction>
   9.000000E+99

> <Gold.Chemscore.Hbonds>
donor molecule, donor type, donor heavy atom, donor atom, acceptor molecule, acceptor atom, score
      P1  H  6896  6907       L1    12  0.69
      P1  H  7997  8010       L1     8  0.39
      P1  H 10752 10765       L1    13  0.91

> <Gold.Chemscore.Hbond.Weighted>
-8.8097

> <Gold.Chemscore.Metal.Weighted>
-0.0000

> <Gold.Chemscore.Lipo.Weighted>
-10.6652

> <Gold.Chemscore.Internal_Hbond.Weighted>
0.0000

> <Gold.Chemscore.DEClash.Weighted>
0.0251

> <Gold.Chemscore.DEInternal.Weighted>
1.4778

> <Gold.Chemscore.Rot.Weighted>
5.0233

> <Gold.Chemscore.Internal.Correction.Weighted>
   9.000000E+99

> <Gold.Protein.RotatedTorsions>
[ 6907 6896 6895 6894 ] final   -6.90 input  -60.11 | X-H torsion
[ 7974 7965 7964 7962 ] final  127.28 input  175.53 | X-H torsion
[ 8008 7997 7996 7995 ] final   29.12 input   59.86 | X-H torsion
[ 10167 10162 10161 10158 ] final  -63.01 input  -65.29 | X-H torsion
[ 10718 10713 10712 10709 ] final -108.86 input   66.30 | X-H torsion
[ 10763 10752 10751 10750 ] final -143.47 input  -60.55 | X-H torsion
[ 11005 11000 10999 10996 ] final   -9.02 input  -57.11 | X-H torsion

> <Gold.Protein.ActiveResidues>
 VAL166  LYS551  ARG553  GLY616  TRP617  ASP618  TYR619  PRO620  LYS621  CYS622 
 ASP623  PHE694  ASN695  SER759  ASP760  ASP761  ALA762  ILE779  LEU786  VAL792 
 PHE793  MET794  SER795  GLU796  ALA797  LYS798  CYS799  TRP800  GLU811  SER814 

> <Gold.Protein.RotatedAtoms>
  151.4582  135.1036  159.9717 H   0  0  0  0  0  0  0  0  0  0  0  0  # atno 6907 bound_to 6896
  152.4863  133.8377  159.7146 H   0  0  0  0  0  0  0  0  0  0  0  0  # atno 6908 bound_to 6896
  150.8975  133.7102  159.2915 H   0  0  0  0  0  0  0  0  0  0  0  0  # atno 6909 bound_to 6896
  145.0523  139.3872  143.5047 H   0  0  0  0  0  0  0  0  0  0  0  0  # atno 7974 bound_to 7965
  155.0694  140.3198  155.4635 H   0  0  0  0  0  0  0  0  0  0  0  0  # atno 8008 bound_to 7997
  156.2794  140.2114  156.5767 H   0  0  0  0  0  0  0  0  0  0  0  0  # atno 8009 bound_to 7997
  154.7067  140.0502  157.0498 H   0  0  0  0  0  0  0  0  0  0  0  0  # atno 8010 bound_to 7997
  140.5900  143.2340  151.6160 H   0  0  0  0  0  0  0  0  0  0  0  0  # atno 10167 bound_to 10162
  156.0507  130.5734  150.8020 H   0  0  0  0  0  0  0  0  0  0  0  0  # atno 10718 bound_to 10713
  154.8468  135.3467  154.6193 H   0  0  0  0  0  0  0  0  0  0  0  0  # atno 10763 bound_to 10752
  153.6801  135.6980  153.5125 H   0  0  0  0  0  0  0  0  0  0  0  0  # atno 10764 bound_to 10752
  153.2675  135.4303  155.0911 H   0  0  0  0  0  0  0  0  0  0  0  0  # atno 10765 bound_to 10752
  140.7297  133.8759  155.8884 H   0  0  0  0  0  0  0  0  0  0  0  0  # atno 11005 bound_to 11000
  146.3519  140.0180  142.8661 LP  0  0  0  0  0  0  0  0  0  0  0  0  # atno 17320 bound_to 7965
  145.1511  140.9623  143.4432 LP  0  0  0  0  0  0  0  0  0  0  0  0  # atno 17321 bound_to 7965
  139.5221  144.3172  152.0942 LP  0  0  0  0  0  0  0  0  0  0  0  0  # atno 17342 bound_to 10162
  140.2335  144.4344  150.6290 LP  0  0  0  0  0  0  0  0  0  0  0  0  # atno 17343 bound_to 10162
  157.5430  131.0941  150.9801 LP  0  0  0  0  0  0  0  0  0  0  0  0  # atno 17370 bound_to 10713
  157.0079  130.5625  149.5318 LP  0  0  0  0  0  0  0  0  0  0  0  0  # atno 17371 bound_to 10713
  140.9931  134.1251  157.4389 LP  0  0  0  0  0  0  0  0  0  0  0  0  # atno 17394 bound_to 11000
  139.8829  135.0046  156.6262 LP  0  0  0  0  0  0  0  0  0  0  0  0  # atno 17395 bound_to 11000

$$$$
