AV-unprocessed.smi:2507|AV-procd|sdf|9863|dock1
  -GOLD-   2272013493D 1   1.00000     0.00000
 Structure written by MMmdl.
 44 45  0  0  0  0  0  0  0  0  1 V2000
  144.9487  133.0925  150.7600 C   0  0  0  0  0  0  0  0  0  0  0  0
  146.1234  133.7104  151.5267 C   0  0  0  0  0  0  0  0  0  0  0  0
  146.8545  132.6913  152.3572 C   0  0  0  0  0  0  0  0  0  0  0  0
  146.4410  131.4310  152.3716 N   0  0  0  0  0  0  0  0  0  0  0  0
  147.2984  130.7843  153.1967 N   0  0  0  0  0  0  0  0  0  0  0  0
  147.1210  129.3679  153.4342 C   0  0  0  0  0  0  0  0  0  0  0  0
  148.2619  131.6257  153.7134 C   0  0  0  0  0  0  0  0  0  0  0  0
  147.9966  132.8585  153.1873 C   0  0  0  0  0  0  0  0  0  0  0  0
  148.6818  134.0841  153.3910 N   0  0  0  0  0  0  0  0  0  0  0  0
  149.5107  134.3980  154.4001 C   0  0  0  0  0  0  0  0  0  0  0  0
  149.8325  133.6402  155.3155 O   0  0  0  0  0  0  0  0  0  0  0  0
  149.9547  135.6572  154.2926 N   0  0  0  0  0  0  0  0  0  0  0  0
  150.8642  136.2916  155.2368 C   0  0  0  0  0  0  0  0  0  0  0  0
  151.3132  137.6653  154.7173 C   0  0  0  0  0  0  0  0  0  0  0  0
  150.4214  138.8128  155.2181 C   0  0  2  0  0  0  0  0  0  0  0  0
  149.1740  139.0038  154.3332 C   0  0  0  0  0  0  0  0  0  0  0  0
  148.3500  140.2036  154.8146 C   0  0  0  0  0  0  0  0  0  0  0  0
  149.2471  141.4419  154.9110 C   0  0  0  0  0  0  0  0  0  0  0  0
  150.4945  141.1344  155.7547 C   0  0  0  0  0  0  0  0  0  0  0  0
  151.1871  140.0164  155.2080 O   0  0  0  0  0  0  0  0  0  0  0  0
  144.4381  133.8456  150.1597 H   0  0  0  0  0  0  0  0  0  0  0  0
  144.2166  132.6599  151.4427 H   0  0  0  0  0  0  0  0  0  0  0  0
  145.2886  132.3039  150.0878 H   0  0  0  0  0  0  0  0  0  0  0  0
  146.8089  134.1774  150.8192 H   0  0  0  0  0  0  0  0  0  0  0  0
  145.7559  134.5158  152.1635 H   0  0  0  0  0  0  0  0  0  0  0  0
  147.9285  128.9900  154.0617 H   0  0  0  0  0  0  0  0  0  0  0  0
  147.1285  128.8294  152.4860 H   0  0  0  0  0  0  0  0  0  0  0  0
  146.1693  129.1956  153.9379 H   0  0  0  0  0  0  0  0  0  0  0  0
  149.0264  131.2746  154.3906 H   0  0  0  0  0  0  0  0  0  0  0  0
  148.5104  134.8026  152.7030 H   0  0  0  0  0  0  0  0  0  0  0  0
  149.6439  136.2123  153.5089 H   0  0  0  0  0  0  0  0  0  0  0  0
  150.3692  136.4037  156.2029 H   0  0  0  0  0  0  0  0  0  0  0  0
  151.7276  135.6424  155.3895 H   0  0  0  0  0  0  0  0  0  0  0  0
  152.3474  137.8524  155.0097 H   0  0  0  0  0  0  0  0  0  0  0  0
  151.2999  137.6518  153.6265 H   0  0  0  0  0  0  0  0  0  0  0  0
  150.1076  138.5944  156.2405 H   0  0  0  0  0  0  0  0  0  0  0  0
  149.4775  139.1622  153.2975 H   0  0  0  0  0  0  0  0  0  0  0  0
  148.5595  138.1030  154.3444 H   0  0  0  0  0  0  0  0  0  0  0  0
  147.5155  140.3891  154.1380 H   0  0  0  0  0  0  0  0  0  0  0  0
  147.9194  139.9847  155.7926 H   0  0  0  0  0  0  0  0  0  0  0  0
  149.5518  141.7523  153.9110 H   0  0  0  0  0  0  0  0  0  0  0  0
  148.6946  142.2763  155.3436 H   0  0  0  0  0  0  0  0  0  0  0  0
  151.1643  141.9943  155.7600 H   0  0  0  0  0  0  0  0  0  0  0  0
  150.2243  140.9355  156.7928 H   0  0  0  0  0  0  0  0  0  0  0  0
  1  2  1  0  0  0  0
  1 21  1  0  0  0  0
  1 22  1  0  0  0  0
  1 23  1  0  0  0  0
  2  3  1  0  0  0  0
  2 24  1  0  0  0  0
  2 25  1  0  0  0  0
  3  8  1  0  0  0  0
  3  4  2  0  0  0  0
  4  5  1  0  0  0  0
  5  6  1  0  0  0  0
  5  7  1  0  0  0  0
  6 26  1  0  0  0  0
  6 27  1  0  0  0  0
  6 28  1  0  0  0  0
  7  8  2  0  0  0  0
  7 29  1  0  0  0  0
  8  9  1  0  0  0  0
  9 10  1  0  0  0  0
  9 30  1  0  0  0  0
 10 11  2  0  0  0  0
 10 12  1  0  0  0  0
 12 13  1  0  0  0  0
 12 31  1  0  0  0  0
 13 14  1  0  0  0  0
 13 32  1  0  0  0  0
 13 33  1  0  0  0  0
 14 15  1  0  0  0  0
 14 34  1  0  0  0  0
 14 35  1  0  0  0  0
 15 20  1  0  0  0  0
 15 16  1  0  0  0  0
 15 36  1  0  0  0  0
 16 17  1  0  0  0  0
 16 37  1  0  0  0  0
 16 38  1  0  0  0  0
 17 18  1  0  0  0  0
 17 39  1  0  0  0  0
 17 40  1  0  0  0  0
 18 19  1  0  0  0  0
 18 41  1  0  0  0  0
 18 42  1  0  0  0  0
 19 20  1  0  0  0  0
 19 43  1  0  0  0  0
 19 44  1  0  0  0  0
M  END
> <s_m_source_file>
AV-unprocessed.smi

> <i_m_source_file_index>
2507

> <i_lp_mmshare_version>
43012

> <i_f3d_flags>
0

> <s_epik_input>
W0NIM11bQ0gyXWMxbm4oW0NIM10pW2NIXWMxW05IXUMoPU8pW05IXVtDSDJdW0NIMl1bQ0BASF0yW0NIMl1bQ0gyXVtDSDJdW0NIMl1PMg==

> <s_epik_cmdline>
J2VwaWtfcHl0aG9uJywgJy1waCcsICc3LjAnLCAnLXRuJywgJzgnLCAnLW1hJywgJzIwMCcsICctbWV0YWxfYmluZGluZycsICctaW1hZScsICc8aW5maWxlLm1hZT4nLCAnLW9tYWUnLCAnPG91dGZpbGUubWFlPic=

> <r_lp_tautomer_probability>
1

> <r_epik_Ionization_Penalty>
0.00072031

> <r_epik_Ionization_Penalty_Charging>
0

> <r_epik_Ionization_Penalty_Neutral>
0.00072031

> <r_epik_State_Penalty>
-0

> <r_epik_Charging_Adjusted_Penalty>
0

> <i_epik_Tot_Q>
0

> <i_epik_Tot_abs_Q>
0

> <r_epik_Metal_State_Penalty>
-0

> <b_epik_Metal_Only>
0

> <s_lp_Force_Field>
OPLS_2005

> <r_lp_Energy>
7.60695

> <b_lp_Chiralities_Consistent>
1

> <s_lp_Variant>
AV-unprocessed.smi:2507-1

> <Gold.Version>
5.8.1

> <Gold.Id.Protein>
6NUR|6NUR_protein|mol2

> <Gold.PLP.Fitness>
42.1080

> <Gold.PLP.PLP>
-35.0421

> <Gold.PLP.part.hbond>
-3.6985

> <Gold.PLP.part.metal>
0.0000

> <Gold.PLP.part.buried>
-2.3839

> <Gold.PLP.part.nonpolar>
-29.5090

> <Gold.PLP.part.repulsive>
0.2765

> <Gold.PLP.ligand.clash>
0.0000

> <Gold.PLP.ligand.torsion>
0.6007

> <Gold.PLP.Chemscore.Hbond>
2.7420

> <Gold.PLP.Chemscore.CHOScore>
0.0000

> <Gold.PLP.Chemscore.Metal>
0.0000

> <Gold.Chemscore.Hbonds>
donor molecule, donor type, donor heavy atom, donor atom, acceptor molecule, acceptor atom, score
      L1  H     9    30       P1  7948  1.00
      L1  H    12    31       P1  7948  0.93
      P1  H  7989  7998       L1    20  0.80

> <Gold.PLP.Chemscore.Internal.Correction>
0.0412

> <Gold.Rescore>
     Score         DG    S(hbond)    S(metal)    S(lipo)     H(rot)  DE(clash)    DE(int)     intcor
     14.05     -15.65       1.57        0.00      75.16       1.50       0.17       1.43       ----

> <Gold.Chemscore.Fitness>
14.0505

> <Gold.Chemscore.DG>
-15.6534

> <Gold.Chemscore.ZeroCoef>
-5.4800

> <Gold.Chemscore.Hbond>
1.5661

> <Gold.Chemscore.Metal>
0.0000

> <Gold.Chemscore.Lipo>
75.1572

> <Gold.Chemscore.Internal_Hbond>
0.0000

> <Gold.Chemscore.DEClash>
0.1698

> <Gold.Chemscore.DEInternal>
1.4330

> <Gold.Chemscore.Rot>
1.5042

> <Gold.Chemscore.Internal.Correction>
   9.000000E+99

> <Gold.Chemscore.Hbonds>
donor molecule, donor type, donor heavy atom, donor atom, acceptor molecule, acceptor atom, score
      L1  H     9    30       P1  7948  0.29
      L1  H    12    31       P1  7948  0.32
      P1  H  7989  7998       L1    20  0.11

> <Gold.Chemscore.Hbond.Weighted>
-5.2307

> <Gold.Chemscore.Metal.Weighted>
-0.0000

> <Gold.Chemscore.Lipo.Weighted>
-8.7934

> <Gold.Chemscore.Internal_Hbond.Weighted>
0.0000

> <Gold.Chemscore.DEClash.Weighted>
0.1698

> <Gold.Chemscore.DEInternal.Weighted>
1.4330

> <Gold.Chemscore.Rot.Weighted>
3.8507

> <Gold.Chemscore.Internal.Correction.Weighted>
   9.000000E+99

> <Gold.Protein.RotatedTorsions>
[ 6907 6896 6895 6894 ] final   75.78 input  -60.11 | X-H torsion
[ 7974 7965 7964 7962 ] final  -81.86 input  175.53 | X-H torsion
[ 8008 7997 7996 7995 ] final  172.67 input   59.86 | X-H torsion
[ 10167 10162 10161 10158 ] final -118.48 input  -65.29 | X-H torsion
[ 10718 10713 10712 10709 ] final  -80.24 input   66.30 | X-H torsion
[ 10763 10752 10751 10750 ] final  179.43 input  -60.55 | X-H torsion
[ 11005 11000 10999 10996 ] final   51.39 input  -57.11 | X-H torsion

> <Gold.Protein.ActiveResidues>
 VAL166  LYS551  ARG553  GLY616  TRP617  ASP618  TYR619  PRO620  LYS621  CYS622 
 ASP623  PHE694  ASN695  SER759  ASP760  ASP761  ALA762  ILE779  LEU786  VAL792 
 PHE793  MET794  SER795  GLU796  ALA797  LYS798  CYS799  TRP800  GLU811  SER814 

> <Gold.Protein.RotatedAtoms>
  152.5042  134.4069  159.9435 H   0  0  0  0  0  0  0  0  0  0  0  0  # atno 6907 bound_to 6896
  151.4035  133.3744  159.2743 H   0  0  0  0  0  0  0  0  0  0  0  0  # atno 6908 bound_to 6896
  150.9344  134.8779  159.7631 H   0  0  0  0  0  0  0  0  0  0  0  0  # atno 6909 bound_to 6896
  145.5410  140.9509  143.1551 H   0  0  0  0  0  0  0  0  0  0  0  0  # atno 7974 bound_to 7965
  156.1151  140.1480  156.9284 H   0  0  0  0  0  0  0  0  0  0  0  0  # atno 8008 bound_to 7997
  154.4795  140.0884  156.7385 H   0  0  0  0  0  0  0  0  0  0  0  0  # atno 8009 bound_to 7997
  155.4527  140.3435  155.4305 H   0  0  0  0  0  0  0  0  0  0  0  0  # atno 8010 bound_to 7997
  140.0570  143.5004  152.2052 H   0  0  0  0  0  0  0  0  0  0  0  0  # atno 10167 bound_to 10162
  156.0074  130.4568  150.3771 H   0  0  0  0  0  0  0  0  0  0  0  0  # atno 10718 bound_to 10713
  154.5205  135.2793  155.1266 H   0  0  0  0  0  0  0  0  0  0  0  0  # atno 10763 bound_to 10752
  154.2825  135.6282  153.5356 H   0  0  0  0  0  0  0  0  0  0  0  0  # atno 10764 bound_to 10752
  152.9936  135.5654  154.5693 H   0  0  0  0  0  0  0  0  0  0  0  0  # atno 10765 bound_to 10752
  140.0937  134.5175  155.8828 H   0  0  0  0  0  0  0  0  0  0  0  0  # atno 11005 bound_to 11000
  144.7577  139.7034  143.7247 LP  0  0  0  0  0  0  0  0  0  0  0  0  # atno 17320 bound_to 7965
  146.1981  139.5259  142.9761 LP  0  0  0  0  0  0  0  0  0  0  0  0  # atno 17321 bound_to 7965
  139.5917  144.7552  151.3385 LP  0  0  0  0  0  0  0  0  0  0  0  0  # atno 17342 bound_to 10162
  140.7190  143.7189  150.7711 LP  0  0  0  0  0  0  0  0  0  0  0  0  # atno 17343 bound_to 10162
  157.1852  131.0402  151.2728 LP  0  0  0  0  0  0  0  0  0  0  0  0  # atno 17370 bound_to 10713
  157.4110  130.7385  149.6839 LP  0  0  0  0  0  0  0  0  0  0  0  0  # atno 17371 bound_to 10713
  141.2085  133.6675  156.6378 LP  0  0  0  0  0  0  0  0  0  0  0  0  # atno 17394 bound_to 11000
  140.3317  134.7923  157.4331 LP  0  0  0  0  0  0  0  0  0  0  0  0  # atno 17395 bound_to 11000

$$$$
