AV-unprocessed.smi:514|AV-procd|sdf|2779|dock10
  -GOLD-   2262023253D 1   1.00000     0.00000
 Structure written by MMmdl.
 44 46  0  0  0  0  0  0  0  0  2 V2000
  147.6523  141.2104  155.0111 C   0  0  0  0  0  0  0  0  0  0  0  0
  148.5914  140.0878  154.5479 C   0  0  0  0  0  0  0  0  0  0  0  0
  149.9346  140.3294  154.9427 O   0  0  0  0  0  0  0  0  0  0  0  0
  150.1074  140.5028  156.3411 C   0  0  0  0  0  0  0  0  0  0  0  0
  151.4417  141.2264  156.5836 C   0  0  0  0  0  0  0  0  0  0  0  0
  152.0691  140.8219  157.8387 N   0  0  0  0  0  0  0  0  0  0  0  0
  152.4425  141.5948  158.8998 C   0  0  0  0  0  0  0  0  0  0  0  0
  152.2876  142.9870  158.9387 N   0  0  0  0  0  0  0  0  0  0  0  0
  152.6728  143.8166  160.0798 C   0  0  0  0  0  0  0  0  0  0  0  0
  151.5305  144.7697  160.4844 C   0  0  0  0  0  0  0  0  0  0  0  0
  151.2197  145.6652  159.3761 N   0  0  0  0  0  0  0  0  0  0  0  0
  150.8176  144.8575  158.2305 C   0  0  0  0  0  0  0  0  0  0  0  0
  151.9665  143.9050  157.8448 C   0  0  0  0  0  0  0  0  0  0  0  0
  152.9407  140.9054  159.9293 N   0  0  0  0  0  0  0  0  0  0  0  0
  152.9031  139.5940  159.4860 C   0  0  0  0  0  0  0  0  0  0  0  0
  152.3727  139.5144  158.2374 C   0  0  0  0  0  0  0  0  0  0  0  0
  152.1692  138.2390  157.5128 C   0  0  0  0  0  0  0  0  0  0  0  0
  151.6691  138.2177  156.3902 O   0  0  0  0  0  0  0  0  0  0  0  0
  152.5911  137.1568  158.2405 N   0  5  0  0  0  0  0  0  0  0  0  0
  153.1378  137.1941  159.5052 C   0  0  0  0  0  0  0  0  0  0  0  0
  153.4846  136.1693  160.0940 O   0  0  0  0  0  0  0  0  0  0  0  0
  153.3046  138.3971  160.1390 N   0  0  0  0  0  0  0  0  0  0  0  0
  153.8848  138.4692  161.4831 C   0  0  0  0  0  0  0  0  0  0  0  0
  146.6155  140.9622  154.7836 H   0  0  0  0  0  0  0  0  0  0  0  0
  147.8750  142.1569  154.5198 H   0  0  0  0  0  0  0  0  0  0  0  0
  147.7290  141.3638  156.0876 H   0  0  0  0  0  0  0  0  0  0  0  0
  148.2772  139.1538  155.0135 H   0  0  0  0  0  0  0  0  0  0  0  0
  148.5209  139.9347  153.4701 H   0  0  0  0  0  0  0  0  0  0  0  0
  149.2781  141.0811  156.7482 H   0  0  0  0  0  0  0  0  0  0  0  0
  150.0981  139.5411  156.8514 H   0  0  0  0  0  0  0  0  0  0  0  0
  152.1302  141.0516  155.7600 H   0  0  0  0  0  0  0  0  0  0  0  0
  151.2919  142.3056  156.5929 H   0  0  0  0  0  0  0  0  0  0  0  0
  152.9208  143.1811  160.9303 H   0  0  0  0  0  0  0  0  0  0  0  0
  153.5766  144.3778  159.8386 H   0  0  0  0  0  0  0  0  0  0  0  0
  150.6409  144.2072  160.7714 H   0  0  0  0  0  0  0  0  0  0  0  0
  151.8268  145.3660  161.3474 H   0  0  0  0  0  0  0  0  0  0  0  0
  150.4645  146.2819  159.6393 H   0  0  0  0  0  0  0  0  0  0  0  0
  149.9085  144.3023  158.4649 H   0  0  0  0  0  0  0  0  0  0  0  0
  150.5836  145.5199  157.3972 H   0  0  0  0  0  0  0  0  0  0  0  0
  152.8580  144.4812  157.5927 H   0  0  0  0  0  0  0  0  0  0  0  0
  151.7104  143.3616  156.9410 H   0  0  0  0  0  0  0  0  0  0  0  0
  153.2232  137.9922  162.2071 H   0  0  0  0  0  0  0  0  0  0  0  0
  154.0512  139.4940  161.8139 H   0  0  0  0  0  0  0  0  0  0  0  0
  154.8498  137.9616  161.5153 H   0  0  0  0  0  0  0  0  0  0  0  0
  1  2  1  0  0  0  0
  1 24  1  0  0  0  0
  1 25  1  0  0  0  0
  1 26  1  0  0  0  0
  2  3  1  0  0  0  0
  2 27  1  0  0  0  0
  2 28  1  0  0  0  0
  3  4  1  0  0  0  0
  4  5  1  0  0  0  0
  4 29  1  0  0  0  0
  4 30  1  0  0  0  0
  5  6  1  0  0  0  0
  5 31  1  0  0  0  0
  5 32  1  0  0  0  0
  6 16  1  0  0  0  0
  6  7  1  0  0  0  0
  7  8  1  0  0  0  0
  7 14  2  0  0  0  0
  8 13  1  0  0  0  0
  8  9  1  0  0  0  0
  9 10  1  0  0  0  0
  9 33  1  0  0  0  0
  9 34  1  0  0  0  0
 10 11  1  0  0  0  0
 10 35  1  0  0  0  0
 10 36  1  0  0  0  0
 11 12  1  0  0  0  0
 11 37  1  0  0  0  0
 12 13  1  0  0  0  0
 12 38  1  0  0  0  0
 12 39  1  0  0  0  0
 13 40  1  0  0  0  0
 13 41  1  0  0  0  0
 14 15  1  0  0  0  0
 15 22  1  0  0  0  0
 15 16  2  0  0  0  0
 16 17  1  0  0  0  0
 17 18  2  0  0  0  0
 17 19  1  0  0  0  0
 19 20  1  0  0  0  0
 20 21  2  0  0  0  0
 20 22  1  0  0  0  0
 22 23  1  0  0  0  0
 23 42  1  0  0  0  0
 23 43  1  0  0  0  0
 23 44  1  0  0  0  0
M  CHG  1  19  -1
M  END
> <s_m_source_file>
AV-unprocessed.smi

> <i_m_source_file_index>
514

> <i_lp_mmshare_version>
43012

> <i_f3d_flags>
0

> <s_epik_input>
W0NIM11uMWMoPU8pW25IXWMoPU8pYyhjMTIpbihbQ0gyXVtDSDJdT1tDSDJdW0NIM10pYyhuMilOM1tDSDJdW0NIMl1bTkhdW0NIMl1bQ0gyXTM=

> <s_epik_cmdline>
J2VwaWtfcHl0aG9uJywgJy1waCcsICc3LjAnLCAnLXRuJywgJzgnLCAnLW1hJywgJzIwMCcsICctbWV0YWxfYmluZGluZycsICctaW1hZScsICc8aW5maWxlLm1hZT4nLCAnLW9tYWUnLCAnPG91dGZpbGUubWFlPic=

> <r_epik_Ionization_Penalty>
8.82895

> <r_epik_Ionization_Penalty_Charging>
0.0771612

> <r_epik_Ionization_Penalty_Neutral>
8.75178

> <r_epik_State_Penalty>
8.91747

> <r_epik_Charging_Adjusted_Penalty>
8.99464

> <i_epik_Tot_Q>
-1

> <i_epik_Tot_abs_Q>
1

> <r_epik_Metal_State_Penalty>
4.86816

> <b_epik_Metal_Only>
1

> <s_lp_Force_Field>
OPLS_2005

> <r_lp_Energy>
52.9187

> <b_lp_Chiralities_Consistent>
1

> <s_lp_Variant>
AV-unprocessed.smi:514-4

> <Gold.Version>
5.8.1

> <Gold.Id.Protein>
6NUR|6NUR_protein|mol2

> <Gold.PLP.Fitness>
46.4050

> <Gold.PLP.PLP>
-41.6331

> <Gold.PLP.part.hbond>
-3.0482

> <Gold.PLP.part.metal>
0.0000

> <Gold.PLP.part.buried>
-6.5729

> <Gold.PLP.part.nonpolar>
-31.5165

> <Gold.PLP.part.repulsive>
0.1071

> <Gold.PLP.ligand.clash>
0.0000

> <Gold.PLP.ligand.torsion>
0.3524

> <Gold.PLP.Chemscore.Hbond>
1.8000

> <Gold.PLP.Chemscore.CHOScore>
0.0000

> <Gold.PLP.Chemscore.Metal>
0.0000

> <Gold.Chemscore.Hbonds>
donor molecule, donor type, donor heavy atom, donor atom, acceptor molecule, acceptor atom, score
      P1  H  6896  6909       L1    21  1.00
      P1  H  7989  7998       L1     3  0.35

> <Gold.PLP.Chemscore.Internal.Correction>
0.0767

> <Gold.Rescore>
     Score         DG    S(hbond)    S(metal)    S(lipo)     H(rot)  DE(clash)    DE(int)     intcor
     13.47     -17.12       1.81        0.00      84.84       1.70       1.12       2.53       ----

> <Gold.Chemscore.Fitness>
13.4662

> <Gold.Chemscore.DG>
-17.1158

> <Gold.Chemscore.ZeroCoef>
-5.4800

> <Gold.Chemscore.Hbond>
1.8112

> <Gold.Chemscore.Metal>
0.0000

> <Gold.Chemscore.Lipo>
84.8406

> <Gold.Chemscore.Internal_Hbond>
0.0000

> <Gold.Chemscore.DEClash>
1.1191

> <Gold.Chemscore.DEInternal>
2.5305

> <Gold.Chemscore.Rot>
1.6953

> <Gold.Chemscore.Internal.Correction>
   9.000000E+99

> <Gold.Chemscore.Hbonds>
donor molecule, donor type, donor heavy atom, donor atom, acceptor molecule, acceptor atom, score
      P1  H  6896  6909       L1    21  0.94
      P1  H  7989  7998       L1     3  0.32

> <Gold.Chemscore.Hbond.Weighted>
-6.0494

> <Gold.Chemscore.Metal.Weighted>
-0.0000

> <Gold.Chemscore.Lipo.Weighted>
-9.9263

> <Gold.Chemscore.Internal_Hbond.Weighted>
0.0000

> <Gold.Chemscore.DEClash.Weighted>
1.1191

> <Gold.Chemscore.DEInternal.Weighted>
2.5305

> <Gold.Chemscore.Rot.Weighted>
4.3399

> <Gold.Chemscore.Internal.Correction.Weighted>
   9.000000E+99

> <Gold.Protein.RotatedTorsions>
[ 6907 6896 6895 6894 ] final  172.34 input  -60.11 | X-H torsion
[ 7974 7965 7964 7962 ] final -160.16 input  175.53 | X-H torsion
[ 8008 7997 7996 7995 ] final  165.65 input   59.86 | X-H torsion
[ 10167 10162 10161 10158 ] final -179.63 input  -65.29 | X-H torsion
[ 10718 10713 10712 10709 ] final   74.66 input   66.30 | X-H torsion
[ 10763 10752 10751 10750 ] final  -79.29 input  -60.55 | X-H torsion
[ 11005 11000 10999 10996 ] final  174.22 input  -57.11 | X-H torsion

> <Gold.Protein.ActiveResidues>
 VAL166  LYS551  ARG553  GLY616  TRP617  ASP618  TYR619  PRO620  LYS621  CYS622 
 ASP623  PHE694  ASN695  SER759  ASP760  ASP761  ALA762  ILE779  LEU786  VAL792 
 PHE793  MET794  SER795  GLU796  ALA797  LYS798  CYS799  TRP800  GLU811  SER814 

> <Gold.Protein.RotatedAtoms>
  151.7859  133.3354  159.3484 H   0  0  0  0  0  0  0  0  0  0  0  0  # atno 6907 bound_to 6896
  150.7409  134.5888  159.5986 H   0  0  0  0  0  0  0  0  0  0  0  0  # atno 6908 bound_to 6896
  152.3244  134.7341  160.0357 H   0  0  0  0  0  0  0  0  0  0  0  0  # atno 6909 bound_to 6896
  144.7437  140.3581  143.6102 H   0  0  0  0  0  0  0  0  0  0  0  0  # atno 7974 bound_to 7965
  156.1783  140.1664  156.8322 H   0  0  0  0  0  0  0  0  0  0  0  0  # atno 8008 bound_to 7997
  154.5331  140.0752  156.8413 H   0  0  0  0  0  0  0  0  0  0  0  0  # atno 8009 bound_to 7997
  155.3366  140.3382  155.4241 H   0  0  0  0  0  0  0  0  0  0  0  0  # atno 8010 bound_to 7997
  139.5378  144.2449  152.0831 H   0  0  0  0  0  0  0  0  0  0  0  0  # atno 10167 bound_to 10162
  157.6602  130.9689  150.1243 H   0  0  0  0  0  0  0  0  0  0  0  0  # atno 10718 bound_to 10713
  154.5368  135.5700  153.6805 H   0  0  0  0  0  0  0  0  0  0  0  0  # atno 10763 bound_to 10752
  152.9953  135.6218  154.2556 H   0  0  0  0  0  0  0  0  0  0  0  0  # atno 10764 bound_to 10752
  154.2485  135.2860  155.2805 H   0  0  0  0  0  0  0  0  0  0  0  0  # atno 10765 bound_to 10752
  140.3489  134.7212  157.4254 H   0  0  0  0  0  0  0  0  0  0  0  0  # atno 11005 bound_to 11000
  145.7206  139.1709  143.2486 LP  0  0  0  0  0  0  0  0  0  0  0  0  # atno 17320 bound_to 7965
  146.1280  140.7223  142.9426 LP  0  0  0  0  0  0  0  0  0  0  0  0  # atno 17321 bound_to 7965
  140.1922  144.4740  150.6473 LP  0  0  0  0  0  0  0  0  0  0  0  0  # atno 17342 bound_to 10162
  140.6593  143.2247  151.5894 LP  0  0  0  0  0  0  0  0  0  0  0  0  # atno 17343 bound_to 10162
  156.2106  130.3666  149.8675 LP  0  0  0  0  0  0  0  0  0  0  0  0  # atno 17370 bound_to 10713
  156.6555  130.8761  151.3538 LP  0  0  0  0  0  0  0  0  0  0  0  0  # atno 17371 bound_to 10713
  140.0719  134.5850  155.8632 LP  0  0  0  0  0  0  0  0  0  0  0  0  # atno 17394 bound_to 11000
  141.2018  133.6620  156.5969 LP  0  0  0  0  0  0  0  0  0  0  0  0  # atno 17395 bound_to 11000

$$$$
