AV-unprocessed.smi:931|AV-procd|sdf|4198|dock4
  -GOLD-   22720 2103D 1   1.00000     0.00000
 Structure written by MMmdl.
 36 37  0  0  0  0  0  0  0  0  1 V2000
  153.1936  143.0535  162.9763 C   0  0  0  0  0  0  0  0  0  0  0  0
  152.8580  142.3391  161.6594 C   0  0  0  0  0  0  0  0  0  0  0  0
  153.9810  141.4112  161.1738 C   0  0  0  0  0  0  0  0  0  0  0  0
  152.4178  143.2960  160.5962 C   0  0  0  0  0  0  0  0  0  0  0  0
  152.0975  142.9277  159.3517 N   0  0  0  0  0  0  0  0  0  0  0  0
  151.7221  144.0083  158.5478 C   0  0  0  0  0  0  0  0  0  0  0  0
  151.3175  143.7780  157.1237 C   0  0  0  0  0  0  0  0  0  0  0  0
  151.0017  142.2987  156.8456 C   0  0  0  0  0  0  0  0  0  0  0  0
  149.9031  142.1471  155.8985 N   0  0  0  0  0  0  0  0  0  0  0  0
  149.7806  141.1430  155.0161 C   0  0  0  0  0  0  0  0  0  0  0  0
  150.5753  140.2069  154.9305 O   0  0  0  0  0  0  0  0  0  0  0  0
  148.6565  141.2184  154.2858 N   0  0  0  0  0  0  0  0  0  0  0  0
  147.7942  140.1651  153.7578 C   0  0  0  0  0  0  0  0  0  0  0  0
  146.7939  141.2727  153.4355 C   0  0  0  0  0  0  0  0  0  0  0  0
  147.5817  142.2007  154.3570 C   0  0  0  0  0  0  0  0  0  0  0  0
  151.7610  145.2117  159.2065 C   0  0  0  0  0  0  0  0  0  0  0  0
  152.2736  145.0305  160.8613 S   0  0  0  0  0  0  0  0  0  0  0  0
  152.3444  143.6369  163.3328 H   0  0  0  0  0  0  0  0  0  0  0  0
  154.0382  143.7326  162.8556 H   0  0  0  0  0  0  0  0  0  0  0  0
  153.4523  142.3372  163.7564 H   0  0  0  0  0  0  0  0  0  0  0  0
  152.0004  141.6984  161.8683 H   0  0  0  0  0  0  0  0  0  0  0  0
  153.6738  140.8542  160.2883 H   0  0  0  0  0  0  0  0  0  0  0  0
  154.2512  140.6863  161.9422 H   0  0  0  0  0  0  0  0  0  0  0  0
  154.8791  141.9749  160.9186 H   0  0  0  0  0  0  0  0  0  0  0  0
  150.4477  144.3914  156.8860 H   0  0  0  0  0  0  0  0  0  0  0  0
  152.1102  144.1137  156.4536 H   0  0  0  0  0  0  0  0  0  0  0  0
  151.8786  141.8034  156.4278 H   0  0  0  0  0  0  0  0  0  0  0  0
  150.7646  141.7786  157.7752 H   0  0  0  0  0  0  0  0  0  0  0  0
  149.1850  142.8566  155.9127 H   0  0  0  0  0  0  0  0  0  0  0  0
  148.1824  139.6543  152.8760 H   0  0  0  0  0  0  0  0  0  0  0  0
  147.4414  139.4635  154.5155 H   0  0  0  0  0  0  0  0  0  0  0  0
  146.8279  141.5846  152.3904 H   0  0  0  0  0  0  0  0  0  0  0  0
  145.7743  141.0698  153.7648 H   0  0  0  0  0  0  0  0  0  0  0  0
  147.1453  142.3048  155.3517 H   0  0  0  0  0  0  0  0  0  0  0  0
  147.8178  143.1678  153.9116 H   0  0  0  0  0  0  0  0  0  0  0  0
  151.5162  146.1900  158.8201 H   0  0  0  0  0  0  0  0  0  0  0  0
  1  2  1  0  0  0  0
  1 18  1  0  0  0  0
  1 19  1  0  0  0  0
  1 20  1  0  0  0  0
  2  3  1  0  0  0  0
  2  4  1  0  0  0  0
  2 21  1  0  0  0  0
  3 22  1  0  0  0  0
  3 23  1  0  0  0  0
  3 24  1  0  0  0  0
  4 17  1  0  0  0  0
  4  5  2  0  0  0  0
  5  6  1  0  0  0  0
  6  7  1  0  0  0  0
  6 16  2  0  0  0  0
  7  8  1  0  0  0  0
  7 25  1  0  0  0  0
  7 26  1  0  0  0  0
  8  9  1  0  0  0  0
  8 27  1  0  0  0  0
  8 28  1  0  0  0  0
  9 10  1  0  0  0  0
  9 29  1  0  0  0  0
 10 11  2  0  0  0  0
 10 12  1  0  0  0  0
 12 15  1  0  0  0  0
 12 13  1  0  0  0  0
 13 14  1  0  0  0  0
 13 30  1  0  0  0  0
 13 31  1  0  0  0  0
 14 15  1  0  0  0  0
 14 32  1  0  0  0  0
 14 33  1  0  0  0  0
 15 34  1  0  0  0  0
 15 35  1  0  0  0  0
 16 17  1  0  0  0  0
 16 36  1  0  0  0  0
M  END
> <s_m_source_file>
AV-unprocessed.smi

> <i_m_source_file_index>
931

> <i_lp_mmshare_version>
43012

> <i_f3d_flags>
0

> <s_epik_input>
W0NIM11bQ0hdKFtDSDNdKWMxbmMoW2NIXXMxKVtDSDJdW0NIMl1bTkhdQyg9TylOMltDSDJdW0NIMl1bQ0gyXTI=

> <s_epik_cmdline>
J2VwaWtfcHl0aG9uJywgJy1waCcsICc3LjAnLCAnLXRuJywgJzgnLCAnLW1hJywgJzIwMCcsICctbWV0YWxfYmluZGluZycsICctaW1hZScsICc8aW5maWxlLm1hZT4nLCAnLW9tYWUnLCAnPG91dGZpbGUubWFlPic=

> <r_epik_Ionization_Penalty>
0.00159927

> <r_epik_Ionization_Penalty_Charging>
0

> <r_epik_Ionization_Penalty_Neutral>
0.00159927

> <r_epik_State_Penalty>
0.00102964

> <r_epik_Charging_Adjusted_Penalty>
0.00102964

> <i_epik_Tot_Q>
0

> <i_epik_Tot_abs_Q>
0

> <r_epik_Metal_State_Penalty>
-0

> <b_epik_Metal_Only>
0

> <s_lp_Force_Field>
OPLS_2005

> <r_lp_Energy>
8.94744

> <b_lp_Chiralities_Consistent>
1

> <s_lp_Variant>
AV-unprocessed.smi:931-1

> <Gold.Version>
5.8.1

> <Gold.Id.Protein>
6NUR|6NUR_protein|mol2

> <Gold.PLP.Fitness>
50.3890

> <Gold.PLP.PLP>
-46.4065

> <Gold.PLP.part.hbond>
-2.0000

> <Gold.PLP.part.metal>
0.0000

> <Gold.PLP.part.buried>
-1.8221

> <Gold.PLP.part.nonpolar>
-42.9017

> <Gold.PLP.part.repulsive>
0.1959

> <Gold.PLP.ligand.clash>
0.0000

> <Gold.PLP.ligand.torsion>
0.9559

> <Gold.PLP.Chemscore.Hbond>
1.8320

> <Gold.PLP.Chemscore.CHOScore>
0.0000

> <Gold.PLP.Chemscore.Metal>
0.0000

> <Gold.Chemscore.Hbonds>
donor molecule, donor type, donor heavy atom, donor atom, acceptor molecule, acceptor atom, score
      L1  H     9    29       P1  8028  0.86
      P1  H  7989  7998       L1    11  0.90

> <Gold.PLP.Chemscore.Internal.Correction>
0.3982

> <Gold.Rescore>
     Score         DG    S(hbond)    S(metal)    S(lipo)     H(rot)  DE(clash)    DE(int)     intcor
     18.09     -19.53       1.07        0.00     122.01       1.48       0.56       0.88       ----

> <Gold.Chemscore.Fitness>
18.0865

> <Gold.Chemscore.DG>
-19.5282

> <Gold.Chemscore.ZeroCoef>
-5.4800

> <Gold.Chemscore.Hbond>
1.0701

> <Gold.Chemscore.Metal>
0.0000

> <Gold.Chemscore.Lipo>
122.0096

> <Gold.Chemscore.Internal_Hbond>
0.0000

> <Gold.Chemscore.DEClash>
0.5619

> <Gold.Chemscore.DEInternal>
0.8798

> <Gold.Chemscore.Rot>
1.4847

> <Gold.Chemscore.Internal.Correction>
   9.000000E+99

> <Gold.Chemscore.Hbonds>
donor molecule, donor type, donor heavy atom, donor atom, acceptor molecule, acceptor atom, score
      L1  H     9    29       P1  8028  0.85
      P1  H  7989  7998       L1    11  0.18

> <Gold.Chemscore.Hbond.Weighted>
-3.5740

> <Gold.Chemscore.Metal.Weighted>
-0.0000

> <Gold.Chemscore.Lipo.Weighted>
-14.2751

> <Gold.Chemscore.Internal_Hbond.Weighted>
0.0000

> <Gold.Chemscore.DEClash.Weighted>
0.5619

> <Gold.Chemscore.DEInternal.Weighted>
0.8798

> <Gold.Chemscore.Rot.Weighted>
3.8009

> <Gold.Chemscore.Internal.Correction.Weighted>
   9.000000E+99

> <Gold.Protein.RotatedTorsions>
[ 6907 6896 6895 6894 ] final -151.02 input  -60.11 | X-H torsion
[ 7974 7965 7964 7962 ] final  -15.97 input  175.53 | X-H torsion
[ 8008 7997 7996 7995 ] final  -77.33 input   59.86 | X-H torsion
[ 10167 10162 10161 10158 ] final  153.07 input  -65.29 | X-H torsion
[ 10718 10713 10712 10709 ] final  -41.88 input   66.30 | X-H torsion
[ 10763 10752 10751 10750 ] final -126.65 input  -60.55 | X-H torsion
[ 11005 11000 10999 10996 ] final   64.03 input  -57.11 | X-H torsion

> <Gold.Protein.ActiveResidues>
 VAL166  LYS551  ARG553  GLY616  TRP617  ASP618  TYR619  PRO620  LYS621  CYS622 
 ASP623  PHE694  ASN695  SER759  ASP760  ASP761  ALA762  ILE779  LEU786  VAL792 
 PHE793  MET794  SER795  GLU796  ALA797  LYS798  CYS799  TRP800  GLU811  SER814 

> <Gold.Protein.RotatedAtoms>
  151.2070  133.4578  159.2597 H   0  0  0  0  0  0  0  0  0  0  0  0  # atno 6907 bound_to 6896
  151.1013  134.9974  159.8460 H   0  0  0  0  0  0  0  0  0  0  0  0  # atno 6908 bound_to 6896
  152.5443  134.1997  159.8760 H   0  0  0  0  0  0  0  0  0  0  0  0  # atno 6909 bound_to 6896
  146.2008  140.3569  142.8424 H   0  0  0  0  0  0  0  0  0  0  0  0  # atno 7974 bound_to 7965
  154.5586  140.0712  156.8784 H   0  0  0  0  0  0  0  0  0  0  0  0  # atno 8008 bound_to 7997
  155.2854  140.3374  155.4237 H   0  0  0  0  0  0  0  0  0  0  0  0  # atno 8009 bound_to 7997
  156.2023  140.1726  156.7858 H   0  0  0  0  0  0  0  0  0  0  0  0  # atno 8010 bound_to 7997
  139.4829  144.5304  151.7731 H   0  0  0  0  0  0  0  0  0  0  0  0  # atno 10167 bound_to 10162
  156.2656  130.4201  149.8494 H   0  0  0  0  0  0  0  0  0  0  0  0  # atno 10718 bound_to 10713
  154.8747  135.3988  154.3465 H   0  0  0  0  0  0  0  0  0  0  0  0  # atno 10763 bound_to 10752
  153.4257  135.7024  153.6269 H   0  0  0  0  0  0  0  0  0  0  0  0  # atno 10764 bound_to 10752
  153.4913  135.3748  155.2463 H   0  0  0  0  0  0  0  0  0  0  0  0  # atno 10765 bound_to 10752
  139.9985  134.6479  155.9969 H   0  0  0  0  0  0  0  0  0  0  0  0  # atno 11005 bound_to 11000
  144.8680  140.7233  143.6065 LP  0  0  0  0  0  0  0  0  0  0  0  0  # atno 17320 bound_to 7965
  145.3488  139.1712  143.4445 LP  0  0  0  0  0  0  0  0  0  0  0  0  # atno 17321 bound_to 7965
  140.4830  144.1422  150.5936 LP  0  0  0  0  0  0  0  0  0  0  0  0  # atno 17342 bound_to 10162
  140.4257  143.2591  151.9660 LP  0  0  0  0  0  0  0  0  0  0  0  0  # atno 17343 bound_to 10162
  156.5994  130.8540  151.3428 LP  0  0  0  0  0  0  0  0  0  0  0  0  # atno 17370 bound_to 10713
  157.7266  130.9631  150.1663 LP  0  0  0  0  0  0  0  0  0  0  0  0  # atno 17371 bound_to 10713
  141.1624  133.6538  156.4363 LP  0  0  0  0  0  0  0  0  0  0  0  0  # atno 17394 bound_to 11000
  140.4772  134.6699  157.5155 LP  0  0  0  0  0  0  0  0  0  0  0  0  # atno 17395 bound_to 11000

$$$$
