AV-unprocessed.smi:957|AV-procd|sdf|4266|dock6
  -GOLD-   22720 2173D 1   1.00000     0.00000
 Structure written by MMmdl.
 30 31  0  0  0  0  0  0  0  0  2 V2000
  152.4985  144.6657  158.4173 C   0  0  0  0  0  0  0  0  0  0  0  0
  152.2835  143.6703  159.5640 C   0  0  0  0  0  0  0  0  0  0  0  0
  152.7507  142.3390  159.2182 N   0  0  0  0  0  0  0  0  0  0  0  0
  153.7221  141.6280  159.8113 C   0  0  0  0  0  0  0  0  0  0  0  0
  153.9463  140.4263  159.2834 N   0  0  0  0  0  0  0  0  0  0  0  0
  153.0433  140.3303  158.2455 N   0  0  0  0  0  0  0  0  0  0  0  0
  152.3580  141.4814  158.2499 C   0  0  0  0  0  0  0  0  0  0  0  0
  151.2679  141.7902  157.2611 C   0  0  1  0  0  0  0  0  0  0  0  0
  151.1387  140.6944  156.1856 C   0  0  0  0  0  0  0  0  0  0  0  0
  150.0069  141.0344  155.2039 C   0  0  0  0  0  0  0  0  0  0  0  0
  148.6876  141.2841  155.9530 C   0  0  0  0  0  0  0  0  0  0  0  0
  148.8562  142.3452  156.9695 N   0  3  0  0  0  0  0  0  0  0  0  0
  149.9136  142.0368  157.9576 C   0  0  0  0  0  0  0  0  0  0  0  0
  152.1542  145.6607  158.6995 H   0  0  0  0  0  0  0  0  0  0  0  0
  151.9540  144.3687  157.5210 H   0  0  0  0  0  0  0  0  0  0  0  0
  153.5546  144.7418  158.1567 H   0  0  0  0  0  0  0  0  0  0  0  0
  152.8215  144.0071  160.4510 H   0  0  0  0  0  0  0  0  0  0  0  0
  151.2310  143.6190  159.8431 H   0  0  0  0  0  0  0  0  0  0  0  0
  154.2843  142.0005  160.6551 H   0  0  0  0  0  0  0  0  0  0  0  0
  151.5270  142.7125  156.7426 H   0  0  0  0  0  0  0  0  0  0  0  0
  152.0787  140.5825  155.6443 H   0  0  0  0  0  0  0  0  0  0  0  0
  150.9331  139.7315  156.6553 H   0  0  0  0  0  0  0  0  0  0  0  0
  150.2752  141.9205  154.6269 H   0  0  0  0  0  0  0  0  0  0  0  0
  149.8807  140.2241  154.4851 H   0  0  0  0  0  0  0  0  0  0  0  0
  147.9053  141.5811  155.2541 H   0  0  0  0  0  0  0  0  0  0  0  0
  148.3492  140.3693  156.4416 H   0  0  0  0  0  0  0  0  0  0  0  0
  149.0967  143.2057  156.4987 H   0  0  0  0  0  0  0  0  0  0  0  0
  149.6117  141.1617  158.5349 H   0  0  0  0  0  0  0  0  0  0  0  0
  149.9932  142.8685  158.6583 H   0  0  0  0  0  0  0  0  0  0  0  0
  147.9808  142.4743  157.4570 H   0  0  0  0  0  0  0  0  0  0  0  0
  1  2  1  0  0  0  0
  1 14  1  0  0  0  0
  1 15  1  0  0  0  0
  1 16  1  0  0  0  0
  2  3  1  0  0  0  0
  2 17  1  0  0  0  0
  2 18  1  0  0  0  0
  3  7  1  0  0  0  0
  3  4  1  0  0  0  0
  4  5  2  0  0  0  0
  4 19  1  0  0  0  0
  5  6  1  0  0  0  0
  6  7  2  0  0  0  0
  7  8  1  0  0  0  0
  8 13  1  0  0  0  0
  8  9  1  0  0  0  0
  8 20  1  0  0  0  0
  9 10  1  0  0  0  0
  9 21  1  0  0  0  0
  9 22  1  0  0  0  0
 10 11  1  0  0  0  0
 10 23  1  0  0  0  0
 10 24  1  0  0  0  0
 11 12  1  0  0  0  0
 11 25  1  0  0  0  0
 11 26  1  0  0  0  0
 12 13  1  0  0  0  0
 12 27  1  0  0  0  0
 12 30  1  0  0  0  0
 13 28  1  0  0  0  0
 13 29  1  0  0  0  0
M  CHG  1  12   1
M  END
> <s_m_source_file>
AV-unprocessed.smi

> <i_m_source_file_index>
957

> <i_lp_mmshare_version>
43012

> <i_f3d_flags>
0

> <s_epik_input>
W0NIM11bQ0gyXW4xW2NIXW5uYzFbQ0BASF0yW0NIMl1bQ0gyXVtDSDJdW05IXVtDSDJdMg==

> <s_epik_cmdline>
J2VwaWtfcHl0aG9uJywgJy1waCcsICc3LjAnLCAnLXRuJywgJzgnLCAnLW1hJywgJzIwMCcsICctbWV0YWxfYmluZGluZycsICctaW1hZScsICc8aW5maWxlLm1hZT4nLCAnLW9tYWUnLCAnPG91dGZpbGUubWFlPic=

> <r_lp_tautomer_probability>
1

> <r_epik_Ionization_Penalty>
0.000442722

> <r_epik_Ionization_Penalty_Charging>
0.000426856

> <r_epik_Ionization_Penalty_Neutral>
1.58656e-05

> <r_epik_State_Penalty>
-0

> <r_epik_Charging_Adjusted_Penalty>
0.000426856

> <i_epik_Tot_Q>
1

> <i_epik_Tot_abs_Q>
1

> <r_epik_Metal_State_Penalty>
-0

> <b_epik_Metal_Only>
0

> <s_lp_Force_Field>
OPLS_2005

> <r_lp_Energy>
16.0383

> <b_lp_Chiralities_Consistent>
1

> <s_lp_Variant>
AV-unprocessed.smi:957-2

> <Gold.Version>
5.8.1

> <Gold.Id.Protein>
6NUR|6NUR_protein|mol2

> <Gold.PLP.Fitness>
38.4322

> <Gold.PLP.PLP>
-30.4242

> <Gold.PLP.part.hbond>
-2.3857

> <Gold.PLP.part.metal>
0.0000

> <Gold.PLP.part.buried>
-1.7215

> <Gold.PLP.part.nonpolar>
-25.0766

> <Gold.PLP.part.repulsive>
0.0142

> <Gold.PLP.ligand.clash>
0.0000

> <Gold.PLP.ligand.torsion>
0.0371

> <Gold.PLP.Chemscore.Hbond>
2.6852

> <Gold.PLP.Chemscore.CHOScore>
0.0000

> <Gold.PLP.Chemscore.Metal>
0.0000

> <Gold.Chemscore.Hbonds>
donor molecule, donor type, donor heavy atom, donor atom, acceptor molecule, acceptor atom, score
      L1  H    12    27       P1  8028  2.00
      P1  H  7997  8008       L1     6  0.53

> <Gold.PLP.Chemscore.Internal.Correction>
0.0267

> <Gold.Rescore>
     Score         DG    S(hbond)    S(metal)    S(lipo)     H(rot)  DE(clash)    DE(int)     intcor
     12.79     -12.87       1.16        0.00      57.54       1.26       0.02       0.07       ----

> <Gold.Chemscore.Fitness>
12.7928

> <Gold.Chemscore.DG>
-12.8738

> <Gold.Chemscore.ZeroCoef>
-5.4800

> <Gold.Chemscore.Hbond>
1.1618

> <Gold.Chemscore.Metal>
0.0000

> <Gold.Chemscore.Lipo>
57.5410

> <Gold.Chemscore.Internal_Hbond>
0.0000

> <Gold.Chemscore.DEClash>
0.0158

> <Gold.Chemscore.DEInternal>
0.0652

> <Gold.Chemscore.Rot>
1.2573

> <Gold.Chemscore.Internal.Correction>
   9.000000E+99

> <Gold.Chemscore.Hbonds>
donor molecule, donor type, donor heavy atom, donor atom, acceptor molecule, acceptor atom, score
      L1  H    12    27       P1  8028  0.99
      P1  H  7997  8008       L1     6  0.03

> <Gold.Chemscore.Hbond.Weighted>
-3.8803

> <Gold.Chemscore.Metal.Weighted>
-0.0000

> <Gold.Chemscore.Lipo.Weighted>
-6.7323

> <Gold.Chemscore.Internal_Hbond.Weighted>
0.0000

> <Gold.Chemscore.DEClash.Weighted>
0.0158

> <Gold.Chemscore.DEInternal.Weighted>
0.0652

> <Gold.Chemscore.Rot.Weighted>
3.2188

> <Gold.Chemscore.Internal.Correction.Weighted>
   9.000000E+99

> <Gold.Protein.RotatedTorsions>
[ 6907 6896 6895 6894 ] final  -42.32 input  -60.11 | X-H torsion
[ 7974 7965 7964 7962 ] final   94.30 input  175.53 | X-H torsion
[ 8008 7997 7996 7995 ] final  -77.11 input   59.86 | X-H torsion
[ 10167 10162 10161 10158 ] final  -19.73 input  -65.29 | X-H torsion
[ 10718 10713 10712 10709 ] final    0.22 input   66.30 | X-H torsion
[ 10763 10752 10751 10750 ] final   -1.49 input  -60.55 | X-H torsion
[ 11005 11000 10999 10996 ] final  125.01 input  -57.11 | X-H torsion

> <Gold.Protein.ActiveResidues>
 VAL166  LYS551  ARG553  GLY616  TRP617  ASP618  TYR619  PRO620  LYS621  CYS622 
 ASP623  PHE694  ASN695  SER759  ASP760  ASP761  ALA762  ILE779  LEU786  VAL792 
 PHE793  MET794  SER795  GLU796  ALA797  LYS798  CYS799  TRP800  GLU811  SER814 

> <Gold.Protein.RotatedAtoms>
  150.9566  134.8959  159.7704 H   0  0  0  0  0  0  0  0  0  0  0  0  # atno 6907 bound_to 6896
  152.5140  134.3731  159.9335 H   0  0  0  0  0  0  0  0  0  0  0  0  # atno 6908 bound_to 6896
  151.3745  133.3802  159.2738 H   0  0  0  0  0  0  0  0  0  0  0  0  # atno 6909 bound_to 6896
  145.4674  139.2283  143.2953 H   0  0  0  0  0  0  0  0  0  0  0  0  # atno 7974 bound_to 7965
  154.5566  140.0716  156.8752 H   0  0  0  0  0  0  0  0  0  0  0  0  # atno 8008 bound_to 7997
  155.2891  140.3377  155.4235 H   0  0  0  0  0  0  0  0  0  0  0  0  # atno 8009 bound_to 7997
  156.2007  140.1720  156.7891 H   0  0  0  0  0  0  0  0  0  0  0  0  # atno 8010 bound_to 7997
  140.7271  143.4791  151.0142 H   0  0  0  0  0  0  0  0  0  0  0  0  # atno 10167 bound_to 10162
  156.8301  130.5485  149.5688 H   0  0  0  0  0  0  0  0  0  0  0  0  # atno 10718 bound_to 10713
  153.3455  135.6983  153.6831 H   0  0  0  0  0  0  0  0  0  0  0  0  # atno 10763 bound_to 10752
  153.5579  135.3540  155.2787 H   0  0  0  0  0  0  0  0  0  0  0  0  # atno 10764 bound_to 10752
  154.8644  135.4242  154.2678 H   0  0  0  0  0  0  0  0  0  0  0  0  # atno 10765 bound_to 10752
  139.9386  134.9637  156.8495 H   0  0  0  0  0  0  0  0  0  0  0  0  # atno 11005 bound_to 11000
  146.2416  140.5449  142.8931 LP  0  0  0  0  0  0  0  0  0  0  0  0  # atno 17320 bound_to 7965
  144.7965  140.6133  143.6506 LP  0  0  0  0  0  0  0  0  0  0  0  0  # atno 17321 bound_to 7965
  139.8488  143.7466  152.3178 LP  0  0  0  0  0  0  0  0  0  0  0  0  # atno 17342 bound_to 10162
  139.7640  144.7497  151.0321 LP  0  0  0  0  0  0  0  0  0  0  0  0  # atno 17343 bound_to 10162
  156.0939  130.5917  150.9780 LP  0  0  0  0  0  0  0  0  0  0  0  0  # atno 17370 bound_to 10713
  157.6411  131.0910  150.8249 LP  0  0  0  0  0  0  0  0  0  0  0  0  # atno 17371 bound_to 10713
  140.6011  134.0171  155.7537 LP  0  0  0  0  0  0  0  0  0  0  0  0  # atno 17394 bound_to 11000
  141.1011  133.9767  157.3078 LP  0  0  0  0  0  0  0  0  0  0  0  0  # atno 17395 bound_to 11000

$$$$
