AV-unprocessed.smi:283|AV-procd|sdf|2153|dock6
  -GOLD-   2262021493D 1   1.00000     0.00000
 Structure written by MMmdl.
 48 51  0  0  0  0  0  0  0  0  1 V2000
  147.0580  132.0212  159.6297 C   0  0  0  0  0  0  0  0  0  0  0  0
  147.5383  133.4202  159.2210 C   0  0  2  0  0  0  0  0  0  0  0  0
  148.8061  133.3195  158.4995 N   0  0  0  0  0  0  0  0  0  0  0  0
  148.8859  133.6020  157.1795 C   0  0  0  0  0  0  0  0  0  0  0  0
  150.0553  133.9994  156.6132 N   0  0  0  0  0  0  0  0  0  0  0  0
  150.1068  134.2700  155.3063 C   0  0  0  0  0  0  0  0  0  0  0  0
  149.1245  134.2152  154.4048 N   0  0  0  0  0  0  0  0  0  0  0  0
  147.9445  133.8243  154.9676 C   0  0  0  0  0  0  0  0  0  0  0  0
  147.7464  133.5029  156.3398 C   0  0  0  0  0  0  0  0  0  0  0  0
  146.4209  133.1499  156.5545 N   0  0  0  0  0  0  0  0  0  0  0  0
  145.8700  133.2610  155.3758 C   0  0  0  0  0  0  0  0  0  0  0  0
  146.7120  133.6647  154.3630 N   0  0  0  0  0  0  0  0  0  0  0  0
  146.3559  133.8779  152.9218 C   0  0  2  0  0  0  0  0  0  0  0  0
  145.0095  133.5586  152.7242 O   0  0  0  0  0  0  0  0  0  0  0  0
  144.8770  132.5299  151.7448 C   0  0  1  0  0  0  0  0  0  0  0  0
  143.5587  132.7316  150.9812 C   0  0  0  0  0  0  0  0  0  0  0  0
  143.4864  134.0352  150.4445 O   0  0  0  0  0  0  0  0  0  0  0  0
  146.1462  132.6735  150.9004 C   0  0  2  0  0  0  0  0  0  0  0  0
  146.4767  131.5105  150.1654 O   0  0  0  0  0  0  0  0  0  0  0  0
  147.1922  133.0220  151.9504 C   0  0  2  0  0  0  0  0  0  0  0  0
  147.7664  131.8720  152.5538 O   0  0  0  0  0  0  0  0  0  0  0  0
  147.5714  134.3517  160.4352 C   0  0  0  0  0  0  0  0  0  0  0  0
  147.2546  133.8455  161.7173 C   0  0  0  0  0  0  0  0  0  0  0  0
  147.2830  134.6840  162.8475 C   0  0  0  0  0  0  0  0  0  0  0  0
  147.6215  136.0419  162.7067 C   0  0  0  0  0  0  0  0  0  0  0  0
  147.9271  136.5591  161.4343 C   0  0  0  0  0  0  0  0  0  0  0  0
  147.9013  135.7239  160.2993 C   0  0  0  0  0  0  0  0  0  0  0  0
  148.2754  136.4171  158.7600 Cl  0  0  0  0  0  0  0  0  0  0  0  0
  146.4887  134.9483  152.7598 H   0  0  0  0  0  0  0  0  0  0  0  0
  144.8740  131.5693  152.2618 H   0  0  0  0  0  0  0  0  0  0  0  0
  146.0357  133.5110  150.2102 H   0  0  0  0  0  0  0  0  0  0  0  0
  147.9983  133.6262  151.5329 H   0  0  0  0  0  0  0  0  0  0  0  0
  146.0718  132.0656  160.0931 H   0  0  0  0  0  0  0  0  0  0  0  0
  147.7409  131.5590  160.3433 H   0  0  0  0  0  0  0  0  0  0  0  0
  146.9838  131.3626  158.7638 H   0  0  0  0  0  0  0  0  0  0  0  0
  146.8185  133.8078  158.5009 H   0  0  0  0  0  0  0  0  0  0  0  0
  149.6183  133.1219  159.0661 H   0  0  0  0  0  0  0  0  0  0  0  0
  151.0721  134.5739  154.9293 H   0  0  0  0  0  0  0  0  0  0  0  0
  144.8230  133.0519  155.2117 H   0  0  0  0  0  0  0  0  0  0  0  0
  143.4967  132.0236  150.1544 H   0  0  0  0  0  0  0  0  0  0  0  0
  142.6986  132.5493  151.6259 H   0  0  0  0  0  0  0  0  0  0  0  0
  142.6681  134.1238  149.9798 H   0  0  0  0  0  0  0  0  0  0  0  0
  147.4090  131.5153  150.0092 H   0  0  0  0  0  0  0  0  0  0  0  0
  148.4114  131.5144  151.9630 H   0  0  0  0  0  0  0  0  0  0  0  0
  146.9892  132.8061  161.8422 H   0  0  0  0  0  0  0  0  0  0  0  0
  147.0448  134.2847  163.8222 H   0  0  0  0  0  0  0  0  0  0  0  0
  147.6441  136.6867  163.5727 H   0  0  0  0  0  0  0  0  0  0  0  0
  148.1819  137.6035  161.3291 H   0  0  0  0  0  0  0  0  0  0  0  0
  1  2  1  0  0  0  0
  1 33  1  0  0  0  0
  1 34  1  0  0  0  0
  1 35  1  0  0  0  0
  2  3  1  0  0  0  0
  2 22  1  0  0  0  0
  2 36  1  0  0  0  0
  3  4  1  0  0  0  0
  3 37  1  0  0  0  0
  4  9  1  0  0  0  0
  4  5  2  0  0  0  0
  5  6  1  0  0  0  0
  6  7  2  0  0  0  0
  6 38  1  0  0  0  0
  7  8  1  0  0  0  0
  8 12  1  0  0  0  0
  8  9  2  0  0  0  0
  9 10  1  0  0  0  0
 10 11  2  0  0  0  0
 11 12  1  0  0  0  0
 11 39  1  0  0  0  0
 12 13  1  0  0  0  0
 13 29  1  0  0  0  0
 13 20  1  0  0  0  0
 13 14  1  0  0  0  0
 14 15  1  0  0  0  0
 15 30  1  0  0  0  0
 15 16  1  0  0  0  0
 15 18  1  0  0  0  0
 16 17  1  0  0  0  0
 16 40  1  0  0  0  0
 16 41  1  0  0  0  0
 17 42  1  0  0  0  0
 18 31  1  0  0  0  0
 18 19  1  0  0  0  0
 18 20  1  0  0  0  0
 19 43  1  0  0  0  0
 20 32  1  0  0  0  0
 20 21  1  0  0  0  0
 21 44  1  0  0  0  0
 22 27  1  0  0  0  0
 22 23  2  0  0  0  0
 23 24  1  0  0  0  0
 23 45  1  0  0  0  0
 24 25  2  0  0  0  0
 24 46  1  0  0  0  0
 25 26  1  0  0  0  0
 25 47  1  0  0  0  0
 26 27  2  0  0  0  0
 26 48  1  0  0  0  0
 27 28  1  0  0  0  0
M  END
> <s_m_source_file>
AV-unprocessed.smi

> <i_m_source_file_index>
283

> <i_lp_mmshare_version>
43012

> <i_f3d_flags>
0

> <s_epik_input>
Q2xjMVtjSF1bY0hdW2NIXVtjSF1jMVtDQEhdKFtDSDNdKVtOSF1jKG5bY0hdbjIpYyhjMjMpbltjSF1uM1tDQEBIXTRPW0NASF0oW0NIMl1bT0hdKVtDQEBIXShbT0hdKVtDQEhdNFtPSF0=

> <s_epik_cmdline>
J2VwaWtfcHl0aG9uJywgJy1waCcsICc3LjAnLCAnLXRuJywgJzgnLCAnLW1hJywgJzIwMCcsICctbWV0YWxfYmluZGluZycsICctaW1hZScsICc8aW5maWxlLm1hZT4nLCAnLW9tYWUnLCAnPG91dGZpbGUubWFlPic=

> <r_lp_tautomer_probability>
1

> <r_epik_Ionization_Penalty>
0.000266407

> <r_epik_Ionization_Penalty_Charging>
0

> <r_epik_Ionization_Penalty_Neutral>
0.000266407

> <r_epik_State_Penalty>
-0

> <r_epik_Charging_Adjusted_Penalty>
0

> <i_epik_Tot_Q>
0

> <i_epik_Tot_abs_Q>
0

> <r_epik_Metal_State_Penalty>
-0

> <b_epik_Metal_Only>
0

> <s_epik_Chemistry_Notes>
This compound contains an acetal/aminal-like group ( X-CH(R)-Y where X, Y are N, S, or O) that may be acid/base labile, releasing an aldehyde.

> <s_lp_Force_Field>
OPLS_2005

> <r_lp_Energy>
51.2739

> <b_lp_Chiralities_Consistent>
1

> <s_lp_Variant>
AV-unprocessed.smi:283-29

> <Gold.Version>
5.8.1

> <Gold.Id.Protein>
6NUR|6NUR_protein|mol2

> <Gold.PLP.Fitness>
53.0518

> <Gold.PLP.PLP>
-41.3853

> <Gold.PLP.part.hbond>
-3.0000

> <Gold.PLP.part.metal>
0.0000

> <Gold.PLP.part.buried>
-7.1050

> <Gold.PLP.part.nonpolar>
-32.3306

> <Gold.PLP.part.repulsive>
0.4391

> <Gold.PLP.ligand.clash>
0.0000

> <Gold.PLP.ligand.torsion>
0.2086

> <Gold.PLP.Chemscore.Hbond>
3.0000

> <Gold.PLP.Chemscore.CHOScore>
1.0000

> <Gold.PLP.Chemscore.Metal>
0.0000

> <Gold.Chemscore.Hbonds>
donor molecule, donor type, donor heavy atom, donor atom, acceptor molecule, acceptor atom, score
      L1  H    17    42       P1 10186  1.00
      L1  H    19    43       P1 10747  1.00
      L1  H    21    44       P1 10747  1.00
      L1  C    11    39       P1 10957  0.99

> <Gold.PLP.Chemscore.Internal.Correction>
0.0836

> <Gold.Rescore>
     Score         DG    S(hbond)    S(metal)    S(lipo)     H(rot)  DE(clash)    DE(int)     intcor
     13.57     -15.06       2.98        0.00      86.46       4.10       0.02       1.47       ----

> <Gold.Chemscore.Fitness>
13.5725

> <Gold.Chemscore.DG>
-15.0573

> <Gold.Chemscore.ZeroCoef>
-5.4800

> <Gold.Chemscore.Hbond>
2.9787

> <Gold.Chemscore.Metal>
0.0000

> <Gold.Chemscore.Lipo>
86.4648

> <Gold.Chemscore.Internal_Hbond>
0.0000

> <Gold.Chemscore.DEClash>
0.0195

> <Gold.Chemscore.DEInternal>
1.4653

> <Gold.Chemscore.Rot>
4.0968

> <Gold.Chemscore.Internal.Correction>
   9.000000E+99

> <Gold.Chemscore.Hbonds>
donor molecule, donor type, donor heavy atom, donor atom, acceptor molecule, acceptor atom, score
      L1  H    17    42       P1 10186  0.99
      L1  H    19    43       P1 10747  0.95
      L1  H    21    44       P1 10747  0.97

> <Gold.Chemscore.Hbond.Weighted>
-9.9488

> <Gold.Chemscore.Metal.Weighted>
-0.0000

> <Gold.Chemscore.Lipo.Weighted>
-10.1164

> <Gold.Chemscore.Internal_Hbond.Weighted>
0.0000

> <Gold.Chemscore.DEClash.Weighted>
0.0195

> <Gold.Chemscore.DEInternal.Weighted>
1.4653

> <Gold.Chemscore.Rot.Weighted>
10.4879

> <Gold.Chemscore.Internal.Correction.Weighted>
   9.000000E+99

> <Gold.Protein.RotatedTorsions>
[ 6907 6896 6895 6894 ] final   47.03 input  -60.11 | X-H torsion
[ 7974 7965 7964 7962 ] final  162.12 input  175.53 | X-H torsion
[ 8008 7997 7996 7995 ] final  114.94 input   59.86 | X-H torsion
[ 10167 10162 10161 10158 ] final   34.98 input  -65.29 | X-H torsion
[ 10718 10713 10712 10709 ] final    8.28 input   66.30 | X-H torsion
[ 10763 10752 10751 10750 ] final  -27.55 input  -60.55 | X-H torsion
[ 11005 11000 10999 10996 ] final -173.33 input  -57.11 | X-H torsion

> <Gold.Protein.ActiveResidues>
 VAL166  LYS551  ARG553  GLY616  TRP617  ASP618  TYR619  PRO620  LYS621  CYS622 
 ASP623  PHE694  ASN695  SER759  ASP760  ASP761  ALA762  ILE779  LEU786  VAL792 
 PHE793  MET794  SER795  GLU796  ALA797  LYS798  CYS799  TRP800  GLU811  SER814 

> <Gold.Protein.RotatedAtoms>
  152.2633  134.8011  160.0426 H   0  0  0  0  0  0  0  0  0  0  0  0  # atno 6907 bound_to 6896
  151.8650  133.3459  159.3724 H   0  0  0  0  0  0  0  0  0  0  0  0  # atno 6908 bound_to 6896
  150.7124  134.5096  159.5645 H   0  0  0  0  0  0  0  0  0  0  0  0  # atno 6909 bound_to 6896
  144.7652  139.7994  143.6318 H   0  0  0  0  0  0  0  0  0  0  0  0  # atno 7974 bound_to 7965
  156.2352  140.2949  156.0292 H   0  0  0  0  0  0  0  0  0  0  0  0  # atno 8008 bound_to 7997
  155.2113  140.0412  157.2951 H   0  0  0  0  0  0  0  0  0  0  0  0  # atno 8009 bound_to 7997
  154.6065  140.2440  155.7731 H   0  0  0  0  0  0  0  0  0  0  0  0  # atno 8010 bound_to 7997
  140.4264  144.1386  150.6154 H   0  0  0  0  0  0  0  0  0  0  0  0  # atno 10167 bound_to 10162
  156.9494  130.5891  149.5656 H   0  0  0  0  0  0  0  0  0  0  0  0  # atno 10718 bound_to 10713
  153.7339  135.6937  153.4982 H   0  0  0  0  0  0  0  0  0  0  0  0  # atno 10763 bound_to 10752
  153.2116  135.4401  155.0385 H   0  0  0  0  0  0  0  0  0  0  0  0  # atno 10764 bound_to 10752
  154.8243  135.3438  154.6868 H   0  0  0  0  0  0  0  0  0  0  0  0  # atno 10765 bound_to 10752
  140.4870  134.6021  157.4940 H   0  0  0  0  0  0  0  0  0  0  0  0  # atno 11005 bound_to 11000
  146.1753  139.4921  142.9901 LP  0  0  0  0  0  0  0  0  0  0  0  0  # atno 17320 bound_to 7965
  145.6492  141.0267  143.1769 LP  0  0  0  0  0  0  0  0  0  0  0  0  # atno 17321 bound_to 7965
  140.4476  143.2500  151.9391 LP  0  0  0  0  0  0  0  0  0  0  0  0  # atno 17342 bound_to 10162
  139.4783  144.5594  151.8263 LP  0  0  0  0  0  0  0  0  0  0  0  0  # atno 17343 bound_to 10162
  156.0369  130.5456  150.8677 LP  0  0  0  0  0  0  0  0  0  0  0  0  # atno 17370 bound_to 10713
  157.5732  131.0946  150.9385 LP  0  0  0  0  0  0  0  0  0  0  0  0  # atno 17371 bound_to 10713
  139.9792  134.7165  155.9892 LP  0  0  0  0  0  0  0  0  0  0  0  0  # atno 17394 bound_to 11000
  141.1503  133.6549  156.3993 LP  0  0  0  0  0  0  0  0  0  0  0  0  # atno 17395 bound_to 11000

$$$$
