AV-unprocessed.smi:2062|AV-procd|sdf|8398|dock9
  -GOLD-   2272011 83D 1   1.00000     0.00000
 Structure written by MMmdl.
 43 44  0  0  0  0  0  0  0  0  2 V2000
  148.8615  141.4671  155.9151 C   0  0  0  0  0  0  0  0  0  0  0  0
  150.0319  140.8686  156.7134 C   0  0  0  0  0  0  0  0  0  0  0  0
  151.3724  141.3716  156.1572 C   0  0  0  0  0  0  0  0  0  0  0  0
  149.9955  139.3244  156.7250 C   0  0  0  0  0  0  0  0  0  0  0  0
  149.7832  138.7295  155.3766 N   0  3  1  0  0  0  0  0  0  0  0  0
  150.9452  138.8917  154.4695 C   0  0  0  0  0  0  0  0  0  0  0  0
  152.0533  137.8766  154.8002 C   0  0  0  0  0  0  0  0  0  0  0  0
  151.5208  136.5606  154.7319 O   0  0  0  0  0  0  0  0  0  0  0  0
  150.4794  136.3360  155.6776 C   0  0  2  0  0  0  0  0  0  0  0  0
  150.0213  134.8706  155.5706 C   0  0  0  0  0  0  0  0  0  0  0  0
  149.1977  134.6443  154.3875 N   0  0  0  0  0  0  0  0  0  0  0  0
  148.4212  133.5713  154.1797 C   0  0  0  0  0  0  0  0  0  0  0  0
  148.3161  132.6440  154.9827 O   0  0  0  0  0  0  0  0  0  0  0  0
  147.7866  133.6527  152.9972 N   0  0  0  0  0  0  0  0  0  0  0  0
  146.8832  132.7223  152.4197 C   0  0  0  0  0  0  0  0  0  0  0  0
  146.5295  131.5622  152.9851 N   0  0  0  0  0  0  0  0  0  0  0  0
  145.6265  130.8474  152.1940 C   0  0  0  0  0  0  0  0  0  0  0  0
  145.3012  131.4830  151.0217 C   0  0  0  0  0  0  0  0  0  0  0  0
  146.1199  133.0139  150.8638 S   0  0  0  0  0  0  0  0  0  0  0  0
  149.3234  137.3162  155.3770 C   0  0  0  0  0  0  0  0  0  0  0  0
  148.8790  141.1380  154.8756 H   0  0  0  0  0  0  0  0  0  0  0  0
  148.9032  142.5569  155.9176 H   0  0  0  0  0  0  0  0  0  0  0  0
  147.8994  141.1806  156.3397 H   0  0  0  0  0  0  0  0  0  0  0  0
  149.9624  141.2380  157.7357 H   0  0  0  0  0  0  0  0  0  0  0  0
  151.5194  141.0539  155.1245 H   0  0  0  0  0  0  0  0  0  0  0  0
  152.2094  140.9924  156.7442 H   0  0  0  0  0  0  0  0  0  0  0  0
  151.4246  142.4606  156.1800 H   0  0  0  0  0  0  0  0  0  0  0  0
  150.9451  138.9684  157.1271 H   0  0  0  0  0  0  0  0  0  0  0  0
  149.2295  138.9696  157.4144 H   0  0  0  0  0  0  0  0  0  0  0  0
  150.6061  138.7310  153.4452 H   0  0  0  0  0  0  0  0  0  0  0  0
  151.3273  139.9122  154.5074 H   0  0  0  0  0  0  0  0  0  0  0  0
  152.8668  137.9626  154.0796 H   0  0  0  0  0  0  0  0  0  0  0  0
  152.4831  138.0615  155.7857 H   0  0  0  0  0  0  0  0  0  0  0  0
  150.8601  136.5063  156.6856 H   0  0  0  0  0  0  0  0  0  0  0  0
  150.8922  134.2204  155.4843 H   0  0  0  0  0  0  0  0  0  0  0  0
  149.4964  134.5616  156.4763 H   0  0  0  0  0  0  0  0  0  0  0  0
  149.2258  135.3555  153.6716 H   0  0  0  0  0  0  0  0  0  0  0  0
  147.9738  134.4745  152.4421 H   0  0  0  0  0  0  0  0  0  0  0  0
  145.2644  129.8915  152.5431 H   0  0  0  0  0  0  0  0  0  0  0  0
  144.6319  131.1450  150.2447 H   0  0  0  0  0  0  0  0  0  0  0  0
  148.5028  137.1695  156.0775 H   0  0  0  0  0  0  0  0  0  0  0  0
  148.9153  137.0973  154.3893 H   0  0  0  0  0  0  0  0  0  0  0  0
  149.0381  139.2750  154.9669 H   0  0  0  0  0  0  0  0  0  0  0  0
  1  2  1  0  0  0  0
  1 21  1  0  0  0  0
  1 22  1  0  0  0  0
  1 23  1  0  0  0  0
  2  3  1  0  0  0  0
  2  4  1  0  0  0  0
  2 24  1  0  0  0  0
  3 25  1  0  0  0  0
  3 26  1  0  0  0  0
  3 27  1  0  0  0  0
  4  5  1  0  0  0  0
  4 28  1  0  0  0  0
  4 29  1  0  0  0  0
  5 20  1  0  0  0  0
  5  6  1  0  0  0  0
  5 43  1  0  0  0  0
  6  7  1  0  0  0  0
  6 30  1  0  0  0  0
  6 31  1  0  0  0  0
  7  8  1  0  0  0  0
  7 32  1  0  0  0  0
  7 33  1  0  0  0  0
  8  9  1  0  0  0  0
  9 10  1  0  0  0  0
  9 20  1  0  0  0  0
  9 34  1  0  0  0  0
 10 11  1  0  0  0  0
 10 35  1  0  0  0  0
 10 36  1  0  0  0  0
 11 12  1  0  0  0  0
 11 37  1  0  0  0  0
 12 13  2  0  0  0  0
 12 14  1  0  0  0  0
 14 15  1  0  0  0  0
 14 38  1  0  0  0  0
 15 19  1  0  0  0  0
 15 16  2  0  0  0  0
 16 17  1  0  0  0  0
 17 18  2  0  0  0  0
 17 39  1  0  0  0  0
 18 19  1  0  0  0  0
 18 40  1  0  0  0  0
 20 41  1  0  0  0  0
 20 42  1  0  0  0  0
M  CHG  1   5   1
M  END
> <s_m_source_file>
AV-unprocessed.smi

> <i_m_source_file_index>
2062

> <i_lp_mmshare_version>
43012

> <i_f3d_flags>
0

> <s_epik_input>
W0NIM11bQ0hdKFtDSDNdKVtDSDJdTjFbQ0gyXVtDSDJdT1tDQEhdKFtDSDJdMSlbQ0gyXVtOSF1DKD1PKVtOSF1jMm5bY0hdW2NIXXMy

> <s_epik_cmdline>
J2VwaWtfcHl0aG9uJywgJy1waCcsICc3LjAnLCAnLXRuJywgJzgnLCAnLW1hJywgJzIwMCcsICctbWV0YWxfYmluZGluZycsICctaW1hZScsICc8aW5maWxlLm1hZT4nLCAnLW9tYWUnLCAnPG91dGZpbGUubWFlPic=

> <r_lp_tautomer_probability>
0.999

> <r_epik_Ionization_Penalty>
0.0985527

> <r_epik_Ionization_Penalty_Charging>
0.098413

> <r_epik_Ionization_Penalty_Neutral>
0.000139681

> <r_epik_State_Penalty>
0.0884988

> <r_epik_Charging_Adjusted_Penalty>
0.186912

> <i_epik_Tot_Q>
1

> <i_epik_Tot_abs_Q>
1

> <r_epik_Metal_State_Penalty>
0.141792

> <b_epik_Metal_Only>
0

> <s_lp_Force_Field>
OPLS_2005

> <r_lp_Energy>
18.2091

> <b_lp_Chiralities_Consistent>
1

> <s_lp_Variant>
AV-unprocessed.smi:2062-3

> <Gold.Version>
5.8.1

> <Gold.Id.Protein>
6NUR|6NUR_protein|mol2

> <Gold.PLP.Fitness>
40.8750

> <Gold.PLP.PLP>
-32.6727

> <Gold.PLP.part.hbond>
-3.0000

> <Gold.PLP.part.metal>
0.0000

> <Gold.PLP.part.buried>
-5.1893

> <Gold.PLP.part.nonpolar>
-24.8317

> <Gold.PLP.part.repulsive>
0.8506

> <Gold.PLP.ligand.clash>
0.0000

> <Gold.PLP.ligand.torsion>
0.4180

> <Gold.PLP.Chemscore.Hbond>
2.9920

> <Gold.PLP.Chemscore.CHOScore>
0.0000

> <Gold.PLP.Chemscore.Metal>
0.0000

> <Gold.Chemscore.Hbonds>
donor molecule, donor type, donor heavy atom, donor atom, acceptor molecule, acceptor atom, score
      L1  H    11    37       P1  7948  1.00
      L1  H    14    38       P1  7948  0.96
      P1  H 10752 10764       L1     8  1.00

> <Gold.PLP.Chemscore.Internal.Correction>
0.0622

> <Gold.Rescore>
     Score         DG    S(hbond)    S(metal)    S(lipo)     H(rot)  DE(clash)    DE(int)     intcor
     14.53     -16.50       2.42        0.00      63.67       1.76       0.00       1.97       ----

> <Gold.Chemscore.Fitness>
14.5280

> <Gold.Chemscore.DG>
-16.4998

> <Gold.Chemscore.ZeroCoef>
-5.4800

> <Gold.Chemscore.Hbond>
2.4181

> <Gold.Chemscore.Metal>
0.0000

> <Gold.Chemscore.Lipo>
63.6662

> <Gold.Chemscore.Internal_Hbond>
0.0000

> <Gold.Chemscore.DEClash>
0.0021

> <Gold.Chemscore.DEInternal>
1.9697

> <Gold.Chemscore.Rot>
1.7599

> <Gold.Chemscore.Internal.Correction>
   9.000000E+99

> <Gold.Chemscore.Hbonds>
donor molecule, donor type, donor heavy atom, donor atom, acceptor molecule, acceptor atom, score
      L1  H    11    37       P1  7948  0.38
      L1  H    14    38       P1  7948  0.36
      P1  H 10752 10764       L1     8  0.35

> <Gold.Chemscore.Hbond.Weighted>
-8.0763

> <Gold.Chemscore.Metal.Weighted>
-0.0000

> <Gold.Chemscore.Lipo.Weighted>
-7.4489

> <Gold.Chemscore.Internal_Hbond.Weighted>
0.0000

> <Gold.Chemscore.DEClash.Weighted>
0.0021

> <Gold.Chemscore.DEInternal.Weighted>
1.9697

> <Gold.Chemscore.Rot.Weighted>
4.5054

> <Gold.Chemscore.Internal.Correction.Weighted>
   9.000000E+99

> <Gold.Protein.RotatedTorsions>
[ 6907 6896 6895 6894 ] final  151.94 input  -60.11 | X-H torsion
[ 7974 7965 7964 7962 ] final -115.95 input  175.53 | X-H torsion
[ 8008 7997 7996 7995 ] final  179.06 input   59.86 | X-H torsion
[ 10167 10162 10161 10158 ] final   47.07 input  -65.29 | X-H torsion
[ 10718 10713 10712 10709 ] final -109.63 input   66.30 | X-H torsion
[ 10763 10752 10751 10750 ] final  -70.83 input  -60.55 | X-H torsion
[ 11005 11000 10999 10996 ] final    8.96 input  -57.11 | X-H torsion

> <Gold.Protein.ActiveResidues>
 VAL166  LYS551  ARG553  GLY616  TRP617  ASP618  TYR619  PRO620  LYS621  CYS622 
 ASP623  PHE694  ASN695  SER759  ASP760  ASP761  ALA762  ILE779  LEU786  VAL792 
 PHE793  MET794  SER795  GLU796  ALA797  LYS798  CYS799  TRP800  GLU811  SER814 

> <Gold.Protein.RotatedAtoms>
  152.0937  133.4213  159.4555 H   0  0  0  0  0  0  0  0  0  0  0  0  # atno 6907 bound_to 6896
  150.6863  134.2842  159.4649 H   0  0  0  0  0  0  0  0  0  0  0  0  # atno 6908 bound_to 6896
  152.0696  134.9542  160.0625 H   0  0  0  0  0  0  0  0  0  0  0  0  # atno 6909 bound_to 6896
  145.1025  140.8561  143.3918 H   0  0  0  0  0  0  0  0  0  0  0  0  # atno 7974 bound_to 7965
  156.0477  140.1318  157.0085 H   0  0  0  0  0  0  0  0  0  0  0  0  # atno 8008 bound_to 7997
  154.4420  140.1017  156.6400 H   0  0  0  0  0  0  0  0  0  0  0  0  # atno 8009 bound_to 7997
  155.5571  140.3464  155.4484 H   0  0  0  0  0  0  0  0  0  0  0  0  # atno 8010 bound_to 7997
  140.3074  144.2861  150.6206 H   0  0  0  0  0  0  0  0  0  0  0  0  # atno 10167 bound_to 10162
  156.0547  130.5774  150.8126 H   0  0  0  0  0  0  0  0  0  0  0  0  # atno 10718 bound_to 10713
  154.4232  135.5981  153.6022 H   0  0  0  0  0  0  0  0  0  0  0  0  # atno 10763 bound_to 10752
  152.9795  135.5957  154.3930 H   0  0  0  0  0  0  0  0  0  0  0  0  # atno 10764 bound_to 10752
  154.3758  135.2841  155.2218 H   0  0  0  0  0  0  0  0  0  0  0  0  # atno 10765 bound_to 10752
  140.5311  134.0465  155.7874 H   0  0  0  0  0  0  0  0  0  0  0  0  # atno 11005 bound_to 11000
  145.0939  139.2870  143.5721 LP  0  0  0  0  0  0  0  0  0  0  0  0  # atno 17320 bound_to 7965
  146.3529  140.0485  142.8637 LP  0  0  0  0  0  0  0  0  0  0  0  0  # atno 17321 bound_to 7965
  140.5598  143.2194  151.7785 LP  0  0  0  0  0  0  0  0  0  0  0  0  # atno 17342 bound_to 10162
  139.4901  144.4364  151.9814 LP  0  0  0  0  0  0  0  0  0  0  0  0  # atno 17343 bound_to 10162
  157.5507  131.0944  150.9700 LP  0  0  0  0  0  0  0  0  0  0  0  0  # atno 17370 bound_to 10713
  156.9961  130.5582  149.5307 LP  0  0  0  0  0  0  0  0  0  0  0  0  # atno 17371 bound_to 10713
  141.1281  133.9349  157.2594 LP  0  0  0  0  0  0  0  0  0  0  0  0  # atno 17394 bound_to 11000
  139.9554  135.0167  156.9112 LP  0  0  0  0  0  0  0  0  0  0  0  0  # atno 17395 bound_to 11000

$$$$
