AV-unprocessed.smi:3144|AV-procd|sdf|11978|dock8
  -GOLD-   2272017383D 1   1.00000     0.00000
 Structure written by MMmdl.
 40 41  0  0  0  0  0  0  0  0  2 V2000
  153.8925  142.6746  163.0429 C   0  0  0  0  0  0  0  0  0  0  0  0
  153.4680  142.5537  161.6075 C   0  0  0  0  0  0  0  0  0  0  0  0
  153.8878  141.5852  160.6520 C   0  0  0  0  0  0  0  0  0  0  0  0
  153.3258  141.7557  159.4662 N   0  0  0  0  0  0  0  0  0  0  0  0
  152.5303  142.8344  159.6223 N   0  0  0  0  0  0  0  0  0  0  0  0
  151.7457  143.3154  158.5019 C   0  0  0  0  0  0  0  0  0  0  0  0
  150.5715  142.3773  158.1882 C   0  0  0  0  0  0  0  0  0  0  0  0
  150.3128  142.3203  156.7368 N   0  3  0  0  0  0  0  0  0  0  0  0
  149.7385  141.0394  156.2783 C   0  0  0  0  0  0  0  0  0  0  0  0
  148.2805  141.2045  155.8114 C   0  0  0  0  0  0  0  0  0  0  0  0
  148.2221  141.8025  154.3904 C   0  0  0  0  0  0  0  0  0  0  0  0
  146.7740  141.9703  153.9020 C   0  0  0  0  0  0  0  0  0  0  0  0
  145.9534  142.8259  154.8786 C   0  0  0  0  0  0  0  0  0  0  0  0
  146.0033  142.2431  156.2988 C   0  0  0  0  0  0  0  0  0  0  0  0
  147.4530  142.0755  156.7826 C   0  0  0  0  0  0  0  0  0  0  0  0
  152.5956  143.3362  160.9048 C   0  0  0  0  0  0  0  0  0  0  0  0
  154.1335  141.7034  163.4757 H   0  0  0  0  0  0  0  0  0  0  0  0
  153.1100  143.1149  163.6614 H   0  0  0  0  0  0  0  0  0  0  0  0
  154.7780  143.3017  163.1477 H   0  0  0  0  0  0  0  0  0  0  0  0
  154.5811  140.7677  160.7848 H   0  0  0  0  0  0  0  0  0  0  0  0
  151.3841  144.3176  158.7374 H   0  0  0  0  0  0  0  0  0  0  0  0
  152.4004  143.4103  157.6345 H   0  0  0  0  0  0  0  0  0  0  0  0
  150.7880  141.3735  158.5562 H   0  0  0  0  0  0  0  0  0  0  0  0
  149.6694  142.7202  158.6967 H   0  0  0  0  0  0  0  0  0  0  0  0
  149.6726  143.0636  156.4962 H   0  0  0  0  0  0  0  0  0  0  0  0
  150.3506  140.6292  155.4737 H   0  0  0  0  0  0  0  0  0  0  0  0
  149.7822  140.3291  157.1052 H   0  0  0  0  0  0  0  0  0  0  0  0
  147.8260  140.2129  155.7694 H   0  0  0  0  0  0  0  0  0  0  0  0
  148.7234  142.7713  154.3766 H   0  0  0  0  0  0  0  0  0  0  0  0
  148.7668  141.1648  153.6930 H   0  0  0  0  0  0  0  0  0  0  0  0
  146.7659  142.4270  152.9118 H   0  0  0  0  0  0  0  0  0  0  0  0
  146.3083  140.9897  153.7935 H   0  0  0  0  0  0  0  0  0  0  0  0
  146.3417  143.8450  154.8876 H   0  0  0  0  0  0  0  0  0  0  0  0
  144.9193  142.8919  154.5391 H   0  0  0  0  0  0  0  0  0  0  0  0
  145.4545  142.8894  156.9843 H   0  0  0  0  0  0  0  0  0  0  0  0
  145.4982  141.2763  156.3150 H   0  0  0  0  0  0  0  0  0  0  0  0
  147.4474  141.6340  157.7795 H   0  0  0  0  0  0  0  0  0  0  0  0
  147.9164  143.0577  156.8844 H   0  0  0  0  0  0  0  0  0  0  0  0
  152.0231  144.2000  161.2091 H   0  0  0  0  0  0  0  0  0  0  0  0
  151.1835  142.4727  156.2485 H   0  0  0  0  0  0  0  0  0  0  0  0
  1  2  1  0  0  0  0
  1 17  1  0  0  0  0
  1 18  1  0  0  0  0
  1 19  1  0  0  0  0
  2 16  2  0  0  0  0
  2  3  1  0  0  0  0
  3  4  2  0  0  0  0
  3 20  1  0  0  0  0
  4  5  1  0  0  0  0
  5  6  1  0  0  0  0
  5 16  1  0  0  0  0
  6  7  1  0  0  0  0
  6 21  1  0  0  0  0
  6 22  1  0  0  0  0
  7  8  1  0  0  0  0
  7 23  1  0  0  0  0
  7 24  1  0  0  0  0
  8  9  1  0  0  0  0
  8 25  1  0  0  0  0
  8 40  1  0  0  0  0
  9 10  1  0  0  0  0
  9 26  1  0  0  0  0
  9 27  1  0  0  0  0
 10 15  1  0  0  0  0
 10 11  1  0  0  0  0
 10 28  1  0  0  0  0
 11 12  1  0  0  0  0
 11 29  1  0  0  0  0
 11 30  1  0  0  0  0
 12 13  1  0  0  0  0
 12 31  1  0  0  0  0
 12 32  1  0  0  0  0
 13 14  1  0  0  0  0
 13 33  1  0  0  0  0
 13 34  1  0  0  0  0
 14 15  1  0  0  0  0
 14 35  1  0  0  0  0
 14 36  1  0  0  0  0
 15 37  1  0  0  0  0
 15 38  1  0  0  0  0
 16 39  1  0  0  0  0
M  CHG  1   8   1
M  END
> <s_m_source_file>
AV-unprocessed.smi

> <i_m_source_file_index>
3144

> <i_lp_mmshare_version>
43012

> <i_f3d_flags>
0

> <s_epik_input>
W0NIM11jMVtjSF1ubihbY0hdMSlbQ0gyXVtDSDJdW05IXVtDSDJdW0NIXTJbQ0gyXVtDSDJdW0NIMl1bQ0gyXVtDSDJdMg==

> <s_epik_cmdline>
J2VwaWtfcHl0aG9uJywgJy1waCcsICc3LjAnLCAnLXRuJywgJzgnLCAnLW1hJywgJzIwMCcsICctbWV0YWxfYmluZGluZycsICctaW1hZScsICc8aW5maWxlLm1hZT4nLCAnLW9tYWUnLCAnPG91dGZpbGUubWFlPic=

> <r_lp_tautomer_probability>
1

> <r_epik_Ionization_Penalty>
0.0017464

> <r_epik_Ionization_Penalty_Charging>
0.00174052

> <r_epik_Ionization_Penalty_Neutral>
5.87243e-06

> <r_epik_State_Penalty>
-0

> <r_epik_Charging_Adjusted_Penalty>
0.00174052

> <i_epik_Tot_Q>
1

> <i_epik_Tot_abs_Q>
1

> <r_epik_Metal_State_Penalty>
-0

> <b_epik_Metal_Only>
0

> <s_lp_Force_Field>
OPLS_2005

> <r_lp_Energy>
13.1437

> <b_lp_Chiralities_Consistent>
1

> <s_lp_Variant>
AV-unprocessed.smi:3144-1

> <Gold.Version>
5.8.1

> <Gold.Id.Protein>
6NUR|6NUR_protein|mol2

> <Gold.PLP.Fitness>
44.3059

> <Gold.PLP.PLP>
-40.3631

> <Gold.PLP.part.hbond>
-1.0000

> <Gold.PLP.part.metal>
0.0000

> <Gold.PLP.part.buried>
-5.7876

> <Gold.PLP.part.nonpolar>
-33.2960

> <Gold.PLP.part.repulsive>
0.0423

> <Gold.PLP.ligand.clash>
0.0000

> <Gold.PLP.ligand.torsion>
1.0534

> <Gold.PLP.Chemscore.Hbond>
2.0000

> <Gold.PLP.Chemscore.CHOScore>
0.0000

> <Gold.PLP.Chemscore.Metal>
0.0000

> <Gold.Chemscore.Hbonds>
donor molecule, donor type, donor heavy atom, donor atom, acceptor molecule, acceptor atom, score
      L1  H     8    25       P1  8028  2.00

> <Gold.PLP.Chemscore.Internal.Correction>
0.0497

> <Gold.Rescore>
     Score         DG    S(hbond)    S(metal)    S(lipo)     H(rot)  DE(clash)    DE(int)     intcor
     15.65     -16.49       0.98        0.00      98.98       1.50       0.04       0.79       ----

> <Gold.Chemscore.Fitness>
15.6548

> <Gold.Chemscore.DG>
-16.4863

> <Gold.Chemscore.ZeroCoef>
-5.4800

> <Gold.Chemscore.Hbond>
0.9805

> <Gold.Chemscore.Metal>
0.0000

> <Gold.Chemscore.Lipo>
98.9806

> <Gold.Chemscore.Internal_Hbond>
0.0000

> <Gold.Chemscore.DEClash>
0.0427

> <Gold.Chemscore.DEInternal>
0.7888

> <Gold.Chemscore.Rot>
1.5036

> <Gold.Chemscore.Internal.Correction>
   9.000000E+99

> <Gold.Chemscore.Hbonds>
donor molecule, donor type, donor heavy atom, donor atom, acceptor molecule, acceptor atom, score
      L1  H     8    25       P1  8028  0.94

> <Gold.Chemscore.Hbond.Weighted>
-3.2747

> <Gold.Chemscore.Metal.Weighted>
-0.0000

> <Gold.Chemscore.Lipo.Weighted>
-11.5807

> <Gold.Chemscore.Internal_Hbond.Weighted>
0.0000

> <Gold.Chemscore.DEClash.Weighted>
0.0427

> <Gold.Chemscore.DEInternal.Weighted>
0.7888

> <Gold.Chemscore.Rot.Weighted>
3.8492

> <Gold.Chemscore.Internal.Correction.Weighted>
   9.000000E+99

> <Gold.Protein.RotatedTorsions>
[ 6907 6896 6895 6894 ] final -104.64 input  -60.11 | X-H torsion
[ 7974 7965 7964 7962 ] final  -71.42 input  175.53 | X-H torsion
[ 8008 7997 7996 7995 ] final -170.68 input   59.86 | X-H torsion
[ 10167 10162 10161 10158 ] final  129.89 input  -65.29 | X-H torsion
[ 10718 10713 10712 10709 ] final   25.45 input   66.30 | X-H torsion
[ 10763 10752 10751 10750 ] final   13.52 input  -60.55 | X-H torsion
[ 11005 11000 10999 10996 ] final  -96.86 input  -57.11 | X-H torsion

> <Gold.Protein.ActiveResidues>
 VAL166  LYS551  ARG553  GLY616  TRP617  ASP618  TYR619  PRO620  LYS621  CYS622 
 ASP623  PHE694  ASN695  SER759  ASP760  ASP761  ALA762  ILE779  LEU786  VAL792 
 PHE793  MET794  SER795  GLU796  ALA797  LYS798  CYS799  TRP800  GLU811  SER814 

> <Gold.Protein.RotatedAtoms>
  150.7297  134.0247  159.3712 H   0  0  0  0  0  0  0  0  0  0  0  0  # atno 6907 bound_to 6896
  151.8213  135.0648  160.0435 H   0  0  0  0  0  0  0  0  0  0  0  0  # atno 6908 bound_to 6896
  152.3001  133.5611  159.5649 H   0  0  0  0  0  0  0  0  0  0  0  0  # atno 6909 bound_to 6896
  145.6784  140.9197  143.0845 H   0  0  0  0  0  0  0  0  0  0  0  0  # atno 7974 bound_to 7965
  155.9216  140.1075  157.1202 H   0  0  0  0  0  0  0  0  0  0  0  0  # atno 8008 bound_to 7997
  154.4055  140.1255  156.4752 H   0  0  0  0  0  0  0  0  0  0  0  0  # atno 8009 bound_to 7997
  155.7189  140.3470  155.5009 H   0  0  0  0  0  0  0  0  0  0  0  0  # atno 8010 bound_to 7997
  139.5456  144.6770  151.4485 H   0  0  0  0  0  0  0  0  0  0  0  0  # atno 10167 bound_to 10162
  157.1935  130.6857  149.6159 H   0  0  0  0  0  0  0  0  0  0  0  0  # atno 10718 bound_to 10713
  153.1713  135.6812  153.8604 H   0  0  0  0  0  0  0  0  0  0  0  0  # atno 10763 bound_to 10752
  153.7967  135.3161  155.3386 H   0  0  0  0  0  0  0  0  0  0  0  0  # atno 10764 bound_to 10752
  154.8000  135.4784  154.0344 H   0  0  0  0  0  0  0  0  0  0  0  0  # atno 10765 bound_to 10752
  141.1398  133.8129  157.0629 H   0  0  0  0  0  0  0  0  0  0  0  0  # atno 11005 bound_to 11000
  144.7034  139.8664  143.7437 LP  0  0  0  0  0  0  0  0  0  0  0  0  # atno 17320 bound_to 7965
  146.0986  139.3980  143.0361 LP  0  0  0  0  0  0  0  0  0  0  0  0  # atno 17321 bound_to 7965
  140.6702  143.8309  150.6990 LP  0  0  0  0  0  0  0  0  0  0  0  0  # atno 17342 bound_to 10162
  140.1731  143.4177  152.1986 LP  0  0  0  0  0  0  0  0  0  0  0  0  # atno 17343 bound_to 10162
  155.9709  130.4607  150.6081 LP  0  0  0  0  0  0  0  0  0  0  0  0  # atno 17370 bound_to 10713
  157.3837  131.0785  151.1454 LP  0  0  0  0  0  0  0  0  0  0  0  0  # atno 17371 bound_to 10713
  140.0560  134.9780  157.1221 LP  0  0  0  0  0  0  0  0  0  0  0  0  # atno 17394 bound_to 11000
  140.3919  134.2176  155.7166 LP  0  0  0  0  0  0  0  0  0  0  0  0  # atno 17395 bound_to 11000

$$$$
