AV-unprocessed.smi:1916|AV-procd|sdf|7767|dock1
  -GOLD-   22720 9513D 1   1.00000     0.00000
 Structure written by MMmdl.
 46 48  0  0  0  0  0  0  0  0  2 V2000
  155.2447  138.3801  161.5682 O   0  0  0  0  0  0  0  0  0  0  0  0
  155.0501  139.5941  161.5064 C   0  0  0  0  0  0  0  0  0  0  0  0
  154.9003  140.3697  162.5907 N   0  0  0  0  0  0  0  0  0  0  0  0
  154.9464  139.9014  163.9732 C   0  0  0  0  0  0  0  0  0  0  0  0
  156.0119  140.6141  164.8329 C   0  0  0  0  0  0  0  0  0  0  0  0
  155.4893  141.8282  165.5821 C   0  0  0  0  0  0  0  0  0  0  0  0
  155.3532  141.8397  166.9871 C   0  0  0  0  0  0  0  0  0  0  0  0
  154.8764  143.0050  167.6234 C   0  0  0  0  0  0  0  0  0  0  0  0
  154.5483  144.1332  166.8431 C   0  0  0  0  0  0  0  0  0  0  0  0
  154.7040  144.0674  165.4435 C   0  0  0  0  0  0  0  0  0  0  0  0
  155.1619  142.9326  164.8714 N   0  3  0  0  0  0  0  0  0  0  0  0
  154.9398  140.2939  160.1430 C   0  0  1  0  0  0  0  0  0  0  0  0
  154.0692  139.4894  159.1603 C   0  0  0  0  0  0  0  0  0  0  0  0
  152.8274  140.3463  158.9808 C   0  0  0  0  0  0  0  0  0  0  0  0
  151.8608  139.9731  158.3185 O   0  0  0  0  0  0  0  0  0  0  0  0
  152.9446  141.5143  159.6308 N   0  0  0  0  0  0  0  0  0  0  0  0
  151.9781  142.6198  159.7003 C   0  0  0  0  0  0  0  0  0  0  0  0
  151.6729  143.2535  158.3246 C   0  0  0  0  0  0  0  0  0  0  0  0
  152.1929  144.6914  158.3912 C   0  0  0  0  0  0  0  0  0  0  0  0
  152.0972  145.0619  159.8682 C   0  0  0  0  0  0  0  0  0  0  0  0
  152.4558  143.7726  160.6086 C   0  0  0  0  0  0  0  0  0  0  0  0
  154.2528  141.6718  160.2476 C   0  0  0  0  0  0  0  0  0  0  0  0
  154.7472  141.3579  162.4486 H   0  0  0  0  0  0  0  0  0  0  0  0
  153.9616  139.9994  164.4326 H   0  0  0  0  0  0  0  0  0  0  0  0
  155.1652  138.8337  163.9434 H   0  0  0  0  0  0  0  0  0  0  0  0
  156.4322  139.9134  165.5556 H   0  0  0  0  0  0  0  0  0  0  0  0
  156.8451  140.9206  164.1996 H   0  0  0  0  0  0  0  0  0  0  0  0
  155.6127  140.9687  167.5714 H   0  0  0  0  0  0  0  0  0  0  0  0
  154.7656  143.0334  168.6976 H   0  0  0  0  0  0  0  0  0  0  0  0
  154.1824  145.0352  167.3118 H   0  0  0  0  0  0  0  0  0  0  0  0
  154.4787  144.8811  164.7696 H   0  0  0  0  0  0  0  0  0  0  0  0
  155.9409  140.4200  159.7266 H   0  0  0  0  0  0  0  0  0  0  0  0
  154.5700  139.3712  158.1990 H   0  0  0  0  0  0  0  0  0  0  0  0
  153.7986  138.4964  159.5232 H   0  0  0  0  0  0  0  0  0  0  0  0
  151.0399  142.2326  160.1015 H   0  0  0  0  0  0  0  0  0  0  0  0
  152.0979  142.7042  157.4835 H   0  0  0  0  0  0  0  0  0  0  0  0
  150.5930  143.2710  158.1722 H   0  0  0  0  0  0  0  0  0  0  0  0
  153.2354  144.7243  158.0727 H   0  0  0  0  0  0  0  0  0  0  0  0
  151.6300  145.3706  157.7504 H   0  0  0  0  0  0  0  0  0  0  0  0
  152.7482  145.8943  160.1362 H   0  0  0  0  0  0  0  0  0  0  0  0
  151.0727  145.3501  160.1075 H   0  0  0  0  0  0  0  0  0  0  0  0
  152.0013  143.7306  161.5987 H   0  0  0  0  0  0  0  0  0  0  0  0
  153.5363  143.7394  160.7528 H   0  0  0  0  0  0  0  0  0  0  0  0
  154.1534  142.0200  161.2774 H   0  0  0  0  0  0  0  0  0  0  0  0
  154.8185  142.4269  159.7001 H   0  0  0  0  0  0  0  0  0  0  0  0
  155.2685  142.9062  163.8568 H   0  0  0  0  0  0  0  0  0  0  0  0
  1  2  2  0  0  0  0
  2  3  1  0  0  0  0
  2 12  1  0  0  0  0
  3  4  1  0  0  0  0
  3 23  1  0  0  0  0
  4  5  1  0  0  0  0
  4 24  1  0  0  0  0
  4 25  1  0  0  0  0
  5  6  1  0  0  0  0
  5 26  1  0  0  0  0
  5 27  1  0  0  0  0
  6 11  1  0  0  0  0
  6  7  2  0  0  0  0
  7  8  1  0  0  0  0
  7 28  1  0  0  0  0
  8  9  2  0  0  0  0
  8 29  1  0  0  0  0
  9 10  1  0  0  0  0
  9 30  1  0  0  0  0
 10 11  2  0  0  0  0
 10 31  1  0  0  0  0
 11 46  1  0  0  0  0
 12 22  1  0  0  0  0
 12 13  1  0  0  0  0
 12 32  1  0  0  0  0
 13 14  1  0  0  0  0
 13 33  1  0  0  0  0
 13 34  1  0  0  0  0
 14 15  2  0  0  0  0
 14 16  1  0  0  0  0
 16 17  1  0  0  0  0
 16 22  1  0  0  0  0
 17 21  1  0  0  0  0
 17 18  1  0  0  0  0
 17 35  1  0  0  0  0
 18 19  1  0  0  0  0
 18 36  1  0  0  0  0
 18 37  1  0  0  0  0
 19 20  1  0  0  0  0
 19 38  1  0  0  0  0
 19 39  1  0  0  0  0
 20 21  1  0  0  0  0
 20 40  1  0  0  0  0
 20 41  1  0  0  0  0
 21 42  1  0  0  0  0
 21 43  1  0  0  0  0
 22 44  1  0  0  0  0
 22 45  1  0  0  0  0
M  CHG  1  11   1
M  END
> <s_m_source_file>
AV-unprocessed.smi

> <i_m_source_file_index>
1916

> <i_lp_mmshare_version>
43012

> <i_f3d_flags>
0

> <s_epik_input>
W0NIMl0xW0NIMl1bQ0gyXVtDSDJdW0NIXTFOKFtDSDJdMilDKD1PKVtDSDJdW0NASF0yQyg9TylbTkhdW0NIMl1bQ0gyXWMzW2NIXVtjSF1bY0hdW2NIXW4z

> <s_epik_cmdline>
J2VwaWtfcHl0aG9uJywgJy1waCcsICc3LjAnLCAnLXRuJywgJzgnLCAnLW1hJywgJzIwMCcsICctbWV0YWxfYmluZGluZycsICctaW1hZScsICc8aW5maWxlLm1hZT4nLCAnLW9tYWUnLCAnPG91dGZpbGUubWFlPic=

> <r_epik_Ionization_Penalty>
1.88249

> <r_epik_Ionization_Penalty_Charging>
1.88249

> <r_epik_Ionization_Penalty_Neutral>
3.64574e-08

> <r_epik_State_Penalty>
2.00238

> <r_epik_Charging_Adjusted_Penalty>
3.88487

> <i_epik_Tot_Q>
1

> <i_epik_Tot_abs_Q>
1

> <r_epik_Metal_State_Penalty>
2.02676

> <b_epik_Metal_Only>
0

> <s_lp_Force_Field>
OPLS_2005

> <r_lp_Energy>
36.1777

> <b_lp_Chiralities_Consistent>
1

> <s_lp_Variant>
AV-unprocessed.smi:1916-4

> <Gold.Version>
5.8.1

> <Gold.Id.Protein>
6NUR|6NUR_protein|mol2

> <Gold.PLP.Fitness>
47.6017

> <Gold.PLP.PLP>
-49.1124

> <Gold.PLP.part.hbond>
-1.8638

> <Gold.PLP.part.metal>
0.0000

> <Gold.PLP.part.buried>
-5.8410

> <Gold.PLP.part.nonpolar>
-41.7568

> <Gold.PLP.part.repulsive>
0.0377

> <Gold.PLP.ligand.clash>
0.0000

> <Gold.PLP.ligand.torsion>
0.8064

> <Gold.PLP.Chemscore.Hbond>
0.0000

> <Gold.PLP.Chemscore.CHOScore>
0.0000

> <Gold.PLP.Chemscore.Metal>
0.0000

> <Gold.PLP.Chemscore.Internal.Correction>
0.1022

> <Gold.Rescore>
     Score         DG    S(hbond)    S(metal)    S(lipo)     H(rot)  DE(clash)    DE(int)     intcor
     15.64     -16.92       0.00        0.00     135.29       1.72       0.45       0.82       ----

> <Gold.Chemscore.Fitness>
15.6436

> <Gold.Chemscore.DG>
-16.9160

> <Gold.Chemscore.ZeroCoef>
-5.4800

> <Gold.Chemscore.Hbond>
0.0000

> <Gold.Chemscore.Metal>
0.0000

> <Gold.Chemscore.Lipo>
135.2851

> <Gold.Chemscore.Internal_Hbond>
0.0000

> <Gold.Chemscore.DEClash>
0.4519

> <Gold.Chemscore.DEInternal>
0.8205

> <Gold.Chemscore.Rot>
1.7158

> <Gold.Chemscore.Internal.Correction>
   9.000000E+99

> <Gold.Chemscore.Hbond.Weighted>
-0.0000

> <Gold.Chemscore.Metal.Weighted>
-0.0000

> <Gold.Chemscore.Lipo.Weighted>
-15.8284

> <Gold.Chemscore.Internal_Hbond.Weighted>
0.0000

> <Gold.Chemscore.DEClash.Weighted>
0.4519

> <Gold.Chemscore.DEInternal.Weighted>
0.8205

> <Gold.Chemscore.Rot.Weighted>
4.3924

> <Gold.Chemscore.Internal.Correction.Weighted>
   9.000000E+99

> <Gold.Protein.RotatedTorsions>
[ 6907 6896 6895 6894 ] final  -48.28 input  -60.11 | X-H torsion
[ 7974 7965 7964 7962 ] final -118.46 input  175.53 | X-H torsion
[ 8008 7997 7996 7995 ] final   51.12 input   59.86 | X-H torsion
[ 10167 10162 10161 10158 ] final  132.17 input  -65.29 | X-H torsion
[ 10718 10713 10712 10709 ] final   95.36 input   66.30 | X-H torsion
[ 10763 10752 10751 10750 ] final    6.12 input  -60.55 | X-H torsion
[ 11005 11000 10999 10996 ] final  171.83 input  -57.11 | X-H torsion

> <Gold.Protein.ActiveResidues>
 VAL166  LYS551  ARG553  GLY616  TRP617  ASP618  TYR619  PRO620  LYS621  CYS622 
 ASP623  PHE694  ASN695  SER759  ASP760  ASP761  ALA762  ILE779  LEU786  VAL792 
 PHE793  MET794  SER795  GLU796  ALA797  LYS798  CYS799  TRP800  GLU811  SER814 

> <Gold.Protein.RotatedAtoms>
  150.8921  134.8326  159.7300 H   0  0  0  0  0  0  0  0  0  0  0  0  # atno 6907 bound_to 6896
  152.4843  134.4631  159.9621 H   0  0  0  0  0  0  0  0  0  0  0  0  # atno 6908 bound_to 6896
  151.4693  133.3534  159.2856 H   0  0  0  0  0  0  0  0  0  0  0  0  # atno 6909 bound_to 6896
  145.0735  140.8376  143.4081 H   0  0  0  0  0  0  0  0  0  0  0  0  # atno 7974 bound_to 7965
  155.4300  140.3450  155.4279 H   0  0  0  0  0  0  0  0  0  0  0  0  # atno 8008 bound_to 7997
  156.1342  140.1523  156.9051 H   0  0  0  0  0  0  0  0  0  0  0  0  # atno 8009 bound_to 7997
  154.4918  140.0839  156.7592 H   0  0  0  0  0  0  0  0  0  0  0  0  # atno 8010 bound_to 7997
  139.5351  144.6674  151.4814 H   0  0  0  0  0  0  0  0  0  0  0  0  # atno 10167 bound_to 10162
  157.6939  131.0543  150.4327 H   0  0  0  0  0  0  0  0  0  0  0  0  # atno 10718 bound_to 10713
  153.2514  135.6914  153.7675 H   0  0  0  0  0  0  0  0  0  0  0  0  # atno 10763 bound_to 10752
  153.6768  135.3335  155.3169 H   0  0  0  0  0  0  0  0  0  0  0  0  # atno 10764 bound_to 10752
  154.8395  135.4513  154.1472 H   0  0  0  0  0  0  0  0  0  0  0  0  # atno 10765 bound_to 10752
  140.3231  134.7420  157.4079 H   0  0  0  0  0  0  0  0  0  0  0  0  # atno 11005 bound_to 11000
  145.1264  139.2660  143.5562 LP  0  0  0  0  0  0  0  0  0  0  0  0  # atno 17320 bound_to 7965
  146.3529  140.0902  142.8613 LP  0  0  0  0  0  0  0  0  0  0  0  0  # atno 17321 bound_to 7965
  140.6553  143.8613  150.6828 LP  0  0  0  0  0  0  0  0  0  0  0  0  # atno 17342 bound_to 10162
  140.1990  143.3975  152.1806 LP  0  0  0  0  0  0  0  0  0  0  0  0  # atno 17343 bound_to 10162
  156.4693  130.4049  149.6528 LP  0  0  0  0  0  0  0  0  0  0  0  0  # atno 17370 bound_to 10713
  156.3615  130.7484  151.2456 LP  0  0  0  0  0  0  0  0  0  0  0  0  # atno 17371 bound_to 10713
  140.0924  134.5583  155.8431 LP  0  0  0  0  0  0  0  0  0  0  0  0  # atno 17394 bound_to 11000
  141.2081  133.6671  156.6353 LP  0  0  0  0  0  0  0  0  0  0  0  0  # atno 17395 bound_to 11000

$$$$
