AV-unprocessed.smi:1144|AV-procd|sdf|4881|dock9
  -GOLD-   22720 3453D 1   1.00000     0.00000
 Structure written by MMmdl.
 34 35  0  0  0  0  0  0  0  0  1 V2000
  151.9002  145.8952  160.0855 C   0  0  0  0  0  0  0  0  0  0  0  0
  152.1877  144.6461  159.3974 N   0  0  0  0  0  0  0  0  0  0  0  0
  151.0559  144.2017  158.5953 C   0  0  0  0  0  0  0  0  0  0  0  0
  151.3552  142.8737  157.8801 C   0  0  0  0  0  0  0  0  0  0  0  0
  151.7330  141.8920  158.8405 O   0  0  0  0  0  0  0  0  0  0  0  0
  152.8768  142.2667  159.6069 C   0  0  2  0  0  0  0  0  0  0  0  0
  153.1864  141.1382  160.5995 C   0  0  0  0  0  0  0  0  0  0  0  0
  154.4085  141.3986  161.3452 N   0  0  0  0  0  0  0  0  0  0  0  0
  154.9040  140.5728  162.3359 C   0  0  0  0  0  0  0  0  0  0  0  0
  155.6305  141.1231  163.3154 N   0  0  0  0  0  0  0  0  0  0  0  0
  156.1014  140.2930  164.2706 C   0  0  0  0  0  0  0  0  0  0  0  0
  155.8443  138.9081  164.2433 C   0  0  0  0  0  0  0  0  0  0  0  0
  155.0663  138.4372  163.1619 C   0  0  0  0  0  0  0  0  0  0  0  0
  154.7073  136.9673  163.0036 C   0  0  0  0  0  0  0  0  0  0  0  0
  153.9873  136.5253  164.0355 F   0  0  0  0  0  0  0  0  0  0  0  0
  153.9973  136.7953  161.8885 F   0  0  0  0  0  0  0  0  0  0  0  0
  155.8207  136.2387  162.9220 F   0  0  0  0  0  0  0  0  0  0  0  0
  154.5997  139.2792  162.2104 N   0  0  0  0  0  0  0  0  0  0  0  0
  152.5690  143.5931  160.3303 C   0  0  0  0  0  0  0  0  0  0  0  0
  151.6468  146.6796  159.3716 H   0  0  0  0  0  0  0  0  0  0  0  0
  152.7679  146.2315  160.6537 H   0  0  0  0  0  0  0  0  0  0  0  0
  151.0643  145.7816  160.7769 H   0  0  0  0  0  0  0  0  0  0  0  0
  150.1777  144.0784  159.2311 H   0  0  0  0  0  0  0  0  0  0  0  0
  150.8025  144.9633  157.8571 H   0  0  0  0  0  0  0  0  0  0  0  0
  150.4741  142.5262  157.3407 H   0  0  0  0  0  0  0  0  0  0  0  0
  152.1523  143.0001  157.1458 H   0  0  0  0  0  0  0  0  0  0  0  0
  153.7306  142.4098  158.9414 H   0  0  0  0  0  0  0  0  0  0  0  0
  152.3654  141.0407  161.3109 H   0  0  0  0  0  0  0  0  0  0  0  0
  153.2722  140.1858  160.0749 H   0  0  0  0  0  0  0  0  0  0  0  0
  154.9657  142.1997  161.0862 H   0  0  0  0  0  0  0  0  0  0  0  0
  156.6873  140.7365  165.0621 H   0  0  0  0  0  0  0  0  0  0  0  0
  156.2249  138.2518  165.0116 H   0  0  0  0  0  0  0  0  0  0  0  0
  153.4443  143.9076  160.9000 H   0  0  0  0  0  0  0  0  0  0  0  0
  151.7677  143.4338  161.0537 H   0  0  0  0  0  0  0  0  0  0  0  0
  1  2  1  0  0  0  0
  1 20  1  0  0  0  0
  1 21  1  0  0  0  0
  1 22  1  0  0  0  0
  2 19  1  0  0  0  0
  2  3  1  0  0  0  0
  3  4  1  0  0  0  0
  3 23  1  0  0  0  0
  3 24  1  0  0  0  0
  4  5  1  0  0  0  0
  4 25  1  0  0  0  0
  4 26  1  0  0  0  0
  5  6  1  0  0  0  0
  6  7  1  0  0  0  0
  6 19  1  0  0  0  0
  6 27  1  0  0  0  0
  7  8  1  0  0  0  0
  7 28  1  0  0  0  0
  7 29  1  0  0  0  0
  8  9  1  0  0  0  0
  8 30  1  0  0  0  0
  9 18  1  0  0  0  0
  9 10  2  0  0  0  0
 10 11  1  0  0  0  0
 11 12  2  0  0  0  0
 11 31  1  0  0  0  0
 12 13  1  0  0  0  0
 12 32  1  0  0  0  0
 13 14  1  0  0  0  0
 13 18  2  0  0  0  0
 14 15  1  0  0  0  0
 14 16  1  0  0  0  0
 14 17  1  0  0  0  0
 19 33  1  0  0  0  0
 19 34  1  0  0  0  0
M  END
> <s_m_source_file>
AV-unprocessed.smi

> <i_m_source_file_index>
1144

> <i_lp_mmshare_version>
43012

> <i_f3d_flags>
0

> <s_epik_input>
W0NIM11OMVtDSDJdW0NIMl1PW0NASF0oW0NIMl0xKVtDSDJdW05IXWMybltjSF1bY0hdYyhuMilDKEYpKEYpRg==

> <s_epik_cmdline>
J2VwaWtfcHl0aG9uJywgJy1waCcsICc3LjAnLCAnLXRuJywgJzgnLCAnLW1hJywgJzIwMCcsICctbWV0YWxfYmluZGluZycsICctaW1hZScsICc8aW5maWxlLm1hZT4nLCAnLW9tYWUnLCAnPG91dGZpbGUubWFlPic=

> <r_lp_tautomer_probability>
1

> <r_epik_Ionization_Penalty>
0.797829

> <r_epik_Ionization_Penalty_Charging>
0

> <r_epik_Ionization_Penalty_Neutral>
0.797829

> <r_epik_State_Penalty>
0.828842

> <r_epik_Charging_Adjusted_Penalty>
0.828842

> <i_epik_Tot_Q>
0

> <i_epik_Tot_abs_Q>
0

> <r_epik_Metal_State_Penalty>
0.828842

> <b_epik_Metal_Only>
0

> <s_lp_Force_Field>
OPLS_2005

> <r_lp_Energy>
14.496

> <b_lp_Chiralities_Consistent>
1

> <s_lp_Variant>
AV-unprocessed.smi:1144-6

> <Gold.Version>
5.8.1

> <Gold.Id.Protein>
6NUR|6NUR_protein|mol2

> <Gold.PLP.Fitness>
40.7120

> <Gold.PLP.PLP>
-41.0797

> <Gold.PLP.part.hbond>
-2.0000

> <Gold.PLP.part.metal>
0.0000

> <Gold.PLP.part.buried>
-4.1286

> <Gold.PLP.part.nonpolar>
-34.3471

> <Gold.PLP.part.repulsive>
0.0190

> <Gold.PLP.ligand.clash>
0.0000

> <Gold.PLP.ligand.torsion>
0.1933

> <Gold.PLP.Chemscore.Hbond>
0.0000

> <Gold.PLP.Chemscore.CHOScore>
0.0000

> <Gold.PLP.Chemscore.Metal>
0.0000

> <Gold.PLP.Chemscore.Internal.Correction>
0.0189

> <Gold.Rescore>
     Score         DG    S(hbond)    S(metal)    S(lipo)     H(rot)  DE(clash)    DE(int)     intcor
     12.51     -12.70       0.00        0.00      90.47       1.31       0.00       0.18       ----

> <Gold.Chemscore.Fitness>
12.5142

> <Gold.Chemscore.DG>
-12.6993

> <Gold.Chemscore.ZeroCoef>
-5.4800

> <Gold.Chemscore.Hbond>
0.0000

> <Gold.Chemscore.Metal>
0.0000

> <Gold.Chemscore.Lipo>
90.4739

> <Gold.Chemscore.Internal_Hbond>
0.0000

> <Gold.Chemscore.DEClash>
0.0021

> <Gold.Chemscore.DEInternal>
0.1830

> <Gold.Chemscore.Rot>
1.3149

> <Gold.Chemscore.Internal.Correction>
   9.000000E+99

> <Gold.Chemscore.Hbond.Weighted>
-0.0000

> <Gold.Chemscore.Metal.Weighted>
-0.0000

> <Gold.Chemscore.Lipo.Weighted>
-10.5855

> <Gold.Chemscore.Internal_Hbond.Weighted>
0.0000

> <Gold.Chemscore.DEClash.Weighted>
0.0021

> <Gold.Chemscore.DEInternal.Weighted>
0.1830

> <Gold.Chemscore.Rot.Weighted>
3.3662

> <Gold.Chemscore.Internal.Correction.Weighted>
   9.000000E+99

> <Gold.Protein.RotatedTorsions>
[ 6907 6896 6895 6894 ] final   66.50 input  -60.11 | X-H torsion
[ 7974 7965 7964 7962 ] final  163.20 input  175.53 | X-H torsion
[ 8008 7997 7996 7995 ] final  -91.76 input   59.86 | X-H torsion
[ 10167 10162 10161 10158 ] final  131.48 input  -65.29 | X-H torsion
[ 10718 10713 10712 10709 ] final  -42.88 input   66.30 | X-H torsion
[ 10763 10752 10751 10750 ] final  -14.57 input  -60.55 | X-H torsion
[ 11005 11000 10999 10996 ] final  109.90 input  -57.11 | X-H torsion

> <Gold.Protein.ActiveResidues>
 VAL166  LYS551  ARG553  GLY616  TRP617  ASP618  TYR619  PRO620  LYS621  CYS622 
 ASP623  PHE694  ASN695  SER759  ASP760  ASP761  ALA762  ILE779  LEU786  VAL792 
 PHE793  MET794  SER795  GLU796  ALA797  LYS798  CYS799  TRP800  GLU811  SER814 

> <Gold.Protein.RotatedAtoms>
  152.4485  134.5444  159.9848 H   0  0  0  0  0  0  0  0  0  0  0  0  # atno 6907 bound_to 6896
  151.5522  133.3410  159.2963 H   0  0  0  0  0  0  0  0  0  0  0  0  # atno 6908 bound_to 6896
  150.8407  134.7731  159.6994 H   0  0  0  0  0  0  0  0  0  0  0  0  # atno 6909 bound_to 6896
  144.7601  139.8148  143.6336 H   0  0  0  0  0  0  0  0  0  0  0  0  # atno 7974 bound_to 7965
  154.7147  140.0516  157.0584 H   0  0  0  0  0  0  0  0  0  0  0  0  # atno 8008 bound_to 7997
  155.0507  140.3179  155.4674 H   0  0  0  0  0  0  0  0  0  0  0  0  # atno 8009 bound_to 7997
  156.2799  140.2116  156.5632 H   0  0  0  0  0  0  0  0  0  0  0  0  # atno 8010 bound_to 7997
  139.5382  144.6704  151.4714 H   0  0  0  0  0  0  0  0  0  0  0  0  # atno 10167 bound_to 10162
  156.2549  130.4191  149.8607 H   0  0  0  0  0  0  0  0  0  0  0  0  # atno 10718 bound_to 10713
  153.5303  135.7014  153.5686 H   0  0  0  0  0  0  0  0  0  0  0  0  # atno 10763 bound_to 10752
  153.3697  135.3948  155.1779 H   0  0  0  0  0  0  0  0  0  0  0  0  # atno 10764 bound_to 10752
  154.8685  135.3809  154.4800 H   0  0  0  0  0  0  0  0  0  0  0  0  # atno 10765 bound_to 10752
  139.8871  134.9470  156.6196 H   0  0  0  0  0  0  0  0  0  0  0  0  # atno 11005 bound_to 11000
  146.1654  139.4784  142.9961 LP  0  0  0  0  0  0  0  0  0  0  0  0  # atno 17320 bound_to 7965
  145.6648  141.0231  143.1689 LP  0  0  0  0  0  0  0  0  0  0  0  0  # atno 17321 bound_to 7965
  140.6599  143.8520  150.6876 LP  0  0  0  0  0  0  0  0  0  0  0  0  # atno 17342 bound_to 10162
  140.1912  143.4035  152.1862 LP  0  0  0  0  0  0  0  0  0  0  0  0  # atno 17343 bound_to 10162
  156.6143  130.8600  151.3461 LP  0  0  0  0  0  0  0  0  0  0  0  0  # atno 17370 bound_to 10713
  157.7229  130.9582  150.1511 LP  0  0  0  0  0  0  0  0  0  0  0  0  # atno 17371 bound_to 10713
  140.7749  133.8707  155.8521 LP  0  0  0  0  0  0  0  0  0  0  0  0  # atno 17394 bound_to 11000
  140.9810  134.1406  157.4494 LP  0  0  0  0  0  0  0  0  0  0  0  0  # atno 17395 bound_to 11000

$$$$
