AV-unprocessed.smi:1740|AV-procd|sdf|7008|dock2
  -GOLD-   22720 8223D 1   1.00000     0.00000
 Structure written by MMmdl.
 52 54  0  0  0  0  0  0  0  0  2 V2000
  142.5716  132.8412  148.2075 N   0  0  0  0  0  0  0  0  0  0  0  0
  143.6011  132.4331  148.9525 C   0  0  0  0  0  0  0  0  0  0  0  0
  144.6590  132.0509  148.4556 O   0  0  0  0  0  0  0  0  0  0  0  0
  143.4160  132.4802  150.4729 C   0  0  0  0  0  0  0  0  0  0  0  0
  143.4984  133.8565  151.0266 N   0  3  2  0  0  0  0  0  0  0  0  0
  144.8355  134.4817  150.8406 C   0  0  0  0  0  0  0  0  0  0  0  0
  144.8304  135.9510  151.2992 C   0  0  0  0  0  0  0  0  0  0  0  0
  144.3572  136.0984  152.7582 C   0  0  2  0  0  0  0  0  0  0  0  0
  145.3493  135.5826  153.7010 N   0  0  0  0  0  0  0  0  0  0  0  0
  145.8439  136.2534  154.7511 C   0  0  0  0  0  0  0  0  0  0  0  0
  145.5155  137.4040  155.0381 O   0  0  0  0  0  0  0  0  0  0  0  0
  146.7196  135.4990  155.4359 N   0  0  0  0  0  0  0  0  0  0  0  0
  147.3951  135.8087  156.6507 C   0  0  0  0  0  0  0  0  0  0  0  0
  147.0893  136.9716  157.4000 C   0  0  0  0  0  0  0  0  0  0  0  0
  147.8323  137.2623  158.5569 C   0  0  0  0  0  0  0  0  0  0  0  0
  148.8701  136.3874  158.9179 C   0  0  0  0  0  0  0  0  0  0  0  0
  149.1837  135.2852  158.2084 N   0  0  0  0  0  0  0  0  0  0  0  0
  148.4667  134.9831  157.0980 C   0  0  0  0  0  0  0  0  0  0  0  0
  148.8315  133.8074  156.4020 N   0  0  0  0  0  0  0  0  0  0  0  0
  149.6741  132.8365  157.0943 C   0  0  0  0  0  0  0  0  0  0  0  0
  150.6174  132.2491  156.0389 C   0  0  0  0  0  0  0  0  0  0  0  0
  149.9067  132.5342  154.7194 C   0  0  0  0  0  0  0  0  0  0  0  0
  149.2278  133.8717  154.9991 C   0  0  0  0  0  0  0  0  0  0  0  0
  143.0107  135.3784  152.9449 C   0  0  0  0  0  0  0  0  0  0  0  0
  143.0565  133.9236  152.4429 C   0  0  0  0  0  0  0  0  0  0  0  0
  142.6492  132.8348  147.2001 H   0  0  0  0  0  0  0  0  0  0  0  0
  141.7207  133.1617  148.6470 H   0  0  0  0  0  0  0  0  0  0  0  0
  142.4302  132.0607  150.6782 H   0  0  0  0  0  0  0  0  0  0  0  0
  144.1413  131.8328  150.9689 H   0  0  0  0  0  0  0  0  0  0  0  0
  145.5849  133.9159  151.3961 H   0  0  0  0  0  0  0  0  0  0  0  0
  145.1272  134.4391  149.7909 H   0  0  0  0  0  0  0  0  0  0  0  0
  145.8222  136.3867  151.1722 H   0  0  0  0  0  0  0  0  0  0  0  0
  144.1663  136.5222  150.6492 H   0  0  0  0  0  0  0  0  0  0  0  0
  144.2029  137.1578  152.9718 H   0  0  0  0  0  0  0  0  0  0  0  0
  145.6739  134.6387  153.5512 H   0  0  0  0  0  0  0  0  0  0  0  0
  146.8286  134.5471  155.1183 H   0  0  0  0  0  0  0  0  0  0  0  0
  146.3146  137.6583  157.0962 H   0  0  0  0  0  0  0  0  0  0  0  0
  147.6201  138.1423  159.1458 H   0  0  0  0  0  0  0  0  0  0  0  0
  149.4694  136.5804  159.7954 H   0  0  0  0  0  0  0  0  0  0  0  0
  150.2296  133.2867  157.9183 H   0  0  0  0  0  0  0  0  0  0  0  0
  149.0408  132.0490  157.5034 H   0  0  0  0  0  0  0  0  0  0  0  0
  151.5697  132.7805  156.0624 H   0  0  0  0  0  0  0  0  0  0  0  0
  150.8199  131.1892  156.1943 H   0  0  0  0  0  0  0  0  0  0  0  0
  150.5848  132.5713  153.8666 H   0  0  0  0  0  0  0  0  0  0  0  0
  149.1560  131.7666  154.5257 H   0  0  0  0  0  0  0  0  0  0  0  0
  148.3673  134.0338  154.3496 H   0  0  0  0  0  0  0  0  0  0  0  0
  149.9407  134.6803  154.8335 H   0  0  0  0  0  0  0  0  0  0  0  0
  142.7091  135.4051  153.9929 H   0  0  0  0  0  0  0  0  0  0  0  0
  142.2387  135.9187  152.3953 H   0  0  0  0  0  0  0  0  0  0  0  0
  142.0628  133.4847  152.5392 H   0  0  0  0  0  0  0  0  0  0  0  0
  143.7267  133.3266  153.0633 H   0  0  0  0  0  0  0  0  0  0  0  0
  142.8391  134.4092  150.4965 H   0  0  0  0  0  0  0  0  0  0  0  0
  1  2  1  0  0  0  0
  1 26  1  0  0  0  0
  1 27  1  0  0  0  0
  2  3  2  0  0  0  0
  2  4  1  0  0  0  0
  4  5  1  0  0  0  0
  4 28  1  0  0  0  0
  4 29  1  0  0  0  0
  5 25  1  0  0  0  0
  5  6  1  0  0  0  0
  5 52  1  0  0  0  0
  6  7  1  0  0  0  0
  6 30  1  0  0  0  0
  6 31  1  0  0  0  0
  7  8  1  0  0  0  0
  7 32  1  0  0  0  0
  7 33  1  0  0  0  0
  8  9  1  0  0  0  0
  8 24  1  0  0  0  0
  8 34  1  0  0  0  0
  9 10  1  0  0  0  0
  9 35  1  0  0  0  0
 10 11  2  0  0  0  0
 10 12  1  0  0  0  0
 12 13  1  0  0  0  0
 12 36  1  0  0  0  0
 13 18  1  0  0  0  0
 13 14  2  0  0  0  0
 14 15  1  0  0  0  0
 14 37  1  0  0  0  0
 15 16  2  0  0  0  0
 15 38  1  0  0  0  0
 16 17  1  0  0  0  0
 16 39  1  0  0  0  0
 17 18  2  0  0  0  0
 18 19  1  0  0  0  0
 19 23  1  0  0  0  0
 19 20  1  0  0  0  0
 20 21  1  0  0  0  0
 20 40  1  0  0  0  0
 20 41  1  0  0  0  0
 21 22  1  0  0  0  0
 21 42  1  0  0  0  0
 21 43  1  0  0  0  0
 22 23  1  0  0  0  0
 22 44  1  0  0  0  0
 22 45  1  0  0  0  0
 23 46  1  0  0  0  0
 23 47  1  0  0  0  0
 24 25  1  0  0  0  0
 24 48  1  0  0  0  0
 24 49  1  0  0  0  0
 25 50  1  0  0  0  0
 25 51  1  0  0  0  0
M  CHG  1   5   1
M  END
> <s_m_source_file>
AV-unprocessed.smi

> <i_m_source_file_index>
1740

> <i_lp_mmshare_version>
43012

> <i_f3d_flags>
0

> <s_epik_input>
W05IMl1DKD1PKVtDSDJdTjFbQ0gyXVtDSDJdW0NIXShbQ0gyXVtDSDJdMSlbTkhdQyg9TylbTkhdYzJbY0hdW2NIXVtjSF1uYzJOM1tDSDJdW0NIMl1bQ0gyXVtDSDJdMw==

> <s_epik_cmdline>
J2VwaWtfcHl0aG9uJywgJy1waCcsICc3LjAnLCAnLXRuJywgJzgnLCAnLW1hJywgJzIwMCcsICctbWV0YWxfYmluZGluZycsICctaW1hZScsICc8aW5maWxlLm1hZT4nLCAnLW9tYWUnLCAnPG91dGZpbGUubWFlPic=

> <r_lp_tautomer_probability>
1

> <r_epik_Ionization_Penalty>
0.91661

> <r_epik_Ionization_Penalty_Charging>
0.838844

> <r_epik_Ionization_Penalty_Neutral>
0.0777664

> <r_epik_State_Penalty>
0.927046

> <r_epik_Charging_Adjusted_Penalty>
1.76589

> <i_epik_Tot_Q>
1

> <i_epik_Tot_abs_Q>
1

> <r_epik_Metal_State_Penalty>
0.950555

> <b_epik_Metal_Only>
0

> <s_lp_Force_Field>
OPLS_2005

> <r_lp_Energy>
41.6121

> <b_lp_Chiralities_Consistent>
1

> <s_lp_Variant>
AV-unprocessed.smi:1740-3

> <Gold.Version>
5.8.1

> <Gold.Id.Protein>
6NUR|6NUR_protein|mol2

> <Gold.PLP.Fitness>
45.2446

> <Gold.PLP.PLP>
-32.9064

> <Gold.PLP.part.hbond>
-5.7930

> <Gold.PLP.part.metal>
0.0000

> <Gold.PLP.part.buried>
-4.9677

> <Gold.PLP.part.nonpolar>
-24.6483

> <Gold.PLP.part.repulsive>
0.4879

> <Gold.PLP.ligand.clash>
0.0000

> <Gold.PLP.ligand.torsion>
0.5443

> <Gold.PLP.Chemscore.Hbond>
4.3551

> <Gold.PLP.Chemscore.CHOScore>
0.0000

> <Gold.PLP.Chemscore.Metal>
0.0000

> <Gold.Chemscore.Hbonds>
donor molecule, donor type, donor heavy atom, donor atom, acceptor molecule, acceptor atom, score
      L1  H     1    26       P1 10195  0.93
      L1  H     1    27       P1 10186  0.93
      L1  H     5    52       P1 10186  1.75
      P1  H  6896  6907       L1    17  0.76

> <Gold.PLP.Chemscore.Internal.Correction>
0.3615

> <Gold.Rescore>
     Score         DG    S(hbond)    S(metal)    S(lipo)     H(rot)  DE(clash)    DE(int)     intcor
     14.50     -16.57       2.91        0.00      59.57       2.19       0.11       1.95       ----

> <Gold.Chemscore.Fitness>
14.5040

> <Gold.Chemscore.DG>
-16.5677

> <Gold.Chemscore.ZeroCoef>
-5.4800

> <Gold.Chemscore.Hbond>
2.9143

> <Gold.Chemscore.Metal>
0.0000

> <Gold.Chemscore.Lipo>
59.5747

> <Gold.Chemscore.Internal_Hbond>
0.0000

> <Gold.Chemscore.DEClash>
0.1097

> <Gold.Chemscore.DEInternal>
1.9540

> <Gold.Chemscore.Rot>
2.1939

> <Gold.Chemscore.Internal.Correction>
   9.000000E+99

> <Gold.Chemscore.Hbonds>
donor molecule, donor type, donor heavy atom, donor atom, acceptor molecule, acceptor atom, score
      L1  H     1    26       P1 10195  0.89
      L1  H     1    27       P1 10186  0.89
      L1  H     5    52       P1 10186  0.49
      P1  H  6896  6907       L1    17  0.30

> <Gold.Chemscore.Hbond.Weighted>
-9.7338

> <Gold.Chemscore.Metal.Weighted>
-0.0000

> <Gold.Chemscore.Lipo.Weighted>
-6.9702

> <Gold.Chemscore.Internal_Hbond.Weighted>
0.0000

> <Gold.Chemscore.DEClash.Weighted>
0.1097

> <Gold.Chemscore.DEInternal.Weighted>
1.9540

> <Gold.Chemscore.Rot.Weighted>
5.6163

> <Gold.Chemscore.Internal.Correction.Weighted>
   9.000000E+99

> <Gold.Protein.RotatedTorsions>
[ 6907 6896 6895 6894 ] final  -87.11 input  -60.11 | X-H torsion
[ 7974 7965 7964 7962 ] final  118.56 input  175.53 | X-H torsion
[ 8008 7997 7996 7995 ] final   -2.24 input   59.86 | X-H torsion
[ 10167 10162 10161 10158 ] final   28.79 input  -65.29 | X-H torsion
[ 10718 10713 10712 10709 ] final -117.16 input   66.30 | X-H torsion
[ 10763 10752 10751 10750 ] final -121.50 input  -60.55 | X-H torsion
[ 11005 11000 10999 10996 ] final -177.35 input  -57.11 | X-H torsion

> <Gold.Protein.ActiveResidues>
 VAL166  LYS551  ARG553  GLY616  TRP617  ASP618  TYR619  PRO620  LYS621  CYS622 
 ASP623  PHE694  ASN695  SER759  ASP760  ASP761  ALA762  ILE779  LEU786  VAL792 
 PHE793  MET794  SER795  GLU796  ALA797  LYS798  CYS799  TRP800  GLU811  SER814 

> <Gold.Protein.RotatedAtoms>
  150.6866  134.2946  159.4680 H   0  0  0  0  0  0  0  0  0  0  0  0  # atno 6907 bound_to 6896
  152.0848  134.9444  160.0582 H   0  0  0  0  0  0  0  0  0  0  0  0  # atno 6908 bound_to 6896
  152.0783  133.4105  159.4527 H   0  0  0  0  0  0  0  0  0  0  0  0  # atno 6909 bound_to 6896
  145.1537  139.3195  143.4553 H   0  0  0  0  0  0  0  0  0  0  0  0  # atno 7974 bound_to 7965
  154.6379  140.2539  155.7357 H   0  0  0  0  0  0  0  0  0  0  0  0  # atno 8008 bound_to 7997
  156.2513  140.2893  156.0679 H   0  0  0  0  0  0  0  0  0  0  0  0  # atno 8009 bound_to 7997
  155.1643  140.0385  157.2839 H   0  0  0  0  0  0  0  0  0  0  0  0  # atno 8010 bound_to 7997
  140.4822  144.0598  150.6269 H   0  0  0  0  0  0  0  0  0  0  0  0  # atno 10167 bound_to 10162
  156.1014  130.6175  150.9129 H   0  0  0  0  0  0  0  0  0  0  0  0  # atno 10718 bound_to 10713
  154.8669  135.4165  154.2630 H   0  0  0  0  0  0  0  0  0  0  0  0  # atno 10763 bound_to 10752
  153.3555  135.7001  153.6760 H   0  0  0  0  0  0  0  0  0  0  0  0  # atno 10764 bound_to 10752
  153.5682  135.3596  155.2799 H   0  0  0  0  0  0  0  0  0  0  0  0  # atno 10765 bound_to 10752
  140.4419  134.6424  157.4761 H   0  0  0  0  0  0  0  0  0  0  0  0  # atno 11005 bound_to 11000
  146.3491  140.1621  142.8590 LP  0  0  0  0  0  0  0  0  0  0  0  0  # atno 17320 bound_to 7965
  145.0404  140.8941  143.5056 LP  0  0  0  0  0  0  0  0  0  0  0  0  # atno 17321 bound_to 7965
  140.3843  143.2786  152.0134 LP  0  0  0  0  0  0  0  0  0  0  0  0  # atno 17342 bound_to 10162
  139.4835  144.6129  151.7400 LP  0  0  0  0  0  0  0  0  0  0  0  0  # atno 17343 bound_to 10162
  157.6185  131.0931  150.8666 LP  0  0  0  0  0  0  0  0  0  0  0  0  # atno 17370 bound_to 10713
  156.8794  130.5174  149.5292 LP  0  0  0  0  0  0  0  0  0  0  0  0  # atno 17371 bound_to 10713
  140.0064  134.6757  155.9448 LP  0  0  0  0  0  0  0  0  0  0  0  0  # atno 17394 bound_to 11000
  141.1702  133.6537  156.4624 LP  0  0  0  0  0  0  0  0  0  0  0  0  # atno 17395 bound_to 11000

$$$$
