AV-unprocessed.smi:1593|AV-procd|sdf|6410|dock2
  -GOLD-   22720 7 43D 1   1.00000     0.00000
 Structure written by MMmdl.
 37 38  0  0  0  0  0  0  0  0  2 V2000
  153.0570  142.1822  161.1115 C   0  0  0  0  0  0  0  0  0  0  0  0
  152.3841  142.6605  159.8709 C   0  0  0  0  0  0  0  0  0  0  0  0
  151.4728  142.0903  159.0272 C   0  0  0  0  0  0  0  0  0  0  0  0
  151.2645  143.1012  158.0517 C   0  0  0  0  0  0  0  0  0  0  0  0
  150.3652  142.8988  156.9739 N   0  0  0  0  0  0  0  0  0  0  0  0
  150.0677  141.7381  156.3652 C   0  0  0  0  0  0  0  0  0  0  0  0
  150.5347  140.6387  156.6643 O   0  0  0  0  0  0  0  0  0  0  0  0
  149.1871  141.9177  155.3700 N   0  0  0  0  0  0  0  0  0  0  0  0
  148.6602  140.8515  154.5259 C   0  0  0  0  0  0  0  0  0  0  0  0
  147.3065  141.2403  153.9004 C   0  0  0  0  0  0  0  0  0  0  0  0
  146.4306  140.0645  153.6724 N   0  3  0  0  0  0  0  0  0  0  0  0
  147.0593  139.0578  152.7840 C   0  0  0  0  0  0  0  0  0  0  0  0
  146.1018  137.8794  152.5388 C   0  0  0  0  0  0  0  0  0  0  0  0
  145.7242  137.3042  153.7830 O   0  0  0  0  0  0  0  0  0  0  0  0
  145.0386  138.2343  154.6119 C   0  0  0  0  0  0  0  0  0  0  0  0
  145.9610  139.4242  154.9267 C   0  0  0  0  0  0  0  0  0  0  0  0
  151.9836  144.1897  158.2789 N   0  0  0  0  0  0  0  0  0  0  0  0
  152.7051  143.9127  159.4461 O   0  0  0  0  0  0  0  0  0  0  0  0
  152.7424  141.1685  161.3602 H   0  0  0  0  0  0  0  0  0  0  0  0
  152.8143  142.8281  161.9553 H   0  0  0  0  0  0  0  0  0  0  0  0
  154.1400  142.1797  160.9868 H   0  0  0  0  0  0  0  0  0  0  0  0
  151.0286  141.1086  159.0995 H   0  0  0  0  0  0  0  0  0  0  0  0
  149.9050  143.7273  156.6270 H   0  0  0  0  0  0  0  0  0  0  0  0
  148.8518  142.8532  155.1903 H   0  0  0  0  0  0  0  0  0  0  0  0
  149.3982  140.6055  153.7620 H   0  0  0  0  0  0  0  0  0  0  0  0
  148.5422  139.9595  155.1415 H   0  0  0  0  0  0  0  0  0  0  0  0
  146.8067  141.9316  154.5809 H   0  0  0  0  0  0  0  0  0  0  0  0
  147.4439  141.7792  152.9618 H   0  0  0  0  0  0  0  0  0  0  0  0
  147.3238  139.5172  151.8309 H   0  0  0  0  0  0  0  0  0  0  0  0
  147.9854  138.6989  153.2361 H   0  0  0  0  0  0  0  0  0  0  0  0
  145.2165  138.2036  151.9892 H   0  0  0  0  0  0  0  0  0  0  0  0
  146.5921  137.1182  151.9319 H   0  0  0  0  0  0  0  0  0  0  0  0
  144.1222  138.5694  154.1232 H   0  0  0  0  0  0  0  0  0  0  0  0
  144.7425  137.7341  155.5343 H   0  0  0  0  0  0  0  0  0  0  0  0
  146.8192  139.0838  155.5084 H   0  0  0  0  0  0  0  0  0  0  0  0
  145.4219  140.1411  155.5451 H   0  0  0  0  0  0  0  0  0  0  0  0
  145.6125  140.4011  153.1849 H   0  0  0  0  0  0  0  0  0  0  0  0
  1  2  1  0  0  0  0
  1 19  1  0  0  0  0
  1 20  1  0  0  0  0
  1 21  1  0  0  0  0
  2 18  1  0  0  0  0
  2  3  2  0  0  0  0
  3  4  1  0  0  0  0
  3 22  1  0  0  0  0
  4  5  1  0  0  0  0
  4 17  2  0  0  0  0
  5  6  1  0  0  0  0
  5 23  1  0  0  0  0
  6  7  2  0  0  0  0
  6  8  1  0  0  0  0
  8  9  1  0  0  0  0
  8 24  1  0  0  0  0
  9 10  1  0  0  0  0
  9 25  1  0  0  0  0
  9 26  1  0  0  0  0
 10 11  1  0  0  0  0
 10 27  1  0  0  0  0
 10 28  1  0  0  0  0
 11 16  1  0  0  0  0
 11 12  1  0  0  0  0
 11 37  1  0  0  0  0
 12 13  1  0  0  0  0
 12 29  1  0  0  0  0
 12 30  1  0  0  0  0
 13 14  1  0  0  0  0
 13 31  1  0  0  0  0
 13 32  1  0  0  0  0
 14 15  1  0  0  0  0
 15 16  1  0  0  0  0
 15 33  1  0  0  0  0
 15 34  1  0  0  0  0
 16 35  1  0  0  0  0
 16 36  1  0  0  0  0
 17 18  1  0  0  0  0
M  CHG  1  11   1
M  END
> <s_m_source_file>
AV-unprocessed.smi

> <i_m_source_file_index>
1593

> <i_lp_mmshare_version>
43012

> <i_f3d_flags>
0

> <s_epik_input>
W0NIM11jMVtjSF1jKG5vMSlbTkhdQyg9TylbTkhdW0NIMl1bQ0gyXU4yW0NIMl1bQ0gyXU9bQ0gyXVtDSDJdMg==

> <s_epik_cmdline>
J2VwaWtfcHl0aG9uJywgJy1waCcsICc3LjAnLCAnLXRuJywgJzgnLCAnLW1hJywgJzIwMCcsICctbWV0YWxfYmluZGluZycsICctaW1hZScsICc8aW5maWxlLm1hZT4nLCAnLW9tYWUnLCAnPG91dGZpbGUubWFlPic=

> <r_epik_Ionization_Penalty>
0.707076

> <r_epik_Ionization_Penalty_Charging>
0.707039

> <r_epik_Ionization_Penalty_Neutral>
3.67886e-05

> <r_epik_State_Penalty>
0.730276

> <r_epik_Charging_Adjusted_Penalty>
1.43732

> <i_epik_Tot_Q>
1

> <i_epik_Tot_abs_Q>
1

> <r_epik_Metal_State_Penalty>
0.743216

> <b_epik_Metal_Only>
0

> <s_lp_Force_Field>
OPLS_2005

> <r_lp_Energy>
12.0314

> <b_lp_Chiralities_Consistent>
1

> <s_lp_Variant>
AV-unprocessed.smi:1593-2

> <Gold.Version>
5.8.1

> <Gold.Id.Protein>
6NUR|6NUR_protein|mol2

> <Gold.PLP.Fitness>
44.4043

> <Gold.PLP.PLP>
-33.6037

> <Gold.PLP.part.hbond>
-3.0000

> <Gold.PLP.part.metal>
0.0000

> <Gold.PLP.part.buried>
-4.2117

> <Gold.PLP.part.nonpolar>
-27.2594

> <Gold.PLP.part.repulsive>
0.5208

> <Gold.PLP.ligand.clash>
0.0000

> <Gold.PLP.ligand.torsion>
0.5696

> <Gold.PLP.Chemscore.Hbond>
3.9760

> <Gold.PLP.Chemscore.CHOScore>
0.0000

> <Gold.PLP.Chemscore.Metal>
0.0000

> <Gold.Chemscore.Hbonds>
donor molecule, donor type, donor heavy atom, donor atom, acceptor molecule, acceptor atom, score
      L1  H     5    23       P1  8028  1.00
      L1  H     8    24       P1  8028  0.99
      L1  H    11    37       P1 10175  1.89

> <Gold.PLP.Chemscore.Internal.Correction>
0.0117

> <Gold.Rescore>
     Score         DG    S(hbond)    S(metal)    S(lipo)     H(rot)  DE(clash)    DE(int)     intcor
     16.39     -18.25       2.92        0.00      61.92       1.65       0.00       1.86       ----

> <Gold.Chemscore.Fitness>
16.3936

> <Gold.Chemscore.DG>
-18.2541

> <Gold.Chemscore.ZeroCoef>
-5.4800

> <Gold.Chemscore.Hbond>
2.9216

> <Gold.Chemscore.Metal>
0.0000

> <Gold.Chemscore.Lipo>
61.9159

> <Gold.Chemscore.Internal_Hbond>
0.0000

> <Gold.Chemscore.DEClash>
0.0000

> <Gold.Chemscore.DEInternal>
1.8605

> <Gold.Chemscore.Rot>
1.6516

> <Gold.Chemscore.Internal.Correction>
   9.000000E+99

> <Gold.Chemscore.Hbonds>
donor molecule, donor type, donor heavy atom, donor atom, acceptor molecule, acceptor atom, score
      L1  H     5    23       P1  8028  1.00
      L1  H     8    24       P1  8028  0.93
      L1  H    11    37       P1 10175  0.86

> <Gold.Chemscore.Hbond.Weighted>
-9.7580

> <Gold.Chemscore.Metal.Weighted>
-0.0000

> <Gold.Chemscore.Lipo.Weighted>
-7.2442

> <Gold.Chemscore.Internal_Hbond.Weighted>
0.0000

> <Gold.Chemscore.DEClash.Weighted>
0.0000

> <Gold.Chemscore.DEInternal.Weighted>
1.8605

> <Gold.Chemscore.Rot.Weighted>
4.2281

> <Gold.Chemscore.Internal.Correction.Weighted>
   9.000000E+99

> <Gold.Protein.RotatedTorsions>
[ 6907 6896 6895 6894 ] final  119.93 input  -60.11 | X-H torsion
[ 7974 7965 7964 7962 ] final  163.73 input  175.53 | X-H torsion
[ 8008 7997 7996 7995 ] final  -62.13 input   59.86 | X-H torsion
[ 10167 10162 10161 10158 ] final -109.82 input  -65.29 | X-H torsion
[ 10718 10713 10712 10709 ] final  -67.59 input   66.30 | X-H torsion
[ 10763 10752 10751 10750 ] final   63.75 input  -60.55 | X-H torsion
[ 11005 11000 10999 10996 ] final    3.51 input  -57.11 | X-H torsion

> <Gold.Protein.ActiveResidues>
 VAL166  LYS551  ARG553  GLY616  TRP617  ASP618  TYR619  PRO620  LYS621  CYS622 
 ASP623  PHE694  ASN695  SER759  ASP760  ASP761  ALA762  ILE779  LEU786  VAL792 
 PHE793  MET794  SER795  GLU796  ALA797  LYS798  CYS799  TRP800  GLU811  SER814 

> <Gold.Protein.RotatedAtoms>
  152.4435  133.7493  159.6684 H   0  0  0  0  0  0  0  0  0  0  0  0  # atno 6907 bound_to 6896
  150.8331  133.8048  159.3097 H   0  0  0  0  0  0  0  0  0  0  0  0  # atno 6908 bound_to 6896
  151.5696  135.1065  160.0044 H   0  0  0  0  0  0  0  0  0  0  0  0  # atno 6909 bound_to 6896
  144.7576  139.8225  143.6344 H   0  0  0  0  0  0  0  0  0  0  0  0  # atno 7974 bound_to 7965
  154.4484  140.1002  156.6540 H   0  0  0  0  0  0  0  0  0  0  0  0  # atno 8008 bound_to 7997
  155.5367  140.3482  155.4419 H   0  0  0  0  0  0  0  0  0  0  0  0  # atno 8009 bound_to 7997
  156.0626  140.1330  156.9912 H   0  0  0  0  0  0  0  0  0  0  0  0  # atno 8010 bound_to 7997
  140.1512  143.4197  152.1493 H   0  0  0  0  0  0  0  0  0  0  0  0  # atno 10167 bound_to 10162
  156.0550  130.4280  150.1876 H   0  0  0  0  0  0  0  0  0  0  0  0  # atno 10718 bound_to 10713
  153.0029  135.5418  154.6402 H   0  0  0  0  0  0  0  0  0  0  0  0  # atno 10763 bound_to 10752
  154.5659  135.2837  155.0877 H   0  0  0  0  0  0  0  0  0  0  0  0  # atno 10764 bound_to 10752
  154.2061  135.6475  153.5154 H   0  0  0  0  0  0  0  0  0  0  0  0  # atno 10765 bound_to 10752
  140.5924  133.9912  155.8094 H   0  0  0  0  0  0  0  0  0  0  0  0  # atno 11005 bound_to 11000
  146.1604  139.4717  142.9991 LP  0  0  0  0  0  0  0  0  0  0  0  0  # atno 17320 bound_to 7965
  145.6726  141.0212  143.1649 LP  0  0  0  0  0  0  0  0  0  0  0  0  # atno 17321 bound_to 7965
  139.5425  144.7269  151.4688 LP  0  0  0  0  0  0  0  0  0  0  0  0  # atno 17342 bound_to 10162
  140.6701  143.8312  150.6989 LP  0  0  0  0  0  0  0  0  0  0  0  0  # atno 17343 bound_to 10162
  156.9954  130.9906  151.3404 LP  0  0  0  0  0  0  0  0  0  0  0  0  # atno 17370 bound_to 10713
  157.5511  130.8183  149.8146 LP  0  0  0  0  0  0  0  0  0  0  0  0  # atno 17371 bound_to 10713
  141.0926  133.9892  157.3212 LP  0  0  0  0  0  0  0  0  0  0  0  0  # atno 17394 bound_to 11000
  139.9268  135.0201  156.8263 LP  0  0  0  0  0  0  0  0  0  0  0  0  # atno 17395 bound_to 11000

$$$$
