AV-unprocessed.smi:2021|AV-procd|sdf|8184|dock7
  -GOLD-   2272010433D 1   1.00000     0.00000
 Structure written by MMmdl.
 41 42  0  0  0  0  0  0  0  0  3 V2000
  143.8071  132.6520  150.1868 C   0  0  0  0  0  0  0  0  0  0  0  0
  144.8541  133.3862  151.0412 C   0  0  0  0  0  0  0  0  0  0  0  0
  144.5954  134.9001  151.0207 C   0  0  0  0  0  0  0  0  0  0  0  0
  146.2946  133.0774  150.5789 C   0  0  0  0  0  0  0  0  0  0  0  0
  147.1289  132.4543  151.6381 N   0  3  2  0  0  0  0  0  0  0  0  0
  146.5091  131.2587  152.2612 C   0  0  0  0  0  0  0  0  0  0  0  0
  147.4485  130.6584  153.3200 C   0  0  0  0  0  0  0  0  0  0  0  0
  147.7702  131.6487  154.2876 O   0  0  0  0  0  0  0  0  0  0  0  0
  148.4579  132.7582  153.7176 C   0  0  2  0  0  0  0  0  0  0  0  0
  148.8425  133.7264  154.8439 C   0  0  0  0  0  0  0  0  0  0  0  0
  149.8090  134.7082  154.3721 N   0  0  0  0  0  0  0  0  0  0  0  0
  150.7224  135.3155  155.1395 C   0  0  0  0  0  0  0  0  0  0  0  0
  150.7893  135.0473  156.3413 O   0  0  0  0  0  0  0  0  0  0  0  0
  151.4997  136.1942  154.4677 N   0  5  0  0  0  0  0  0  0  0  0  0
  151.2568  137.5122  154.5626 C   0  0  0  0  0  0  0  0  0  0  0  0
  152.2399  138.4268  154.5482 N   0  0  0  0  0  0  0  0  0  0  0  0
  151.7747  139.7303  154.6576 N   0  0  0  0  0  0  0  0  0  0  0  0
  150.4463  139.7648  154.7614 C   0  0  0  0  0  0  0  0  0  0  0  0
  149.6434  138.2088  154.7393 S   0  0  0  0  0  0  0  0  0  0  0  0
  147.5349  133.4265  152.6805 C   0  0  0  0  0  0  0  0  0  0  0  0
  143.8833  132.9345  149.1363 H   0  0  0  0  0  0  0  0  0  0  0  0
  142.7956  132.8867  150.5199 H   0  0  0  0  0  0  0  0  0  0  0  0
  143.9256  131.5700  150.2508 H   0  0  0  0  0  0  0  0  0  0  0  0
  144.7319  133.0624  152.0745 H   0  0  0  0  0  0  0  0  0  0  0  0
  144.6851  135.3053  150.0121 H   0  0  0  0  0  0  0  0  0  0  0  0
  145.3057  135.4299  151.6563 H   0  0  0  0  0  0  0  0  0  0  0  0
  143.5943  135.1340  151.3847 H   0  0  0  0  0  0  0  0  0  0  0  0
  146.2399  132.4052  149.7208 H   0  0  0  0  0  0  0  0  0  0  0  0
  146.7874  133.9833  150.2222 H   0  0  0  0  0  0  0  0  0  0  0  0
  145.5599  131.5359  152.7226 H   0  0  0  0  0  0  0  0  0  0  0  0
  146.2899  130.5027  151.5083 H   0  0  0  0  0  0  0  0  0  0  0  0
  146.9631  129.8205  153.8208 H   0  0  0  0  0  0  0  0  0  0  0  0
  148.3590  130.2706  152.8602 H   0  0  0  0  0  0  0  0  0  0  0  0
  149.3672  132.4098  153.2232 H   0  0  0  0  0  0  0  0  0  0  0  0
  147.9538  134.2497  155.2007 H   0  0  0  0  0  0  0  0  0  0  0  0
  149.2579  133.1797  155.6919 H   0  0  0  0  0  0  0  0  0  0  0  0
  149.7867  134.9480  153.3917 H   0  0  0  0  0  0  0  0  0  0  0  0
  149.9364  140.7119  154.8546 H   0  0  0  0  0  0  0  0  0  0  0  0
  148.0556  134.2651  152.2161 H   0  0  0  0  0  0  0  0  0  0  0  0
  146.6464  133.8307  153.1687 H   0  0  0  0  0  0  0  0  0  0  0  0
  147.9815  132.1486  151.1910 H   0  0  0  0  0  0  0  0  0  0  0  0
  1  2  1  0  0  0  0
  1 21  1  0  0  0  0
  1 22  1  0  0  0  0
  1 23  1  0  0  0  0
  2  3  1  0  0  0  0
  2  4  1  0  0  0  0
  2 24  1  0  0  0  0
  3 25  1  0  0  0  0
  3 26  1  0  0  0  0
  3 27  1  0  0  0  0
  4  5  1  0  0  0  0
  4 28  1  0  0  0  0
  4 29  1  0  0  0  0
  5 20  1  0  0  0  0
  5  6  1  0  0  0  0
  5 41  1  0  0  0  0
  6  7  1  0  0  0  0
  6 30  1  0  0  0  0
  6 31  1  0  0  0  0
  7  8  1  0  0  0  0
  7 32  1  0  0  0  0
  7 33  1  0  0  0  0
  8  9  1  0  0  0  0
  9 10  1  0  0  0  0
  9 20  1  0  0  0  0
  9 34  1  0  0  0  0
 10 11  1  0  0  0  0
 10 35  1  0  0  0  0
 10 36  1  0  0  0  0
 11 12  1  0  0  0  0
 11 37  1  0  0  0  0
 12 13  2  0  0  0  0
 12 14  1  0  0  0  0
 14 15  1  0  0  0  0
 15 19  1  0  0  0  0
 15 16  2  0  0  0  0
 16 17  1  0  0  0  0
 17 18  2  0  0  0  0
 18 19  1  0  0  0  0
 18 38  1  0  0  0  0
 20 39  1  0  0  0  0
 20 40  1  0  0  0  0
M  CHG  1   5   1
M  CHG  1  14  -1
M  END
> <s_m_source_file>
AV-unprocessed.smi

> <i_m_source_file_index>
2021

> <i_lp_mmshare_version>
43012

> <i_f3d_flags>
0

> <s_epik_input>
W0NIM11bQ0hdKFtDSDNdKVtDSDJdTjFbQ0gyXVtDSDJdT1tDQEhdKFtDSDJdMSlbQ0gyXVtOSF1DKD1PKVtOSF1jMm5uW2NIXXMy

> <s_epik_cmdline>
J2VwaWtfcHl0aG9uJywgJy1waCcsICc3LjAnLCAnLXRuJywgJzgnLCAnLW1hJywgJzIwMCcsICctbWV0YWxfYmluZGluZycsICctaW1hZScsICc8aW5maWxlLm1hZT4nLCAnLW9tYWUnLCAnPG91dGZpbGUubWFlPic=

> <r_lp_tautomer_probability>
1

> <r_epik_Ionization_Penalty>
3.15762

> <r_epik_Ionization_Penalty_Charging>
3.12229

> <r_epik_Ionization_Penalty_Neutral>
0.0353298

> <r_epik_State_Penalty>
3.11266

> <r_epik_Charging_Adjusted_Penalty>
6.23495

> <i_epik_Tot_Q>
0

> <i_epik_Tot_abs_Q>
2

> <r_epik_Metal_State_Penalty>
0.541462

> <b_epik_Metal_Only>
1

> <s_lp_Force_Field>
OPLS_2005

> <r_lp_Energy>
10.6965

> <b_lp_Chiralities_Consistent>
1

> <s_lp_Variant>
AV-unprocessed.smi:2021-10

> <Gold.Version>
5.8.1

> <Gold.Id.Protein>
6NUR|6NUR_protein|mol2

> <Gold.PLP.Fitness>
44.6565

> <Gold.PLP.PLP>
-35.4595

> <Gold.PLP.part.hbond>
-4.0000

> <Gold.PLP.part.metal>
0.0000

> <Gold.PLP.part.buried>
-6.7182

> <Gold.PLP.part.nonpolar>
-26.8953

> <Gold.PLP.part.repulsive>
1.0722

> <Gold.PLP.ligand.clash>
0.0000

> <Gold.PLP.ligand.torsion>
2.0409

> <Gold.PLP.Chemscore.Hbond>
4.3900

> <Gold.PLP.Chemscore.CHOScore>
0.0000

> <Gold.PLP.Chemscore.Metal>
0.0000

> <Gold.Chemscore.Hbonds>
donor molecule, donor type, donor heavy atom, donor atom, acceptor molecule, acceptor atom, score
      L1  H     5    41       P1 10747  1.00
      L1  H    11    37       P1  7948  0.12
      P1  H  7989  7998       L1    17  0.40
      P1  H 10752 10763       L1    14  1.98

> <Gold.PLP.Chemscore.Internal.Correction>
0.1089

> <Gold.Rescore>
     Score         DG    S(hbond)    S(metal)    S(lipo)     H(rot)  DE(clash)    DE(int)     intcor
     16.51     -18.53       2.89        0.00      69.52       1.85       0.06       1.96       ----

> <Gold.Chemscore.Fitness>
16.5064

> <Gold.Chemscore.DG>
-18.5258

> <Gold.Chemscore.ZeroCoef>
-5.4800

> <Gold.Chemscore.Hbond>
2.8859

> <Gold.Chemscore.Metal>
0.0000

> <Gold.Chemscore.Lipo>
69.5219

> <Gold.Chemscore.Internal_Hbond>
0.0000

> <Gold.Chemscore.DEClash>
0.0630

> <Gold.Chemscore.DEInternal>
1.9564

> <Gold.Chemscore.Rot>
1.8466

> <Gold.Chemscore.Internal.Correction>
   9.000000E+99

> <Gold.Chemscore.Hbonds>
donor molecule, donor type, donor heavy atom, donor atom, acceptor molecule, acceptor atom, score
      L1  H     5    41       P1 10747  0.96
      P1  H  7989  7998       L1    17  0.01
      P1  H 10752 10763       L1    14  0.60

> <Gold.Chemscore.Hbond.Weighted>
-9.6390

> <Gold.Chemscore.Metal.Weighted>
-0.0000

> <Gold.Chemscore.Lipo.Weighted>
-8.1341

> <Gold.Chemscore.Internal_Hbond.Weighted>
0.0000

> <Gold.Chemscore.DEClash.Weighted>
0.0630

> <Gold.Chemscore.DEInternal.Weighted>
1.9564

> <Gold.Chemscore.Rot.Weighted>
4.7272

> <Gold.Chemscore.Internal.Correction.Weighted>
   9.000000E+99

> <Gold.Protein.RotatedTorsions>
[ 6907 6896 6895 6894 ] final -136.85 input  -60.11 | X-H torsion
[ 7974 7965 7964 7962 ] final  179.55 input  175.53 | X-H torsion
[ 8008 7997 7996 7995 ] final   78.82 input   59.86 | X-H torsion
[ 10167 10162 10161 10158 ] final  108.53 input  -65.29 | X-H torsion
[ 10718 10713 10712 10709 ] final  -27.98 input   66.30 | X-H torsion
[ 10763 10752 10751 10750 ] final   49.00 input  -60.55 | X-H torsion
[ 11005 11000 10999 10996 ] final  -64.72 input  -57.11 | X-H torsion

> <Gold.Protein.ActiveResidues>
 VAL166  LYS551  ARG553  GLY616  TRP617  ASP618  TYR619  PRO620  LYS621  CYS622 
 ASP623  PHE694  ASN695  SER759  ASP760  ASP761  ALA762  ILE779  LEU786  VAL792 
 PHE793  MET794  SER795  GLU796  ALA797  LYS798  CYS799  TRP800  GLU811  SER814 

> <Gold.Protein.RotatedAtoms>
  151.0152  133.5928  159.2677 H   0  0  0  0  0  0  0  0  0  0  0  0  # atno 6907 bound_to 6896
  151.3065  135.0782  159.9267 H   0  0  0  0  0  0  0  0  0  0  0  0  # atno 6908 bound_to 6896
  152.5309  133.9824  159.7867 H   0  0  0  0  0  0  0  0  0  0  0  0  # atno 6909 bound_to 6896
  144.7144  140.0566  143.6434 H   0  0  0  0  0  0  0  0  0  0  0  0  # atno 7974 bound_to 7965
  155.8610  140.3453  155.5756 H   0  0  0  0  0  0  0  0  0  0  0  0  # atno 8008 bound_to 7997
  155.7933  140.0875  157.2016 H   0  0  0  0  0  0  0  0  0  0  0  0  # atno 8009 bound_to 7997
  154.4012  140.1479  156.3176 H   0  0  0  0  0  0  0  0  0  0  0  0  # atno 8010 bound_to 7997
  139.6838  144.7115  151.1468 H   0  0  0  0  0  0  0  0  0  0  0  0  # atno 10167 bound_to 10162
  156.4311  130.4445  149.7117 H   0  0  0  0  0  0  0  0  0  0  0  0  # atno 10718 bound_to 10713
  152.9789  135.5926  154.4018 H   0  0  0  0  0  0  0  0  0  0  0  0  # atno 10763 bound_to 10752
  154.3662  135.2767  155.2294 H   0  0  0  0  0  0  0  0  0  0  0  0  # atno 10764 bound_to 10752
  154.4269  135.6045  153.6099 H   0  0  0  0  0  0  0  0  0  0  0  0  # atno 10765 bound_to 10752
  141.1433  133.6670  156.5876 H   0  0  0  0  0  0  0  0  0  0  0  0  # atno 11005 bound_to 11000
  145.9900  139.3007  143.0991 LP  0  0  0  0  0  0  0  0  0  0  0  0  # atno 17320 bound_to 7965
  145.8914  140.9301  143.0550 LP  0  0  0  0  0  0  0  0  0  0  0  0  # atno 17321 bound_to 7965
  140.7661  143.5659  150.9048 LP  0  0  0  0  0  0  0  0  0  0  0  0  # atno 17342 bound_to 10162
  139.9332  143.6468  152.3071 LP  0  0  0  0  0  0  0  0  0  0  0  0  # atno 17343 bound_to 10162
  156.4019  130.7679  151.2687 LP  0  0  0  0  0  0  0  0  0  0  0  0  # atno 17370 bound_to 10713
  157.7508  131.0237  150.3846 LP  0  0  0  0  0  0  0  0  0  0  0  0  # atno 17371 bound_to 10713
  140.3788  134.7541  157.4647 LP  0  0  0  0  0  0  0  0  0  0  0  0  # atno 17394 bound_to 11000
  140.0653  134.5938  155.8702 LP  0  0  0  0  0  0  0  0  0  0  0  0  # atno 17395 bound_to 11000

$$$$
