AV-unprocessed.smi:1557|AV-procd|sdf|6270|dock10
  -GOLD-   22720 6463D 1   1.00000     0.00000
 Structure written by MMmdl.
 41 42  0  0  0  0  0  0  0  0  1 V2000
  152.0547  138.0607  154.4424 C   0  0  0  0  0  0  0  0  0  0  0  0
  150.9703  139.1017  154.7301 C   0  0  0  0  0  0  0  0  0  0  0  0
  149.7501  138.6624  154.1418 O   0  0  0  0  0  0  0  0  0  0  0  0
  148.6422  139.4850  154.2155 C   0  0  0  0  0  0  0  0  0  0  0  0
  148.7906  140.7250  154.7459 N   0  0  0  0  0  0  0  0  0  0  0  0
  147.7074  141.5254  154.8208 C   0  0  0  0  0  0  0  0  0  0  0  0
  146.4286  141.1349  154.3825 C   0  0  0  0  0  0  0  0  0  0  0  0
  146.2723  139.8494  153.8316 C   0  0  0  0  0  0  0  0  0  0  0  0
  147.4035  139.0040  153.7318 C   0  0  0  0  0  0  0  0  0  0  0  0
  147.3531  137.6829  153.2095 N   0  0  0  0  0  0  0  0  0  0  0  0
  146.2876  136.8737  153.0908 C   0  0  0  0  0  0  0  0  0  0  0  0
  145.1421  137.1459  153.4505 O   0  0  0  0  0  0  0  0  0  0  0  0
  146.6238  135.7178  152.4991 N   0  0  0  0  0  0  0  0  0  0  0  0
  145.6944  134.6446  152.1428 C   0  0  2  0  0  0  0  0  0  0  0  0
  146.5220  133.4574  151.5890 C   0  0  0  0  0  0  0  0  0  0  0  0
  145.7414  132.3891  150.7910 C   0  0  0  0  0  0  0  0  0  0  0  0
  144.3956  131.9608  151.4112 C   0  0  0  0  0  0  0  0  0  0  0  0
  143.3189  133.0658  151.5710 C   0  0  0  0  0  0  0  0  0  0  0  0
  143.6065  134.3139  150.8636 N   0  0  0  0  0  0  0  0  0  0  0  0
  144.6695  135.1062  151.0823 C   0  0  0  0  0  0  0  0  0  0  0  0
  144.8377  136.1444  150.4433 O   0  0  0  0  0  0  0  0  0  0  0  0
  153.0078  138.3604  154.8785 H   0  0  0  0  0  0  0  0  0  0  0  0
  152.2024  137.9356  153.3695 H   0  0  0  0  0  0  0  0  0  0  0  0
  151.7860  137.0900  154.8598 H   0  0  0  0  0  0  0  0  0  0  0  0
  150.8534  139.2189  155.8087 H   0  0  0  0  0  0  0  0  0  0  0  0
  151.2687  140.0653  154.3143 H   0  0  0  0  0  0  0  0  0  0  0  0
  147.8635  142.5043  155.2493 H   0  0  0  0  0  0  0  0  0  0  0  0
  145.5857  141.8040  154.4709 H   0  0  0  0  0  0  0  0  0  0  0  0
  145.2915  139.5329  153.5119 H   0  0  0  0  0  0  0  0  0  0  0  0
  148.2096  137.3533  152.7886 H   0  0  0  0  0  0  0  0  0  0  0  0
  147.5882  135.5859  152.2325 H   0  0  0  0  0  0  0  0  0  0  0  0
  145.1678  134.3299  153.0449 H   0  0  0  0  0  0  0  0  0  0  0  0
  147.3252  133.8292  150.9505 H   0  0  0  0  0  0  0  0  0  0  0  0
  147.0188  132.9708  152.4295 H   0  0  0  0  0  0  0  0  0  0  0  0
  145.5701  132.7449  149.7740 H   0  0  0  0  0  0  0  0  0  0  0  0
  146.3753  131.5091  150.6772 H   0  0  0  0  0  0  0  0  0  0  0  0
  143.9801  131.1704  150.7852 H   0  0  0  0  0  0  0  0  0  0  0  0
  144.5752  131.4954  152.3813 H   0  0  0  0  0  0  0  0  0  0  0  0
  142.3586  132.6904  151.2167 H   0  0  0  0  0  0  0  0  0  0  0  0
  143.1688  133.2897  152.6280 H   0  0  0  0  0  0  0  0  0  0  0  0
  142.9419  134.6032  150.1606 H   0  0  0  0  0  0  0  0  0  0  0  0
  1  2  1  0  0  0  0
  1 22  1  0  0  0  0
  1 23  1  0  0  0  0
  1 24  1  0  0  0  0
  2  3  1  0  0  0  0
  2 25  1  0  0  0  0
  2 26  1  0  0  0  0
  3  4  1  0  0  0  0
  4  9  1  0  0  0  0
  4  5  2  0  0  0  0
  5  6  1  0  0  0  0
  6  7  2  0  0  0  0
  6 27  1  0  0  0  0
  7  8  1  0  0  0  0
  7 28  1  0  0  0  0
  8  9  2  0  0  0  0
  8 29  1  0  0  0  0
  9 10  1  0  0  0  0
 10 11  1  0  0  0  0
 10 30  1  0  0  0  0
 11 12  2  0  0  0  0
 11 13  1  0  0  0  0
 13 14  1  0  0  0  0
 13 31  1  0  0  0  0
 14 20  1  0  0  0  0
 14 15  1  0  0  0  0
 14 32  1  0  0  0  0
 15 16  1  0  0  0  0
 15 33  1  0  0  0  0
 15 34  1  0  0  0  0
 16 17  1  0  0  0  0
 16 35  1  0  0  0  0
 16 36  1  0  0  0  0
 17 18  1  0  0  0  0
 17 37  1  0  0  0  0
 17 38  1  0  0  0  0
 18 19  1  0  0  0  0
 18 39  1  0  0  0  0
 18 40  1  0  0  0  0
 19 20  1  0  0  0  0
 19 41  1  0  0  0  0
 20 21  2  0  0  0  0
M  END
> <s_m_source_file>
AV-unprocessed.smi

> <i_m_source_file_index>
1557

> <i_lp_mmshare_version>
43012

> <i_f3d_flags>
0

> <s_epik_input>
W0NIM11bQ0gyXU9jMW5bY0hdW2NIXVtjSF1jMVtOSF1DKD1PKVtOSF1bQ0BASF0yW0NIMl1bQ0gyXVtDSDJdW0NIMl1bTkhdQzI9Tw==

> <s_epik_cmdline>
J2VwaWtfcHl0aG9uJywgJy1waCcsICc3LjAnLCAnLXRuJywgJzgnLCAnLW1hJywgJzIwMCcsICctbWV0YWxfYmluZGluZycsICctaW1hZScsICc8aW5maWxlLm1hZT4nLCAnLW9tYWUnLCAnPG91dGZpbGUubWFlPic=

> <r_lp_tautomer_probability>
1

> <r_epik_Ionization_Penalty>
0.000101084

> <r_epik_Ionization_Penalty_Charging>
0

> <r_epik_Ionization_Penalty_Neutral>
0.000101084

> <r_epik_State_Penalty>
-0

> <r_epik_Charging_Adjusted_Penalty>
0

> <i_epik_Tot_Q>
0

> <i_epik_Tot_abs_Q>
0

> <r_epik_Metal_State_Penalty>
-0

> <b_epik_Metal_Only>
0

> <s_lp_Force_Field>
OPLS_2005

> <r_lp_Energy>
17.7694

> <b_lp_Chiralities_Consistent>
1

> <s_lp_Variant>
AV-unprocessed.smi:1557-1

> <Gold.Version>
5.8.1

> <Gold.Id.Protein>
6NUR|6NUR_protein|mol2

> <Gold.PLP.Fitness>
40.0000

> <Gold.PLP.PLP>
-28.7339

> <Gold.PLP.part.hbond>
-2.6985

> <Gold.PLP.part.metal>
0.0000

> <Gold.PLP.part.buried>
-4.0502

> <Gold.PLP.part.nonpolar>
-27.1177

> <Gold.PLP.part.repulsive>
3.5579

> <Gold.PLP.ligand.clash>
0.0000

> <Gold.PLP.ligand.torsion>
0.1524

> <Gold.PLP.Chemscore.Hbond>
2.8552

> <Gold.PLP.Chemscore.CHOScore>
1.0000

> <Gold.PLP.Chemscore.Metal>
0.0000

> <Gold.Chemscore.Hbonds>
donor molecule, donor type, donor heavy atom, donor atom, acceptor molecule, acceptor atom, score
      L1  H    10    30       P1  7948  0.98
      L1  H    13    31       P1  7948  0.98
      L1  H    19    41       P1 10186  0.88
      L1  C     6    27       P1  8028  1.00

> <Gold.PLP.Chemscore.Internal.Correction>
0.0051

> <Gold.Rescore>
     Score         DG    S(hbond)    S(metal)    S(lipo)     H(rot)  DE(clash)    DE(int)     intcor
     15.74     -17.90       2.63        0.00      63.76       1.49       0.79       1.38       ----

> <Gold.Chemscore.Fitness>
15.7364

> <Gold.Chemscore.DG>
-17.9008

> <Gold.Chemscore.ZeroCoef>
-5.4800

> <Gold.Chemscore.Hbond>
2.6312

> <Gold.Chemscore.Metal>
0.0000

> <Gold.Chemscore.Lipo>
63.7566

> <Gold.Chemscore.Internal_Hbond>
0.0000

> <Gold.Chemscore.DEClash>
0.7865

> <Gold.Chemscore.DEInternal>
1.3779

> <Gold.Chemscore.Rot>
1.4948

> <Gold.Chemscore.Internal.Correction>
   9.000000E+99

> <Gold.Chemscore.Hbonds>
donor molecule, donor type, donor heavy atom, donor atom, acceptor molecule, acceptor atom, score
      L1  H    10    30       P1  7948  0.93
      L1  H    13    31       P1  7948  0.87
      L1  H    19    41       P1 10186  0.57

> <Gold.Chemscore.Hbond.Weighted>
-8.7881

> <Gold.Chemscore.Metal.Weighted>
-0.0000

> <Gold.Chemscore.Lipo.Weighted>
-7.4595

> <Gold.Chemscore.Internal_Hbond.Weighted>
0.0000

> <Gold.Chemscore.DEClash.Weighted>
0.7865

> <Gold.Chemscore.DEInternal.Weighted>
1.3779

> <Gold.Chemscore.Rot.Weighted>
3.8268

> <Gold.Chemscore.Internal.Correction.Weighted>
   9.000000E+99

> <Gold.Protein.RotatedTorsions>
[ 6907 6896 6895 6894 ] final -157.03 input  -60.11 | X-H torsion
[ 7974 7965 7964 7962 ] final  -36.69 input  175.53 | X-H torsion
[ 8008 7997 7996 7995 ] final   70.90 input   59.86 | X-H torsion
[ 10167 10162 10161 10158 ] final -132.57 input  -65.29 | X-H torsion
[ 10718 10713 10712 10709 ] final  106.52 input   66.30 | X-H torsion
[ 10763 10752 10751 10750 ] final    6.84 input  -60.55 | X-H torsion
[ 11005 11000 10999 10996 ] final  -10.94 input  -57.11 | X-H torsion

> <Gold.Protein.ActiveResidues>
 VAL166  LYS551  ARG553  GLY616  TRP617  ASP618  TYR619  PRO620  LYS621  CYS622 
 ASP623  PHE694  ASN695  SER759  ASP760  ASP761  ALA762  ILE779  LEU786  VAL792 
 PHE793  MET794  SER795  GLU796  ALA797  LYS798  CYS799  TRP800  GLU811  SER814 

> <Gold.Protein.RotatedAtoms>
  151.2967  133.4141  159.2636 H   0  0  0  0  0  0  0  0  0  0  0  0  # atno 6907 bound_to 6896
  151.0230  134.9484  159.8080 H   0  0  0  0  0  0  0  0  0  0  0  0  # atno 6908 bound_to 6896
  152.5328  134.2930  159.9102 H   0  0  0  0  0  0  0  0  0  0  0  0  # atno 6909 bound_to 6896
  146.0640  140.6308  142.8984 H   0  0  0  0  0  0  0  0  0  0  0  0  # atno 7974 bound_to 7965
  155.7458  140.3489  155.5126 H   0  0  0  0  0  0  0  0  0  0  0  0  # atno 8008 bound_to 7997
  155.9051  140.1041  157.1342 H   0  0  0  0  0  0  0  0  0  0  0  0  # atno 8009 bound_to 7997
  154.4049  140.1278  156.4473 H   0  0  0  0  0  0  0  0  0  0  0  0  # atno 8010 bound_to 7997
  139.9071  143.6538  152.2583 H   0  0  0  0  0  0  0  0  0  0  0  0  # atno 10167 bound_to 10162
  157.6665  131.0852  150.6020 H   0  0  0  0  0  0  0  0  0  0  0  0  # atno 10718 bound_to 10713
  153.2431  135.6905  153.7761 H   0  0  0  0  0  0  0  0  0  0  0  0  # atno 10763 bound_to 10752
  153.6884  135.3317  155.3197 H   0  0  0  0  0  0  0  0  0  0  0  0  # atno 10764 bound_to 10752
  154.8363  135.4539  154.1360 H   0  0  0  0  0  0  0  0  0  0  0  0  # atno 10765 bound_to 10752
  140.7500  133.8600  155.9037 H   0  0  0  0  0  0  0  0  0  0  0  0  # atno 11005 bound_to 11000
  144.7191  140.4313  143.7021 LP  0  0  0  0  0  0  0  0  0  0  0  0  # atno 17320 bound_to 7965
  145.6510  139.1565  143.2862 LP  0  0  0  0  0  0  0  0  0  0  0  0  # atno 17321 bound_to 7965
  139.6974  144.7639  151.1332 LP  0  0  0  0  0  0  0  0  0  0  0  0  # atno 17342 bound_to 10162
  140.7694  143.5504  150.9210 LP  0  0  0  0  0  0  0  0  0  0  0  0  # atno 17343 bound_to 10162
  156.6320  130.4434  149.5783 LP  0  0  0  0  0  0  0  0  0  0  0  0  # atno 17370 bound_to 10713
  156.2274  130.6774  151.1430 LP  0  0  0  0  0  0  0  0  0  0  0  0  # atno 17371 bound_to 10713
  140.9759  134.1469  157.4536 LP  0  0  0  0  0  0  0  0  0  0  0  0  # atno 17394 bound_to 11000
  139.8789  134.9994  156.5955 LP  0  0  0  0  0  0  0  0  0  0  0  0  # atno 17395 bound_to 11000

$$$$
