AV-unprocessed.smi:294|AV-procd|sdf|2253|dock7
  -GOLD-   2262022143D 1   1.00000     0.00000
 Structure written by MMmdl.
 29 30  0  0  0  0  0  0  0  0  1 V2000
  144.6115  146.1178  152.7595 N   0  0  0  0  0  0  0  0  0  0  0  0
  144.8894  145.1089  153.2536 C   0  0  0  0  0  0  0  0  0  0  0  0
  145.2385  143.8422  153.8742 C   0  0  0  0  0  0  0  0  0  0  0  0
  144.7877  143.5095  155.1186 N   0  0  0  0  0  0  0  0  0  0  0  0
  145.3551  142.3148  155.2310 C   0  0  0  0  0  0  0  0  0  0  0  0
  146.0752  141.9528  154.1638 N   0  0  0  0  0  0  0  0  0  0  0  0
  146.8261  140.7384  153.9009 C   0  0  0  0  0  0  0  0  0  0  0  0
  148.3184  140.9439  154.1655 C   0  0  0  0  0  0  0  0  0  0  0  0
  148.8479  142.0223  153.8992 O   0  0  0  0  0  0  0  0  0  0  0  0
  148.9832  139.9019  154.6887 N   0  0  0  0  0  0  0  0  0  0  0  0
  150.4000  139.8980  155.0356 C   0  0  1  0  0  0  0  0  0  0  0  0
  150.5969  139.8128  156.5603 C   0  0  0  0  0  0  0  0  0  0  0  0
  152.0606  139.4555  156.8460 C   0  0  0  0  0  0  0  0  0  0  0  0
  152.6129  138.4176  155.4395 S   0  0  0  0  0  0  0  0  0  0  0  0
  153.7891  139.0443  154.8174 O   0  0  0  0  0  0  0  0  0  0  0  0
  152.6342  137.0051  155.8484 O   0  0  0  0  0  0  0  0  0  0  0  0
  151.1380  138.7129  154.3935 C   0  0  0  0  0  0  0  0  0  0  0  0
  146.0100  142.9534  153.2514 N   0  0  0  0  0  0  0  0  0  0  0  0
  145.2401  141.6892  156.1045 H   0  0  0  0  0  0  0  0  0  0  0  0
  146.4456  139.9283  154.5253 H   0  0  0  0  0  0  0  0  0  0  0  0
  146.6661  140.4474  152.8619 H   0  0  0  0  0  0  0  0  0  0  0  0
  148.4647  139.0551  154.8745 H   0  0  0  0  0  0  0  0  0  0  0  0
  150.8641  140.8250  154.6931 H   0  0  0  0  0  0  0  0  0  0  0  0
  150.3062  140.7376  157.0598 H   0  0  0  0  0  0  0  0  0  0  0  0
  149.9616  139.0214  156.9609 H   0  0  0  0  0  0  0  0  0  0  0  0
  152.6805  140.3521  156.8648 H   0  0  0  0  0  0  0  0  0  0  0  0
  152.1931  138.9200  157.7862 H   0  0  0  0  0  0  0  0  0  0  0  0
  150.5297  137.8080  154.4151 H   0  0  0  0  0  0  0  0  0  0  0  0
  151.4394  138.9055  153.3635 H   0  0  0  0  0  0  0  0  0  0  0  0
  1  2  3  0  0  0  0
  2  3  1  0  0  0  0
  3 18  2  0  0  0  0
  3  4  1  0  0  0  0
  4  5  2  0  0  0  0
  5  6  1  0  0  0  0
  5 19  1  0  0  0  0
  6  7  1  0  0  0  0
  6 18  1  0  0  0  0
  7  8  1  0  0  0  0
  7 20  1  0  0  0  0
  7 21  1  0  0  0  0
  8  9  2  0  0  0  0
  8 10  1  0  0  0  0
 10 11  1  0  0  0  0
 10 22  1  0  0  0  0
 11 17  1  0  0  0  0
 11 12  1  0  0  0  0
 11 23  1  0  0  0  0
 12 13  1  0  0  0  0
 12 24  1  0  0  0  0
 12 25  1  0  0  0  0
 13 14  1  0  0  0  0
 13 26  1  0  0  0  0
 13 27  1  0  0  0  0
 14 15  2  0  0  0  0
 14 16  2  0  0  0  0
 14 17  1  0  0  0  0
 17 28  1  0  0  0  0
 17 29  1  0  0  0  0
M  END
> <s_m_source_file>
AV-unprocessed.smi

> <i_m_source_file_index>
294

> <i_lp_mmshare_version>
43012

> <i_f3d_flags>
0

> <s_epik_input>
TiNDYzFuW2NIXW4objEpW0NIMl1DKD1PKVtOSF1bQ0BASF0oW0NIMl0yKVtDSDJdW0NIMl1TMig9Tyk9Tw==

> <s_epik_cmdline>
J2VwaWtfcHl0aG9uJywgJy1waCcsICc3LjAnLCAnLXRuJywgJzgnLCAnLW1hJywgJzIwMCcsICctbWV0YWxfYmluZGluZycsICctaW1hZScsICc8aW5maWxlLm1hZT4nLCAnLW9tYWUnLCAnPG91dGZpbGUubWFlPic=

> <r_lp_tautomer_probability>
1

> <r_epik_Ionization_Penalty>
6.08231e-07

> <r_epik_Ionization_Penalty_Charging>
0

> <r_epik_Ionization_Penalty_Neutral>
6.08231e-07

> <r_epik_State_Penalty>
-0

> <r_epik_Charging_Adjusted_Penalty>
0

> <i_epik_Tot_Q>
0

> <i_epik_Tot_abs_Q>
0

> <r_epik_Metal_State_Penalty>
-0

> <b_epik_Metal_Only>
0

> <s_lp_Force_Field>
OPLS_2005

> <r_lp_Energy>
6.26763

> <b_lp_Chiralities_Consistent>
1

> <s_lp_Variant>
AV-unprocessed.smi:294-2

> <Gold.Version>
5.8.1

> <Gold.Id.Protein>
6NUR|6NUR_protein|mol2

> <Gold.PLP.Fitness>
37.6746

> <Gold.PLP.PLP>
-32.5078

> <Gold.PLP.part.hbond>
-5.0016

> <Gold.PLP.part.metal>
0.0000

> <Gold.PLP.part.buried>
-2.5883

> <Gold.PLP.part.nonpolar>
-25.1491

> <Gold.PLP.part.repulsive>
0.8576

> <Gold.PLP.ligand.clash>
0.0000

> <Gold.PLP.ligand.torsion>
0.6929

> <Gold.PLP.Chemscore.Hbond>
2.1840

> <Gold.PLP.Chemscore.CHOScore>
0.0000

> <Gold.PLP.Chemscore.Metal>
0.0000

> <Gold.Chemscore.Hbonds>
donor molecule, donor type, donor heavy atom, donor atom, acceptor molecule, acceptor atom, score
      P1  H  7997  8010       L1    15  1.00
      P1  H  8011  8017       L1     9  0.42
      P1  H 10752 10763       L1    16  0.75

> <Gold.PLP.Chemscore.Internal.Correction>
0.0006

> <Gold.Rescore>
     Score         DG    S(hbond)    S(metal)    S(lipo)     H(rot)  DE(clash)    DE(int)     intcor
      8.74     -11.09       2.31        0.00      29.09       2.15       0.75       1.60       ----

> <Gold.Chemscore.Fitness>
8.7381

> <Gold.Chemscore.DG>
-11.0905

> <Gold.Chemscore.ZeroCoef>
-5.4800

> <Gold.Chemscore.Hbond>
2.3122

> <Gold.Chemscore.Metal>
0.0000

> <Gold.Chemscore.Lipo>
29.0901

> <Gold.Chemscore.Internal_Hbond>
0.0000

> <Gold.Chemscore.DEClash>
0.7530

> <Gold.Chemscore.DEInternal>
1.5994

> <Gold.Chemscore.Rot>
2.1546

> <Gold.Chemscore.Internal.Correction>
   9.000000E+99

> <Gold.Chemscore.Hbonds>
donor molecule, donor type, donor heavy atom, donor atom, acceptor molecule, acceptor atom, score
      P1  H  7997  8010       L1    15  0.92
      P1  H  8011  8017       L1     9  0.42
      P1  H 10752 10763       L1    16  0.76

> <Gold.Chemscore.Hbond.Weighted>
-7.7227

> <Gold.Chemscore.Metal.Weighted>
-0.0000

> <Gold.Chemscore.Lipo.Weighted>
-3.4035

> <Gold.Chemscore.Internal_Hbond.Weighted>
0.0000

> <Gold.Chemscore.DEClash.Weighted>
0.7530

> <Gold.Chemscore.DEInternal.Weighted>
1.5994

> <Gold.Chemscore.Rot.Weighted>
5.5158

> <Gold.Chemscore.Internal.Correction.Weighted>
   9.000000E+99

> <Gold.Protein.RotatedTorsions>
[ 6907 6896 6895 6894 ] final   18.64 input  -60.11 | X-H torsion
[ 7974 7965 7964 7962 ] final   99.23 input  175.53 | X-H torsion
[ 8008 7997 7996 7995 ] final  122.84 input   59.86 | X-H torsion
[ 10167 10162 10161 10158 ] final -124.56 input  -65.29 | X-H torsion
[ 10718 10713 10712 10709 ] final -121.62 input   66.30 | X-H torsion
[ 10763 10752 10751 10750 ] final   90.49 input  -60.55 | X-H torsion
[ 11005 11000 10999 10996 ] final -158.35 input  -57.11 | X-H torsion

> <Gold.Protein.ActiveResidues>
 VAL166  LYS551  ARG553  GLY616  TRP617  ASP618  TYR619  PRO620  LYS621  CYS622 
 ASP623  PHE694  ASN695  SER759  ASP760  ASP761  ALA762  ILE779  LEU786  VAL792 
 PHE793  MET794  SER795  GLU796  ALA797  LYS798  CYS799  TRP800  GLU811  SER814 

> <Gold.Protein.RotatedAtoms>
  151.8684  135.0498  160.0476 H   0  0  0  0  0  0  0  0  0  0  0  0  # atno 6907 bound_to 6896
  152.2608  133.5291  159.5389 H   0  0  0  0  0  0  0  0  0  0  0  0  # atno 6908 bound_to 6896
  150.7116  134.0749  159.3920 H   0  0  0  0  0  0  0  0  0  0  0  0  # atno 6909 bound_to 6896
  145.4016  139.2347  143.3297 H   0  0  0  0  0  0  0  0  0  0  0  0  # atno 7974 bound_to 7965
  156.2743  140.2776  156.1532 H   0  0  0  0  0  0  0  0  0  0  0  0  # atno 8008 bound_to 7997
  155.0832  140.0388  157.2663 H   0  0  0  0  0  0  0  0  0  0  0  0  # atno 8009 bound_to 7997
  154.6948  140.2636  155.6783 H   0  0  0  0  0  0  0  0  0  0  0  0  # atno 8010 bound_to 7997
  139.9915  143.5636  152.2340 H   0  0  0  0  0  0  0  0  0  0  0  0  # atno 10167 bound_to 10162
  156.1352  130.6425  150.9684 H   0  0  0  0  0  0  0  0  0  0  0  0  # atno 10718 bound_to 10713
  153.1981  135.4432  155.0233 H   0  0  0  0  0  0  0  0  0  0  0  0  # atno 10763 bound_to 10752
  154.8131  135.3303  154.7254 H   0  0  0  0  0  0  0  0  0  0  0  0  # atno 10764 bound_to 10752
  153.7701  135.6985  153.4963 H   0  0  0  0  0  0  0  0  0  0  0  0  # atno 10765 bound_to 10752
  140.6546  134.4414  157.5235 H   0  0  0  0  0  0  0  0  0  0  0  0  # atno 11005 bound_to 11000
  146.2749  140.4714  142.8799 LP  0  0  0  0  0  0  0  0  0  0  0  0  # atno 17320 bound_to 7965
  144.8370  140.6798  143.6254 LP  0  0  0  0  0  0  0  0  0  0  0  0  # atno 17321 bound_to 7965
  139.6336  144.7647  151.2484 LP  0  0  0  0  0  0  0  0  0  0  0  0  # atno 17342 bound_to 10162
  140.7453  143.6436  150.8312 LP  0  0  0  0  0  0  0  0  0  0  0  0  # atno 17343 bound_to 10162
  157.6525  131.0894  150.8019 LP  0  0  0  0  0  0  0  0  0  0  0  0  # atno 17370 bound_to 10713
  156.8100  130.4949  149.5357 LP  0  0  0  0  0  0  0  0  0  0  0  0  # atno 17371 bound_to 10713
  139.9034  134.8504  156.1804 LP  0  0  0  0  0  0  0  0  0  0  0  0  # atno 17394 bound_to 11000
  141.0511  133.6888  156.1773 LP  0  0  0  0  0  0  0  0  0  0  0  0  # atno 17395 bound_to 11000

$$$$
