AV-unprocessed.smi:788|AV-procd|sdf|3733|dock6
  -GOLD-   22720 1163D 1   1.00000     0.00000
 Structure written by MMmdl.
 35 36  0  0  0  0  0  0  0  0  1 V2000
  144.9922  135.7657  151.3476 C   0  0  0  0  0  0  0  0  0  0  0  0
  145.4733  134.3392  151.0252 C   0  0  2  0  0  0  0  0  0  0  0  0
  144.3358  133.5201  150.3861 C   0  0  0  0  0  0  0  0  0  0  0  0
  144.7932  132.1002  150.0287 C   0  0  0  0  0  0  0  0  0  0  0  0
  145.3435  131.3752  151.2633 C   0  0  0  0  0  0  0  0  0  0  0  0
  146.4960  132.1610  151.9174 C   0  0  2  0  0  0  0  0  0  0  0  0
  147.0420  131.3966  153.1375 C   0  0  0  0  0  0  0  0  0  0  0  0
  146.0480  133.6048  152.2647 C   0  0  1  0  0  0  0  0  0  0  0  0
  147.1788  134.3585  152.8083 N   0  0  0  0  0  0  0  0  0  0  0  0
  147.5912  134.3658  154.0874 C   0  0  0  0  0  0  0  0  0  0  0  0
  147.0404  133.7121  154.9713 O   0  0  0  0  0  0  0  0  0  0  0  0
  148.6542  135.1494  154.3685 N   0  0  0  0  0  0  0  0  0  0  0  0
  149.3524  135.4024  155.5851 C   0  0  0  0  0  0  0  0  0  0  0  0
  149.2469  134.6541  156.6955 N   0  0  0  0  0  0  0  0  0  0  0  0
  150.0335  135.1407  157.7311 N   0  0  0  0  0  0  0  0  0  0  0  0
  150.6963  136.2416  157.3665 C   0  0  0  0  0  0  0  0  0  0  0  0
  150.4216  136.7917  155.7233 S   0  0  0  0  0  0  0  0  0  0  0  0
  144.2248  135.7577  152.1218 H   0  0  0  0  0  0  0  0  0  0  0  0
  144.5686  136.2447  150.4645 H   0  0  0  0  0  0  0  0  0  0  0  0
  145.8089  136.3990  151.6943 H   0  0  0  0  0  0  0  0  0  0  0  0
  146.2708  134.4257  150.2852 H   0  0  0  0  0  0  0  0  0  0  0  0
  143.4890  133.4678  151.0720 H   0  0  0  0  0  0  0  0  0  0  0  0
  143.9737  134.0207  149.4873 H   0  0  0  0  0  0  0  0  0  0  0  0
  143.9599  131.5368  149.6081 H   0  0  0  0  0  0  0  0  0  0  0  0
  145.5601  132.1440  149.2540 H   0  0  0  0  0  0  0  0  0  0  0  0
  144.5402  131.2280  151.9866 H   0  0  0  0  0  0  0  0  0  0  0  0
  145.6851  130.3803  150.9761 H   0  0  0  0  0  0  0  0  0  0  0  0
  147.3048  132.2257  151.1876 H   0  0  0  0  0  0  0  0  0  0  0  0
  146.2968  131.3351  153.9312 H   0  0  0  0  0  0  0  0  0  0  0  0
  147.9300  131.8756  153.5503 H   0  0  0  0  0  0  0  0  0  0  0  0
  147.3239  130.3789  152.8672 H   0  0  0  0  0  0  0  0  0  0  0  0
  145.2525  133.5364  153.0091 H   0  0  0  0  0  0  0  0  0  0  0  0
  147.6943  134.9272  152.1515 H   0  0  0  0  0  0  0  0  0  0  0  0
  149.0220  135.6471  153.5707 H   0  0  0  0  0  0  0  0  0  0  0  0
  151.3495  136.7352  158.0708 H   0  0  0  0  0  0  0  0  0  0  0  0
  1  2  1  0  0  0  0
  1 18  1  0  0  0  0
  1 19  1  0  0  0  0
  1 20  1  0  0  0  0
  2  8  1  0  0  0  0
  2  3  1  0  0  0  0
  2 21  1  0  0  0  0
  3  4  1  0  0  0  0
  3 22  1  0  0  0  0
  3 23  1  0  0  0  0
  4  5  1  0  0  0  0
  4 24  1  0  0  0  0
  4 25  1  0  0  0  0
  5  6  1  0  0  0  0
  5 26  1  0  0  0  0
  5 27  1  0  0  0  0
  6  7  1  0  0  0  0
  6  8  1  0  0  0  0
  6 28  1  0  0  0  0
  7 29  1  0  0  0  0
  7 30  1  0  0  0  0
  7 31  1  0  0  0  0
  8  9  1  0  0  0  0
  8 32  1  0  0  0  0
  9 10  1  0  0  0  0
  9 33  1  0  0  0  0
 10 11  2  0  0  0  0
 10 12  1  0  0  0  0
 12 13  1  0  0  0  0
 12 34  1  0  0  0  0
 13 17  1  0  0  0  0
 13 14  2  0  0  0  0
 14 15  1  0  0  0  0
 15 16  2  0  0  0  0
 16 17  1  0  0  0  0
 16 35  1  0  0  0  0
M  END
> <s_m_source_file>
AV-unprocessed.smi

> <i_m_source_file_index>
788

> <i_lp_mmshare_version>
43012

> <i_f3d_flags>
0

> <s_epik_input>
W0NIM11bQ0BASF0xW0NIMl1bQ0gyXVtDSDJdW0NAQEhdKFtDSDNdKVtDQEhdMVtOSF1DKD1PKVtOSF1jMm5uW2NIXXMy

> <s_epik_cmdline>
J2VwaWtfcHl0aG9uJywgJy1waCcsICc3LjAnLCAnLXRuJywgJzgnLCAnLW1hJywgJzIwMCcsICctbWV0YWxfYmluZGluZycsICctaW1hZScsICc8aW5maWxlLm1hZT4nLCAnLW9tYWUnLCAnPG91dGZpbGUubWFlPic=

> <r_lp_tautomer_probability>
1

> <r_epik_Ionization_Penalty>
0.000304078

> <r_epik_Ionization_Penalty_Charging>
0

> <r_epik_Ionization_Penalty_Neutral>
0.000304078

> <r_epik_State_Penalty>
-0

> <r_epik_Charging_Adjusted_Penalty>
0

> <i_epik_Tot_Q>
0

> <i_epik_Tot_abs_Q>
0

> <r_epik_Metal_State_Penalty>
0.164801

> <b_epik_Metal_Only>
0

> <s_lp_Force_Field>
OPLS_2005

> <r_lp_Energy>
14.1502

> <b_lp_Chiralities_Consistent>
1

> <s_lp_Variant>
AV-unprocessed.smi:788-3

> <Gold.Version>
5.8.1

> <Gold.Id.Protein>
6NUR|6NUR_protein|mol2

> <Gold.PLP.Fitness>
33.3393

> <Gold.PLP.PLP>
-25.6662

> <Gold.PLP.part.hbond>
-3.0000

> <Gold.PLP.part.metal>
0.0000

> <Gold.PLP.part.buried>
-4.0653

> <Gold.PLP.part.nonpolar>
-18.9669

> <Gold.PLP.part.repulsive>
0.0380

> <Gold.PLP.ligand.clash>
0.0000

> <Gold.PLP.ligand.torsion>
0.4141

> <Gold.PLP.Chemscore.Hbond>
2.8320

> <Gold.PLP.Chemscore.CHOScore>
0.0000

> <Gold.PLP.Chemscore.Metal>
0.0000

> <Gold.Chemscore.Hbonds>
donor molecule, donor type, donor heavy atom, donor atom, acceptor molecule, acceptor atom, score
      L1  H     9    33       P1  7948  0.99
      L1  H    12    34       P1  7948  1.00
      P1  H  6896  6909       L1    15  0.80

> <Gold.PLP.Chemscore.Internal.Correction>
0.0053

> <Gold.Rescore>
     Score         DG    S(hbond)    S(metal)    S(lipo)     H(rot)  DE(clash)    DE(int)     intcor
     17.16     -18.70       2.78        0.00      55.59       1.00       0.00       1.54       ----

> <Gold.Chemscore.Fitness>
17.1618

> <Gold.Chemscore.DG>
-18.6993

> <Gold.Chemscore.ZeroCoef>
-5.4800

> <Gold.Chemscore.Hbond>
2.7771

> <Gold.Chemscore.Metal>
0.0000

> <Gold.Chemscore.Lipo>
55.5877

> <Gold.Chemscore.Internal_Hbond>
0.0000

> <Gold.Chemscore.DEClash>
0.0000

> <Gold.Chemscore.DEInternal>
1.5374

> <Gold.Chemscore.Rot>
1.0000

> <Gold.Chemscore.Internal.Correction>
   9.000000E+99

> <Gold.Chemscore.Hbonds>
donor molecule, donor type, donor heavy atom, donor atom, acceptor molecule, acceptor atom, score
      L1  H     9    33       P1  7948  0.81
      L1  H    12    34       P1  7948  0.80
      P1  H  6896  6909       L1    15  0.64

> <Gold.Chemscore.Hbond.Weighted>
-9.2755

> <Gold.Chemscore.Metal.Weighted>
-0.0000

> <Gold.Chemscore.Lipo.Weighted>
-6.5038

> <Gold.Chemscore.Internal_Hbond.Weighted>
0.0000

> <Gold.Chemscore.DEClash.Weighted>
0.0000

> <Gold.Chemscore.DEInternal.Weighted>
1.5374

> <Gold.Chemscore.Rot.Weighted>
2.5600

> <Gold.Chemscore.Internal.Correction.Weighted>
   9.000000E+99

> <Gold.Protein.RotatedTorsions>
[ 6907 6896 6895 6894 ] final   40.88 input  -60.11 | X-H torsion
[ 7974 7965 7964 7962 ] final -177.35 input  175.53 | X-H torsion
[ 8008 7997 7996 7995 ] final   17.45 input   59.86 | X-H torsion
[ 10167 10162 10161 10158 ] final  -69.52 input  -65.29 | X-H torsion
[ 10718 10713 10712 10709 ] final  -69.35 input   66.30 | X-H torsion
[ 10763 10752 10751 10750 ] final  -93.99 input  -60.55 | X-H torsion
[ 11005 11000 10999 10996 ] final  151.34 input  -57.11 | X-H torsion

> <Gold.Protein.ActiveResidues>
 VAL166  LYS551  ARG553  GLY616  TRP617  ASP618  TYR619  PRO620  LYS621  CYS622 
 ASP623  PHE694  ASN695  SER759  ASP760  ASP761  ALA762  ILE779  LEU786  VAL792 
 PHE793  MET794  SER795  GLU796  ALA797  LYS798  CYS799  TRP800  GLU811  SER814 

> <Gold.Protein.RotatedAtoms>
  152.1882  134.8695  160.0519 H   0  0  0  0  0  0  0  0  0  0  0  0  # atno 6907 bound_to 6896
  151.9594  133.3685  159.4038 H   0  0  0  0  0  0  0  0  0  0  0  0  # atno 6908 bound_to 6896
  150.6930  134.4180  159.5236 H   0  0  0  0  0  0  0  0  0  0  0  0  # atno 6909 bound_to 6896
  144.7127  140.1032  143.6415 H   0  0  0  0  0  0  0  0  0  0  0  0  # atno 7974 bound_to 7965
  154.8916  140.2987  155.5368 H   0  0  0  0  0  0  0  0  0  0  0  0  # atno 8008 bound_to 7997
  156.3021  140.2423  156.3866 H   0  0  0  0  0  0  0  0  0  0  0  0  # atno 8009 bound_to 7997
  154.8613  140.0405  157.1656 H   0  0  0  0  0  0  0  0  0  0  0  0  # atno 8010 bound_to 7997
  140.5424  143.2314  151.7065 H   0  0  0  0  0  0  0  0  0  0  0  0  # atno 10167 bound_to 10162
  156.0460  130.4311  150.2135 H   0  0  0  0  0  0  0  0  0  0  0  0  # atno 10718 bound_to 10713
  154.7012  135.5174  153.8529 H   0  0  0  0  0  0  0  0  0  0  0  0  # atno 10763 bound_to 10752
  153.0705  135.6599  154.0267 H   0  0  0  0  0  0  0  0  0  0  0  0  # atno 10764 bound_to 10752
  154.0125  135.3001  155.3370 H   0  0  0  0  0  0  0  0  0  0  0  0  # atno 10765 bound_to 10752
  140.1210  134.8863  157.2072 H   0  0  0  0  0  0  0  0  0  0  0  0  # atno 11005 bound_to 11000
  145.9519  139.2739  143.1207 LP  0  0  0  0  0  0  0  0  0  0  0  0  # atno 17320 bound_to 7965
  145.9314  140.9046  143.0354 LP  0  0  0  0  0  0  0  0  0  0  0  0  # atno 17321 bound_to 7965
  139.4994  144.3948  152.0242 LP  0  0  0  0  0  0  0  0  0  0  0  0  # atno 17342 bound_to 10162
  140.3058  144.3594  150.6047 LP  0  0  0  0  0  0  0  0  0  0  0  0  # atno 17343 bound_to 10162
  157.0225  130.9983  151.3335 LP  0  0  0  0  0  0  0  0  0  0  0  0  # atno 17370 bound_to 10713
  157.5334  130.8073  149.7944 LP  0  0  0  0  0  0  0  0  0  0  0  0  # atno 17371 bound_to 10713
  140.2965  134.3180  155.7301 LP  0  0  0  0  0  0  0  0  0  0  0  0  # atno 17394 bound_to 11000
  141.2151  133.7566  156.9579 LP  0  0  0  0  0  0  0  0  0  0  0  0  # atno 17395 bound_to 11000

$$$$
