AV-unprocessed.smi:1203|AV-procd|sdf|5035|dock7
  -GOLD-   22720 4 63D 1   1.00000     0.00000
 Structure written by MMmdl.
 40 41  0  0  0  0  0  0  0  0  2 V2000
  150.7339  136.6709  154.6659 C   0  0  0  0  0  0  0  0  0  0  0  0
  150.7128  135.9489  156.3572 S   0  0  0  0  0  0  0  0  0  0  0  0
  152.0847  135.5534  156.7111 O   0  0  0  0  0  0  0  0  0  0  0  0
  149.9533  136.8377  157.2492 O   0  0  0  0  0  0  0  0  0  0  0  0
  149.7934  134.4985  156.1478 N   0  0  0  0  0  0  0  0  0  0  0  0
  150.2969  133.2535  156.7428 C   0  0  0  0  0  0  0  0  0  0  0  0
  149.6565  132.1259  155.9387 C   0  0  0  0  0  0  0  0  0  0  0  0
  149.5150  132.7344  154.5510 C   0  0  0  0  0  0  0  0  0  0  0  0
  149.2211  134.2209  154.8193 C   0  0  1  0  0  0  0  0  0  0  0  0
  147.7298  134.5698  154.7309 C   0  0  0  0  0  0  0  0  0  0  0  0
  146.9543  134.2477  155.6314 O   0  0  0  0  0  0  0  0  0  0  0  0
  147.3470  135.2520  153.6412 N   0  0  0  0  0  0  0  0  0  0  0  0
  145.9865  135.6981  153.3578 C   0  0  0  0  0  0  0  0  0  0  0  0
  145.7484  136.0048  151.8654 C   0  0  0  0  0  0  0  0  0  0  0  0
  145.1729  134.8360  151.0833 C   0  0  0  0  0  0  0  0  0  0  0  0
  145.9087  133.6402  150.9305 C   0  0  0  0  0  0  0  0  0  0  0  0
  145.3516  132.5745  150.1935 C   0  0  0  0  0  0  0  0  0  0  0  0
  144.0687  132.7271  149.6294 C   0  0  0  0  0  0  0  0  0  0  0  0
  143.3930  133.8846  149.7993 N   0  3  0  0  0  0  0  0  0  0  0  0
  143.8936  134.9300  150.4934 C   0  0  0  0  0  0  0  0  0  0  0  0
  151.3620  137.5615  154.6605 H   0  0  0  0  0  0  0  0  0  0  0  0
  149.7206  136.9460  154.3736 H   0  0  0  0  0  0  0  0  0  0  0  0
  151.1272  135.9408  153.9601 H   0  0  0  0  0  0  0  0  0  0  0  0
  151.3823  133.2158  156.6409 H   0  0  0  0  0  0  0  0  0  0  0  0
  150.0502  133.2006  157.8033 H   0  0  0  0  0  0  0  0  0  0  0  0
  150.2516  131.2123  155.9425 H   0  0  0  0  0  0  0  0  0  0  0  0
  148.6724  131.8898  156.3457 H   0  0  0  0  0  0  0  0  0  0  0  0
  150.4572  132.6400  154.0092 H   0  0  0  0  0  0  0  0  0  0  0  0
  148.7495  132.2327  153.9571 H   0  0  0  0  0  0  0  0  0  0  0  0
  149.7542  134.8102  154.0707 H   0  0  0  0  0  0  0  0  0  0  0  0
  148.0538  135.4822  152.9573 H   0  0  0  0  0  0  0  0  0  0  0  0
  145.3156  134.8993  153.6744 H   0  0  0  0  0  0  0  0  0  0  0  0
  145.7390  136.5669  153.9697 H   0  0  0  0  0  0  0  0  0  0  0  0
  145.0748  136.8569  151.7694 H   0  0  0  0  0  0  0  0  0  0  0  0
  146.6866  136.3126  151.4018 H   0  0  0  0  0  0  0  0  0  0  0  0
  146.8909  133.5409  151.3694 H   0  0  0  0  0  0  0  0  0  0  0  0
  145.9008  131.6536  150.0626 H   0  0  0  0  0  0  0  0  0  0  0  0
  143.5671  131.9651  149.0508 H   0  0  0  0  0  0  0  0  0  0  0  0
  143.2617  135.8044  150.5509 H   0  0  0  0  0  0  0  0  0  0  0  0
  142.4661  133.9744  149.3830 H   0  0  0  0  0  0  0  0  0  0  0  0
  1  2  1  0  0  0  0
  1 21  1  0  0  0  0
  1 22  1  0  0  0  0
  1 23  1  0  0  0  0
  2  3  2  0  0  0  0
  2  4  2  0  0  0  0
  2  5  1  0  0  0  0
  5  9  1  0  0  0  0
  5  6  1  0  0  0  0
  6  7  1  0  0  0  0
  6 24  1  0  0  0  0
  6 25  1  0  0  0  0
  7  8  1  0  0  0  0
  7 26  1  0  0  0  0
  7 27  1  0  0  0  0
  8  9  1  0  0  0  0
  8 28  1  0  0  0  0
  8 29  1  0  0  0  0
  9 10  1  0  0  0  0
  9 30  1  0  0  0  0
 10 11  2  0  0  0  0
 10 12  1  0  0  0  0
 12 13  1  0  0  0  0
 12 31  1  0  0  0  0
 13 14  1  0  0  0  0
 13 32  1  0  0  0  0
 13 33  1  0  0  0  0
 14 15  1  0  0  0  0
 14 34  1  0  0  0  0
 14 35  1  0  0  0  0
 15 20  1  0  0  0  0
 15 16  2  0  0  0  0
 16 17  1  0  0  0  0
 16 36  1  0  0  0  0
 17 18  2  0  0  0  0
 17 37  1  0  0  0  0
 18 19  1  0  0  0  0
 18 38  1  0  0  0  0
 19 20  2  0  0  0  0
 19 40  1  0  0  0  0
 20 39  1  0  0  0  0
M  CHG  1  19   1
M  END
> <s_m_source_file>
AV-unprocessed.smi

> <i_m_source_file_index>
1203

> <i_lp_mmshare_version>
43012

> <i_f3d_flags>
0

> <s_epik_input>
W0NIM11TKD1PKSg9TylOMVtDSDJdW0NIMl1bQ0gyXVtDQEhdMUMoPU8pW05IXVtDSDJdW0NIMl1jMltjSF1bY0hdW2NIXW5bY0hdMg==

> <s_epik_cmdline>
J2VwaWtfcHl0aG9uJywgJy1waCcsICc3LjAnLCAnLXRuJywgJzgnLCAnLW1hJywgJzIwMCcsICctbWV0YWxfYmluZGluZycsICctaW1hZScsICc8aW5maWxlLm1hZT4nLCAnLW9tYWUnLCAnPG91dGZpbGUubWFlPic=

> <r_epik_Ionization_Penalty>
2.2835

> <r_epik_Ionization_Penalty_Charging>
2.2835

> <r_epik_Ionization_Penalty_Neutral>
1.4017e-07

> <r_epik_State_Penalty>
2.43297

> <r_epik_Charging_Adjusted_Penalty>
4.71647

> <i_epik_Tot_Q>
1

> <i_epik_Tot_abs_Q>
1

> <r_epik_Metal_State_Penalty>
2.44558

> <b_epik_Metal_Only>
0

> <s_lp_Force_Field>
OPLS_2005

> <r_lp_Energy>
11.8017

> <b_lp_Chiralities_Consistent>
1

> <s_lp_Variant>
AV-unprocessed.smi:1203-3

> <Gold.Version>
5.8.1

> <Gold.Id.Protein>
6NUR|6NUR_protein|mol2

> <Gold.PLP.Fitness>
40.7421

> <Gold.PLP.PLP>
-30.7483

> <Gold.PLP.part.hbond>
-3.0000

> <Gold.PLP.part.metal>
0.0000

> <Gold.PLP.part.buried>
-3.4033

> <Gold.PLP.part.nonpolar>
-25.3822

> <Gold.PLP.part.repulsive>
0.0929

> <Gold.PLP.ligand.clash>
0.0000

> <Gold.PLP.ligand.torsion>
1.0399

> <Gold.PLP.Chemscore.Hbond>
3.8560

> <Gold.PLP.Chemscore.CHOScore>
0.0000

> <Gold.PLP.Chemscore.Metal>
0.0000

> <Gold.Chemscore.Hbonds>
donor molecule, donor type, donor heavy atom, donor atom, acceptor molecule, acceptor atom, score
      L1  H    12    31       P1  7948  1.00
      L1  H    19    40       P1 10186  1.92
      P1  H 10752 10763       L1     3  1.00

> <Gold.PLP.Chemscore.Internal.Correction>
0.5056

> <Gold.Rescore>
     Score         DG    S(hbond)    S(metal)    S(lipo)     H(rot)  DE(clash)    DE(int)     intcor
     17.30     -18.46       2.85        0.00      73.35       2.00       0.01       1.14       ----

> <Gold.Chemscore.Fitness>
17.3009

> <Gold.Chemscore.DG>
-18.4575

> <Gold.Chemscore.ZeroCoef>
-5.4800

> <Gold.Chemscore.Hbond>
2.8522

> <Gold.Chemscore.Metal>
0.0000

> <Gold.Chemscore.Lipo>
73.3497

> <Gold.Chemscore.Internal_Hbond>
0.0000

> <Gold.Chemscore.DEClash>
0.0126

> <Gold.Chemscore.DEInternal>
1.1440

> <Gold.Chemscore.Rot>
2.0043

> <Gold.Chemscore.Internal.Correction>
   9.000000E+99

> <Gold.Chemscore.Hbonds>
donor molecule, donor type, donor heavy atom, donor atom, acceptor molecule, acceptor atom, score
      L1  H    12    31       P1  7948  0.98
      L1  H    19    40       P1 10186  0.86
      P1  H 10752 10763       L1     3  0.59

> <Gold.Chemscore.Hbond.Weighted>
-9.5265

> <Gold.Chemscore.Metal.Weighted>
-0.0000

> <Gold.Chemscore.Lipo.Weighted>
-8.5819

> <Gold.Chemscore.Internal_Hbond.Weighted>
0.0000

> <Gold.Chemscore.DEClash.Weighted>
0.0126

> <Gold.Chemscore.DEInternal.Weighted>
1.1440

> <Gold.Chemscore.Rot.Weighted>
5.1309

> <Gold.Chemscore.Internal.Correction.Weighted>
   9.000000E+99

> <Gold.Protein.RotatedTorsions>
[ 6907 6896 6895 6894 ] final   14.08 input  -60.11 | X-H torsion
[ 7974 7965 7964 7962 ] final  -29.12 input  175.53 | X-H torsion
[ 8008 7997 7996 7995 ] final  -33.41 input   59.86 | X-H torsion
[ 10167 10162 10161 10158 ] final  134.78 input  -65.29 | X-H torsion
[ 10718 10713 10712 10709 ] final   -4.97 input   66.30 | X-H torsion
[ 10763 10752 10751 10750 ] final   86.63 input  -60.55 | X-H torsion
[ 11005 11000 10999 10996 ] final  168.42 input  -57.11 | X-H torsion

> <Gold.Protein.ActiveResidues>
 VAL166  LYS551  ARG553  GLY616  TRP617  ASP618  TYR619  PRO620  LYS621  CYS622 
 ASP623  PHE694  ASN695  SER759  ASP760  ASP761  ALA762  ILE779  LEU786  VAL792 
 PHE793  MET794  SER795  GLU796  ALA797  LYS798  CYS799  TRP800  GLU811  SER814 

> <Gold.Protein.RotatedAtoms>
  151.7966  135.0721  160.0394 H   0  0  0  0  0  0  0  0  0  0  0  0  # atno 6907 bound_to 6896
  152.3119  133.5757  159.5695 H   0  0  0  0  0  0  0  0  0  0  0  0  # atno 6908 bound_to 6896
  150.7324  134.0056  159.3694 H   0  0  0  0  0  0  0  0  0  0  0  0  # atno 6909 bound_to 6896
  146.1239  140.5371  142.8723 H   0  0  0  0  0  0  0  0  0  0  0  0  # atno 7974 bound_to 7965
  154.4150  140.1711  156.1884 H   0  0  0  0  0  0  0  0  0  0  0  0  # atno 8008 bound_to 7997
  155.9624  140.3392  155.6478 H   0  0  0  0  0  0  0  0  0  0  0  0  # atno 8009 bound_to 7997
  155.6732  140.0714  157.2503 H   0  0  0  0  0  0  0  0  0  0  0  0  # atno 8010 bound_to 7997
  139.5243  144.6550  151.5188 H   0  0  0  0  0  0  0  0  0  0  0  0  # atno 10167 bound_to 10162
  156.7535  130.5247  149.5799 H   0  0  0  0  0  0  0  0  0  0  0  0  # atno 10718 bound_to 10713
  153.1589  135.4573  154.9743 H   0  0  0  0  0  0  0  0  0  0  0  0  # atno 10763 bound_to 10752
  154.7882  135.3211  154.7840 H   0  0  0  0  0  0  0  0  0  0  0  0  # atno 10764 bound_to 10752
  153.8333  135.6936  153.4866 H   0  0  0  0  0  0  0  0  0  0  0  0  # atno 10765 bound_to 10752
  140.2871  134.7703  157.3807 H   0  0  0  0  0  0  0  0  0  0  0  0  # atno 11005 bound_to 11000
  144.7624  140.5452  143.6726 LP  0  0  0  0  0  0  0  0  0  0  0  0  # atno 17320 bound_to 7965
  145.5407  139.1475  143.3449 LP  0  0  0  0  0  0  0  0  0  0  0  0  # atno 17321 bound_to 7965
  140.6372  143.8961  150.6658 LP  0  0  0  0  0  0  0  0  0  0  0  0  # atno 17342 bound_to 10162
  140.2284  143.3755  152.1586 LP  0  0  0  0  0  0  0  0  0  0  0  0  # atno 17343 bound_to 10162
  156.1385  130.6228  151.0435 LP  0  0  0  0  0  0  0  0  0  0  0  0  # atno 17370 bound_to 10713
  157.6766  131.0849  150.7478 LP  0  0  0  0  0  0  0  0  0  0  0  0  # atno 17371 bound_to 10713
  140.1230  134.5195  155.8168 LP  0  0  0  0  0  0  0  0  0  0  0  0  # atno 17394 bound_to 11000
  141.2153  133.6763  156.6900 LP  0  0  0  0  0  0  0  0  0  0  0  0  # atno 17395 bound_to 11000

$$$$
