AV-unprocessed.smi:2095|AV-procd|sdf|8561|dock8
  -GOLD-   2272011283D 1   1.00000     0.00000
 Structure written by MMmdl.
 42 43  0  0  0  0  0  0  0  0  2 V2000
  145.4544  132.5819  149.9906 C   0  0  0  0  0  0  0  0  0  0  0  0
  145.9610  133.7987  150.7775 C   0  0  1  0  0  0  0  0  0  0  0  0
  144.8747  134.8812  150.9028 C   0  0  0  0  0  0  0  0  0  0  0  0
  145.3985  136.0726  151.7158 C   0  0  0  0  0  0  0  0  0  0  0  0
  145.9198  135.6133  153.0860 C   0  0  0  0  0  0  0  0  0  0  0  0
  146.9762  134.5775  152.9245 N   0  3  1  0  0  0  0  0  0  0  0  0
  147.7186  134.2209  154.1686 C   0  0  1  0  0  0  0  0  0  0  0  0
  149.0309  133.4904  153.8262 C   0  0  0  0  0  0  0  0  0  0  0  0
  147.9380  135.4277  155.1164 C   0  0  0  0  0  0  0  0  0  0  0  0
  148.5603  136.5584  154.4367 N   0  0  0  0  0  0  0  0  0  0  0  0
  148.8347  137.7417  155.0085 C   0  0  0  0  0  0  0  0  0  0  0  0
  148.5856  137.9964  156.1864 O   0  0  0  0  0  0  0  0  0  0  0  0
  149.5030  138.7945  154.1230 C   0  0  0  0  0  0  0  0  0  0  0  0
  150.9294  138.8690  154.3779 N   0  0  0  0  0  0  0  0  0  0  0  0
  151.8929  137.9544  154.2497 C   0  0  0  0  0  0  0  0  0  0  0  0
  153.0739  138.4363  154.6058 N   0  0  0  0  0  0  0  0  0  0  0  0
  152.7848  139.7401  154.9729 N   0  0  0  0  0  0  0  0  0  0  0  0
  151.5140  140.0029  154.8394 N   0  0  0  0  0  0  0  0  0  0  0  0
  146.4778  133.3942  152.1731 C   0  0  0  0  0  0  0  0  0  0  0  0
  144.6154  132.1029  150.4966 H   0  0  0  0  0  0  0  0  0  0  0  0
  146.2410  131.8362  149.8709 H   0  0  0  0  0  0  0  0  0  0  0  0
  145.1209  132.8706  148.9933 H   0  0  0  0  0  0  0  0  0  0  0  0
  146.7968  134.2237  150.2196 H   0  0  0  0  0  0  0  0  0  0  0  0
  144.5589  135.2176  149.9146 H   0  0  0  0  0  0  0  0  0  0  0  0
  143.9898  134.4669  151.3884 H   0  0  0  0  0  0  0  0  0  0  0  0
  146.1988  136.5701  151.1662 H   0  0  0  0  0  0  0  0  0  0  0  0
  144.6065  136.8108  151.8462 H   0  0  0  0  0  0  0  0  0  0  0  0
  146.3099  136.4761  153.6251 H   0  0  0  0  0  0  0  0  0  0  0  0
  145.0917  135.2166  153.6744 H   0  0  0  0  0  0  0  0  0  0  0  0
  147.1055  133.4882  154.6955 H   0  0  0  0  0  0  0  0  0  0  0  0
  149.4938  133.0685  154.7187 H   0  0  0  0  0  0  0  0  0  0  0  0
  149.7611  134.1556  153.3658 H   0  0  0  0  0  0  0  0  0  0  0  0
  148.8515  132.6638  153.1380 H   0  0  0  0  0  0  0  0  0  0  0  0
  146.9860  135.7803  155.5134 H   0  0  0  0  0  0  0  0  0  0  0  0
  148.5455  135.1467  155.9776 H   0  0  0  0  0  0  0  0  0  0  0  0
  148.7951  136.4354  153.4618 H   0  0  0  0  0  0  0  0  0  0  0  0
  149.3483  138.5521  153.0708 H   0  0  0  0  0  0  0  0  0  0  0  0
  149.0501  139.7714  154.2992 H   0  0  0  0  0  0  0  0  0  0  0  0
  151.7302  136.9445  153.9029 H   0  0  0  0  0  0  0  0  0  0  0  0
  145.6866  132.9014  152.7397 H   0  0  0  0  0  0  0  0  0  0  0  0
  147.2830  132.6673  152.0573 H   0  0  0  0  0  0  0  0  0  0  0  0
  147.6719  134.9913  152.3205 H   0  0  0  0  0  0  0  0  0  0  0  0
  1  2  1  0  0  0  0
  1 20  1  0  0  0  0
  1 21  1  0  0  0  0
  1 22  1  0  0  0  0
  2 19  1  0  0  0  0
  2  3  1  0  0  0  0
  2 23  1  0  0  0  0
  3  4  1  0  0  0  0
  3 24  1  0  0  0  0
  3 25  1  0  0  0  0
  4  5  1  0  0  0  0
  4 26  1  0  0  0  0
  4 27  1  0  0  0  0
  5  6  1  0  0  0  0
  5 28  1  0  0  0  0
  5 29  1  0  0  0  0
  6  7  1  0  0  0  0
  6 19  1  0  0  0  0
  6 42  1  0  0  0  0
  7  8  1  0  0  0  0
  7  9  1  0  0  0  0
  7 30  1  0  0  0  0
  8 31  1  0  0  0  0
  8 32  1  0  0  0  0
  8 33  1  0  0  0  0
  9 10  1  0  0  0  0
  9 34  1  0  0  0  0
  9 35  1  0  0  0  0
 10 11  1  0  0  0  0
 10 36  1  0  0  0  0
 11 12  2  0  0  0  0
 11 13  1  0  0  0  0
 13 14  1  0  0  0  0
 13 37  1  0  0  0  0
 13 38  1  0  0  0  0
 14 18  1  0  0  0  0
 14 15  1  0  0  0  0
 15 16  2  0  0  0  0
 15 39  1  0  0  0  0
 16 17  1  0  0  0  0
 17 18  2  0  0  0  0
 19 40  1  0  0  0  0
 19 41  1  0  0  0  0
M  CHG  1   6   1
M  END
> <s_m_source_file>
AV-unprocessed.smi

> <i_m_source_file_index>
2095

> <i_lp_mmshare_version>
43012

> <i_f3d_flags>
0

> <s_epik_input>
W0NIM11bQ0BASF0xW0NIMl1bQ0gyXVtDSDJdTihbQ0gyXTEpW0NASF0oW0NIM10pW0NIMl1bTkhdQyg9TylbQ0gyXW4yW2NIXW5ubjI=

> <s_epik_cmdline>
J2VwaWtfcHl0aG9uJywgJy1waCcsICc3LjAnLCAnLXRuJywgJzgnLCAnLW1hJywgJzIwMCcsICctbWV0YWxfYmluZGluZycsICctaW1hZScsICc8aW5maWxlLm1hZT4nLCAnLW9tYWUnLCAnPG91dGZpbGUubWFlPic=

> <r_lp_tautomer_probability>
1

> <r_epik_Ionization_Penalty>
0.00268321

> <r_epik_Ionization_Penalty_Charging>
0.00267875

> <r_epik_Ionization_Penalty_Neutral>
4.46125e-06

> <r_epik_State_Penalty>
0.00186642

> <r_epik_Charging_Adjusted_Penalty>
0.00454517

> <i_epik_Tot_Q>
1

> <i_epik_Tot_abs_Q>
1

> <r_epik_Metal_State_Penalty>
-0

> <b_epik_Metal_Only>
0

> <s_lp_Force_Field>
OPLS_2005

> <r_lp_Energy>
22.3019

> <b_lp_Chiralities_Consistent>
1

> <s_lp_Variant>
AV-unprocessed.smi:2095-8

> <Gold.Version>
5.8.1

> <Gold.Id.Protein>
6NUR|6NUR_protein|mol2

> <Gold.PLP.Fitness>
50.8538

> <Gold.PLP.PLP>
-34.0773

> <Gold.PLP.part.hbond>
-5.6081

> <Gold.PLP.part.metal>
0.0000

> <Gold.PLP.part.buried>
-4.2133

> <Gold.PLP.part.nonpolar>
-24.1196

> <Gold.PLP.part.repulsive>
0.1229

> <Gold.PLP.ligand.clash>
0.0000

> <Gold.PLP.ligand.torsion>
0.5845

> <Gold.PLP.Chemscore.Hbond>
5.0000

> <Gold.PLP.Chemscore.CHOScore>
0.9470

> <Gold.PLP.Chemscore.Metal>
0.0000

> <Gold.Chemscore.Hbonds>
donor molecule, donor type, donor heavy atom, donor atom, acceptor molecule, acceptor atom, score
      L1  H     6    42       P1  7948  2.00
      L1  H    10    36       P1  7948  1.00
      P1  H  7989  7998       L1    18  0.80
      P1  H  7997  8009       L1    17  1.00
      L1  C    15    39       P1  7949  0.69

> <Gold.PLP.Chemscore.Internal.Correction>
0.1046

> <Gold.Rescore>
     Score         DG    S(hbond)    S(metal)    S(lipo)     H(rot)  DE(clash)    DE(int)     intcor
     15.70     -16.85       3.58        0.00      53.00       2.64       0.62       0.54       ----

> <Gold.Chemscore.Fitness>
15.6954

> <Gold.Chemscore.DG>
-16.8545

> <Gold.Chemscore.ZeroCoef>
-5.4800

> <Gold.Chemscore.Hbond>
3.5756

> <Gold.Chemscore.Metal>
0.0000

> <Gold.Chemscore.Lipo>
52.9955

> <Gold.Chemscore.Internal_Hbond>
0.0000

> <Gold.Chemscore.DEClash>
0.6217

> <Gold.Chemscore.DEInternal>
0.5374

> <Gold.Chemscore.Rot>
2.6439

> <Gold.Chemscore.Internal.Correction>
   9.000000E+99

> <Gold.Chemscore.Hbonds>
donor molecule, donor type, donor heavy atom, donor atom, acceptor molecule, acceptor atom, score
      L1  H     6    42       P1  7948  0.93
      L1  H    10    36       P1  7948  0.99
      P1  H  7989  7998       L1    18  0.04
      P1  H  7997  8009       L1    17  0.25

> <Gold.Chemscore.Hbond.Weighted>
-11.9425

> <Gold.Chemscore.Metal.Weighted>
-0.0000

> <Gold.Chemscore.Lipo.Weighted>
-6.2005

> <Gold.Chemscore.Internal_Hbond.Weighted>
0.0000

> <Gold.Chemscore.DEClash.Weighted>
0.6217

> <Gold.Chemscore.DEInternal.Weighted>
0.5374

> <Gold.Chemscore.Rot.Weighted>
6.7685

> <Gold.Chemscore.Internal.Correction.Weighted>
   9.000000E+99

> <Gold.Protein.RotatedTorsions>
[ 6907 6896 6895 6894 ] final  -39.24 input  -60.11 | X-H torsion
[ 7974 7965 7964 7962 ] final  -50.57 input  175.53 | X-H torsion
[ 8008 7997 7996 7995 ] final -133.42 input   59.86 | X-H torsion
[ 10167 10162 10161 10158 ] final  117.28 input  -65.29 | X-H torsion
[ 10718 10713 10712 10709 ] final   17.82 input   66.30 | X-H torsion
[ 10763 10752 10751 10750 ] final -137.96 input  -60.55 | X-H torsion
[ 11005 11000 10999 10996 ] final   67.78 input  -57.11 | X-H torsion

> <Gold.Protein.ActiveResidues>
 VAL166  LYS551  ARG553  GLY616  TRP617  ASP618  TYR619  PRO620  LYS621  CYS622 
 ASP623  PHE694  ASN695  SER759  ASP760  ASP761  ALA762  ILE779  LEU786  VAL792 
 PHE793  MET794  SER795  GLU796  ALA797  LYS798  CYS799  TRP800  GLU811  SER814 

> <Gold.Protein.RotatedAtoms>
  150.9927  134.9258  159.7908 H   0  0  0  0  0  0  0  0  0  0  0  0  # atno 6907 bound_to 6896
  152.5255  134.3260  159.9175 H   0  0  0  0  0  0  0  0  0  0  0  0  # atno 6908 bound_to 6896
  151.3266  133.3977  159.2693 H   0  0  0  0  0  0  0  0  0  0  0  0  # atno 6909 bound_to 6896
  145.9284  140.7771  142.9612 H   0  0  0  0  0  0  0  0  0  0  0  0  # atno 7974 bound_to 7965
  155.3452  140.0474  157.3045 H   0  0  0  0  0  0  0  0  0  0  0  0  # atno 8008 bound_to 7997
  154.5256  140.2240  155.8861 H   0  0  0  0  0  0  0  0  0  0  0  0  # atno 8009 bound_to 7997
  156.1736  140.3090  155.9024 H   0  0  0  0  0  0  0  0  0  0  0  0  # atno 8010 bound_to 7997
  139.6189  144.7097  151.2677 H   0  0  0  0  0  0  0  0  0  0  0  0  # atno 10167 bound_to 10162
  157.0876  130.6414  149.5841 H   0  0  0  0  0  0  0  0  0  0  0  0  # atno 10718 bound_to 10713
  154.8649  135.3626  154.5308 H   0  0  0  0  0  0  0  0  0  0  0  0  # atno 10763 bound_to 10752
  153.5933  135.7015  153.5419 H   0  0  0  0  0  0  0  0  0  0  0  0  # atno 10764 bound_to 10752
  153.3354  135.4113  155.1491 H   0  0  0  0  0  0  0  0  0  0  0  0  # atno 10765 bound_to 10752
  139.9750  134.6837  156.0371 H   0  0  0  0  0  0  0  0  0  0  0  0  # atno 11005 bound_to 11000
  144.6761  140.2087  143.7379 LP  0  0  0  0  0  0  0  0  0  0  0  0  # atno 17320 bound_to 7965
  145.8458  139.2152  143.1800 LP  0  0  0  0  0  0  0  0  0  0  0  0  # atno 17321 bound_to 7965
  140.7369  143.6693  150.8096 LP  0  0  0  0  0  0  0  0  0  0  0  0  # atno 17342 bound_to 10162
  140.0300  143.5453  152.2764 LP  0  0  0  0  0  0  0  0  0  0  0  0  # atno 17343 bound_to 10162
  155.9906  130.4958  150.7266 LP  0  0  0  0  0  0  0  0  0  0  0  0  # atno 17370 bound_to 10713
  157.4748  131.0896  151.0602 LP  0  0  0  0  0  0  0  0  0  0  0  0  # atno 17371 bound_to 10713
  141.1428  133.6561  156.3779 LP  0  0  0  0  0  0  0  0  0  0  0  0  # atno 17394 bound_to 11000
  140.5213  134.6301  157.5319 LP  0  0  0  0  0  0  0  0  0  0  0  0  # atno 17395 bound_to 11000

$$$$
