AV-unprocessed.smi:2895|AV-procd|sdf|11129|dock3
  -GOLD-   2272016 03D 1   1.00000     0.00000
 Structure written by MMmdl.
 53 56  0  0  0  0  0  0  0  0  2 V2000
  150.5161  137.0214  159.5534 O   0  0  0  0  0  0  0  0  0  0  0  0
  149.8035  137.8104  158.9304 C   0  0  0  0  0  0  0  0  0  0  0  0
  148.4929  137.5775  158.7363 N   0  0  0  0  0  0  0  0  0  0  0  0
  147.7640  136.4076  159.2128 C   0  0  0  0  0  0  0  0  0  0  0  0
  147.9878  136.1781  160.7155 C   0  0  0  0  0  0  0  0  0  0  0  0
  146.6863  135.9397  161.4557 C   0  0  0  0  0  0  0  0  0  0  0  0
  145.6802  136.9273  161.4812 C   0  0  0  0  0  0  0  0  0  0  0  0
  144.4882  136.6531  162.1814 C   0  0  0  0  0  0  0  0  0  0  0  0
  144.2586  135.4904  162.8292 N   0  0  0  0  0  0  0  0  0  0  0  0
  145.2261  134.5489  162.7984 C   0  0  0  0  0  0  0  0  0  0  0  0
  146.4539  134.7224  162.1283 C   0  0  0  0  0  0  0  0  0  0  0  0
  150.2646  138.9811  158.4126 N   0  0  0  0  0  0  0  0  0  0  0  0
  149.3760  140.0055  157.8150 C   0  0  0  0  0  0  0  0  0  0  0  0
  150.0782  140.9719  156.8459 C   0  0  0  0  0  0  0  0  0  0  0  0
  151.3456  141.5024  157.3980 N   0  3  0  0  0  0  0  0  0  0  0  0
  151.2057  142.4169  158.5754 C   0  0  1  0  0  0  0  0  0  0  0  0
  152.5626  142.6839  159.2796 C   0  0  0  0  0  0  0  0  0  0  0  0
  152.6517  144.2181  159.3250 C   0  0  2  0  0  0  0  0  0  0  0  0
  151.5989  144.7720  160.3003 C   0  0  0  0  0  0  0  0  0  0  0  0
  150.2841  144.5534  159.5315 C   0  0  0  0  0  0  0  0  0  0  0  0
  150.7532  143.8644  158.2347 C   0  0  1  0  0  0  0  0  0  0  0  0
  152.0676  144.5897  157.9694 C   0  0  0  0  0  0  0  0  0  0  0  0
  152.2640  140.3627  157.6300 C   0  0  0  0  0  0  0  0  0  0  0  0
  151.6884  139.3269  158.6151 C   0  0  0  0  0  0  0  0  0  0  0  0
  147.9599  138.2665  158.2260 H   0  0  0  0  0  0  0  0  0  0  0  0
  146.6994  136.5108  158.9953 H   0  0  0  0  0  0  0  0  0  0  0  0
  148.1120  135.5419  158.6486 H   0  0  0  0  0  0  0  0  0  0  0  0
  148.6439  135.3205  160.8703 H   0  0  0  0  0  0  0  0  0  0  0  0
  148.4947  137.0366  161.1585 H   0  0  0  0  0  0  0  0  0  0  0  0
  145.8149  137.8728  160.9767 H   0  0  0  0  0  0  0  0  0  0  0  0
  143.6975  137.3877  162.2220 H   0  0  0  0  0  0  0  0  0  0  0  0
  145.0158  133.6287  163.3233 H   0  0  0  0  0  0  0  0  0  0  0  0
  147.1960  133.9377  162.1314 H   0  0  0  0  0  0  0  0  0  0  0  0
  148.5555  139.5502  157.2586 H   0  0  0  0  0  0  0  0  0  0  0  0
  148.9183  140.5703  158.6282 H   0  0  0  0  0  0  0  0  0  0  0  0
  150.3129  140.4340  155.9262 H   0  0  0  0  0  0  0  0  0  0  0  0
  149.4020  141.7636  156.5314 H   0  0  0  0  0  0  0  0  0  0  0  0
  150.5001  141.9756  159.2801 H   0  0  0  0  0  0  0  0  0  0  0  0
  152.6114  142.2338  160.2720 H   0  0  0  0  0  0  0  0  0  0  0  0
  153.4054  142.3018  158.7023 H   0  0  0  0  0  0  0  0  0  0  0  0
  153.6593  144.5914  159.5103 H   0  0  0  0  0  0  0  0  0  0  0  0
  151.6122  144.2551  161.2607 H   0  0  0  0  0  0  0  0  0  0  0  0
  151.7612  145.8343  160.4882 H   0  0  0  0  0  0  0  0  0  0  0  0
  149.5669  143.9524  160.0918 H   0  0  0  0  0  0  0  0  0  0  0  0
  149.8103  145.5104  159.3092 H   0  0  0  0  0  0  0  0  0  0  0  0
  150.0127  143.9639  157.4446 H   0  0  0  0  0  0  0  0  0  0  0  0
  151.9485  145.6656  157.8306 H   0  0  0  0  0  0  0  0  0  0  0  0
  152.6275  144.1796  157.1273 H   0  0  0  0  0  0  0  0  0  0  0  0
  152.4468  139.8754  156.6711 H   0  0  0  0  0  0  0  0  0  0  0  0
  153.2424  140.6981  157.9720 H   0  0  0  0  0  0  0  0  0  0  0  0
  151.7936  139.7013  159.6343 H   0  0  0  0  0  0  0  0  0  0  0  0
  152.3220  138.4401  158.5566 H   0  0  0  0  0  0  0  0  0  0  0  0
  151.7609  142.0612  156.6661 H   0  0  0  0  0  0  0  0  0  0  0  0
  1  2  2  0  0  0  0
  2  3  1  0  0  0  0
  2 12  1  0  0  0  0
  3  4  1  0  0  0  0
  3 25  1  0  0  0  0
  4  5  1  0  0  0  0
  4 26  1  0  0  0  0
  4 27  1  0  0  0  0
  5  6  1  0  0  0  0
  5 28  1  0  0  0  0
  5 29  1  0  0  0  0
  6 11  1  0  0  0  0
  6  7  2  0  0  0  0
  7  8  1  0  0  0  0
  7 30  1  0  0  0  0
  8  9  2  0  0  0  0
  8 31  1  0  0  0  0
  9 10  1  0  0  0  0
 10 11  2  0  0  0  0
 10 32  1  0  0  0  0
 11 33  1  0  0  0  0
 12 24  1  0  0  0  0
 12 13  1  0  0  0  0
 13 14  1  0  0  0  0
 13 34  1  0  0  0  0
 13 35  1  0  0  0  0
 14 15  1  0  0  0  0
 14 36  1  0  0  0  0
 14 37  1  0  0  0  0
 15 16  1  0  0  0  0
 15 23  1  0  0  0  0
 15 53  1  0  0  0  0
 16 21  1  0  0  0  0
 16 17  1  0  0  0  0
 16 38  1  0  0  0  0
 17 18  1  0  0  0  0
 17 39  1  0  0  0  0
 17 40  1  0  0  0  0
 18 22  1  0  0  0  0
 18 19  1  0  0  0  0
 18 41  1  0  0  0  0
 19 20  1  0  0  0  0
 19 42  1  0  0  0  0
 19 43  1  0  0  0  0
 20 21  1  0  0  0  0
 20 44  1  0  0  0  0
 20 45  1  0  0  0  0
 21 22  1  0  0  0  0
 21 46  1  0  0  0  0
 22 47  1  0  0  0  0
 22 48  1  0  0  0  0
 23 24  1  0  0  0  0
 23 49  1  0  0  0  0
 23 50  1  0  0  0  0
 24 51  1  0  0  0  0
 24 52  1  0  0  0  0
M  CHG  1  15   1
M  END
> <s_m_source_file>
AV-unprocessed.smi

> <i_m_source_file_index>
2895

> <i_lp_mmshare_version>
43012

> <i_f3d_flags>
0

> <s_epik_input>
W0NIMl0xW0NIMl1bQ0BASF0oW0NIMl0yKVtDQEBIXShbQ0gyXVtDQEhdMTIpTihbQ0gyXVtDSDJdMylbQ0gyXVtDSDJdTjNDKD1PKVtOSF1bQ0gyXVtDSDJdYzRbY0hdW2NIXW5bY0hdW2NIXTQ=

> <s_epik_cmdline>
J2VwaWtfcHl0aG9uJywgJy1waCcsICc3LjAnLCAnLXRuJywgJzgnLCAnLW1hJywgJzIwMCcsICctbWV0YWxfYmluZGluZycsICctaW1hZScsICc8aW5maWxlLm1hZT4nLCAnLW9tYWUnLCAnPG91dGZpbGUubWFlPic=

> <r_epik_Ionization_Penalty>
0.0566172

> <r_epik_Ionization_Penalty_Charging>
0.00262064

> <r_epik_Ionization_Penalty_Neutral>
0.0539965

> <r_epik_State_Penalty>
0.0463959

> <r_epik_Charging_Adjusted_Penalty>
0.0490165

> <i_epik_Tot_Q>
1

> <i_epik_Tot_abs_Q>
1

> <r_epik_Metal_State_Penalty>
0.0424856

> <b_epik_Metal_Only>
0

> <s_lp_Force_Field>
OPLS_2005

> <r_lp_Energy>
101.263

> <b_lp_Chiralities_Consistent>
1

> <s_lp_Variant>
AV-unprocessed.smi:2895-2

> <Gold.Version>
5.8.1

> <Gold.Id.Protein>
6NUR|6NUR_protein|mol2

> <Gold.PLP.Fitness>
48.7327

> <Gold.PLP.PLP>
-47.2010

> <Gold.PLP.part.hbond>
-0.9884

> <Gold.PLP.part.metal>
0.0000

> <Gold.PLP.part.buried>
-7.8499

> <Gold.PLP.part.nonpolar>
-39.4186

> <Gold.PLP.part.repulsive>
0.2703

> <Gold.PLP.ligand.clash>
0.2547

> <Gold.PLP.ligand.torsion>
0.7037

> <Gold.PLP.Chemscore.Hbond>
1.0000

> <Gold.PLP.Chemscore.CHOScore>
0.0000

> <Gold.PLP.Chemscore.Metal>
0.0000

> <Gold.Chemscore.Hbonds>
donor molecule, donor type, donor heavy atom, donor atom, acceptor molecule, acceptor atom, score
      P1  H  6896  6908       L1     1  0.94

> <Gold.PLP.Chemscore.Internal.Correction>
0.1939

> <Gold.Rescore>
     Score         DG    S(hbond)    S(metal)    S(lipo)     H(rot)  DE(clash)    DE(int)     intcor
     20.09     -21.77       1.00        0.00     140.78       1.37       0.01       1.67       ----

> <Gold.Chemscore.Fitness>
20.0890

> <Gold.Chemscore.DG>
-21.7702

> <Gold.Chemscore.ZeroCoef>
-5.4800

> <Gold.Chemscore.Hbond>
0.9983

> <Gold.Chemscore.Metal>
0.0000

> <Gold.Chemscore.Lipo>
140.7785

> <Gold.Chemscore.Internal_Hbond>
0.0000

> <Gold.Chemscore.DEClash>
0.0089

> <Gold.Chemscore.DEInternal>
1.6723

> <Gold.Chemscore.Rot>
1.3731

> <Gold.Chemscore.Internal.Correction>
   9.000000E+99

> <Gold.Chemscore.Hbonds>
donor molecule, donor type, donor heavy atom, donor atom, acceptor molecule, acceptor atom, score
      P1  H  6896  6908       L1     1  0.90

> <Gold.Chemscore.Hbond.Weighted>
-3.3342

> <Gold.Chemscore.Metal.Weighted>
-0.0000

> <Gold.Chemscore.Lipo.Weighted>
-16.4711

> <Gold.Chemscore.Internal_Hbond.Weighted>
0.0000

> <Gold.Chemscore.DEClash.Weighted>
0.0089

> <Gold.Chemscore.DEInternal.Weighted>
1.6723

> <Gold.Chemscore.Rot.Weighted>
3.5152

> <Gold.Chemscore.Internal.Correction.Weighted>
   9.000000E+99

> <Gold.Protein.RotatedTorsions>
[ 6907 6896 6895 6894 ] final -148.79 input  -60.11 | X-H torsion
[ 7974 7965 7964 7962 ] final -159.65 input  175.53 | X-H torsion
[ 8008 7997 7996 7995 ] final -118.42 input   59.86 | X-H torsion
[ 10167 10162 10161 10158 ] final   76.46 input  -65.29 | X-H torsion
[ 10718 10713 10712 10709 ] final  179.44 input   66.30 | X-H torsion
[ 10763 10752 10751 10750 ] final  131.09 input  -60.55 | X-H torsion
[ 11005 11000 10999 10996 ] final  167.58 input  -57.11 | X-H torsion

> <Gold.Protein.ActiveResidues>
 VAL166  LYS551  ARG553  GLY616  TRP617  ASP618  TYR619  PRO620  LYS621  CYS622 
 ASP623  PHE694  ASN695  SER759  ASP760  ASP761  ALA762  ILE779  LEU786  VAL792 
 PHE793  MET794  SER795  GLU796  ALA797  LYS798  CYS799  TRP800  GLU811  SER814 

> <Gold.Protein.RotatedAtoms>
  151.1748  133.4761  159.2593 H   0  0  0  0  0  0  0  0  0  0  0  0  # atno 6907 bound_to 6896
  151.1319  135.0134  159.8596 H   0  0  0  0  0  0  0  0  0  0  0  0  # atno 6908 bound_to 6896
  152.5460  134.1650  159.8626 H   0  0  0  0  0  0  0  0  0  0  0  0  # atno 6909 bound_to 6896
  144.7457  140.3655  143.6087 H   0  0  0  0  0  0  0  0  0  0  0  0  # atno 7974 bound_to 7965
  155.0994  140.0396  157.2692 H   0  0  0  0  0  0  0  0  0  0  0  0  # atno 8008 bound_to 7997
  154.6770  140.2624  155.6923 H   0  0  0  0  0  0  0  0  0  0  0  0  # atno 8009 bound_to 7997
  156.2680  140.2786  156.1300 H   0  0  0  0  0  0  0  0  0  0  0  0  # atno 8010 bound_to 7997
  139.9921  144.5749  150.7809 H   0  0  0  0  0  0  0  0  0  0  0  0  # atno 10167 bound_to 10162
  156.8758  130.9799  151.3068 H   0  0  0  0  0  0  0  0  0  0  0  0  # atno 10718 bound_to 10713
  153.7687  135.3185  155.3348 H   0  0  0  0  0  0  0  0  0  0  0  0  # atno 10763 bound_to 10752
  154.8204  135.4607  154.0766 H   0  0  0  0  0  0  0  0  0  0  0  0  # atno 10764 bound_to 10752
  153.2019  135.6923  153.8305 H   0  0  0  0  0  0  0  0  0  0  0  0  # atno 10765 bound_to 10752
  140.2783  134.7771  157.3735 H   0  0  0  0  0  0  0  0  0  0  0  0  # atno 11005 bound_to 11000
  145.7132  139.1690  143.2527 LP  0  0  0  0  0  0  0  0  0  0  0  0  # atno 17320 bound_to 7965
  146.1331  140.7158  142.9402 LP  0  0  0  0  0  0  0  0  0  0  0  0  # atno 17321 bound_to 7965
  140.7451  143.2870  151.3435 LP  0  0  0  0  0  0  0  0  0  0  0  0  # atno 17342 bound_to 10162
  139.6333  144.0679  152.2494 LP  0  0  0  0  0  0  0  0  0  0  0  0  # atno 17343 bound_to 10162
  157.6169  130.8625  149.9044 LP  0  0  0  0  0  0  0  0  0  0  0  0  # atno 17370 bound_to 10713
  156.0703  130.3686  150.0790 LP  0  0  0  0  0  0  0  0  0  0  0  0  # atno 17371 bound_to 10713
  140.1308  134.5098  155.8107 LP  0  0  0  0  0  0  0  0  0  0  0  0  # atno 17394 bound_to 11000
  141.2167  133.6789  156.7035 LP  0  0  0  0  0  0  0  0  0  0  0  0  # atno 17395 bound_to 11000

$$$$
