AV-unprocessed.smi:481|AV-procd|sdf|2680|dock1
  -GOLD-   2262023103D 1   1.00000     0.00000
 Structure written by MMmdl.
 43 45  0  0  0  0  0  0  0  0  1 V2000
  149.7906  133.7989  155.0201 C   0  0  0  0  0  0  0  0  0  0  0  0
  150.1268  135.1154  155.4218 O   0  0  0  0  0  0  0  0  0  0  0  0
  150.0709  135.2842  156.8278 C   0  0  0  0  0  0  0  0  0  0  0  0
  148.6051  135.4362  157.2511 C   0  0  0  0  0  0  0  0  0  0  0  0
  148.4894  135.8973  158.6301 N   0  0  0  0  0  0  0  0  0  0  0  0
  148.9791  137.0433  159.1677 C   0  0  0  0  0  0  0  0  0  0  0  0
  149.6966  137.9329  158.3687 N   0  0  0  0  0  0  0  0  0  0  0  0
  150.1819  139.0540  158.8721 N   0  0  0  0  0  0  0  0  0  0  0  0
  150.4044  140.0006  158.0323 C   0  0  0  0  0  0  0  0  0  0  0  0
  150.9453  141.3056  158.4421 C   0  0  0  0  0  0  0  0  0  0  0  0
  150.6864  142.4869  157.7065 C   0  0  0  0  0  0  0  0  0  0  0  0
  151.2210  143.7199  158.1283 C   0  0  0  0  0  0  0  0  0  0  0  0
  152.0178  143.7844  159.2867 C   0  0  0  0  0  0  0  0  0  0  0  0
  152.2801  142.6144  160.0238 C   0  0  0  0  0  0  0  0  0  0  0  0
  151.7459  141.3807  159.6030 C   0  0  0  0  0  0  0  0  0  0  0  0
  148.7160  137.2065  160.4700 N   0  0  0  0  0  0  0  0  0  0  0  0
  148.0040  136.0585  160.7861 C   0  0  0  0  0  0  0  0  0  0  0  0
  147.8648  135.2577  159.6998 C   0  0  0  0  0  0  0  0  0  0  0  0
  147.1680  133.9675  159.7553 C   0  0  0  0  0  0  0  0  0  0  0  0
  147.0491  133.2199  158.7868 O   0  0  0  0  0  0  0  0  0  0  0  0
  146.6742  133.6853  160.9857 N   0  0  0  0  0  0  0  0  0  0  0  0
  146.7712  134.4488  162.1178 C   0  0  0  0  0  0  0  0  0  0  0  0
  146.2622  134.0518  163.1656 O   0  0  0  0  0  0  0  0  0  0  0  0
  147.4450  135.6419  162.0259 N   0  0  0  0  0  0  0  0  0  0  0  0
  147.6148  136.5281  163.1791 C   0  0  0  0  0  0  0  0  0  0  0  0
  146.1802  132.8097  161.0790 H   0  0  0  0  0  0  0  0  0  0  0  0
  149.8470  133.7211  153.9344 H   0  0  0  0  0  0  0  0  0  0  0  0
  148.7754  133.5401  155.3237 H   0  0  0  0  0  0  0  0  0  0  0  0
  150.4803  133.0688  155.4455 H   0  0  0  0  0  0  0  0  0  0  0  0
  150.5207  134.4240  157.3264 H   0  0  0  0  0  0  0  0  0  0  0  0
  150.6382  136.1698  157.1201 H   0  0  0  0  0  0  0  0  0  0  0  0
  148.0947  136.1384  156.5913 H   0  0  0  0  0  0  0  0  0  0  0  0
  148.0730  134.4919  157.1423 H   0  0  0  0  0  0  0  0  0  0  0  0
  149.8444  137.6967  157.3980 H   0  0  0  0  0  0  0  0  0  0  0  0
  150.1915  139.8526  156.9714 H   0  0  0  0  0  0  0  0  0  0  0  0
  150.0777  142.4620  156.8141 H   0  0  0  0  0  0  0  0  0  0  0  0
  151.0193  144.6168  157.5615 H   0  0  0  0  0  0  0  0  0  0  0  0
  152.4277  144.7303  159.6094 H   0  0  0  0  0  0  0  0  0  0  0  0
  152.8919  142.6624  160.9126 H   0  0  0  0  0  0  0  0  0  0  0  0
  151.9571  140.4918  160.1804 H   0  0  0  0  0  0  0  0  0  0  0  0
  147.1529  136.1592  164.0953 H   0  0  0  0  0  0  0  0  0  0  0  0
  147.1798  137.5048  162.9646 H   0  0  0  0  0  0  0  0  0  0  0  0
  148.6763  136.6721  163.3833 H   0  0  0  0  0  0  0  0  0  0  0  0
  1  2  1  0  0  0  0
  1 27  1  0  0  0  0
  1 28  1  0  0  0  0
  1 29  1  0  0  0  0
  2  3  1  0  0  0  0
  3  4  1  0  0  0  0
  3 30  1  0  0  0  0
  3 31  1  0  0  0  0
  4  5  1  0  0  0  0
  4 32  1  0  0  0  0
  4 33  1  0  0  0  0
  5 18  1  0  0  0  0
  5  6  1  0  0  0  0
  6  7  1  0  0  0  0
  6 16  2  0  0  0  0
  7  8  1  0  0  0  0
  7 34  1  0  0  0  0
  8  9  2  0  0  0  0
  9 10  1  0  0  0  0
  9 35  1  0  0  0  0
 10 15  1  0  0  0  0
 10 11  2  0  0  0  0
 11 12  1  0  0  0  0
 11 36  1  0  0  0  0
 12 13  2  0  0  0  0
 12 37  1  0  0  0  0
 13 14  1  0  0  0  0
 13 38  1  0  0  0  0
 14 15  2  0  0  0  0
 14 39  1  0  0  0  0
 15 40  1  0  0  0  0
 16 17  1  0  0  0  0
 17 24  1  0  0  0  0
 17 18  2  0  0  0  0
 18 19  1  0  0  0  0
 19 20  2  0  0  0  0
 19 21  1  0  0  0  0
 21 26  1  0  0  0  0
 21 22  1  0  0  0  0
 22 23  2  0  0  0  0
 22 24  1  0  0  0  0
 24 25  1  0  0  0  0
 25 41  1  0  0  0  0
 25 42  1  0  0  0  0
 25 43  1  0  0  0  0
M  END
> <s_m_source_file>
AV-unprocessed.smi

> <i_m_source_file_index>
481

> <i_lp_mmshare_version>
43012

> <i_f3d_flags>
0

> <s_epik_input>
W0NIM11uMWMoPU8pW25IXWMoPU8pYyhjMTIpbihbQ0gyXVtDSDJdT1tDSDNdKWMobjIpW05IXS9OPVtDSF0vYzNbY0hdW2NIXVtjSF1bY0hdW2NIXTM=

> <s_epik_cmdline>
J2VwaWtfcHl0aG9uJywgJy1waCcsICc3LjAnLCAnLXRuJywgJzgnLCAnLW1hJywgJzIwMCcsICctbWV0YWxfYmluZGluZycsICctaW1hZScsICc8aW5maWxlLm1hZT4nLCAnLW9tYWUnLCAnPG91dGZpbGUubWFlPic=

> <r_epik_Ionization_Penalty>
0.000595515

> <r_epik_Ionization_Penalty_Charging>
0.000305988

> <r_epik_Ionization_Penalty_Neutral>
0.000289528

> <r_epik_State_Penalty>
0.000184189

> <r_epik_Charging_Adjusted_Penalty>
0.000490177

> <i_epik_Tot_Q>
0

> <i_epik_Tot_abs_Q>
0

> <r_epik_Metal_State_Penalty>
0.173754

> <b_epik_Metal_Only>
0

> <s_epik_Chemistry_Notes>
This compound has an imine and may undergo hydrolysis.

> <s_lp_Force_Field>
OPLS_2005

> <r_lp_Energy>
32.4826

> <b_lp_Chiralities_Consistent>
1

> <s_lp_Variant>
AV-unprocessed.smi:481-1

> <Gold.Version>
5.8.1

> <Gold.Id.Protein>
6NUR|6NUR_protein|mol2

> <Gold.PLP.Fitness>
48.0059

> <Gold.PLP.PLP>
-46.6460

> <Gold.PLP.part.hbond>
-2.6113

> <Gold.PLP.part.metal>
0.0000

> <Gold.PLP.part.buried>
-7.0278

> <Gold.PLP.part.nonpolar>
-37.5796

> <Gold.PLP.part.repulsive>
0.2467

> <Gold.PLP.ligand.clash>
0.0000

> <Gold.PLP.ligand.torsion>
0.3262

> <Gold.PLP.Chemscore.Hbond>
0.6080

> <Gold.PLP.Chemscore.CHOScore>
0.0000

> <Gold.PLP.Chemscore.Metal>
0.0000

> <Gold.Chemscore.Hbonds>
donor molecule, donor type, donor heavy atom, donor atom, acceptor molecule, acceptor atom, score
      P1  H  6931  6943       L1    16  0.67
      P1  H  6934  6947       L1    16  0.03

> <Gold.PLP.Chemscore.Internal.Correction>
0.1884

> <Gold.Rescore>
     Score         DG    S(hbond)    S(metal)    S(lipo)     H(rot)  DE(clash)    DE(int)     intcor
     13.69     -14.07       0.70        0.00      87.20       1.54       0.03       0.35       ----

> <Gold.Chemscore.Fitness>
13.6935

> <Gold.Chemscore.DG>
-14.0707

> <Gold.Chemscore.ZeroCoef>
-5.4800

> <Gold.Chemscore.Hbond>
0.6982

> <Gold.Chemscore.Metal>
0.0000

> <Gold.Chemscore.Lipo>
87.2038

> <Gold.Chemscore.Internal_Hbond>
0.0000

> <Gold.Chemscore.DEClash>
0.0255

> <Gold.Chemscore.DEInternal>
0.3518

> <Gold.Chemscore.Rot>
1.5406

> <Gold.Chemscore.Internal.Correction>
   9.000000E+99

> <Gold.Chemscore.Hbonds>
donor molecule, donor type, donor heavy atom, donor atom, acceptor molecule, acceptor atom, score
      P1  H  6931  6943       L1    16  0.60
      P1  H  6934  6947       L1    16  0.02

> <Gold.Chemscore.Hbond.Weighted>
-2.3318

> <Gold.Chemscore.Metal.Weighted>
-0.0000

> <Gold.Chemscore.Lipo.Weighted>
-10.2028

> <Gold.Chemscore.Internal_Hbond.Weighted>
0.0000

> <Gold.Chemscore.DEClash.Weighted>
0.0255

> <Gold.Chemscore.DEInternal.Weighted>
0.3518

> <Gold.Chemscore.Rot.Weighted>
3.9440

> <Gold.Chemscore.Internal.Correction.Weighted>
   9.000000E+99

> <Gold.Protein.RotatedTorsions>
[ 6907 6896 6895 6894 ] final   81.92 input  -60.11 | X-H torsion
[ 7974 7965 7964 7962 ] final  141.30 input  175.53 | X-H torsion
[ 8008 7997 7996 7995 ] final  168.98 input   59.86 | X-H torsion
[ 10167 10162 10161 10158 ] final -162.16 input  -65.29 | X-H torsion
[ 10718 10713 10712 10709 ] final   92.11 input   66.30 | X-H torsion
[ 10763 10752 10751 10750 ] final   40.33 input  -60.55 | X-H torsion
[ 11005 11000 10999 10996 ] final   79.02 input  -57.11 | X-H torsion

> <Gold.Protein.ActiveResidues>
 VAL166  LYS551  ARG553  GLY616  TRP617  ASP618  TYR619  PRO620  LYS621  CYS622 
 ASP623  PHE694  ASN695  SER759  ASP760  ASP761  ALA762  ILE779  LEU786  VAL792 
 PHE793  MET794  SER795  GLU796  ALA797  LYS798  CYS799  TRP800  GLU811  SER814 

> <Gold.Protein.RotatedAtoms>
  152.5283  134.3129  159.9119 H   0  0  0  0  0  0  0  0  0  0  0  0  # atno 6907 bound_to 6896
  151.3078  133.4087  159.2652 H   0  0  0  0  0  0  0  0  0  0  0  0  # atno 6908 bound_to 6896
  151.0064  134.9379  159.8040 H   0  0  0  0  0  0  0  0  0  0  0  0  # atno 6909 bound_to 6896
  144.9109  139.5295  143.5709 H   0  0  0  0  0  0  0  0  0  0  0  0  # atno 7974 bound_to 7965
  156.1498  140.1576  156.8788 H   0  0  0  0  0  0  0  0  0  0  0  0  # atno 8008 bound_to 7997
  154.5061  140.0813  156.7934 H   0  0  0  0  0  0  0  0  0  0  0  0  # atno 8009 bound_to 7997
  155.3917  140.3410  155.4254 H   0  0  0  0  0  0  0  0  0  0  0  0  # atno 8010 bound_to 7997
  139.6412  144.0256  152.2093 H   0  0  0  0  0  0  0  0  0  0  0  0  # atno 10167 bound_to 10162
  157.6959  131.0431  150.3832 H   0  0  0  0  0  0  0  0  0  0  0  0  # atno 10718 bound_to 10713
  152.9940  135.6194  154.2608 H   0  0  0  0  0  0  0  0  0  0  0  0  # atno 10763 bound_to 10752
  154.2344  135.2791  155.2879 H   0  0  0  0  0  0  0  0  0  0  0  0  # atno 10764 bound_to 10752
  154.5422  135.5757  153.6907 H   0  0  0  0  0  0  0  0  0  0  0  0  # atno 10765 bound_to 10752
  139.9189  134.7810  156.1725 H   0  0  0  0  0  0  0  0  0  0  0  0  # atno 11005 bound_to 11000
  146.3158  139.7914  142.8985 LP  0  0  0  0  0  0  0  0  0  0  0  0  # atno 17320 bound_to 7965
  145.3457  141.0297  143.3367 LP  0  0  0  0  0  0  0  0  0  0  0  0  # atno 17321 bound_to 7965
  139.9946  144.6337  150.7784 LP  0  0  0  0  0  0  0  0  0  0  0  0  # atno 17342 bound_to 10162
  140.7492  143.2934  151.3269 LP  0  0  0  0  0  0  0  0  0  0  0  0  # atno 17343 bound_to 10162
  156.4244  130.3959  149.6803 LP  0  0  0  0  0  0  0  0  0  0  0  0  # atno 17370 bound_to 10713
  156.4042  130.7690  151.2700 LP  0  0  0  0  0  0  0  0  0  0  0  0  # atno 17371 bound_to 10713
  141.0692  133.6805  156.2105 LP  0  0  0  0  0  0  0  0  0  0  0  0  # atno 17394 bound_to 11000
  140.6535  134.5042  157.5579 LP  0  0  0  0  0  0  0  0  0  0  0  0  # atno 17395 bound_to 11000

$$$$
