AV-unprocessed.smi:798|AV-procd|sdf|3773|dock4
  -GOLD-   22720 1203D 1   1.00000     0.00000
 Structure written by MMmdl.
 34 36  0  0  0  0  0  0  0  0  1 V2000
  144.5881  136.6011  154.6816 O   0  0  0  0  0  0  0  0  0  0  0  0
  144.2103  137.6722  154.2062 C   0  0  0  0  0  0  0  0  0  0  0  0
  142.9605  137.9416  153.7902 N   0  0  0  0  0  0  0  0  0  0  0  0
  141.8274  137.0856  153.7946 C   0  0  0  0  0  0  0  0  0  0  0  0
  141.8721  135.7926  154.1522 N   0  0  0  0  0  0  0  0  0  0  0  0
  140.6257  135.1859  154.0650 N   0  0  0  0  0  0  0  0  0  0  0  0
  139.6914  136.0440  153.6455 C   0  0  0  0  0  0  0  0  0  0  0  0
  140.2429  137.6774  153.3158 S   0  0  0  0  0  0  0  0  0  0  0  0
  145.0168  138.7286  154.0300 N   0  0  0  0  0  0  0  0  0  0  0  0
  146.4377  138.7782  154.3806 C   0  0  2  0  0  0  0  0  0  0  0  0
  146.7523  139.8938  155.4082 C   0  0  2  0  0  0  0  0  0  0  0  0
  146.1708  141.2525  154.9617 C   0  0  0  0  0  0  0  0  0  0  0  0
  147.0612  141.6203  153.7614 C   0  0  0  0  0  0  0  0  0  0  0  0
  148.0560  140.4424  153.6957 C   0  0  1  0  0  0  0  0  0  0  0  0
  148.2414  140.1284  155.1754 C   0  0  0  0  0  0  0  0  0  0  0  0
  147.3837  139.1391  153.1979 C   0  0  2  0  0  0  0  0  0  0  0  0
  146.7684  139.1948  151.7809 C   0  0  0  0  0  0  0  0  0  0  0  0
  146.0360  138.0174  151.5163 O   0  0  0  0  0  0  0  0  0  0  0  0
  142.8012  138.8679  153.4225 H   0  0  0  0  0  0  0  0  0  0  0  0
  138.6702  135.7126  153.5292 H   0  0  0  0  0  0  0  0  0  0  0  0
  144.6223  139.5668  153.6287 H   0  0  0  0  0  0  0  0  0  0  0  0
  146.7438  137.8198  154.8052 H   0  0  0  0  0  0  0  0  0  0  0  0
  146.4888  139.6266  156.4320 H   0  0  0  0  0  0  0  0  0  0  0  0
  145.1122  141.2171  154.7053 H   0  0  0  0  0  0  0  0  0  0  0  0
  146.2845  141.9926  155.7548 H   0  0  0  0  0  0  0  0  0  0  0  0
  146.4938  141.7587  152.8423 H   0  0  0  0  0  0  0  0  0  0  0  0
  147.5894  142.5544  153.9573 H   0  0  0  0  0  0  0  0  0  0  0  0
  148.9793  140.6832  153.1676 H   0  0  0  0  0  0  0  0  0  0  0  0
  148.6451  140.9643  155.7498 H   0  0  0  0  0  0  0  0  0  0  0  0
  148.8534  139.2435  155.3596 H   0  0  0  0  0  0  0  0  0  0  0  0
  148.1583  138.3703  153.1656 H   0  0  0  0  0  0  0  0  0  0  0  0
  146.0826  140.0390  151.7049 H   0  0  0  0  0  0  0  0  0  0  0  0
  147.5230  139.3309  151.0072 H   0  0  0  0  0  0  0  0  0  0  0  0
  145.3306  138.2292  150.9239 H   0  0  0  0  0  0  0  0  0  0  0  0
  1  2  2  0  0  0  0
  2  3  1  0  0  0  0
  2  9  1  0  0  0  0
  3  4  1  0  0  0  0
  3 19  1  0  0  0  0
  4  8  1  0  0  0  0
  4  5  2  0  0  0  0
  5  6  1  0  0  0  0
  6  7  2  0  0  0  0
  7  8  1  0  0  0  0
  7 20  1  0  0  0  0
  9 10  1  0  0  0  0
  9 21  1  0  0  0  0
 10 16  1  0  0  0  0
 10 11  1  0  0  0  0
 10 22  1  0  0  0  0
 11 15  1  0  0  0  0
 11 12  1  0  0  0  0
 11 23  1  0  0  0  0
 12 13  1  0  0  0  0
 12 24  1  0  0  0  0
 12 25  1  0  0  0  0
 13 14  1  0  0  0  0
 13 26  1  0  0  0  0
 13 27  1  0  0  0  0
 14 15  1  0  0  0  0
 14 16  1  0  0  0  0
 14 28  1  0  0  0  0
 15 29  1  0  0  0  0
 15 30  1  0  0  0  0
 16 17  1  0  0  0  0
 16 31  1  0  0  0  0
 17 18  1  0  0  0  0
 17 32  1  0  0  0  0
 17 33  1  0  0  0  0
 18 34  1  0  0  0  0
M  END
> <s_m_source_file>
AV-unprocessed.smi

> <i_m_source_file_index>
798

> <i_lp_mmshare_version>
43012

> <i_f3d_flags>
0

> <s_epik_input>
W0NIMl0xW0NIMl1bQ0BASF0oW0NIMl0yKVtDQEBIXShbQ0gyXVtPSF0pW0NAQEhdKFtDQEhdMTIpW05IXUMoPU8pW05IXWMzbm5bY0hdczM=

> <s_epik_cmdline>
J2VwaWtfcHl0aG9uJywgJy1waCcsICc3LjAnLCAnLXRuJywgJzgnLCAnLW1hJywgJzIwMCcsICctbWV0YWxfYmluZGluZycsICctaW1hZScsICc8aW5maWxlLm1hZT4nLCAnLW9tYWUnLCAnPG91dGZpbGUubWFlPic=

> <r_lp_tautomer_probability>
1

> <r_epik_Ionization_Penalty>
0.000329046

> <r_epik_Ionization_Penalty_Charging>
0

> <r_epik_Ionization_Penalty_Neutral>
0.000329046

> <r_epik_State_Penalty>
-0

> <r_epik_Charging_Adjusted_Penalty>
0

> <i_epik_Tot_Q>
0

> <i_epik_Tot_abs_Q>
0

> <r_epik_Metal_State_Penalty>
0.173433

> <b_epik_Metal_Only>
0

> <s_lp_Force_Field>
OPLS_2005

> <r_lp_Energy>
50.5105

> <b_lp_Chiralities_Consistent>
1

> <s_lp_Variant>
AV-unprocessed.smi:798-5

> <Gold.Version>
5.8.1

> <Gold.Id.Protein>
6NUR|6NUR_protein|mol2

> <Gold.PLP.Fitness>
39.7343

> <Gold.PLP.PLP>
-27.9433

> <Gold.PLP.part.hbond>
-4.7958

> <Gold.PLP.part.metal>
0.0000

> <Gold.PLP.part.buried>
-1.7507

> <Gold.PLP.part.nonpolar>
-20.1598

> <Gold.PLP.part.repulsive>
0.2118

> <Gold.PLP.ligand.clash>
0.0000

> <Gold.PLP.ligand.torsion>
0.0489

> <Gold.PLP.Chemscore.Hbond>
3.9600

> <Gold.PLP.Chemscore.CHOScore>
0.0000

> <Gold.PLP.Chemscore.Metal>
0.0000

> <Gold.Chemscore.Hbonds>
donor molecule, donor type, donor heavy atom, donor atom, acceptor molecule, acceptor atom, score
      L1  H     3    19       P1 10175  0.93
      L1  H     9    21       P1 10175  1.00
      L1  H    18    34       P1 10171  1.00
      P1  H 11000 11005       L1     6  1.00
      L1  C     7    20       P1 10187  0.03

> <Gold.PLP.Chemscore.Internal.Correction>
0.0087

> <Gold.Rescore>
     Score         DG    S(hbond)    S(metal)    S(lipo)     H(rot)  DE(clash)    DE(int)     intcor
     15.87     -19.74       3.67        0.00      59.59       1.94       1.08       2.79       ----

> <Gold.Chemscore.Fitness>
15.8696

> <Gold.Chemscore.DG>
-19.7391

> <Gold.Chemscore.ZeroCoef>
-5.4800

> <Gold.Chemscore.Hbond>
3.6717

> <Gold.Chemscore.Metal>
0.0000

> <Gold.Chemscore.Lipo>
59.5950

> <Gold.Chemscore.Internal_Hbond>
0.0000

> <Gold.Chemscore.DEClash>
1.0760

> <Gold.Chemscore.DEInternal>
2.7935

> <Gold.Chemscore.Rot>
1.9442

> <Gold.Chemscore.Internal.Correction>
   9.000000E+99

> <Gold.Chemscore.Hbonds>
donor molecule, donor type, donor heavy atom, donor atom, acceptor molecule, acceptor atom, score
      L1  H     3    19       P1 10175  0.85
      L1  H     9    21       P1 10175  0.98
      L1  H    18    34       P1 10171  1.00
      P1  H 11000 11005       L1     6  0.57

> <Gold.Chemscore.Hbond.Weighted>
-12.2635

> <Gold.Chemscore.Metal.Weighted>
-0.0000

> <Gold.Chemscore.Lipo.Weighted>
-6.9726

> <Gold.Chemscore.Internal_Hbond.Weighted>
0.0000

> <Gold.Chemscore.DEClash.Weighted>
1.0760

> <Gold.Chemscore.DEInternal.Weighted>
2.7935

> <Gold.Chemscore.Rot.Weighted>
4.9771

> <Gold.Chemscore.Internal.Correction.Weighted>
   9.000000E+99

> <Gold.Protein.RotatedTorsions>
[ 6907 6896 6895 6894 ] final  -94.79 input  -60.11 | X-H torsion
[ 7974 7965 7964 7962 ] final -138.55 input  175.53 | X-H torsion
[ 8008 7997 7996 7995 ] final -171.06 input   59.86 | X-H torsion
[ 10167 10162 10161 10158 ] final  176.54 input  -65.29 | X-H torsion
[ 10718 10713 10712 10709 ] final  177.57 input   66.30 | X-H torsion
[ 10763 10752 10751 10750 ] final -105.96 input  -60.55 | X-H torsion
[ 11005 11000 10999 10996 ] final   42.57 input  -57.11 | X-H torsion

> <Gold.Protein.ActiveResidues>
 VAL166  LYS551  ARG553  GLY616  TRP617  ASP618  TYR619  PRO620  LYS621  CYS622 
 ASP623  PHE694  ASN695  SER759  ASP760  ASP761  ALA762  ILE779  LEU786  VAL792 
 PHE793  MET794  SER795  GLU796  ALA797  LYS798  CYS799  TRP800  GLU811  SER814 

> <Gold.Protein.RotatedAtoms>
  150.6949  134.1758  159.4229 H   0  0  0  0  0  0  0  0  0  0  0  0  # atno 6907 bound_to 6896
  151.9734  135.0063  160.0563 H   0  0  0  0  0  0  0  0  0  0  0  0  # atno 6908 bound_to 6896
  152.1821  133.4679  159.5000 H   0  0  0  0  0  0  0  0  0  0  0  0  # atno 6909 bound_to 6896
  144.8749  140.6422  143.5243 H   0  0  0  0  0  0  0  0  0  0  0  0  # atno 7974 bound_to 7965
  155.9265  140.1083  157.1166 H   0  0  0  0  0  0  0  0  0  0  0  0  # atno 8008 bound_to 7997
  154.4063  140.1246  156.4813 H   0  0  0  0  0  0  0  0  0  0  0  0  # atno 8009 bound_to 7997
  155.7132  140.3470  155.4985 H   0  0  0  0  0  0  0  0  0  0  0  0  # atno 8010 bound_to 7997
  139.5218  144.2904  152.0469 H   0  0  0  0  0  0  0  0  0  0  0  0  # atno 10167 bound_to 10162
  156.9033  130.9886  151.3032 H   0  0  0  0  0  0  0  0  0  0  0  0  # atno 10718 bound_to 10713
  154.7981  135.4729  154.0209 H   0  0  0  0  0  0  0  0  0  0  0  0  # atno 10763 bound_to 10752
  153.1736  135.6829  153.8580 H   0  0  0  0  0  0  0  0  0  0  0  0  # atno 10764 bound_to 10752
  153.8154  135.3211  155.3383 H   0  0  0  0  0  0  0  0  0  0  0  0  # atno 10765 bound_to 10752
  140.1726  134.4203  155.8248 H   0  0  0  0  0  0  0  0  0  0  0  0  # atno 11005 bound_to 11000
  145.4061  139.1588  143.4151 LP  0  0  0  0  0  0  0  0  0  0  0  0  # atno 17320 bound_to 7965
  146.2956  140.4162  142.8723 LP  0  0  0  0  0  0  0  0  0  0  0  0  # atno 17321 bound_to 7965
  140.2355  144.4324  150.6282 LP  0  0  0  0  0  0  0  0  0  0  0  0  # atno 17342 bound_to 10162
  140.6326  143.2190  151.6463 LP  0  0  0  0  0  0  0  0  0  0  0  0  # atno 17343 bound_to 10162
  157.6012  130.8514  149.8805 LP  0  0  0  0  0  0  0  0  0  0  0  0  # atno 17370 bound_to 10713
  156.0571  130.3706  150.1066 LP  0  0  0  0  0  0  0  0  0  0  0  0  # atno 17371 bound_to 10713
  141.2218  133.6963  156.7791 LP  0  0  0  0  0  0  0  0  0  0  0  0  # atno 17394 bound_to 11000
  140.2359  134.8650  157.3525 LP  0  0  0  0  0  0  0  0  0  0  0  0  # atno 17395 bound_to 11000

$$$$
