AV-unprocessed.smi:2837|AV-procd|sdf|10923|dock1
  -GOLD-   2272015373D 1   1.00000     0.00000
 Structure written by MMmdl.
 32 34  0  0  0  0  0  0  0  0  1 V2000
  154.1057  142.3499  162.7644 F   0  0  0  0  0  0  0  0  0  0  0  0
  153.0907  142.5098  161.8800 C   0  0  0  0  0  0  0  0  0  0  0  0
  152.4969  143.6971  162.1509 F   0  0  0  0  0  0  0  0  0  0  0  0
  153.5662  142.5137  160.6062 O   0  0  0  0  0  0  0  0  0  0  0  0
  152.6815  142.6201  159.5568 C   0  0  0  0  0  0  0  0  0  0  0  0
  152.4880  143.8046  158.8078 C   0  0  0  0  0  0  0  0  0  0  0  0
  151.5443  143.8072  157.7630 C   0  0  0  0  0  0  0  0  0  0  0  0
  150.8149  142.6295  157.5007 C   0  0  0  0  0  0  0  0  0  0  0  0
  149.8781  142.6405  156.4575 N   0  0  0  0  0  0  0  0  0  0  0  0
  149.2179  141.4165  156.0163 C   0  0  1  0  0  0  0  0  0  0  0  0
  147.7224  141.6082  155.7316 C   0  0  0  0  0  0  0  0  0  0  0  0
  147.6121  141.1315  154.2781 C   0  0  2  0  0  0  0  0  0  0  0  0
  147.8270  139.6179  154.1435 C   0  0  0  0  0  0  0  0  0  0  0  0
  149.3337  139.4956  154.3686 C   0  0  0  0  0  0  0  0  0  0  0  0
  149.7321  140.9522  154.6429 C   0  0  1  0  0  0  0  0  0  0  0  0
  148.8391  141.6179  153.7642 O   0  0  0  0  0  0  0  0  0  0  0  0
  150.9890  141.4949  158.2183 N   0  0  0  0  0  0  0  0  0  0  0  0
  151.8946  141.5001  159.2196 C   0  0  0  0  0  0  0  0  0  0  0  0
  152.3494  141.7248  162.0311 H   0  0  0  0  0  0  0  0  0  0  0  0
  153.0428  144.7053  159.0238 H   0  0  0  0  0  0  0  0  0  0  0  0
  151.3830  144.7012  157.1786 H   0  0  0  0  0  0  0  0  0  0  0  0
  149.5162  143.5234  156.1272 H   0  0  0  0  0  0  0  0  0  0  0  0
  149.3865  140.6327  156.7561 H   0  0  0  0  0  0  0  0  0  0  0  0
  147.0896  141.0330  156.4082 H   0  0  0  0  0  0  0  0  0  0  0  0
  147.4288  142.6565  155.8057 H   0  0  0  0  0  0  0  0  0  0  0  0
  146.7289  141.5023  153.7573 H   0  0  0  0  0  0  0  0  0  0  0  0
  147.2417  139.0509  154.8681 H   0  0  0  0  0  0  0  0  0  0  0  0
  147.5610  139.2741  153.1434 H   0  0  0  0  0  0  0  0  0  0  0  0
  149.5874  138.8297  155.1939 H   0  0  0  0  0  0  0  0  0  0  0  0
  149.8249  139.1251  153.4681 H   0  0  0  0  0  0  0  0  0  0  0  0
  150.7878  141.1566  154.4606 H   0  0  0  0  0  0  0  0  0  0  0  0
  151.9979  140.5767  159.7701 H   0  0  0  0  0  0  0  0  0  0  0  0
  1  2  1  0  0  0  0
  2  3  1  0  0  0  0
  2  4  1  0  0  0  0
  2 19  1  0  0  0  0
  4  5  1  0  0  0  0
  5 18  1  0  0  0  0
  5  6  2  0  0  0  0
  6  7  1  0  0  0  0
  6 20  1  0  0  0  0
  7  8  2  0  0  0  0
  7 21  1  0  0  0  0
  8  9  1  0  0  0  0
  8 17  1  0  0  0  0
  9 10  1  0  0  0  0
  9 22  1  0  0  0  0
 10 15  1  0  0  0  0
 10 11  1  0  0  0  0
 10 23  1  0  0  0  0
 11 12  1  0  0  0  0
 11 24  1  0  0  0  0
 11 25  1  0  0  0  0
 12 16  1  0  0  0  0
 12 13  1  0  0  0  0
 12 26  1  0  0  0  0
 13 14  1  0  0  0  0
 13 27  1  0  0  0  0
 13 28  1  0  0  0  0
 14 15  1  0  0  0  0
 14 29  1  0  0  0  0
 14 30  1  0  0  0  0
 15 16  1  0  0  0  0
 15 31  1  0  0  0  0
 17 18  2  0  0  0  0
 18 32  1  0  0  0  0
M  END
> <s_m_source_file>
AV-unprocessed.smi

> <i_m_source_file_index>
2837

> <i_lp_mmshare_version>
43012

> <i_f3d_flags>
0

> <s_epik_input>
RltDSF0oRilPYzFbY0hdW2NIXWMobltjSF0xKVtOSF1bQ0BIXShbQ0gyXVtDQEBIXTIzKVtDQEBIXShPMylbQ0gyXVtDSDJdMg==

> <s_epik_cmdline>
J2VwaWtfcHl0aG9uJywgJy1waCcsICc3LjAnLCAnLXRuJywgJzgnLCAnLW1hJywgJzIwMCcsICctbWV0YWxfYmluZGluZycsICctaW1hZScsICc8aW5maWxlLm1hZT4nLCAnLW9tYWUnLCAnPG91dGZpbGUubWFlPic=

> <r_lp_tautomer_probability>
1

> <r_epik_Ionization_Penalty>
0.0124072

> <r_epik_Ionization_Penalty_Charging>
0

> <r_epik_Ionization_Penalty_Neutral>
0.0124072

> <r_epik_State_Penalty>
0.00959565

> <r_epik_Charging_Adjusted_Penalty>
0.00959565

> <i_epik_Tot_Q>
0

> <i_epik_Tot_abs_Q>
0

> <r_epik_Metal_State_Penalty>
9.67369e-06

> <b_epik_Metal_Only>
0

> <s_lp_Force_Field>
OPLS_2005

> <r_lp_Energy>
39.7128

> <b_lp_Chiralities_Consistent>
1

> <s_lp_Variant>
AV-unprocessed.smi:2837-4

> <Gold.Version>
5.8.1

> <Gold.Id.Protein>
6NUR|6NUR_protein|mol2

> <Gold.PLP.Fitness>
46.5568

> <Gold.PLP.PLP>
-41.7312

> <Gold.PLP.part.hbond>
-2.9557

> <Gold.PLP.part.metal>
0.0000

> <Gold.PLP.part.buried>
-1.7907

> <Gold.PLP.part.nonpolar>
-39.1635

> <Gold.PLP.part.repulsive>
2.2115

> <Gold.PLP.ligand.clash>
0.0000

> <Gold.PLP.ligand.torsion>
0.3950

> <Gold.PLP.Chemscore.Hbond>
1.8640

> <Gold.PLP.Chemscore.CHOScore>
0.0000

> <Gold.PLP.Chemscore.Metal>
0.0000

> <Gold.Chemscore.Hbonds>
donor molecule, donor type, donor heavy atom, donor atom, acceptor molecule, acceptor atom, score
      L1  H     9    22       P1  8028  0.75
      P1  H  8011  8017       L1    16  0.67

> <Gold.PLP.Chemscore.Internal.Correction>
0.0236

> <Gold.Rescore>
     Score         DG    S(hbond)    S(metal)    S(lipo)     H(rot)  DE(clash)    DE(int)     intcor
     17.17     -18.33       1.68        0.00      90.88       1.32       0.94       0.22       ----

> <Gold.Chemscore.Fitness>
17.1741

> <Gold.Chemscore.DG>
-18.3345

> <Gold.Chemscore.ZeroCoef>
-5.4800

> <Gold.Chemscore.Hbond>
1.6780

> <Gold.Chemscore.Metal>
0.0000

> <Gold.Chemscore.Lipo>
90.8760

> <Gold.Chemscore.Internal_Hbond>
0.0000

> <Gold.Chemscore.DEClash>
0.9385

> <Gold.Chemscore.DEInternal>
0.2220

> <Gold.Chemscore.Rot>
1.3213

> <Gold.Chemscore.Internal.Correction>
   9.000000E+99

> <Gold.Chemscore.Hbonds>
donor molecule, donor type, donor heavy atom, donor atom, acceptor molecule, acceptor atom, score
      L1  H     9    22       P1  8028  0.75
      P1  H  8011  8017       L1    16  0.53

> <Gold.Chemscore.Hbond.Weighted>
-5.6046

> <Gold.Chemscore.Metal.Weighted>
-0.0000

> <Gold.Chemscore.Lipo.Weighted>
-10.6325

> <Gold.Chemscore.Internal_Hbond.Weighted>
0.0000

> <Gold.Chemscore.DEClash.Weighted>
0.9385

> <Gold.Chemscore.DEInternal.Weighted>
0.2220

> <Gold.Chemscore.Rot.Weighted>
3.3825

> <Gold.Chemscore.Internal.Correction.Weighted>
   9.000000E+99

> <Gold.Protein.RotatedTorsions>
[ 6907 6896 6895 6894 ] final   60.78 input  -60.11 | X-H torsion
[ 7974 7965 7964 7962 ] final -161.95 input  175.53 | X-H torsion
[ 8008 7997 7996 7995 ] final -107.77 input   59.86 | X-H torsion
[ 10167 10162 10161 10158 ] final  142.64 input  -65.29 | X-H torsion
[ 10718 10713 10712 10709 ] final  139.61 input   66.30 | X-H torsion
[ 10763 10752 10751 10750 ] final -126.82 input  -60.55 | X-H torsion
[ 11005 11000 10999 10996 ] final  116.02 input  -57.11 | X-H torsion

> <Gold.Protein.ActiveResidues>
 VAL166  LYS551  ARG553  GLY616  TRP617  ASP618  TYR619  PRO620  LYS621  CYS622 
 ASP623  PHE694  ASN695  SER759  ASP760  ASP761  ALA762  ILE779  LEU786  VAL792 
 PHE793  MET794  SER795  GLU796  ALA797  LYS798  CYS799  TRP800  GLU811  SER814 

> <Gold.Protein.RotatedAtoms>
  152.4032  134.6251  160.0060 H   0  0  0  0  0  0  0  0  0  0  0  0  # atno 6907 bound_to 6896
  151.6450  133.3318  159.3147 H   0  0  0  0  0  0  0  0  0  0  0  0  # atno 6908 bound_to 6896
  150.7930  134.7010  159.6595 H   0  0  0  0  0  0  0  0  0  0  0  0  # atno 6909 bound_to 6896
  144.7373  140.3323  143.6150 H   0  0  0  0  0  0  0  0  0  0  0  0  # atno 7974 bound_to 7965
  154.9344  140.0404  157.2064 H   0  0  0  0  0  0  0  0  0  0  0  0  # atno 8008 bound_to 7997
  154.8130  140.2871  155.5818 H   0  0  0  0  0  0  0  0  0  0  0  0  # atno 8009 bound_to 7997
  156.2973  140.2533  156.3022 H   0  0  0  0  0  0  0  0  0  0  0  0  # atno 8010 bound_to 7997
  139.4989  144.6094  151.6306 H   0  0  0  0  0  0  0  0  0  0  0  0  # atno 10167 bound_to 10162
  157.4125  131.1029  151.0439 H   0  0  0  0  0  0  0  0  0  0  0  0  # atno 10718 bound_to 10713
  154.8748  135.3982  154.3493 H   0  0  0  0  0  0  0  0  0  0  0  0  # atno 10763 bound_to 10752
  153.4281  135.7024  153.6254 H   0  0  0  0  0  0  0  0  0  0  0  0  # atno 10764 bound_to 10752
  153.4887  135.3753  155.2450 H   0  0  0  0  0  0  0  0  0  0  0  0  # atno 10765 bound_to 10752
  139.9028  134.9592  156.7134 H   0  0  0  0  0  0  0  0  0  0  0  0  # atno 11005 bound_to 11000
  145.7459  139.1778  143.2349 LP  0  0  0  0  0  0  0  0  0  0  0  0  # atno 17320 bound_to 7965
  146.1098  140.7442  142.9508 LP  0  0  0  0  0  0  0  0  0  0  0  0  # atno 17321 bound_to 7965
  140.5764  144.0021  150.6244 LP  0  0  0  0  0  0  0  0  0  0  0  0  # atno 17342 bound_to 10162
  140.3155  143.3170  152.0836 LP  0  0  0  0  0  0  0  0  0  0  0  0  # atno 17343 bound_to 10162
  157.1399  130.6138  149.5552 LP  0  0  0  0  0  0  0  0  0  0  0  0  # atno 17370 bound_to 10713
  155.9855  130.4885  150.7034 LP  0  0  0  0  0  0  0  0  0  0  0  0  # atno 17371 bound_to 10713
  140.7058  133.9267  155.8053 LP  0  0  0  0  0  0  0  0  0  0  0  0  # atno 17394 bound_to 11000
  141.0338  134.0719  157.3983 LP  0  0  0  0  0  0  0  0  0  0  0  0  # atno 17395 bound_to 11000

$$$$
