AV-unprocessed.smi:3199|AV-procd|sdf|12234|dock9
  -GOLD-   2272018 73D 1   1.00000     0.00000
 Structure written by MMmdl.
 36 37  0  0  0  0  0  0  0  0  2 V2000
  146.6327  138.7050  152.0129 C   0  0  0  0  0  0  0  0  0  0  0  0
  147.5629  139.4439  152.9519 C   0  0  0  0  0  0  0  0  0  0  0  0
  147.3129  140.7668  153.3756 C   0  0  0  0  0  0  0  0  0  0  0  0
  148.2269  141.3954  154.2466 C   0  0  0  0  0  0  0  0  0  0  0  0
  149.3729  140.6904  154.6749 C   0  0  0  0  0  0  0  0  0  0  0  0
  150.3783  141.3429  155.6037 C   0  0  0  0  0  0  0  0  0  0  0  0
  150.6526  140.4978  156.8546 C   0  0  0  0  0  0  0  0  0  0  0  0
  151.6863  141.1191  157.6699 N   0  0  0  0  0  0  0  0  0  0  0  0
  151.4521  141.9857  158.6654 C   0  0  0  0  0  0  0  0  0  0  0  0
  150.3203  142.3454  158.9909 O   0  0  0  0  0  0  0  0  0  0  0  0
  152.6889  142.5057  159.4087 C   0  0  1  0  0  0  0  0  0  0  0  0
  152.3920  143.4976  160.5508 C   0  0  0  0  0  0  0  0  0  0  0  0
  152.7826  142.7341  161.8018 C   0  0  0  0  0  0  0  0  0  0  0  0
  153.8591  141.7957  161.2755 C   0  0  0  0  0  0  0  0  0  0  0  0
  153.3390  141.3930  160.0190 O   0  0  0  0  0  0  0  0  0  0  0  0
  149.5690  139.3682  154.2217 C   0  0  0  0  0  0  0  0  0  0  0  0
  148.6695  138.8010  153.3879 N   0  3  0  0  0  0  0  0  0  0  0  0
  145.7411  139.2952  151.7986 H   0  0  0  0  0  0  0  0  0  0  0  0
  146.3163  137.7594  152.4541 H   0  0  0  0  0  0  0  0  0  0  0  0
  147.1362  138.4946  151.0689 H   0  0  0  0  0  0  0  0  0  0  0  0
  146.4337  141.2967  153.0383 H   0  0  0  0  0  0  0  0  0  0  0  0
  148.0492  142.4080  154.5793 H   0  0  0  0  0  0  0  0  0  0  0  0
  151.3067  141.5117  155.0560 H   0  0  0  0  0  0  0  0  0  0  0  0
  150.0082  142.3281  155.8917 H   0  0  0  0  0  0  0  0  0  0  0  0
  149.7424  140.3931  157.4475 H   0  0  0  0  0  0  0  0  0  0  0  0
  150.9692  139.4937  156.5664 H   0  0  0  0  0  0  0  0  0  0  0  0
  152.6445  140.8695  157.4724 H   0  0  0  0  0  0  0  0  0  0  0  0
  153.3768  142.9689  158.6989 H   0  0  0  0  0  0  0  0  0  0  0  0
  153.0247  144.3793  160.4419 H   0  0  0  0  0  0  0  0  0  0  0  0
  151.3594  143.8461  160.5922 H   0  0  0  0  0  0  0  0  0  0  0  0
  153.1338  143.3805  162.6066 H   0  0  0  0  0  0  0  0  0  0  0  0
  151.9331  142.1572  162.1697 H   0  0  0  0  0  0  0  0  0  0  0  0
  154.8029  142.3238  161.1301 H   0  0  0  0  0  0  0  0  0  0  0  0
  154.0354  140.9429  161.9315 H   0  0  0  0  0  0  0  0  0  0  0  0
  150.4128  138.7518  154.4963 H   0  0  0  0  0  0  0  0  0  0  0  0
  148.8340  137.8448  153.0718 H   0  0  0  0  0  0  0  0  0  0  0  0
  1  2  1  0  0  0  0
  1 18  1  0  0  0  0
  1 19  1  0  0  0  0
  1 20  1  0  0  0  0
  2 17  1  0  0  0  0
  2  3  2  0  0  0  0
  3  4  1  0  0  0  0
  3 21  1  0  0  0  0
  4  5  2  0  0  0  0
  4 22  1  0  0  0  0
  5  6  1  0  0  0  0
  5 16  1  0  0  0  0
  6  7  1  0  0  0  0
  6 23  1  0  0  0  0
  6 24  1  0  0  0  0
  7  8  1  0  0  0  0
  7 25  1  0  0  0  0
  7 26  1  0  0  0  0
  8  9  1  0  0  0  0
  8 27  1  0  0  0  0
  9 10  2  0  0  0  0
  9 11  1  0  0  0  0
 11 15  1  0  0  0  0
 11 12  1  0  0  0  0
 11 28  1  0  0  0  0
 12 13  1  0  0  0  0
 12 29  1  0  0  0  0
 12 30  1  0  0  0  0
 13 14  1  0  0  0  0
 13 31  1  0  0  0  0
 13 32  1  0  0  0  0
 14 15  1  0  0  0  0
 14 33  1  0  0  0  0
 14 34  1  0  0  0  0
 16 17  2  0  0  0  0
 16 35  1  0  0  0  0
 17 36  1  0  0  0  0
M  CHG  1  17   1
M  END
> <s_m_source_file>
AV-unprocessed.smi

> <i_m_source_file_index>
3199

> <i_lp_mmshare_version>
43012

> <i_f3d_flags>
0

> <s_epik_input>
W0NIM11jMVtjSF1bY0hdYyhbY0hdbjEpW0NIMl1bQ0gyXVtOSF1DKD1PKVtDQEBIXTJbQ0gyXVtDSDJdW0NIMl1PMg==

> <s_epik_cmdline>
J2VwaWtfcHl0aG9uJywgJy1waCcsICc3LjAnLCAnLXRuJywgJzgnLCAnLW1hJywgJzIwMCcsICctbWV0YWxfYmluZGluZycsICctaW1hZScsICc8aW5maWxlLm1hZT4nLCAnLW9tYWUnLCAnPG91dGZpbGUubWFlPic=

> <r_epik_Ionization_Penalty>
1.4683

> <r_epik_Ionization_Penalty_Charging>
1.4683

> <r_epik_Ionization_Penalty_Neutral>
5.71603e-08

> <r_epik_State_Penalty>
1.5559

> <r_epik_Charging_Adjusted_Penalty>
3.0242

> <i_epik_Tot_Q>
1

> <i_epik_Tot_abs_Q>
1

> <r_epik_Metal_State_Penalty>
1.60421

> <b_epik_Metal_Only>
0

> <s_lp_Force_Field>
OPLS_2005

> <r_lp_Energy>
24.4706

> <b_lp_Chiralities_Consistent>
1

> <s_lp_Variant>
AV-unprocessed.smi:3199-4

> <Gold.Version>
5.8.1

> <Gold.Id.Protein>
6NUR|6NUR_protein|mol2

> <Gold.PLP.Fitness>
47.4683

> <Gold.PLP.PLP>
-41.9352

> <Gold.PLP.part.hbond>
-2.7830

> <Gold.PLP.part.metal>
0.0000

> <Gold.PLP.part.buried>
-1.7972

> <Gold.PLP.part.nonpolar>
-37.2886

> <Gold.PLP.part.repulsive>
0.1753

> <Gold.PLP.ligand.clash>
0.0000

> <Gold.PLP.ligand.torsion>
0.2379

> <Gold.PLP.Chemscore.Hbond>
2.0000

> <Gold.PLP.Chemscore.CHOScore>
0.0000

> <Gold.PLP.Chemscore.Metal>
0.0000

> <Gold.Chemscore.Hbonds>
donor molecule, donor type, donor heavy atom, donor atom, acceptor molecule, acceptor atom, score
      L1  H    17    36       P1  7948  2.00

> <Gold.PLP.Chemscore.Internal.Correction>
0.0089

> <Gold.Rescore>
     Score         DG    S(hbond)    S(metal)    S(lipo)     H(rot)  DE(clash)    DE(int)     intcor
     16.61     -17.04       1.00        0.00     104.48       1.56       0.32       0.12       ----

> <Gold.Chemscore.Fitness>
16.6051

> <Gold.Chemscore.DG>
-17.0357

> <Gold.Chemscore.ZeroCoef>
-5.4800

> <Gold.Chemscore.Hbond>
0.9967

> <Gold.Chemscore.Metal>
0.0000

> <Gold.Chemscore.Lipo>
104.4762

> <Gold.Chemscore.Internal_Hbond>
0.0000

> <Gold.Chemscore.DEClash>
0.3152

> <Gold.Chemscore.DEInternal>
0.1154

> <Gold.Chemscore.Rot>
1.5613

> <Gold.Chemscore.Internal.Correction>
   9.000000E+99

> <Gold.Chemscore.Hbonds>
donor molecule, donor type, donor heavy atom, donor atom, acceptor molecule, acceptor atom, score
      L1  H    17    36       P1  7948  0.96

> <Gold.Chemscore.Hbond.Weighted>
-3.3288

> <Gold.Chemscore.Metal.Weighted>
-0.0000

> <Gold.Chemscore.Lipo.Weighted>
-12.2237

> <Gold.Chemscore.Internal_Hbond.Weighted>
0.0000

> <Gold.Chemscore.DEClash.Weighted>
0.3152

> <Gold.Chemscore.DEInternal.Weighted>
0.1154

> <Gold.Chemscore.Rot.Weighted>
3.9969

> <Gold.Chemscore.Internal.Correction.Weighted>
   9.000000E+99

> <Gold.Protein.RotatedTorsions>
[ 6907 6896 6895 6894 ] final   53.01 input  -60.11 | X-H torsion
[ 7974 7965 7964 7962 ] final -100.30 input  175.53 | X-H torsion
[ 8008 7997 7996 7995 ] final  142.26 input   59.86 | X-H torsion
[ 10167 10162 10161 10158 ] final  159.39 input  -65.29 | X-H torsion
[ 10718 10713 10712 10709 ] final   44.64 input   66.30 | X-H torsion
[ 10763 10752 10751 10750 ] final   87.34 input  -60.55 | X-H torsion
[ 11005 11000 10999 10996 ] final -158.18 input  -57.11 | X-H torsion

> <Gold.Protein.ActiveResidues>
 VAL166  LYS551  ARG553  GLY616  TRP617  ASP618  TYR619  PRO620  LYS621  CYS622 
 ASP623  PHE694  ASN695  SER759  ASP760  ASP761  ALA762  ILE779  LEU786  VAL792 
 PHE793  MET794  SER795  GLU796  ALA797  LYS798  CYS799  TRP800  GLU811  SER814 

> <Gold.Protein.RotatedAtoms>
  152.3292  134.7281  160.0293 H   0  0  0  0  0  0  0  0  0  0  0  0  # atno 6907 bound_to 6896
  151.7703  133.3335  159.3450 H   0  0  0  0  0  0  0  0  0  0  0  0  # atno 6908 bound_to 6896
  150.7413  134.5956  159.6054 H   0  0  0  0  0  0  0  0  0  0  0  0  # atno 6909 bound_to 6896
  145.2964  140.9366  143.2848 H   0  0  0  0  0  0  0  0  0  0  0  0  # atno 7974 bound_to 7965
  156.2952  140.2293  156.4699 H   0  0  0  0  0  0  0  0  0  0  0  0  # atno 8008 bound_to 7997
  154.7944  140.0452  157.1246 H   0  0  0  0  0  0  0  0  0  0  0  0  # atno 8009 bound_to 7997
  154.9607  140.3054  155.5036 H   0  0  0  0  0  0  0  0  0  0  0  0  # atno 8010 bound_to 7997
  139.4832  144.4734  151.8544 H   0  0  0  0  0  0  0  0  0  0  0  0  # atno 10167 bound_to 10162
  157.4290  130.8014  149.7586 H   0  0  0  0  0  0  0  0  0  0  0  0  # atno 10718 bound_to 10713
  153.1659  135.4547  154.9836 H   0  0  0  0  0  0  0  0  0  0  0  0  # atno 10763 bound_to 10752
  154.7931  135.3228  154.7733 H   0  0  0  0  0  0  0  0  0  0  0  0  # atno 10764 bound_to 10752
  153.8216  135.6946  153.4881 H   0  0  0  0  0  0  0  0  0  0  0  0  # atno 10765 bound_to 10752
  140.6564  134.4396  157.5235 H   0  0  0  0  0  0  0  0  0  0  0  0  # atno 11005 bound_to 11000
  144.9130  139.4505  143.6578 LP  0  0  0  0  0  0  0  0  0  0  0  0  # atno 17320 bound_to 7965
  146.3167  139.7948  142.8978 LP  0  0  0  0  0  0  0  0  0  0  0  0  # atno 17321 bound_to 7965
  140.4205  144.2250  150.5887 LP  0  0  0  0  0  0  0  0  0  0  0  0  # atno 17342 bound_to 10162
  140.4879  143.2357  151.8862 LP  0  0  0  0  0  0  0  0  0  0  0  0  # atno 17343 bound_to 10162
  155.9907  130.3943  150.3018 LP  0  0  0  0  0  0  0  0  0  0  0  0  # atno 17370 bound_to 10713
  157.1173  131.0237  151.3023 LP  0  0  0  0  0  0  0  0  0  0  0  0  # atno 17371 bound_to 10713
  139.9028  134.8517  156.1826 LP  0  0  0  0  0  0  0  0  0  0  0  0  # atno 17394 bound_to 11000
  141.0498  133.6894  156.1751 LP  0  0  0  0  0  0  0  0  0  0  0  0  # atno 17395 bound_to 11000

$$$$
