AV-unprocessed.smi:2976|AV-procd|sdf|11359|dock4
  -GOLD-   2272016273D 1   1.00000     0.00000
 Structure written by MMmdl.
 40 41  0  0  0  0  0  0  0  0  1 V2000
  152.7938  143.6310  163.1270 C   0  0  0  0  0  0  0  0  0  0  0  0
  152.7372  142.7253  161.8840 C   0  0  2  0  0  0  0  0  0  0  0  0
  153.8664  141.6759  161.9512 C   0  0  0  0  0  0  0  0  0  0  0  0
  153.8531  140.7311  160.7419 C   0  0  0  0  0  0  0  0  0  0  0  0
  153.9238  141.5186  159.4247 C   0  0  0  0  0  0  0  0  0  0  0  0
  152.8001  142.5666  159.3219 C   0  0  1  0  0  0  0  0  0  0  0  0
  151.5115  141.8899  159.1620 N   0  0  0  0  0  0  0  0  0  0  0  0
  151.1334  141.1343  158.1194 C   0  0  0  0  0  0  0  0  0  0  0  0
  151.8621  140.8839  157.1590 O   0  0  0  0  0  0  0  0  0  0  0  0
  149.7087  140.5692  158.1766 C   0  0  0  0  0  0  0  0  0  0  0  0
  148.8741  141.0501  157.0668 N   0  0  0  0  0  0  0  0  0  0  0  0
  149.3855  140.7738  155.8111 N   0  0  0  0  0  0  0  0  0  0  0  0
  148.7423  141.1640  154.7649 C   0  0  0  0  0  0  0  0  0  0  0  0
  147.4907  141.8833  154.8530 C   0  0  0  0  0  0  0  0  0  0  0  0
  146.6735  142.3812  153.4137 Cl  0  0  0  0  0  0  0  0  0  0  0  0
  146.9951  142.1436  156.0888 C   0  0  0  0  0  0  0  0  0  0  0  0
  145.5024  142.9985  156.2756 Cl  0  0  0  0  0  0  0  0  0  0  0  0
  147.7003  141.7136  157.3041 C   0  0  0  0  0  0  0  0  0  0  0  0
  147.2812  141.9265  158.4430 O   0  0  0  0  0  0  0  0  0  0  0  0
  152.8078  143.5192  160.5494 C   0  0  1  0  0  0  0  0  0  0  0  0
  151.7246  144.6116  160.4377 C   0  0  0  0  0  0  0  0  0  0  0  0
  153.6868  144.2565  163.1222 H   0  0  0  0  0  0  0  0  0  0  0  0
  152.8092  143.0383  164.0420 H   0  0  0  0  0  0  0  0  0  0  0  0
  151.9245  144.2851  163.1898 H   0  0  0  0  0  0  0  0  0  0  0  0
  151.7852  142.1930  161.9166 H   0  0  0  0  0  0  0  0  0  0  0  0
  154.8328  142.1794  162.0044 H   0  0  0  0  0  0  0  0  0  0  0  0
  153.7762  141.0893  162.8662 H   0  0  0  0  0  0  0  0  0  0  0  0
  154.6928  140.0383  160.8046 H   0  0  0  0  0  0  0  0  0  0  0  0
  152.9499  140.1202  160.7640 H   0  0  0  0  0  0  0  0  0  0  0  0
  154.8900  142.0205  159.3604 H   0  0  0  0  0  0  0  0  0  0  0  0
  153.8813  140.8339  158.5766 H   0  0  0  0  0  0  0  0  0  0  0  0
  153.0007  143.1606  158.4284 H   0  0  0  0  0  0  0  0  0  0  0  0
  150.8386  142.0332  159.9008 H   0  0  0  0  0  0  0  0  0  0  0  0
  149.7773  139.4801  158.1590 H   0  0  0  0  0  0  0  0  0  0  0  0
  149.2388  140.8172  159.1305 H   0  0  0  0  0  0  0  0  0  0  0  0
  149.1076  140.9722  153.7558 H   0  0  0  0  0  0  0  0  0  0  0  0
  153.7675  144.0385  160.5334 H   0  0  0  0  0  0  0  0  0  0  0  0
  150.7246  144.2059  160.5907 H   0  0  0  0  0  0  0  0  0  0  0  0
  151.7454  145.0836  159.4552 H   0  0  0  0  0  0  0  0  0  0  0  0
  151.8758  145.4039  161.1702 H   0  0  0  0  0  0  0  0  0  0  0  0
  1  2  1  0  0  0  0
  1 22  1  0  0  0  0
  1 23  1  0  0  0  0
  1 24  1  0  0  0  0
  2 20  1  0  0  0  0
  2  3  1  0  0  0  0
  2 25  1  0  0  0  0
  3  4  1  0  0  0  0
  3 26  1  0  0  0  0
  3 27  1  0  0  0  0
  4  5  1  0  0  0  0
  4 28  1  0  0  0  0
  4 29  1  0  0  0  0
  5  6  1  0  0  0  0
  5 30  1  0  0  0  0
  5 31  1  0  0  0  0
  6  7  1  0  0  0  0
  6 20  1  0  0  0  0
  6 32  1  0  0  0  0
  7  8  1  0  0  0  0
  7 33  1  0  0  0  0
  8  9  2  0  0  0  0
  8 10  1  0  0  0  0
 10 11  1  0  0  0  0
 10 34  1  0  0  0  0
 10 35  1  0  0  0  0
 11 18  1  0  0  0  0
 11 12  1  0  0  0  0
 12 13  2  0  0  0  0
 13 14  1  0  0  0  0
 13 36  1  0  0  0  0
 14 15  1  0  0  0  0
 14 16  2  0  0  0  0
 16 17  1  0  0  0  0
 16 18  1  0  0  0  0
 18 19  2  0  0  0  0
 20 21  1  0  0  0  0
 20 37  1  0  0  0  0
 21 38  1  0  0  0  0
 21 39  1  0  0  0  0
 21 40  1  0  0  0  0
M  END
> <s_m_source_file>
AV-unprocessed.smi

> <i_m_source_file_index>
2976

> <i_lp_mmshare_version>
43012

> <i_f3d_flags>
0

> <s_epik_input>
W0NIM11bQ0BASF0xW0NIMl1bQ0gyXVtDSDJdW0NASF0oW0NASF0xW0NIM10pW05IXUMoPU8pW0NIMl1uMm5bY0hdYyhDbCljKENsKWMyPU8=

> <s_epik_cmdline>
J2VwaWtfcHl0aG9uJywgJy1waCcsICc3LjAnLCAnLXRuJywgJzgnLCAnLW1hJywgJzIwMCcsICctbWV0YWxfYmluZGluZycsICctaW1hZScsICc8aW5maWxlLm1hZT4nLCAnLW9tYWUnLCAnPG91dGZpbGUubWFlPic=

> <r_lp_tautomer_probability>
1

> <r_epik_Ionization_Penalty>
1.90777e-08

> <r_epik_Ionization_Penalty_Charging>
3.07942e-11

> <r_epik_Ionization_Penalty_Neutral>
1.90469e-08

> <r_epik_State_Penalty>
-0

> <r_epik_Charging_Adjusted_Penalty>
3.07942e-11

> <i_epik_Tot_Q>
0

> <i_epik_Tot_abs_Q>
0

> <r_epik_Metal_State_Penalty>
-0

> <b_epik_Metal_Only>
0

> <s_lp_Force_Field>
OPLS_2005

> <r_lp_Energy>
25.2962

> <b_lp_Chiralities_Consistent>
1

> <s_lp_Variant>
AV-unprocessed.smi:2976-1

> <Gold.Version>
5.8.1

> <Gold.Id.Protein>
6NUR|6NUR_protein|mol2

> <Gold.PLP.Fitness>
43.2537

> <Gold.PLP.PLP>
-41.0356

> <Gold.PLP.part.hbond>
-0.4900

> <Gold.PLP.part.metal>
0.0000

> <Gold.PLP.part.buried>
-3.6131

> <Gold.PLP.part.nonpolar>
-35.9903

> <Gold.PLP.part.repulsive>
0.2568

> <Gold.PLP.ligand.clash>
0.0000

> <Gold.PLP.ligand.torsion>
0.0581

> <Gold.PLP.Chemscore.Hbond>
0.0000

> <Gold.PLP.Chemscore.CHOScore>
0.7751

> <Gold.PLP.Chemscore.Metal>
0.0000

> <Gold.Chemscore.Hbonds>
donor molecule, donor type, donor heavy atom, donor atom, acceptor molecule, acceptor atom, score
      L1  C    13    36       P1  7957  0.33

> <Gold.PLP.Chemscore.Internal.Correction>
0.0090

> <Gold.Rescore>
     Score         DG    S(hbond)    S(metal)    S(lipo)     H(rot)  DE(clash)    DE(int)     intcor
     14.61     -16.42       0.43        0.00     113.67       1.49       0.46       1.35       ----

> <Gold.Chemscore.Fitness>
14.6089

> <Gold.Chemscore.DG>
-16.4162

> <Gold.Chemscore.ZeroCoef>
-5.4800

> <Gold.Chemscore.Hbond>
0.4317

> <Gold.Chemscore.Metal>
0.0000

> <Gold.Chemscore.Lipo>
113.6739

> <Gold.Chemscore.Internal_Hbond>
0.0000

> <Gold.Chemscore.DEClash>
0.4590

> <Gold.Chemscore.DEInternal>
1.3483

> <Gold.Chemscore.Rot>
1.4866

> <Gold.Chemscore.Internal.Correction>
   9.000000E+99

> <Gold.Chemscore.Hbond.Weighted>
-1.4420

> <Gold.Chemscore.Metal.Weighted>
-0.0000

> <Gold.Chemscore.Lipo.Weighted>
-13.2998

> <Gold.Chemscore.Internal_Hbond.Weighted>
0.0000

> <Gold.Chemscore.DEClash.Weighted>
0.4590

> <Gold.Chemscore.DEInternal.Weighted>
1.3483

> <Gold.Chemscore.Rot.Weighted>
3.8057

> <Gold.Chemscore.Internal.Correction.Weighted>
   9.000000E+99

> <Gold.Protein.RotatedTorsions>
[ 6907 6896 6895 6894 ] final -112.24 input  -60.11 | X-H torsion
[ 7974 7965 7964 7962 ] final   13.53 input  175.53 | X-H torsion
[ 8008 7997 7996 7995 ] final   -1.40 input   59.86 | X-H torsion
[ 10167 10162 10161 10158 ] final  -15.62 input  -65.29 | X-H torsion
[ 10718 10713 10712 10709 ] final  -88.78 input   66.30 | X-H torsion
[ 10763 10752 10751 10750 ] final -146.55 input  -60.55 | X-H torsion
[ 11005 11000 10999 10996 ] final  147.31 input  -57.11 | X-H torsion

> <Gold.Protein.ActiveResidues>
 VAL166  LYS551  ARG553  GLY616  TRP617  ASP618  TYR619  PRO620  LYS621  CYS622 
 ASP623  PHE694  ASN695  SER759  ASP760  ASP761  ALA762  ILE779  LEU786  VAL792 
 PHE793  MET794  SER795  GLU796  ALA797  LYS798  CYS799  TRP800  GLU811  SER814 

> <Gold.Protein.RotatedAtoms>
  150.7745  133.9118  159.3371 H   0  0  0  0  0  0  0  0  0  0  0  0  # atno 6907 bound_to 6896
  151.6997  135.0930  160.0258 H   0  0  0  0  0  0  0  0  0  0  0  0  # atno 6908 bound_to 6896
  152.3775  133.6463  159.6171 H   0  0  0  0  0  0  0  0  0  0  0  0  # atno 6909 bound_to 6896
  146.2327  139.9175  142.8515 H   0  0  0  0  0  0  0  0  0  0  0  0  # atno 7974 bound_to 7965
  154.6472  140.2560  155.7255 H   0  0  0  0  0  0  0  0  0  0  0  0  # atno 8008 bound_to 7997
  156.2557  140.2875  156.0811 H   0  0  0  0  0  0  0  0  0  0  0  0  # atno 8009 bound_to 7997
  155.1506  140.0382  157.2810 H   0  0  0  0  0  0  0  0  0  0  0  0  # atno 8010 bound_to 7997
  140.7221  143.5200  150.9645 H   0  0  0  0  0  0  0  0  0  0  0  0  # atno 10167 bound_to 10162
  155.9983  130.4848  150.5071 H   0  0  0  0  0  0  0  0  0  0  0  0  # atno 10718 bound_to 10713
  154.8330  135.3383  154.6678 H   0  0  0  0  0  0  0  0  0  0  0  0  # atno 10763 bound_to 10752
  153.7296  135.6953  153.4997 H   0  0  0  0  0  0  0  0  0  0  0  0  # atno 10764 bound_to 10752
  153.2322  135.4413  155.0559 H   0  0  0  0  0  0  0  0  0  0  0  0  # atno 10765 bound_to 10752
  140.0865  134.9066  157.1583 H   0  0  0  0  0  0  0  0  0  0  0  0  # atno 11005 bound_to 11000
  145.2169  140.9919  143.4068 LP  0  0  0  0  0  0  0  0  0  0  0  0  # atno 17320 bound_to 7965
  144.9643  139.3947  143.6340 LP  0  0  0  0  0  0  0  0  0  0  0  0  # atno 17321 bound_to 7965
  139.8917  143.6945  152.3144 LP  0  0  0  0  0  0  0  0  0  0  0  0  # atno 17342 bound_to 10162
  139.7263  144.7592  151.0873 LP  0  0  0  0  0  0  0  0  0  0  0  0  # atno 17343 bound_to 10162
  157.3048  131.0652  151.2043 LP  0  0  0  0  0  0  0  0  0  0  0  0  # atno 17370 bound_to 10713
  157.3009  130.6842  149.6164 LP  0  0  0  0  0  0  0  0  0  0  0  0  # atno 17371 bound_to 10713
  140.3413  134.2701  155.7212 LP  0  0  0  0  0  0  0  0  0  0  0  0  # atno 17394 bound_to 11000
  141.2064  133.7834  157.0178 LP  0  0  0  0  0  0  0  0  0  0  0  0  # atno 17395 bound_to 11000

$$$$
