AV-unprocessed.smi:281|AV-procd|sdf|2114|dock3
  -GOLD-   2262021413D 1   1.00000     0.00000
 Structure written by MMmdl.
 55 59  0  0  0  0  0  0  0  0  1 V2000
  147.9517  130.1670  161.1755 C   0  0  0  0  0  0  0  0  0  0  0  0
  148.0189  131.6712  160.8944 C   0  0  1  0  0  0  0  0  0  0  0  0
  148.1172  131.9729  159.3909 C   0  0  0  0  0  0  0  0  0  0  0  0
  148.0829  133.4116  159.1805 N   0  0  0  0  0  0  0  0  0  0  0  0
  148.3455  133.7833  157.9108 C   0  0  0  0  0  0  0  0  0  0  0  0
  149.5463  134.3653  157.6752 N   0  0  0  0  0  0  0  0  0  0  0  0
  149.8661  134.7566  156.4380 C   0  0  0  0  0  0  0  0  0  0  0  0
  149.1439  134.6631  155.3191 N   0  0  0  0  0  0  0  0  0  0  0  0
  147.9333  134.0800  155.5554 C   0  0  0  0  0  0  0  0  0  0  0  0
  147.4581  133.6087  156.8113 C   0  0  0  0  0  0  0  0  0  0  0  0
  146.1879  133.0650  156.6639 N   0  0  0  0  0  0  0  0  0  0  0  0
  145.9265  133.2084  155.3936 C   0  0  0  0  0  0  0  0  0  0  0  0
  146.9148  133.8201  154.6546 N   0  0  0  0  0  0  0  0  0  0  0  0
  146.8885  134.1098  153.2285 C   0  0  0  0  0  0  0  0  0  0  0  0
  146.8879  132.8449  152.3350 C   0  0  1  0  0  0  0  0  0  0  0  0
  148.0830  132.1202  152.5621 O   0  0  0  0  0  0  0  0  0  0  0  0
  145.6918  131.9322  152.6157 C   0  0  0  0  0  0  0  0  0  0  0  0
  144.8118  132.1037  151.3836 C   0  0  0  0  0  0  0  0  0  0  0  0
  145.7621  132.2633  150.3459 O   0  0  0  0  0  0  0  0  0  0  0  0
  146.7597  133.1512  150.8289 C   0  0  0  0  0  0  0  0  0  0  0  0
  146.8912  134.0329  159.7421 C   0  0  0  0  0  0  0  0  0  0  0  0
  146.7419  133.6935  161.2436 C   0  0  1  0  0  0  0  0  0  0  0  0
  147.7564  134.4177  162.1396 C   0  0  0  0  0  0  0  0  0  0  0  0
  146.9358  135.4817  162.8556 C   0  0  0  0  0  0  0  0  0  0  0  0
  145.6839  134.8424  163.0185 O   0  0  0  0  0  0  0  0  0  0  0  0
  145.3850  134.2073  161.7844 C   0  0  2  0  0  0  0  0  0  0  0  0
  144.2918  133.1465  161.9775 C   0  0  0  0  0  0  0  0  0  0  0  0
  146.8350  132.2733  161.4204 O   0  0  0  0  0  0  0  0  0  0  0  0
  148.8389  129.6570  160.7991 H   0  0  0  0  0  0  0  0  0  0  0  0
  147.0791  129.7160  160.7023 H   0  0  0  0  0  0  0  0  0  0  0  0
  147.8867  129.9743  162.2467 H   0  0  0  0  0  0  0  0  0  0  0  0
  148.8956  132.0750  161.4020 H   0  0  0  0  0  0  0  0  0  0  0  0
  149.0414  131.5600  158.9841 H   0  0  0  0  0  0  0  0  0  0  0  0
  147.2895  131.5008  158.8600 H   0  0  0  0  0  0  0  0  0  0  0  0
  150.8401  135.2103  156.3285 H   0  0  0  0  0  0  0  0  0  0  0  0
  144.9964  132.8711  154.9600 H   0  0  0  0  0  0  0  0  0  0  0  0
  146.0075  134.7188  153.0202 H   0  0  0  0  0  0  0  0  0  0  0  0
  147.7514  134.7340  152.9933 H   0  0  0  0  0  0  0  0  0  0  0  0
  148.2887  131.6293  151.7813 H   0  0  0  0  0  0  0  0  0  0  0  0
  146.0028  130.8883  152.6841 H   0  0  0  0  0  0  0  0  0  0  0  0
  145.1644  132.1755  153.5388 H   0  0  0  0  0  0  0  0  0  0  0  0
  144.1594  131.2480  151.2076 H   0  0  0  0  0  0  0  0  0  0  0  0
  144.1953  133.0006  151.4624 H   0  0  0  0  0  0  0  0  0  0  0  0
  146.3976  134.1660  150.6632 H   0  0  0  0  0  0  0  0  0  0  0  0
  147.6944  133.0408  150.2777 H   0  0  0  0  0  0  0  0  0  0  0  0
  146.9348  135.1139  159.5997 H   0  0  0  0  0  0  0  0  0  0  0  0
  146.0126  133.6765  159.2028 H   0  0  0  0  0  0  0  0  0  0  0  0
  148.1558  133.7320  162.8877 H   0  0  0  0  0  0  0  0  0  0  0  0
  148.6014  134.8386  161.5940 H   0  0  0  0  0  0  0  0  0  0  0  0
  147.3680  135.7760  163.8124 H   0  0  0  0  0  0  0  0  0  0  0  0
  146.8211  136.3733  162.2370 H   0  0  0  0  0  0  0  0  0  0  0  0
  145.0000  134.9844  161.1213 H   0  0  0  0  0  0  0  0  0  0  0  0
  144.0732  132.6355  161.0395 H   0  0  0  0  0  0  0  0  0  0  0  0
  143.3673  133.6039  162.3302 H   0  0  0  0  0  0  0  0  0  0  0  0
  144.5878  132.3956  162.7104 H   0  0  0  0  0  0  0  0  0  0  0  0
  1  2  1  0  0  0  0
  1 29  1  0  0  0  0
  1 30  1  0  0  0  0
  1 31  1  0  0  0  0
  2 28  1  0  0  0  0
  2  3  1  0  0  0  0
  2 32  1  0  0  0  0
  3  4  1  0  0  0  0
  3 33  1  0  0  0  0
  3 34  1  0  0  0  0
  4  5  1  0  0  0  0
  4 21  1  0  0  0  0
  5 10  1  0  0  0  0
  5  6  2  0  0  0  0
  6  7  1  0  0  0  0
  7  8  2  0  0  0  0
  7 35  1  0  0  0  0
  8  9  1  0  0  0  0
  9 13  1  0  0  0  0
  9 10  2  0  0  0  0
 10 11  1  0  0  0  0
 11 12  2  0  0  0  0
 12 13  1  0  0  0  0
 12 36  1  0  0  0  0
 13 14  1  0  0  0  0
 14 15  1  0  0  0  0
 14 37  1  0  0  0  0
 14 38  1  0  0  0  0
 15 20  1  0  0  0  0
 15 16  1  0  0  0  0
 15 17  1  0  0  0  0
 16 39  1  0  0  0  0
 17 18  1  0  0  0  0
 17 40  1  0  0  0  0
 17 41  1  0  0  0  0
 18 19  1  0  0  0  0
 18 42  1  0  0  0  0
 18 43  1  0  0  0  0
 19 20  1  0  0  0  0
 20 44  1  0  0  0  0
 20 45  1  0  0  0  0
 21 22  1  0  0  0  0
 21 46  1  0  0  0  0
 21 47  1  0  0  0  0
 22 26  1  0  0  0  0
 22 23  1  0  0  0  0
 22 28  1  0  0  0  0
 23 24  1  0  0  0  0
 23 48  1  0  0  0  0
 23 49  1  0  0  0  0
 24 25  1  0  0  0  0
 24 50  1  0  0  0  0
 24 51  1  0  0  0  0
 25 26  1  0  0  0  0
 26 27  1  0  0  0  0
 26 52  1  0  0  0  0
 27 53  1  0  0  0  0
 27 54  1  0  0  0  0
 27 55  1  0  0  0  0
M  END
> <s_m_source_file>
AV-unprocessed.smi

> <i_m_source_file_index>
281

> <i_lp_mmshare_version>
43012

> <i_f3d_flags>
0

> <s_epik_input>
W0NIM11bQ0BASF0xT1tDSDJdW0NIMl1bQ0BAXTEyW0NIMl1OKFtDSDJdW0NASF0oTzIpW0NIM10pYyhuW2NIXW4zKWMoYzM0KW5bY0hdbjRbQ0gyXVtDQEBdNShbT0hdKVtDSDJdW0NIMl1PW0NIMl01

> <s_epik_cmdline>
J2VwaWtfcHl0aG9uJywgJy1waCcsICc3LjAnLCAnLXRuJywgJzgnLCAnLW1hJywgJzIwMCcsICctbWV0YWxfYmluZGluZycsICctaW1hZScsICc8aW5maWxlLm1hZT4nLCAnLW9tYWUnLCAnPG91dGZpbGUubWFlPic=

> <r_lp_tautomer_probability>
1

> <r_epik_Ionization_Penalty>
0.00571331

> <r_epik_Ionization_Penalty_Charging>
0

> <r_epik_Ionization_Penalty_Neutral>
0.00571331

> <r_epik_State_Penalty>
0.00399586

> <r_epik_Charging_Adjusted_Penalty>
0.00399586

> <i_epik_Tot_Q>
0

> <i_epik_Tot_abs_Q>
0

> <r_epik_Metal_State_Penalty>
-0

> <b_epik_Metal_Only>
0

> <s_lp_Force_Field>
OPLS_2005

> <r_lp_Energy>
55.7735

> <b_lp_Chiralities_Consistent>
1

> <s_lp_Variant>
AV-unprocessed.smi:281-14

> <Gold.Version>
5.8.1

> <Gold.Id.Protein>
6NUR|6NUR_protein|mol2

> <Gold.PLP.Fitness>
40.7290

> <Gold.PLP.PLP>
-31.9833

> <Gold.PLP.part.hbond>
-2.3460

> <Gold.PLP.part.metal>
0.0000

> <Gold.PLP.part.buried>
-5.7166

> <Gold.PLP.part.nonpolar>
-24.9781

> <Gold.PLP.part.repulsive>
0.3039

> <Gold.PLP.ligand.clash>
0.0000

> <Gold.PLP.ligand.torsion>
0.1904

> <Gold.PLP.Chemscore.Hbond>
2.0000

> <Gold.PLP.Chemscore.CHOScore>
1.0000

> <Gold.PLP.Chemscore.Metal>
0.0000

> <Gold.Chemscore.Hbonds>
donor molecule, donor type, donor heavy atom, donor atom, acceptor molecule, acceptor atom, score
      L1  H    16    39       P1 10747  1.00
      P1  H  6896  6908       L1     6  1.00
      L1  C    12    36       P1 10957  0.90

> <Gold.PLP.Chemscore.Internal.Correction>
0.1264

> <Gold.Rescore>
     Score         DG    S(hbond)    S(metal)    S(lipo)     H(rot)  DE(clash)    DE(int)     intcor
     15.92     -16.20       1.94        0.00      81.95       2.09       0.05       0.23       ----

> <Gold.Chemscore.Fitness>
15.9183

> <Gold.Chemscore.DG>
-16.1995

> <Gold.Chemscore.ZeroCoef>
-5.4800

> <Gold.Chemscore.Hbond>
1.9428

> <Gold.Chemscore.Metal>
0.0000

> <Gold.Chemscore.Lipo>
81.9472

> <Gold.Chemscore.Internal_Hbond>
0.0000

> <Gold.Chemscore.DEClash>
0.0515

> <Gold.Chemscore.DEInternal>
0.2297

> <Gold.Chemscore.Rot>
2.0927

> <Gold.Chemscore.Internal.Correction>
   9.000000E+99

> <Gold.Chemscore.Hbonds>
donor molecule, donor type, donor heavy atom, donor atom, acceptor molecule, acceptor atom, score
      L1  H    16    39       P1 10747  1.00
      P1  H  6896  6908       L1     6  0.56

> <Gold.Chemscore.Hbond.Weighted>
-6.4890

> <Gold.Chemscore.Metal.Weighted>
-0.0000

> <Gold.Chemscore.Lipo.Weighted>
-9.5878

> <Gold.Chemscore.Internal_Hbond.Weighted>
0.0000

> <Gold.Chemscore.DEClash.Weighted>
0.0515

> <Gold.Chemscore.DEInternal.Weighted>
0.2297

> <Gold.Chemscore.Rot.Weighted>
5.3573

> <Gold.Chemscore.Internal.Correction.Weighted>
   9.000000E+99

> <Gold.Protein.RotatedTorsions>
[ 6907 6896 6895 6894 ] final  135.02 input  -60.11 | X-H torsion
[ 7974 7965 7964 7962 ] final   77.30 input  175.53 | X-H torsion
[ 8008 7997 7996 7995 ] final  160.19 input   59.86 | X-H torsion
[ 10167 10162 10161 10158 ] final   14.54 input  -65.29 | X-H torsion
[ 10718 10713 10712 10709 ] final   56.80 input   66.30 | X-H torsion
[ 10763 10752 10751 10750 ] final  -91.95 input  -60.55 | X-H torsion
[ 11005 11000 10999 10996 ] final  -72.51 input  -57.11 | X-H torsion

> <Gold.Protein.ActiveResidues>
 VAL166  LYS551  ARG553  GLY616  TRP617  ASP618  TYR619  PRO620  LYS621  CYS622 
 ASP623  PHE694  ASN695  SER759  ASP760  ASP761  ALA762  ILE779  LEU786  VAL792 
 PHE793  MET794  SER795  GLU796  ALA797  LYS798  CYS799  TRP800  GLU811  SER814 

> <Gold.Protein.RotatedAtoms>
  152.3050  133.5694  159.5642 H   0  0  0  0  0  0  0  0  0  0  0  0  # atno 6907 bound_to 6896
  150.7295  134.0236  159.3718 H   0  0  0  0  0  0  0  0  0  0  0  0  # atno 6908 bound_to 6896
  151.8133  135.0674  160.0466 H   0  0  0  0  0  0  0  0  0  0  0  0  # atno 6909 bound_to 6896
  145.6918  139.2555  143.1755 H   0  0  0  0  0  0  0  0  0  0  0  0  # atno 7974 bound_to 7965
  156.2189  140.1811  156.7524 H   0  0  0  0  0  0  0  0  0  0  0  0  # atno 8008 bound_to 7997
  154.5834  140.0662  156.9166 H   0  0  0  0  0  0  0  0  0  0  0  0  # atno 8009 bound_to 7997
  155.2462  140.3325  155.4289 H   0  0  0  0  0  0  0  0  0  0  0  0  # atno 8010 bound_to 7997
  140.5929  143.8760  150.6890 H   0  0  0  0  0  0  0  0  0  0  0  0  # atno 10167 bound_to 10162
  157.5461  130.8732  149.8894 H   0  0  0  0  0  0  0  0  0  0  0  0  # atno 10718 bound_to 10713
  154.6813  135.5249  153.8266 H   0  0  0  0  0  0  0  0  0  0  0  0  # atno 10763 bound_to 10752
  153.0566  135.6553  154.0571 H   0  0  0  0  0  0  0  0  0  0  0  0  # atno 10764 bound_to 10752
  154.0458  135.2973  155.3328 H   0  0  0  0  0  0  0  0  0  0  0  0  # atno 10765 bound_to 10752
  141.1609  133.6849  156.7070 H   0  0  0  0  0  0  0  0  0  0  0  0  # atno 11005 bound_to 11000
  146.0875  140.7694  142.9611 LP  0  0  0  0  0  0  0  0  0  0  0  0  # atno 17320 bound_to 7965
  144.6994  140.3585  143.7168 LP  0  0  0  0  0  0  0  0  0  0  0  0  # atno 17321 bound_to 7965
  140.2287  143.3752  152.1583 LP  0  0  0  0  0  0  0  0  0  0  0  0  # atno 17342 bound_to 10162
  139.5239  144.7077  151.5304 LP  0  0  0  0  0  0  0  0  0  0  0  0  # atno 17343 bound_to 10162
  156.0537  130.3712  150.1141 LP  0  0  0  0  0  0  0  0  0  0  0  0  # atno 17370 bound_to 10713
  156.9317  130.9716  151.3531 LP  0  0  0  0  0  0  0  0  0  0  0  0  # atno 17371 bound_to 10713
  140.2916  134.8236  157.4021 LP  0  0  0  0  0  0  0  0  0  0  0  0  # atno 17394 bound_to 11000
  140.1342  134.5056  155.8082 LP  0  0  0  0  0  0  0  0  0  0  0  0  # atno 17395 bound_to 11000

$$$$
