AV-unprocessed.smi:2940|AV-procd|sdf|11262|dock6
  -GOLD-   2272016153D 1   1.00000     0.00000
 Structure written by MMmdl.
 26 27  0  0  0  0  0  0  0  0  1 V2000
  150.1200  138.5267  153.6014 N   0  0  0  0  0  0  0  0  0  0  0  0
  150.4472  139.3494  154.6761 C   0  0  0  0  0  0  0  0  0  0  0  0
  151.1078  138.8141  155.8001 C   0  0  0  0  0  0  0  0  0  0  0  0
  151.4223  139.6770  156.8674 C   0  0  0  0  0  0  0  0  0  0  0  0
  151.0654  141.0414  156.7726 C   0  0  0  0  0  0  0  0  0  0  0  0
  151.3423  141.9616  157.7936 N   0  0  0  0  0  0  0  0  0  0  0  0
  152.3993  141.5228  158.6959 C   0  0  0  0  0  0  0  0  0  0  0  0
  152.5575  142.5280  159.8504 C   0  0  0  0  0  0  0  0  0  0  0  0
  152.8004  143.8288  159.3220 O   0  0  0  0  0  0  0  0  0  0  0  0
  151.7273  144.2809  158.5007 C   0  0  0  0  0  0  0  0  0  0  0  0
  151.5484  143.3215  157.3109 C   0  0  0  0  0  0  0  0  0  0  0  0
  150.4061  141.4712  155.6014 C   0  0  0  0  0  0  0  0  0  0  0  0
  150.1012  140.6499  154.5733 N   0  0  0  0  0  0  0  0  0  0  0  0
  149.6468  138.8854  152.7848 H   0  0  0  0  0  0  0  0  0  0  0  0
  150.3450  137.5424  153.6074 H   0  0  0  0  0  0  0  0  0  0  0  0
  151.3689  137.7668  155.8468 H   0  0  0  0  0  0  0  0  0  0  0  0
  151.9276  139.2933  157.7416 H   0  0  0  0  0  0  0  0  0  0  0  0
  152.1620  140.5344  159.0916 H   0  0  0  0  0  0  0  0  0  0  0  0
  153.3401  141.4367  158.1505 H   0  0  0  0  0  0  0  0  0  0  0  0
  151.6665  142.5407  160.4804 H   0  0  0  0  0  0  0  0  0  0  0  0
  153.3942  142.2410  160.4872 H   0  0  0  0  0  0  0  0  0  0  0  0
  150.8099  144.3485  159.0878 H   0  0  0  0  0  0  0  0  0  0  0  0
  151.9522  145.2858  158.1435 H   0  0  0  0  0  0  0  0  0  0  0  0
  152.4317  143.3589  156.6719 H   0  0  0  0  0  0  0  0  0  0  0  0
  150.6963  143.6326  156.7053 H   0  0  0  0  0  0  0  0  0  0  0  0
  150.1138  142.5045  155.4841 H   0  0  0  0  0  0  0  0  0  0  0  0
  1  2  1  0  0  0  0
  1 14  1  0  0  0  0
  1 15  1  0  0  0  0
  2 13  1  0  0  0  0
  2  3  2  0  0  0  0
  3  4  1  0  0  0  0
  3 16  1  0  0  0  0
  4  5  2  0  0  0  0
  4 17  1  0  0  0  0
  5  6  1  0  0  0  0
  5 12  1  0  0  0  0
  6 11  1  0  0  0  0
  6  7  1  0  0  0  0
  7  8  1  0  0  0  0
  7 18  1  0  0  0  0
  7 19  1  0  0  0  0
  8  9  1  0  0  0  0
  8 20  1  0  0  0  0
  8 21  1  0  0  0  0
  9 10  1  0  0  0  0
 10 11  1  0  0  0  0
 10 22  1  0  0  0  0
 10 23  1  0  0  0  0
 11 24  1  0  0  0  0
 11 25  1  0  0  0  0
 12 13  2  0  0  0  0
 12 26  1  0  0  0  0
M  END
> <s_m_source_file>
AV-unprocessed.smi

> <i_m_source_file_index>
2940

> <i_lp_mmshare_version>
43012

> <i_f3d_flags>
0

> <s_epik_input>
W05IMl1jMVtjSF1bY0hdYyhbY0hdbjEpTjJbQ0gyXVtDSDJdT1tDSDJdW0NIMl0y

> <s_epik_cmdline>
J2VwaWtfcHl0aG9uJywgJy1waCcsICc3LjAnLCAnLXRuJywgJzgnLCAnLW1hJywgJzIwMCcsICctbWV0YWxfYmluZGluZycsICctaW1hZScsICc8aW5maWxlLm1hZT4nLCAnLW9tYWUnLCAnPG91dGZpbGUubWFlPic=

> <r_lp_tautomer_probability>
1

> <r_epik_Ionization_Penalty>
0.109499

> <r_epik_Ionization_Penalty_Charging>
0

> <r_epik_Ionization_Penalty_Neutral>
0.109499

> <r_epik_State_Penalty>
0.0992404

> <r_epik_Charging_Adjusted_Penalty>
0.0992404

> <i_epik_Tot_Q>
0

> <i_epik_Tot_abs_Q>
0

> <r_epik_Metal_State_Penalty>
0.000108026

> <b_epik_Metal_Only>
0

> <s_lp_Force_Field>
OPLS_2005

> <r_lp_Energy>
21.5337

> <b_lp_Chiralities_Consistent>
1

> <s_lp_Variant>
AV-unprocessed.smi:2940-1

> <Gold.Version>
5.8.1

> <Gold.Id.Protein>
6NUR|6NUR_protein|mol2

> <Gold.PLP.Fitness>
33.2838

> <Gold.PLP.PLP>
-27.5126

> <Gold.PLP.part.hbond>
-2.8858

> <Gold.PLP.part.metal>
0.0000

> <Gold.PLP.part.buried>
-3.7174

> <Gold.PLP.part.nonpolar>
-20.3145

> <Gold.PLP.part.repulsive>
0.2350

> <Gold.PLP.ligand.clash>
0.0000

> <Gold.PLP.ligand.torsion>
0.6614

> <Gold.PLP.Chemscore.Hbond>
1.3328

> <Gold.PLP.Chemscore.CHOScore>
0.9975

> <Gold.PLP.Chemscore.Metal>
0.0000

> <Gold.Chemscore.Hbonds>
donor molecule, donor type, donor heavy atom, donor atom, acceptor molecule, acceptor atom, score
      L1  H     1    14       P1  7957  1.00
      P1  H  7989  7998       L1    13  0.33
      L1  C    12    26       P1  8028  0.99

> <Gold.PLP.Chemscore.Internal.Correction>
0.1032

> <Gold.Rescore>
     Score         DG    S(hbond)    S(metal)    S(lipo)     H(rot)  DE(clash)    DE(int)     intcor
     13.55     -14.15       0.94        0.00      69.04       1.00       0.01       0.59       ----

> <Gold.Chemscore.Fitness>
13.5469

> <Gold.Chemscore.DG>
-14.1534

> <Gold.Chemscore.ZeroCoef>
-5.4800

> <Gold.Chemscore.Hbond>
0.9449

> <Gold.Chemscore.Metal>
0.0000

> <Gold.Chemscore.Lipo>
69.0367

> <Gold.Chemscore.Internal_Hbond>
0.0000

> <Gold.Chemscore.DEClash>
0.0135

> <Gold.Chemscore.DEInternal>
0.5929

> <Gold.Chemscore.Rot>
1.0000

> <Gold.Chemscore.Internal.Correction>
   9.000000E+99

> <Gold.Chemscore.Hbonds>
donor molecule, donor type, donor heavy atom, donor atom, acceptor molecule, acceptor atom, score
      L1  H     1    14       P1  7957  0.82

> <Gold.Chemscore.Hbond.Weighted>
-3.1561

> <Gold.Chemscore.Metal.Weighted>
-0.0000

> <Gold.Chemscore.Lipo.Weighted>
-8.0773

> <Gold.Chemscore.Internal_Hbond.Weighted>
0.0000

> <Gold.Chemscore.DEClash.Weighted>
0.0135

> <Gold.Chemscore.DEInternal.Weighted>
0.5929

> <Gold.Chemscore.Rot.Weighted>
2.5600

> <Gold.Chemscore.Internal.Correction.Weighted>
   9.000000E+99

> <Gold.Protein.RotatedTorsions>
[ 6907 6896 6895 6894 ] final  -99.55 input  -60.11 | X-H torsion
[ 7974 7965 7964 7962 ] final -162.18 input  175.53 | X-H torsion
[ 8008 7997 7996 7995 ] final -130.44 input   59.86 | X-H torsion
[ 10167 10162 10161 10158 ] final  -61.98 input  -65.29 | X-H torsion
[ 10718 10713 10712 10709 ] final  -97.98 input   66.30 | X-H torsion
[ 10763 10752 10751 10750 ] final  -48.58 input  -60.55 | X-H torsion
[ 11005 11000 10999 10996 ] final  -44.27 input  -57.11 | X-H torsion

> <Gold.Protein.ActiveResidues>
 VAL166  LYS551  ARG553  GLY616  TRP617  ASP618  TYR619  PRO620  LYS621  CYS622 
 ASP623  PHE694  ASN695  SER759  ASP760  ASP761  ALA762  ILE779  LEU786  VAL792 
 PHE793  MET794  SER795  GLU796  ALA797  LYS798  CYS799  TRP800  GLU811  SER814 

> <Gold.Protein.RotatedAtoms>
  150.7084  134.1024  159.3970 H   0  0  0  0  0  0  0  0  0  0  0  0  # atno 6907 bound_to 6896
  151.9010  135.0376  160.0515 H   0  0  0  0  0  0  0  0  0  0  0  0  # atno 6908 bound_to 6896
  152.2414  133.5103  159.5309 H   0  0  0  0  0  0  0  0  0  0  0  0  # atno 6909 bound_to 6896
  144.7366  140.3290  143.6156 H   0  0  0  0  0  0  0  0  0  0  0  0  # atno 7974 bound_to 7965
  155.2958  140.0450  157.3026 H   0  0  0  0  0  0  0  0  0  0  0  0  # atno 8008 bound_to 7997
  154.5515  140.2319  155.8445 H   0  0  0  0  0  0  0  0  0  0  0  0  # atno 8009 bound_to 7997
  156.1971  140.3035  155.9456 H   0  0  0  0  0  0  0  0  0  0  0  0  # atno 8010 bound_to 7997
  140.5970  143.2353  151.6015 H   0  0  0  0  0  0  0  0  0  0  0  0  # atno 10167 bound_to 10162
  156.0096  130.5218  150.6455 H   0  0  0  0  0  0  0  0  0  0  0  0  # atno 10718 bound_to 10713
  154.0801  135.6592  153.4836 H   0  0  0  0  0  0  0  0  0  0  0  0  # atno 10763 bound_to 10752
  153.0359  135.5178  154.7482 H   0  0  0  0  0  0  0  0  0  0  0  0  # atno 10764 bound_to 10752
  154.6574  135.3010  154.9878 H   0  0  0  0  0  0  0  0  0  0  0  0  # atno 10765 bound_to 10752
  141.0439  133.6769  156.2849 H   0  0  0  0  0  0  0  0  0  0  0  0  # atno 11005 bound_to 11000
  145.7491  139.1788  143.2331 LP  0  0  0  0  0  0  0  0  0  0  0  0  # atno 17320 bound_to 7965
  146.1074  140.7470  142.9519 LP  0  0  0  0  0  0  0  0  0  0  0  0  # atno 17321 bound_to 7965
  139.5265  144.3045  152.1045 LP  0  0  0  0  0  0  0  0  0  0  0  0  # atno 17342 bound_to 10162
  140.2219  144.4457  150.6338 LP  0  0  0  0  0  0  0  0  0  0  0  0  # atno 17343 bound_to 10162
  157.4226  131.0839  151.1116 LP  0  0  0  0  0  0  0  0  0  0  0  0  # atno 17370 bound_to 10713
  157.1713  130.6268  149.5641 LP  0  0  0  0  0  0  0  0  0  0  0  0  # atno 17371 bound_to 10713
  140.6183  134.5388  157.5544 LP  0  0  0  0  0  0  0  0  0  0  0  0  # atno 17394 bound_to 11000
  139.9297  134.7988  156.0967 LP  0  0  0  0  0  0  0  0  0  0  0  0  # atno 17395 bound_to 11000

$$$$
