AV-unprocessed.smi:3111|AV-procd|sdf|11833|dock1
  -GOLD-   2272017203D 1   1.00000     0.00000
 Structure written by MMmdl.
 29 29  0  0  0  0  0  0  0  0  1 V2000
  147.3469  145.3770  161.2640 C   0  0  0  0  0  0  0  0  0  0  0  0
  147.3874  144.7194  159.9669 N   0  0  0  0  0  0  0  0  0  0  0  0
  147.0712  143.4329  159.7642 C   0  0  0  0  0  0  0  0  0  0  0  0
  146.7008  142.6812  160.6675 O   0  0  0  0  0  0  0  0  0  0  0  0
  147.1737  142.9341  158.3169 C   0  0  0  0  0  0  0  0  0  0  0  0
  148.5535  142.8483  157.8461 N   0  0  0  0  0  0  0  0  0  0  0  0
  149.3303  141.7552  157.9194 C   0  0  0  0  0  0  0  0  0  0  0  0
  148.9656  140.7061  158.4518 O   0  0  0  0  0  0  0  0  0  0  0  0
  150.7228  141.8719  157.2795 C   0  0  1  0  0  0  0  0  0  0  0  0
  150.6697  142.2198  155.7797 C   0  0  0  0  0  0  0  0  0  0  0  0
  151.5377  142.8295  158.0144 N   0  0  0  0  0  0  0  0  0  0  0  0
  151.3674  144.2082  158.0563 C   0  0  0  0  0  0  0  0  0  0  0  0
  152.3666  144.7065  158.8611 C   0  0  0  0  0  0  0  0  0  0  0  0
  153.1622  143.6613  159.3227 N   0  0  0  0  0  0  0  0  0  0  0  0
  152.6124  142.5826  158.7804 C   0  0  0  0  0  0  0  0  0  0  0  0
  147.6415  146.4213  161.1608 H   0  0  0  0  0  0  0  0  0  0  0  0
  148.0321  144.8970  161.9640 H   0  0  0  0  0  0  0  0  0  0  0  0
  146.3409  145.3460  161.6843 H   0  0  0  0  0  0  0  0  0  0  0  0
  147.6787  145.2744  159.1753 H   0  0  0  0  0  0  0  0  0  0  0  0
  146.7301  141.9398  158.2607 H   0  0  0  0  0  0  0  0  0  0  0  0
  146.5887  143.5769  157.6564 H   0  0  0  0  0  0  0  0  0  0  0  0
  148.9280  143.6653  157.3858 H   0  0  0  0  0  0  0  0  0  0  0  0
  151.2004  140.8950  157.3717 H   0  0  0  0  0  0  0  0  0  0  0  0
  150.0805  141.4886  155.2252 H   0  0  0  0  0  0  0  0  0  0  0  0
  151.6710  142.2263  155.3480 H   0  0  0  0  0  0  0  0  0  0  0  0
  150.2301  143.2027  155.6055 H   0  0  0  0  0  0  0  0  0  0  0  0
  150.5718  144.7083  157.5238 H   0  0  0  0  0  0  0  0  0  0  0  0
  152.5733  145.7292  159.1399 H   0  0  0  0  0  0  0  0  0  0  0  0
  153.0026  141.5883  158.9415 H   0  0  0  0  0  0  0  0  0  0  0  0
  1  2  1  0  0  0  0
  1 16  1  0  0  0  0
  1 17  1  0  0  0  0
  1 18  1  0  0  0  0
  2  3  1  0  0  0  0
  2 19  1  0  0  0  0
  3  4  2  0  0  0  0
  3  5  1  0  0  0  0
  5  6  1  0  0  0  0
  5 20  1  0  0  0  0
  5 21  1  0  0  0  0
  6  7  1  0  0  0  0
  6 22  1  0  0  0  0
  7  8  2  0  0  0  0
  7  9  1  0  0  0  0
  9 10  1  0  0  0  0
  9 11  1  0  0  0  0
  9 23  1  0  0  0  0
 10 24  1  0  0  0  0
 10 25  1  0  0  0  0
 10 26  1  0  0  0  0
 11 15  1  0  0  0  0
 11 12  1  0  0  0  0
 12 13  2  0  0  0  0
 12 27  1  0  0  0  0
 13 14  1  0  0  0  0
 13 28  1  0  0  0  0
 14 15  2  0  0  0  0
 15 29  1  0  0  0  0
M  END
> <s_m_source_file>
AV-unprocessed.smi

> <i_m_source_file_index>
3111

> <i_lp_mmshare_version>
43012

> <i_f3d_flags>
0

> <s_epik_input>
W0NIM11bTkhdQyg9TylbQ0gyXVtOSF1DKD1PKVtDQEhdKFtDSDNdKW4xW2NIXVtjSF1uW2NIXTE=

> <s_epik_cmdline>
J2VwaWtfcHl0aG9uJywgJy1waCcsICc3LjAnLCAnLXRuJywgJzgnLCAnLW1hJywgJzIwMCcsICctbWV0YWxfYmluZGluZycsICctaW1hZScsICc8aW5maWxlLm1hZT4nLCAnLW9tYWUnLCAnPG91dGZpbGUubWFlPic=

> <r_lp_tautomer_probability>
1

> <r_epik_Ionization_Penalty>
0.278299

> <r_epik_Ionization_Penalty_Charging>
0.278299

> <r_epik_Ionization_Penalty_Neutral>
1.78617e-07

> <r_epik_State_Penalty>
0.270759

> <r_epik_Charging_Adjusted_Penalty>
0.549058

> <i_epik_Tot_Q>
0

> <i_epik_Tot_abs_Q>
0

> <r_epik_Metal_State_Penalty>
0.183212

> <b_epik_Metal_Only>
0

> <s_lp_Force_Field>
OPLS_2005

> <r_lp_Energy>
4.73549

> <b_lp_Chiralities_Consistent>
1

> <s_lp_Variant>
AV-unprocessed.smi:3111-2

> <Gold.Version>
5.8.1

> <Gold.Id.Protein>
6NUR|6NUR_protein|mol2

> <Gold.PLP.Fitness>
43.1564

> <Gold.PLP.PLP>
-29.3884

> <Gold.PLP.part.hbond>
-5.8418

> <Gold.PLP.part.metal>
0.0000

> <Gold.PLP.part.buried>
-2.1915

> <Gold.PLP.part.nonpolar>
-22.4624

> <Gold.PLP.part.repulsive>
0.1996

> <Gold.PLP.ligand.clash>
0.0000

> <Gold.PLP.ligand.torsion>
0.4072

> <Gold.PLP.Chemscore.Hbond>
3.8184

> <Gold.PLP.Chemscore.CHOScore>
1.0000

> <Gold.PLP.Chemscore.Metal>
0.0000

> <Gold.Chemscore.Hbonds>
donor molecule, donor type, donor heavy atom, donor atom, acceptor molecule, acceptor atom, score
      L1  H     2    19       P1  8029  1.00
      L1  H     6    22       P1  8028  0.79
      P1  H  6933  6944       L1     4  0.68
      P1  H  6934  6946       L1     4  0.93
      L1  C    12    27       P1  8028  1.00

> <Gold.PLP.Chemscore.Internal.Correction>
0.1272

> <Gold.Rescore>
     Score         DG    S(hbond)    S(metal)    S(lipo)     H(rot)  DE(clash)    DE(int)     intcor
     13.65     -14.26       2.71        0.00      47.27       2.27       0.20       0.41       ----

> <Gold.Chemscore.Fitness>
13.6516

> <Gold.Chemscore.DG>
-14.2573

> <Gold.Chemscore.ZeroCoef>
-5.4800

> <Gold.Chemscore.Hbond>
2.7127

> <Gold.Chemscore.Metal>
0.0000

> <Gold.Chemscore.Lipo>
47.2687

> <Gold.Chemscore.Internal_Hbond>
0.0000

> <Gold.Chemscore.DEClash>
0.1954

> <Gold.Chemscore.DEInternal>
0.4103

> <Gold.Chemscore.Rot>
2.2709

> <Gold.Chemscore.Internal.Correction>
   9.000000E+99

> <Gold.Chemscore.Hbonds>
donor molecule, donor type, donor heavy atom, donor atom, acceptor molecule, acceptor atom, score
      L1  H     2    19       P1  8029  0.94
      L1  H     6    22       P1  8028  0.15
      P1  H  6933  6944       L1     4  0.11
      P1  H  6934  6946       L1     4  0.91

> <Gold.Chemscore.Hbond.Weighted>
-9.0603

> <Gold.Chemscore.Metal.Weighted>
-0.0000

> <Gold.Chemscore.Lipo.Weighted>
-5.5304

> <Gold.Chemscore.Internal_Hbond.Weighted>
0.0000

> <Gold.Chemscore.DEClash.Weighted>
0.1954

> <Gold.Chemscore.DEInternal.Weighted>
0.4103

> <Gold.Chemscore.Rot.Weighted>
5.8135

> <Gold.Chemscore.Internal.Correction.Weighted>
   9.000000E+99

> <Gold.Protein.RotatedTorsions>
[ 6907 6896 6895 6894 ] final   60.35 input  -60.11 | X-H torsion
[ 7974 7965 7964 7962 ] final  103.76 input  175.53 | X-H torsion
[ 8008 7997 7996 7995 ] final  -57.65 input   59.86 | X-H torsion
[ 10167 10162 10161 10158 ] final  -30.64 input  -65.29 | X-H torsion
[ 10718 10713 10712 10709 ] final -125.33 input   66.30 | X-H torsion
[ 10763 10752 10751 10750 ] final  -88.94 input  -60.55 | X-H torsion
[ 11005 11000 10999 10996 ] final -108.41 input  -57.11 | X-H torsion

> <Gold.Protein.ActiveResidues>
 VAL166  LYS551  ARG553  GLY616  TRP617  ASP618  TYR619  PRO620  LYS621  CYS622 
 ASP623  PHE694  ASN695  SER759  ASP760  ASP761  ALA762  ILE779  LEU786  VAL792 
 PHE793  MET794  SER795  GLU796  ALA797  LYS798  CYS799  TRP800  GLU811  SER814 

> <Gold.Protein.RotatedAtoms>
  152.3995  134.6309  160.0075 H   0  0  0  0  0  0  0  0  0  0  0  0  # atno 6907 bound_to 6896
  151.6519  133.3315  159.3162 H   0  0  0  0  0  0  0  0  0  0  0  0  # atno 6908 bound_to 6896
  150.7898  134.6955  159.6565 H   0  0  0  0  0  0  0  0  0  0  0  0  # atno 6909 bound_to 6896
  145.3416  139.2461  143.3606 H   0  0  0  0  0  0  0  0  0  0  0  0  # atno 7974 bound_to 7965
  154.4277  140.1102  156.5832 H   0  0  0  0  0  0  0  0  0  0  0  0  # atno 8008 bound_to 7997
  155.6090  140.3494  155.4598 H   0  0  0  0  0  0  0  0  0  0  0  0  # atno 8009 bound_to 7997
  156.0114  140.1220  157.0440 H   0  0  0  0  0  0  0  0  0  0  0  0  # atno 8010 bound_to 7997
  140.7247  143.3833  151.1561 H   0  0  0  0  0  0  0  0  0  0  0  0  # atno 10167 bound_to 10162
  156.1666  130.6639  151.0123 H   0  0  0  0  0  0  0  0  0  0  0  0  # atno 10718 bound_to 10713
  154.6499  135.5359  153.7890 H   0  0  0  0  0  0  0  0  0  0  0  0  # atno 10763 bound_to 10752
  153.0380  135.6480  154.1032 H   0  0  0  0  0  0  0  0  0  0  0  0  # atno 10764 bound_to 10752
  154.0950  135.2937  155.3243 H   0  0  0  0  0  0  0  0  0  0  0  0  # atno 10765 bound_to 10752
  141.0903  133.9067  157.2091 H   0  0  0  0  0  0  0  0  0  0  0  0  # atno 11005 bound_to 11000
  146.3005  140.4015  142.8706 LP  0  0  0  0  0  0  0  0  0  0  0  0  # atno 17320 bound_to 7965
  144.8786  140.7369  143.6001 LP  0  0  0  0  0  0  0  0  0  0  0  0  # atno 17321 bound_to 7965
  139.7426  143.8901  152.3054 LP  0  0  0  0  0  0  0  0  0  0  0  0  # atno 17342 bound_to 10162
  139.8728  144.7059  150.8968 LP  0  0  0  0  0  0  0  0  0  0  0  0  # atno 17343 bound_to 10162
  157.6772  131.0847  150.7463 LP  0  0  0  0  0  0  0  0  0  0  0  0  # atno 17370 bound_to 10713
  156.7524  130.4773  149.5454 LP  0  0  0  0  0  0  0  0  0  0  0  0  # atno 17371 bound_to 10713
  139.9727  135.0123  156.9554 LP  0  0  0  0  0  0  0  0  0  0  0  0  # atno 17394 bound_to 11000
  140.5268  134.0853  155.7305 LP  0  0  0  0  0  0  0  0  0  0  0  0  # atno 17395 bound_to 11000

$$$$
