AV-unprocessed.smi:2855|AV-procd|sdf|10985|dock4
  -GOLD-   2272015443D 1   1.00000     0.00000
 Structure written by MMmdl.
 46 47  0  0  0  0  0  0  0  0  2 V2000
  144.3671  145.2619  156.6529 C   0  0  0  0  0  0  0  0  0  0  0  0
  145.3058  144.2050  156.0541 C   0  0  2  0  0  0  0  0  0  0  0  0
  145.0174  143.9728  154.5628 C   0  0  0  0  0  0  0  0  0  0  0  0
  145.9553  142.9151  153.9602 C   0  0  0  0  0  0  0  0  0  0  0  0
  145.8811  141.5606  154.7101 C   0  0  1  0  0  0  0  0  0  0  0  0
  146.8045  140.4750  154.0736 C   0  0  0  0  0  0  0  0  0  0  0  0
  146.9142  139.2092  154.9453 C   0  0  0  0  0  0  0  0  0  0  0  0
  148.2241  140.9970  153.7766 C   0  0  0  0  0  0  0  0  0  0  0  0
  146.1338  141.7847  156.2284 C   0  0  1  0  0  0  0  0  0  0  0  0
  147.5398  142.0953  156.4853 N   0  0  0  0  0  0  0  0  0  0  0  0
  148.3485  141.4256  157.3186 C   0  0  0  0  0  0  0  0  0  0  0  0
  147.9714  140.4880  158.0224 O   0  0  0  0  0  0  0  0  0  0  0  0
  149.8031  141.9066  157.3766 C   0  0  0  0  0  0  0  0  0  0  0  0
  150.7504  140.8701  156.9383 N   0  0  0  0  0  0  0  0  0  0  0  0
  150.4798  140.2025  155.7309 C   0  0  0  0  0  0  0  0  0  0  0  0
  151.2973  139.2471  155.2492 C   0  0  0  0  0  0  0  0  0  0  0  0
  152.4908  138.9093  156.0149 C   0  0  0  0  0  0  0  0  0  0  0  0
  153.2462  138.0359  155.5928 O   0  0  0  0  0  0  0  0  0  0  0  0
  152.7120  139.5886  157.1783 N   0  5  0  0  0  0  0  0  0  0  0  0
  151.8730  140.5598  157.6551 C   0  0  0  0  0  0  0  0  0  0  0  0
  152.0929  141.1632  158.7064 O   0  0  0  0  0  0  0  0  0  0  0  0
  145.2116  142.8725  156.8178 C   0  0  0  0  0  0  0  0  0  0  0  0
  143.3256  144.9435  156.5998 H   0  0  0  0  0  0  0  0  0  0  0  0
  144.4535  146.2102  156.1219 H   0  0  0  0  0  0  0  0  0  0  0  0
  144.6051  145.4489  157.7004 H   0  0  0  0  0  0  0  0  0  0  0  0
  146.3247  144.5834  156.1474 H   0  0  0  0  0  0  0  0  0  0  0  0
  143.9816  143.6563  154.4307 H   0  0  0  0  0  0  0  0  0  0  0  0
  145.1250  144.9088  154.0133 H   0  0  0  0  0  0  0  0  0  0  0  0
  145.6840  142.7921  152.9129 H   0  0  0  0  0  0  0  0  0  0  0  0
  146.9801  143.2889  153.9686 H   0  0  0  0  0  0  0  0  0  0  0  0
  144.8552  141.2014  154.6145 H   0  0  0  0  0  0  0  0  0  0  0  0
  146.3717  140.1674  153.1208 H   0  0  0  0  0  0  0  0  0  0  0  0
  147.2484  139.4499  155.9548 H   0  0  0  0  0  0  0  0  0  0  0  0
  147.6278  138.5014  154.5226 H   0  0  0  0  0  0  0  0  0  0  0  0
  145.9652  138.6800  155.0200 H   0  0  0  0  0  0  0  0  0  0  0  0
  148.6917  141.4082  154.6717 H   0  0  0  0  0  0  0  0  0  0  0  0
  148.2214  141.7717  153.0100 H   0  0  0  0  0  0  0  0  0  0  0  0
  148.8671  140.1995  153.4037 H   0  0  0  0  0  0  0  0  0  0  0  0
  145.8882  140.8589  156.7503 H   0  0  0  0  0  0  0  0  0  0  0  0
  147.9398  142.8549  155.9540 H   0  0  0  0  0  0  0  0  0  0  0  0
  149.9277  142.8061  156.7701 H   0  0  0  0  0  0  0  0  0  0  0  0
  150.0179  142.2184  158.3995 H   0  0  0  0  0  0  0  0  0  0  0  0
  149.5800  140.5167  155.2228 H   0  0  0  0  0  0  0  0  0  0  0  0
  151.0769  138.7464  154.3181 H   0  0  0  0  0  0  0  0  0  0  0  0
  145.4436  143.0277  157.8723 H   0  0  0  0  0  0  0  0  0  0  0  0
  144.1816  142.5146  156.7886 H   0  0  0  0  0  0  0  0  0  0  0  0
  1  2  1  0  0  0  0
  1 23  1  0  0  0  0
  1 24  1  0  0  0  0
  1 25  1  0  0  0  0
  2 22  1  0  0  0  0
  2  3  1  0  0  0  0
  2 26  1  0  0  0  0
  3  4  1  0  0  0  0
  3 27  1  0  0  0  0
  3 28  1  0  0  0  0
  4  5  1  0  0  0  0
  4 29  1  0  0  0  0
  4 30  1  0  0  0  0
  5  6  1  0  0  0  0
  5  9  1  0  0  0  0
  5 31  1  0  0  0  0
  6  7  1  0  0  0  0
  6  8  1  0  0  0  0
  6 32  1  0  0  0  0
  7 33  1  0  0  0  0
  7 34  1  0  0  0  0
  7 35  1  0  0  0  0
  8 36  1  0  0  0  0
  8 37  1  0  0  0  0
  8 38  1  0  0  0  0
  9 10  1  0  0  0  0
  9 22  1  0  0  0  0
  9 39  1  0  0  0  0
 10 11  1  0  0  0  0
 10 40  1  0  0  0  0
 11 12  2  0  0  0  0
 11 13  1  0  0  0  0
 13 14  1  0  0  0  0
 13 41  1  0  0  0  0
 13 42  1  0  0  0  0
 14 20  1  0  0  0  0
 14 15  1  0  0  0  0
 15 16  2  0  0  0  0
 15 43  1  0  0  0  0
 16 17  1  0  0  0  0
 16 44  1  0  0  0  0
 17 18  2  0  0  0  0
 17 19  1  0  0  0  0
 19 20  1  0  0  0  0
 20 21  2  0  0  0  0
 22 45  1  0  0  0  0
 22 46  1  0  0  0  0
M  CHG  1  19  -1
M  END
> <s_m_source_file>
AV-unprocessed.smi

> <i_m_source_file_index>
2855

> <i_lp_mmshare_version>
43012

> <i_f3d_flags>
0

> <s_epik_input>
W0NIM11bQ0BASF0xW0NIMl1bQ0gyXVtDQEBIXShbQ0hdKFtDSDNdKVtDSDNdKVtDQEhdKFtDSDJdMSlbTkhdQyg9TylbQ0gyXW4yW2NIXVtjSF1jKD1PKVtuSF1jMj1P

> <s_epik_cmdline>
J2VwaWtfcHl0aG9uJywgJy1waCcsICc3LjAnLCAnLXRuJywgJzgnLCAnLW1hJywgJzIwMCcsICctbWV0YWxfYmluZGluZycsICctaW1hZScsICc8aW5maWxlLm1hZT4nLCAnLW9tYWUnLCAnPG91dGZpbGUubWFlPic=

> <r_lp_tautomer_probability>
0.999537

> <r_epik_Ionization_Penalty>
3.12102

> <r_epik_Ionization_Penalty_Charging>
2.9581e-08

> <r_epik_Ionization_Penalty_Neutral>
3.12102

> <r_epik_State_Penalty>
3.12011

> <r_epik_Charging_Adjusted_Penalty>
3.12011

> <i_epik_Tot_Q>
-1

> <i_epik_Tot_abs_Q>
1

> <r_epik_Metal_State_Penalty>
0.463583

> <b_epik_Metal_Only>
1

> <s_lp_Force_Field>
OPLS_2005

> <r_lp_Energy>
22.0986

> <b_lp_Chiralities_Consistent>
1

> <s_lp_Variant>
AV-unprocessed.smi:2855-9

> <Gold.Version>
5.8.1

> <Gold.Id.Protein>
6NUR|6NUR_protein|mol2

> <Gold.PLP.Fitness>
41.0456

> <Gold.PLP.PLP>
-33.2947

> <Gold.PLP.part.hbond>
-3.4726

> <Gold.PLP.part.metal>
0.0000

> <Gold.PLP.part.buried>
-3.5747

> <Gold.PLP.part.nonpolar>
-25.1160

> <Gold.PLP.part.repulsive>
0.0127

> <Gold.PLP.ligand.clash>
0.0000

> <Gold.PLP.ligand.torsion>
0.3879

> <Gold.PLP.Chemscore.Hbond>
2.8288

> <Gold.PLP.Chemscore.CHOScore>
0.0000

> <Gold.PLP.Chemscore.Metal>
0.0000

> <Gold.Chemscore.Hbonds>
donor molecule, donor type, donor heavy atom, donor atom, acceptor molecule, acceptor atom, score
      L1  H    10    40       P1  8028  0.84
      P1  H  7997  8008       L1    19  0.90

> <Gold.PLP.Chemscore.Internal.Correction>
0.0403

> <Gold.Rescore>
     Score         DG    S(hbond)    S(metal)    S(lipo)     H(rot)  DE(clash)    DE(int)     intcor
     10.26     -12.05       1.17        0.00      62.43       1.81       0.23       1.56       ----

> <Gold.Chemscore.Fitness>
10.2554

> <Gold.Chemscore.DG>
-12.0462

> <Gold.Chemscore.ZeroCoef>
-5.4800

> <Gold.Chemscore.Hbond>
1.1661

> <Gold.Chemscore.Metal>
0.0000

> <Gold.Chemscore.Lipo>
62.4343

> <Gold.Chemscore.Internal_Hbond>
0.0000

> <Gold.Chemscore.DEClash>
0.2277

> <Gold.Chemscore.DEInternal>
1.5631

> <Gold.Chemscore.Rot>
1.8100

> <Gold.Chemscore.Internal.Correction>
   9.000000E+99

> <Gold.Chemscore.Hbonds>
donor molecule, donor type, donor heavy atom, donor atom, acceptor molecule, acceptor atom, score
      L1  H    10    40       P1  8028  0.53
      P1  H  7997  8008       L1    19  0.02

> <Gold.Chemscore.Hbond.Weighted>
-3.8949

> <Gold.Chemscore.Metal.Weighted>
-0.0000

> <Gold.Chemscore.Lipo.Weighted>
-7.3048

> <Gold.Chemscore.Internal_Hbond.Weighted>
0.0000

> <Gold.Chemscore.DEClash.Weighted>
0.2277

> <Gold.Chemscore.DEInternal.Weighted>
1.5631

> <Gold.Chemscore.Rot.Weighted>
4.6335

> <Gold.Chemscore.Internal.Correction.Weighted>
   9.000000E+99

> <Gold.Protein.RotatedTorsions>
[ 6907 6896 6895 6894 ] final  130.75 input  -60.11 | X-H torsion
[ 7974 7965 7964 7962 ] final  -30.90 input  175.53 | X-H torsion
[ 8008 7997 7996 7995 ] final  -53.40 input   59.86 | X-H torsion
[ 10167 10162 10161 10158 ] final  -87.82 input  -65.29 | X-H torsion
[ 10718 10713 10712 10709 ] final   69.89 input   66.30 | X-H torsion
[ 10763 10752 10751 10750 ] final -124.46 input  -60.55 | X-H torsion
[ 11005 11000 10999 10996 ] final  104.10 input  -57.11 | X-H torsion

> <Gold.Protein.ActiveResidues>
 VAL166  LYS551  ARG553  GLY616  TRP617  ASP618  TYR619  PRO620  LYS621  CYS622 
 ASP623  PHE694  ASN695  SER759  ASP760  ASP761  ALA762  ILE779  LEU786  VAL792 
 PHE793  MET794  SER795  GLU796  ALA797  LYS798  CYS799  TRP800  GLU811  SER814 

> <Gold.Protein.RotatedAtoms>
  152.3495  133.6162  159.5934 H   0  0  0  0  0  0  0  0  0  0  0  0  # atno 6907 bound_to 6896
  150.7528  133.9597  159.3520 H   0  0  0  0  0  0  0  0  0  0  0  0  # atno 6908 bound_to 6896
  151.7450  135.0846  160.0373 H   0  0  0  0  0  0  0  0  0  0  0  0  # atno 6909 bound_to 6896
  146.1108  140.5600  142.8779 H   0  0  0  0  0  0  0  0  0  0  0  0  # atno 7974 bound_to 7965
  154.4132  140.1201  156.5147 H   0  0  0  0  0  0  0  0  0  0  0  0  # atno 8008 bound_to 7997
  155.6763  140.3496  155.4818 H   0  0  0  0  0  0  0  0  0  0  0  0  # atno 8009 bound_to 7997
  155.9590  140.1119  157.0902 H   0  0  0  0  0  0  0  0  0  0  0  0  # atno 8010 bound_to 7997
  140.3808  143.2750  151.9386 H   0  0  0  0  0  0  0  0  0  0  0  0  # atno 10167 bound_to 10162
  157.6370  130.9449  150.0575 H   0  0  0  0  0  0  0  0  0  0  0  0  # atno 10718 bound_to 10713
  154.8723  135.4063  154.3110 H   0  0  0  0  0  0  0  0  0  0  0  0  # atno 10763 bound_to 10752
  153.3954  135.7016  153.6470 H   0  0  0  0  0  0  0  0  0  0  0  0  # atno 10764 bound_to 10752
  153.5235  135.3682  155.2614 H   0  0  0  0  0  0  0  0  0  0  0  0  # atno 10765 bound_to 10752
  139.8789  134.9288  156.5310 H   0  0  0  0  0  0  0  0  0  0  0  0  # atno 11005 bound_to 11000
  144.7510  140.5190  143.6802 LP  0  0  0  0  0  0  0  0  0  0  0  0  # atno 17320 bound_to 7965
  145.5668  139.1481  143.3311 LP  0  0  0  0  0  0  0  0  0  0  0  0  # atno 17321 bound_to 7965
  139.4795  144.5820  151.7916 LP  0  0  0  0  0  0  0  0  0  0  0  0  # atno 17342 bound_to 10162
  140.4940  144.1269  150.5956 LP  0  0  0  0  0  0  0  0  0  0  0  0  # atno 17343 bound_to 10162
  156.1618  130.3644  149.9288 LP  0  0  0  0  0  0  0  0  0  0  0  0  # atno 17370 bound_to 10713
  156.7284  130.9034  151.3624 LP  0  0  0  0  0  0  0  0  0  0  0  0  # atno 17371 bound_to 10713
  140.8381  133.8226  155.9048 LP  0  0  0  0  0  0  0  0  0  0  0  0  # atno 17394 bound_to 11000
  140.9264  134.2077  157.4893 LP  0  0  0  0  0  0  0  0  0  0  0  0  # atno 17395 bound_to 11000

$$$$
