AV-unprocessed.smi:1047|AV-procd|sdf|4599|dock10
  -GOLD-   22720 3 93D 1   1.00000     0.00000
 Structure written by MMmdl.
 57 59  0  0  0  0  0  0  0  0  3 V2000
  146.6682  133.3064  151.0876 C   0  0  0  0  0  0  0  0  0  0  0  0
  146.3457  133.9741  152.4320 C   0  0  0  0  0  0  0  0  0  0  0  0
  147.5628  134.2952  153.2190 N   0  3  2  0  0  0  0  0  0  0  0  0
  148.3412  133.0999  153.6272 C   0  0  0  0  0  0  0  0  0  0  0  0
  149.5919  133.5189  154.4172 C   0  0  0  0  0  0  0  0  0  0  0  0
  149.2085  134.3062  155.5376 O   0  0  0  0  0  0  0  0  0  0  0  0
  148.5528  135.5103  155.1525 C   0  0  2  0  0  0  0  0  0  0  0  0
  148.2520  136.3206  156.4222 C   0  0  0  0  0  0  0  0  0  0  0  0
  149.3177  137.2756  156.7086 N   0  0  0  0  0  0  0  0  0  0  0  0
  149.4949  138.2688  155.6528 C   0  0  0  0  0  0  0  0  0  0  0  0
  150.9619  138.3652  155.2012 C   0  0  2  0  0  0  0  0  0  0  0  0
  151.4787  137.0512  155.1475 O   0  0  0  0  0  0  0  0  0  0  0  0
  151.8227  139.2188  156.1562 C   0  0  0  0  0  0  0  0  0  0  0  0
  151.2791  140.5686  156.3703 N   0  0  0  0  0  0  0  0  0  0  0  0
  150.4380  141.2991  155.5890 C   0  0  0  0  0  0  0  0  0  0  0  0
  150.2146  142.4843  156.2213 N   0  3  0  0  0  0  0  0  0  0  0  0
  150.9230  142.5119  157.4243 C   0  0  0  0  0  0  0  0  0  0  0  0
  151.0109  143.4922  158.4058 C   0  0  0  0  0  0  0  0  0  0  0  0
  151.8300  143.2148  159.5233 C   0  0  0  0  0  0  0  0  0  0  0  0
  151.9469  144.2646  160.6155 C   0  0  0  0  0  0  0  0  0  0  0  0
  152.5304  141.9851  159.6272 C   0  0  0  0  0  0  0  0  0  0  0  0
  153.4127  141.6992  160.8306 C   0  0  0  0  0  0  0  0  0  0  0  0
  152.4263  141.0002  158.6189 C   0  0  0  0  0  0  0  0  0  0  0  0
  151.6118  141.2873  157.5256 C   0  0  0  0  0  0  0  0  0  0  0  0
  147.2603  135.1405  154.3988 C   0  0  0  0  0  0  0  0  0  0  0  0
  145.7599  133.1777  150.4981 H   0  0  0  0  0  0  0  0  0  0  0  0
  147.1092  132.3184  151.2173 H   0  0  0  0  0  0  0  0  0  0  0  0
  147.3592  133.9117  150.5005 H   0  0  0  0  0  0  0  0  0  0  0  0
  145.8045  134.8981  152.2242 H   0  0  0  0  0  0  0  0  0  0  0  0
  145.6740  133.3476  153.0203 H   0  0  0  0  0  0  0  0  0  0  0  0
  147.7170  132.4459  154.2385 H   0  0  0  0  0  0  0  0  0  0  0  0
  148.6470  132.5255  152.7535 H   0  0  0  0  0  0  0  0  0  0  0  0
  150.1249  132.6365  154.7718 H   0  0  0  0  0  0  0  0  0  0  0  0
  150.2848  134.0760  153.7845 H   0  0  0  0  0  0  0  0  0  0  0  0
  149.2002  136.0933  154.4939 H   0  0  0  0  0  0  0  0  0  0  0  0
  147.3151  136.8630  156.2883 H   0  0  0  0  0  0  0  0  0  0  0  0
  148.1026  135.6468  157.2669 H   0  0  0  0  0  0  0  0  0  0  0  0
  149.1255  137.7455  157.5878 H   0  0  0  0  0  0  0  0  0  0  0  0
  148.8600  138.0293  154.7986 H   0  0  0  0  0  0  0  0  0  0  0  0
  149.1675  139.2433  156.0185 H   0  0  0  0  0  0  0  0  0  0  0  0
  151.0099  138.7782  154.1926 H   0  0  0  0  0  0  0  0  0  0  0  0
  150.8216  136.4576  155.4773 H   0  0  0  0  0  0  0  0  0  0  0  0
  151.8792  138.7409  157.1349 H   0  0  0  0  0  0  0  0  0  0  0  0
  152.8498  139.2950  155.7993 H   0  0  0  0  0  0  0  0  0  0  0  0
  150.0203  140.9929  154.6407 H   0  0  0  0  0  0  0  0  0  0  0  0
  150.4762  144.4269  158.3192 H   0  0  0  0  0  0  0  0  0  0  0  0
  151.5905  143.8685  161.5667 H   0  0  0  0  0  0  0  0  0  0  0  0
  151.3565  145.1511  160.3819 H   0  0  0  0  0  0  0  0  0  0  0  0
  152.9839  144.5782  160.7371 H   0  0  0  0  0  0  0  0  0  0  0  0
  153.8777  140.7152  160.7607 H   0  0  0  0  0  0  0  0  0  0  0  0
  152.8267  141.7254  161.7494 H   0  0  0  0  0  0  0  0  0  0  0  0
  154.2098  142.4388  160.9060 H   0  0  0  0  0  0  0  0  0  0  0  0
  152.9640  140.0670  158.6987 H   0  0  0  0  0  0  0  0  0  0  0  0
  146.7527  136.0503  154.0755 H   0  0  0  0  0  0  0  0  0  0  0  0
  146.5747  134.6093  155.0614 H   0  0  0  0  0  0  0  0  0  0  0  0
  148.1594  134.8476  152.6197 H   0  0  0  0  0  0  0  0  0  0  0  0
  149.6201  143.2179  155.8570 H   0  0  0  0  0  0  0  0  0  0  0  0
  1  2  1  0  0  0  0
  1 26  1  0  0  0  0
  1 27  1  0  0  0  0
  1 28  1  0  0  0  0
  2  3  1  0  0  0  0
  2 29  1  0  0  0  0
  2 30  1  0  0  0  0
  3 25  1  0  0  0  0
  3  4  1  0  0  0  0
  3 56  1  0  0  0  0
  4  5  1  0  0  0  0
  4 31  1  0  0  0  0
  4 32  1  0  0  0  0
  5  6  1  0  0  0  0
  5 33  1  0  0  0  0
  5 34  1  0  0  0  0
  6  7  1  0  0  0  0
  7  8  1  0  0  0  0
  7 25  1  0  0  0  0
  7 35  1  0  0  0  0
  8  9  1  0  0  0  0
  8 36  1  0  0  0  0
  8 37  1  0  0  0  0
  9 10  1  0  0  0  0
  9 38  1  0  0  0  0
 10 11  1  0  0  0  0
 10 39  1  0  0  0  0
 10 40  1  0  0  0  0
 11 12  1  0  0  0  0
 11 13  1  0  0  0  0
 11 41  1  0  0  0  0
 12 42  1  0  0  0  0
 13 14  1  0  0  0  0
 13 43  1  0  0  0  0
 13 44  1  0  0  0  0
 14 24  1  0  0  0  0
 14 15  1  0  0  0  0
 15 16  2  0  0  0  0
 15 45  1  0  0  0  0
 16 17  1  0  0  0  0
 16 57  1  0  0  0  0
 17 24  2  0  0  0  0
 17 18  1  0  0  0  0
 18 19  2  0  0  0  0
 18 46  1  0  0  0  0
 19 20  1  0  0  0  0
 19 21  1  0  0  0  0
 20 47  1  0  0  0  0
 20 48  1  0  0  0  0
 20 49  1  0  0  0  0
 21 22  1  0  0  0  0
 21 23  2  0  0  0  0
 22 50  1  0  0  0  0
 22 51  1  0  0  0  0
 22 52  1  0  0  0  0
 23 24  1  0  0  0  0
 23 53  1  0  0  0  0
 25 54  1  0  0  0  0
 25 55  1  0  0  0  0
M  CHG  1   3   1
M  CHG  1  16   1
M  END
> <s_m_source_file>
AV-unprocessed.smi

> <i_m_source_file_index>
1047

> <i_lp_mmshare_version>
43012

> <i_f3d_flags>
0

> <s_epik_input>
W0NIM11bQ0gyXU4xW0NIMl1bQ0gyXU9bQ0BIXShbQ0gyXTEpW0NIMl1bTkhdW0NIMl1bQ0BIXShbT0hdKVtDSDJdbihbY0hdbjIpYyhjMjMpW2NIXWMoW0NIM10pYyhbY0hdMylbQ0gzXQ==

> <s_epik_cmdline>
J2VwaWtfcHl0aG9uJywgJy1waCcsICc3LjAnLCAnLXRuJywgJzgnLCAnLW1hJywgJzIwMCcsICctbWV0YWxfYmluZGluZycsICctaW1hZScsICc8aW5maWxlLm1hZT4nLCAnLW9tYWUnLCAnPG91dGZpbGUubWFlPic=

> <r_epik_Ionization_Penalty>
2.03028

> <r_epik_Ionization_Penalty_Charging>
1.21256

> <r_epik_Ionization_Penalty_Neutral>
0.817715

> <r_epik_State_Penalty>
2.54959

> <r_epik_Charging_Adjusted_Penalty>
3.76215

> <i_epik_Tot_Q>
2

> <i_epik_Tot_abs_Q>
2

> <r_epik_Metal_State_Penalty>
6.52811

> <b_epik_Metal_Only>
0

> <s_lp_Force_Field>
OPLS_2005

> <r_lp_Energy>
31.8247

> <b_lp_Chiralities_Consistent>
1

> <s_lp_Variant>
AV-unprocessed.smi:1047-40

> <Gold.Version>
5.8.1

> <Gold.Id.Protein>
6NUR|6NUR_protein|mol2

> <Gold.PLP.Fitness>
59.2814

> <Gold.PLP.PLP>
-47.8085

> <Gold.PLP.part.hbond>
-3.0000

> <Gold.PLP.part.metal>
0.0000

> <Gold.PLP.part.buried>
-5.9063

> <Gold.PLP.part.nonpolar>
-38.2839

> <Gold.PLP.part.repulsive>
0.1622

> <Gold.PLP.ligand.clash>
0.0000

> <Gold.PLP.ligand.torsion>
1.3439

> <Gold.PLP.Chemscore.Hbond>
4.6825

> <Gold.PLP.Chemscore.CHOScore>
0.0000

> <Gold.PLP.Chemscore.Metal>
0.0000

> <Gold.Chemscore.Hbonds>
donor molecule, donor type, donor heavy atom, donor atom, acceptor molecule, acceptor atom, score
      L1  H     3    56       P1  7948  2.00
      L1  H    16    57       P1  8028  2.00
      P1  H 10752 10764       L1    12  0.63

> <Gold.PLP.Chemscore.Internal.Correction>
0.1130

> <Gold.Rescore>
     Score         DG    S(hbond)    S(metal)    S(lipo)     H(rot)  DE(clash)    DE(int)     intcor
     18.74     -20.32       2.40        0.00     117.44       2.71       0.10       1.47       ----

> <Gold.Chemscore.Fitness>
18.7419

> <Gold.Chemscore.DG>
-20.3154

> <Gold.Chemscore.ZeroCoef>
-5.4800

> <Gold.Chemscore.Hbond>
2.4039

> <Gold.Chemscore.Metal>
0.0000

> <Gold.Chemscore.Lipo>
117.4449

> <Gold.Chemscore.Internal_Hbond>
0.0000

> <Gold.Chemscore.DEClash>
0.1036

> <Gold.Chemscore.DEInternal>
1.4699

> <Gold.Chemscore.Rot>
2.7088

> <Gold.Chemscore.Internal.Correction>
   9.000000E+99

> <Gold.Chemscore.Hbonds>
donor molecule, donor type, donor heavy atom, donor atom, acceptor molecule, acceptor atom, score
      L1  H     3    56       P1  7948  0.65
      L1  H    16    57       P1  8028  1.00
      P1  H 10752 10764       L1    12  0.18

> <Gold.Chemscore.Hbond.Weighted>
-8.0289

> <Gold.Chemscore.Metal.Weighted>
-0.0000

> <Gold.Chemscore.Lipo.Weighted>
-13.7411

> <Gold.Chemscore.Internal_Hbond.Weighted>
0.0000

> <Gold.Chemscore.DEClash.Weighted>
0.1036

> <Gold.Chemscore.DEInternal.Weighted>
1.4699

> <Gold.Chemscore.Rot.Weighted>
6.9346

> <Gold.Chemscore.Internal.Correction.Weighted>
   9.000000E+99

> <Gold.Protein.RotatedTorsions>
[ 6907 6896 6895 6894 ] final -163.21 input  -60.11 | X-H torsion
[ 7974 7965 7964 7962 ] final  -35.68 input  175.53 | X-H torsion
[ 8008 7997 7996 7995 ] final   36.97 input   59.86 | X-H torsion
[ 10167 10162 10161 10158 ] final   70.11 input  -65.29 | X-H torsion
[ 10718 10713 10712 10709 ] final  148.10 input   66.30 | X-H torsion
[ 10763 10752 10751 10750 ] final  -75.97 input  -60.55 | X-H torsion
[ 11005 11000 10999 10996 ] final   31.66 input  -57.11 | X-H torsion

> <Gold.Protein.ActiveResidues>
 VAL166  LYS551  ARG553  GLY616  TRP617  ASP618  TYR619  PRO620  LYS621  CYS622 
 ASP623  PHE694  ASN695  SER759  ASP760  ASP761  ALA762  ILE779  LEU786  VAL792 
 PHE793  MET794  SER795  GLU796  ALA797  LYS798  CYS799  TRP800  GLU811  SER814 

> <Gold.Protein.RotatedAtoms>
  151.3924  133.3784  159.2722 H   0  0  0  0  0  0  0  0  0  0  0  0  # atno 6907 bound_to 6896
  150.9495  134.8898  159.7673 H   0  0  0  0  0  0  0  0  0  0  0  0  # atno 6908 bound_to 6896
  152.5106  134.3878  159.9426 H   0  0  0  0  0  0  0  0  0  0  0  0  # atno 6909 bound_to 6896
  146.0726  140.6188  142.8945 H   0  0  0  0  0  0  0  0  0  0  0  0  # atno 7974 bound_to 7965
  155.1961  140.3312  155.4350 H   0  0  0  0  0  0  0  0  0  0  0  0  # atno 8008 bound_to 7997
  156.2424  140.1902  156.7000 H   0  0  0  0  0  0  0  0  0  0  0  0  # atno 8009 bound_to 7997
  154.6173  140.0600  156.9556 H   0  0  0  0  0  0  0  0  0  0  0  0  # atno 8010 bound_to 7997
  140.0605  144.5236  150.7297 H   0  0  0  0  0  0  0  0  0  0  0  0  # atno 10167 bound_to 10162
  157.3128  131.0890  151.1303 H   0  0  0  0  0  0  0  0  0  0  0  0  # atno 10718 bound_to 10713
  154.4936  135.5813  153.6478 H   0  0  0  0  0  0  0  0  0  0  0  0  # atno 10763 bound_to 10752
  152.9866  135.6119  154.3093 H   0  0  0  0  0  0  0  0  0  0  0  0  # atno 10764 bound_to 10752
  154.2994  135.2847  155.2597 H   0  0  0  0  0  0  0  0  0  0  0  0  # atno 10765 bound_to 10752
  140.2815  134.2967  155.7799 H   0  0  0  0  0  0  0  0  0  0  0  0  # atno 11005 bound_to 11000
  144.7241  140.4468  143.6986 LP  0  0  0  0  0  0  0  0  0  0  0  0  # atno 17320 bound_to 7965
  145.6364  139.1543  143.2940 LP  0  0  0  0  0  0  0  0  0  0  0  0  # atno 17321 bound_to 7965
  140.7174  143.2557  151.4390 LP  0  0  0  0  0  0  0  0  0  0  0  0  # atno 17342 bound_to 10162
  139.5896  144.1527  152.2072 LP  0  0  0  0  0  0  0  0  0  0  0  0  # atno 17343 bound_to 10162
  157.2618  130.6663  149.5978 LP  0  0  0  0  0  0  0  0  0  0  0  0  # atno 17370 bound_to 10713
  155.9679  130.4506  150.5704 LP  0  0  0  0  0  0  0  0  0  0  0  0  # atno 17371 bound_to 10713
  141.2162  133.7528  156.9488 LP  0  0  0  0  0  0  0  0  0  0  0  0  # atno 17394 bound_to 11000
  140.1279  134.9375  157.2295 LP  0  0  0  0  0  0  0  0  0  0  0  0  # atno 17395 bound_to 11000

$$$$
