AV-unprocessed.smi:3314|AV-procd|sdf|12731|dock1
  -GOLD-   2272019 73D 1   1.00000     0.00000
 Structure written by MMmdl.
 38 39  0  0  0  0  0  0  0  0  2 V2000
  153.8602  141.0877  160.9349 C   0  0  0  0  0  0  0  0  0  0  0  0
  152.9793  141.9907  160.0974 C   0  0  0  0  0  0  0  0  0  0  0  0
  152.7806  143.3389  160.4514 C   0  0  0  0  0  0  0  0  0  0  0  0
  151.9493  144.1262  159.6306 C   0  0  0  0  0  0  0  0  0  0  0  0
  151.6914  145.5835  159.9512 C   0  0  0  0  0  0  0  0  0  0  0  0
  151.3386  143.6471  158.5256 N   0  0  0  0  0  0  0  0  0  0  0  0
  151.5232  142.3502  158.1753 C   0  0  0  0  0  0  0  0  0  0  0  0
  150.9262  141.7500  157.0355 N   0  0  0  0  0  0  0  0  0  0  0  0
  151.3469  140.6765  156.3386 C   0  0  0  0  0  0  0  0  0  0  0  0
  152.3465  140.0146  156.6201 O   0  0  0  0  0  0  0  0  0  0  0  0
  150.4748  140.2748  155.1395 C   0  0  2  0  0  0  0  0  0  0  0  0
  149.3160  141.2668  154.8808 C   0  0  0  0  0  0  0  0  0  0  0  0
  148.4617  140.7926  153.7680 N   0  3  2  0  0  0  0  0  0  0  0  0
  147.3593  141.7276  153.4567 C   0  0  0  0  0  0  0  0  0  0  0  0
  147.9869  139.4130  154.0156 C   0  0  0  0  0  0  0  0  0  0  0  0
  149.1793  138.4822  154.2853 C   0  0  0  0  0  0  0  0  0  0  0  0
  149.9299  138.9791  155.3860 O   0  0  0  0  0  0  0  0  0  0  0  0
  152.3411  141.4922  158.9439 C   0  0  0  0  0  0  0  0  0  0  0  0
  154.2725  141.6197  161.7926 H   0  0  0  0  0  0  0  0  0  0  0  0
  154.6895  140.7091  160.3371 H   0  0  0  0  0  0  0  0  0  0  0  0
  153.2863  140.2379  161.3050 H   0  0  0  0  0  0  0  0  0  0  0  0
  153.2519  143.7582  161.3283 H   0  0  0  0  0  0  0  0  0  0  0  0
  152.1929  145.8811  160.8727 H   0  0  0  0  0  0  0  0  0  0  0  0
  150.6226  145.7628  160.0723 H   0  0  0  0  0  0  0  0  0  0  0  0
  152.0574  146.2189  159.1442 H   0  0  0  0  0  0  0  0  0  0  0  0
  150.0835  142.1952  156.7027 H   0  0  0  0  0  0  0  0  0  0  0  0
  151.1241  140.2302  154.2633 H   0  0  0  0  0  0  0  0  0  0  0  0
  148.7077  141.3845  155.7797 H   0  0  0  0  0  0  0  0  0  0  0  0
  149.7118  142.2519  154.6288 H   0  0  0  0  0  0  0  0  0  0  0  0
  146.6714  141.8177  154.2983 H   0  0  0  0  0  0  0  0  0  0  0  0
  146.7959  141.3814  152.5896 H   0  0  0  0  0  0  0  0  0  0  0  0
  147.7495  142.7194  153.2260 H   0  0  0  0  0  0  0  0  0  0  0  0
  147.3077  139.4055  154.8697 H   0  0  0  0  0  0  0  0  0  0  0  0
  147.4234  139.0553  153.1528 H   0  0  0  0  0  0  0  0  0  0  0  0
  148.8262  137.4788  154.5235 H   0  0  0  0  0  0  0  0  0  0  0  0
  149.8160  138.3953  153.4034 H   0  0  0  0  0  0  0  0  0  0  0  0
  152.4804  140.4604  158.6546 H   0  0  0  0  0  0  0  0  0  0  0  0
  149.0496  140.7549  152.9474 H   0  0  0  0  0  0  0  0  0  0  0  0
  1  2  1  0  0  0  0
  1 19  1  0  0  0  0
  1 20  1  0  0  0  0
  1 21  1  0  0  0  0
  2 18  1  0  0  0  0
  2  3  2  0  0  0  0
  3  4  1  0  0  0  0
  3 22  1  0  0  0  0
  4  5  1  0  0  0  0
  4  6  2  0  0  0  0
  5 23  1  0  0  0  0
  5 24  1  0  0  0  0
  5 25  1  0  0  0  0
  6  7  1  0  0  0  0
  7  8  1  0  0  0  0
  7 18  2  0  0  0  0
  8  9  1  0  0  0  0
  8 26  1  0  0  0  0
  9 10  2  0  0  0  0
  9 11  1  0  0  0  0
 11 17  1  0  0  0  0
 11 12  1  0  0  0  0
 11 27  1  0  0  0  0
 12 13  1  0  0  0  0
 12 28  1  0  0  0  0
 12 29  1  0  0  0  0
 13 14  1  0  0  0  0
 13 15  1  0  0  0  0
 13 38  1  0  0  0  0
 14 30  1  0  0  0  0
 14 31  1  0  0  0  0
 14 32  1  0  0  0  0
 15 16  1  0  0  0  0
 15 33  1  0  0  0  0
 15 34  1  0  0  0  0
 16 17  1  0  0  0  0
 16 35  1  0  0  0  0
 16 36  1  0  0  0  0
 18 37  1  0  0  0  0
M  CHG  1  13   1
M  END
> <s_m_source_file>
AV-unprocessed.smi

> <i_m_source_file_index>
3314

> <i_lp_mmshare_version>
43012

> <i_f3d_flags>
0

> <s_epik_input>
W0NIM11jMVtjSF1jKFtDSDNdKW5jKFtjSF0xKVtOSF1DKD1PKVtDQEBIXTJbQ0gyXU4oW0NIM10pW0NIMl1bQ0gyXU8y

> <s_epik_cmdline>
J2VwaWtfcHl0aG9uJywgJy1waCcsICc3LjAnLCAnLXRuJywgJzgnLCAnLW1hJywgJzIwMCcsICctbWV0YWxfYmluZGluZycsICctaW1hZScsICc8aW5maWxlLm1hZT4nLCAnLW9tYWUnLCAnPG91dGZpbGUubWFlPic=

> <r_epik_Ionization_Penalty>
0.32442

> <r_epik_Ionization_Penalty_Charging>
0.314023

> <r_epik_Ionization_Penalty_Neutral>
0.0103972

> <r_epik_State_Penalty>
0.29453

> <r_epik_Charging_Adjusted_Penalty>
0.608553

> <i_epik_Tot_Q>
1

> <i_epik_Tot_abs_Q>
1

> <r_epik_Metal_State_Penalty>
0.286909

> <b_epik_Metal_Only>
0

> <s_lp_Force_Field>
OPLS_2005

> <r_lp_Energy>
16.487

> <b_lp_Chiralities_Consistent>
1

> <s_lp_Variant>
AV-unprocessed.smi:3314-1

> <Gold.Version>
5.8.1

> <Gold.Id.Protein>
6NUR|6NUR_protein|mol2

> <Gold.PLP.Fitness>
44.9218

> <Gold.PLP.PLP>
-39.8490

> <Gold.PLP.part.hbond>
-2.0000

> <Gold.PLP.part.metal>
0.0000

> <Gold.PLP.part.buried>
-4.5924

> <Gold.PLP.part.nonpolar>
-34.1822

> <Gold.PLP.part.repulsive>
0.3483

> <Gold.PLP.ligand.clash>
0.6172

> <Gold.PLP.ligand.torsion>
0.1562

> <Gold.PLP.Chemscore.Hbond>
2.0000

> <Gold.PLP.Chemscore.CHOScore>
0.0000

> <Gold.PLP.Chemscore.Metal>
0.0000

> <Gold.Chemscore.Hbonds>
donor molecule, donor type, donor heavy atom, donor atom, acceptor molecule, acceptor atom, score
      L1  H    13    38       P1  7957  1.00
      P1  H  7997  8010       L1    10  1.00

> <Gold.PLP.Chemscore.Internal.Correction>
0.0024

> <Gold.Rescore>
     Score         DG    S(hbond)    S(metal)    S(lipo)     H(rot)  DE(clash)    DE(int)     intcor
     19.42     -21.05       1.97        0.00      98.78       1.00       0.04       1.60       ----

> <Gold.Chemscore.Fitness>
19.4176

> <Gold.Chemscore.DG>
-21.0522

> <Gold.Chemscore.ZeroCoef>
-5.4800

> <Gold.Chemscore.Hbond>
1.9686

> <Gold.Chemscore.Metal>
0.0000

> <Gold.Chemscore.Lipo>
98.7780

> <Gold.Chemscore.Internal_Hbond>
0.0000

> <Gold.Chemscore.DEClash>
0.0375

> <Gold.Chemscore.DEInternal>
1.5971

> <Gold.Chemscore.Rot>
1.0000

> <Gold.Chemscore.Internal.Correction>
   9.000000E+99

> <Gold.Chemscore.Hbonds>
donor molecule, donor type, donor heavy atom, donor atom, acceptor molecule, acceptor atom, score
      L1  H    13    38       P1  7957  0.94
      P1  H  7997  8010       L1    10  0.95

> <Gold.Chemscore.Hbond.Weighted>
-6.5752

> <Gold.Chemscore.Metal.Weighted>
-0.0000

> <Gold.Chemscore.Lipo.Weighted>
-11.5570

> <Gold.Chemscore.Internal_Hbond.Weighted>
0.0000

> <Gold.Chemscore.DEClash.Weighted>
0.0375

> <Gold.Chemscore.DEInternal.Weighted>
1.5971

> <Gold.Chemscore.Rot.Weighted>
2.5600

> <Gold.Chemscore.Internal.Correction.Weighted>
   9.000000E+99

> <Gold.Protein.RotatedTorsions>
[ 6907 6896 6895 6894 ] final  151.98 input  -60.11 | X-H torsion
[ 7974 7965 7964 7962 ] final  114.00 input  175.53 | X-H torsion
[ 8008 7997 7996 7995 ] final   67.69 input   59.86 | X-H torsion
[ 10167 10162 10161 10158 ] final   39.69 input  -65.29 | X-H torsion
[ 10718 10713 10712 10709 ] final  102.80 input   66.30 | X-H torsion
[ 10763 10752 10751 10750 ] final    2.00 input  -60.55 | X-H torsion
[ 11005 11000 10999 10996 ] final -143.24 input  -57.11 | X-H torsion

> <Gold.Protein.ActiveResidues>
 VAL166  LYS551  ARG553  GLY616  TRP617  ASP618  TYR619  PRO620  LYS621  CYS622 
 ASP623  PHE694  ASN695  SER759  ASP760  ASP761  ALA762  ILE779  LEU786  VAL792 
 PHE793  MET794  SER795  GLU796  ALA797  LYS798  CYS799  TRP800  GLU811  SER814 

> <Gold.Protein.RotatedAtoms>
  152.0931  133.4211  159.4552 H   0  0  0  0  0  0  0  0  0  0  0  0  # atno 6907 bound_to 6896
  150.6863  134.2848  159.4651 H   0  0  0  0  0  0  0  0  0  0  0  0  # atno 6908 bound_to 6896
  152.0701  134.9538  160.0625 H   0  0  0  0  0  0  0  0  0  0  0  0  # atno 6909 bound_to 6896
  145.2099  139.2911  143.4274 H   0  0  0  0  0  0  0  0  0  0  0  0  # atno 7974 bound_to 7965
  155.6968  140.3495  155.4916 H   0  0  0  0  0  0  0  0  0  0  0  0  # atno 8008 bound_to 7997
  155.9476  140.1113  157.1026 H   0  0  0  0  0  0  0  0  0  0  0  0  # atno 8009 bound_to 7997
  154.4115  140.1200  156.4996 H   0  0  0  0  0  0  0  0  0  0  0  0  # atno 8010 bound_to 7997
  140.3815  144.1973  150.6130 H   0  0  0  0  0  0  0  0  0  0  0  0  # atno 10167 bound_to 10162
  157.6791  131.0762  150.5459 H   0  0  0  0  0  0  0  0  0  0  0  0  # atno 10718 bound_to 10713
  153.3010  135.6956  153.7203 H   0  0  0  0  0  0  0  0  0  0  0  0  # atno 10763 bound_to 10752
  153.6118  135.3443  155.2982 H   0  0  0  0  0  0  0  0  0  0  0  0  # atno 10764 bound_to 10752
  154.8550  135.4365  154.2121 H   0  0  0  0  0  0  0  0  0  0  0  0  # atno 10765 bound_to 10752
  140.8145  134.2704  157.4927 H   0  0  0  0  0  0  0  0  0  0  0  0  # atno 11005 bound_to 11000
  146.3400  140.2371  142.8594 LP  0  0  0  0  0  0  0  0  0  0  0  0  # atno 17320 bound_to 7965
  144.9866  140.8509  143.5365 LP  0  0  0  0  0  0  0  0  0  0  0  0  # atno 17321 bound_to 7965
  140.4932  143.2341  151.8787 LP  0  0  0  0  0  0  0  0  0  0  0  0  # atno 17342 bound_to 10162
  139.4795  144.5142  151.8890 LP  0  0  0  0  0  0  0  0  0  0  0  0  # atno 17343 bound_to 10162
  156.5765  130.4293  149.5996 LP  0  0  0  0  0  0  0  0  0  0  0  0  # atno 17370 bound_to 10713
  156.2697  130.7010  151.1804 LP  0  0  0  0  0  0  0  0  0  0  0  0  # atno 17371 bound_to 10713
  139.8712  134.9501  156.4047 LP  0  0  0  0  0  0  0  0  0  0  0  0  # atno 17394 bound_to 11000
  140.9163  133.7676  155.9852 LP  0  0  0  0  0  0  0  0  0  0  0  0  # atno 17395 bound_to 11000

$$$$
