AV-unprocessed.smi:1228|AV-procd|sdf|5149|dock5
  -GOLD-   22720 4223D 1   1.00000     0.00000
 Structure written by MMmdl.
 43 45  0  0  0  0  0  0  0  0  1 V2000
  146.5150  129.7560  153.1151 C   0  0  0  0  0  0  0  0  0  0  0  0
  147.4085  130.9075  153.4706 C   0  0  0  0  0  0  0  0  0  0  0  0
  147.2273  132.2871  153.1614 C   0  0  0  0  0  0  0  0  0  0  0  0
  148.3299  132.8694  153.7248 C   0  0  0  0  0  0  0  0  0  0  0  0
  148.6879  134.1809  153.7465 N   0  0  0  0  0  0  0  0  0  0  0  0
  149.1901  134.8987  154.7665 C   0  0  0  0  0  0  0  0  0  0  0  0
  149.4165  134.4708  155.8985 O   0  0  0  0  0  0  0  0  0  0  0  0
  149.4193  136.1672  154.3971 N   0  0  0  0  0  0  0  0  0  0  0  0
  149.9635  137.2105  155.2612 C   0  0  0  0  0  0  0  0  0  0  0  0
  149.0780  138.4689  155.2296 C   0  0  0  0  0  0  0  0  0  0  0  0
  149.7287  139.6235  156.0113 C   0  0  0  0  0  0  0  0  0  0  0  0
  151.0490  139.9291  155.4591 N   0  0  0  0  0  0  0  0  0  0  0  0
  151.6156  141.0499  156.1916 C   0  0  0  0  0  0  0  0  0  0  0  0
  151.3091  141.1457  157.6686 C   0  0  0  0  0  0  0  0  0  0  0  0
  150.6626  142.1071  156.7008 C   0  0  0  0  0  0  0  0  0  0  0  0
  151.9306  138.7714  155.6096 C   0  0  0  0  0  0  0  0  0  0  0  0
  151.3828  137.5805  154.8033 C   0  0  0  0  0  0  0  0  0  0  0  0
  149.0958  131.8904  154.3178 N   0  0  0  0  0  0  0  0  0  0  0  0
  150.3476  132.0109  155.0398 C   0  0  0  0  0  0  0  0  0  0  0  0
  148.5215  130.6785  154.1587 N   0  0  0  0  0  0  0  0  0  0  0  0
  145.6273  130.0962  152.5817 H   0  0  0  0  0  0  0  0  0  0  0  0
  146.1819  129.2263  154.0080 H   0  0  0  0  0  0  0  0  0  0  0  0
  147.0322  129.0407  152.4754 H   0  0  0  0  0  0  0  0  0  0  0  0
  146.4169  132.7491  152.6180 H   0  0  0  0  0  0  0  0  0  0  0  0
  148.5557  134.6764  152.8772 H   0  0  0  0  0  0  0  0  0  0  0  0
  149.2025  136.4330  153.4477 H   0  0  0  0  0  0  0  0  0  0  0  0
  150.0204  136.8392  156.2866 H   0  0  0  0  0  0  0  0  0  0  0  0
  148.9081  138.7812  154.1980 H   0  0  0  0  0  0  0  0  0  0  0  0
  148.0966  138.2498  155.6518 H   0  0  0  0  0  0  0  0  0  0  0  0
  149.0935  140.5078  155.9465 H   0  0  0  0  0  0  0  0  0  0  0  0
  149.8126  139.3660  157.0685 H   0  0  0  0  0  0  0  0  0  0  0  0
  152.5985  141.4160  155.8988 H   0  0  0  0  0  0  0  0  0  0  0  0
  150.6764  140.3776  158.1097 H   0  0  0  0  0  0  0  0  0  0  0  0
  152.0909  141.5343  158.3179 H   0  0  0  0  0  0  0  0  0  0  0  0
  151.0132  143.1372  156.7059 H   0  0  0  0  0  0  0  0  0  0  0  0
  149.6008  141.9773  156.4998 H   0  0  0  0  0  0  0  0  0  0  0  0
  152.9289  139.0245  155.2506 H   0  0  0  0  0  0  0  0  0  0  0  0
  152.0274  138.5042  156.6630 H   0  0  0  0  0  0  0  0  0  0  0  0
  152.0472  136.7230  154.9154 H   0  0  0  0  0  0  0  0  0  0  0  0
  151.3804  137.8341  153.7418 H   0  0  0  0  0  0  0  0  0  0  0  0
  151.0689  132.5619  154.4355 H   0  0  0  0  0  0  0  0  0  0  0  0
  150.7574  131.0252  155.2650 H   0  0  0  0  0  0  0  0  0  0  0  0
  150.1801  132.5473  155.9740 H   0  0  0  0  0  0  0  0  0  0  0  0
  1  2  1  0  0  0  0
  1 21  1  0  0  0  0
  1 22  1  0  0  0  0
  1 23  1  0  0  0  0
  2 20  2  0  0  0  0
  2  3  1  0  0  0  0
  3  4  2  0  0  0  0
  3 24  1  0  0  0  0
  4  5  1  0  0  0  0
  4 18  1  0  0  0  0
  5  6  1  0  0  0  0
  5 25  1  0  0  0  0
  6  7  2  0  0  0  0
  6  8  1  0  0  0  0
  8  9  1  0  0  0  0
  8 26  1  0  0  0  0
  9 17  1  0  0  0  0
  9 10  1  0  0  0  0
  9 27  1  0  0  0  0
 10 11  1  0  0  0  0
 10 28  1  0  0  0  0
 10 29  1  0  0  0  0
 11 12  1  0  0  0  0
 11 30  1  0  0  0  0
 11 31  1  0  0  0  0
 12 13  1  0  0  0  0
 12 16  1  0  0  0  0
 13 15  1  0  0  0  0
 13 14  1  0  0  0  0
 13 32  1  0  0  0  0
 14 15  1  0  0  0  0
 14 33  1  0  0  0  0
 14 34  1  0  0  0  0
 15 35  1  0  0  0  0
 15 36  1  0  0  0  0
 16 17  1  0  0  0  0
 16 37  1  0  0  0  0
 16 38  1  0  0  0  0
 17 39  1  0  0  0  0
 17 40  1  0  0  0  0
 18 19  1  0  0  0  0
 18 20  1  0  0  0  0
 19 41  1  0  0  0  0
 19 42  1  0  0  0  0
 19 43  1  0  0  0  0
M  END
> <s_m_source_file>
AV-unprocessed.smi

> <i_m_source_file_index>
1228

> <i_lp_mmshare_version>
43012

> <i_f3d_flags>
0

> <s_epik_input>
W0NIM11jMVtjSF1jKG4objEpW0NIM10pW05IXUMoPU8pW05IXVtDSF0yW0NIMl1bQ0gyXU4oW0NIMl1bQ0gyXTIpW0NIXTNbQ0gyXVtDSDJdMw==

> <s_epik_cmdline>
J2VwaWtfcHl0aG9uJywgJy1waCcsICc3LjAnLCAnLXRuJywgJzgnLCAnLW1hJywgJzIwMCcsICctbWV0YWxfYmluZGluZycsICctaW1hZScsICc8aW5maWxlLm1hZT4nLCAnLW9tYWUnLCAnPG91dGZpbGUubWFlPic=

> <r_lp_tautomer_probability>
1

> <r_epik_Ionization_Penalty>
1.01084

> <r_epik_Ionization_Penalty_Charging>
0

> <r_epik_Ionization_Penalty_Neutral>
1.01084

> <r_epik_State_Penalty>
1.06014

> <r_epik_Charging_Adjusted_Penalty>
1.06014

> <i_epik_Tot_Q>
0

> <i_epik_Tot_abs_Q>
0

> <r_epik_Metal_State_Penalty>
1.06013

> <b_epik_Metal_Only>
0

> <s_lp_Force_Field>
OPLS_2005

> <r_lp_Energy>
22.8061

> <b_lp_Chiralities_Consistent>
1

> <s_lp_Variant>
AV-unprocessed.smi:1228-3

> <Gold.Version>
5.8.1

> <Gold.Id.Protein>
6NUR|6NUR_protein|mol2

> <Gold.PLP.Fitness>
35.5252

> <Gold.PLP.PLP>
-30.0915

> <Gold.PLP.part.hbond>
-2.3910

> <Gold.PLP.part.metal>
0.0000

> <Gold.PLP.part.buried>
-4.1391

> <Gold.PLP.part.nonpolar>
-23.4011

> <Gold.PLP.part.repulsive>
0.1358

> <Gold.PLP.ligand.clash>
0.3200

> <Gold.PLP.ligand.torsion>
0.9985

> <Gold.PLP.Chemscore.Hbond>
2.1943

> <Gold.PLP.Chemscore.CHOScore>
0.0000

> <Gold.PLP.Chemscore.Metal>
0.0000

> <Gold.Chemscore.Hbonds>
donor molecule, donor type, donor heavy atom, donor atom, acceptor molecule, acceptor atom, score
      L1  H     5    25       P1  7948  0.94
      L1  H     8    26       P1  7948  1.00
      P1  H  7989  7998       L1    12  0.25

> <Gold.PLP.Chemscore.Internal.Correction>
1.1678

> <Gold.Rescore>
     Score         DG    S(hbond)    S(metal)    S(lipo)     H(rot)  DE(clash)    DE(int)     intcor
     13.93     -15.16       1.70        0.00      60.24       1.19       0.09       1.13       ----

> <Gold.Chemscore.Fitness>
13.9326

> <Gold.Chemscore.DG>
-15.1575

> <Gold.Chemscore.ZeroCoef>
-5.4800

> <Gold.Chemscore.Hbond>
1.7031

> <Gold.Chemscore.Metal>
0.0000

> <Gold.Chemscore.Lipo>
60.2368

> <Gold.Chemscore.Internal_Hbond>
0.0000

> <Gold.Chemscore.DEClash>
0.0926

> <Gold.Chemscore.DEInternal>
1.1323

> <Gold.Chemscore.Rot>
1.1948

> <Gold.Chemscore.Internal.Correction>
   9.000000E+99

> <Gold.Chemscore.Hbonds>
donor molecule, donor type, donor heavy atom, donor atom, acceptor molecule, acceptor atom, score
      L1  H     5    25       P1  7948  0.23
      L1  H     8    26       P1  7948  0.92
      P1  H  7989  7998       L1    12  0.01

> <Gold.Chemscore.Hbond.Weighted>
-5.6885

> <Gold.Chemscore.Metal.Weighted>
-0.0000

> <Gold.Chemscore.Lipo.Weighted>
-7.0477

> <Gold.Chemscore.Internal_Hbond.Weighted>
0.0000

> <Gold.Chemscore.DEClash.Weighted>
0.0926

> <Gold.Chemscore.DEInternal.Weighted>
1.1323

> <Gold.Chemscore.Rot.Weighted>
3.0587

> <Gold.Chemscore.Internal.Correction.Weighted>
   9.000000E+99

> <Gold.Protein.RotatedTorsions>
[ 6907 6896 6895 6894 ] final  114.48 input  -60.11 | X-H torsion
[ 7974 7965 7964 7962 ] final  -62.00 input  175.53 | X-H torsion
[ 8008 7997 7996 7995 ] final  -47.97 input   59.86 | X-H torsion
[ 10167 10162 10161 10158 ] final  117.33 input  -65.29 | X-H torsion
[ 10718 10713 10712 10709 ] final -147.68 input   66.30 | X-H torsion
[ 10763 10752 10751 10750 ] final  -60.92 input  -60.55 | X-H torsion
[ 11005 11000 10999 10996 ] final -140.97 input  -57.11 | X-H torsion

> <Gold.Protein.ActiveResidues>
 VAL166  LYS551  ARG553  GLY616  TRP617  ASP618  TYR619  PRO620  LYS621  CYS622 
 ASP623  PHE694  ASN695  SER759  ASP760  ASP761  ALA762  ILE779  LEU786  VAL792 
 PHE793  MET794  SER795  GLU796  ALA797  LYS798  CYS799  TRP800  GLU811  SER814 

> <Gold.Protein.RotatedAtoms>
  152.4800  133.8230  159.7063 H   0  0  0  0  0  0  0  0  0  0  0  0  # atno 6907 bound_to 6896
  150.8842  133.7321  159.2929 H   0  0  0  0  0  0  0  0  0  0  0  0  # atno 6908 bound_to 6896
  151.4815  135.1056  159.9831 H   0  0  0  0  0  0  0  0  0  0  0  0  # atno 6909 bound_to 6896
  145.7966  140.8679  143.0253 H   0  0  0  0  0  0  0  0  0  0  0  0  # atno 7974 bound_to 7965
  154.4023  140.1333  156.4262 H   0  0  0  0  0  0  0  0  0  0  0  0  # atno 8008 bound_to 7997
  155.7595  140.3486  155.5170 H   0  0  0  0  0  0  0  0  0  0  0  0  # atno 8009 bound_to 7997
  155.8873  140.0997  157.1434 H   0  0  0  0  0  0  0  0  0  0  0  0  # atno 8010 bound_to 7997
  139.6186  144.7097  151.2684 H   0  0  0  0  0  0  0  0  0  0  0  0  # atno 10167 bound_to 10162
  156.4107  130.7980  151.2197 H   0  0  0  0  0  0  0  0  0  0  0  0  # atno 10718 bound_to 10713
  154.2766  135.6280  153.5331 H   0  0  0  0  0  0  0  0  0  0  0  0  # atno 10763 bound_to 10752
  152.9872  135.5623  154.5541 H   0  0  0  0  0  0  0  0  0  0  0  0  # atno 10764 bound_to 10752
  154.5123  135.2877  155.1308 H   0  0  0  0  0  0  0  0  0  0  0  0  # atno 10765 bound_to 10752
  140.8370  134.2448  157.4829 H   0  0  0  0  0  0  0  0  0  0  0  0  # atno 11005 bound_to 11000
  144.6774  140.0199  143.7484 LP  0  0  0  0  0  0  0  0  0  0  0  0  # atno 17320 bound_to 7965
  145.9921  139.3023  143.0978 LP  0  0  0  0  0  0  0  0  0  0  0  0  # atno 17321 bound_to 7965
  140.7367  143.6699  150.8091 LP  0  0  0  0  0  0  0  0  0  0  0  0  # atno 17342 bound_to 10162
  140.0306  143.5448  152.2762 LP  0  0  0  0  0  0  0  0  0  0  0  0  # atno 17343 bound_to 10162
  157.7507  131.0258  150.3937 LP  0  0  0  0  0  0  0  0  0  0  0  0  # atno 17370 bound_to 10713
  156.4234  130.3957  149.6809 LP  0  0  0  0  0  0  0  0  0  0  0  0  # atno 17371 bound_to 10713
  139.8704  134.9616  156.4400 LP  0  0  0  0  0  0  0  0  0  0  0  0  # atno 17394 bound_to 11000
  140.8937  133.7830  155.9600 LP  0  0  0  0  0  0  0  0  0  0  0  0  # atno 17395 bound_to 11000

$$$$
