AV-unprocessed.smi:212|AV-procd|sdf|1619|dock5
  -GOLD-   2262019553D 1   1.00000     0.00000
 Structure written by MMmdl.
 65 68  0  0  0  0  0  0  0  0  2 V2000
  143.5128  136.1562  152.3307 C   0  0  0  0  0  0  0  0  0  0  0  0
  145.0053  136.5267  152.3526 C   0  0  2  0  0  0  0  0  0  0  0  0
  145.8213  135.7187  151.3209 C   0  0  0  0  0  0  0  0  0  0  0  0
  145.9787  134.2972  151.7340 N   0  3  1  0  0  0  0  0  0  0  0  0
  146.6738  133.4477  150.7281 C   0  0  0  0  0  0  0  0  0  0  0  0
  145.8606  132.2131  150.2575 C   0  0  0  0  0  0  0  0  0  0  0  0
  145.6366  131.2549  151.4403 C   0  0  0  0  0  0  0  0  0  0  0  0
  144.5104  132.5919  149.6199 C   0  0  0  0  0  0  0  0  0  0  0  0
  146.6116  131.4801  149.3114 O   0  0  0  0  0  0  0  0  0  0  0  0
  146.5891  134.1826  153.0843 C   0  0  0  0  0  0  0  0  0  0  0  0
  145.7991  134.9912  154.1297 C   0  0  0  0  0  0  0  0  0  0  0  0
  145.5820  136.3688  153.6891 N   0  0  0  0  0  0  0  0  0  0  0  0
  146.4766  137.3217  154.0568 C   0  0  0  0  0  0  0  0  0  0  0  0
  146.8405  138.2914  153.1766 N   0  0  0  0  0  0  0  0  0  0  0  0
  147.7070  139.2408  153.5414 C   0  0  0  0  0  0  0  0  0  0  0  0
  148.3187  139.4044  154.7156 N   0  0  0  0  0  0  0  0  0  0  0  0
  147.9626  138.4326  155.6029 C   0  0  0  0  0  0  0  0  0  0  0  0
  147.0594  137.3611  155.3542 C   0  0  0  0  0  0  0  0  0  0  0  0
  146.9573  136.5556  156.4810 N   0  0  0  0  0  0  0  0  0  0  0  0
  147.7535  137.1197  157.3470 C   0  0  0  0  0  0  0  0  0  0  0  0
  148.3830  138.2657  156.9124 N   0  0  0  0  0  0  0  0  0  0  0  0
  149.3124  139.0916  157.6733 C   0  0  0  0  0  0  0  0  0  0  0  0
  149.9454  140.2537  156.8623 C   0  0  2  0  0  0  0  0  0  0  0  0
  151.0116  139.7144  155.8783 C   0  0  0  0  0  0  0  0  0  0  0  0
  150.8094  140.1916  154.5646 O   0  0  0  0  0  0  0  0  0  0  0  0
  150.4918  141.3759  157.7885 C   0  0  2  0  0  0  0  0  0  0  0  0
  151.0036  142.6035  157.0515 C   0  0  0  0  0  0  0  0  0  0  0  0
  151.8448  143.3023  158.1149 C   0  0  0  0  0  0  0  0  0  0  0  0
  152.3276  142.2704  158.9682 O   0  0  0  0  0  0  0  0  0  0  0  0
  151.7457  141.0262  158.5957 C   0  0  0  0  0  0  0  0  0  0  0  0
  143.0832  136.3324  151.3442 H   0  0  0  0  0  0  0  0  0  0  0  0
  142.9525  136.7613  153.0442 H   0  0  0  0  0  0  0  0  0  0  0  0
  143.3451  135.1080  152.5782 H   0  0  0  0  0  0  0  0  0  0  0  0
  145.0664  137.5727  152.0508 H   0  0  0  0  0  0  0  0  0  0  0  0
  145.3336  135.7945  150.3514 H   0  0  0  0  0  0  0  0  0  0  0  0
  146.8108  136.1641  151.2058 H   0  0  0  0  0  0  0  0  0  0  0  0
  147.0008  134.0545  149.8819 H   0  0  0  0  0  0  0  0  0  0  0  0
  147.5890  133.0688  151.1859 H   0  0  0  0  0  0  0  0  0  0  0  0
  145.0418  131.7264  152.2235 H   0  0  0  0  0  0  0  0  0  0  0  0
  146.5820  130.9460  151.8881 H   0  0  0  0  0  0  0  0  0  0  0  0
  145.1091  130.3518  151.1303 H   0  0  0  0  0  0  0  0  0  0  0  0
  143.9013  133.1798  150.3074 H   0  0  0  0  0  0  0  0  0  0  0  0
  143.9366  131.7042  149.3508 H   0  0  0  0  0  0  0  0  0  0  0  0
  144.6407  133.1767  148.7085 H   0  0  0  0  0  0  0  0  0  0  0  0
  147.3835  131.1387  149.7373 H   0  0  0  0  0  0  0  0  0  0  0  0
  146.6175  133.1373  153.3937 H   0  0  0  0  0  0  0  0  0  0  0  0
  147.6233  134.5266  153.0396 H   0  0  0  0  0  0  0  0  0  0  0  0
  144.8268  134.5267  154.2950 H   0  0  0  0  0  0  0  0  0  0  0  0
  146.3062  134.9665  155.0953 H   0  0  0  0  0  0  0  0  0  0  0  0
  147.9418  139.9760  152.7858 H   0  0  0  0  0  0  0  0  0  0  0  0
  147.8992  136.7121  158.3368 H   0  0  0  0  0  0  0  0  0  0  0  0
  148.7734  139.4949  158.5313 H   0  0  0  0  0  0  0  0  0  0  0  0
  150.0866  138.4488  158.0922 H   0  0  0  0  0  0  0  0  0  0  0  0
  149.1388  140.6784  156.2621 H   0  0  0  0  0  0  0  0  0  0  0  0
  152.0184  139.9718  156.2088 H   0  0  0  0  0  0  0  0  0  0  0  0
  150.9600  138.6267  155.8236 H   0  0  0  0  0  0  0  0  0  0  0  0
  149.8823  140.3146  154.4278 H   0  0  0  0  0  0  0  0  0  0  0  0
  149.7167  141.6830  158.4919 H   0  0  0  0  0  0  0  0  0  0  0  0
  151.6380  142.3059  156.2155 H   0  0  0  0  0  0  0  0  0  0  0  0
  150.2167  143.2459  156.6602 H   0  0  0  0  0  0  0  0  0  0  0  0
  152.6637  143.8780  157.6831 H   0  0  0  0  0  0  0  0  0  0  0  0
  151.2280  143.9802  158.7063 H   0  0  0  0  0  0  0  0  0  0  0  0
  151.5249  140.4216  159.4756 H   0  0  0  0  0  0  0  0  0  0  0  0
  152.4644  140.4839  157.9796 H   0  0  0  0  0  0  0  0  0  0  0  0
  145.0462  133.9198  151.8221 H   0  0  0  0  0  0  0  0  0  0  0  0
  1  2  1  0  0  0  0
  1 31  1  0  0  0  0
  1 32  1  0  0  0  0
  1 33  1  0  0  0  0
  2 12  1  0  0  0  0
  2  3  1  0  0  0  0
  2 34  1  0  0  0  0
  3  4  1  0  0  0  0
  3 35  1  0  0  0  0
  3 36  1  0  0  0  0
  4  5  1  0  0  0  0
  4 10  1  0  0  0  0
  4 65  1  0  0  0  0
  5  6  1  0  0  0  0
  5 37  1  0  0  0  0
  5 38  1  0  0  0  0
  6  7  1  0  0  0  0
  6  8  1  0  0  0  0
  6  9  1  0  0  0  0
  7 39  1  0  0  0  0
  7 40  1  0  0  0  0
  7 41  1  0  0  0  0
  8 42  1  0  0  0  0
  8 43  1  0  0  0  0
  8 44  1  0  0  0  0
  9 45  1  0  0  0  0
 10 11  1  0  0  0  0
 10 46  1  0  0  0  0
 10 47  1  0  0  0  0
 11 12  1  0  0  0  0
 11 48  1  0  0  0  0
 11 49  1  0  0  0  0
 12 13  1  0  0  0  0
 13 18  1  0  0  0  0
 13 14  2  0  0  0  0
 14 15  1  0  0  0  0
 15 16  2  0  0  0  0
 15 50  1  0  0  0  0
 16 17  1  0  0  0  0
 17 21  1  0  0  0  0
 17 18  2  0  0  0  0
 18 19  1  0  0  0  0
 19 20  2  0  0  0  0
 20 21  1  0  0  0  0
 20 51  1  0  0  0  0
 21 22  1  0  0  0  0
 22 23  1  0  0  0  0
 22 52  1  0  0  0  0
 22 53  1  0  0  0  0
 23 24  1  0  0  0  0
 23 26  1  0  0  0  0
 23 54  1  0  0  0  0
 24 25  1  0  0  0  0
 24 55  1  0  0  0  0
 24 56  1  0  0  0  0
 25 57  1  0  0  0  0
 26 30  1  0  0  0  0
 26 27  1  0  0  0  0
 26 58  1  0  0  0  0
 27 28  1  0  0  0  0
 27 59  1  0  0  0  0
 27 60  1  0  0  0  0
 28 29  1  0  0  0  0
 28 61  1  0  0  0  0
 28 62  1  0  0  0  0
 29 30  1  0  0  0  0
 30 63  1  0  0  0  0
 30 64  1  0  0  0  0
M  CHG  1   4   1
M  END
> <s_m_source_file>
AV-unprocessed.smi

> <i_m_source_file_index>
212

> <i_lp_mmshare_version>
43012

> <i_f3d_flags>
0

> <s_epik_input>
W0NIM11bQ0BASF0xW0NIMl1OKFtDSDJdQyhbQ0gzXSkoW0NIM10pW09IXSlbQ0gyXVtDSDJdTjFjKG5bY0hdbjIpYyhjMjMpbltjSF1uM1tDSDJdW0NASF0oW0NIMl1bT0hdKVtDQEBIXTRbQ0gyXVtDSDJdT1tDSDJdNA==

> <s_epik_cmdline>
J2VwaWtfcHl0aG9uJywgJy1waCcsICc3LjAnLCAnLXRuJywgJzgnLCAnLW1hJywgJzIwMCcsICctbWV0YWxfYmluZGluZycsICctaW1hZScsICc8aW5maWxlLm1hZT4nLCAnLW9tYWUnLCAnPG91dGZpbGUubWFlPic=

> <r_lp_tautomer_probability>
1

> <r_epik_Ionization_Penalty>
0.00182193

> <r_epik_Ionization_Penalty_Charging>
0.00173996

> <r_epik_Ionization_Penalty_Neutral>
8.19718e-05

> <r_epik_State_Penalty>
-0

> <r_epik_Charging_Adjusted_Penalty>
0.00173996

> <i_epik_Tot_Q>
1

> <i_epik_Tot_abs_Q>
1

> <r_epik_Metal_State_Penalty>
-0

> <b_epik_Metal_Only>
0

> <s_lp_Force_Field>
OPLS_2005

> <r_lp_Energy>
58.2747

> <b_lp_Chiralities_Consistent>
1

> <s_lp_Variant>
AV-unprocessed.smi:212-3

> <Gold.Version>
5.8.1

> <Gold.Id.Protein>
6NUR|6NUR_protein|mol2

> <Gold.PLP.Fitness>
44.8458

> <Gold.PLP.PLP>
-38.9791

> <Gold.PLP.part.hbond>
-2.0000

> <Gold.PLP.part.metal>
0.0000

> <Gold.PLP.part.buried>
-8.8527

> <Gold.PLP.part.nonpolar>
-29.1157

> <Gold.PLP.part.repulsive>
0.3468

> <Gold.PLP.ligand.clash>
0.0000

> <Gold.PLP.ligand.torsion>
1.9116

> <Gold.PLP.Chemscore.Hbond>
2.0000

> <Gold.PLP.Chemscore.CHOScore>
1.0000

> <Gold.PLP.Chemscore.Metal>
0.0000

> <Gold.Chemscore.Hbonds>
donor molecule, donor type, donor heavy atom, donor atom, acceptor molecule, acceptor atom, score
      L1  H     9    45       P1 10747  1.00
      P1  H  7989  7998       L1    25  0.94
      L1  C    15    50       P1  7957  1.00

> <Gold.PLP.Chemscore.Internal.Correction>
0.6898

> <Gold.Rescore>
     Score         DG    S(hbond)    S(metal)    S(lipo)     H(rot)  DE(clash)    DE(int)     intcor
      9.74     -15.18       1.98        0.00     100.68       3.40       0.10       5.34       ----

> <Gold.Chemscore.Fitness>
9.7390

> <Gold.Chemscore.DG>
-15.1797

> <Gold.Chemscore.ZeroCoef>
-5.4800

> <Gold.Chemscore.Hbond>
1.9821

> <Gold.Chemscore.Metal>
0.0000

> <Gold.Chemscore.Lipo>
100.6835

> <Gold.Chemscore.Internal_Hbond>
0.0000

> <Gold.Chemscore.DEClash>
0.1009

> <Gold.Chemscore.DEInternal>
5.3397

> <Gold.Chemscore.Rot>
3.3986

> <Gold.Chemscore.Internal.Correction>
   9.000000E+99

> <Gold.Chemscore.Hbonds>
donor molecule, donor type, donor heavy atom, donor atom, acceptor molecule, acceptor atom, score
      L1  H     9    45       P1 10747  1.00
      P1  H  7989  7998       L1    25  0.74

> <Gold.Chemscore.Hbond.Weighted>
-6.6202

> <Gold.Chemscore.Metal.Weighted>
-0.0000

> <Gold.Chemscore.Lipo.Weighted>
-11.7800

> <Gold.Chemscore.Internal_Hbond.Weighted>
0.0000

> <Gold.Chemscore.DEClash.Weighted>
0.1009

> <Gold.Chemscore.DEInternal.Weighted>
5.3397

> <Gold.Chemscore.Rot.Weighted>
8.7005

> <Gold.Chemscore.Internal.Correction.Weighted>
   9.000000E+99

> <Gold.Protein.RotatedTorsions>
[ 6907 6896 6895 6894 ] final -179.22 input  -60.11 | X-H torsion
[ 7974 7965 7964 7962 ] final -163.19 input  175.53 | X-H torsion
[ 8008 7997 7996 7995 ] final  132.82 input   59.86 | X-H torsion
[ 10167 10162 10161 10158 ] final  -48.91 input  -65.29 | X-H torsion
[ 10718 10713 10712 10709 ] final   -1.38 input   66.30 | X-H torsion
[ 10763 10752 10751 10750 ] final   -7.83 input  -60.55 | X-H torsion
[ 11005 11000 10999 10996 ] final   53.88 input  -57.11 | X-H torsion

> <Gold.Protein.ActiveResidues>
 VAL166  LYS551  ARG553  GLY616  TRP617  ASP618  TYR619  PRO620  LYS621  CYS622 
 ASP623  PHE694  ASN695  SER759  ASP760  ASP761  ALA762  ILE779  LEU786  VAL792 
 PHE793  MET794  SER795  GLU796  ALA797  LYS798  CYS799  TRP800  GLU811  SER814 

> <Gold.Protein.RotatedAtoms>
  151.6500  133.3321  159.3149 H   0  0  0  0  0  0  0  0  0  0  0  0  # atno 6907 bound_to 6896
  150.7965  134.7032  159.6571 H   0  0  0  0  0  0  0  0  0  0  0  0  # atno 6908 bound_to 6896
  152.4053  134.6222  160.0105 H   0  0  0  0  0  0  0  0  0  0  0  0  # atno 6909 bound_to 6896
  144.7333  140.3143  143.6182 H   0  0  0  0  0  0  0  0  0  0  0  0  # atno 7974 bound_to 7965
  156.2986  140.2537  156.3152 H   0  0  0  0  0  0  0  0  0  0  0  0  # atno 8008 bound_to 7997
  154.9288  140.0399  157.2056 H   0  0  0  0  0  0  0  0  0  0  0  0  # atno 8009 bound_to 7997
  154.8239  140.2864  155.5772 H   0  0  0  0  0  0  0  0  0  0  0  0  # atno 8010 bound_to 7997
  140.6709  143.2720  151.4138 H   0  0  0  0  0  0  0  0  0  0  0  0  # atno 10167 bound_to 10162
  156.8065  130.5410  149.5714 H   0  0  0  0  0  0  0  0  0  0  0  0  # atno 10718 bound_to 10713
  153.4319  135.7012  153.6225 H   0  0  0  0  0  0  0  0  0  0  0  0  # atno 10763 bound_to 10752
  153.4636  135.3730  155.2352 H   0  0  0  0  0  0  0  0  0  0  0  0  # atno 10764 bound_to 10752
  154.8725  135.4026  154.3704 H   0  0  0  0  0  0  0  0  0  0  0  0  # atno 10765 bound_to 10752
  140.0731  134.5442  155.9025 H   0  0  0  0  0  0  0  0  0  0  0  0  # atno 11005 bound_to 11000
  145.7633  139.1832  143.2254 LP  0  0  0  0  0  0  0  0  0  0  0  0  # atno 17320 bound_to 7965
  146.0969  140.7590  142.9568 LP  0  0  0  0  0  0  0  0  0  0  0  0  # atno 17321 bound_to 7965
  139.5978  144.1360  152.2163 LP  0  0  0  0  0  0  0  0  0  0  0  0  # atno 17342 bound_to 10162
  140.0735  144.5760  150.7174 LP  0  0  0  0  0  0  0  0  0  0  0  0  # atno 17343 bound_to 10162
  156.1070  130.6012  150.9987 LP  0  0  0  0  0  0  0  0  0  0  0  0  # atno 17370 bound_to 10713
  157.6528  131.0894  150.8014 LP  0  0  0  0  0  0  0  0  0  0  0  0  # atno 17371 bound_to 10713
  141.2019  133.6622  156.5978 LP  0  0  0  0  0  0  0  0  0  0  0  0  # atno 17394 bound_to 11000
  140.3598  134.7697  157.4525 LP  0  0  0  0  0  0  0  0  0  0  0  0  # atno 17395 bound_to 11000

$$$$
