AV-unprocessed.smi:2461|AV-procd|sdf|9716|dock8
  -GOLD-   2272013353D 1   1.00000     0.00000
 Structure written by MMmdl.
 36 37  0  0  0  0  0  0  0  0  1 V2000
  153.2181  142.5519  160.5866 C   0  0  0  0  0  0  0  0  0  0  0  0
  151.8992  143.3371  160.5500 C   0  0  0  0  0  0  0  0  0  0  0  0
  151.7589  144.2339  159.3245 C   0  0  0  0  0  0  0  0  0  0  0  0
  152.1813  143.5203  158.0376 C   0  0  0  0  0  0  0  0  0  0  0  0
  151.1318  143.3304  157.0428 N   0  0  0  0  0  0  0  0  0  0  0  0
  150.7014  142.1419  156.5965 C   0  0  0  0  0  0  0  0  0  0  0  0
  151.1841  141.0669  156.9531 O   0  0  0  0  0  0  0  0  0  0  0  0
  149.6820  142.2878  155.7322 N   0  0  0  0  0  0  0  0  0  0  0  0
  148.9464  141.2709  155.0684 C   0  0  0  0  0  0  0  0  0  0  0  0
  149.5820  140.0120  154.9812 C   0  0  0  0  0  0  0  0  0  0  0  0
  148.8886  138.9764  154.3219 C   0  0  0  0  0  0  0  0  0  0  0  0
  149.4794  137.7352  154.2059 O   0  0  0  0  0  0  0  0  0  0  0  0
  150.8365  137.5963  154.6108 C   0  0  0  0  0  0  0  0  0  0  0  0
  147.6553  139.1782  153.7983 N   0  0  0  0  0  0  0  0  0  0  0  0
  147.1373  140.3993  153.9362 C   0  0  0  0  0  0  0  0  0  0  0  0
  147.7116  141.4440  154.5355 N   0  0  0  0  0  0  0  0  0  0  0  0
  150.6297  145.2516  159.2833 C   0  0  0  0  0  0  0  0  0  0  0  0
  152.0466  145.7176  159.4653 C   0  0  0  0  0  0  0  0  0  0  0  0
  153.2821  141.9505  161.4934 H   0  0  0  0  0  0  0  0  0  0  0  0
  154.0769  143.2234  160.5745 H   0  0  0  0  0  0  0  0  0  0  0  0
  153.3110  141.8754  159.7375 H   0  0  0  0  0  0  0  0  0  0  0  0
  151.0527  142.6513  160.5939 H   0  0  0  0  0  0  0  0  0  0  0  0
  151.8355  143.9523  161.4482 H   0  0  0  0  0  0  0  0  0  0  0  0
  152.9739  144.0998  157.5643 H   0  0  0  0  0  0  0  0  0  0  0  0
  152.6315  142.5531  158.2655 H   0  0  0  0  0  0  0  0  0  0  0  0
  150.6816  144.1635  156.6928 H   0  0  0  0  0  0  0  0  0  0  0  0
  149.3830  143.2334  155.5453 H   0  0  0  0  0  0  0  0  0  0  0  0
  150.5653  139.8439  155.3959 H   0  0  0  0  0  0  0  0  0  0  0  0
  151.1505  136.5622  154.4700 H   0  0  0  0  0  0  0  0  0  0  0  0
  150.9651  137.8397  155.6665 H   0  0  0  0  0  0  0  0  0  0  0  0
  151.4977  138.2268  154.0146 H   0  0  0  0  0  0  0  0  0  0  0  0
  146.1533  140.5589  153.5207 H   0  0  0  0  0  0  0  0  0  0  0  0
  150.1588  145.4717  158.3276 H   0  0  0  0  0  0  0  0  0  0  0  0
  149.9682  145.3128  160.1450 H   0  0  0  0  0  0  0  0  0  0  0  0
  152.3275  146.0897  160.4484 H   0  0  0  0  0  0  0  0  0  0  0  0
  152.5117  146.2316  158.6265 H   0  0  0  0  0  0  0  0  0  0  0  0
  1  2  1  0  0  0  0
  1 19  1  0  0  0  0
  1 20  1  0  0  0  0
  1 21  1  0  0  0  0
  2  3  1  0  0  0  0
  2 22  1  0  0  0  0
  2 23  1  0  0  0  0
  3 18  1  0  0  0  0
  3  4  1  0  0  0  0
  3 17  1  0  0  0  0
  4  5  1  0  0  0  0
  4 24  1  0  0  0  0
  4 25  1  0  0  0  0
  5  6  1  0  0  0  0
  5 26  1  0  0  0  0
  6  7  2  0  0  0  0
  6  8  1  0  0  0  0
  8  9  1  0  0  0  0
  8 27  1  0  0  0  0
  9 16  1  0  0  0  0
  9 10  2  0  0  0  0
 10 11  1  0  0  0  0
 10 28  1  0  0  0  0
 11 12  1  0  0  0  0
 11 14  2  0  0  0  0
 12 13  1  0  0  0  0
 13 29  1  0  0  0  0
 13 30  1  0  0  0  0
 13 31  1  0  0  0  0
 14 15  1  0  0  0  0
 15 16  2  0  0  0  0
 15 32  1  0  0  0  0
 17 18  1  0  0  0  0
 17 33  1  0  0  0  0
 17 34  1  0  0  0  0
 18 35  1  0  0  0  0
 18 36  1  0  0  0  0
M  END
> <s_m_source_file>
AV-unprocessed.smi

> <i_m_source_file_index>
2461

> <i_lp_mmshare_version>
43012

> <i_f3d_flags>
0

> <s_epik_input>
W0NIM11bQ0gyXUMxKFtDSDJdW0NIMl0xKVtDSDJdW05IXUMoPU8pW05IXWMyW2NIXWMoT1tDSDNdKW5bY0hdbjI=

> <s_epik_cmdline>
J2VwaWtfcHl0aG9uJywgJy1waCcsICc3LjAnLCAnLXRuJywgJzgnLCAnLW1hJywgJzIwMCcsICctbWV0YWxfYmluZGluZycsICctaW1hZScsICc8aW5maWxlLm1hZT4nLCAnLW9tYWUnLCAnPG91dGZpbGUubWFlPic=

> <r_lp_tautomer_probability>
1

> <r_epik_Ionization_Penalty>
2.7206e-05

> <r_epik_Ionization_Penalty_Charging>
0

> <r_epik_Ionization_Penalty_Neutral>
2.7206e-05

> <r_epik_State_Penalty>
-0

> <r_epik_Charging_Adjusted_Penalty>
0

> <i_epik_Tot_Q>
0

> <i_epik_Tot_abs_Q>
0

> <r_epik_Metal_State_Penalty>
-0

> <b_epik_Metal_Only>
0

> <s_lp_Force_Field>
OPLS_2005

> <r_lp_Energy>
17.684

> <b_lp_Chiralities_Consistent>
1

> <s_lp_Variant>
AV-unprocessed.smi:2461-1

> <Gold.Version>
5.8.1

> <Gold.Id.Protein>
6NUR|6NUR_protein|mol2

> <Gold.PLP.Fitness>
42.4014

> <Gold.PLP.PLP>
-36.3768

> <Gold.PLP.part.hbond>
-1.9758

> <Gold.PLP.part.metal>
0.0000

> <Gold.PLP.part.buried>
-5.8936

> <Gold.PLP.part.nonpolar>
-33.5378

> <Gold.PLP.part.repulsive>
3.8177

> <Gold.PLP.ligand.clash>
0.1052

> <Gold.PLP.ligand.torsion>
1.3562

> <Gold.PLP.Chemscore.Hbond>
1.8393

> <Gold.PLP.Chemscore.CHOScore>
0.7163

> <Gold.PLP.Chemscore.Metal>
0.0000

> <Gold.Chemscore.Hbonds>
donor molecule, donor type, donor heavy atom, donor atom, acceptor molecule, acceptor atom, score
      L1  H     5    26       P1  8028  0.62
      L1  H     8    27       P1  8028  1.00
      L1  C    15    32       P1 10175  0.63

> <Gold.PLP.Chemscore.Internal.Correction>
1.1755

> <Gold.Rescore>
     Score         DG    S(hbond)    S(metal)    S(lipo)     H(rot)  DE(clash)    DE(int)     intcor
     12.77     -16.81       1.91        0.00      83.02       1.87       1.37       2.67       ----

> <Gold.Chemscore.Fitness>
12.7669

> <Gold.Chemscore.DG>
-16.8066

> <Gold.Chemscore.ZeroCoef>
-5.4800

> <Gold.Chemscore.Hbond>
1.9135

> <Gold.Chemscore.Metal>
0.0000

> <Gold.Chemscore.Lipo>
83.0210

> <Gold.Chemscore.Internal_Hbond>
0.0000

> <Gold.Chemscore.DEClash>
1.3658

> <Gold.Chemscore.DEInternal>
2.6740

> <Gold.Chemscore.Rot>
1.8664

> <Gold.Chemscore.Internal.Correction>
   9.000000E+99

> <Gold.Chemscore.Hbonds>
donor molecule, donor type, donor heavy atom, donor atom, acceptor molecule, acceptor atom, score
      L1  H     5    26       P1  8028  0.61
      L1  H     8    27       P1  8028  0.97

> <Gold.Chemscore.Hbond.Weighted>
-6.3912

> <Gold.Chemscore.Metal.Weighted>
-0.0000

> <Gold.Chemscore.Lipo.Weighted>
-9.7135

> <Gold.Chemscore.Internal_Hbond.Weighted>
0.0000

> <Gold.Chemscore.DEClash.Weighted>
1.3658

> <Gold.Chemscore.DEInternal.Weighted>
2.6740

> <Gold.Chemscore.Rot.Weighted>
4.7781

> <Gold.Chemscore.Internal.Correction.Weighted>
   9.000000E+99

> <Gold.Protein.RotatedTorsions>
[ 6907 6896 6895 6894 ] final -132.79 input  -60.11 | X-H torsion
[ 7974 7965 7964 7962 ] final    4.58 input  175.53 | X-H torsion
[ 8008 7997 7996 7995 ] final   92.02 input   59.86 | X-H torsion
[ 10167 10162 10161 10158 ] final  -81.54 input  -65.29 | X-H torsion
[ 10718 10713 10712 10709 ] final   -3.00 input   66.30 | X-H torsion
[ 10763 10752 10751 10750 ] final    5.59 input  -60.55 | X-H torsion
[ 11005 11000 10999 10996 ] final   66.31 input  -57.11 | X-H torsion

> <Gold.Protein.ActiveResidues>
 VAL166  LYS551  ARG553  GLY616  TRP617  ASP618  TYR619  PRO620  LYS621  CYS622 
 ASP623  PHE694  ASN695  SER759  ASP760  ASP761  ALA762  ILE779  LEU786  VAL792 
 PHE793  MET794  SER795  GLU796  ALA797  LYS798  CYS799  TRP800  GLU811  SER814 

> <Gold.Protein.RotatedAtoms>
  150.9664  133.6390  159.2745 H   0  0  0  0  0  0  0  0  0  0  0  0  # atno 6907 bound_to 6896
  151.3694  135.0918  159.9470 H   0  0  0  0  0  0  0  0  0  0  0  0  # atno 6908 bound_to 6896
  152.5167  133.9222  159.7594 H   0  0  0  0  0  0  0  0  0  0  0  0  # atno 6909 bound_to 6896
  146.2443  140.0513  142.8375 H   0  0  0  0  0  0  0  0  0  0  0  0  # atno 7974 bound_to 7965
  156.0305  140.3330  155.7135 H   0  0  0  0  0  0  0  0  0  0  0  0  # atno 8008 bound_to 7997
  155.5891  140.0644  157.2781 H   0  0  0  0  0  0  0  0  0  0  0  0  # atno 8009 bound_to 7997
  154.4351  140.1830  156.1044 H   0  0  0  0  0  0  0  0  0  0  0  0  # atno 8010 bound_to 7997
  140.4403  143.2517  151.8636 H   0  0  0  0  0  0  0  0  0  0  0  0  # atno 10167 bound_to 10162
  156.7826  130.5335  149.5748 H   0  0  0  0  0  0  0  0  0  0  0  0  # atno 10718 bound_to 10713
  153.2576  135.6920  153.7612 H   0  0  0  0  0  0  0  0  0  0  0  0  # atno 10763 bound_to 10752
  153.6683  135.3348  155.3147 H   0  0  0  0  0  0  0  0  0  0  0  0  # atno 10764 bound_to 10752
  154.8418  135.4494  154.1555 H   0  0  0  0  0  0  0  0  0  0  0  0  # atno 10765 bound_to 10752
  139.9840  134.6698  156.0210 H   0  0  0  0  0  0  0  0  0  0  0  0  # atno 11005 bound_to 11000
  145.0981  140.9328  143.4729 LP  0  0  0  0  0  0  0  0  0  0  0  0  # atno 17320 bound_to 7965
  145.0700  139.3038  143.5837 LP  0  0  0  0  0  0  0  0  0  0  0  0  # atno 17321 bound_to 7965
  139.4789  144.5237  151.8766 LP  0  0  0  0  0  0  0  0  0  0  0  0  # atno 17342 bound_to 10162
  140.4326  144.2094  150.5888 LP  0  0  0  0  0  0  0  0  0  0  0  0  # atno 17343 bound_to 10162
  156.1209  130.6109  151.0191 LP  0  0  0  0  0  0  0  0  0  0  0  0  # atno 17370 bound_to 10713
  157.6639  131.0875  150.7774 LP  0  0  0  0  0  0  0  0  0  0  0  0  # atno 17371 bound_to 10713
  141.1508  133.6549  156.4006 LP  0  0  0  0  0  0  0  0  0  0  0  0  # atno 17394 bound_to 11000
  140.5040  134.6459  157.5259 LP  0  0  0  0  0  0  0  0  0  0  0  0  # atno 17395 bound_to 11000

$$$$
