AV-unprocessed.smi:3068|AV-procd|sdf|11702|dock6
  -GOLD-   2272017103D 1   1.00000     0.00000
 Structure written by MMmdl.
 40 42  0  0  0  0  0  0  0  0  2 V2000
  149.1042  138.9399  157.9538 N   0  0  0  0  0  0  0  0  0  0  0  0
  148.6923  138.0706  158.5972 C   0  0  0  0  0  0  0  0  0  0  0  0
  148.1749  136.9770  159.4097 C   0  0  0  0  0  0  0  0  0  0  0  0
  148.0349  137.2153  160.7344 N   0  0  0  0  0  0  0  0  0  0  0  0
  147.5607  136.2073  161.4973 C   0  0  0  0  0  0  0  0  0  0  0  0
  147.2233  134.9577  160.9422 C   0  0  0  0  0  0  0  0  0  0  0  0
  147.3588  134.7113  159.6218 N   0  0  0  0  0  0  0  0  0  0  0  0
  147.8364  135.7152  158.8442 C   0  0  0  0  0  0  0  0  0  0  0  0
  147.9813  135.4713  157.4669 N   0  0  0  0  0  0  0  0  0  0  0  0
  147.9516  134.1098  156.9511 C   0  0  0  0  0  0  0  0  0  0  0  0
  148.2912  134.0631  155.4553 C   0  0  2  0  0  0  0  0  0  0  0  0
  147.0513  134.3462  154.5873 C   0  0  0  0  0  0  0  0  0  0  0  0
  147.3753  134.1987  153.1466 N   0  3  2  0  0  0  0  0  0  0  0  0
  146.2385  134.5070  152.2399 C   0  0  0  0  0  0  0  0  0  0  0  0
  145.1864  133.3812  152.2215 C   0  0  0  0  0  0  0  0  0  0  0  0
  145.8301  132.0293  151.8841 C   0  0  0  0  0  0  0  0  0  0  0  0
  146.9941  131.7366  152.8412 C   0  0  0  0  0  0  0  0  0  0  0  0
  148.0194  132.8921  152.8387 C   0  0  2  0  0  0  0  0  0  0  0  0
  149.1987  132.6421  153.7985 C   0  0  0  0  0  0  0  0  0  0  0  0
  148.7663  132.7563  155.1485 O   0  0  0  0  0  0  0  0  0  0  0  0
  147.4502  136.3987  162.5543 H   0  0  0  0  0  0  0  0  0  0  0  0
  146.8449  134.1546  161.5573 H   0  0  0  0  0  0  0  0  0  0  0  0
  148.3493  136.2027  156.8752 H   0  0  0  0  0  0  0  0  0  0  0  0
  148.6485  133.4869  157.5140 H   0  0  0  0  0  0  0  0  0  0  0  0
  146.9524  133.7021  157.1105 H   0  0  0  0  0  0  0  0  0  0  0  0
  149.0658  134.8016  155.2387 H   0  0  0  0  0  0  0  0  0  0  0  0
  146.2425  133.6707  154.8671 H   0  0  0  0  0  0  0  0  0  0  0  0
  146.6934  135.3594  154.7736 H   0  0  0  0  0  0  0  0  0  0  0  0
  145.7803  135.4547  152.5249 H   0  0  0  0  0  0  0  0  0  0  0  0
  146.6341  134.6481  151.2332 H   0  0  0  0  0  0  0  0  0  0  0  0
  144.6833  133.3195  153.1870 H   0  0  0  0  0  0  0  0  0  0  0  0
  144.4106  133.6131  151.4914 H   0  0  0  0  0  0  0  0  0  0  0  0
  145.0866  131.2339  151.9412 H   0  0  0  0  0  0  0  0  0  0  0  0
  146.1944  132.0426  150.8561 H   0  0  0  0  0  0  0  0  0  0  0  0
  146.6089  131.5712  153.8479 H   0  0  0  0  0  0  0  0  0  0  0  0
  147.4817  130.8065  152.5474 H   0  0  0  0  0  0  0  0  0  0  0  0
  148.4276  132.9649  151.8296 H   0  0  0  0  0  0  0  0  0  0  0  0
  149.6158  131.6473  153.6399 H   0  0  0  0  0  0  0  0  0  0  0  0
  150.0057  133.3519  153.6097 H   0  0  0  0  0  0  0  0  0  0  0  0
  148.0755  134.9027  152.9611 H   0  0  0  0  0  0  0  0  0  0  0  0
  1  2  3  0  0  0  0
  2  3  1  0  0  0  0
  3  8  1  0  0  0  0
  3  4  2  0  0  0  0
  4  5  1  0  0  0  0
  5  6  2  0  0  0  0
  5 21  1  0  0  0  0
  6  7  1  0  0  0  0
  6 22  1  0  0  0  0
  7  8  2  0  0  0  0
  8  9  1  0  0  0  0
  9 10  1  0  0  0  0
  9 23  1  0  0  0  0
 10 11  1  0  0  0  0
 10 24  1  0  0  0  0
 10 25  1  0  0  0  0
 11 20  1  0  0  0  0
 11 12  1  0  0  0  0
 11 26  1  0  0  0  0
 12 13  1  0  0  0  0
 12 27  1  0  0  0  0
 12 28  1  0  0  0  0
 13 18  1  0  0  0  0
 13 14  1  0  0  0  0
 13 40  1  0  0  0  0
 14 15  1  0  0  0  0
 14 29  1  0  0  0  0
 14 30  1  0  0  0  0
 15 16  1  0  0  0  0
 15 31  1  0  0  0  0
 15 32  1  0  0  0  0
 16 17  1  0  0  0  0
 16 33  1  0  0  0  0
 16 34  1  0  0  0  0
 17 18  1  0  0  0  0
 17 35  1  0  0  0  0
 17 36  1  0  0  0  0
 18 19  1  0  0  0  0
 18 37  1  0  0  0  0
 19 20  1  0  0  0  0
 19 38  1  0  0  0  0
 19 39  1  0  0  0  0
M  CHG  1  13   1
M  END
> <s_m_source_file>
AV-unprocessed.smi

> <i_m_source_file_index>
3068

> <i_lp_mmshare_version>
43012

> <i_f3d_flags>
0

> <s_epik_input>
TiNDYzFuW2NIXVtjSF1uYzFbTkhdW0NIMl1bQ0BIXShbQ0gyXTIpT1tDSDJdW0NAQEhdKE4yMylbQ0gyXVtDSDJdW0NIMl1bQ0gyXTM=

> <s_epik_cmdline>
J2VwaWtfcHl0aG9uJywgJy1waCcsICc3LjAnLCAnLXRuJywgJzgnLCAnLW1hJywgJzIwMCcsICctbWV0YWxfYmluZGluZycsICctaW1hZScsICc8aW5maWxlLm1hZT4nLCAnLW9tYWUnLCAnPG91dGZpbGUubWFlPic=

> <r_epik_Ionization_Penalty>
0.0804321

> <r_epik_Ionization_Penalty_Charging>
0.0803403

> <r_epik_Ionization_Penalty_Neutral>
9.17277e-05

> <r_epik_State_Penalty>
0.0711481

> <r_epik_Charging_Adjusted_Penalty>
0.151488

> <i_epik_Tot_Q>
1

> <i_epik_Tot_abs_Q>
1

> <r_epik_Metal_State_Penalty>
0.0711481

> <b_epik_Metal_Only>
0

> <s_lp_Force_Field>
OPLS_2005

> <r_lp_Energy>
39.3749

> <b_lp_Chiralities_Consistent>
1

> <s_lp_Variant>
AV-unprocessed.smi:3068-5

> <Gold.Version>
5.8.1

> <Gold.Id.Protein>
6NUR|6NUR_protein|mol2

> <Gold.PLP.Fitness>
34.9580

> <Gold.PLP.PLP>
-24.9189

> <Gold.PLP.part.hbond>
-3.0000

> <Gold.PLP.part.metal>
0.0000

> <Gold.PLP.part.buried>
-3.2609

> <Gold.PLP.part.nonpolar>
-18.8967

> <Gold.PLP.part.repulsive>
0.0363

> <Gold.PLP.ligand.clash>
0.0000

> <Gold.PLP.ligand.torsion>
0.3233

> <Gold.PLP.Chemscore.Hbond>
3.5617

> <Gold.PLP.Chemscore.CHOScore>
0.0000

> <Gold.PLP.Chemscore.Metal>
0.0000

> <Gold.Chemscore.Hbonds>
donor molecule, donor type, donor heavy atom, donor atom, acceptor molecule, acceptor atom, score
      L1  H    13    40       P1  7948  2.00
      P1  H  6931  6943       L1     4  0.83
      P1  H  6934  6947       L1     4  0.74

> <Gold.PLP.Chemscore.Internal.Correction>
0.0007

> <Gold.Rescore>
     Score         DG    S(hbond)    S(metal)    S(lipo)     H(rot)  DE(clash)    DE(int)     intcor
     15.60     -15.96       2.23        0.00      54.81       1.32       0.01       0.35       ----

> <Gold.Chemscore.Fitness>
15.5979

> <Gold.Chemscore.DG>
-15.9612

> <Gold.Chemscore.ZeroCoef>
-5.4800

> <Gold.Chemscore.Hbond>
2.2292

> <Gold.Chemscore.Metal>
0.0000

> <Gold.Chemscore.Lipo>
54.8121

> <Gold.Chemscore.Internal_Hbond>
0.0000

> <Gold.Chemscore.DEClash>
0.0126

> <Gold.Chemscore.DEInternal>
0.3508

> <Gold.Chemscore.Rot>
1.3193

> <Gold.Chemscore.Internal.Correction>
   9.000000E+99

> <Gold.Chemscore.Hbonds>
donor molecule, donor type, donor heavy atom, donor atom, acceptor molecule, acceptor atom, score
      L1  H    13    40       P1  7948  0.88
      P1  H  6931  6943       L1     4  0.42
      P1  H  6934  6947       L1     4  0.41

> <Gold.Chemscore.Hbond.Weighted>
-7.4456

> <Gold.Chemscore.Metal.Weighted>
-0.0000

> <Gold.Chemscore.Lipo.Weighted>
-6.4130

> <Gold.Chemscore.Internal_Hbond.Weighted>
0.0000

> <Gold.Chemscore.DEClash.Weighted>
0.0126

> <Gold.Chemscore.DEInternal.Weighted>
0.3508

> <Gold.Chemscore.Rot.Weighted>
3.3774

> <Gold.Chemscore.Internal.Correction.Weighted>
   9.000000E+99

> <Gold.Protein.RotatedTorsions>
[ 6907 6896 6895 6894 ] final    9.37 input  -60.11 | X-H torsion
[ 7974 7965 7964 7962 ] final -147.46 input  175.53 | X-H torsion
[ 8008 7997 7996 7995 ] final -177.91 input   59.86 | X-H torsion
[ 10167 10162 10161 10158 ] final -100.71 input  -65.29 | X-H torsion
[ 10718 10713 10712 10709 ] final -116.57 input   66.30 | X-H torsion
[ 10763 10752 10751 10750 ] final  -35.40 input  -60.55 | X-H torsion
[ 11005 11000 10999 10996 ] final    7.51 input  -57.11 | X-H torsion

> <Gold.Protein.ActiveResidues>
 VAL166  LYS551  ARG553  GLY616  TRP617  ASP618  TYR619  PRO620  LYS621  CYS622 
 ASP623  PHE694  ASN695  SER759  ASP760  ASP761  ALA762  ILE779  LEU786  VAL792 
 PHE793  MET794  SER795  GLU796  ALA797  LYS798  CYS799  TRP800  GLU811  SER814 

> <Gold.Protein.RotatedAtoms>
  151.7210  135.0894  160.0283 H   0  0  0  0  0  0  0  0  0  0  0  0  # atno 6907 bound_to 6896
  152.3602  133.6282  159.6017 H   0  0  0  0  0  0  0  0  0  0  0  0  # atno 6908 bound_to 6896
  150.7599  133.9353  159.3481 H   0  0  0  0  0  0  0  0  0  0  0  0  # atno 6909 bound_to 6896
  144.8092  140.5324  143.5654 H   0  0  0  0  0  0  0  0  0  0  0  0  # atno 7974 bound_to 7965
  156.0125  140.1244  157.0439 H   0  0  0  0  0  0  0  0  0  0  0  0  # atno 8008 bound_to 7997
  154.4281  140.1085  156.5920 H   0  0  0  0  0  0  0  0  0  0  0  0  # atno 8009 bound_to 7997
  155.6059  140.3471  155.4610 H   0  0  0  0  0  0  0  0  0  0  0  0  # atno 8010 bound_to 7997
  140.2490  143.3486  152.0732 H   0  0  0  0  0  0  0  0  0  0  0  0  # atno 10167 bound_to 10162
  156.0973  130.6143  150.9053 H   0  0  0  0  0  0  0  0  0  0  0  0  # atno 10718 bound_to 10713
  153.8626  135.6838  153.4781 H   0  0  0  0  0  0  0  0  0  0  0  0  # atno 10763 bound_to 10752
  153.1333  135.4688  154.9381 H   0  0  0  0  0  0  0  0  0  0  0  0  # atno 10764 bound_to 10752
  154.7752  135.3251  154.8057 H   0  0  0  0  0  0  0  0  0  0  0  0  # atno 10765 bound_to 10752
  140.5474  134.0316  155.7925 H   0  0  0  0  0  0  0  0  0  0  0  0  # atno 11005 bound_to 11000
  145.5364  139.1475  143.3471 LP  0  0  0  0  0  0  0  0  0  0  0  0  # atno 17320 bound_to 7965
  146.2388  140.5505  142.8943 LP  0  0  0  0  0  0  0  0  0  0  0  0  # atno 17321 bound_to 7965
  139.5052  144.6791  151.6054 LP  0  0  0  0  0  0  0  0  0  0  0  0  # atno 17342 bound_to 10162
  140.6055  143.9532  150.6416 LP  0  0  0  0  0  0  0  0  0  0  0  0  # atno 17343 bound_to 10162
  157.6136  131.0935  150.8750 LP  0  0  0  0  0  0  0  0  0  0  0  0  # atno 17370 bound_to 10713
  156.8885  130.5204  149.5287 LP  0  0  0  0  0  0  0  0  0  0  0  0  # atno 17371 bound_to 10713
  141.1192  133.9490  157.2763 LP  0  0  0  0  0  0  0  0  0  0  0  0  # atno 17394 bound_to 11000
  139.9473  135.0182  156.8889 LP  0  0  0  0  0  0  0  0  0  0  0  0  # atno 17395 bound_to 11000

$$$$
