AV-unprocessed.smi:433|AV-procd|sdf|2551|dock1
  -GOLD-   2262022513D 1   1.00000     0.00000
 Structure written by MMmdl.
 36 37  0  0  0  0  0  0  0  0  1 V2000
  149.5985  135.7345  156.0460 C   0  0  0  0  0  0  0  0  0  0  0  0
  150.6595  136.6628  155.7808 N   0  0  0  0  0  0  0  0  0  0  0  0
  150.8218  137.2721  154.5521 C   0  0  0  0  0  0  0  0  0  0  0  0
  151.8271  138.1354  154.2900 C   0  0  0  0  0  0  0  0  0  0  0  0
  152.8090  138.4767  155.3136 C   0  0  0  0  0  0  0  0  0  0  0  0
  153.7557  139.2375  155.1093 O   0  0  0  0  0  0  0  0  0  0  0  0
  152.6012  137.8496  156.5668 N   0  0  0  0  0  0  0  0  0  0  0  0
  153.5533  138.1242  157.6286 C   0  0  0  0  0  0  0  0  0  0  0  0
  152.9279  138.8958  158.8130 C   0  0  1  0  0  0  0  0  0  0  0  0
  153.8830  138.9921  159.8501 O   0  0  0  0  0  0  0  0  0  0  0  0
  152.5248  140.3268  158.4278 C   0  0  0  0  0  0  0  0  0  0  0  0
  152.3824  141.0879  159.6195 O   0  0  0  0  0  0  0  0  0  0  0  0
  152.2590  142.4557  159.5139 C   0  0  0  0  0  0  0  0  0  0  0  0
  152.1597  143.1817  160.7186 C   0  0  0  0  0  0  0  0  0  0  0  0
  152.0327  144.5840  160.7068 C   0  0  0  0  0  0  0  0  0  0  0  0
  152.0045  145.2771  159.4828 C   0  0  0  0  0  0  0  0  0  0  0  0
  152.1024  144.5651  158.2728 C   0  0  0  0  0  0  0  0  0  0  0  0
  152.2288  143.1620  158.2847 C   0  0  0  0  0  0  0  0  0  0  0  0
  151.5594  136.9296  156.8352 C   0  0  0  0  0  0  0  0  0  0  0  0
  151.4422  136.3751  157.9319 O   0  0  0  0  0  0  0  0  0  0  0  0
  148.9822  135.6620  155.1493 H   0  0  0  0  0  0  0  0  0  0  0  0
  149.0164  136.1271  156.8817 H   0  0  0  0  0  0  0  0  0  0  0  0
  150.0566  134.7716  156.2788 H   0  0  0  0  0  0  0  0  0  0  0  0
  150.1198  137.0482  153.7619 H   0  0  0  0  0  0  0  0  0  0  0  0
  151.9088  138.5774  153.3080 H   0  0  0  0  0  0  0  0  0  0  0  0
  154.0187  137.1844  157.9319 H   0  0  0  0  0  0  0  0  0  0  0  0
  154.3727  138.6830  157.1730 H   0  0  0  0  0  0  0  0  0  0  0  0
  152.0511  138.3756  159.2015 H   0  0  0  0  0  0  0  0  0  0  0  0
  153.4400  138.8766  160.6772 H   0  0  0  0  0  0  0  0  0  0  0  0
  153.3010  140.7739  157.8040 H   0  0  0  0  0  0  0  0  0  0  0  0
  151.5938  140.3166  157.8583 H   0  0  0  0  0  0  0  0  0  0  0  0
  152.1808  142.6562  161.6623 H   0  0  0  0  0  0  0  0  0  0  0  0
  151.9576  145.1270  161.6374 H   0  0  0  0  0  0  0  0  0  0  0  0
  151.9080  146.3529  159.4719 H   0  0  0  0  0  0  0  0  0  0  0  0
  152.0810  145.0959  157.3325 H   0  0  0  0  0  0  0  0  0  0  0  0
  152.3026  142.6506  157.3371 H   0  0  0  0  0  0  0  0  0  0  0  0
  1  2  1  0  0  0  0
  1 21  1  0  0  0  0
  1 22  1  0  0  0  0
  1 23  1  0  0  0  0
  2 19  1  0  0  0  0
  2  3  1  0  0  0  0
  3  4  2  0  0  0  0
  3 24  1  0  0  0  0
  4  5  1  0  0  0  0
  4 25  1  0  0  0  0
  5  6  2  0  0  0  0
  5  7  1  0  0  0  0
  7  8  1  0  0  0  0
  7 19  1  0  0  0  0
  8  9  1  0  0  0  0
  8 26  1  0  0  0  0
  8 27  1  0  0  0  0
  9 10  1  0  0  0  0
  9 11  1  0  0  0  0
  9 28  1  0  0  0  0
 10 29  1  0  0  0  0
 11 12  1  0  0  0  0
 11 30  1  0  0  0  0
 11 31  1  0  0  0  0
 12 13  1  0  0  0  0
 13 18  1  0  0  0  0
 13 14  2  0  0  0  0
 14 15  1  0  0  0  0
 14 32  1  0  0  0  0
 15 16  2  0  0  0  0
 15 33  1  0  0  0  0
 16 17  1  0  0  0  0
 16 34  1  0  0  0  0
 17 18  2  0  0  0  0
 17 35  1  0  0  0  0
 18 36  1  0  0  0  0
 19 20  2  0  0  0  0
M  END
> <s_m_source_file>
AV-unprocessed.smi

> <i_m_source_file_index>
433

> <i_lp_mmshare_version>
43012

> <i_f3d_flags>
0

> <s_epik_input>
W0NIM11uMVtjSF1bY0hdYyg9TyluKGMxPU8pW0NIMl1bQ0BIXShbT0hdKVtDSDJdT2MyW2NIXVtjSF1bY0hdW2NIXVtjSF0y

> <s_epik_cmdline>
J2VwaWtfcHl0aG9uJywgJy1waCcsICc3LjAnLCAnLXRuJywgJzgnLCAnLW1hJywgJzIwMCcsICctbWV0YWxfYmluZGluZycsICctaW1hZScsICc8aW5maWxlLm1hZT4nLCAnLW9tYWUnLCAnPG91dGZpbGUubWFlPic=

> <r_lp_tautomer_probability>
1

> <r_epik_Ionization_Penalty>
2.21742e-07

> <r_epik_Ionization_Penalty_Charging>
1.04568e-07

> <r_epik_Ionization_Penalty_Neutral>
1.17174e-07

> <r_epik_State_Penalty>
-0

> <r_epik_Charging_Adjusted_Penalty>
1.04568e-07

> <i_epik_Tot_Q>
0

> <i_epik_Tot_abs_Q>
0

> <r_epik_Metal_State_Penalty>
-0

> <b_epik_Metal_Only>
0

> <s_lp_Force_Field>
OPLS_2005

> <r_lp_Energy>
22.7461

> <b_lp_Chiralities_Consistent>
1

> <s_lp_Variant>
AV-unprocessed.smi:433-2

> <Gold.Version>
5.8.1

> <Gold.Id.Protein>
6NUR|6NUR_protein|mol2

> <Gold.PLP.Fitness>
47.9255

> <Gold.PLP.PLP>
-41.4884

> <Gold.PLP.part.hbond>
-1.8329

> <Gold.PLP.part.metal>
0.0000

> <Gold.PLP.part.buried>
-6.4136

> <Gold.PLP.part.nonpolar>
-33.9965

> <Gold.PLP.part.repulsive>
0.0000

> <Gold.PLP.ligand.clash>
0.0000

> <Gold.PLP.ligand.torsion>
0.2739

> <Gold.PLP.Chemscore.Hbond>
1.3111

> <Gold.PLP.Chemscore.CHOScore>
1.0009

> <Gold.PLP.Chemscore.Metal>
0.0000

> <Gold.Chemscore.Hbonds>
donor molecule, donor type, donor heavy atom, donor atom, acceptor molecule, acceptor atom, score
      P1  H  6896  6909       L1    20  0.13
      P1  H  7997  8010       L1     6  0.68
      L1  C     3    24       P1  7948  1.00
      L1  C     3    24       P1  7949  0.06

> <Gold.PLP.Chemscore.Internal.Correction>
0.0489

> <Gold.Rescore>
     Score         DG    S(hbond)    S(metal)    S(lipo)     H(rot)  DE(clash)    DE(int)     intcor
     16.90     -17.19       1.85        0.00     101.21       2.46       0.01       0.27       ----

> <Gold.Chemscore.Fitness>
16.9000

> <Gold.Chemscore.DG>
-17.1864

> <Gold.Chemscore.ZeroCoef>
-5.4800

> <Gold.Chemscore.Hbond>
1.8455

> <Gold.Chemscore.Metal>
0.0000

> <Gold.Chemscore.Lipo>
101.2135

> <Gold.Chemscore.Internal_Hbond>
0.0000

> <Gold.Chemscore.DEClash>
0.0149

> <Gold.Chemscore.DEInternal>
0.2715

> <Gold.Chemscore.Rot>
2.4608

> <Gold.Chemscore.Internal.Correction>
   9.000000E+99

> <Gold.Chemscore.Hbonds>
donor molecule, donor type, donor heavy atom, donor atom, acceptor molecule, acceptor atom, score
      P1  H  6896  6909       L1    20  0.13
      P1  H  7997  8010       L1     6  0.65

> <Gold.Chemscore.Hbond.Weighted>
-6.1641

> <Gold.Chemscore.Metal.Weighted>
-0.0000

> <Gold.Chemscore.Lipo.Weighted>
-11.8420

> <Gold.Chemscore.Internal_Hbond.Weighted>
0.0000

> <Gold.Chemscore.DEClash.Weighted>
0.0149

> <Gold.Chemscore.DEInternal.Weighted>
0.2715

> <Gold.Chemscore.Rot.Weighted>
6.2997

> <Gold.Chemscore.Internal.Correction.Weighted>
   9.000000E+99

> <Gold.Protein.RotatedTorsions>
[ 6907 6896 6895 6894 ] final  103.64 input  -60.11 | X-H torsion
[ 7974 7965 7964 7962 ] final   84.95 input  175.53 | X-H torsion
[ 8008 7997 7996 7995 ] final  108.31 input   59.86 | X-H torsion
[ 10167 10162 10161 10158 ] final  102.39 input  -65.29 | X-H torsion
[ 10718 10713 10712 10709 ] final  -18.89 input   66.30 | X-H torsion
[ 10763 10752 10751 10750 ] final  -61.23 input  -60.55 | X-H torsion
[ 11005 11000 10999 10996 ] final  -38.77 input  -57.11 | X-H torsion

> <Gold.Protein.ActiveResidues>
 VAL166  LYS551  ARG553  GLY616  TRP617  ASP618  TYR619  PRO620  LYS621  CYS622 
 ASP623  PHE694  ASN695  SER759  ASP760  ASP761  ALA762  ILE779  LEU786  VAL792 
 PHE793  MET794  SER795  GLU796  ALA797  LYS798  CYS799  TRP800  GLU811  SER814 

> <Gold.Protein.RotatedAtoms>
  152.5289  133.9796  159.7800 H   0  0  0  0  0  0  0  0  0  0  0  0  # atno 6907 bound_to 6896
  151.0052  133.6009  159.2697 H   0  0  0  0  0  0  0  0  0  0  0  0  # atno 6908 bound_to 6896
  151.3104  135.0799  159.9323 H   0  0  0  0  0  0  0  0  0  0  0  0  # atno 6909 bound_to 6896
  145.5919  139.2339  143.2294 H   0  0  0  0  0  0  0  0  0  0  0  0  # atno 7974 bound_to 7965
  156.1893  140.3079  155.9300 H   0  0  0  0  0  0  0  0  0  0  0  0  # atno 8008 bound_to 7997
  155.3211  140.0456  157.3056 H   0  0  0  0  0  0  0  0  0  0  0  0  # atno 8009 bound_to 7997
  154.5432  140.2268  155.8615 H   0  0  0  0  0  0  0  0  0  0  0  0  # atno 8010 bound_to 7997
  139.7354  144.7025  151.0658 H   0  0  0  0  0  0  0  0  0  0  0  0  # atno 10167 bound_to 10162
  156.5532  130.4707  149.6442 H   0  0  0  0  0  0  0  0  0  0  0  0  # atno 10718 bound_to 10713
  154.2814  135.6271  153.5348 H   0  0  0  0  0  0  0  0  0  0  0  0  # atno 10763 bound_to 10752
  152.9865  135.5634  154.5491 H   0  0  0  0  0  0  0  0  0  0  0  0  # atno 10764 bound_to 10752
  154.5083  135.2875  155.1340 H   0  0  0  0  0  0  0  0  0  0  0  0  # atno 10765 bound_to 10752
  141.0052  133.6935  156.2097 H   0  0  0  0  0  0  0  0  0  0  0  0  # atno 11005 bound_to 11000
  146.1640  140.6745  142.9264 LP  0  0  0  0  0  0  0  0  0  0  0  0  # atno 17320 bound_to 7965
  144.7347  140.4775  143.6912 LP  0  0  0  0  0  0  0  0  0  0  0  0  # atno 17321 bound_to 7965
  140.7778  143.4991  150.9794 LP  0  0  0  0  0  0  0  0  0  0  0  0  # atno 17342 bound_to 10162
  139.8679  143.7230  152.3168 LP  0  0  0  0  0  0  0  0  0  0  0  0  # atno 17343 bound_to 10162
  156.2865  130.7100  151.1938 LP  0  0  0  0  0  0  0  0  0  0  0  0  # atno 17370 bound_to 10713
  157.7383  131.0542  150.5301 LP  0  0  0  0  0  0  0  0  0  0  0  0  # atno 17371 bound_to 10713
  140.6824  134.4753  157.5589 LP  0  0  0  0  0  0  0  0  0  0  0  0  # atno 17394 bound_to 11000
  139.9060  134.8449  156.1707 LP  0  0  0  0  0  0  0  0  0  0  0  0  # atno 17395 bound_to 11000

$$$$
