AV-unprocessed.smi:1559|AV-procd|sdf|6274|dock10
  -GOLD-   22720 6463D 1   1.00000     0.00000
 Structure written by MMmdl.
 51 52  0  0  0  0  0  0  0  0  2 V2000
  146.1730  134.1089  153.0319 C   0  0  0  0  0  0  0  0  0  0  0  0
  146.2332  135.3446  152.2087 N   0  3  0  0  0  0  0  0  0  0  0  0
  145.9071  135.0407  150.7911 C   0  0  0  0  0  0  0  0  0  0  0  0
  145.5299  136.5469  152.7839 C   0  0  0  0  0  0  0  0  0  0  0  0
  144.0243  136.5505  152.4301 C   0  0  0  0  0  0  0  0  0  0  0  0
  145.6483  136.5598  154.3282 C   0  0  0  0  0  0  0  0  0  0  0  0
  146.1631  137.8633  152.2429 C   0  0  0  0  0  0  0  0  0  0  0  0
  147.5095  138.1253  152.7534 N   0  0  0  0  0  0  0  0  0  0  0  0
  147.8188  138.9939  153.7266 C   0  0  0  0  0  0  0  0  0  0  0  0
  146.9820  139.6707  154.3229 O   0  0  0  0  0  0  0  0  0  0  0  0
  149.1446  139.0298  153.9421 N   0  0  0  0  0  0  0  0  0  0  0  0
  149.8620  139.7985  154.8980 C   0  0  0  0  0  0  0  0  0  0  0  0
  151.2251  139.6016  155.2187 C   0  0  0  0  0  0  0  0  0  0  0  0
  151.8294  140.4419  156.1732 C   0  0  0  0  0  0  0  0  0  0  0  0
  151.0642  141.4663  156.7792 C   0  0  0  0  0  0  0  0  0  0  0  0
  151.6508  142.3182  157.7401 N   0  0  0  0  0  0  0  0  0  0  0  0
  151.5193  141.9555  159.1501 C   0  0  0  0  0  0  0  0  0  0  0  0
  152.4548  142.8170  160.0149 C   0  0  0  0  0  0  0  0  0  0  0  0
  152.1936  144.1959  159.7761 O   0  0  0  0  0  0  0  0  0  0  0  0
  152.4350  144.5523  158.4192 C   0  0  0  0  0  0  0  0  0  0  0  0
  151.5019  143.7508  157.4949 C   0  0  0  0  0  0  0  0  0  0  0  0
  149.7601  141.6569  156.4615 N   0  0  0  0  0  0  0  0  0  0  0  0
  149.1849  140.8503  155.5458 C   0  0  0  0  0  0  0  0  0  0  0  0
  145.1458  133.7809  153.1918 H   0  0  0  0  0  0  0  0  0  0  0  0
  146.6529  134.2391  154.0011 H   0  0  0  0  0  0  0  0  0  0  0  0
  146.7052  133.2952  152.5380 H   0  0  0  0  0  0  0  0  0  0  0  0
  144.8850  134.6767  150.6844 H   0  0  0  0  0  0  0  0  0  0  0  0
  146.5712  134.2636  150.4116 H   0  0  0  0  0  0  0  0  0  0  0  0
  146.0362  135.9032  150.1395 H   0  0  0  0  0  0  0  0  0  0  0  0
  143.5203  137.4034  152.8865 H   0  0  0  0  0  0  0  0  0  0  0  0
  143.5165  135.6544  152.7860 H   0  0  0  0  0  0  0  0  0  0  0  0
  143.8519  136.6247  151.3564 H   0  0  0  0  0  0  0  0  0  0  0  0
  145.2904  137.5019  154.7454 H   0  0  0  0  0  0  0  0  0  0  0  0
  146.6793  136.4295  154.6583 H   0  0  0  0  0  0  0  0  0  0  0  0
  145.0519  135.7745  154.7933 H   0  0  0  0  0  0  0  0  0  0  0  0
  146.2383  137.8300  151.1560 H   0  0  0  0  0  0  0  0  0  0  0  0
  145.5078  138.7131  152.4439 H   0  0  0  0  0  0  0  0  0  0  0  0
  148.2677  137.6286  152.3089 H   0  0  0  0  0  0  0  0  0  0  0  0
  149.7149  138.4862  153.3108 H   0  0  0  0  0  0  0  0  0  0  0  0
  151.8208  138.8347  154.7485 H   0  0  0  0  0  0  0  0  0  0  0  0
  152.8644  140.2827  156.4362 H   0  0  0  0  0  0  0  0  0  0  0  0
  150.4846  142.0979  159.4644 H   0  0  0  0  0  0  0  0  0  0  0  0
  151.7628  140.9020  159.2944 H   0  0  0  0  0  0  0  0  0  0  0  0
  152.2932  142.6018  161.0710 H   0  0  0  0  0  0  0  0  0  0  0  0
  153.5006  142.5911  159.8005 H   0  0  0  0  0  0  0  0  0  0  0  0
  152.2570  145.6207  158.2967 H   0  0  0  0  0  0  0  0  0  0  0  0
  153.4811  144.3732  158.1653 H   0  0  0  0  0  0  0  0  0  0  0  0
  151.7209  144.0099  156.4602 H   0  0  0  0  0  0  0  0  0  0  0  0
  150.4645  144.0321  157.6790 H   0  0  0  0  0  0  0  0  0  0  0  0
  148.1456  141.0500  155.3286 H   0  0  0  0  0  0  0  0  0  0  0  0
  147.2101  135.6013  152.2039 H   0  0  0  0  0  0  0  0  0  0  0  0
  1  2  1  0  0  0  0
  1 24  1  0  0  0  0
  1 25  1  0  0  0  0
  1 26  1  0  0  0  0
  2  3  1  0  0  0  0
  2  4  1  0  0  0  0
  2 51  1  0  0  0  0
  3 27  1  0  0  0  0
  3 28  1  0  0  0  0
  3 29  1  0  0  0  0
  4  5  1  0  0  0  0
  4  6  1  0  0  0  0
  4  7  1  0  0  0  0
  5 30  1  0  0  0  0
  5 31  1  0  0  0  0
  5 32  1  0  0  0  0
  6 33  1  0  0  0  0
  6 34  1  0  0  0  0
  6 35  1  0  0  0  0
  7  8  1  0  0  0  0
  7 36  1  0  0  0  0
  7 37  1  0  0  0  0
  8  9  1  0  0  0  0
  8 38  1  0  0  0  0
  9 10  2  0  0  0  0
  9 11  1  0  0  0  0
 11 12  1  0  0  0  0
 11 39  1  0  0  0  0
 12 23  1  0  0  0  0
 12 13  2  0  0  0  0
 13 14  1  0  0  0  0
 13 40  1  0  0  0  0
 14 15  2  0  0  0  0
 14 41  1  0  0  0  0
 15 16  1  0  0  0  0
 15 22  1  0  0  0  0
 16 21  1  0  0  0  0
 16 17  1  0  0  0  0
 17 18  1  0  0  0  0
 17 42  1  0  0  0  0
 17 43  1  0  0  0  0
 18 19  1  0  0  0  0
 18 44  1  0  0  0  0
 18 45  1  0  0  0  0
 19 20  1  0  0  0  0
 20 21  1  0  0  0  0
 20 46  1  0  0  0  0
 20 47  1  0  0  0  0
 21 48  1  0  0  0  0
 21 49  1  0  0  0  0
 22 23  2  0  0  0  0
 23 50  1  0  0  0  0
M  CHG  1   2   1
M  END
> <s_m_source_file>
AV-unprocessed.smi

> <i_m_source_file_index>
1559

> <i_lp_mmshare_version>
43012

> <i_f3d_flags>
0

> <s_epik_input>
W0NIM11OKFtDSDNdKUMoW0NIM10pKFtDSDNdKVtDSDJdW05IXUMoPU8pW05IXWMxW2NIXVtjSF1jKG5bY0hdMSlOMltDSDJdW0NIMl1PW0NIMl1bQ0gyXTI=

> <s_epik_cmdline>
J2VwaWtfcHl0aG9uJywgJy1waCcsICc3LjAnLCAnLXRuJywgJzgnLCAnLW1hJywgJzIwMCcsICctbWV0YWxfYmluZGluZycsICctaW1hZScsICc8aW5maWxlLm1hZT4nLCAnLW9tYWUnLCAnPG91dGZpbGUubWFlPic=

> <r_lp_tautomer_probability>
1

> <r_epik_Ionization_Penalty>
0.00606683

> <r_epik_Ionization_Penalty_Charging>
0.00433655

> <r_epik_Ionization_Penalty_Neutral>
0.00173028

> <r_epik_State_Penalty>
-0

> <r_epik_Charging_Adjusted_Penalty>
0.00433655

> <i_epik_Tot_Q>
1

> <i_epik_Tot_abs_Q>
1

> <r_epik_Metal_State_Penalty>
-0

> <b_epik_Metal_Only>
0

> <s_lp_Force_Field>
OPLS_2005

> <r_lp_Energy>
39.7319

> <b_lp_Chiralities_Consistent>
1

> <s_lp_Variant>
AV-unprocessed.smi:1559-1

> <Gold.Version>
5.8.1

> <Gold.Id.Protein>
6NUR|6NUR_protein|mol2

> <Gold.PLP.Fitness>
47.6900

> <Gold.PLP.PLP>
-40.7287

> <Gold.PLP.part.hbond>
-3.3263

> <Gold.PLP.part.metal>
0.0000

> <Gold.PLP.part.buried>
-3.8955

> <Gold.PLP.part.nonpolar>
-34.1300

> <Gold.PLP.part.repulsive>
0.4238

> <Gold.PLP.ligand.clash>
0.0000

> <Gold.PLP.ligand.torsion>
1.2424

> <Gold.PLP.Chemscore.Hbond>
3.0000

> <Gold.PLP.Chemscore.CHOScore>
0.0000

> <Gold.PLP.Chemscore.Metal>
0.0000

> <Gold.Chemscore.Hbonds>
donor molecule, donor type, donor heavy atom, donor atom, acceptor molecule, acceptor atom, score
      L1  H     2    51       P1  7948  2.00
      L1  H     8    38       P1  7948  1.00

> <Gold.PLP.Chemscore.Internal.Correction>
0.4461

> <Gold.Rescore>
     Score         DG    S(hbond)    S(metal)    S(lipo)     H(rot)  DE(clash)    DE(int)     intcor
     16.27     -18.75       1.99        0.00      92.53       1.64       0.10       2.38       ----

> <Gold.Chemscore.Fitness>
16.2661

> <Gold.Chemscore.DG>
-18.7548

> <Gold.Chemscore.ZeroCoef>
-5.4800

> <Gold.Chemscore.Hbond>
1.9911

> <Gold.Chemscore.Metal>
0.0000

> <Gold.Chemscore.Lipo>
92.5340

> <Gold.Chemscore.Internal_Hbond>
0.0000

> <Gold.Chemscore.DEClash>
0.1038

> <Gold.Chemscore.DEInternal>
2.3849

> <Gold.Chemscore.Rot>
1.6414

> <Gold.Chemscore.Internal.Correction>
   9.000000E+99

> <Gold.Chemscore.Hbonds>
donor molecule, donor type, donor heavy atom, donor atom, acceptor molecule, acceptor atom, score
      L1  H     2    51       P1  7948  1.00
      L1  H     8    38       P1  7948  0.94

> <Gold.Chemscore.Hbond.Weighted>
-6.6504

> <Gold.Chemscore.Metal.Weighted>
-0.0000

> <Gold.Chemscore.Lipo.Weighted>
-10.8265

> <Gold.Chemscore.Internal_Hbond.Weighted>
0.0000

> <Gold.Chemscore.DEClash.Weighted>
0.1038

> <Gold.Chemscore.DEInternal.Weighted>
2.3849

> <Gold.Chemscore.Rot.Weighted>
4.2021

> <Gold.Chemscore.Internal.Correction.Weighted>
   9.000000E+99

> <Gold.Protein.RotatedTorsions>
[ 6907 6896 6895 6894 ] final   97.00 input  -60.11 | X-H torsion
[ 7974 7965 7964 7962 ] final -179.60 input  175.53 | X-H torsion
[ 8008 7997 7996 7995 ] final  122.73 input   59.86 | X-H torsion
[ 10167 10162 10161 10158 ] final -103.28 input  -65.29 | X-H torsion
[ 10718 10713 10712 10709 ] final -143.36 input   66.30 | X-H torsion
[ 10763 10752 10751 10750 ] final   84.72 input  -60.55 | X-H torsion
[ 11005 11000 10999 10996 ] final  155.61 input  -57.11 | X-H torsion

> <Gold.Protein.ActiveResidues>
 VAL166  LYS551  ARG553  GLY616  TRP617  ASP618  TYR619  PRO620  LYS621  CYS622 
 ASP623  PHE694  ASN695  SER759  ASP760  ASP761  ALA762  ILE779  LEU786  VAL792 
 PHE793  MET794  SER795  GLU796  ALA797  LYS798  CYS799  TRP800  GLU811  SER814 

> <Gold.Protein.RotatedAtoms>
  152.5429  134.0800  159.8231 H   0  0  0  0  0  0  0  0  0  0  0  0  # atno 6907 bound_to 6896
  151.0903  133.5314  159.2622 H   0  0  0  0  0  0  0  0  0  0  0  0  # atno 6908 bound_to 6896
  151.2107  135.0489  159.8964 H   0  0  0  0  0  0  0  0  0  0  0  0  # atno 6909 bound_to 6896
  144.7138  140.0692  143.6430 H   0  0  0  0  0  0  0  0  0  0  0  0  # atno 7974 bound_to 7965
  156.2739  140.2779  156.1514 H   0  0  0  0  0  0  0  0  0  0  0  0  # atno 8008 bound_to 7997
  155.0849  140.0388  157.2668 H   0  0  0  0  0  0  0  0  0  0  0  0  # atno 8009 bound_to 7997
  154.6935  140.2634  155.6795 H   0  0  0  0  0  0  0  0  0  0  0  0  # atno 8010 bound_to 7997
  140.2217  143.3671  152.0964 H   0  0  0  0  0  0  0  0  0  0  0  0  # atno 10167 bound_to 10162
  156.3570  130.7718  151.1880 H   0  0  0  0  0  0  0  0  0  0  0  0  # atno 10718 bound_to 10713
  153.1408  135.4643  154.9493 H   0  0  0  0  0  0  0  0  0  0  0  0  # atno 10763 bound_to 10752
  154.7745  135.3169  154.8123 H   0  0  0  0  0  0  0  0  0  0  0  0  # atno 10764 bound_to 10752
  153.8646  135.6909  153.4834 H   0  0  0  0  0  0  0  0  0  0  0  0  # atno 10765 bound_to 10752
  140.1597  134.8618  157.2559 H   0  0  0  0  0  0  0  0  0  0  0  0  # atno 11005 bound_to 11000
  145.9797  139.2932  143.1049 LP  0  0  0  0  0  0  0  0  0  0  0  0  # atno 17320 bound_to 7965
  145.9024  140.9234  143.0496 LP  0  0  0  0  0  0  0  0  0  0  0  0  # atno 17321 bound_to 7965
  139.5142  144.6944  151.5672 LP  0  0  0  0  0  0  0  0  0  0  0  0  # atno 17342 bound_to 10162
  140.6250  143.9186  150.6557 LP  0  0  0  0  0  0  0  0  0  0  0  0  # atno 17343 bound_to 10162
  157.7469  131.0411  150.4629 LP  0  0  0  0  0  0  0  0  0  0  0  0  # atno 17370 bound_to 10713
  156.4834  130.4079  149.6448 LP  0  0  0  0  0  0  0  0  0  0  0  0  # atno 17371 bound_to 10713
  140.2504  134.3689  155.7444 LP  0  0  0  0  0  0  0  0  0  0  0  0  # atno 17394 bound_to 11000
  141.2208  133.7313  156.8927 LP  0  0  0  0  0  0  0  0  0  0  0  0  # atno 17395 bound_to 11000

$$$$
