AV-unprocessed.smi:1163|AV-procd|sdf|4920|dock2
  -GOLD-   22720 3503D 1   1.00000     0.00000
 Structure written by MMmdl.
 39 40  0  0  0  0  0  0  0  0  1 V2000
  151.9552  139.2190  155.1186 C   0  0  0  0  0  0  0  0  0  0  0  0
  150.9984  140.2439  154.8730 O   0  0  0  0  0  0  0  0  0  0  0  0
  149.7528  139.8781  154.4051 C   0  0  0  0  0  0  0  0  0  0  0  0
  148.8245  140.8918  154.0947 C   0  0  0  0  0  0  0  0  0  0  0  0
  147.5517  140.5235  153.6194 C   0  0  0  0  0  0  0  0  0  0  0  0
  147.2393  139.1564  153.4784 C   0  0  0  0  0  0  0  0  0  0  0  0
  145.9550  138.8092  152.9789 N   0  0  0  0  0  0  0  0  0  0  0  0
  145.4509  137.5815  152.7663 C   0  0  0  0  0  0  0  0  0  0  0  0
  146.0250  136.5234  153.0229 O   0  0  0  0  0  0  0  0  0  0  0  0
  144.2135  137.6454  152.2548 N   0  0  0  0  0  0  0  0  0  0  0  0
  143.3833  136.4889  151.9323 C   0  0  2  0  0  0  0  0  0  0  0  0
  143.0123  135.6739  153.1666 C   0  0  0  0  0  0  0  0  0  0  0  0
  143.0354  134.2416  152.6470 C   0  0  0  0  0  0  0  0  0  0  0  0
  144.1924  134.2444  151.7657 N   0  0  0  0  0  0  0  0  0  0  0  0
  144.2380  133.0495  150.9259 C   0  0  0  0  0  0  0  0  0  0  0  0
  145.6688  132.5174  150.7133 C   0  0  0  0  0  0  0  0  0  0  0  0
  145.7283  131.9186  149.5247 F   0  0  0  0  0  0  0  0  0  0  0  0
  146.5662  133.5029  150.7284 F   0  0  0  0  0  0  0  0  0  0  0  0
  145.9782  131.6242  151.6535 F   0  0  0  0  0  0  0  0  0  0  0  0
  144.1106  135.4936  151.0109 C   0  0  0  0  0  0  0  0  0  0  0  0
  148.2446  138.2136  153.8042 C   0  0  0  0  0  0  0  0  0  0  0  0
  149.4684  138.5606  154.2573 N   0  0  0  0  0  0  0  0  0  0  0  0
  152.8788  139.6676  155.4839 H   0  0  0  0  0  0  0  0  0  0  0  0
  152.1933  138.6688  154.2071 H   0  0  0  0  0  0  0  0  0  0  0  0
  151.6048  138.5189  155.8785 H   0  0  0  0  0  0  0  0  0  0  0  0
  149.0846  141.9326  154.2184 H   0  0  0  0  0  0  0  0  0  0  0  0
  146.8247  141.2834  153.3719 H   0  0  0  0  0  0  0  0  0  0  0  0
  145.3289  139.5835  152.8132 H   0  0  0  0  0  0  0  0  0  0  0  0
  143.8131  138.5560  152.0822 H   0  0  0  0  0  0  0  0  0  0  0  0
  142.4656  136.8198  151.4419 H   0  0  0  0  0  0  0  0  0  0  0  0
  143.7600  135.7899  153.9533 H   0  0  0  0  0  0  0  0  0  0  0  0
  142.0431  135.9543  153.5806 H   0  0  0  0  0  0  0  0  0  0  0  0
  143.1299  133.5046  153.4449 H   0  0  0  0  0  0  0  0  0  0  0  0
  142.1270  134.0287  152.0806 H   0  0  0  0  0  0  0  0  0  0  0  0
  143.6554  132.2705  151.4200 H   0  0  0  0  0  0  0  0  0  0  0  0
  143.7528  133.2401  149.9677 H   0  0  0  0  0  0  0  0  0  0  0  0
  143.5250  135.3524  150.1013 H   0  0  0  0  0  0  0  0  0  0  0  0
  145.1057  135.8314  150.7194 H   0  0  0  0  0  0  0  0  0  0  0  0
  148.0918  137.1524  153.6844 H   0  0  0  0  0  0  0  0  0  0  0  0
  1  2  1  0  0  0  0
  1 23  1  0  0  0  0
  1 24  1  0  0  0  0
  1 25  1  0  0  0  0
  2  3  1  0  0  0  0
  3 22  1  0  0  0  0
  3  4  2  0  0  0  0
  4  5  1  0  0  0  0
  4 26  1  0  0  0  0
  5  6  2  0  0  0  0
  5 27  1  0  0  0  0
  6  7  1  0  0  0  0
  6 21  1  0  0  0  0
  7  8  1  0  0  0  0
  7 28  1  0  0  0  0
  8  9  2  0  0  0  0
  8 10  1  0  0  0  0
 10 11  1  0  0  0  0
 10 29  1  0  0  0  0
 11 20  1  0  0  0  0
 11 12  1  0  0  0  0
 11 30  1  0  0  0  0
 12 13  1  0  0  0  0
 12 31  1  0  0  0  0
 12 32  1  0  0  0  0
 13 14  1  0  0  0  0
 13 33  1  0  0  0  0
 13 34  1  0  0  0  0
 14 15  1  0  0  0  0
 14 20  1  0  0  0  0
 15 16  1  0  0  0  0
 15 35  1  0  0  0  0
 15 36  1  0  0  0  0
 16 17  1  0  0  0  0
 16 18  1  0  0  0  0
 16 19  1  0  0  0  0
 20 37  1  0  0  0  0
 20 38  1  0  0  0  0
 21 22  2  0  0  0  0
 21 39  1  0  0  0  0
M  END
> <s_m_source_file>
AV-unprocessed.smi

> <i_m_source_file_index>
1163

> <i_lp_mmshare_version>
43012

> <i_f3d_flags>
0

> <s_epik_input>
W0NIM11PYzFbY0hdW2NIXWMoW2NIXW4xKVtOSF1DKD1PKVtOSF1bQ0BASF0yW0NIMl1bQ0gyXU4oW0NIMl0yKVtDSDJdQyhGKShGKUY=

> <s_epik_cmdline>
J2VwaWtfcHl0aG9uJywgJy1waCcsICc3LjAnLCAnLXRuJywgJzgnLCAnLW1hJywgJzIwMCcsICctbWV0YWxfYmluZGluZycsICctaW1hZScsICc8aW5maWxlLm1hZT4nLCAnLW9tYWUnLCAnPG91dGZpbGUubWFlPic=

> <r_lp_tautomer_probability>
1

> <r_epik_Ionization_Penalty>
0.0970123

> <r_epik_Ionization_Penalty_Charging>
0

> <r_epik_Ionization_Penalty_Neutral>
0.0970123

> <r_epik_State_Penalty>
0.0870533

> <r_epik_Charging_Adjusted_Penalty>
0.0870533

> <i_epik_Tot_Q>
0

> <i_epik_Tot_abs_Q>
0

> <r_epik_Metal_State_Penalty>
0.0870519

> <b_epik_Metal_Only>
0

> <s_lp_Force_Field>
OPLS_2005

> <r_lp_Energy>
33.5904

> <b_lp_Chiralities_Consistent>
1

> <s_lp_Variant>
AV-unprocessed.smi:1163-1

> <Gold.Version>
5.8.1

> <Gold.Id.Protein>
6NUR|6NUR_protein|mol2

> <Gold.PLP.Fitness>
47.0335

> <Gold.PLP.PLP>
-37.6987

> <Gold.PLP.part.hbond>
-4.0000

> <Gold.PLP.part.metal>
0.0000

> <Gold.PLP.part.buried>
-1.7803

> <Gold.PLP.part.nonpolar>
-32.9580

> <Gold.PLP.part.repulsive>
0.5749

> <Gold.PLP.ligand.clash>
0.0000

> <Gold.PLP.ligand.torsion>
1.1261

> <Gold.PLP.Chemscore.Hbond>
3.0000

> <Gold.PLP.Chemscore.CHOScore>
0.7019

> <Gold.PLP.Chemscore.Metal>
0.0000

> <Gold.Chemscore.Hbonds>
donor molecule, donor type, donor heavy atom, donor atom, acceptor molecule, acceptor atom, score
      L1  H     7    28       P1 10175  1.00
      L1  H    10    29       P1 10175  1.00
      P1  H  7989  7998       L1     2  0.95
      L1  C    21    39       P1  7948  0.72

> <Gold.PLP.Chemscore.Internal.Correction>
0.4812

> <Gold.Rescore>
     Score         DG    S(hbond)    S(metal)    S(lipo)     H(rot)  DE(clash)    DE(int)     intcor
     11.56     -15.82       2.02        0.00      66.74       1.65       0.86       3.40       ----

> <Gold.Chemscore.Fitness>
11.5631

> <Gold.Chemscore.DG>
-15.8222

> <Gold.Chemscore.ZeroCoef>
-5.4800

> <Gold.Chemscore.Hbond>
2.0244

> <Gold.Chemscore.Metal>
0.0000

> <Gold.Chemscore.Lipo>
66.7406

> <Gold.Chemscore.Internal_Hbond>
0.0000

> <Gold.Chemscore.DEClash>
0.8597

> <Gold.Chemscore.DEInternal>
3.3994

> <Gold.Chemscore.Rot>
1.6515

> <Gold.Chemscore.Internal.Correction>
   9.000000E+99

> <Gold.Chemscore.Hbonds>
donor molecule, donor type, donor heavy atom, donor atom, acceptor molecule, acceptor atom, score
      L1  H     7    28       P1 10175  0.99
      L1  H    10    29       P1 10175  0.97
      P1  H  7989  7998       L1     2  0.05

> <Gold.Chemscore.Hbond.Weighted>
-6.7614

> <Gold.Chemscore.Metal.Weighted>
-0.0000

> <Gold.Chemscore.Lipo.Weighted>
-7.8087

> <Gold.Chemscore.Internal_Hbond.Weighted>
0.0000

> <Gold.Chemscore.DEClash.Weighted>
0.8597

> <Gold.Chemscore.DEInternal.Weighted>
3.3994

> <Gold.Chemscore.Rot.Weighted>
4.2279

> <Gold.Chemscore.Internal.Correction.Weighted>
   9.000000E+99

> <Gold.Protein.RotatedTorsions>
[ 6907 6896 6895 6894 ] final -161.42 input  -60.11 | X-H torsion
[ 7974 7965 7964 7962 ] final  -88.35 input  175.53 | X-H torsion
[ 8008 7997 7996 7995 ] final  136.92 input   59.86 | X-H torsion
[ 10167 10162 10161 10158 ] final -119.17 input  -65.29 | X-H torsion
[ 10718 10713 10712 10709 ] final  -73.48 input   66.30 | X-H torsion
[ 10763 10752 10751 10750 ] final   80.13 input  -60.55 | X-H torsion
[ 11005 11000 10999 10996 ] final   73.52 input  -57.11 | X-H torsion

> <Gold.Protein.ActiveResidues>
 VAL166  LYS551  ARG553  GLY616  TRP617  ASP618  TYR619  PRO620  LYS621  CYS622 
 ASP623  PHE694  ASN695  SER759  ASP760  ASP761  ALA762  ILE779  LEU786  VAL792 
 PHE793  MET794  SER795  GLU796  ALA797  LYS798  CYS799  TRP800  GLU811  SER814 

> <Gold.Protein.RotatedAtoms>
  151.3644  133.3877  159.2692 H   0  0  0  0  0  0  0  0  0  0  0  0  # atno 6907 bound_to 6896
  150.9700  134.9075  159.7793 H   0  0  0  0  0  0  0  0  0  0  0  0  # atno 6908 bound_to 6896
  152.5181  134.3606  159.9335 H   0  0  0  0  0  0  0  0  0  0  0  0  # atno 6909 bound_to 6896
  145.4543  140.9561  143.2005 H   0  0  0  0  0  0  0  0  0  0  0  0  # atno 7974 bound_to 7965
  156.3003  140.2433  156.3824 H   0  0  0  0  0  0  0  0  0  0  0  0  # atno 8008 bound_to 7997
  154.8689  140.0417  157.1731 H   0  0  0  0  0  0  0  0  0  0  0  0  # atno 8009 bound_to 7997
  154.8817  140.2950  155.5425 H   0  0  0  0  0  0  0  0  0  0  0  0  # atno 8010 bound_to 7997
  140.0496  143.5073  152.2089 H   0  0  0  0  0  0  0  0  0  0  0  0  # atno 10167 bound_to 10162
  156.0279  130.4395  150.2749 H   0  0  0  0  0  0  0  0  0  0  0  0  # atno 10718 bound_to 10713
  153.1008  135.4814  154.8864 H   0  0  0  0  0  0  0  0  0  0  0  0  # atno 10763 bound_to 10752
  154.7377  135.3075  154.8785 H   0  0  0  0  0  0  0  0  0  0  0  0  # atno 10764 bound_to 10752
  153.9402  135.6835  153.4798 H   0  0  0  0  0  0  0  0  0  0  0  0  # atno 10765 bound_to 10752
  139.9436  134.7354  156.1037 H   0  0  0  0  0  0  0  0  0  0  0  0  # atno 11005 bound_to 11000
  144.8042  139.6083  143.7058 LP  0  0  0  0  0  0  0  0  0  0  0  0  # atno 17320 bound_to 7965
  146.2487  139.6153  142.9442 LP  0  0  0  0  0  0  0  0  0  0  0  0  # atno 17321 bound_to 7965
  139.5961  144.7567  151.3282 LP  0  0  0  0  0  0  0  0  0  0  0  0  # atno 17342 bound_to 10162
  140.7223  143.7102  150.7776 LP  0  0  0  0  0  0  0  0  0  0  0  0  # atno 17343 bound_to 10162
  157.0852  131.0154  151.3142 LP  0  0  0  0  0  0  0  0  0  0  0  0  # atno 17370 bound_to 10713
  157.4897  130.7814  149.7495 LP  0  0  0  0  0  0  0  0  0  0  0  0  # atno 17371 bound_to 10713
  141.1079  133.6653  156.2907 LP  0  0  0  0  0  0  0  0  0  0  0  0  # atno 17394 bound_to 11000
  140.5891  134.5669  157.5496 LP  0  0  0  0  0  0  0  0  0  0  0  0  # atno 17395 bound_to 11000

$$$$
