AV-unprocessed.smi:344|AV-procd|sdf|2390|dock4
  -GOLD-   2262022323D 1   1.00000     0.00000
 Structure written by MMmdl.
 37 38  0  0  0  0  0  0  0  0  2 V2000
  144.1591  142.2185  154.6706 N   0  0  0  0  0  0  0  0  0  0  0  0
  145.2205  143.0282  154.7314 C   0  0  0  0  0  0  0  0  0  0  0  0
  145.3236  143.9126  155.5792 O   0  0  0  0  0  0  0  0  0  0  0  0
  146.3177  142.8269  153.6830 C   0  0  0  0  0  0  0  0  0  0  0  0
  147.1554  141.6258  154.0151 C   0  0  0  0  0  0  0  0  0  0  0  0
  146.7095  140.3590  154.2924 C   0  0  0  0  0  0  0  0  0  0  0  0
  148.0273  139.2690  154.6155 S   0  0  0  0  0  0  0  0  0  0  0  0
  149.1681  140.5941  154.3740 C   0  0  0  0  0  0  0  0  0  0  0  0
  150.5032  140.4878  154.4575 N   0  5  0  0  0  0  0  0  0  0  0  0
  151.0622  139.8968  155.5409 C   0  0  0  0  0  0  0  0  0  0  0  0
  151.7570  138.8811  155.5973 O   0  0  0  0  0  0  0  0  0  0  0  0
  150.7348  140.6497  156.8337 C   0  0  0  0  0  0  0  0  0  0  0  0
  151.1374  142.1334  156.7481 C   0  0  0  0  0  0  0  0  0  0  0  0
  151.2542  142.8100  158.1254 C   0  0  0  0  0  0  0  0  0  0  0  0
  151.7170  144.2667  158.0498 C   0  0  0  0  0  0  0  0  0  0  0  0
  152.2330  144.5941  159.4549 C   0  0  0  0  0  0  0  0  0  0  0  0
  152.6195  143.2515  160.0940 C   0  0  0  0  0  0  0  0  0  0  0  0
  152.2852  142.1698  159.0604 C   0  0  0  0  0  0  0  0  0  0  0  0
  148.5480  141.7389  154.0686 N   0  0  0  0  0  0  0  0  0  0  0  0
  143.4219  142.3026  155.3551 H   0  0  0  0  0  0  0  0  0  0  0  0
  144.1095  141.5110  153.9509 H   0  0  0  0  0  0  0  0  0  0  0  0
  145.8560  142.7210  152.7004 H   0  0  0  0  0  0  0  0  0  0  0  0
  146.9391  143.7220  153.6350 H   0  0  0  0  0  0  0  0  0  0  0  0
  145.6913  140.0011  154.3200 H   0  0  0  0  0  0  0  0  0  0  0  0
  149.6633  140.5690  157.0212 H   0  0  0  0  0  0  0  0  0  0  0  0
  151.2269  140.1677  157.6804 H   0  0  0  0  0  0  0  0  0  0  0  0
  152.0819  142.2323  156.2107 H   0  0  0  0  0  0  0  0  0  0  0  0
  150.3946  142.6688  156.1548 H   0  0  0  0  0  0  0  0  0  0  0  0
  150.2804  142.7904  158.6175 H   0  0  0  0  0  0  0  0  0  0  0  0
  152.5348  144.3590  157.3333 H   0  0  0  0  0  0  0  0  0  0  0  0
  150.9221  144.9414  157.7306 H   0  0  0  0  0  0  0  0  0  0  0  0
  153.0740  145.2873  159.4190 H   0  0  0  0  0  0  0  0  0  0  0  0
  151.4451  145.0672  160.0420 H   0  0  0  0  0  0  0  0  0  0  0  0
  153.6742  143.2212  160.3699 H   0  0  0  0  0  0  0  0  0  0  0  0
  152.0399  143.0957  161.0047 H   0  0  0  0  0  0  0  0  0  0  0  0
  151.9173  141.2545  159.5254 H   0  0  0  0  0  0  0  0  0  0  0  0
  153.1856  141.9138  158.4997 H   0  0  0  0  0  0  0  0  0  0  0  0
  1  2  1  0  0  0  0
  1 20  1  0  0  0  0
  1 21  1  0  0  0  0
  2  3  2  0  0  0  0
  2  4  1  0  0  0  0
  4  5  1  0  0  0  0
  4 22  1  0  0  0  0
  4 23  1  0  0  0  0
  5 19  1  0  0  0  0
  5  6  2  0  0  0  0
  6  7  1  0  0  0  0
  6 24  1  0  0  0  0
  7  8  1  0  0  0  0
  8  9  1  0  0  0  0
  8 19  2  0  0  0  0
  9 10  1  0  0  0  0
 10 11  2  0  0  0  0
 10 12  1  0  0  0  0
 12 13  1  0  0  0  0
 12 25  1  0  0  0  0
 12 26  1  0  0  0  0
 13 14  1  0  0  0  0
 13 27  1  0  0  0  0
 13 28  1  0  0  0  0
 14 18  1  0  0  0  0
 14 15  1  0  0  0  0
 14 29  1  0  0  0  0
 15 16  1  0  0  0  0
 15 30  1  0  0  0  0
 15 31  1  0  0  0  0
 16 17  1  0  0  0  0
 16 32  1  0  0  0  0
 16 33  1  0  0  0  0
 17 18  1  0  0  0  0
 17 34  1  0  0  0  0
 17 35  1  0  0  0  0
 18 36  1  0  0  0  0
 18 37  1  0  0  0  0
M  CHG  1   9  -1
M  END
> <s_m_source_file>
AV-unprocessed.smi

> <i_m_source_file_index>
344

> <i_lp_mmshare_version>
43012

> <i_f3d_flags>
0

> <s_epik_input>
W05IMl1DKD1PKVtDSDJdYzFbY0hdc2MobjEpW05IXUMoPU8pW0NIMl1bQ0gyXVtDSF0yW0NIMl1bQ0gyXVtDSDJdW0NIMl0y

> <s_epik_cmdline>
J2VwaWtfcHl0aG9uJywgJy1waCcsICc3LjAnLCAnLXRuJywgJzgnLCAnLW1hJywgJzIwMCcsICctbWV0YWxfYmluZGluZycsICctaW1hZScsICc8aW5maWxlLm1hZT4nLCAnLW9tYWUnLCAnPG91dGZpbGUubWFlPic=

> <r_lp_tautomer_probability>
1

> <r_epik_Ionization_Penalty>
5.48595

> <r_epik_Ionization_Penalty_Charging>
4.99802

> <r_epik_Ionization_Penalty_Neutral>
0.48793

> <r_epik_State_Penalty>
4.99789

> <r_epik_Charging_Adjusted_Penalty>
9.99592

> <i_epik_Tot_Q>
-1

> <i_epik_Tot_abs_Q>
1

> <r_epik_Metal_State_Penalty>
1.11866

> <b_epik_Metal_Only>
1

> <s_lp_Force_Field>
OPLS_2005

> <r_lp_Energy>
17.7805

> <b_lp_Chiralities_Consistent>
1

> <s_lp_Variant>
AV-unprocessed.smi:344-2

> <Gold.Version>
5.8.1

> <Gold.Id.Protein>
6NUR|6NUR_protein|mol2

> <Gold.PLP.Fitness>
46.8310

> <Gold.PLP.PLP>
-41.9232

> <Gold.PLP.part.hbond>
-3.7414

> <Gold.PLP.part.metal>
0.0000

> <Gold.PLP.part.buried>
-4.0249

> <Gold.PLP.part.nonpolar>
-34.7096

> <Gold.PLP.part.repulsive>
0.4544

> <Gold.PLP.ligand.clash>
0.0000

> <Gold.PLP.ligand.torsion>
1.4000

> <Gold.PLP.Chemscore.Hbond>
2.2042

> <Gold.PLP.Chemscore.CHOScore>
0.2935

> <Gold.PLP.Chemscore.Metal>
0.0000

> <Gold.Chemscore.Hbonds>
donor molecule, donor type, donor heavy atom, donor atom, acceptor molecule, acceptor atom, score
      L1  H     1    21       P1 10175  0.80
      P1  H  7989  7998       L1     9  0.99
      P1  H  8011  8017       L1    19  0.26
      L1  C     6    24       P1 10175  0.39

> <Gold.PLP.Chemscore.Internal.Correction>
0.2150

> <Gold.Rescore>
     Score         DG    S(hbond)    S(metal)    S(lipo)     H(rot)  DE(clash)    DE(int)     intcor
     16.30     -18.27       2.39        0.00      93.49       2.39       0.50       1.47       ----

> <Gold.Chemscore.Fitness>
16.2988

> <Gold.Chemscore.DG>
-18.2689

> <Gold.Chemscore.ZeroCoef>
-5.4800

> <Gold.Chemscore.Hbond>
2.3865

> <Gold.Chemscore.Metal>
0.0000

> <Gold.Chemscore.Lipo>
93.4868

> <Gold.Chemscore.Internal_Hbond>
0.0000

> <Gold.Chemscore.DEClash>
0.4995

> <Gold.Chemscore.DEInternal>
1.4706

> <Gold.Chemscore.Rot>
2.3907

> <Gold.Chemscore.Internal.Correction>
   9.000000E+99

> <Gold.Chemscore.Hbonds>
donor molecule, donor type, donor heavy atom, donor atom, acceptor molecule, acceptor atom, score
      L1  H     1    21       P1 10175  0.12
      P1  H  7989  7998       L1     9  0.61
      P1  H  8011  8017       L1    19  0.08

> <Gold.Chemscore.Hbond.Weighted>
-7.9710

> <Gold.Chemscore.Metal.Weighted>
-0.0000

> <Gold.Chemscore.Lipo.Weighted>
-10.9380

> <Gold.Chemscore.Internal_Hbond.Weighted>
0.0000

> <Gold.Chemscore.DEClash.Weighted>
0.4995

> <Gold.Chemscore.DEInternal.Weighted>
1.4706

> <Gold.Chemscore.Rot.Weighted>
6.1201

> <Gold.Chemscore.Internal.Correction.Weighted>
   9.000000E+99

> <Gold.Protein.RotatedTorsions>
[ 6907 6896 6895 6894 ] final -171.96 input  -60.11 | X-H torsion
[ 7974 7965 7964 7962 ] final  -28.81 input  175.53 | X-H torsion
[ 8008 7997 7996 7995 ] final  -30.24 input   59.86 | X-H torsion
[ 10167 10162 10161 10158 ] final  129.54 input  -65.29 | X-H torsion
[ 10718 10713 10712 10709 ] final    2.33 input   66.30 | X-H torsion
[ 10763 10752 10751 10750 ] final  -80.38 input  -60.55 | X-H torsion
[ 11005 11000 10999 10996 ] final -119.76 input  -57.11 | X-H torsion

> <Gold.Protein.ActiveResidues>
 VAL166  LYS551  ARG553  GLY616  TRP617  ASP618  TYR619  PRO620  LYS621  CYS622 
 ASP623  PHE694  ASN695  SER759  ASP760  ASP761  ALA762  ILE779  LEU786  VAL792 
 PHE793  MET794  SER795  GLU796  ALA797  LYS798  CYS799  TRP800  GLU811  SER814 

> <Gold.Protein.RotatedAtoms>
  151.5323  133.3447  159.2920 H   0  0  0  0  0  0  0  0  0  0  0  0  # atno 6907 bound_to 6896
  150.8586  134.7934  159.7076 H   0  0  0  0  0  0  0  0  0  0  0  0  # atno 6908 bound_to 6896
  152.4612  134.5188  159.9828 H   0  0  0  0  0  0  0  0  0  0  0  0  # atno 6909 bound_to 6896
  146.1261  140.5331  142.8714 H   0  0  0  0  0  0  0  0  0  0  0  0  # atno 7974 bound_to 7965
  154.4258  140.1796  156.1375 H   0  0  0  0  0  0  0  0  0  0  0  0  # atno 8008 bound_to 7997
  156.0018  140.3359  155.6828 H   0  0  0  0  0  0  0  0  0  0  0  0  # atno 8009 bound_to 7997
  155.6232  140.0662  157.2662 H   0  0  0  0  0  0  0  0  0  0  0  0  # atno 8010 bound_to 7997
  139.5473  144.6784  151.4433 H   0  0  0  0  0  0  0  0  0  0  0  0  # atno 10167 bound_to 10162
  156.8614  130.5588  149.5663 H   0  0  0  0  0  0  0  0  0  0  0  0  # atno 10718 bound_to 10713
  154.5504  135.5663  153.6917 H   0  0  0  0  0  0  0  0  0  0  0  0  # atno 10763 bound_to 10752
  152.9988  135.6249  154.2381 H   0  0  0  0  0  0  0  0  0  0  0  0  # atno 10764 bound_to 10752
  154.2316  135.2865  155.2867 H   0  0  0  0  0  0  0  0  0  0  0  0  # atno 10765 bound_to 10752
  141.0193  134.0149  157.3306 H   0  0  0  0  0  0  0  0  0  0  0  0  # atno 11005 bound_to 11000
  144.7644  140.5496  143.6713 LP  0  0  0  0  0  0  0  0  0  0  0  0  # atno 17320 bound_to 7965
  145.5361  139.1475  143.3472 LP  0  0  0  0  0  0  0  0  0  0  0  0  # atno 17321 bound_to 7965
  140.6725  143.8262  150.7017 LP  0  0  0  0  0  0  0  0  0  0  0  0  # atno 17342 bound_to 10162
  140.1691  143.4210  152.2014 LP  0  0  0  0  0  0  0  0  0  0  0  0  # atno 17343 bound_to 10162
  156.0775  130.5793  150.9501 LP  0  0  0  0  0  0  0  0  0  0  0  0  # atno 17370 bound_to 10713
  157.6248  131.0926  150.8554 LP  0  0  0  0  0  0  0  0  0  0  0  0  # atno 17371 bound_to 10713
  139.9136  135.0194  156.7791 LP  0  0  0  0  0  0  0  0  0  0  0  0  # atno 17394 bound_to 11000
  140.6601  133.9653  155.7800 LP  0  0  0  0  0  0  0  0  0  0  0  0  # atno 17395 bound_to 11000

$$$$
