AV-unprocessed.smi:419|AV-procd|sdf|2530|dock6
  -GOLD-   2262022483D 1   1.00000     0.00000
 Structure written by MMmdl.
 44 46  0  0  0  0  0  0  0  0  1 V2000
  150.6592  134.1904  155.6975 C   0  0  0  0  0  0  0  0  0  0  0  0
  149.5965  135.1234  155.8290 O   0  0  0  0  0  0  0  0  0  0  0  0
  149.8066  136.4120  155.3870 C   0  0  0  0  0  0  0  0  0  0  0  0
  148.7532  137.3307  155.5615 C   0  0  0  0  0  0  0  0  0  0  0  0
  148.8844  138.6669  155.1388 C   0  0  0  0  0  0  0  0  0  0  0  0
  150.0726  139.1179  154.5313 C   0  0  0  0  0  0  0  0  0  0  0  0
  150.1183  140.4414  154.1484 O   0  0  0  0  0  0  0  0  0  0  0  0
  149.3537  141.3833  154.8899 C   0  0  0  0  0  0  0  0  0  0  0  0
  149.8929  141.4399  156.3287 C   0  0  2  0  0  0  0  0  0  0  0  0
  148.9614  142.1749  157.0976 O   0  0  0  0  0  0  0  0  0  0  0  0
  151.2474  142.1743  156.4030 C   0  0  0  0  0  0  0  0  0  0  0  0
  151.8039  142.1561  157.7553 N   0  0  0  0  0  0  0  0  0  0  0  0
  152.4807  141.1353  158.3336 C   0  0  0  0  0  0  0  0  0  0  0  0
  152.7345  140.0505  157.8100 O   0  0  0  0  0  0  0  0  0  0  0  0
  152.8284  141.5178  159.5844 N   0  0  0  0  0  0  0  0  0  0  0  0
  153.5723  140.7377  160.5660 C   0  0  0  0  0  0  0  0  0  0  0  0
  152.3639  142.8192  159.8129 C   0  0  0  0  0  0  0  0  0  0  0  0
  152.4718  143.6518  160.9398 C   0  0  0  0  0  0  0  0  0  0  0  0
  151.8819  144.9346  160.8536 C   0  0  0  0  0  0  0  0  0  0  0  0
  151.2115  145.3483  159.6731 C   0  0  0  0  0  0  0  0  0  0  0  0
  151.1187  144.4894  158.5527 C   0  0  0  0  0  0  0  0  0  0  0  0
  151.7164  143.2216  158.6636 C   0  0  0  0  0  0  0  0  0  0  0  0
  151.1350  138.1978  154.3535 C   0  0  0  0  0  0  0  0  0  0  0  0
  151.0036  136.8605  154.7763 C   0  0  0  0  0  0  0  0  0  0  0  0
  150.3404  133.2242  156.0883 H   0  0  0  0  0  0  0  0  0  0  0  0
  151.5365  134.5022  156.2659 H   0  0  0  0  0  0  0  0  0  0  0  0
  150.9370  134.0474  154.6523 H   0  0  0  0  0  0  0  0  0  0  0  0
  147.8330  137.0077  156.0260 H   0  0  0  0  0  0  0  0  0  0  0  0
  148.0634  139.3538  155.2837 H   0  0  0  0  0  0  0  0  0  0  0  0
  149.4728  142.3613  154.4207 H   0  0  0  0  0  0  0  0  0  0  0  0
  148.2901  141.1369  154.8817 H   0  0  0  0  0  0  0  0  0  0  0  0
  149.9881  140.4269  156.7225 H   0  0  0  0  0  0  0  0  0  0  0  0
  148.7247  142.9524  156.6150 H   0  0  0  0  0  0  0  0  0  0  0  0
  151.9688  141.6812  155.7495 H   0  0  0  0  0  0  0  0  0  0  0  0
  151.1638  143.1939  156.0253 H   0  0  0  0  0  0  0  0  0  0  0  0
  153.0504  140.7363  161.5231 H   0  0  0  0  0  0  0  0  0  0  0  0
  154.5618  141.1695  160.7164 H   0  0  0  0  0  0  0  0  0  0  0  0
  153.6985  139.7002  160.2536 H   0  0  0  0  0  0  0  0  0  0  0  0
  152.9826  143.3287  161.8349 H   0  0  0  0  0  0  0  0  0  0  0  0
  151.9422  145.6069  161.6968 H   0  0  0  0  0  0  0  0  0  0  0  0
  150.7660  146.3312  159.6292 H   0  0  0  0  0  0  0  0  0  0  0  0
  150.6077  144.7998  157.6535 H   0  0  0  0  0  0  0  0  0  0  0  0
  152.0661  138.4924  153.8942 H   0  0  0  0  0  0  0  0  0  0  0  0
  151.8402  136.1966  154.6202 H   0  0  0  0  0  0  0  0  0  0  0  0
  1  2  1  0  0  0  0
  1 25  1  0  0  0  0
  1 26  1  0  0  0  0
  1 27  1  0  0  0  0
  2  3  1  0  0  0  0
  3 24  1  0  0  0  0
  3  4  2  0  0  0  0
  4  5  1  0  0  0  0
  4 28  1  0  0  0  0
  5  6  2  0  0  0  0
  5 29  1  0  0  0  0
  6  7  1  0  0  0  0
  6 23  1  0  0  0  0
  7  8  1  0  0  0  0
  8  9  1  0  0  0  0
  8 30  1  0  0  0  0
  8 31  1  0  0  0  0
  9 10  1  0  0  0  0
  9 11  1  0  0  0  0
  9 32  1  0  0  0  0
 10 33  1  0  0  0  0
 11 12  1  0  0  0  0
 11 34  1  0  0  0  0
 11 35  1  0  0  0  0
 12 22  1  0  0  0  0
 12 13  1  0  0  0  0
 13 14  2  0  0  0  0
 13 15  1  0  0  0  0
 15 16  1  0  0  0  0
 15 17  1  0  0  0  0
 16 36  1  0  0  0  0
 16 37  1  0  0  0  0
 16 38  1  0  0  0  0
 17 22  2  0  0  0  0
 17 18  1  0  0  0  0
 18 19  2  0  0  0  0
 18 39  1  0  0  0  0
 19 20  1  0  0  0  0
 19 40  1  0  0  0  0
 20 21  2  0  0  0  0
 20 41  1  0  0  0  0
 21 22  1  0  0  0  0
 21 42  1  0  0  0  0
 23 24  2  0  0  0  0
 23 43  1  0  0  0  0
 24 44  1  0  0  0  0
M  END
> <s_m_source_file>
AV-unprocessed.smi

> <i_m_source_file_index>
419

> <i_lp_mmshare_version>
43012

> <i_f3d_flags>
0

> <s_epik_input>
W0NIM11PYzFbY0hdW2NIXWMoW2NIXVtjSF0xKU9bQ0gyXVtDQEhdKFtPSF0pW0NIMl1uKGMoPU8pbjJbQ0gzXSljKGMyMylbY0hdW2NIXVtjSF1bY0hdMw==

> <s_epik_cmdline>
J2VwaWtfcHl0aG9uJywgJy1waCcsICc3LjAnLCAnLXRuJywgJzgnLCAnLW1hJywgJzIwMCcsICctbWV0YWxfYmluZGluZycsICctaW1hZScsICc8aW5maWxlLm1hZT4nLCAnLW9tYWUnLCAnPG91dGZpbGUubWFlPic=

> <r_lp_tautomer_probability>
1

> <r_epik_Ionization_Penalty>
2.40131e-06

> <r_epik_Ionization_Penalty_Charging>
2.01037e-09

> <r_epik_Ionization_Penalty_Neutral>
2.3993e-06

> <r_epik_State_Penalty>
-0

> <r_epik_Charging_Adjusted_Penalty>
2.01037e-09

> <i_epik_Tot_Q>
0

> <i_epik_Tot_abs_Q>
0

> <r_epik_Metal_State_Penalty>
-0

> <b_epik_Metal_Only>
0

> <s_lp_Force_Field>
OPLS_2005

> <r_lp_Energy>
51.0107

> <b_lp_Chiralities_Consistent>
1

> <s_lp_Variant>
AV-unprocessed.smi:419-1

> <Gold.Version>
5.8.1

> <Gold.Id.Protein>
6NUR|6NUR_protein|mol2

> <Gold.PLP.Fitness>
57.7616

> <Gold.PLP.PLP>
-50.7433

> <Gold.PLP.part.hbond>
-3.0000

> <Gold.PLP.part.metal>
0.0000

> <Gold.PLP.part.buried>
-7.6196

> <Gold.PLP.part.nonpolar>
-40.0572

> <Gold.PLP.part.repulsive>
0.7688

> <Gold.PLP.ligand.clash>
0.0000

> <Gold.PLP.ligand.torsion>
0.7596

> <Gold.PLP.Chemscore.Hbond>
2.8160

> <Gold.PLP.Chemscore.CHOScore>
0.0000

> <Gold.PLP.Chemscore.Metal>
0.0000

> <Gold.Chemscore.Hbonds>
donor molecule, donor type, donor heavy atom, donor atom, acceptor molecule, acceptor atom, score
      L1  H    10    33       P1  8028  1.00
      P1  H  7989  7998       L1     7  0.83
      P1  H  7997  8009       L1    14  1.00

> <Gold.PLP.Chemscore.Internal.Correction>
0.0896

> <Gold.Rescore>
     Score         DG    S(hbond)    S(metal)    S(lipo)     H(rot)  DE(clash)    DE(int)     intcor
     22.06     -23.81       2.59        0.00     135.04       2.40       0.98       0.77       ----

> <Gold.Chemscore.Fitness>
22.0614

> <Gold.Chemscore.DG>
-23.8096

> <Gold.Chemscore.ZeroCoef>
-5.4800

> <Gold.Chemscore.Hbond>
2.5934

> <Gold.Chemscore.Metal>
0.0000

> <Gold.Chemscore.Lipo>
135.0377

> <Gold.Chemscore.Internal_Hbond>
0.0000

> <Gold.Chemscore.DEClash>
0.9800

> <Gold.Chemscore.DEInternal>
0.7681

> <Gold.Chemscore.Rot>
2.3952

> <Gold.Chemscore.Internal.Correction>
   9.000000E+99

> <Gold.Chemscore.Hbonds>
donor molecule, donor type, donor heavy atom, donor atom, acceptor molecule, acceptor atom, score
      L1  H    10    33       P1  8028  0.86
      P1  H  7989  7998       L1     7  0.69
      P1  H  7997  8009       L1    14  0.73

> <Gold.Chemscore.Hbond.Weighted>
-8.6618

> <Gold.Chemscore.Metal.Weighted>
-0.0000

> <Gold.Chemscore.Lipo.Weighted>
-15.7994

> <Gold.Chemscore.Internal_Hbond.Weighted>
0.0000

> <Gold.Chemscore.DEClash.Weighted>
0.9800

> <Gold.Chemscore.DEInternal.Weighted>
0.7681

> <Gold.Chemscore.Rot.Weighted>
6.1316

> <Gold.Chemscore.Internal.Correction.Weighted>
   9.000000E+99

> <Gold.Protein.RotatedTorsions>
[ 6907 6896 6895 6894 ] final -175.57 input  -60.11 | X-H torsion
[ 7974 7965 7964 7962 ] final   86.99 input  175.53 | X-H torsion
[ 8008 7997 7996 7995 ] final  159.89 input   59.86 | X-H torsion
[ 10167 10162 10161 10158 ] final  -24.78 input  -65.29 | X-H torsion
[ 10718 10713 10712 10709 ] final -155.97 input   66.30 | X-H torsion
[ 10763 10752 10751 10750 ] final  -40.44 input  -60.55 | X-H torsion
[ 11005 11000 10999 10996 ] final    7.16 input  -57.11 | X-H torsion

> <Gold.Protein.ActiveResidues>
 VAL166  LYS551  ARG553  GLY616  TRP617  ASP618  TYR619  PRO620  LYS621  CYS622 
 ASP623  PHE694  ASN695  SER759  ASP760  ASP761  ALA762  ILE779  LEU786  VAL792 
 PHE793  MET794  SER795  GLU796  ALA797  LYS798  CYS799  TRP800  GLU811  SER814 

> <Gold.Protein.RotatedAtoms>
  151.5908  133.3367  159.3027 H   0  0  0  0  0  0  0  0  0  0  0  0  # atno 6907 bound_to 6896
  150.8261  134.7496  159.6825 H   0  0  0  0  0  0  0  0  0  0  0  0  # atno 6908 bound_to 6896
  152.4350  134.5709  159.9972 H   0  0  0  0  0  0  0  0  0  0  0  0  # atno 6909 bound_to 6896
  145.5649  139.2307  143.2439 H   0  0  0  0  0  0  0  0  0  0  0  0  # atno 7974 bound_to 7965
  156.2209  140.1819  156.7480 H   0  0  0  0  0  0  0  0  0  0  0  0  # atno 8008 bound_to 7997
  154.5863  140.0658  156.9205 H   0  0  0  0  0  0  0  0  0  0  0  0  # atno 8009 bound_to 7997
  155.2414  140.3322  155.4294 H   0  0  0  0  0  0  0  0  0  0  0  0  # atno 8010 bound_to 7997
  140.7288  143.4323  151.0783 H   0  0  0  0  0  0  0  0  0  0  0  0  # atno 10167 bound_to 10162
  156.5202  130.8474  151.2679 H   0  0  0  0  0  0  0  0  0  0  0  0  # atno 10718 bound_to 10713
  153.9460  135.6756  153.4744 H   0  0  0  0  0  0  0  0  0  0  0  0  # atno 10763 bound_to 10752
  153.0908  135.4875  154.8683 H   0  0  0  0  0  0  0  0  0  0  0  0  # atno 10764 bound_to 10752
  154.7351  135.3147  154.8783 H   0  0  0  0  0  0  0  0  0  0  0  0  # atno 10765 bound_to 10752
  140.5513  134.0280  155.7938 H   0  0  0  0  0  0  0  0  0  0  0  0  # atno 11005 bound_to 11000
  146.1825  140.6474  142.9182 LP  0  0  0  0  0  0  0  0  0  0  0  0  # atno 17320 bound_to 7965
  144.7465  140.5082  143.6832 LP  0  0  0  0  0  0  0  0  0  0  0  0  # atno 17321 bound_to 7965
  139.7981  143.8123  152.3160 LP  0  0  0  0  0  0  0  0  0  0  0  0  # atno 17342 bound_to 10162
  139.8130  144.7328  150.9672 LP  0  0  0  0  0  0  0  0  0  0  0  0  # atno 17343 bound_to 10162
  157.7438  130.9920  150.2620 LP  0  0  0  0  0  0  0  0  0  0  0  0  # atno 17370 bound_to 10713
  156.3157  130.3778  149.7621 LP  0  0  0  0  0  0  0  0  0  0  0  0  # atno 17371 bound_to 10713
  141.1170  133.9524  157.2804 LP  0  0  0  0  0  0  0  0  0  0  0  0  # atno 17394 bound_to 11000
  139.9454  135.0185  156.8835 LP  0  0  0  0  0  0  0  0  0  0  0  0  # atno 17395 bound_to 11000

$$$$
