AV-unprocessed.smi:47|AV-procd|sdf|439|dock4
  -GOLD-   2262016313D 1   1.00000     0.00000
 Structure written by MMmdl.
 32 34  0  0  0  0  0  0  0  0  2 V2000
  145.4100  141.8986  153.6586 O   0  0  0  0  0  0  0  0  0  0  0  0
  146.4344  141.0994  154.2125 C   0  0  1  0  0  0  0  0  0  0  0  0
  147.2537  140.4112  153.1112 C   0  0  0  0  0  0  0  0  0  0  0  0
  148.6430  140.4269  153.5914 N   0  3  0  0  0  0  0  0  0  0  0  0
  148.8001  141.6779  154.3517 C   0  0  2  0  0  0  0  0  0  0  0  0
  149.9341  141.4322  155.3018 C   0  0  0  0  0  0  0  0  0  0  0  0
  150.8093  140.4262  155.2299 N   0  0  0  0  0  0  0  0  0  0  0  0
  151.6526  140.5987  156.3112 N   0  0  0  0  0  0  0  0  0  0  0  0
  151.2240  141.6919  156.9588 C   0  0  0  0  0  0  0  0  0  0  0  0
  151.8454  142.2247  158.1734 C   0  0  0  0  0  0  0  0  0  0  0  0
  152.5169  141.3635  159.0724 C   0  0  0  0  0  0  0  0  0  0  0  0
  153.1183  141.8765  160.2382 C   0  0  0  0  0  0  0  0  0  0  0  0
  153.0573  143.2549  160.5160 C   0  0  0  0  0  0  0  0  0  0  0  0
  152.3932  144.1203  159.6270 C   0  0  0  0  0  0  0  0  0  0  0  0
  151.7900  143.6083  158.4617 C   0  0  0  0  0  0  0  0  0  0  0  0
  150.1527  142.2340  156.3526 N   0  0  0  0  0  0  0  0  0  0  0  0
  147.4409  141.9430  155.0128 C   0  0  0  0  0  0  0  0  0  0  0  0
  145.9859  140.3488  154.8649 H   0  0  0  0  0  0  0  0  0  0  0  0
  149.0495  142.4806  153.6560 H   0  0  0  0  0  0  0  0  0  0  0  0
  149.6321  143.0529  156.6324 H   0  0  0  0  0  0  0  0  0  0  0  0
  144.7085  141.3347  153.3685 H   0  0  0  0  0  0  0  0  0  0  0  0
  146.9095  139.3991  152.8964 H   0  0  0  0  0  0  0  0  0  0  0  0
  147.2147  140.9843  152.1834 H   0  0  0  0  0  0  0  0  0  0  0  0
  148.7705  139.6545  154.2302 H   0  0  0  0  0  0  0  0  0  0  0  0
  152.5760  140.3024  158.8806 H   0  0  0  0  0  0  0  0  0  0  0  0
  153.6278  141.2120  160.9203 H   0  0  0  0  0  0  0  0  0  0  0  0
  153.5198  143.6479  161.4093 H   0  0  0  0  0  0  0  0  0  0  0  0
  152.3468  145.1786  159.8379 H   0  0  0  0  0  0  0  0  0  0  0  0
  151.2875  144.2910  157.7923 H   0  0  0  0  0  0  0  0  0  0  0  0
  147.2062  143.0082  155.0248 H   0  0  0  0  0  0  0  0  0  0  0  0
  147.4410  141.6030  156.0496 H   0  0  0  0  0  0  0  0  0  0  0  0
  149.3082  140.3606  152.8342 H   0  0  0  0  0  0  0  0  0  0  0  0
  1  2  1  0  0  0  0
  1 21  1  0  0  0  0
  2 18  1  0  0  0  0
  2 17  1  0  0  0  0
  2  3  1  0  0  0  0
  3  4  1  0  0  0  0
  3 22  1  0  0  0  0
  3 23  1  0  0  0  0
  4  5  1  0  0  0  0
  4 24  1  0  0  0  0
  4 32  1  0  0  0  0
  5 19  1  0  0  0  0
  5 17  1  0  0  0  0
  5  6  1  0  0  0  0
  6  7  2  0  0  0  0
  6 16  1  0  0  0  0
  7  8  1  0  0  0  0
  8  9  2  0  0  0  0
  9 16  1  0  0  0  0
  9 10  1  0  0  0  0
 10 15  1  0  0  0  0
 10 11  2  0  0  0  0
 11 12  1  0  0  0  0
 11 25  1  0  0  0  0
 12 13  2  0  0  0  0
 12 26  1  0  0  0  0
 13 14  1  0  0  0  0
 13 27  1  0  0  0  0
 14 15  2  0  0  0  0
 14 28  1  0  0  0  0
 15 29  1  0  0  0  0
 16 20  1  0  0  0  0
 17 30  1  0  0  0  0
 17 31  1  0  0  0  0
M  CHG  1   4   1
M  END
> <s_m_source_file>
AV-unprocessed.smi

> <i_m_source_file_index>
47

> <i_lp_mmshare_version>
43012

> <i_f3d_flags>
0

> <s_epik_input>
W09IXVtDQEhdMVtDSDJdW05IXVtDQEBIXShbQ0gyXTEpYzJuW25IXWMobjIpLWMzW2NIXVtjSF1bY0hdW2NIXVtjSF0z

> <s_epik_cmdline>
J2VwaWtfcHl0aG9uJywgJy1waCcsICc3LjAnLCAnLXRuJywgJzgnLCAnLW1hJywgJzIwMCcsICctbWV0YWxfYmluZGluZycsICctaW1hZScsICc8aW5maWxlLm1hZT4nLCAnLW9tYWUnLCAnPG91dGZpbGUubWFlPic=

> <r_lp_tautomer_probability>
0.0517155

> <r_epik_Ionization_Penalty>
2.45729

> <r_epik_Ionization_Penalty_Charging>
0.0688988

> <r_epik_Ionization_Penalty_Neutral>
2.3884

> <r_epik_State_Penalty>
2.69236

> <r_epik_Charging_Adjusted_Penalty>
2.76126

> <i_epik_Tot_Q>
1

> <i_epik_Tot_abs_Q>
1

> <r_epik_Metal_State_Penalty>
3.18974

> <b_epik_Metal_Only>
0

> <s_lp_Force_Field>
OPLS_2005

> <r_lp_Energy>
30.5648

> <b_lp_Chiralities_Consistent>
1

> <s_lp_Variant>
AV-unprocessed.smi:47-17

> <Gold.Version>
5.8.1

> <Gold.Id.Protein>
6NUR|6NUR_protein|mol2

> <Gold.PLP.Fitness>
44.4958

> <Gold.PLP.PLP>
-35.3218

> <Gold.PLP.part.hbond>
-4.4432

> <Gold.PLP.part.metal>
0.0000

> <Gold.PLP.part.buried>
-0.4162

> <Gold.PLP.part.nonpolar>
-29.7368

> <Gold.PLP.part.repulsive>
0.2691

> <Gold.PLP.ligand.clash>
0.0000

> <Gold.PLP.ligand.torsion>
0.6715

> <Gold.PLP.Chemscore.Hbond>
3.5012

> <Gold.PLP.Chemscore.CHOScore>
0.0000

> <Gold.PLP.Chemscore.Metal>
0.0000

> <Gold.Chemscore.Hbonds>
donor molecule, donor type, donor heavy atom, donor atom, acceptor molecule, acceptor atom, score
      L1  H     1    21       P1 10175  0.75
      L1  H     4    32       P1  7957  0.98
      L1  H    16    20       P1  8028  0.64
      P1  H  7989  7998       L1     7  0.90

> <Gold.PLP.Chemscore.Internal.Correction>
0.0136

> <Gold.Rescore>
     Score         DG    S(hbond)    S(metal)    S(lipo)     H(rot)  DE(clash)    DE(int)     intcor
     19.59     -20.84       2.54        0.00      91.47       1.50       0.83       0.42       ----

> <Gold.Chemscore.Fitness>
19.5917

> <Gold.Chemscore.DG>
-20.8388

> <Gold.Chemscore.ZeroCoef>
-5.4800

> <Gold.Chemscore.Hbond>
2.5413

> <Gold.Chemscore.Metal>
0.0000

> <Gold.Chemscore.Lipo>
91.4716

> <Gold.Chemscore.Internal_Hbond>
0.0000

> <Gold.Chemscore.DEClash>
0.8269

> <Gold.Chemscore.DEInternal>
0.4201

> <Gold.Chemscore.Rot>
1.4966

> <Gold.Chemscore.Internal.Correction>
   9.000000E+99

> <Gold.Chemscore.Hbonds>
donor molecule, donor type, donor heavy atom, donor atom, acceptor molecule, acceptor atom, score
      L1  H     1    21       P1 10175  0.09
      L1  H     4    32       P1  7957  0.93
      L1  H    16    20       P1  8028  0.63
      P1  H  7989  7998       L1     7  0.15

> <Gold.Chemscore.Hbond.Weighted>
-8.4878

> <Gold.Chemscore.Metal.Weighted>
-0.0000

> <Gold.Chemscore.Lipo.Weighted>
-10.7022

> <Gold.Chemscore.Internal_Hbond.Weighted>
0.0000

> <Gold.Chemscore.DEClash.Weighted>
0.8269

> <Gold.Chemscore.DEInternal.Weighted>
0.4201

> <Gold.Chemscore.Rot.Weighted>
3.8312

> <Gold.Chemscore.Internal.Correction.Weighted>
   9.000000E+99

> <Gold.Protein.RotatedTorsions>
[ 6907 6896 6895 6894 ] final   45.91 input  -60.11 | X-H torsion
[ 7974 7965 7964 7962 ] final  -31.67 input  175.53 | X-H torsion
[ 8008 7997 7996 7995 ] final -163.02 input   59.86 | X-H torsion
[ 10167 10162 10161 10158 ] final   94.17 input  -65.29 | X-H torsion
[ 10718 10713 10712 10709 ] final  176.61 input   66.30 | X-H torsion
[ 10763 10752 10751 10750 ] final  -45.77 input  -60.55 | X-H torsion
[ 11005 11000 10999 10996 ] final   37.98 input  -57.11 | X-H torsion

> <Gold.Protein.ActiveResidues>
 VAL166  LYS551  ARG553  GLY616  TRP617  ASP618  TYR619  PRO620  LYS621  CYS622 
 ASP623  PHE694  ASN695  SER759  ASP760  ASP761  ALA762  ILE779  LEU786  VAL792 
 PHE793  MET794  SER795  GLU796  ALA797  LYS798  CYS799  TRP800  GLU811  SER814 

> <Gold.Protein.RotatedAtoms>
  152.2502  134.8140  160.0446 H   0  0  0  0  0  0  0  0  0  0  0  0  # atno 6907 bound_to 6896
  151.8824  133.3493  159.3779 H   0  0  0  0  0  0  0  0  0  0  0  0  # atno 6908 bound_to 6896
  150.7081  134.4932  159.5570 H   0  0  0  0  0  0  0  0  0  0  0  0  # atno 6909 bound_to 6896
  146.1049  140.5696  142.8804 H   0  0  0  0  0  0  0  0  0  0  0  0  # atno 7974 bound_to 7965
  155.8152  140.0911  157.1881 H   0  0  0  0  0  0  0  0  0  0  0  0  # atno 8008 bound_to 7997
  154.3979  140.1447  156.3494 H   0  0  0  0  0  0  0  0  0  0  0  0  # atno 8009 bound_to 7997
  155.8323  140.3442  155.5582 H   0  0  0  0  0  0  0  0  0  0  0  0  # atno 8010 bound_to 7997
  139.8109  144.6774  150.9642 H   0  0  0  0  0  0  0  0  0  0  0  0  # atno 10167 bound_to 10162
  156.9176  130.9930  151.3010 H   0  0  0  0  0  0  0  0  0  0  0  0  # atno 10718 bound_to 10713
  154.0340  135.6653  153.4783 H   0  0  0  0  0  0  0  0  0  0  0  0  # atno 10763 bound_to 10752
  153.0529  135.5074  154.7906 H   0  0  0  0  0  0  0  0  0  0  0  0  # atno 10764 bound_to 10752
  154.6860  135.3053  154.9512 H   0  0  0  0  0  0  0  0  0  0  0  0  # atno 10765 bound_to 10752
  140.2172  134.3684  155.8021 H   0  0  0  0  0  0  0  0  0  0  0  0  # atno 11005 bound_to 11000
  144.7463  140.5076  143.6833 LP  0  0  0  0  0  0  0  0  0  0  0  0  # atno 17320 bound_to 7965
  145.5780  139.1487  143.3251 LP  0  0  0  0  0  0  0  0  0  0  0  0  # atno 17321 bound_to 7965
  140.7818  143.4186  151.0877 LP  0  0  0  0  0  0  0  0  0  0  0  0  # atno 17342 bound_to 10162
  139.7853  143.8297  152.3144 LP  0  0  0  0  0  0  0  0  0  0  0  0  # atno 17343 bound_to 10162
  157.5928  130.8456  149.8685 LP  0  0  0  0  0  0  0  0  0  0  0  0  # atno 17370 bound_to 10713
  156.0506  130.3718  150.1210 LP  0  0  0  0  0  0  0  0  0  0  0  0  # atno 17371 bound_to 10713
  141.2224  133.7174  156.8516 LP  0  0  0  0  0  0  0  0  0  0  0  0  # atno 17394 bound_to 11000
  140.1888  134.8980  157.3036 LP  0  0  0  0  0  0  0  0  0  0  0  0  # atno 17395 bound_to 11000

$$$$
