AV-unprocessed.smi:2251|AV-procd|sdf|9102|dock4
  -GOLD-   2272012303D 1   1.00000     0.00000
 Structure written by MMmdl.
 45 46  0  0  0  0  0  0  0  0  2 V2000
  146.0728  135.6737  161.1541 C   0  0  0  0  0  0  0  0  0  0  0  0
  147.3460  136.3790  160.7004 C   0  0  0  0  0  0  0  0  0  0  0  0
  147.8842  137.2125  161.4288 O   0  0  0  0  0  0  0  0  0  0  0  0
  147.8194  136.0337  159.4929 N   0  0  0  0  0  0  0  0  0  0  0  0
  149.0310  136.5739  158.8822 C   0  0  0  0  0  0  0  0  0  0  0  0
  148.8000  137.9403  158.2271 C   0  0  0  0  0  0  0  0  0  0  0  0
  147.8378  138.1245  157.4808 O   0  0  0  0  0  0  0  0  0  0  0  0
  149.6815  138.9011  158.5358 N   0  0  0  0  0  0  0  0  0  0  0  0
  149.6342  140.2634  158.0139 C   0  0  0  0  0  0  0  0  0  0  0  0
  150.9081  140.6329  157.2004 C   0  0  0  0  0  0  0  0  0  0  0  0
  151.0126  139.6761  155.9903 C   0  0  0  0  0  0  0  0  0  0  0  0
  149.9090  139.5320  155.1112 C   0  0  0  0  0  0  0  0  0  0  0  0
  149.9970  138.6724  153.9983 C   0  0  0  0  0  0  0  0  0  0  0  0
  151.1360  137.9883  153.7670 N   0  3  0  0  0  0  0  0  0  0  0  0
  152.2191  138.0907  154.5644 C   0  0  0  0  0  0  0  0  0  0  0  0
  152.1879  138.9365  155.6917 C   0  0  0  0  0  0  0  0  0  0  0  0
  150.8496  142.1286  156.7552 C   0  0  0  0  0  0  0  0  0  0  0  0
  150.9416  143.1395  157.9124 C   0  0  0  0  0  0  0  0  0  0  0  0
  152.2077  142.9124  158.7462 C   0  0  0  0  0  0  0  0  0  0  0  0
  152.2803  141.4660  159.2479 C   0  0  0  0  0  0  0  0  0  0  0  0
  152.1756  140.4585  158.0876 C   0  0  0  0  0  0  0  0  0  0  0  0
  145.2920  135.7689  160.3989 H   0  0  0  0  0  0  0  0  0  0  0  0
  145.7016  136.1051  162.0844 H   0  0  0  0  0  0  0  0  0  0  0  0
  146.2658  134.6138  161.3218 H   0  0  0  0  0  0  0  0  0  0  0  0
  147.3158  135.3342  158.9668 H   0  0  0  0  0  0  0  0  0  0  0  0
  149.7867  136.6869  159.6595 H   0  0  0  0  0  0  0  0  0  0  0  0
  149.4328  135.8654  158.1552 H   0  0  0  0  0  0  0  0  0  0  0  0
  150.4433  138.6695  159.1564 H   0  0  0  0  0  0  0  0  0  0  0  0
  148.7300  140.3709  157.4160 H   0  0  0  0  0  0  0  0  0  0  0  0
  149.5147  140.9503  158.8533 H   0  0  0  0  0  0  0  0  0  0  0  0
  148.9935  140.0800  155.2768 H   0  0  0  0  0  0  0  0  0  0  0  0
  149.1966  138.5159  153.2900 H   0  0  0  0  0  0  0  0  0  0  0  0
  153.0761  137.4986  154.2777 H   0  0  0  0  0  0  0  0  0  0  0  0
  153.0763  138.9980  156.3006 H   0  0  0  0  0  0  0  0  0  0  0  0
  151.6865  142.3385  156.0874 H   0  0  0  0  0  0  0  0  0  0  0  0
  149.9436  142.3299  156.1825 H   0  0  0  0  0  0  0  0  0  0  0  0
  150.9478  144.1534  157.5112 H   0  0  0  0  0  0  0  0  0  0  0  0
  150.0586  143.0759  158.5479 H   0  0  0  0  0  0  0  0  0  0  0  0
  153.0883  143.1338  158.1417 H   0  0  0  0  0  0  0  0  0  0  0  0
  152.2294  143.6030  159.5898 H   0  0  0  0  0  0  0  0  0  0  0  0
  153.2184  141.3122  159.7820 H   0  0  0  0  0  0  0  0  0  0  0  0
  151.4888  141.2875  159.9758 H   0  0  0  0  0  0  0  0  0  0  0  0
  152.2246  139.4520  158.5029 H   0  0  0  0  0  0  0  0  0  0  0  0
  153.0637  140.5665  157.4629 H   0  0  0  0  0  0  0  0  0  0  0  0
  151.1806  137.3711  152.9556 H   0  0  0  0  0  0  0  0  0  0  0  0
  1  2  1  0  0  0  0
  1 22  1  0  0  0  0
  1 23  1  0  0  0  0
  1 24  1  0  0  0  0
  2  3  2  0  0  0  0
  2  4  1  0  0  0  0
  4  5  1  0  0  0  0
  4 25  1  0  0  0  0
  5  6  1  0  0  0  0
  5 26  1  0  0  0  0
  5 27  1  0  0  0  0
  6  7  2  0  0  0  0
  6  8  1  0  0  0  0
  8  9  1  0  0  0  0
  8 28  1  0  0  0  0
  9 10  1  0  0  0  0
  9 29  1  0  0  0  0
  9 30  1  0  0  0  0
 10 21  1  0  0  0  0
 10 11  1  0  0  0  0
 10 17  1  0  0  0  0
 11 16  1  0  0  0  0
 11 12  2  0  0  0  0
 12 13  1  0  0  0  0
 12 31  1  0  0  0  0
 13 14  2  0  0  0  0
 13 32  1  0  0  0  0
 14 15  1  0  0  0  0
 14 45  1  0  0  0  0
 15 16  2  0  0  0  0
 15 33  1  0  0  0  0
 16 34  1  0  0  0  0
 17 18  1  0  0  0  0
 17 35  1  0  0  0  0
 17 36  1  0  0  0  0
 18 19  1  0  0  0  0
 18 37  1  0  0  0  0
 18 38  1  0  0  0  0
 19 20  1  0  0  0  0
 19 39  1  0  0  0  0
 19 40  1  0  0  0  0
 20 21  1  0  0  0  0
 20 41  1  0  0  0  0
 20 42  1  0  0  0  0
 21 43  1  0  0  0  0
 21 44  1  0  0  0  0
M  CHG  1  14   1
M  END
> <s_m_source_file>
AV-unprocessed.smi

> <i_m_source_file_index>
2251

> <i_lp_mmshare_version>
43012

> <i_f3d_flags>
0

> <s_epik_input>
W0NIM11DKD1PKVtOSF1bQ0gyXUMoPU8pW05IXVtDSDJdQzEoW0NIMl1bQ0gyXVtDSDJdW0NIMl1bQ0gyXTEpYzJbY0hdW2NIXW5bY0hdW2NIXTI=

> <s_epik_cmdline>
J2VwaWtfcHl0aG9uJywgJy1waCcsICc3LjAnLCAnLXRuJywgJzgnLCAnLW1hJywgJzIwMCcsICctbWV0YWxfYmluZGluZycsICctaW1hZScsICc8aW5maWxlLm1hZT4nLCAnLW9tYWUnLCAnPG91dGZpbGUubWFlPic=

> <r_epik_Ionization_Penalty>
1.36815

> <r_epik_Ionization_Penalty_Charging>
1.36815

> <r_epik_Ionization_Penalty_Neutral>
3.04412e-07

> <r_epik_State_Penalty>
1.44763

> <r_epik_Charging_Adjusted_Penalty>
2.81578

> <i_epik_Tot_Q>
1

> <i_epik_Tot_abs_Q>
1

> <r_epik_Metal_State_Penalty>
1.50443

> <b_epik_Metal_Only>
0

> <s_lp_Force_Field>
OPLS_2005

> <r_lp_Energy>
22.2864

> <b_lp_Chiralities_Consistent>
1

> <s_lp_Variant>
AV-unprocessed.smi:2251-2

> <Gold.Version>
5.8.1

> <Gold.Id.Protein>
6NUR|6NUR_protein|mol2

> <Gold.PLP.Fitness>
43.9946

> <Gold.PLP.PLP>
-33.9416

> <Gold.PLP.part.hbond>
-2.8413

> <Gold.PLP.part.metal>
0.0000

> <Gold.PLP.part.buried>
-2.7466

> <Gold.PLP.part.nonpolar>
-29.4774

> <Gold.PLP.part.repulsive>
0.4544

> <Gold.PLP.ligand.clash>
0.0000

> <Gold.PLP.ligand.torsion>
0.4810

> <Gold.PLP.Chemscore.Hbond>
3.6503

> <Gold.PLP.Chemscore.CHOScore>
0.0000

> <Gold.PLP.Chemscore.Metal>
0.0000

> <Gold.Chemscore.Hbonds>
donor molecule, donor type, donor heavy atom, donor atom, acceptor molecule, acceptor atom, score
      L1  H    14    45       P1  7949  2.00
      P1  H  6931  6943       L1     3  1.00
      P1  H  6934  6947       L1     3  0.70

> <Gold.PLP.Chemscore.Internal.Correction>
0.0643

> <Gold.Rescore>
     Score         DG    S(hbond)    S(metal)    S(lipo)     H(rot)  DE(clash)    DE(int)     intcor
     19.11     -19.52       2.63        0.00      90.67       2.10       0.03       0.38       ----

> <Gold.Chemscore.Fitness>
19.1073

> <Gold.Chemscore.DG>
-19.5156

> <Gold.Chemscore.ZeroCoef>
-5.4800

> <Gold.Chemscore.Hbond>
2.6321

> <Gold.Chemscore.Metal>
0.0000

> <Gold.Chemscore.Lipo>
90.6656

> <Gold.Chemscore.Internal_Hbond>
0.0000

> <Gold.Chemscore.DEClash>
0.0277

> <Gold.Chemscore.DEInternal>
0.3807

> <Gold.Chemscore.Rot>
2.0952

> <Gold.Chemscore.Internal.Correction>
   9.000000E+99

> <Gold.Chemscore.Hbonds>
donor molecule, donor type, donor heavy atom, donor atom, acceptor molecule, acceptor atom, score
      L1  H    14    45       P1  7949  0.53
      P1  H  6931  6943       L1     3  0.96
      P1  H  6934  6947       L1     3  0.47

> <Gold.Chemscore.Hbond.Weighted>
-8.7914

> <Gold.Chemscore.Metal.Weighted>
-0.0000

> <Gold.Chemscore.Lipo.Weighted>
-10.6079

> <Gold.Chemscore.Internal_Hbond.Weighted>
0.0000

> <Gold.Chemscore.DEClash.Weighted>
0.0277

> <Gold.Chemscore.DEInternal.Weighted>
0.3807

> <Gold.Chemscore.Rot.Weighted>
5.3636

> <Gold.Chemscore.Internal.Correction.Weighted>
   9.000000E+99

> <Gold.Protein.RotatedTorsions>
[ 6907 6896 6895 6894 ] final -165.81 input  -60.11 | X-H torsion
[ 7974 7965 7964 7962 ] final    2.22 input  175.53 | X-H torsion
[ 8008 7997 7996 7995 ] final  103.31 input   59.86 | X-H torsion
[ 10167 10162 10161 10158 ] final  -31.31 input  -65.29 | X-H torsion
[ 10718 10713 10712 10709 ] final -155.75 input   66.30 | X-H torsion
[ 10763 10752 10751 10750 ] final   35.18 input  -60.55 | X-H torsion
[ 11005 11000 10999 10996 ] final  -11.58 input  -57.11 | X-H torsion

> <Gold.Protein.ActiveResidues>
 VAL166  LYS551  ARG553  GLY616  TRP617  ASP618  TYR619  PRO620  LYS621  CYS622 
 ASP623  PHE694  ASN695  SER759  ASP760  ASP761  ALA762  ILE779  LEU786  VAL792 
 PHE793  MET794  SER795  GLU796  ALA797  LYS798  CYS799  TRP800  GLU811  SER814 

> <Gold.Protein.RotatedAtoms>
  151.4335  133.3663  159.2771 H   0  0  0  0  0  0  0  0  0  0  0  0  # atno 6907 bound_to 6896
  150.9208  134.8627  159.7498 H   0  0  0  0  0  0  0  0  0  0  0  0  # atno 6908 bound_to 6896
  152.4980  134.4273  159.9552 H   0  0  0  0  0  0  0  0  0  0  0  0  # atno 6909 bound_to 6896
  146.2443  140.0869  142.8354 H   0  0  0  0  0  0  0  0  0  0  0  0  # atno 7974 bound_to 7965
  156.1472  140.3167  155.8590 H   0  0  0  0  0  0  0  0  0  0  0  0  # atno 8008 bound_to 7997
  155.4040  140.0501  157.3052 H   0  0  0  0  0  0  0  0  0  0  0  0  # atno 8009 bound_to 7997
  154.5027  140.2135  155.9326 H   0  0  0  0  0  0  0  0  0  0  0  0  # atno 8010 bound_to 7997
  140.7238  143.3780  151.1653 H   0  0  0  0  0  0  0  0  0  0  0  0  # atno 10167 bound_to 10162
  156.5171  130.8461  151.2668 H   0  0  0  0  0  0  0  0  0  0  0  0  # atno 10718 bound_to 10713
  153.0130  135.6340  154.1786 H   0  0  0  0  0  0  0  0  0  0  0  0  # atno 10763 bound_to 10752
  154.1527  135.2828  155.3132 H   0  0  0  0  0  0  0  0  0  0  0  0  # atno 10764 bound_to 10752
  154.6041  135.5578  153.7465 H   0  0  0  0  0  0  0  0  0  0  0  0  # atno 10765 bound_to 10752
  140.7567  133.8548  155.9090 H   0  0  0  0  0  0  0  0  0  0  0  0  # atno 11005 bound_to 11000
  145.0684  140.9138  143.4897 LP  0  0  0  0  0  0  0  0  0  0  0  0  # atno 17320 bound_to 7965
  145.0998  139.2830  143.5692 LP  0  0  0  0  0  0  0  0  0  0  0  0  # atno 17321 bound_to 7965
  139.7364  143.8992  152.3036 LP  0  0  0  0  0  0  0  0  0  0  0  0  # atno 17342 bound_to 10162
  139.8799  144.7023  150.8890 LP  0  0  0  0  0  0  0  0  0  0  0  0  # atno 17343 bound_to 10162
  157.7442  130.9930  150.2656 LP  0  0  0  0  0  0  0  0  0  0  0  0  # atno 17370 bound_to 10713
  156.3185  130.3782  149.7597 LP  0  0  0  0  0  0  0  0  0  0  0  0  # atno 17371 bound_to 10713
  140.9701  134.1543  157.4584 LP  0  0  0  0  0  0  0  0  0  0  0  0  # atno 17394 bound_to 11000
  139.8778  134.9975  156.5852 LP  0  0  0  0  0  0  0  0  0  0  0  0  # atno 17395 bound_to 11000

$$$$
