AV-unprocessed.smi:2083|AV-procd|sdf|8497|dock9
  -GOLD-   2272011203D 1   1.00000     0.00000
 Structure written by MMmdl.
 45 46  0  0  0  0  0  0  0  0  2 V2000
  153.6124  136.9303  156.6511 C   0  0  0  0  0  0  0  0  0  0  0  0
  152.6841  137.6795  155.7579 C   0  0  0  0  0  0  0  0  0  0  0  0
  151.4432  137.3977  155.2596 C   0  0  0  0  0  0  0  0  0  0  0  0
  151.1456  138.5436  154.4756 C   0  0  0  0  0  0  0  0  0  0  0  0
  149.9185  138.6443  153.7720 N   0  0  0  0  0  0  0  0  0  0  0  0
  148.6870  138.3599  154.2286 C   0  0  0  0  0  0  0  0  0  0  0  0
  148.4257  137.9543  155.3613 O   0  0  0  0  0  0  0  0  0  0  0  0
  147.7567  138.5713  153.2855 N   0  0  0  0  0  0  0  0  0  0  0  0
  146.3159  138.4012  153.4604 C   0  0  0  0  0  0  0  0  0  0  0  0
  145.6400  137.6885  152.2560 C   0  0  1  0  0  0  0  0  0  0  0  0
  146.0852  138.3273  150.9215 C   0  0  0  0  0  0  0  0  0  0  0  0
  145.8739  136.2065  152.2032 N   0  3  2  0  0  0  0  0  0  0  0  0
  145.1074  135.5623  151.0983 C   0  0  0  0  0  0  0  0  0  0  0  0
  145.5087  134.0920  150.9123 C   0  0  0  0  0  0  0  0  0  0  0  0
  145.2965  133.3066  152.2091 C   0  0  0  0  0  0  0  0  0  0  0  0
  146.0689  133.9745  153.3557 C   0  0  2  0  0  0  0  0  0  0  0  0
  145.8619  133.2244  154.6794 C   0  0  0  0  0  0  0  0  0  0  0  0
  145.6776  135.4621  153.4830 C   0  0  0  0  0  0  0  0  0  0  0  0
  152.1152  139.4452  154.4954 N   0  0  0  0  0  0  0  0  0  0  0  0
  153.1066  138.8956  155.3171 O   0  0  0  0  0  0  0  0  0  0  0  0
  153.1017  136.0952  157.1309 H   0  0  0  0  0  0  0  0  0  0  0  0
  154.0065  137.5794  157.4333 H   0  0  0  0  0  0  0  0  0  0  0  0
  154.4544  136.5318  156.0851 H   0  0  0  0  0  0  0  0  0  0  0  0
  150.8489  136.5121  155.4292 H   0  0  0  0  0  0  0  0  0  0  0  0
  149.9868  138.9740  152.8208 H   0  0  0  0  0  0  0  0  0  0  0  0
  148.0672  138.9008  152.3830 H   0  0  0  0  0  0  0  0  0  0  0  0
  146.0988  137.8703  154.3891 H   0  0  0  0  0  0  0  0  0  0  0  0
  145.9219  139.4104  153.5785 H   0  0  0  0  0  0  0  0  0  0  0  0
  144.5658  137.8464  152.3674 H   0  0  0  0  0  0  0  0  0  0  0  0
  145.8258  139.3845  150.8729 H   0  0  0  0  0  0  0  0  0  0  0  0
  145.6163  137.8627  150.0558 H   0  0  0  0  0  0  0  0  0  0  0  0
  147.1650  138.2467  150.7905 H   0  0  0  0  0  0  0  0  0  0  0  0
  144.0394  135.6298  151.3115 H   0  0  0  0  0  0  0  0  0  0  0  0
  145.2662  136.0841  150.1559 H   0  0  0  0  0  0  0  0  0  0  0  0
  144.9235  133.6449  150.1080 H   0  0  0  0  0  0  0  0  0  0  0  0
  146.5540  134.0299  150.6070 H   0  0  0  0  0  0  0  0  0  0  0  0
  144.2324  133.2673  152.4469 H   0  0  0  0  0  0  0  0  0  0  0  0
  145.6266  132.2754  152.0779 H   0  0  0  0  0  0  0  0  0  0  0  0
  147.1326  133.9274  153.1164 H   0  0  0  0  0  0  0  0  0  0  0  0
  144.8133  133.2293  154.9791 H   0  0  0  0  0  0  0  0  0  0  0  0
  146.4401  133.6787  155.4844 H   0  0  0  0  0  0  0  0  0  0  0  0
  146.1783  132.1842  154.5951 H   0  0  0  0  0  0  0  0  0  0  0  0
  146.3017  135.8853  154.2693 H   0  0  0  0  0  0  0  0  0  0  0  0
  144.6388  135.5570  153.8037 H   0  0  0  0  0  0  0  0  0  0  0  0
  146.8528  136.0949  151.9803 H   0  0  0  0  0  0  0  0  0  0  0  0
  1  2  1  0  0  0  0
  1 21  1  0  0  0  0
  1 22  1  0  0  0  0
  1 23  1  0  0  0  0
  2 20  1  0  0  0  0
  2  3  2  0  0  0  0
  3  4  1  0  0  0  0
  3 24  1  0  0  0  0
  4  5  1  0  0  0  0
  4 19  2  0  0  0  0
  5  6  1  0  0  0  0
  5 25  1  0  0  0  0
  6  7  2  0  0  0  0
  6  8  1  0  0  0  0
  8  9  1  0  0  0  0
  8 26  1  0  0  0  0
  9 10  1  0  0  0  0
  9 27  1  0  0  0  0
  9 28  1  0  0  0  0
 10 11  1  0  0  0  0
 10 12  1  0  0  0  0
 10 29  1  0  0  0  0
 11 30  1  0  0  0  0
 11 31  1  0  0  0  0
 11 32  1  0  0  0  0
 12 18  1  0  0  0  0
 12 13  1  0  0  0  0
 12 45  1  0  0  0  0
 13 14  1  0  0  0  0
 13 33  1  0  0  0  0
 13 34  1  0  0  0  0
 14 15  1  0  0  0  0
 14 35  1  0  0  0  0
 14 36  1  0  0  0  0
 15 16  1  0  0  0  0
 15 37  1  0  0  0  0
 15 38  1  0  0  0  0
 16 17  1  0  0  0  0
 16 18  1  0  0  0  0
 16 39  1  0  0  0  0
 17 40  1  0  0  0  0
 17 41  1  0  0  0  0
 17 42  1  0  0  0  0
 18 43  1  0  0  0  0
 18 44  1  0  0  0  0
 19 20  1  0  0  0  0
M  CHG  1  12   1
M  END
> <s_m_source_file>
AV-unprocessed.smi

> <i_m_source_file_index>
2083

> <i_lp_mmshare_version>
43012

> <i_f3d_flags>
0

> <s_epik_input>
W0NIM11jMVtjSF1jKG5vMSlbTkhdQyg9TylbTkhdW0NIMl1bQ0BIXShbQ0gzXSlOMltDSDJdW0NIMl1bQ0gyXVtDQEBIXShbQ0gzXSlbQ0gyXTI=

> <s_epik_cmdline>
J2VwaWtfcHl0aG9uJywgJy1waCcsICc3LjAnLCAnLXRuJywgJzgnLCAnLW1hJywgJzIwMCcsICctbWV0YWxfYmluZGluZycsICctaW1hZScsICc8aW5maWxlLm1hZT4nLCAnLW9tYWUnLCAnPG91dGZpbGUubWFlPic=

> <r_epik_Ionization_Penalty>
0.00216453

> <r_epik_Ionization_Penalty_Charging>
0.00212879

> <r_epik_Ionization_Penalty_Neutral>
3.57418e-05

> <r_epik_State_Penalty>
0.00146033

> <r_epik_Charging_Adjusted_Penalty>
0.00358912

> <i_epik_Tot_Q>
1

> <i_epik_Tot_abs_Q>
1

> <r_epik_Metal_State_Penalty>
0.0215827

> <b_epik_Metal_Only>
0

> <s_lp_Force_Field>
OPLS_2005

> <r_lp_Energy>
20.5585

> <b_lp_Chiralities_Consistent>
1

> <s_lp_Variant>
AV-unprocessed.smi:2083-8

> <Gold.Version>
5.8.1

> <Gold.Id.Protein>
6NUR|6NUR_protein|mol2

> <Gold.PLP.Fitness>
45.6136

> <Gold.PLP.PLP>
-29.5691

> <Gold.PLP.part.hbond>
-5.8328

> <Gold.PLP.part.metal>
0.0000

> <Gold.PLP.part.buried>
1.1898

> <Gold.PLP.part.nonpolar>
-25.3759

> <Gold.PLP.part.repulsive>
0.2972

> <Gold.PLP.ligand.clash>
0.0000

> <Gold.PLP.ligand.torsion>
0.6579

> <Gold.PLP.Chemscore.Hbond>
5.7680

> <Gold.PLP.Chemscore.CHOScore>
0.0000

> <Gold.PLP.Chemscore.Metal>
0.0000

> <Gold.Chemscore.Hbonds>
donor molecule, donor type, donor heavy atom, donor atom, acceptor molecule, acceptor atom, score
      L1  H     5    25       P1  7957  1.00
      L1  H     8    26       P1  7957  0.45
      L1  H    12    45       P1  7948  1.72
      P1  H  7989  7998       L1    19  0.82
      P1  H  7997  8010       L1    20  0.84

> <Gold.PLP.Chemscore.Internal.Correction>
0.0563

> <Gold.Rescore>
     Score         DG    S(hbond)    S(metal)    S(lipo)     H(rot)  DE(clash)    DE(int)     intcor
     19.43     -21.76       3.86        0.00      62.96       1.55       1.82       0.51       ----

> <Gold.Chemscore.Fitness>
19.4316

> <Gold.Chemscore.DG>
-21.7644

> <Gold.Chemscore.ZeroCoef>
-5.4800

> <Gold.Chemscore.Hbond>
3.8559

> <Gold.Chemscore.Metal>
0.0000

> <Gold.Chemscore.Lipo>
62.9648

> <Gold.Chemscore.Internal_Hbond>
0.0000

> <Gold.Chemscore.DEClash>
1.8234

> <Gold.Chemscore.DEInternal>
0.5094

> <Gold.Chemscore.Rot>
1.5474

> <Gold.Chemscore.Internal.Correction>
   9.000000E+99

> <Gold.Chemscore.Hbonds>
donor molecule, donor type, donor heavy atom, donor atom, acceptor molecule, acceptor atom, score
      L1  H     5    25       P1  7957  0.76
      L1  H     8    26       P1  7957  0.43
      L1  H    12    45       P1  7948  0.84
      P1  H  7989  7998       L1    19  0.61
      P1  H  7997  8010       L1    20  0.77

> <Gold.Chemscore.Hbond.Weighted>
-12.8788

> <Gold.Chemscore.Metal.Weighted>
-0.0000

> <Gold.Chemscore.Lipo.Weighted>
-7.3669

> <Gold.Chemscore.Internal_Hbond.Weighted>
0.0000

> <Gold.Chemscore.DEClash.Weighted>
1.8234

> <Gold.Chemscore.DEInternal.Weighted>
0.5094

> <Gold.Chemscore.Rot.Weighted>
3.9612

> <Gold.Chemscore.Internal.Correction.Weighted>
   9.000000E+99

> <Gold.Protein.RotatedTorsions>
[ 6907 6896 6895 6894 ] final   33.31 input  -60.11 | X-H torsion
[ 7974 7965 7964 7962 ] final   39.74 input  175.53 | X-H torsion
[ 8008 7997 7996 7995 ] final   72.50 input   59.86 | X-H torsion
[ 10167 10162 10161 10158 ] final  142.22 input  -65.29 | X-H torsion
[ 10718 10713 10712 10709 ] final  102.23 input   66.30 | X-H torsion
[ 10763 10752 10751 10750 ] final  -60.69 input  -60.55 | X-H torsion
[ 11005 11000 10999 10996 ] final  171.06 input  -57.11 | X-H torsion

> <Gold.Protein.ActiveResidues>
 VAL166  LYS551  ARG553  GLY616  TRP617  ASP618  TYR619  PRO620  LYS621  CYS622 
 ASP623  PHE694  ASN695  SER759  ASP760  ASP761  ALA762  ILE779  LEU786  VAL792 
 PHE793  MET794  SER795  GLU796  ALA797  LYS798  CYS799  TRP800  GLU811  SER814 

> <Gold.Protein.RotatedAtoms>
  152.0867  134.9435  160.0572 H   0  0  0  0  0  0  0  0  0  0  0  0  # atno 6907 bound_to 6896
  152.0702  133.4098  159.4464 H   0  0  0  0  0  0  0  0  0  0  0  0  # atno 6908 bound_to 6896
  150.6836  134.3020  159.4754 H   0  0  0  0  0  0  0  0  0  0  0  0  # atno 6909 bound_to 6896
  146.0960  139.5616  142.9445 H   0  0  0  0  0  0  0  0  0  0  0  0  # atno 7974 bound_to 7965
  155.7697  140.3484  155.5241 H   0  0  0  0  0  0  0  0  0  0  0  0  # atno 8008 bound_to 7997
  155.8833  140.1006  157.1490 H   0  0  0  0  0  0  0  0  0  0  0  0  # atno 8009 bound_to 7997
  154.4026  140.1318  156.4211 H   0  0  0  0  0  0  0  0  0  0  0  0  # atno 8010 bound_to 7997
  139.5000  144.6121  151.6247 H   0  0  0  0  0  0  0  0  0  0  0  0  # atno 10167 bound_to 10162
  157.6808  131.0747  150.5372 H   0  0  0  0  0  0  0  0  0  0  0  0  # atno 10718 bound_to 10713
  154.2731  135.6286  153.5318 H   0  0  0  0  0  0  0  0  0  0  0  0  # atno 10763 bound_to 10752
  152.9877  135.5615  154.5578 H   0  0  0  0  0  0  0  0  0  0  0  0  # atno 10764 bound_to 10752
  154.5152  135.2879  155.1284 H   0  0  0  0  0  0  0  0  0  0  0  0  # atno 10765 bound_to 10752
  140.3150  134.7485  157.4020 H   0  0  0  0  0  0  0  0  0  0  0  0  # atno 11005 bound_to 11000
  145.5947  141.0364  143.2051 LP  0  0  0  0  0  0  0  0  0  0  0  0  # atno 17320 bound_to 7965
  144.7396  139.7487  143.7316 LP  0  0  0  0  0  0  0  0  0  0  0  0  # atno 17321 bound_to 7965
  140.5799  143.9964  150.6262 LP  0  0  0  0  0  0  0  0  0  0  0  0  # atno 17342 bound_to 10162
  140.3110  143.3198  152.0879 LP  0  0  0  0  0  0  0  0  0  0  0  0  # atno 17343 bound_to 10162
  156.5680  130.4272  149.6032 LP  0  0  0  0  0  0  0  0  0  0  0  0  # atno 17370 bound_to 10713
  156.2764  130.7046  151.1858 LP  0  0  0  0  0  0  0  0  0  0  0  0  # atno 17371 bound_to 10713
  140.0991  134.5496  155.8370 LP  0  0  0  0  0  0  0  0  0  0  0  0  # atno 17394 bound_to 11000
  141.2099  133.6689  156.6475 LP  0  0  0  0  0  0  0  0  0  0  0  0  # atno 17395 bound_to 11000

$$$$
