AV-unprocessed.smi:517|AV-procd|sdf|2791|dock5
  -GOLD-   2262023263D 1   1.00000     0.00000
 Structure written by MMmdl.
 36 37  0  0  0  0  0  0  0  0  2 V2000
  150.6979  135.0646  155.2736 C   0  0  0  0  0  0  0  0  0  0  0  0
  150.6492  136.5415  155.6703 C   0  0  0  0  0  0  0  0  0  0  0  0
  151.8100  137.1874  155.1771 O   0  0  0  0  0  0  0  0  0  0  0  0
  151.6719  138.5983  155.1191 C   0  0  0  0  0  0  0  0  0  0  0  0
  151.4406  139.1472  156.5338 C   0  0  0  0  0  0  0  0  0  0  0  0
  151.0209  140.5569  156.5163 N   0  0  0  0  0  0  0  0  0  0  0  0
  150.1061  141.2054  155.7358 C   0  0  0  0  0  0  0  0  0  0  0  0
  149.2686  140.6231  154.6385 C   0  0  1  0  0  0  0  0  0  0  0  0
  147.7826  140.9515  154.8378 C   0  0  0  0  0  0  0  0  0  0  0  0
  149.6696  141.0959  153.3705 O   0  0  0  0  0  0  0  0  0  0  0  0
  150.0994  142.5113  156.1297 N   0  3  0  0  0  0  0  0  0  0  0  0
  150.9953  142.6955  157.1826 C   0  0  0  0  0  0  0  0  0  0  0  0
  151.3215  143.8336  157.9136 C   0  0  0  0  0  0  0  0  0  0  0  0
  152.2801  143.6756  158.9358 C   0  0  0  0  0  0  0  0  0  0  0  0
  152.8745  142.4239  159.1977 C   0  0  0  0  0  0  0  0  0  0  0  0
  152.5366  141.2777  158.4483 C   0  0  0  0  0  0  0  0  0  0  0  0
  151.5887  141.4430  157.4388 C   0  0  0  0  0  0  0  0  0  0  0  0
  149.8178  134.5344  155.6386 H   0  0  0  0  0  0  0  0  0  0  0  0
  151.5794  134.5762  155.6896 H   0  0  0  0  0  0  0  0  0  0  0  0
  150.7305  134.9509  154.1898 H   0  0  0  0  0  0  0  0  0  0  0  0
  149.7541  137.0071  155.2552 H   0  0  0  0  0  0  0  0  0  0  0  0
  150.5981  136.6351  156.7561 H   0  0  0  0  0  0  0  0  0  0  0  0
  152.5714  139.0433  154.6910 H   0  0  0  0  0  0  0  0  0  0  0  0
  150.8347  138.8681  154.4739 H   0  0  0  0  0  0  0  0  0  0  0  0
  150.6927  138.5581  157.0651 H   0  0  0  0  0  0  0  0  0  0  0  0
  152.3548  139.0730  157.1219 H   0  0  0  0  0  0  0  0  0  0  0  0
  149.3802  139.5396  154.6335 H   0  0  0  0  0  0  0  0  0  0  0  0
  147.4253  140.5727  155.7955 H   0  0  0  0  0  0  0  0  0  0  0  0
  147.1725  140.4960  154.0570 H   0  0  0  0  0  0  0  0  0  0  0  0
  147.6005  142.0265  154.8154 H   0  0  0  0  0  0  0  0  0  0  0  0
  149.4875  140.4260  152.7292 H   0  0  0  0  0  0  0  0  0  0  0  0
  150.8657  144.7928  157.7160 H   0  0  0  0  0  0  0  0  0  0  0  0
  152.5639  144.5307  159.5320 H   0  0  0  0  0  0  0  0  0  0  0  0
  153.6042  142.3406  159.9902 H   0  0  0  0  0  0  0  0  0  0  0  0
  152.9961  140.3235  158.6593 H   0  0  0  0  0  0  0  0  0  0  0  0
  149.5146  143.2209  155.7071 H   0  0  0  0  0  0  0  0  0  0  0  0
  1  2  1  0  0  0  0
  1 18  1  0  0  0  0
  1 19  1  0  0  0  0
  1 20  1  0  0  0  0
  2  3  1  0  0  0  0
  2 21  1  0  0  0  0
  2 22  1  0  0  0  0
  3  4  1  0  0  0  0
  4  5  1  0  0  0  0
  4 23  1  0  0  0  0
  4 24  1  0  0  0  0
  5  6  1  0  0  0  0
  5 25  1  0  0  0  0
  5 26  1  0  0  0  0
  6 17  1  0  0  0  0
  6  7  1  0  0  0  0
  7  8  1  0  0  0  0
  7 11  2  0  0  0  0
  8  9  1  0  0  0  0
  8 10  1  0  0  0  0
  8 27  1  0  0  0  0
  9 28  1  0  0  0  0
  9 29  1  0  0  0  0
  9 30  1  0  0  0  0
 10 31  1  0  0  0  0
 11 12  1  0  0  0  0
 11 36  1  0  0  0  0
 12 17  2  0  0  0  0
 12 13  1  0  0  0  0
 13 14  2  0  0  0  0
 13 32  1  0  0  0  0
 14 15  1  0  0  0  0
 14 33  1  0  0  0  0
 15 16  2  0  0  0  0
 15 34  1  0  0  0  0
 16 17  1  0  0  0  0
 16 35  1  0  0  0  0
M  CHG  1  11   1
M  END
> <s_m_source_file>
AV-unprocessed.smi

> <i_m_source_file_index>
517

> <i_lp_mmshare_version>
43012

> <i_f3d_flags>
0

> <s_epik_input>
W0NIM11bQ0gyXU9bQ0gyXVtDSDJdbihjKG4xKVtDQEhdKFtDSDNdKVtPSF0pYyhjMTIpW2NIXVtjSF1bY0hdW2NIXTI=

> <s_epik_cmdline>
J2VwaWtfcHl0aG9uJywgJy1waCcsICc3LjAnLCAnLXRuJywgJzgnLCAnLW1hJywgJzIwMCcsICctbWV0YWxfYmluZGluZycsICctaW1hZScsICc8aW5maWxlLm1hZT4nLCAnLW9tYWUnLCAnPG91dGZpbGUubWFlPic=

> <r_epik_Ionization_Penalty>
1.46962

> <r_epik_Ionization_Penalty_Charging>
1.46959

> <r_epik_Ionization_Penalty_Neutral>
2.92192e-05

> <r_epik_State_Penalty>
1.55729

> <r_epik_Charging_Adjusted_Penalty>
3.02688

> <i_epik_Tot_Q>
1

> <i_epik_Tot_abs_Q>
1

> <r_epik_Metal_State_Penalty>
5.60569

> <b_epik_Metal_Only>
0

> <s_lp_Force_Field>
OPLS_2005

> <r_lp_Energy>
10.1165

> <b_lp_Chiralities_Consistent>
1

> <s_lp_Variant>
AV-unprocessed.smi:517-4

> <Gold.Version>
5.8.1

> <Gold.Id.Protein>
6NUR|6NUR_protein|mol2

> <Gold.PLP.Fitness>
51.3847

> <Gold.PLP.PLP>
-37.2723

> <Gold.PLP.part.hbond>
-4.4149

> <Gold.PLP.part.metal>
0.0000

> <Gold.PLP.part.buried>
-3.2288

> <Gold.PLP.part.nonpolar>
-29.3940

> <Gold.PLP.part.repulsive>
0.2011

> <Gold.PLP.ligand.clash>
0.0000

> <Gold.PLP.ligand.torsion>
0.4574

> <Gold.PLP.Chemscore.Hbond>
4.9972

> <Gold.PLP.Chemscore.CHOScore>
0.0000

> <Gold.PLP.Chemscore.Metal>
0.0000

> <Gold.Chemscore.Hbonds>
donor molecule, donor type, donor heavy atom, donor atom, acceptor molecule, acceptor atom, score
      L1  H    10    31       P1  7957  0.86
      L1  H    11    36       P1  8028  2.00
      P1  H  7989  7998       L1    10  0.17
      P1  H  8011  8017       L1    10  0.95
      P1  H 10752 10764       L1     3  1.00

> <Gold.PLP.Chemscore.Internal.Correction>
0.0355

> <Gold.Rescore>
     Score         DG    S(hbond)    S(metal)    S(lipo)     H(rot)  DE(clash)    DE(int)     intcor
     20.84     -21.50       3.19        0.00      93.48       2.18       0.04       0.62       ----

> <Gold.Chemscore.Fitness>
20.8398

> <Gold.Chemscore.DG>
-21.5029

> <Gold.Chemscore.ZeroCoef>
-5.4800

> <Gold.Chemscore.Hbond>
3.1933

> <Gold.Chemscore.Metal>
0.0000

> <Gold.Chemscore.Lipo>
93.4824

> <Gold.Chemscore.Internal_Hbond>
0.0000

> <Gold.Chemscore.DEClash>
0.0400

> <Gold.Chemscore.DEInternal>
0.6231

> <Gold.Chemscore.Rot>
2.1797

> <Gold.Chemscore.Internal.Correction>
   9.000000E+99

> <Gold.Chemscore.Hbonds>
donor molecule, donor type, donor heavy atom, donor atom, acceptor molecule, acceptor atom, score
      L1  H    10    31       P1  7957  0.86
      L1  H    11    36       P1  8028  0.96
      P1  H  7989  7998       L1    10  0.01
      P1  H  8011  8017       L1    10  0.21
      P1  H 10752 10764       L1     3  0.31

> <Gold.Chemscore.Hbond.Weighted>
-10.6656

> <Gold.Chemscore.Metal.Weighted>
-0.0000

> <Gold.Chemscore.Lipo.Weighted>
-10.9374

> <Gold.Chemscore.Internal_Hbond.Weighted>
0.0000

> <Gold.Chemscore.DEClash.Weighted>
0.0400

> <Gold.Chemscore.DEInternal.Weighted>
0.6231

> <Gold.Chemscore.Rot.Weighted>
5.5801

> <Gold.Chemscore.Internal.Correction.Weighted>
   9.000000E+99

> <Gold.Protein.RotatedTorsions>
[ 6907 6896 6895 6894 ] final  -54.89 input  -60.11 | X-H torsion
[ 7974 7965 7964 7962 ] final  146.87 input  175.53 | X-H torsion
[ 8008 7997 7996 7995 ] final   74.74 input   59.86 | X-H torsion
[ 10167 10162 10161 10158 ] final -176.67 input  -65.29 | X-H torsion
[ 10718 10713 10712 10709 ] final  117.20 input   66.30 | X-H torsion
[ 10763 10752 10751 10750 ] final  -58.52 input  -60.55 | X-H torsion
[ 11005 11000 10999 10996 ] final   78.24 input  -57.11 | X-H torsion

> <Gold.Protein.ActiveResidues>
 VAL166  LYS551  ARG553  GLY616  TRP617  ASP618  TYR619  PRO620  LYS621  CYS622 
 ASP623  PHE694  ASN695  SER759  ASP760  ASP761  ALA762  ILE779  LEU786  VAL792 
 PHE793  MET794  SER795  GLU796  ALA797  LYS798  CYS799  TRP800  GLU811  SER814 

> <Gold.Protein.RotatedAtoms>
  150.8299  134.7547  159.6844 H   0  0  0  0  0  0  0  0  0  0  0  0  # atno 6907 bound_to 6896
  152.4405  134.5598  159.9900 H   0  0  0  0  0  0  0  0  0  0  0  0  # atno 6908 bound_to 6896
  151.5761  133.3346  159.3035 H   0  0  0  0  0  0  0  0  0  0  0  0  # atno 6909 bound_to 6896
  144.8637  139.5958  143.5919 H   0  0  0  0  0  0  0  0  0  0  0  0  # atno 7974 bound_to 7965
  155.8028  140.3476  155.5412 H   0  0  0  0  0  0  0  0  0  0  0  0  # atno 8008 bound_to 7997
  155.8520  140.0958  157.1689 H   0  0  0  0  0  0  0  0  0  0  0  0  # atno 8009 bound_to 7997
  154.4008  140.1374  156.3844 H   0  0  0  0  0  0  0  0  0  0  0  0  # atno 8010 bound_to 7997
  139.5518  144.2090  152.1090 H   0  0  0  0  0  0  0  0  0  0  0  0  # atno 10167 bound_to 10162
  157.6112  131.1034  150.7581 H   0  0  0  0  0  0  0  0  0  0  0  0  # atno 10718 bound_to 10713
  154.2395  135.6346  153.5202 H   0  0  0  0  0  0  0  0  0  0  0  0  # atno 10763 bound_to 10752
  152.9933  135.5538  154.5926 H   0  0  0  0  0  0  0  0  0  0  0  0  # atno 10764 bound_to 10752
  154.5428  135.2896  155.1054 H   0  0  0  0  0  0  0  0  0  0  0  0  # atno 10765 bound_to 10752
  139.9221  134.7748  156.1624 H   0  0  0  0  0  0  0  0  0  0  0  0  # atno 11005 bound_to 11000
  146.2879  139.7057  142.9182 LP  0  0  0  0  0  0  0  0  0  0  0  0  # atno 17320 bound_to 7965
  145.4263  141.0411  143.2935 LP  0  0  0  0  0  0  0  0  0  0  0  0  # atno 17321 bound_to 7965
  140.1587  144.5046  150.6645 LP  0  0  0  0  0  0  0  0  0  0  0  0  # atno 17342 bound_to 10162
  140.6782  143.2314  151.5453 LP  0  0  0  0  0  0  0  0  0  0  0  0  # atno 17343 bound_to 10162
  156.7958  130.4905  149.5377 LP  0  0  0  0  0  0  0  0  0  0  0  0  # atno 17370 bound_to 10713
  156.1215  130.6113  151.0201 LP  0  0  0  0  0  0  0  0  0  0  0  0  # atno 17371 bound_to 10713
  141.0750  133.6780  156.2217 LP  0  0  0  0  0  0  0  0  0  0  0  0  # atno 17394 bound_to 11000
  140.6444  134.5132  157.5572 LP  0  0  0  0  0  0  0  0  0  0  0  0  # atno 17395 bound_to 11000

$$$$
