AV-unprocessed.smi:3287|AV-procd|sdf|12594|dock3
  -GOLD-   2272018513D 1   1.00000     0.00000
 Structure written by MMmdl.
 43 44  0  0  0  0  0  0  0  0  2 V2000
  153.4813  142.0849  160.4236 C   0  0  0  0  0  0  0  0  0  0  0  0
  152.1984  142.2464  159.5889 C   0  0  2  0  0  0  0  0  0  0  0  0
  151.8951  140.9331  158.8398 C   0  0  0  0  0  0  0  0  0  0  0  0
  150.6179  141.0342  157.9959 C   0  0  0  0  0  0  0  0  0  0  0  0
  150.7110  142.1912  156.9897 C   0  0  1  0  0  0  0  0  0  0  0  0
  149.4670  142.2607  156.1913 N   0  3  0  0  0  0  0  0  0  0  0  0
  149.2834  141.1694  155.2099 C   0  0  0  0  0  0  0  0  0  0  0  0
  148.3557  141.5960  154.0590 C   0  0  1  0  0  0  0  0  0  0  0  0
  148.1835  140.5007  153.1807 O   0  0  0  0  0  0  0  0  0  0  0  0
  147.0262  142.1087  154.5909 C   0  0  0  0  0  0  0  0  0  0  0  0
  146.5234  141.6823  155.8396 C   0  0  0  0  0  0  0  0  0  0  0  0
  145.2898  142.2002  156.2822 C   0  0  0  0  0  0  0  0  0  0  0  0
  144.5622  143.0891  155.5729 N   0  0  0  0  0  0  0  0  0  0  0  0
  145.0486  143.4956  154.3810 C   0  0  0  0  0  0  0  0  0  0  0  0
  146.2705  143.0390  153.8473 C   0  0  0  0  0  0  0  0  0  0  0  0
  150.9875  143.5114  157.7367 C   0  0  0  0  0  0  0  0  0  0  0  0
  152.2663  143.4391  158.5984 C   0  0  1  0  0  0  0  0  0  0  0  0
  152.4975  144.7887  159.3017 C   0  0  0  0  0  0  0  0  0  0  0  0
  154.3591  141.9750  159.7861 H   0  0  0  0  0  0  0  0  0  0  0  0
  153.4242  141.2024  161.0616 H   0  0  0  0  0  0  0  0  0  0  0  0
  153.6474  142.9379  161.0807 H   0  0  0  0  0  0  0  0  0  0  0  0
  151.3762  142.4282  160.2828 H   0  0  0  0  0  0  0  0  0  0  0  0
  152.7356  140.6735  158.1945 H   0  0  0  0  0  0  0  0  0  0  0  0
  151.7916  140.1135  159.5521 H   0  0  0  0  0  0  0  0  0  0  0  0
  150.4533  140.0926  157.4708 H   0  0  0  0  0  0  0  0  0  0  0  0
  149.7586  141.1770  158.6531 H   0  0  0  0  0  0  0  0  0  0  0  0
  151.5399  141.9833  156.3110 H   0  0  0  0  0  0  0  0  0  0  0  0
  148.6896  142.2188  156.8345 H   0  0  0  0  0  0  0  0  0  0  0  0
  150.2485  140.8523  154.8144 H   0  0  0  0  0  0  0  0  0  0  0  0
  148.8499  140.3100  155.7237 H   0  0  0  0  0  0  0  0  0  0  0  0
  148.8309  142.3972  153.4910 H   0  0  0  0  0  0  0  0  0  0  0  0
  148.8481  140.5476  152.5096 H   0  0  0  0  0  0  0  0  0  0  0  0
  147.0670  140.9754  156.4490 H   0  0  0  0  0  0  0  0  0  0  0  0
  144.8779  141.8931  157.2320 H   0  0  0  0  0  0  0  0  0  0  0  0
  144.4467  144.2074  153.8358 H   0  0  0  0  0  0  0  0  0  0  0  0
  146.6141  143.3993  152.8889 H   0  0  0  0  0  0  0  0  0  0  0  0
  151.0874  144.3313  157.0253 H   0  0  0  0  0  0  0  0  0  0  0  0
  150.1344  143.7583  158.3709 H   0  0  0  0  0  0  0  0  0  0  0  0
  153.1089  143.2728  157.9252 H   0  0  0  0  0  0  0  0  0  0  0  0
  151.7238  144.9862  160.0444 H   0  0  0  0  0  0  0  0  0  0  0  0
  152.4856  145.6110  158.5858 H   0  0  0  0  0  0  0  0  0  0  0  0
  153.4632  144.8242  159.8050 H   0  0  0  0  0  0  0  0  0  0  0  0
  149.4325  143.1473  155.7082 H   0  0  0  0  0  0  0  0  0  0  0  0
  1  2  1  0  0  0  0
  1 19  1  0  0  0  0
  1 20  1  0  0  0  0
  1 21  1  0  0  0  0
  2 17  1  0  0  0  0
  2  3  1  0  0  0  0
  2 22  1  0  0  0  0
  3  4  1  0  0  0  0
  3 23  1  0  0  0  0
  3 24  1  0  0  0  0
  4  5  1  0  0  0  0
  4 25  1  0  0  0  0
  4 26  1  0  0  0  0
  5  6  1  0  0  0  0
  5 16  1  0  0  0  0
  5 27  1  0  0  0  0
  6  7  1  0  0  0  0
  6 28  1  0  0  0  0
  6 43  1  0  0  0  0
  7  8  1  0  0  0  0
  7 29  1  0  0  0  0
  7 30  1  0  0  0  0
  8  9  1  0  0  0  0
  8 10  1  0  0  0  0
  8 31  1  0  0  0  0
  9 32  1  0  0  0  0
 10 15  1  0  0  0  0
 10 11  2  0  0  0  0
 11 12  1  0  0  0  0
 11 33  1  0  0  0  0
 12 13  2  0  0  0  0
 12 34  1  0  0  0  0
 13 14  1  0  0  0  0
 14 15  2  0  0  0  0
 14 35  1  0  0  0  0
 15 36  1  0  0  0  0
 16 17  1  0  0  0  0
 16 37  1  0  0  0  0
 16 38  1  0  0  0  0
 17 18  1  0  0  0  0
 17 39  1  0  0  0  0
 18 40  1  0  0  0  0
 18 41  1  0  0  0  0
 18 42  1  0  0  0  0
M  CHG  1   6   1
M  END
> <s_m_source_file>
AV-unprocessed.smi

> <i_m_source_file_index>
3287

> <i_lp_mmshare_version>
43012

> <i_f3d_flags>
0

> <s_epik_input>
W0NIM11bQ0BASF0xW0NIMl1bQ0gyXVtDQEhdKFtDSDJdW0NASF0xW0NIM10pW05IXVtDSDJdW0NASF0oW09IXSljMltjSF1bY0hdbltjSF1bY0hdMg==

> <s_epik_cmdline>
J2VwaWtfcHl0aG9uJywgJy1waCcsICc3LjAnLCAnLXRuJywgJzgnLCAnLW1hJywgJzIwMCcsICctbWV0YWxfYmluZGluZycsICctaW1hZScsICc8aW5maWxlLm1hZT4nLCAnLW9tYWUnLCAnPG91dGZpbGUubWFlPic=

> <r_lp_tautomer_probability>
1

> <r_epik_Ionization_Penalty>
0.00537262

> <r_epik_Ionization_Penalty_Charging>
0.00321624

> <r_epik_Ionization_Penalty_Neutral>
0.00215638

> <r_epik_State_Penalty>
-0

> <r_epik_Charging_Adjusted_Penalty>
0.00321624

> <i_epik_Tot_Q>
1

> <i_epik_Tot_abs_Q>
1

> <r_epik_Metal_State_Penalty>
-0

> <b_epik_Metal_Only>
0

> <s_lp_Force_Field>
OPLS_2005

> <r_lp_Energy>
16.1009

> <b_lp_Chiralities_Consistent>
1

> <s_lp_Variant>
AV-unprocessed.smi:3287-5

> <Gold.Version>
5.8.1

> <Gold.Id.Protein>
6NUR|6NUR_protein|mol2

> <Gold.PLP.Fitness>
50.1546

> <Gold.PLP.PLP>
-43.0363

> <Gold.PLP.part.hbond>
-1.9805

> <Gold.PLP.part.metal>
0.0000

> <Gold.PLP.part.buried>
-5.3823

> <Gold.PLP.part.nonpolar>
-36.7514

> <Gold.PLP.part.repulsive>
0.2226

> <Gold.PLP.ligand.clash>
0.0000

> <Gold.PLP.ligand.torsion>
0.9255

> <Gold.PLP.Chemscore.Hbond>
2.9840

> <Gold.PLP.Chemscore.CHOScore>
0.0000

> <Gold.PLP.Chemscore.Metal>
0.0000

> <Gold.Chemscore.Hbonds>
donor molecule, donor type, donor heavy atom, donor atom, acceptor molecule, acceptor atom, score
      L1  H     6    43       P1  8028  1.95
      L1  H     9    32       P1  7957  1.00

> <Gold.PLP.Chemscore.Internal.Correction>
0.0172

> <Gold.Rescore>
     Score         DG    S(hbond)    S(metal)    S(lipo)     H(rot)  DE(clash)    DE(int)     intcor
     19.42     -20.44       1.84        0.00     117.13       1.90       0.08       0.94       ----

> <Gold.Chemscore.Fitness>
19.4235

> <Gold.Chemscore.DG>
-20.4430

> <Gold.Chemscore.ZeroCoef>
-5.4800

> <Gold.Chemscore.Hbond>
1.8359

> <Gold.Chemscore.Metal>
0.0000

> <Gold.Chemscore.Lipo>
117.1286

> <Gold.Chemscore.Internal_Hbond>
0.0000

> <Gold.Chemscore.DEClash>
0.0768

> <Gold.Chemscore.DEInternal>
0.9428

> <Gold.Chemscore.Rot>
1.9035

> <Gold.Chemscore.Internal.Correction>
   9.000000E+99

> <Gold.Chemscore.Hbonds>
donor molecule, donor type, donor heavy atom, donor atom, acceptor molecule, acceptor atom, score
      L1  H     6    43       P1  8028  0.93
      L1  H     9    32       P1  7957  0.97

> <Gold.Chemscore.Hbond.Weighted>
-6.1319

> <Gold.Chemscore.Metal.Weighted>
-0.0000

> <Gold.Chemscore.Lipo.Weighted>
-13.7040

> <Gold.Chemscore.Internal_Hbond.Weighted>
0.0000

> <Gold.Chemscore.DEClash.Weighted>
0.0768

> <Gold.Chemscore.DEInternal.Weighted>
0.9428

> <Gold.Chemscore.Rot.Weighted>
4.8729

> <Gold.Chemscore.Internal.Correction.Weighted>
   9.000000E+99

> <Gold.Protein.RotatedTorsions>
[ 6907 6896 6895 6894 ] final  108.12 input  -60.11 | X-H torsion
[ 7974 7965 7964 7962 ] final  -24.83 input  175.53 | X-H torsion
[ 8008 7997 7996 7995 ] final  -40.82 input   59.86 | X-H torsion
[ 10167 10162 10161 10158 ] final  145.94 input  -65.29 | X-H torsion
[ 10718 10713 10712 10709 ] final  161.26 input   66.30 | X-H torsion
[ 10763 10752 10751 10750 ] final  -33.80 input  -60.55 | X-H torsion
[ 11005 11000 10999 10996 ] final  175.95 input  -57.11 | X-H torsion

> <Gold.Protein.ActiveResidues>
 VAL166  LYS551  ARG553  GLY616  TRP617  ASP618  TYR619  PRO620  LYS621  CYS622 
 ASP623  PHE694  ASN695  SER759  ASP760  ASP761  ALA762  ILE779  LEU786  VAL792 
 PHE793  MET794  SER795  GLU796  ALA797  LYS798  CYS799  TRP800  GLU811  SER814 

> <Gold.Protein.RotatedAtoms>
  152.5126  133.9135  159.7499 H   0  0  0  0  0  0  0  0  0  0  0  0  # atno 6907 bound_to 6896
  150.9523  133.6527  159.2776 H   0  0  0  0  0  0  0  0  0  0  0  0  # atno 6908 bound_to 6896
  151.3801  135.0943  159.9546 H   0  0  0  0  0  0  0  0  0  0  0  0  # atno 6909 bound_to 6896
  146.1530  140.4805  142.8603 H   0  0  0  0  0  0  0  0  0  0  0  0  # atno 7974 bound_to 7965
  154.4009  140.1515  156.3090 H   0  0  0  0  0  0  0  0  0  0  0  0  # atno 8008 bound_to 7997
  155.8633  140.3452  155.5749 H   0  0  0  0  0  0  0  0  0  0  0  0  # atno 8009 bound_to 7997
  155.7856  140.0849  157.2026 H   0  0  0  0  0  0  0  0  0  0  0  0  # atno 8010 bound_to 7997
  139.4916  144.5865  151.6767 H   0  0  0  0  0  0  0  0  0  0  0  0  # atno 10167 bound_to 10162
  157.1390  131.0536  151.2335 H   0  0  0  0  0  0  0  0  0  0  0  0  # atno 10718 bound_to 10713
  153.8362  135.6861  153.4808 H   0  0  0  0  0  0  0  0  0  0  0  0  # atno 10763 bound_to 10752
  153.1481  135.4629  154.9594 H   0  0  0  0  0  0  0  0  0  0  0  0  # atno 10764 bound_to 10752
  154.7865  135.3286  154.7821 H   0  0  0  0  0  0  0  0  0  0  0  0  # atno 10765 bound_to 10752
  140.3678  134.7057  157.4373 H   0  0  0  0  0  0  0  0  0  0  0  0  # atno 11005 bound_to 11000
  144.7927  140.6063  143.6530 LP  0  0  0  0  0  0  0  0  0  0  0  0  # atno 17320 bound_to 7965
  145.4778  139.1498  143.3779 LP  0  0  0  0  0  0  0  0  0  0  0  0  # atno 17321 bound_to 7965
  140.5482  144.0468  150.6116 LP  0  0  0  0  0  0  0  0  0  0  0  0  # atno 17342 bound_to 10162
  140.3513  143.2961  152.0484 LP  0  0  0  0  0  0  0  0  0  0  0  0  # atno 17343 bound_to 10162
  157.4324  130.7498  149.7001 LP  0  0  0  0  0  0  0  0  0  0  0  0  # atno 17370 bound_to 10713
  155.9792  130.4042  150.3600 LP  0  0  0  0  0  0  0  0  0  0  0  0  # atno 17371 bound_to 10713
  140.0576  134.6042  155.8787 LP  0  0  0  0  0  0  0  0  0  0  0  0  # atno 17394 bound_to 11000
  141.1964  133.6591  156.5690 LP  0  0  0  0  0  0  0  0  0  0  0  0  # atno 17395 bound_to 11000

$$$$
