AV-unprocessed.smi:633|AV-procd|sdf|3131|dock10
  -GOLD-   22720 0 53D 1   1.00000     0.00000
 Structure written by MMmdl.
 53 56  0  0  0  0  0  0  0  0  1 V2000
  151.3770  144.9808  158.3129 C   0  0  0  0  0  0  0  0  0  0  0  0
  151.9256  143.5697  158.0776 C   0  0  2  0  0  0  0  0  0  0  0  0
  150.8570  142.6206  157.5032 C   0  0  0  0  0  0  0  0  0  0  0  0
  151.3849  141.2620  157.3986 N   0  0  0  0  0  0  0  0  0  0  0  0
  150.6370  140.3150  156.6665 C   0  0  0  0  0  0  0  0  0  0  0  0
  149.8485  139.3575  157.3456 C   0  0  0  0  0  0  0  0  0  0  0  0
  149.1019  138.4241  156.6018 C   0  0  0  0  0  0  0  0  0  0  0  0
  149.1556  138.4719  155.1886 C   0  0  0  0  0  0  0  0  0  0  0  0
  148.4580  137.5903  154.3162 N   0  0  0  0  0  0  0  0  0  0  0  0
  147.3228  136.9018  154.5293 C   0  0  0  0  0  0  0  0  0  0  0  0
  146.6550  136.9256  155.5622 O   0  0  0  0  0  0  0  0  0  0  0  0
  146.9926  136.1733  153.4531 N   0  0  0  0  0  0  0  0  0  0  0  0
  145.8320  135.2946  153.3449 C   0  0  0  0  0  0  0  0  0  0  0  0
  146.2204  133.8670  152.9978 C   0  0  0  0  0  0  0  0  0  0  0  0
  147.6473  133.3865  153.1217 C   0  0  0  0  0  0  0  0  0  0  0  0
  147.0201  133.5507  151.7560 C   0  0  0  0  0  0  0  0  0  0  0  0
  144.8188  135.8258  152.3476 C   0  0  0  0  0  0  0  0  0  0  0  0
  143.9079  134.8895  151.5906 C   0  0  0  0  0  0  0  0  0  0  0  0
  145.0026  135.6353  150.8605 C   0  0  0  0  0  0  0  0  0  0  0  0
  149.9816  139.4528  154.6037 C   0  0  0  0  0  0  0  0  0  0  0  0
  150.7011  140.3476  155.3130 N   0  0  0  0  0  0  0  0  0  0  0  0
  151.9638  140.7712  158.6462 C   0  0  0  0  0  0  0  0  0  0  0  0
  152.9966  141.7749  159.1934 C   0  0  2  0  0  0  0  0  0  0  0  0
  153.5333  141.3571  160.5666 C   0  0  0  0  0  0  0  0  0  0  0  0
  152.3848  143.0552  159.3245 O   0  0  0  0  0  0  0  0  0  0  0  0
  151.0219  145.4239  157.3823 H   0  0  0  0  0  0  0  0  0  0  0  0
  152.1481  145.6355  158.7197 H   0  0  0  0  0  0  0  0  0  0  0  0
  150.5449  144.9681  159.0174 H   0  0  0  0  0  0  0  0  0  0  0  0
  152.7677  143.6368  157.3861 H   0  0  0  0  0  0  0  0  0  0  0  0
  149.9742  142.6151  158.1444 H   0  0  0  0  0  0  0  0  0  0  0  0
  150.5449  142.9776  156.5208 H   0  0  0  0  0  0  0  0  0  0  0  0
  149.8199  139.3182  158.4244 H   0  0  0  0  0  0  0  0  0  0  0  0
  148.5182  137.6930  157.1371 H   0  0  0  0  0  0  0  0  0  0  0  0
  148.8631  137.4919  153.3967 H   0  0  0  0  0  0  0  0  0  0  0  0
  147.5984  136.2199  152.6470 H   0  0  0  0  0  0  0  0  0  0  0  0
  145.3293  135.2682  154.3140 H   0  0  0  0  0  0  0  0  0  0  0  0
  145.4579  133.1368  153.2636 H   0  0  0  0  0  0  0  0  0  0  0  0
  148.4083  134.1090  153.4092 H   0  0  0  0  0  0  0  0  0  0  0  0
  147.8057  132.3731  153.4846 H   0  0  0  0  0  0  0  0  0  0  0  0
  146.7587  132.6478  151.2081 H   0  0  0  0  0  0  0  0  0  0  0  0
  147.3628  134.3835  151.1451 H   0  0  0  0  0  0  0  0  0  0  0  0
  144.3740  136.7734  152.6463 H   0  0  0  0  0  0  0  0  0  0  0  0
  144.0426  133.8203  151.7419 H   0  0  0  0  0  0  0  0  0  0  0  0
  142.8818  135.2117  151.4263 H   0  0  0  0  0  0  0  0  0  0  0  0
  144.7058  136.4545  150.2090 H   0  0  0  0  0  0  0  0  0  0  0  0
  145.8593  135.0567  150.5208 H   0  0  0  0  0  0  0  0  0  0  0  0
  150.0679  139.5270  153.5292 H   0  0  0  0  0  0  0  0  0  0  0  0
  151.1604  140.6262  159.3698 H   0  0  0  0  0  0  0  0  0  0  0  0
  152.4451  139.8035  158.5109 H   0  0  0  0  0  0  0  0  0  0  0  0
  153.8374  141.8495  158.5015 H   0  0  0  0  0  0  0  0  0  0  0  0
  154.0243  140.3849  160.5173 H   0  0  0  0  0  0  0  0  0  0  0  0
  152.7295  141.2899  161.3003 H   0  0  0  0  0  0  0  0  0  0  0  0
  154.2617  142.0793  160.9359 H   0  0  0  0  0  0  0  0  0  0  0  0
  1  2  1  0  0  0  0
  1 26  1  0  0  0  0
  1 27  1  0  0  0  0
  1 28  1  0  0  0  0
  2 25  1  0  0  0  0
  2  3  1  0  0  0  0
  2 29  1  0  0  0  0
  3  4  1  0  0  0  0
  3 30  1  0  0  0  0
  3 31  1  0  0  0  0
  4  5  1  0  0  0  0
  4 22  1  0  0  0  0
  5 21  1  0  0  0  0
  5  6  2  0  0  0  0
  6  7  1  0  0  0  0
  6 32  1  0  0  0  0
  7  8  2  0  0  0  0
  7 33  1  0  0  0  0
  8  9  1  0  0  0  0
  8 20  1  0  0  0  0
  9 10  1  0  0  0  0
  9 34  1  0  0  0  0
 10 11  2  0  0  0  0
 10 12  1  0  0  0  0
 12 13  1  0  0  0  0
 12 35  1  0  0  0  0
 13 14  1  0  0  0  0
 13 17  1  0  0  0  0
 13 36  1  0  0  0  0
 14 16  1  0  0  0  0
 14 15  1  0  0  0  0
 14 37  1  0  0  0  0
 15 16  1  0  0  0  0
 15 38  1  0  0  0  0
 15 39  1  0  0  0  0
 16 40  1  0  0  0  0
 16 41  1  0  0  0  0
 17 19  1  0  0  0  0
 17 18  1  0  0  0  0
 17 42  1  0  0  0  0
 18 19  1  0  0  0  0
 18 43  1  0  0  0  0
 18 44  1  0  0  0  0
 19 45  1  0  0  0  0
 19 46  1  0  0  0  0
 20 21  2  0  0  0  0
 20 47  1  0  0  0  0
 22 23  1  0  0  0  0
 22 48  1  0  0  0  0
 22 49  1  0  0  0  0
 23 24  1  0  0  0  0
 23 25  1  0  0  0  0
 23 50  1  0  0  0  0
 24 51  1  0  0  0  0
 24 52  1  0  0  0  0
 24 53  1  0  0  0  0
M  END
> <s_m_source_file>
AV-unprocessed.smi

> <i_m_source_file_index>
633

> <i_lp_mmshare_version>
43012

> <i_f3d_flags>
0

> <s_epik_input>
W0NIM11bQ0BASF0xW0NIMl1OKFtDSDJdW0NASF0oTzEpW0NIM10pYzJbY0hdW2NIXWMoW2NIXW4yKVtOSF1DKD1PKVtOSF1bQ0hdKFtDSF0zW0NIMl1bQ0gyXTMpW0NIXTRbQ0gyXVtDSDJdNA==

> <s_epik_cmdline>
J2VwaWtfcHl0aG9uJywgJy1waCcsICc3LjAnLCAnLXRuJywgJzgnLCAnLW1hJywgJzIwMCcsICctbWV0YWxfYmluZGluZycsICctaW1hZScsICc8aW5maWxlLm1hZT4nLCAnLW9tYWUnLCAnPG91dGZpbGUubWFlPic=

> <r_lp_tautomer_probability>
1

> <r_epik_Ionization_Penalty>
0.00291159

> <r_epik_Ionization_Penalty_Charging>
0

> <r_epik_Ionization_Penalty_Neutral>
0.00291159

> <r_epik_State_Penalty>
0.00200877

> <r_epik_Charging_Adjusted_Penalty>
0.00200877

> <i_epik_Tot_Q>
0

> <i_epik_Tot_abs_Q>
0

> <r_epik_Metal_State_Penalty>
-0

> <b_epik_Metal_Only>
0

> <s_lp_Force_Field>
OPLS_2005

> <r_lp_Energy>
40.0006

> <b_lp_Chiralities_Consistent>
1

> <s_lp_Variant>
AV-unprocessed.smi:633-2

> <Gold.Version>
5.8.1

> <Gold.Id.Protein>
6NUR|6NUR_protein|mol2

> <Gold.PLP.Fitness>
49.3031

> <Gold.PLP.PLP>
-41.0866

> <Gold.PLP.part.hbond>
-2.8818

> <Gold.PLP.part.metal>
0.0000

> <Gold.PLP.part.buried>
-6.8243

> <Gold.PLP.part.nonpolar>
-32.0186

> <Gold.PLP.part.repulsive>
0.0962

> <Gold.PLP.ligand.clash>
0.0000

> <Gold.PLP.ligand.torsion>
1.9184

> <Gold.PLP.Chemscore.Hbond>
2.2055

> <Gold.PLP.Chemscore.CHOScore>
1.0000

> <Gold.PLP.Chemscore.Metal>
0.0000

> <Gold.Chemscore.Hbonds>
donor molecule, donor type, donor heavy atom, donor atom, acceptor molecule, acceptor atom, score
      L1  H     9    34       P1  7948  0.85
      L1  H    12    35       P1  7948  1.00
      P1  H  7989  7998       L1    21  0.28
      L1  C    20    47       P1  7957  1.00

> <Gold.PLP.Chemscore.Internal.Correction>
2.4369

> <Gold.Rescore>
     Score         DG    S(hbond)    S(metal)    S(lipo)     H(rot)  DE(clash)    DE(int)     intcor
     18.38     -20.76       1.94        0.00     105.88       1.40       0.37       2.02       ----

> <Gold.Chemscore.Fitness>
18.3781

> <Gold.Chemscore.DG>
-20.7642

> <Gold.Chemscore.ZeroCoef>
-5.4800

> <Gold.Chemscore.Hbond>
1.9417

> <Gold.Chemscore.Metal>
0.0000

> <Gold.Chemscore.Lipo>
105.8842

> <Gold.Chemscore.Internal_Hbond>
0.0000

> <Gold.Chemscore.DEClash>
0.3669

> <Gold.Chemscore.DEInternal>
2.0192

> <Gold.Chemscore.Rot>
1.4022

> <Gold.Chemscore.Internal.Correction>
   9.000000E+99

> <Gold.Chemscore.Hbonds>
donor molecule, donor type, donor heavy atom, donor atom, acceptor molecule, acceptor atom, score
      L1  H     9    34       P1  7948  0.83
      L1  H    12    35       P1  7948  0.95
      P1  H  7989  7998       L1    21  0.01

> <Gold.Chemscore.Hbond.Weighted>
-6.4854

> <Gold.Chemscore.Metal.Weighted>
-0.0000

> <Gold.Chemscore.Lipo.Weighted>
-12.3885

> <Gold.Chemscore.Internal_Hbond.Weighted>
0.0000

> <Gold.Chemscore.DEClash.Weighted>
0.3669

> <Gold.Chemscore.DEInternal.Weighted>
2.0192

> <Gold.Chemscore.Rot.Weighted>
3.5897

> <Gold.Chemscore.Internal.Correction.Weighted>
   9.000000E+99

> <Gold.Protein.RotatedTorsions>
[ 6907 6896 6895 6894 ] final  113.08 input  -60.11 | X-H torsion
[ 7974 7965 7964 7962 ] final  160.76 input  175.53 | X-H torsion
[ 8008 7997 7996 7995 ] final   11.52 input   59.86 | X-H torsion
[ 10167 10162 10161 10158 ] final  107.61 input  -65.29 | X-H torsion
[ 10718 10713 10712 10709 ] final   49.63 input   66.30 | X-H torsion
[ 10763 10752 10751 10750 ] final -174.01 input  -60.55 | X-H torsion
[ 11005 11000 10999 10996 ] final -168.99 input  -57.11 | X-H torsion

> <Gold.Protein.ActiveResidues>
 VAL166  LYS551  ARG553  GLY616  TRP617  ASP618  TYR619  PRO620  LYS621  CYS622 
 ASP623  PHE694  ASN695  SER759  ASP760  ASP761  ALA762  ILE779  LEU786  VAL792 
 PHE793  MET794  SER795  GLU796  ALA797  LYS798  CYS799  TRP800  GLU811  SER814 

> <Gold.Protein.RotatedAtoms>
  152.4881  133.8426  159.7160 H   0  0  0  0  0  0  0  0  0  0  0  0  # atno 6907 bound_to 6896
  150.8985  133.7140  159.2892 H   0  0  0  0  0  0  0  0  0  0  0  0  # atno 6908 bound_to 6896
  151.4589  135.1040  159.9771 H   0  0  0  0  0  0  0  0  0  0  0  0  # atno 6909 bound_to 6896
  144.7720  139.7802  143.6293 H   0  0  0  0  0  0  0  0  0  0  0  0  # atno 7974 bound_to 7965
  154.8080  140.2863  155.5873 H   0  0  0  0  0  0  0  0  0  0  0  0  # atno 8008 bound_to 7997
  156.2985  140.2574  156.2892 H   0  0  0  0  0  0  0  0  0  0  0  0  # atno 8009 bound_to 7997
  154.9481  140.0380  157.2119 H   0  0  0  0  0  0  0  0  0  0  0  0  # atno 8010 bound_to 7997
  139.6913  144.7107  151.1344 H   0  0  0  0  0  0  0  0  0  0  0  0  # atno 10167 bound_to 10162
  157.4806  130.8312  149.8088 H   0  0  0  0  0  0  0  0  0  0  0  0  # atno 10718 bound_to 10713
  154.6012  135.2854  155.0533 H   0  0  0  0  0  0  0  0  0  0  0  0  # atno 10763 bound_to 10752
  154.1797  135.6458  153.5035 H   0  0  0  0  0  0  0  0  0  0  0  0  # atno 10764 bound_to 10752
  153.0157  135.5421  154.6732 H   0  0  0  0  0  0  0  0  0  0  0  0  # atno 10765 bound_to 10752
  140.5357  134.5572  157.5087 H   0  0  0  0  0  0  0  0  0  0  0  0  # atno 11005 bound_to 11000
  146.1874  139.5096  142.9827 LP  0  0  0  0  0  0  0  0  0  0  0  0  # atno 17320 bound_to 7965
  145.6295  141.0307  143.1871 LP  0  0  0  0  0  0  0  0  0  0  0  0  # atno 17321 bound_to 7965
  140.7683  143.5555  150.9156 LP  0  0  0  0  0  0  0  0  0  0  0  0  # atno 17342 bound_to 10162
  139.9233  143.6580  152.3092 LP  0  0  0  0  0  0  0  0  0  0  0  0  # atno 17343 bound_to 10162
  156.0119  130.3829  150.2235 LP  0  0  0  0  0  0  0  0  0  0  0  0  # atno 17370 bound_to 10713
  157.0421  131.0038  151.3280 LP  0  0  0  0  0  0  0  0  0  0  0  0  # atno 17371 bound_to 10713
  139.9530  134.7583  156.0405 LP  0  0  0  0  0  0  0  0  0  0  0  0  # atno 17394 bound_to 11000
  141.1256  133.6600  156.3327 LP  0  0  0  0  0  0  0  0  0  0  0  0  # atno 17395 bound_to 11000

$$$$
