AV-unprocessed.smi:1361|AV-procd|sdf|5556|dock9
  -GOLD-   22720 5153D 1   1.00000     0.00000
 Structure written by MMmdl.
 46 47  0  0  0  0  0  0  0  0  1 V2000
  146.6645  138.5083  151.7545 C   0  0  0  0  0  0  0  0  0  0  0  0
  147.0320  139.1929  153.0531 C   0  0  0  0  0  0  0  0  0  0  0  0
  146.7403  140.5468  153.0706 N   0  0  0  0  0  0  0  0  0  0  0  0
  147.0297  141.2567  154.2226 C   0  0  0  0  0  0  0  0  0  0  0  0
  146.6668  142.7305  154.1621 C   0  0  0  0  0  0  0  0  0  0  0  0
  147.5902  140.6497  155.2995 C   0  0  0  0  0  0  0  0  0  0  0  0
  147.9154  141.3948  156.5922 C   0  0  0  0  0  0  0  0  0  0  0  0
  149.3842  141.3596  157.0169 C   0  0  0  0  0  0  0  0  0  0  0  0
  149.9397  140.2806  157.2211 O   0  0  0  0  0  0  0  0  0  0  0  0
  149.9984  142.5462  157.1437 N   0  0  0  0  0  0  0  0  0  0  0  0
  151.3889  142.7500  157.5437 C   0  0  0  0  0  0  0  0  0  0  0  0
  151.7108  141.8648  158.7687 C   0  0  0  0  0  0  0  0  0  0  0  0
  153.0602  142.1671  159.4464 C   0  0  0  0  0  0  0  0  0  0  0  0
  152.9475  142.7320  160.8746 C   0  0  0  0  0  0  0  0  0  0  0  0
  151.8906  143.8303  161.1158 C   0  0  0  0  0  0  0  0  0  0  0  0
  151.9417  145.0463  160.1739 C   0  0  0  0  0  0  0  0  0  0  0  0
  151.0332  144.9563  158.9284 C   0  0  0  0  0  0  0  0  0  0  0  0
  151.6629  144.2639  157.7048 C   0  0  0  0  0  0  0  0  0  0  0  0
  147.8955  139.2017  155.2144 C   0  0  0  0  0  0  0  0  0  0  0  0
  148.4223  138.5979  156.1479 O   0  0  0  0  0  0  0  0  0  0  0  0
  147.5698  138.5251  154.0278 N   0  0  0  0  0  0  0  0  0  0  0  0
  146.3219  141.0366  152.2929 H   0  0  0  0  0  0  0  0  0  0  0  0
  146.7743  137.4264  151.8397 H   0  0  0  0  0  0  0  0  0  0  0  0
  147.3114  138.8548  150.9483 H   0  0  0  0  0  0  0  0  0  0  0  0
  145.6296  138.7248  151.4874 H   0  0  0  0  0  0  0  0  0  0  0  0
  145.9457  142.9799  154.9407 H   0  0  0  0  0  0  0  0  0  0  0  0
  146.2246  142.9960  153.2011 H   0  0  0  0  0  0  0  0  0  0  0  0
  147.5545  143.3475  154.3016 H   0  0  0  0  0  0  0  0  0  0  0  0
  147.3146  141.0149  157.4190 H   0  0  0  0  0  0  0  0  0  0  0  0
  147.5979  142.4322  156.4808 H   0  0  0  0  0  0  0  0  0  0  0  0
  149.4585  143.3774  156.9520 H   0  0  0  0  0  0  0  0  0  0  0  0
  152.0286  142.4186  156.7233 H   0  0  0  0  0  0  0  0  0  0  0  0
  150.8966  141.9078  159.4911 H   0  0  0  0  0  0  0  0  0  0  0  0
  151.7207  140.8251  158.4388 H   0  0  0  0  0  0  0  0  0  0  0  0
  153.6397  141.2446  159.4973 H   0  0  0  0  0  0  0  0  0  0  0  0
  153.6671  142.8312  158.8335 H   0  0  0  0  0  0  0  0  0  0  0  0
  152.7319  141.9083  161.5563 H   0  0  0  0  0  0  0  0  0  0  0  0
  153.9269  143.1075  161.1731 H   0  0  0  0  0  0  0  0  0  0  0  0
  150.8856  143.4085  161.1257 H   0  0  0  0  0  0  0  0  0  0  0  0
  152.0427  144.1911  162.1337 H   0  0  0  0  0  0  0  0  0  0  0  0
  151.5943  145.9042  160.7511 H   0  0  0  0  0  0  0  0  0  0  0  0
  152.9697  145.2860  159.9001 H   0  0  0  0  0  0  0  0  0  0  0  0
  150.0648  144.5202  159.1757 H   0  0  0  0  0  0  0  0  0  0  0  0
  150.8136  145.9819  158.6290 H   0  0  0  0  0  0  0  0  0  0  0  0
  152.7336  144.4657  157.6802 H   0  0  0  0  0  0  0  0  0  0  0  0
  151.2830  144.7580  156.8091 H   0  0  0  0  0  0  0  0  0  0  0  0
  1 23  1  0  0  0  0
  1 24  1  0  0  0  0
  1 25  1  0  0  0  0
  1  2  1  0  0  0  0
  2  3  1  0  0  0  0
  2 21  2  0  0  0  0
  3  4  1  0  0  0  0
  3 22  1  0  0  0  0
  4  6  2  0  0  0  0
  4  5  1  0  0  0  0
  5 26  1  0  0  0  0
  5 27  1  0  0  0  0
  5 28  1  0  0  0  0
  6 19  1  0  0  0  0
  6  7  1  0  0  0  0
  7  8  1  0  0  0  0
  7 29  1  0  0  0  0
  7 30  1  0  0  0  0
  8  9  2  0  0  0  0
  8 10  1  0  0  0  0
 10 11  1  0  0  0  0
 10 31  1  0  0  0  0
 11 18  1  0  0  0  0
 11 12  1  0  0  0  0
 11 32  1  0  0  0  0
 12 13  1  0  0  0  0
 12 33  1  0  0  0  0
 12 34  1  0  0  0  0
 13 14  1  0  0  0  0
 13 35  1  0  0  0  0
 13 36  1  0  0  0  0
 14 15  1  0  0  0  0
 14 37  1  0  0  0  0
 14 38  1  0  0  0  0
 15 16  1  0  0  0  0
 15 39  1  0  0  0  0
 15 40  1  0  0  0  0
 16 17  1  0  0  0  0
 16 41  1  0  0  0  0
 16 42  1  0  0  0  0
 17 18  1  0  0  0  0
 17 43  1  0  0  0  0
 17 44  1  0  0  0  0
 18 45  1  0  0  0  0
 18 46  1  0  0  0  0
 19 20  2  0  0  0  0
 19 21  1  0  0  0  0
M  END
> <s_m_source_file>
AV-unprocessed.smi

> <i_m_source_file_index>
1361

> <i_lp_mmshare_version>
43012

> <i_f3d_flags>
0

> <s_epik_input>
W0NIM11jMW5jKFtDSDNdKWMoYyg9TylbbkhdMSlbQ0gyXUMoPU8pW05IXVtDSF0yW0NIMl1bQ0gyXVtDSDJdW0NIMl1bQ0gyXVtDSDJdW0NIMl0y

> <s_epik_cmdline>
J2VwaWtfcHl0aG9uJywgJy1waCcsICc3LjAnLCAnLXRuJywgJzgnLCAnLW1hJywgJzIwMCcsICctbWV0YWxfYmluZGluZycsICctaW1hZScsICc8aW5maWxlLm1hZT4nLCAnLW9tYWUnLCAnPG91dGZpbGUubWFlPic=

> <r_lp_tautomer_probability>
0.156392

> <r_epik_Ionization_Penalty>
0.0140222

> <r_epik_Ionization_Penalty_Charging>
0.0138986

> <r_epik_Ionization_Penalty_Neutral>
0.000123575

> <r_epik_State_Penalty>
1.53084

> <r_epik_Charging_Adjusted_Penalty>
1.54474

> <i_epik_Tot_Q>
0

> <i_epik_Tot_abs_Q>
0

> <r_epik_Metal_State_Penalty>
1.70646

> <b_epik_Metal_Only>
0

> <s_lp_Force_Field>
OPLS_2005

> <r_lp_Energy>
27.031

> <b_lp_Chiralities_Consistent>
1

> <s_lp_Variant>
AV-unprocessed.smi:1361-2

> <Gold.Version>
5.8.1

> <Gold.Id.Protein>
6NUR|6NUR_protein|mol2

> <Gold.PLP.Fitness>
49.4792

> <Gold.PLP.PLP>
-46.8169

> <Gold.PLP.part.hbond>
-1.6824

> <Gold.PLP.part.metal>
0.0000

> <Gold.PLP.part.buried>
-5.1812

> <Gold.PLP.part.nonpolar>
-40.3710

> <Gold.PLP.part.repulsive>
0.2340

> <Gold.PLP.ligand.clash>
0.0000

> <Gold.PLP.ligand.torsion>
0.1033

> <Gold.PLP.Chemscore.Hbond>
0.9440

> <Gold.PLP.Chemscore.CHOScore>
0.0000

> <Gold.PLP.Chemscore.Metal>
0.0000

> <Gold.Chemscore.Hbonds>
donor molecule, donor type, donor heavy atom, donor atom, acceptor molecule, acceptor atom, score
      L1  H    10    31       P1  8028  0.98

> <Gold.PLP.Chemscore.Internal.Correction>
0.0369

> <Gold.Rescore>
     Score         DG    S(hbond)    S(metal)    S(lipo)     H(rot)  DE(clash)    DE(int)     intcor
     16.25     -19.25       0.97        0.00     122.25       1.47       0.04       2.96       ----

> <Gold.Chemscore.Fitness>
16.2465

> <Gold.Chemscore.DG>
-19.2460

> <Gold.Chemscore.ZeroCoef>
-5.4800

> <Gold.Chemscore.Hbond>
0.9651

> <Gold.Chemscore.Metal>
0.0000

> <Gold.Chemscore.Lipo>
122.2502

> <Gold.Chemscore.Internal_Hbond>
0.0000

> <Gold.Chemscore.DEClash>
0.0423

> <Gold.Chemscore.DEInternal>
2.9572

> <Gold.Chemscore.Rot>
1.4690

> <Gold.Chemscore.Internal.Correction>
   9.000000E+99

> <Gold.Chemscore.Hbonds>
donor molecule, donor type, donor heavy atom, donor atom, acceptor molecule, acceptor atom, score
      L1  H    10    31       P1  8028  0.90

> <Gold.Chemscore.Hbond.Weighted>
-3.2234

> <Gold.Chemscore.Metal.Weighted>
-0.0000

> <Gold.Chemscore.Lipo.Weighted>
-14.3033

> <Gold.Chemscore.Internal_Hbond.Weighted>
0.0000

> <Gold.Chemscore.DEClash.Weighted>
0.0423

> <Gold.Chemscore.DEInternal.Weighted>
2.9572

> <Gold.Chemscore.Rot.Weighted>
3.7607

> <Gold.Chemscore.Internal.Correction.Weighted>
   9.000000E+99

> <Gold.Protein.RotatedTorsions>
[ 6907 6896 6895 6894 ] final -121.92 input  -60.11 | X-H torsion
[ 7974 7965 7964 7962 ] final  103.03 input  175.53 | X-H torsion
[ 8008 7997 7996 7995 ] final  113.30 input   59.86 | X-H torsion
[ 10167 10162 10161 10158 ] final   89.20 input  -65.29 | X-H torsion
[ 10718 10713 10712 10709 ] final   76.28 input   66.30 | X-H torsion
[ 10763 10752 10751 10750 ] final   14.44 input  -60.55 | X-H torsion
[ 11005 11000 10999 10996 ] final   22.32 input  -57.11 | X-H torsion

> <Gold.Protein.ActiveResidues>
 VAL166  LYS551  ARG553  GLY616  TRP617  ASP618  TYR619  PRO620  LYS621  CYS622 
 ASP623  PHE694  ASN695  SER759  ASP760  ASP761  ALA762  ILE779  LEU786  VAL792 
 PHE793  MET794  SER795  GLU796  ALA797  LYS798  CYS799  TRP800  GLU811  SER814 

> <Gold.Protein.RotatedAtoms>
  150.8528  133.7761  159.3019 H   0  0  0  0  0  0  0  0  0  0  0  0  # atno 6907 bound_to 6896
  151.5427  135.1066  159.9940 H   0  0  0  0  0  0  0  0  0  0  0  0  # atno 6908 bound_to 6896
  152.4566  133.7692  159.6846 H   0  0  0  0  0  0  0  0  0  0  0  0  # atno 6909 bound_to 6896
  145.3513  139.2439  143.3557 H   0  0  0  0  0  0  0  0  0  0  0  0  # atno 7974 bound_to 7965
  156.2249  140.2982  156.0042 H   0  0  0  0  0  0  0  0  0  0  0  0  # atno 8008 bound_to 7997
  155.2383  140.0421  157.2988 H   0  0  0  0  0  0  0  0  0  0  0  0  # atno 8009 bound_to 7997
  154.5899  140.2398  155.7943 H   0  0  0  0  0  0  0  0  0  0  0  0  # atno 8010 bound_to 7997
  139.8596  144.6551  150.9074 H   0  0  0  0  0  0  0  0  0  0  0  0  # atno 10167 bound_to 10162
  157.6667  130.9767  150.1474 H   0  0  0  0  0  0  0  0  0  0  0  0  # atno 10718 bound_to 10713
  153.1621  135.6798  153.8727 H   0  0  0  0  0  0  0  0  0  0  0  0  # atno 10763 bound_to 10752
  153.8119  135.3142  155.3402 H   0  0  0  0  0  0  0  0  0  0  0  0  # atno 10764 bound_to 10752
  154.7940  135.4818  154.0207 H   0  0  0  0  0  0  0  0  0  0  0  0  # atno 10765 bound_to 10752
  140.3818  134.1912  155.7663 H   0  0  0  0  0  0  0  0  0  0  0  0  # atno 11005 bound_to 11000
  146.2967  140.4129  142.8719 LP  0  0  0  0  0  0  0  0  0  0  0  0  # atno 17320 bound_to 7965
  144.8716  140.7280  143.6043 LP  0  0  0  0  0  0  0  0  0  0  0  0  # atno 17321 bound_to 7965
  140.7777  143.3756  151.1570 LP  0  0  0  0  0  0  0  0  0  0  0  0  # atno 17342 bound_to 10162
  139.7387  143.8959  152.3043 LP  0  0  0  0  0  0  0  0  0  0  0  0  # atno 17343 bound_to 10162
  156.2282  130.3680  149.8476 LP  0  0  0  0  0  0  0  0  0  0  0  0  # atno 17370 bound_to 10713
  156.6310  130.8666  151.3495 LP  0  0  0  0  0  0  0  0  0  0  0  0  # atno 17371 bound_to 10713
  141.1921  133.8181  157.0854 LP  0  0  0  0  0  0  0  0  0  0  0  0  # atno 17394 bound_to 11000
  140.0472  134.9824  157.1071 LP  0  0  0  0  0  0  0  0  0  0  0  0  # atno 17395 bound_to 11000

$$$$
