AV-unprocessed.smi:1543|AV-procd|sdf|6210|dock7
  -GOLD-   22720 6383D 1   1.00000     0.00000
 Structure written by MMmdl.
 49 50  0  0  0  0  0  0  0  0  2 V2000
  145.6190  134.1957  150.7636 C   0  0  0  0  0  0  0  0  0  0  0  0
  145.7464  133.1540  151.8806 C   0  0  2  0  0  0  0  0  0  0  0  0
  146.8931  133.4828  152.8550 C   0  0  0  0  0  0  0  0  0  0  0  0
  147.0267  132.4165  153.8873 N   0  3  2  0  0  0  0  0  0  0  0  0
  147.9867  132.7069  155.0132 C   0  0  0  0  0  0  0  0  0  0  0  0
  147.4530  133.8828  155.8696 C   0  0  0  0  0  0  0  0  0  0  0  0
  148.0519  131.4823  155.9607 C   0  0  0  0  0  0  0  0  0  0  0  0
  149.4061  133.0552  154.4714 C   0  0  0  0  0  0  0  0  0  0  0  0
  149.5789  134.4731  154.1573 N   0  0  0  0  0  0  0  0  0  0  0  0
  150.2417  135.3636  154.9094 C   0  0  0  0  0  0  0  0  0  0  0  0
  150.7848  135.0791  155.9765 O   0  0  0  0  0  0  0  0  0  0  0  0
  150.2382  136.5797  154.3378 N   0  0  0  0  0  0  0  0  0  0  0  0
  150.8078  137.7874  154.8244 C   0  0  0  0  0  0  0  0  0  0  0  0
  151.7523  137.8569  155.8773 C   0  0  0  0  0  0  0  0  0  0  0  0
  152.2288  139.1190  156.2805 C   0  0  0  0  0  0  0  0  0  0  0  0
  151.7399  140.2644  155.6231 C   0  0  0  0  0  0  0  0  0  0  0  0
  150.8298  140.2143  154.6278 N   0  0  0  0  0  0  0  0  0  0  0  0
  150.3765  139.0008  154.2474 C   0  0  0  0  0  0  0  0  0  0  0  0
  147.1929  131.0957  153.2164 C   0  0  0  0  0  0  0  0  0  0  0  0
  146.0359  130.8365  152.2335 C   0  0  2  0  0  0  0  0  0  0  0  0
  146.2044  129.5144  151.4762 C   0  0  0  0  0  0  0  0  0  0  0  0
  145.9932  131.8895  151.2794 O   0  0  0  0  0  0  0  0  0  0  0  0
  145.4138  135.1861  151.1711 H   0  0  0  0  0  0  0  0  0  0  0  0
  144.8042  133.9414  150.0853 H   0  0  0  0  0  0  0  0  0  0  0  0
  146.5346  134.2585  150.1750 H   0  0  0  0  0  0  0  0  0  0  0  0
  144.8014  133.1154  152.4253 H   0  0  0  0  0  0  0  0  0  0  0  0
  147.8257  133.5865  152.2998 H   0  0  0  0  0  0  0  0  0  0  0  0
  146.6784  134.4493  153.3066 H   0  0  0  0  0  0  0  0  0  0  0  0
  148.0040  133.9836  156.8052 H   0  0  0  0  0  0  0  0  0  0  0  0
  146.4040  133.7409  156.1317 H   0  0  0  0  0  0  0  0  0  0  0  0
  147.5466  134.8421  155.3610 H   0  0  0  0  0  0  0  0  0  0  0  0
  148.5607  131.7194  156.8956 H   0  0  0  0  0  0  0  0  0  0  0  0
  148.5993  130.6478  155.5231 H   0  0  0  0  0  0  0  0  0  0  0  0
  147.0543  131.1291  156.2244 H   0  0  0  0  0  0  0  0  0  0  0  0
  150.1814  132.7393  155.1698 H   0  0  0  0  0  0  0  0  0  0  0  0
  149.6032  132.5139  153.5467 H   0  0  0  0  0  0  0  0  0  0  0  0
  149.1684  134.7981  153.2941 H   0  0  0  0  0  0  0  0  0  0  0  0
  149.8241  136.6387  153.4189 H   0  0  0  0  0  0  0  0  0  0  0  0
  152.1078  136.9772  156.3905 H   0  0  0  0  0  0  0  0  0  0  0  0
  152.9501  139.2068  157.0795 H   0  0  0  0  0  0  0  0  0  0  0  0
  152.0846  141.2472  155.9085 H   0  0  0  0  0  0  0  0  0  0  0  0
  149.6463  138.9998  153.4512 H   0  0  0  0  0  0  0  0  0  0  0  0
  148.1400  131.0641  152.6773 H   0  0  0  0  0  0  0  0  0  0  0  0
  147.2063  130.2810  153.9376 H   0  0  0  0  0  0  0  0  0  0  0  0
  145.0904  130.8044  152.7781 H   0  0  0  0  0  0  0  0  0  0  0  0
  146.2322  128.6684  152.1633 H   0  0  0  0  0  0  0  0  0  0  0  0
  147.1277  129.5046  150.8962 H   0  0  0  0  0  0  0  0  0  0  0  0
  145.3763  129.3530  150.7856 H   0  0  0  0  0  0  0  0  0  0  0  0
  146.1218  132.3708  154.3339 H   0  0  0  0  0  0  0  0  0  0  0  0
  1  2  1  0  0  0  0
  1 23  1  0  0  0  0
  1 24  1  0  0  0  0
  1 25  1  0  0  0  0
  2 22  1  0  0  0  0
  2  3  1  0  0  0  0
  2 26  1  0  0  0  0
  3  4  1  0  0  0  0
  3 27  1  0  0  0  0
  3 28  1  0  0  0  0
  4  5  1  0  0  0  0
  4 19  1  0  0  0  0
  4 49  1  0  0  0  0
  5  6  1  0  0  0  0
  5  7  1  0  0  0  0
  5  8  1  0  0  0  0
  6 29  1  0  0  0  0
  6 30  1  0  0  0  0
  6 31  1  0  0  0  0
  7 32  1  0  0  0  0
  7 33  1  0  0  0  0
  7 34  1  0  0  0  0
  8  9  1  0  0  0  0
  8 35  1  0  0  0  0
  8 36  1  0  0  0  0
  9 10  1  0  0  0  0
  9 37  1  0  0  0  0
 10 11  2  0  0  0  0
 10 12  1  0  0  0  0
 12 13  1  0  0  0  0
 12 38  1  0  0  0  0
 13 18  1  0  0  0  0
 13 14  2  0  0  0  0
 14 15  1  0  0  0  0
 14 39  1  0  0  0  0
 15 16  2  0  0  0  0
 15 40  1  0  0  0  0
 16 17  1  0  0  0  0
 16 41  1  0  0  0  0
 17 18  2  0  0  0  0
 18 42  1  0  0  0  0
 19 20  1  0  0  0  0
 19 43  1  0  0  0  0
 19 44  1  0  0  0  0
 20 21  1  0  0  0  0
 20 22  1  0  0  0  0
 20 45  1  0  0  0  0
 21 46  1  0  0  0  0
 21 47  1  0  0  0  0
 21 48  1  0  0  0  0
M  CHG  1   4   1
M  END
> <s_m_source_file>
AV-unprocessed.smi

> <i_m_source_file_index>
1543

> <i_lp_mmshare_version>
43012

> <i_f3d_flags>
0

> <s_epik_input>
W0NIM11bQ0BASF0xW0NIMl1OKFtDSDJdW0NASF0oTzEpW0NIM10pQyhbQ0gzXSkoW0NIM10pW0NIMl1bTkhdQyg9TylbTkhdYzJbY0hdW2NIXVtjSF1uW2NIXTI=

> <s_epik_cmdline>
J2VwaWtfcHl0aG9uJywgJy1waCcsICc3LjAnLCAnLXRuJywgJzgnLCAnLW1hJywgJzIwMCcsICctbWV0YWxfYmluZGluZycsICctaW1hZScsICc8aW5maWxlLm1hZT4nLCAnLW9tYWUnLCAnPG91dGZpbGUubWFlPic=

> <r_epik_Ionization_Penalty>
0.60676

> <r_epik_Ionization_Penalty_Charging>
0.602531

> <r_epik_Ionization_Penalty_Neutral>
0.00422967

> <r_epik_State_Penalty>
0.607492

> <r_epik_Charging_Adjusted_Penalty>
1.21002

> <i_epik_Tot_Q>
1

> <i_epik_Tot_abs_Q>
1

> <r_epik_Metal_State_Penalty>
0.604589

> <b_epik_Metal_Only>
0

> <s_lp_Force_Field>
OPLS_2005

> <r_lp_Energy>
27.1707

> <b_lp_Chiralities_Consistent>
1

> <s_lp_Variant>
AV-unprocessed.smi:1543-6

> <Gold.Version>
5.8.1

> <Gold.Id.Protein>
6NUR|6NUR_protein|mol2

> <Gold.PLP.Fitness>
42.3531

> <Gold.PLP.PLP>
-32.9540

> <Gold.PLP.part.hbond>
-3.9780

> <Gold.PLP.part.metal>
0.0000

> <Gold.PLP.part.buried>
-2.5351

> <Gold.PLP.part.nonpolar>
-26.0121

> <Gold.PLP.part.repulsive>
0.3384

> <Gold.PLP.ligand.clash>
0.0000

> <Gold.PLP.ligand.torsion>
0.8202

> <Gold.PLP.Chemscore.Hbond>
2.6500

> <Gold.PLP.Chemscore.CHOScore>
0.9943

> <Gold.PLP.Chemscore.Metal>
0.0000

> <Gold.Chemscore.Hbonds>
donor molecule, donor type, donor heavy atom, donor atom, acceptor molecule, acceptor atom, score
      L1  H     9    37       P1  7948  0.65
      L1  H    12    38       P1  7948  1.00
      P1  H  7989  7998       L1    17  1.00
      L1  C    18    42       P1  7957  1.00

> <Gold.PLP.Chemscore.Internal.Correction>
0.1065

> <Gold.Rescore>
     Score         DG    S(hbond)    S(metal)    S(lipo)     H(rot)  DE(clash)    DE(int)     intcor
     13.92     -16.02       1.35        0.00      83.44       1.46       0.09       2.00       ----

> <Gold.Chemscore.Fitness>
13.9215

> <Gold.Chemscore.DG>
-16.0152

> <Gold.Chemscore.ZeroCoef>
-5.4800

> <Gold.Chemscore.Hbond>
1.3529

> <Gold.Chemscore.Metal>
0.0000

> <Gold.Chemscore.Lipo>
83.4399

> <Gold.Chemscore.Internal_Hbond>
0.0000

> <Gold.Chemscore.DEClash>
0.0891

> <Gold.Chemscore.DEInternal>
2.0045

> <Gold.Chemscore.Rot>
1.4632

> <Gold.Chemscore.Internal.Correction>
   9.000000E+99

> <Gold.Chemscore.Hbonds>
donor molecule, donor type, donor heavy atom, donor atom, acceptor molecule, acceptor atom, score
      L1  H     9    37       P1  7948  0.05
      L1  H    12    38       P1  7948  0.30
      P1  H  7989  7998       L1    17  0.19

> <Gold.Chemscore.Hbond.Weighted>
-4.5186

> <Gold.Chemscore.Metal.Weighted>
-0.0000

> <Gold.Chemscore.Lipo.Weighted>
-9.7625

> <Gold.Chemscore.Internal_Hbond.Weighted>
0.0000

> <Gold.Chemscore.DEClash.Weighted>
0.0891

> <Gold.Chemscore.DEInternal.Weighted>
2.0045

> <Gold.Chemscore.Rot.Weighted>
3.7459

> <Gold.Chemscore.Internal.Correction.Weighted>
   9.000000E+99

> <Gold.Protein.RotatedTorsions>
[ 6907 6896 6895 6894 ] final  -33.54 input  -60.11 | X-H torsion
[ 7974 7965 7964 7962 ] final  -33.80 input  175.53 | X-H torsion
[ 8008 7997 7996 7995 ] final  148.46 input   59.86 | X-H torsion
[ 10167 10162 10161 10158 ] final  -72.28 input  -65.29 | X-H torsion
[ 10718 10713 10712 10709 ] final  135.42 input   66.30 | X-H torsion
[ 10763 10752 10751 10750 ] final  -62.29 input  -60.55 | X-H torsion
[ 11005 11000 10999 10996 ] final  142.54 input  -57.11 | X-H torsion

> <Gold.Protein.ActiveResidues>
 VAL166  LYS551  ARG553  GLY616  TRP617  ASP618  TYR619  PRO620  LYS621  CYS622 
 ASP623  PHE694  ASN695  SER759  ASP760  ASP761  ALA762  ILE779  LEU786  VAL792 
 PHE793  MET794  SER795  GLU796  ALA797  LYS798  CYS799  TRP800  GLU811  SER814 

> <Gold.Protein.RotatedAtoms>
  151.0642  134.9757  159.8275 H   0  0  0  0  0  0  0  0  0  0  0  0  # atno 6907 bound_to 6896
  152.5400  134.2379  159.8860 H   0  0  0  0  0  0  0  0  0  0  0  0  # atno 6908 bound_to 6896
  151.2401  133.4361  159.2640 H   0  0  0  0  0  0  0  0  0  0  0  0  # atno 6909 bound_to 6896
  146.0881  140.5961  142.8877 H   0  0  0  0  0  0  0  0  0  0  0  0  # atno 7974 bound_to 7965
  156.2790  140.2128  156.5702 H   0  0  0  0  0  0  0  0  0  0  0  0  # atno 8008 bound_to 7997
  154.7142  140.0509  157.0602 H   0  0  0  0  0  0  0  0  0  0  0  0  # atno 8009 bound_to 7997
  155.0565  140.3162  155.4678 H   0  0  0  0  0  0  0  0  0  0  0  0  # atno 8010 bound_to 7997
  140.5205  143.2332  151.7438 H   0  0  0  0  0  0  0  0  0  0  0  0  # atno 10167 bound_to 10162
  157.4572  131.1070  150.9963 H   0  0  0  0  0  0  0  0  0  0  0  0  # atno 10718 bound_to 10713
  154.2977  135.6241  153.5411 H   0  0  0  0  0  0  0  0  0  0  0  0  # atno 10763 bound_to 10752
  152.9844  135.5671  154.5319 H   0  0  0  0  0  0  0  0  0  0  0  0  # atno 10764 bound_to 10752
  154.4943  135.2869  155.1448 H   0  0  0  0  0  0  0  0  0  0  0  0  # atno 10765 bound_to 10752
  140.0485  134.9268  157.0973 H   0  0  0  0  0  0  0  0  0  0  0  0  # atno 11005 bound_to 11000
  144.7340  140.4755  143.6917 LP  0  0  0  0  0  0  0  0  0  0  0  0  # atno 17320 bound_to 7965
  145.6091  139.1511  143.3086 LP  0  0  0  0  0  0  0  0  0  0  0  0  # atno 17321 bound_to 7965
  139.4922  144.4262  151.9923 LP  0  0  0  0  0  0  0  0  0  0  0  0  # atno 17342 bound_to 10162
  140.3358  144.3262  150.5977 LP  0  0  0  0  0  0  0  0  0  0  0  0  # atno 17343 bound_to 10162
  157.0773  130.5888  149.5413 LP  0  0  0  0  0  0  0  0  0  0  0  0  # atno 17370 bound_to 10713
  156.0012  130.5092  150.7671 LP  0  0  0  0  0  0  0  0  0  0  0  0  # atno 17371 bound_to 10713
  140.3955  134.2138  155.7165 LP  0  0  0  0  0  0  0  0  0  0  0  0  # atno 17394 bound_to 11000
  141.1919  133.8186  157.0862 LP  0  0  0  0  0  0  0  0  0  0  0  0  # atno 17395 bound_to 11000

$$$$
