AV-unprocessed.smi:3323|AV-procd|sdf|12777|dock10
  -GOLD-   2272019123D 1   1.00000     0.00000
 Structure written by MMmdl.
 37 38  0  0  0  0  0  0  0  0  1 V2000
  145.4169  142.9201  155.6400 C   0  0  0  0  0  0  0  0  0  0  0  0
  146.4227  141.8234  155.2745 C   0  0  2  0  0  0  0  0  0  0  0  0
  147.3260  142.2387  154.0968 C   0  0  0  0  0  0  0  0  0  0  0  0
  148.2848  141.1026  153.6871 C   0  0  1  0  0  0  0  0  0  0  0  0
  149.4505  140.8628  154.6754 C   0  0  0  0  0  0  0  0  0  0  0  0
  149.6356  141.9823  155.5952 N   0  0  0  0  0  0  0  0  0  0  0  0
  150.4324  141.9817  156.6740 C   0  0  0  0  0  0  0  0  0  0  0  0
  151.1254  141.0203  157.0051 O   0  0  0  0  0  0  0  0  0  0  0  0
  150.3665  143.1579  157.3219 N   0  0  0  0  0  0  0  0  0  0  0  0
  151.0216  143.5662  158.5165 C   0  0  0  0  0  0  0  0  0  0  0  0
  151.9372  142.7718  159.2499 C   0  0  0  0  0  0  0  0  0  0  0  0
  152.5033  143.2983  160.4273 C   0  0  0  0  0  0  0  0  0  0  0  0
  152.1309  144.5944  160.8326 C   0  0  0  0  0  0  0  0  0  0  0  0
  151.2540  145.3591  160.1496 N   0  0  0  0  0  0  0  0  0  0  0  0
  150.7159  144.8481  159.0219 C   0  0  0  0  0  0  0  0  0  0  0  0
  147.4526  139.8291  153.4541 C   0  0  0  0  0  0  0  0  0  0  0  0
  146.5256  139.5297  154.6461 C   0  0  0  0  0  0  0  0  0  0  0  0
  145.6937  140.6533  154.9151 O   0  0  0  0  0  0  0  0  0  0  0  0
  145.9281  143.8350  155.9408 H   0  0  0  0  0  0  0  0  0  0  0  0
  144.7826  142.6065  156.4693 H   0  0  0  0  0  0  0  0  0  0  0  0
  144.7689  143.1595  154.7964 H   0  0  0  0  0  0  0  0  0  0  0  0
  147.0293  141.6104  156.1557 H   0  0  0  0  0  0  0  0  0  0  0  0
  146.6962  142.4911  153.2427 H   0  0  0  0  0  0  0  0  0  0  0  0
  147.8732  143.1496  154.3376 H   0  0  0  0  0  0  0  0  0  0  0  0
  148.7353  141.3791  152.7327 H   0  0  0  0  0  0  0  0  0  0  0  0
  149.3196  139.9280  155.2213 H   0  0  0  0  0  0  0  0  0  0  0  0
  150.3798  140.7499  154.1165 H   0  0  0  0  0  0  0  0  0  0  0  0
  149.1069  142.8196  155.3985 H   0  0  0  0  0  0  0  0  0  0  0  0
  149.7875  143.8637  156.8909 H   0  0  0  0  0  0  0  0  0  0  0  0
  152.2115  141.7737  158.9486 H   0  0  0  0  0  0  0  0  0  0  0  0
  153.2053  142.7194  161.0088 H   0  0  0  0  0  0  0  0  0  0  0  0
  152.5451  145.0265  161.7316 H   0  0  0  0  0  0  0  0  0  0  0  0
  150.0160  145.4877  158.5041 H   0  0  0  0  0  0  0  0  0  0  0  0
  146.8407  139.9609  152.5606 H   0  0  0  0  0  0  0  0  0  0  0  0
  148.1015  138.9758  153.2545 H   0  0  0  0  0  0  0  0  0  0  0  0
  145.8906  138.6739  154.4168 H   0  0  0  0  0  0  0  0  0  0  0  0
  147.0971  139.2650  155.5365 H   0  0  0  0  0  0  0  0  0  0  0  0
  1  2  1  0  0  0  0
  1 19  1  0  0  0  0
  1 20  1  0  0  0  0
  1 21  1  0  0  0  0
  2 18  1  0  0  0  0
  2  3  1  0  0  0  0
  2 22  1  0  0  0  0
  3  4  1  0  0  0  0
  3 23  1  0  0  0  0
  3 24  1  0  0  0  0
  4  5  1  0  0  0  0
  4 16  1  0  0  0  0
  4 25  1  0  0  0  0
  5  6  1  0  0  0  0
  5 26  1  0  0  0  0
  5 27  1  0  0  0  0
  6  7  1  0  0  0  0
  6 28  1  0  0  0  0
  7  8  2  0  0  0  0
  7  9  1  0  0  0  0
  9 10  1  0  0  0  0
  9 29  1  0  0  0  0
 10 15  1  0  0  0  0
 10 11  2  0  0  0  0
 11 12  1  0  0  0  0
 11 30  1  0  0  0  0
 12 13  2  0  0  0  0
 12 31  1  0  0  0  0
 13 14  1  0  0  0  0
 13 32  1  0  0  0  0
 14 15  2  0  0  0  0
 15 33  1  0  0  0  0
 16 17  1  0  0  0  0
 16 34  1  0  0  0  0
 16 35  1  0  0  0  0
 17 18  1  0  0  0  0
 17 36  1  0  0  0  0
 17 37  1  0  0  0  0
M  END
> <s_m_source_file>
AV-unprocessed.smi

> <i_m_source_file_index>
3323

> <i_lp_mmshare_version>
43012

> <i_f3d_flags>
0

> <s_epik_input>
W0NIM11bQ0BASF0xW0NIMl1bQ0BIXShbQ0gyXVtDSDJdTzEpW0NIMl1bTkhdQyg9TylbTkhdYzJbY0hdW2NIXVtjSF1uW2NIXTI=

> <s_epik_cmdline>
J2VwaWtfcHl0aG9uJywgJy1waCcsICc3LjAnLCAnLXRuJywgJzgnLCAnLW1hJywgJzIwMCcsICctbWV0YWxfYmluZGluZycsICctaW1hZScsICc8aW5maWxlLm1hZT4nLCAnLW9tYWUnLCAnPG91dGZpbGUubWFlPic=

> <r_epik_Ionization_Penalty>
0.00485293

> <r_epik_Ionization_Penalty_Charging>
0

> <r_epik_Ionization_Penalty_Neutral>
0.00485293

> <r_epik_State_Penalty>
0.00349083

> <r_epik_Charging_Adjusted_Penalty>
0.00349083

> <i_epik_Tot_Q>
0

> <i_epik_Tot_abs_Q>
0

> <r_epik_Metal_State_Penalty>
-0

> <b_epik_Metal_Only>
0

> <s_lp_Force_Field>
OPLS_2005

> <r_lp_Energy>
13.5955

> <b_lp_Chiralities_Consistent>
1

> <s_lp_Variant>
AV-unprocessed.smi:3323-1

> <Gold.Version>
5.8.1

> <Gold.Id.Protein>
6NUR|6NUR_protein|mol2

> <Gold.PLP.Fitness>
44.3122

> <Gold.PLP.PLP>
-36.5962

> <Gold.PLP.part.hbond>
-2.0000

> <Gold.PLP.part.metal>
0.0000

> <Gold.PLP.part.buried>
-4.6473

> <Gold.PLP.part.nonpolar>
-29.6706

> <Gold.PLP.part.repulsive>
0.4893

> <Gold.PLP.ligand.clash>
0.0000

> <Gold.PLP.ligand.torsion>
0.6443

> <Gold.PLP.Chemscore.Hbond>
2.0000

> <Gold.PLP.Chemscore.CHOScore>
1.0000

> <Gold.PLP.Chemscore.Metal>
0.0000

> <Gold.Chemscore.Hbonds>
donor molecule, donor type, donor heavy atom, donor atom, acceptor molecule, acceptor atom, score
      L1  H     6    28       P1  8028  0.98
      L1  H     9    29       P1  8028  1.00
      L1  C    15    33       P1  8029  1.00

> <Gold.PLP.Chemscore.Internal.Correction>
0.0045

> <Gold.Rescore>
     Score         DG    S(hbond)    S(metal)    S(lipo)     H(rot)  DE(clash)    DE(int)     intcor
     18.02     -19.77       1.95        0.00      93.29       1.23       0.10       1.65       ----

> <Gold.Chemscore.Fitness>
18.0199

> <Gold.Chemscore.DG>
-19.7694

> <Gold.Chemscore.ZeroCoef>
-5.4800

> <Gold.Chemscore.Hbond>
1.9508

> <Gold.Chemscore.Metal>
0.0000

> <Gold.Chemscore.Lipo>
93.2943

> <Gold.Chemscore.Internal_Hbond>
0.0000

> <Gold.Chemscore.DEClash>
0.0973

> <Gold.Chemscore.DEInternal>
1.6522

> <Gold.Chemscore.Rot>
1.2273

> <Gold.Chemscore.Internal.Correction>
   9.000000E+99

> <Gold.Chemscore.Hbonds>
donor molecule, donor type, donor heavy atom, donor atom, acceptor molecule, acceptor atom, score
      L1  H     6    28       P1  8028  0.93
      L1  H     9    29       P1  8028  0.95

> <Gold.Chemscore.Hbond.Weighted>
-6.5157

> <Gold.Chemscore.Metal.Weighted>
-0.0000

> <Gold.Chemscore.Lipo.Weighted>
-10.9154

> <Gold.Chemscore.Internal_Hbond.Weighted>
0.0000

> <Gold.Chemscore.DEClash.Weighted>
0.0973

> <Gold.Chemscore.DEInternal.Weighted>
1.6522

> <Gold.Chemscore.Rot.Weighted>
3.1418

> <Gold.Chemscore.Internal.Correction.Weighted>
   9.000000E+99

> <Gold.Protein.RotatedTorsions>
[ 6907 6896 6895 6894 ] final -157.78 input  -60.11 | X-H torsion
[ 7974 7965 7964 7962 ] final  134.72 input  175.53 | X-H torsion
[ 8008 7997 7996 7995 ] final  -68.07 input   59.86 | X-H torsion
[ 10167 10162 10161 10158 ] final -174.40 input  -65.29 | X-H torsion
[ 10718 10713 10712 10709 ] final   51.35 input   66.30 | X-H torsion
[ 10763 10752 10751 10750 ] final -139.46 input  -60.55 | X-H torsion
[ 11005 11000 10999 10996 ] final  157.84 input  -57.11 | X-H torsion

> <Gold.Protein.ActiveResidues>
 VAL166  LYS551  ARG553  GLY616  TRP617  ASP618  TYR619  PRO620  LYS621  CYS622 
 ASP623  PHE694  ASN695  SER759  ASP760  ASP761  ALA762  ILE779  LEU786  VAL792 
 PHE793  MET794  SER795  GLU796  ALA797  LYS798  CYS799  TRP800  GLU811  SER814 

> <Gold.Protein.RotatedAtoms>
  151.3080  133.4093  159.2644 H   0  0  0  0  0  0  0  0  0  0  0  0  # atno 6907 bound_to 6896
  151.0138  134.9418  159.8032 H   0  0  0  0  0  0  0  0  0  0  0  0  # atno 6908 bound_to 6896
  152.5307  134.3044  159.9143 H   0  0  0  0  0  0  0  0  0  0  0  0  # atno 6909 bound_to 6896
  144.9735  139.4580  143.5421 H   0  0  0  0  0  0  0  0  0  0  0  0  # atno 7974 bound_to 7965
  154.4843  140.0880  156.7449 H   0  0  0  0  0  0  0  0  0  0  0  0  # atno 8008 bound_to 7997
  155.4391  140.3453  155.4270 H   0  0  0  0  0  0  0  0  0  0  0  0  # atno 8009 bound_to 7997
  156.1237  140.1481  156.9155 H   0  0  0  0  0  0  0  0  0  0  0  0  # atno 8010 bound_to 7997
  139.5636  144.1810  152.1277 H   0  0  0  0  0  0  0  0  0  0  0  0  # atno 10167 bound_to 10162
  157.4972  130.8414  149.8273 H   0  0  0  0  0  0  0  0  0  0  0  0  # atno 10718 bound_to 10713
  154.8608  135.3582  154.5550 H   0  0  0  0  0  0  0  0  0  0  0  0  # atno 10763 bound_to 10752
  153.6167  135.7007  153.5331 H   0  0  0  0  0  0  0  0  0  0  0  0  # atno 10764 bound_to 10752
  153.3163  135.4164  155.1339 H   0  0  0  0  0  0  0  0  0  0  0  0  # atno 10765 bound_to 10752
  140.1808  134.8477  157.2800 H   0  0  0  0  0  0  0  0  0  0  0  0  # atno 11005 bound_to 11000
  146.3389  139.8963  142.8801 LP  0  0  0  0  0  0  0  0  0  0  0  0  # atno 17320 bound_to 7965
  145.2524  141.0048  143.3873 LP  0  0  0  0  0  0  0  0  0  0  0  0  # atno 17321 bound_to 7965
  140.1328  144.5272  150.6792 LP  0  0  0  0  0  0  0  0  0  0  0  0  # atno 17342 bound_to 10162
  140.6918  143.2380  151.5111 LP  0  0  0  0  0  0  0  0  0  0  0  0  # atno 17343 bound_to 10162
  156.0208  130.3796  150.1969 LP  0  0  0  0  0  0  0  0  0  0  0  0  # atno 17370 bound_to 10713
  157.0158  130.9964  151.3353 LP  0  0  0  0  0  0  0  0  0  0  0  0  # atno 17371 bound_to 10713
  140.2270  134.3955  155.7539 LP  0  0  0  0  0  0  0  0  0  0  0  0  # atno 17394 bound_to 11000
  141.2223  133.7195  156.8580 LP  0  0  0  0  0  0  0  0  0  0  0  0  # atno 17395 bound_to 11000

$$$$
