AV-unprocessed.smi:21|AV-procd|sdf|143|dock4
  -GOLD-   2262015353D 1   1.00000     0.00000
 Structure written by MMmdl.
 62 65  0  0  0  0  0  0  0  0  2 V2000
  144.2140  132.0622  150.4373 C   0  0  0  0  0  0  0  0  0  0  0  0
  144.0677  133.3931  150.9069 O   0  0  0  0  0  0  0  0  0  0  0  0
  145.1436  134.2499  150.5467 C   0  0  1  0  0  0  0  0  0  0  0  0
  144.7967  135.6655  150.9884 C   0  0  0  0  0  0  0  0  0  0  0  0
  145.2048  135.6964  152.4644 C   0  0  2  0  0  0  0  0  0  0  0  0
  145.4880  137.1120  153.0104 C   0  0  0  0  0  0  0  0  0  0  0  0
  145.3034  137.2097  154.4587 N   0  0  0  0  0  0  0  0  0  0  0  0
  143.9757  136.9667  155.0080 C   0  0  0  0  0  0  0  0  0  0  0  0
  146.1980  137.9397  155.1766 C   0  0  0  0  0  0  0  0  0  0  0  0
  146.3185  137.6677  156.5023 N   0  0  0  0  0  0  0  0  0  0  0  0
  147.1883  138.3422  157.2584 C   0  0  0  0  0  0  0  0  0  0  0  0
  148.0341  139.3058  156.8949 N   0  0  0  0  0  0  0  0  0  0  0  0
  147.9336  139.5791  155.5631 C   0  0  0  0  0  0  0  0  0  0  0  0
  147.0434  138.9574  154.6401 C   0  0  0  0  0  0  0  0  0  0  0  0
  147.2368  139.4983  153.3741 N   0  0  0  0  0  0  0  0  0  0  0  0
  148.1743  140.3891  153.5408 C   0  0  0  0  0  0  0  0  0  0  0  0
  148.6683  140.4897  154.8214 N   0  0  0  0  0  0  0  0  0  0  0  0
  149.7202  141.3847  155.2847 C   0  0  0  0  0  0  0  0  0  0  0  0
  150.3459  140.9901  156.6518 C   0  0  1  0  0  0  0  0  0  0  0  0
  151.6738  140.2144  156.4850 C   0  0  0  0  0  0  0  0  0  0  0  0
  151.6203  139.3624  155.3600 O   0  0  0  0  0  0  0  0  0  0  0  0
  150.5158  142.2073  157.5993 C   0  0  2  0  0  0  0  0  0  0  0  0
  151.4604  143.2880  157.0992 C   0  0  0  0  0  0  0  0  0  0  0  0
  151.8028  144.0514  158.3757 C   0  0  0  0  0  0  0  0  0  0  0  0
  151.6806  143.1133  159.4391 O   0  0  0  0  0  0  0  0  0  0  0  0
  151.1836  141.8782  158.9384 C   0  0  0  0  0  0  0  0  0  0  0  0
  146.4070  134.8347  152.5390 N   0  3  1  0  0  0  0  0  0  0  0  0
  146.5736  134.1378  153.8333 C   0  0  0  0  0  0  0  0  0  0  0  0
  146.3995  133.9229  151.3691 C   0  0  0  0  0  0  0  0  0  0  0  0
  145.3243  134.2118  149.4709 H   0  0  0  0  0  0  0  0  0  0  0  0
  144.4099  135.2255  153.0459 H   0  0  0  0  0  0  0  0  0  0  0  0
  143.3601  131.4673  150.7612 H   0  0  0  0  0  0  0  0  0  0  0  0
  145.1161  131.5900  150.8264 H   0  0  0  0  0  0  0  0  0  0  0  0
  144.2474  132.0316  149.3475 H   0  0  0  0  0  0  0  0  0  0  0  0
  145.3938  136.3796  150.4194 H   0  0  0  0  0  0  0  0  0  0  0  0
  143.7458  135.9102  150.8303 H   0  0  0  0  0  0  0  0  0  0  0  0
  146.5219  137.3824  152.7952 H   0  0  0  0  0  0  0  0  0  0  0  0
  144.8823  137.8475  152.4805 H   0  0  0  0  0  0  0  0  0  0  0  0
  144.0297  136.7240  156.0699 H   0  0  0  0  0  0  0  0  0  0  0  0
  143.5027  136.1254  154.5012 H   0  0  0  0  0  0  0  0  0  0  0  0
  143.3364  137.8405  154.8795 H   0  0  0  0  0  0  0  0  0  0  0  0
  147.2123  138.0685  158.3030 H   0  0  0  0  0  0  0  0  0  0  0  0
  148.5376  140.9924  152.7225 H   0  0  0  0  0  0  0  0  0  0  0  0
  150.4902  141.4294  154.5144 H   0  0  0  0  0  0  0  0  0  0  0  0
  149.3090  142.3933  155.3376 H   0  0  0  0  0  0  0  0  0  0  0  0
  149.6415  140.3101  157.1336 H   0  0  0  0  0  0  0  0  0  0  0  0
  152.5233  140.8914  156.3958 H   0  0  0  0  0  0  0  0  0  0  0  0
  151.8680  139.5800  157.3488 H   0  0  0  0  0  0  0  0  0  0  0  0
  151.0018  138.6697  155.5349 H   0  0  0  0  0  0  0  0  0  0  0  0
  149.5465  142.6704  157.7891 H   0  0  0  0  0  0  0  0  0  0  0  0
  152.3628  142.8402  156.6799 H   0  0  0  0  0  0  0  0  0  0  0  0
  151.0166  143.9341  156.3412 H   0  0  0  0  0  0  0  0  0  0  0  0
  152.8022  144.4858  158.3414 H   0  0  0  0  0  0  0  0  0  0  0  0
  151.0879  144.8580  158.5424 H   0  0  0  0  0  0  0  0  0  0  0  0
  150.5061  141.4148  159.6542 H   0  0  0  0  0  0  0  0  0  0  0  0
  152.0278  141.2030  158.7920 H   0  0  0  0  0  0  0  0  0  0  0  0
  145.7467  133.4507  154.0179 H   0  0  0  0  0  0  0  0  0  0  0  0
  146.6158  134.8521  154.6556 H   0  0  0  0  0  0  0  0  0  0  0  0
  147.5018  133.5655  153.8399 H   0  0  0  0  0  0  0  0  0  0  0  0
  146.4475  132.8720  151.6560 H   0  0  0  0  0  0  0  0  0  0  0  0
  147.2936  134.1348  150.7822 H   0  0  0  0  0  0  0  0  0  0  0  0
  147.2057  135.4411  152.4178 H   0  0  0  0  0  0  0  0  0  0  0  0
  1  2  1  0  0  0  0
  1 32  1  0  0  0  0
  1 33  1  0  0  0  0
  1 34  1  0  0  0  0
  2  3  1  0  0  0  0
  3 30  1  0  0  0  0
  3 29  1  0  0  0  0
  3  4  1  0  0  0  0
  4  5  1  0  0  0  0
  4 35  1  0  0  0  0
  4 36  1  0  0  0  0
  5 31  1  0  0  0  0
  5  6  1  0  0  0  0
  5 27  1  0  0  0  0
  6  7  1  0  0  0  0
  6 37  1  0  0  0  0
  6 38  1  0  0  0  0
  7  8  1  0  0  0  0
  7  9  1  0  0  0  0
  8 39  1  0  0  0  0
  8 40  1  0  0  0  0
  8 41  1  0  0  0  0
  9 14  1  0  0  0  0
  9 10  2  0  0  0  0
 10 11  1  0  0  0  0
 11 12  2  0  0  0  0
 11 42  1  0  0  0  0
 12 13  1  0  0  0  0
 13 17  1  0  0  0  0
 13 14  2  0  0  0  0
 14 15  1  0  0  0  0
 15 16  2  0  0  0  0
 16 17  1  0  0  0  0
 16 43  1  0  0  0  0
 17 18  1  0  0  0  0
 18 19  1  0  0  0  0
 18 44  1  0  0  0  0
 18 45  1  0  0  0  0
 19 20  1  0  0  0  0
 19 22  1  0  0  0  0
 19 46  1  0  0  0  0
 20 21  1  0  0  0  0
 20 47  1  0  0  0  0
 20 48  1  0  0  0  0
 21 49  1  0  0  0  0
 22 26  1  0  0  0  0
 22 23  1  0  0  0  0
 22 50  1  0  0  0  0
 23 24  1  0  0  0  0
 23 51  1  0  0  0  0
 23 52  1  0  0  0  0
 24 25  1  0  0  0  0
 24 53  1  0  0  0  0
 24 54  1  0  0  0  0
 25 26  1  0  0  0  0
 26 55  1  0  0  0  0
 26 56  1  0  0  0  0
 27 28  1  0  0  0  0
 27 29  1  0  0  0  0
 27 62  1  0  0  0  0
 28 57  1  0  0  0  0
 28 58  1  0  0  0  0
 28 59  1  0  0  0  0
 29 60  1  0  0  0  0
 29 61  1  0  0  0  0
M  CHG  1  27   1
M  END
> <s_m_source_file>
AV-unprocessed.smi

> <i_m_source_file_index>
21

> <i_lp_mmshare_version>
43012

> <i_f3d_flags>
0

> <s_epik_input>
W0NIM11PW0NASF0xW0NIMl1bQ0BIXShOKFtDSDNdKVtDSDJdMSlbQ0gyXU4oW0NIM10pYyhuW2NIXW4yKWMoYzIzKW5bY0hdbjNbQ0gyXVtDQEhdKFtDSDJdW09IXSlbQ0BASF00W0NIMl1bQ0gyXU9bQ0gyXTQ=

> <s_epik_cmdline>
J2VwaWtfcHl0aG9uJywgJy1waCcsICc3LjAnLCAnLXRuJywgJzgnLCAnLW1hJywgJzIwMCcsICctbWV0YWxfYmluZGluZycsICctaW1hZScsICc8aW5maWxlLm1hZT4nLCAnLW9tYWUnLCAnPG91dGZpbGUubWFlPic=

> <r_lp_tautomer_probability>
1

> <r_epik_Ionization_Penalty>
0.0157465

> <r_epik_Ionization_Penalty_Charging>
0.015354

> <r_epik_Ionization_Penalty_Neutral>
0.000392529

> <r_epik_State_Penalty>
0.0120612

> <r_epik_Charging_Adjusted_Penalty>
0.0274152

> <i_epik_Tot_Q>
1

> <i_epik_Tot_abs_Q>
1

> <r_epik_Metal_State_Penalty>
0.0121253

> <b_epik_Metal_Only>
0

> <s_lp_Force_Field>
OPLS_2005

> <r_lp_Energy>
58.9185

> <b_lp_Chiralities_Consistent>
1

> <s_lp_Variant>
AV-unprocessed.smi:21-23

> <Gold.Version>
5.8.1

> <Gold.Id.Protein>
6NUR|6NUR_protein|mol2

> <Gold.PLP.Fitness>
46.5650

> <Gold.PLP.PLP>
-39.0079

> <Gold.PLP.part.hbond>
-2.0000

> <Gold.PLP.part.metal>
0.0000

> <Gold.PLP.part.buried>
-4.5337

> <Gold.PLP.part.nonpolar>
-32.1256

> <Gold.PLP.part.repulsive>
0.3772

> <Gold.PLP.ligand.clash>
0.0000

> <Gold.PLP.ligand.torsion>
1.9915

> <Gold.PLP.Chemscore.Hbond>
3.0000

> <Gold.PLP.Chemscore.CHOScore>
0.5659

> <Gold.PLP.Chemscore.Metal>
0.0000

> <Gold.Chemscore.Hbonds>
donor molecule, donor type, donor heavy atom, donor atom, acceptor molecule, acceptor atom, score
      L1  H    27    62       P1  7948  2.00
      P1  H  7989  7998       L1    21  0.11
      L1  C    16    43       P1  7957  0.79

> <Gold.PLP.Chemscore.Internal.Correction>
0.8425

> <Gold.Rescore>
     Score         DG    S(hbond)    S(metal)    S(lipo)     H(rot)  DE(clash)    DE(int)     intcor
     10.31     -15.08       1.83        0.00      96.97       3.08       0.44       4.33       ----

> <Gold.Chemscore.Fitness>
10.3062

> <Gold.Chemscore.DG>
-15.0765

> <Gold.Chemscore.ZeroCoef>
-5.4800

> <Gold.Chemscore.Hbond>
1.8338

> <Gold.Chemscore.Metal>
0.0000

> <Gold.Chemscore.Lipo>
96.9710

> <Gold.Chemscore.Internal_Hbond>
0.0000

> <Gold.Chemscore.DEClash>
0.4357

> <Gold.Chemscore.DEInternal>
4.3346

> <Gold.Chemscore.Rot>
3.0758

> <Gold.Chemscore.Internal.Correction>
   9.000000E+99

> <Gold.Chemscore.Hbonds>
donor molecule, donor type, donor heavy atom, donor atom, acceptor molecule, acceptor atom, score
      L1  H    27    62       P1  7948  0.98
      P1  H  7989  7998       L1    21  0.06

> <Gold.Chemscore.Hbond.Weighted>
-6.1250

> <Gold.Chemscore.Metal.Weighted>
-0.0000

> <Gold.Chemscore.Lipo.Weighted>
-11.3456

> <Gold.Chemscore.Internal_Hbond.Weighted>
0.0000

> <Gold.Chemscore.DEClash.Weighted>
0.4357

> <Gold.Chemscore.DEInternal.Weighted>
4.3346

> <Gold.Chemscore.Rot.Weighted>
7.8741

> <Gold.Chemscore.Internal.Correction.Weighted>
   9.000000E+99

> <Gold.Protein.RotatedTorsions>
[ 6907 6896 6895 6894 ] final    0.15 input  -60.11 | X-H torsion
[ 7974 7965 7964 7962 ] final -166.68 input  175.53 | X-H torsion
[ 8008 7997 7996 7995 ] final   85.02 input   59.86 | X-H torsion
[ 10167 10162 10161 10158 ] final   32.89 input  -65.29 | X-H torsion
[ 10718 10713 10712 10709 ] final   51.72 input   66.30 | X-H torsion
[ 10763 10752 10751 10750 ] final   51.38 input  -60.55 | X-H torsion
[ 11005 11000 10999 10996 ] final -163.33 input  -57.11 | X-H torsion

> <Gold.Protein.ActiveResidues>
 VAL166  LYS551  ARG553  GLY616  TRP617  ASP618  TYR619  PRO620  LYS621  CYS622 
 ASP623  PHE694  ASN695  SER759  ASP760  ASP761  ALA762  ILE779  LEU786  VAL792 
 PHE793  MET794  SER795  GLU796  ALA797  LYS798  CYS799  TRP800  GLU811  SER814 

> <Gold.Protein.RotatedAtoms>
  151.5717  135.1062  159.9996 H   0  0  0  0  0  0  0  0  0  0  0  0  # atno 6907 bound_to 6896
  152.4397  133.7422  159.6658 H   0  0  0  0  0  0  0  0  0  0  0  0  # atno 6908 bound_to 6896
  150.8301  133.8037  159.3125 H   0  0  0  0  0  0  0  0  0  0  0  0  # atno 6909 bound_to 6896
  144.7240  140.2631  143.6262 H   0  0  0  0  0  0  0  0  0  0  0  0  # atno 7974 bound_to 7965
  155.9446  140.3405  155.6356 H   0  0  0  0  0  0  0  0  0  0  0  0  # atno 8008 bound_to 7997
  155.6996  140.0758  157.2434 H   0  0  0  0  0  0  0  0  0  0  0  0  # atno 8009 bound_to 7997
  154.4109  140.1642  156.2164 H   0  0  0  0  0  0  0  0  0  0  0  0  # atno 8010 bound_to 7997
  140.4457  144.1122  150.6182 H   0  0  0  0  0  0  0  0  0  0  0  0  # atno 10167 bound_to 10162
  157.5007  130.8436  149.8313 H   0  0  0  0  0  0  0  0  0  0  0  0  # atno 10718 bound_to 10713
  152.9785  135.5847  154.4407 H   0  0  0  0  0  0  0  0  0  0  0  0  # atno 10763 bound_to 10752
  154.4008  135.2769  155.2099 H   0  0  0  0  0  0  0  0  0  0  0  0  # atno 10764 bound_to 10752
  154.3931  135.6121  153.5908 H   0  0  0  0  0  0  0  0  0  0  0  0  # atno 10765 bound_to 10752
  140.5993  134.4964  157.5203 H   0  0  0  0  0  0  0  0  0  0  0  0  # atno 11005 bound_to 11000
  145.8116  139.2005  143.1989 LP  0  0  0  0  0  0  0  0  0  0  0  0  # atno 17320 bound_to 7965
  146.0591  140.7990  142.9744 LP  0  0  0  0  0  0  0  0  0  0  0  0  # atno 17321 bound_to 7965
  140.4266  143.2587  151.9648 LP  0  0  0  0  0  0  0  0  0  0  0  0  # atno 17342 bound_to 10162
  139.4792  144.5782  151.7976 LP  0  0  0  0  0  0  0  0  0  0  0  0  # atno 17343 bound_to 10162
  156.0227  130.3790  150.1912 LP  0  0  0  0  0  0  0  0  0  0  0  0  # atno 17370 bound_to 10713
  157.0102  130.9949  151.3368 LP  0  0  0  0  0  0  0  0  0  0  0  0  # atno 17371 bound_to 10713
  139.9239  134.8094  156.1126 LP  0  0  0  0  0  0  0  0  0  0  0  0  # atno 17394 bound_to 11000
  141.0883  133.6725  156.2484 LP  0  0  0  0  0  0  0  0  0  0  0  0  # atno 17395 bound_to 11000

$$$$
