AV-unprocessed.smi:1705|AV-procd|sdf|6882|dock8
  -GOLD-   22720 8 83D 1   1.00000     0.00000
 Structure written by MMmdl.
 38 39  0  0  0  0  0  0  0  0  1 V2000
  150.0187  141.4222  156.9654 C   0  0  0  0  0  0  0  0  0  0  0  0
  151.0906  140.6563  157.7561 C   0  0  2  0  0  0  0  0  0  0  0  0
  150.5628  139.3678  158.1795 N   0  0  0  0  0  0  0  0  0  0  0  0
  150.5638  138.1879  157.4421 C   0  0  0  0  0  0  0  0  0  0  0  0
  151.0861  138.1253  156.1848 C   0  0  0  0  0  0  0  0  0  0  0  0
  151.6321  139.2528  155.4971 C   0  0  0  0  0  0  0  0  0  0  0  0
  152.0681  140.1520  154.9118 N   0  0  0  0  0  0  0  0  0  0  0  0
  151.0989  136.8849  155.4122 C   0  0  0  0  0  0  0  0  0  0  0  0
  151.5676  136.7885  154.2754 O   0  0  0  0  0  0  0  0  0  0  0  0
  150.5321  135.7735  156.0678 N   0  0  0  0  0  0  0  0  0  0  0  0
  150.5419  134.5220  155.3360 C   0  0  0  0  0  0  0  0  0  0  0  0
  149.9884  135.8093  157.3687 C   0  0  0  0  0  0  0  0  0  0  0  0
  149.5228  134.7997  157.9059 O   0  0  0  0  0  0  0  0  0  0  0  0
  150.0023  137.0561  158.0413 N   0  0  0  0  0  0  0  0  0  0  0  0
  149.4373  137.0266  159.3757 C   0  0  0  0  0  0  0  0  0  0  0  0
  151.5779  141.4402  158.9886 C   0  0  2  0  0  0  0  0  0  0  0  0
  152.1350  142.8307  158.6876 C   0  0  0  0  0  0  0  0  0  0  0  0
  153.0411  143.1066  159.8754 C   0  0  0  0  0  0  0  0  0  0  0  0
  153.3359  141.7163  160.4465 C   0  0  0  0  0  0  0  0  0  0  0  0
  152.7100  140.7999  159.5583 O   0  0  0  0  0  0  0  0  0  0  0  0
  150.4124  142.3556  156.5631 H   0  0  0  0  0  0  0  0  0  0  0  0
  149.1618  141.6651  157.5946 H   0  0  0  0  0  0  0  0  0  0  0  0
  149.6520  140.8360  156.1230 H   0  0  0  0  0  0  0  0  0  0  0  0
  151.9506  140.4940  157.1071 H   0  0  0  0  0  0  0  0  0  0  0  0
  150.6740  139.2271  159.1733 H   0  0  0  0  0  0  0  0  0  0  0  0
  149.9991  133.7419  155.8683 H   0  0  0  0  0  0  0  0  0  0  0  0
  151.5868  134.2343  155.2088 H   0  0  0  0  0  0  0  0  0  0  0  0
  150.0579  134.6998  154.3739 H   0  0  0  0  0  0  0  0  0  0  0  0
  150.0905  136.4034  159.9888 H   0  0  0  0  0  0  0  0  0  0  0  0
  148.4292  136.6134  159.3044 H   0  0  0  0  0  0  0  0  0  0  0  0
  149.3789  138.0295  159.7921 H   0  0  0  0  0  0  0  0  0  0  0  0
  150.7895  141.5086  159.7410 H   0  0  0  0  0  0  0  0  0  0  0  0
  152.7280  142.8074  157.7722 H   0  0  0  0  0  0  0  0  0  0  0  0
  151.3559  143.5839  158.5674 H   0  0  0  0  0  0  0  0  0  0  0  0
  153.9489  143.6289  159.5721 H   0  0  0  0  0  0  0  0  0  0  0  0
  152.5323  143.7206  160.6195 H   0  0  0  0  0  0  0  0  0  0  0  0
  154.4046  141.5130  160.5166 H   0  0  0  0  0  0  0  0  0  0  0  0
  152.9028  141.6095  161.4420 H   0  0  0  0  0  0  0  0  0  0  0  0
  1  2  1  0  0  0  0
  1 21  1  0  0  0  0
  1 22  1  0  0  0  0
  1 23  1  0  0  0  0
  2  3  1  0  0  0  0
  2 16  1  0  0  0  0
  2 24  1  0  0  0  0
  3  4  1  0  0  0  0
  3 25  1  0  0  0  0
  4 14  1  0  0  0  0
  4  5  2  0  0  0  0
  5  6  1  0  0  0  0
  5  8  1  0  0  0  0
  6  7  3  0  0  0  0
  8  9  2  0  0  0  0
  8 10  1  0  0  0  0
 10 11  1  0  0  0  0
 10 12  1  0  0  0  0
 11 26  1  0  0  0  0
 11 27  1  0  0  0  0
 11 28  1  0  0  0  0
 12 13  2  0  0  0  0
 12 14  1  0  0  0  0
 14 15  1  0  0  0  0
 15 29  1  0  0  0  0
 15 30  1  0  0  0  0
 15 31  1  0  0  0  0
 16 20  1  0  0  0  0
 16 17  1  0  0  0  0
 16 32  1  0  0  0  0
 17 18  1  0  0  0  0
 17 33  1  0  0  0  0
 17 34  1  0  0  0  0
 18 19  1  0  0  0  0
 18 35  1  0  0  0  0
 18 36  1  0  0  0  0
 19 20  1  0  0  0  0
 19 37  1  0  0  0  0
 19 38  1  0  0  0  0
M  END
> <s_m_source_file>
AV-unprocessed.smi

> <i_m_source_file_index>
1705

> <i_lp_mmshare_version>
43012

> <i_f3d_flags>
0

> <s_epik_input>
TzFbQ0gyXVtDSDJdW0NIMl1bQ0BIXTFbQ0BIXShbQ0gzXSlbTkhdYzJjKEMjTiljKD1PKW4oW0NIM10pYyg9TyluMltDSDNd

> <s_epik_cmdline>
J2VwaWtfcHl0aG9uJywgJy1waCcsICc3LjAnLCAnLXRuJywgJzgnLCAnLW1hJywgJzIwMCcsICctbWV0YWxfYmluZGluZycsICctaW1hZScsICc8aW5maWxlLm1hZT4nLCAnLW9tYWUnLCAnPG91dGZpbGUubWFlPic=

> <r_epik_Ionization_Penalty>
0.000446268

> <r_epik_Ionization_Penalty_Charging>
9.41922e-10

> <r_epik_Ionization_Penalty_Neutral>
0.000446267

> <r_epik_State_Penalty>
0.000275531

> <r_epik_Charging_Adjusted_Penalty>
0.000275532

> <i_epik_Tot_Q>
0

> <i_epik_Tot_abs_Q>
0

> <r_epik_Metal_State_Penalty>
-0

> <b_epik_Metal_Only>
0

> <s_lp_Force_Field>
OPLS_2005

> <r_lp_Energy>
37.8394

> <b_lp_Chiralities_Consistent>
1

> <s_lp_Variant>
AV-unprocessed.smi:1705-1

> <Gold.Version>
5.8.1

> <Gold.Id.Protein>
6NUR|6NUR_protein|mol2

> <Gold.PLP.Fitness>
39.3288

> <Gold.PLP.PLP>
-31.8089

> <Gold.PLP.part.hbond>
-3.0000

> <Gold.PLP.part.metal>
0.0000

> <Gold.PLP.part.buried>
-6.1192

> <Gold.PLP.part.nonpolar>
-24.9214

> <Gold.PLP.part.repulsive>
1.0950

> <Gold.PLP.ligand.clash>
9.0766

> <Gold.PLP.ligand.torsion>
0.4067

> <Gold.PLP.Chemscore.Hbond>
2.7680

> <Gold.PLP.Chemscore.CHOScore>
0.0000

> <Gold.PLP.Chemscore.Metal>
0.0000

> <Gold.Chemscore.Hbonds>
donor molecule, donor type, donor heavy atom, donor atom, acceptor molecule, acceptor atom, score
      P1  H  6896  6908       L1    13  1.00
      P1  H  7989  7998       L1     7  0.75
      P1  H 10752 10764       L1     9  1.00

> <Gold.PLP.Chemscore.Internal.Correction>
9.1059

> <Gold.Rescore>
     Score         DG    S(hbond)    S(metal)    S(lipo)     H(rot)  DE(clash)    DE(int)     intcor
     16.20     -19.04       2.82        0.00      63.45       1.28       0.01       2.83       ----

> <Gold.Chemscore.Fitness>
16.1988

> <Gold.Chemscore.DG>
-19.0352

> <Gold.Chemscore.ZeroCoef>
-5.4800

> <Gold.Chemscore.Hbond>
2.8152

> <Gold.Chemscore.Metal>
0.0000

> <Gold.Chemscore.Lipo>
63.4544

> <Gold.Chemscore.Internal_Hbond>
0.0000

> <Gold.Chemscore.DEClash>
0.0077

> <Gold.Chemscore.DEInternal>
2.8286

> <Gold.Chemscore.Rot>
1.2780

> <Gold.Chemscore.Internal.Correction>
   9.000000E+99

> <Gold.Chemscore.Hbonds>
donor molecule, donor type, donor heavy atom, donor atom, acceptor molecule, acceptor atom, score
      P1  H  6896  6908       L1    13  0.79
      P1  H  7989  7998       L1     7  0.75
      P1  H 10752 10764       L1     9  0.94

> <Gold.Chemscore.Hbond.Weighted>
-9.4027

> <Gold.Chemscore.Metal.Weighted>
-0.0000

> <Gold.Chemscore.Lipo.Weighted>
-7.4242

> <Gold.Chemscore.Internal_Hbond.Weighted>
0.0000

> <Gold.Chemscore.DEClash.Weighted>
0.0077

> <Gold.Chemscore.DEInternal.Weighted>
2.8286

> <Gold.Chemscore.Rot.Weighted>
3.2717

> <Gold.Chemscore.Internal.Correction.Weighted>
   9.000000E+99

> <Gold.Protein.RotatedTorsions>
[ 6907 6896 6895 6894 ] final  140.59 input  -60.11 | X-H torsion
[ 7974 7965 7964 7962 ] final  118.09 input  175.53 | X-H torsion
[ 8008 7997 7996 7995 ] final  178.84 input   59.86 | X-H torsion
[ 10167 10162 10161 10158 ] final   96.67 input  -65.29 | X-H torsion
[ 10718 10713 10712 10709 ] final  -23.11 input   66.30 | X-H torsion
[ 10763 10752 10751 10750 ] final  -93.16 input  -60.55 | X-H torsion
[ 11005 11000 10999 10996 ] final  -11.03 input  -57.11 | X-H torsion

> <Gold.Protein.ActiveResidues>
 VAL166  LYS551  ARG553  GLY616  TRP617  ASP618  TYR619  PRO620  LYS621  CYS622 
 ASP623  PHE694  ASN695  SER759  ASP760  ASP761  ALA762  ILE779  LEU786  VAL792 
 PHE793  MET794  SER795  GLU796  ALA797  LYS798  CYS799  TRP800  GLU811  SER814 

> <Gold.Protein.RotatedAtoms>
  152.2412  133.5137  159.5270 H   0  0  0  0  0  0  0  0  0  0  0  0  # atno 6907 bound_to 6896
  150.7065  134.1086  159.4001 H   0  0  0  0  0  0  0  0  0  0  0  0  # atno 6908 bound_to 6896
  151.9007  135.0379  160.0557 H   0  0  0  0  0  0  0  0  0  0  0  0  # atno 6909 bound_to 6896
  145.1594  139.3164  143.4525 H   0  0  0  0  0  0  0  0  0  0  0  0  # atno 7974 bound_to 7965
  156.0501  140.1323  157.0059 H   0  0  0  0  0  0  0  0  0  0  0  0  # atno 8008 bound_to 7997
  154.4431  140.1012  156.6435 H   0  0  0  0  0  0  0  0  0  0  0  0  # atno 8009 bound_to 7997
  155.5536  140.3463  155.4476 H   0  0  0  0  0  0  0  0  0  0  0  0  # atno 8010 bound_to 7997
  139.7872  144.6866  150.9941 H   0  0  0  0  0  0  0  0  0  0  0  0  # atno 10167 bound_to 10162
  156.4954  130.4576  149.6731 H   0  0  0  0  0  0  0  0  0  0  0  0  # atno 10718 bound_to 10713
  154.6931  135.5205  153.8421 H   0  0  0  0  0  0  0  0  0  0  0  0  # atno 10763 bound_to 10752
  153.0647  135.6581  154.0391 H   0  0  0  0  0  0  0  0  0  0  0  0  # atno 10764 bound_to 10752
  154.0262  135.2989  155.3354 H   0  0  0  0  0  0  0  0  0  0  0  0  # atno 10765 bound_to 10752
  140.7510  133.8592  155.9045 H   0  0  0  0  0  0  0  0  0  0  0  0  # atno 11005 bound_to 11000
  146.3484  140.1698  142.8590 LP  0  0  0  0  0  0  0  0  0  0  0  0  # atno 17320 bound_to 7965
  145.0347  140.8898  143.5088 LP  0  0  0  0  0  0  0  0  0  0  0  0  # atno 17321 bound_to 7965
  140.7820  143.4419  151.0539 LP  0  0  0  0  0  0  0  0  0  0  0  0  # atno 17342 bound_to 10162
  139.8097  143.7968  152.3170 LP  0  0  0  0  0  0  0  0  0  0  0  0  # atno 17343 bound_to 10162
  156.3385  130.7369  151.2310 LP  0  0  0  0  0  0  0  0  0  0  0  0  # atno 17370 bound_to 10713
  157.7469  131.0410  150.4626 LP  0  0  0  0  0  0  0  0  0  0  0  0  # atno 17371 bound_to 10713
  140.9751  134.1480  157.4543 LP  0  0  0  0  0  0  0  0  0  0  0  0  # atno 17394 bound_to 11000
  139.8787  134.9991  156.5939 LP  0  0  0  0  0  0  0  0  0  0  0  0  # atno 17395 bound_to 11000

$$$$
