AV-unprocessed.smi:899|AV-procd|sdf|4088|dock9
  -GOLD-   22720 1573D 1   1.00000     0.00000
 Structure written by MMmdl.
 32 33  0  0  0  0  0  0  0  0  2 V2000
  154.4718  141.9724  163.4140 N   0  0  0  0  0  0  0  0  0  0  0  0
  153.6774  142.5089  162.7659 C   0  0  0  0  0  0  0  0  0  0  0  0
  152.6678  143.1914  161.9423 C   0  0  0  0  0  0  0  0  0  0  0  0
  152.4822  142.5206  160.5970 C   0  0  0  0  0  0  0  0  0  0  0  0
  153.2602  141.3974  160.2550 C   0  0  0  0  0  0  0  0  0  0  0  0
  153.0865  140.7721  159.0057 C   0  0  0  0  0  0  0  0  0  0  0  0
  152.1366  141.2543  158.0819 C   0  0  0  0  0  0  0  0  0  0  0  0
  152.0293  140.5787  156.8852 O   0  0  0  0  0  0  0  0  0  0  0  0
  151.0409  141.0056  155.9578 C   0  0  0  0  0  0  0  0  0  0  0  0
  151.1871  140.1805  154.6710 C   0  0  0  0  0  0  0  0  0  0  0  0
  151.1477  138.7392  154.9510 N   0  0  0  0  0  0  0  0  0  0  0  0
  149.9284  138.0702  154.7500 C   0  0  0  0  0  0  0  0  0  0  0  0
  149.7898  136.7507  154.9842 C   0  0  0  0  0  0  0  0  0  0  0  0
  148.2780  135.9545  154.7285 Cl  0  0  0  0  0  0  0  0  0  0  0  0
  150.9567  136.0132  155.4644 C   0  0  0  0  0  0  0  0  0  0  0  0
  150.8659  134.8062  155.6847 O   0  0  0  0  0  0  0  0  0  0  0  0
  152.1152  136.7111  155.6512 N   0  5  0  0  0  0  0  0  0  0  0  0
  152.2361  138.0531  155.4102 C   0  0  0  0  0  0  0  0  0  0  0  0
  153.2897  138.6629  155.5949 O   0  0  0  0  0  0  0  0  0  0  0  0
  151.3582  142.3869  158.4318 C   0  0  0  0  0  0  0  0  0  0  0  0
  151.5320  143.0137  159.6812 C   0  0  0  0  0  0  0  0  0  0  0  0
  151.7229  143.1952  162.4863 H   0  0  0  0  0  0  0  0  0  0  0  0
  152.9753  144.2294  161.8108 H   0  0  0  0  0  0  0  0  0  0  0  0
  153.9924  141.0132  160.9501 H   0  0  0  0  0  0  0  0  0  0  0  0
  153.6880  139.9111  158.7532 H   0  0  0  0  0  0  0  0  0  0  0  0
  150.0438  140.8645  156.3784 H   0  0  0  0  0  0  0  0  0  0  0  0
  151.1703  142.0658  155.7339 H   0  0  0  0  0  0  0  0  0  0  0  0
  150.3915  140.4488  153.9747 H   0  0  0  0  0  0  0  0  0  0  0  0
  152.1141  140.4455  154.1598 H   0  0  0  0  0  0  0  0  0  0  0  0
  149.1176  138.6923  154.3999 H   0  0  0  0  0  0  0  0  0  0  0  0
  150.6193  142.7944  157.7586 H   0  0  0  0  0  0  0  0  0  0  0  0
  150.9314  143.8752  159.9344 H   0  0  0  0  0  0  0  0  0  0  0  0
  1  2  3  0  0  0  0
  2  3  1  0  0  0  0
  3  4  1  0  0  0  0
  3 22  1  0  0  0  0
  3 23  1  0  0  0  0
  4 21  1  0  0  0  0
  4  5  2  0  0  0  0
  5  6  1  0  0  0  0
  5 24  1  0  0  0  0
  6  7  2  0  0  0  0
  6 25  1  0  0  0  0
  7  8  1  0  0  0  0
  7 20  1  0  0  0  0
  8  9  1  0  0  0  0
  9 10  1  0  0  0  0
  9 26  1  0  0  0  0
  9 27  1  0  0  0  0
 10 11  1  0  0  0  0
 10 28  1  0  0  0  0
 10 29  1  0  0  0  0
 11 18  1  0  0  0  0
 11 12  1  0  0  0  0
 12 13  2  0  0  0  0
 12 30  1  0  0  0  0
 13 14  1  0  0  0  0
 13 15  1  0  0  0  0
 15 16  2  0  0  0  0
 15 17  1  0  0  0  0
 17 18  1  0  0  0  0
 18 19  2  0  0  0  0
 20 21  2  0  0  0  0
 20 31  1  0  0  0  0
 21 32  1  0  0  0  0
M  CHG  1  17  -1
M  END
> <s_m_source_file>
AV-unprocessed.smi

> <i_m_source_file_index>
899

> <i_lp_mmshare_version>
43012

> <i_f3d_flags>
0

> <s_epik_input>
TiNDW0NIMl1jMVtjSF1bY0hdYyhbY0hdW2NIXTEpT1tDSDJdW0NIMl1uMltjSF1jKENsKWMoPU8pW25IXWMyPU8=

> <s_epik_cmdline>
J2VwaWtfcHl0aG9uJywgJy1waCcsICc3LjAnLCAnLXRuJywgJzgnLCAnLW1hJywgJzIwMCcsICctbWV0YWxfYmluZGluZycsICctaW1hZScsICc8aW5maWxlLm1hZT4nLCAnLW9tYWUnLCAnPG91dGZpbGUubWFlPic=

> <r_lp_tautomer_probability>
1

> <r_epik_Ionization_Penalty>
1.54028

> <r_epik_Ionization_Penalty_Charging>
7.31917e-09

> <r_epik_Ionization_Penalty_Neutral>
1.54028

> <r_epik_State_Penalty>
1.63364

> <r_epik_Charging_Adjusted_Penalty>
1.63364

> <i_epik_Tot_Q>
-1

> <i_epik_Tot_abs_Q>
1

> <r_epik_Metal_State_Penalty>
0.00867927

> <b_epik_Metal_Only>
0

> <s_lp_Force_Field>
OPLS_2005

> <r_lp_Energy>
21.9466

> <b_lp_Chiralities_Consistent>
1

> <s_lp_Variant>
AV-unprocessed.smi:899-2

> <Gold.Version>
5.8.1

> <Gold.Id.Protein>
6NUR|6NUR_protein|mol2

> <Gold.PLP.Fitness>
47.7022

> <Gold.PLP.PLP>
-39.5426

> <Gold.PLP.part.hbond>
-3.1300

> <Gold.PLP.part.metal>
0.0000

> <Gold.PLP.part.buried>
-1.3093

> <Gold.PLP.part.nonpolar>
-33.3982

> <Gold.PLP.part.repulsive>
0.0625

> <Gold.PLP.ligand.clash>
0.0000

> <Gold.PLP.ligand.torsion>
0.3194

> <Gold.PLP.Chemscore.Hbond>
2.9280

> <Gold.PLP.Chemscore.CHOScore>
0.0000

> <Gold.PLP.Chemscore.Metal>
0.0000

> <Gold.Chemscore.Hbonds>
donor molecule, donor type, donor heavy atom, donor atom, acceptor molecule, acceptor atom, score
      P1  H  7997  8008       L1    19  0.91
      P1  H 10752 10765       L1    17  1.60

> <Gold.PLP.Chemscore.Internal.Correction>
0.0144

> <Gold.Rescore>
     Score         DG    S(hbond)    S(metal)    S(lipo)     H(rot)  DE(clash)    DE(int)     intcor
     10.33     -13.67       1.03        0.00      89.73       2.25       0.24       3.11       ----

> <Gold.Chemscore.Fitness>
10.3272

> <Gold.Chemscore.DG>
-13.6694

> <Gold.Chemscore.ZeroCoef>
-5.4800

> <Gold.Chemscore.Hbond>
1.0325

> <Gold.Chemscore.Metal>
0.0000

> <Gold.Chemscore.Lipo>
89.7304

> <Gold.Chemscore.Internal_Hbond>
0.0000

> <Gold.Chemscore.DEClash>
0.2368

> <Gold.Chemscore.DEInternal>
3.1054

> <Gold.Chemscore.Rot>
2.2491

> <Gold.Chemscore.Internal.Correction>
   9.000000E+99

> <Gold.Chemscore.Hbonds>
donor molecule, donor type, donor heavy atom, donor atom, acceptor molecule, acceptor atom, score
      P1  H  7997  8008       L1    19  0.88
      P1  H 10752 10765       L1    17  0.13

> <Gold.Chemscore.Hbond.Weighted>
-3.4486

> <Gold.Chemscore.Metal.Weighted>
-0.0000

> <Gold.Chemscore.Lipo.Weighted>
-10.4985

> <Gold.Chemscore.Internal_Hbond.Weighted>
0.0000

> <Gold.Chemscore.DEClash.Weighted>
0.2368

> <Gold.Chemscore.DEInternal.Weighted>
3.1054

> <Gold.Chemscore.Rot.Weighted>
5.7576

> <Gold.Chemscore.Internal.Correction.Weighted>
   9.000000E+99

> <Gold.Protein.RotatedTorsions>
[ 6907 6896 6895 6894 ] final   98.78 input  -60.11 | X-H torsion
[ 7974 7965 7964 7962 ] final   76.18 input  175.53 | X-H torsion
[ 8008 7997 7996 7995 ] final  -42.51 input   59.86 | X-H torsion
[ 10167 10162 10161 10158 ] final  -78.16 input  -65.29 | X-H torsion
[ 10718 10713 10712 10709 ] final -155.56 input   66.30 | X-H torsion
[ 10763 10752 10751 10750 ] final -146.79 input  -60.55 | X-H torsion
[ 11005 11000 10999 10996 ] final -142.43 input  -57.11 | X-H torsion

> <Gold.Protein.ActiveResidues>
 VAL166  LYS551  ARG553  GLY616  TRP617  ASP618  TYR619  PRO620  LYS621  CYS622 
 ASP623  PHE694  ASN695  SER759  ASP760  ASP761  ALA762  ILE779  LEU786  VAL792 
 PHE793  MET794  SER795  GLU796  ALA797  LYS798  CYS799  TRP800  GLU811  SER814 

> <Gold.Protein.RotatedAtoms>
  152.5403  134.0528  159.8117 H   0  0  0  0  0  0  0  0  0  0  0  0  # atno 6907 bound_to 6896
  151.0667  133.5492  159.2637 H   0  0  0  0  0  0  0  0  0  0  0  0  # atno 6908 bound_to 6896
  151.2370  135.0583  159.9064 H   0  0  0  0  0  0  0  0  0  0  0  0  # atno 6909 bound_to 6896
  145.7061  139.2599  143.1677 H   0  0  0  0  0  0  0  0  0  0  0  0  # atno 7974 bound_to 7965
  154.3999  140.1472  156.3366 H   0  0  0  0  0  0  0  0  0  0  0  0  # atno 8008 bound_to 7997
  155.8394  140.3462  155.5601 H   0  0  0  0  0  0  0  0  0  0  0  0  # atno 8009 bound_to 7997
  155.8103  140.0883  157.1898 H   0  0  0  0  0  0  0  0  0  0  0  0  # atno 8010 bound_to 7997
  140.4706  143.2428  151.8210 H   0  0  0  0  0  0  0  0  0  0  0  0  # atno 10167 bound_to 10162
  156.5145  130.8450  151.2659 H   0  0  0  0  0  0  0  0  0  0  0  0  # atno 10718 bound_to 10713
  154.8319  135.3377  154.6716 H   0  0  0  0  0  0  0  0  0  0  0  0  # atno 10763 bound_to 10752
  153.7335  135.6950  153.4988 H   0  0  0  0  0  0  0  0  0  0  0  0  # atno 10764 bound_to 10752
  153.2295  135.4421  155.0531 H   0  0  0  0  0  0  0  0  0  0  0  0  # atno 10765 bound_to 10752
  140.8226  134.2612  157.4893 H   0  0  0  0  0  0  0  0  0  0  0  0  # atno 11005 bound_to 11000
  146.0754  140.7823  142.9667 LP  0  0  0  0  0  0  0  0  0  0  0  0  # atno 17320 bound_to 7965
  144.6955  140.3407  143.7200 LP  0  0  0  0  0  0  0  0  0  0  0  0  # atno 17321 bound_to 7965
  139.4818  144.4896  151.9202 LP  0  0  0  0  0  0  0  0  0  0  0  0  # atno 17342 bound_to 10162
  140.3981  144.2528  150.5895 LP  0  0  0  0  0  0  0  0  0  0  0  0  # atno 17343 bound_to 10162
  157.7446  130.9938  150.2685 LP  0  0  0  0  0  0  0  0  0  0  0  0  # atno 17370 bound_to 10713
  156.3208  130.3785  149.7577 LP  0  0  0  0  0  0  0  0  0  0  0  0  # atno 17371 bound_to 10713
  139.8708  134.9543  156.4173 LP  0  0  0  0  0  0  0  0  0  0  0  0  # atno 17394 bound_to 11000
  140.9083  133.7730  155.9761 LP  0  0  0  0  0  0  0  0  0  0  0  0  # atno 17395 bound_to 11000

$$$$
