AV-unprocessed.smi:1199|AV-procd|sdf|5020|dock7
  -GOLD-   22720 4 43D 1   1.00000     0.00000
 Structure written by MMmdl.
 42 43  0  0  0  0  0  0  0  0  2 V2000
  145.4649  142.9878  154.7672 C   0  0  0  0  0  0  0  0  0  0  0  0
  146.3657  142.0663  155.6006 C   0  0  2  0  0  0  0  0  0  0  0  0
  147.0381  140.9843  154.7227 C   0  0  0  0  0  0  0  0  0  0  0  0
  148.3506  140.5285  155.2507 N   0  3  0  0  0  0  0  0  0  0  0  0
  149.0061  139.5210  154.3840 C   0  0  0  0  0  0  0  0  0  0  0  0
  150.3259  139.0431  155.0165 C   0  0  0  0  0  0  0  0  0  0  0  0
  151.1734  140.1568  155.2708 O   0  0  0  0  0  0  0  0  0  0  0  0
  150.5793  141.0844  156.1708 C   0  0  0  0  0  0  0  0  0  0  0  0
  149.2877  141.6384  155.5486 C   0  0  0  0  0  0  0  0  0  0  0  0
  145.5753  141.4520  156.6674 N   0  0  0  0  0  0  0  0  0  0  0  0
  145.6445  141.7601  157.9722 C   0  0  0  0  0  0  0  0  0  0  0  0
  146.3426  142.6703  158.4189 O   0  0  0  0  0  0  0  0  0  0  0  0
  144.8133  140.8904  158.9230 C   0  0  0  0  0  0  0  0  0  0  0  0
  144.2626  141.6741  160.0379 N   0  0  0  0  0  0  0  0  0  0  0  0
  142.8778  141.7355  160.0612 N   0  0  0  0  0  0  0  0  0  0  0  0
  142.2788  142.4222  160.9744 C   0  0  0  0  0  0  0  0  0  0  0  0
  140.9064  142.4586  160.9587 O   0  0  0  0  0  0  0  0  0  0  0  0
  143.0265  143.1352  161.9869 C   0  0  0  0  0  0  0  0  0  0  0  0
  144.3754  143.0634  161.9607 C   0  0  0  0  0  0  0  0  0  0  0  0
  145.0864  142.2929  160.9395 C   0  0  0  0  0  0  0  0  0  0  0  0
  146.3142  142.2158  160.8852 O   0  0  0  0  0  0  0  0  0  0  0  0
  140.6598  142.2556  160.0694 H   0  0  0  0  0  0  0  0  0  0  0  0
  146.0335  143.4817  153.9788 H   0  0  0  0  0  0  0  0  0  0  0  0
  145.0190  143.7668  155.3867 H   0  0  0  0  0  0  0  0  0  0  0  0
  144.6535  142.4334  154.2944 H   0  0  0  0  0  0  0  0  0  0  0  0
  147.1404  142.6978  156.0376 H   0  0  0  0  0  0  0  0  0  0  0  0
  146.3662  140.1258  154.6729 H   0  0  0  0  0  0  0  0  0  0  0  0
  147.1556  141.3366  153.6969 H   0  0  0  0  0  0  0  0  0  0  0  0
  148.3419  138.6683  154.2374 H   0  0  0  0  0  0  0  0  0  0  0  0
  149.1970  139.9543  153.4009 H   0  0  0  0  0  0  0  0  0  0  0  0
  150.1432  138.4977  155.9426 H   0  0  0  0  0  0  0  0  0  0  0  0
  150.8377  138.3567  154.3419 H   0  0  0  0  0  0  0  0  0  0  0  0
  150.3771  140.6056  157.1308 H   0  0  0  0  0  0  0  0  0  0  0  0
  151.2837  141.8945  156.3598 H   0  0  0  0  0  0  0  0  0  0  0  0
  149.5184  142.1814  154.6308 H   0  0  0  0  0  0  0  0  0  0  0  0
  148.8322  142.3529  156.2330 H   0  0  0  0  0  0  0  0  0  0  0  0
  144.9608  140.6974  156.3967 H   0  0  0  0  0  0  0  0  0  0  0  0
  144.0123  140.4246  158.3461 H   0  0  0  0  0  0  0  0  0  0  0  0
  145.4156  140.0672  159.3121 H   0  0  0  0  0  0  0  0  0  0  0  0
  142.5086  143.7069  162.7432 H   0  0  0  0  0  0  0  0  0  0  0  0
  144.9460  143.5896  162.7117 H   0  0  0  0  0  0  0  0  0  0  0  0
  148.1577  140.0622  156.1262 H   0  0  0  0  0  0  0  0  0  0  0  0
  1  2  1  0  0  0  0
  1 23  1  0  0  0  0
  1 24  1  0  0  0  0
  1 25  1  0  0  0  0
  2  3  1  0  0  0  0
  2 10  1  0  0  0  0
  2 26  1  0  0  0  0
  3  4  1  0  0  0  0
  3 27  1  0  0  0  0
  3 28  1  0  0  0  0
  4  9  1  0  0  0  0
  4  5  1  0  0  0  0
  4 42  1  0  0  0  0
  5  6  1  0  0  0  0
  5 29  1  0  0  0  0
  5 30  1  0  0  0  0
  6  7  1  0  0  0  0
  6 31  1  0  0  0  0
  6 32  1  0  0  0  0
  7  8  1  0  0  0  0
  8  9  1  0  0  0  0
  8 33  1  0  0  0  0
  8 34  1  0  0  0  0
  9 35  1  0  0  0  0
  9 36  1  0  0  0  0
 10 11  1  0  0  0  0
 10 37  1  0  0  0  0
 11 12  2  0  0  0  0
 11 13  1  0  0  0  0
 13 38  1  0  0  0  0
 13 39  1  0  0  0  0
 13 14  1  0  0  0  0
 14 15  1  0  0  0  0
 14 20  1  0  0  0  0
 15 16  2  0  0  0  0
 16 17  1  0  0  0  0
 16 18  1  0  0  0  0
 17 22  1  0  0  0  0
 18 40  1  0  0  0  0
 18 19  2  0  0  0  0
 19 41  1  0  0  0  0
 19 20  1  0  0  0  0
 20 21  2  0  0  0  0
M  CHG  1   4   1
M  END
> <s_m_source_file>
AV-unprocessed.smi

> <i_m_source_file_index>
1199

> <i_lp_mmshare_version>
43012

> <i_f3d_flags>
0

> <s_epik_input>
W0NIMl0xW0NIMl1PW0NIMl1bQ0gyXU4xW0NIMl1bQ0BASF0oW0NIM10pW05IXUMoPU8pW0NIMl1uMltuSF1jKD1PKVtjSF1bY0hdYzI9Tw==

> <s_epik_cmdline>
J2VwaWtfcHl0aG9uJywgJy1waCcsICc3LjAnLCAnLXRuJywgJzgnLCAnLW1hJywgJzIwMCcsICctbWV0YWxfYmluZGluZycsICctaW1hZScsICc8aW5maWxlLm1hZT4nLCAnLW9tYWUnLCAnPG91dGZpbGUubWFlPic=

> <r_lp_tautomer_probability>
0.9996

> <r_epik_Ionization_Penalty>
2.86815

> <r_epik_Ionization_Penalty_Charging>
0.656653

> <r_epik_Ionization_Penalty_Neutral>
2.21149

> <r_epik_State_Penalty>
2.43136

> <r_epik_Charging_Adjusted_Penalty>
3.08801

> <i_epik_Tot_Q>
1

> <i_epik_Tot_abs_Q>
1

> <r_epik_Metal_State_Penalty>
2.43136

> <b_epik_Metal_Only>
0

> <s_lp_Force_Field>
OPLS_2005

> <r_lp_Energy>
31.3185

> <b_lp_Chiralities_Consistent>
1

> <s_lp_Variant>
AV-unprocessed.smi:1199-7

> <Gold.Version>
5.8.1

> <Gold.Id.Protein>
6NUR|6NUR_protein|mol2

> <Gold.PLP.Fitness>
39.1447

> <Gold.PLP.PLP>
-32.3225

> <Gold.PLP.part.hbond>
-4.0000

> <Gold.PLP.part.metal>
0.0000

> <Gold.PLP.part.buried>
-5.6264

> <Gold.PLP.part.nonpolar>
-24.7420

> <Gold.PLP.part.repulsive>
0.2567

> <Gold.PLP.ligand.clash>
0.0000

> <Gold.PLP.ligand.torsion>
0.8075

> <Gold.PLP.Chemscore.Hbond>
2.7920

> <Gold.PLP.Chemscore.CHOScore>
0.0000

> <Gold.PLP.Chemscore.Metal>
0.0000

> <Gold.Chemscore.Hbonds>
donor molecule, donor type, donor heavy atom, donor atom, acceptor molecule, acceptor atom, score
      P1  H  6933  6944       L1    21  0.26
      P1  H  6934  6946       L1    21  0.88
      P1  H  7989  7998       L1     7  1.00

> <Gold.PLP.Chemscore.Internal.Correction>
0.0613

> <Gold.Rescore>
     Score         DG    S(hbond)    S(metal)    S(lipo)     H(rot)  DE(clash)    DE(int)     intcor
      8.65     -12.26       2.35        0.00      57.21       3.03       0.05       3.56       ----

> <Gold.Chemscore.Fitness>
8.6544

> <Gold.Chemscore.DG>
-12.2556

> <Gold.Chemscore.ZeroCoef>
-5.4800

> <Gold.Chemscore.Hbond>
2.3498

> <Gold.Chemscore.Metal>
0.0000

> <Gold.Chemscore.Lipo>
57.2071

> <Gold.Chemscore.Internal_Hbond>
0.0000

> <Gold.Chemscore.DEClash>
0.0456

> <Gold.Chemscore.DEInternal>
3.5556

> <Gold.Chemscore.Rot>
3.0336

> <Gold.Chemscore.Internal.Correction>
   9.000000E+99

> <Gold.Chemscore.Hbonds>
donor molecule, donor type, donor heavy atom, donor atom, acceptor molecule, acceptor atom, score
      P1  H  6933  6944       L1    21  0.26
      P1  H  6934  6946       L1    21  0.79
      P1  H  7989  7998       L1     7  0.48

> <Gold.Chemscore.Hbond.Weighted>
-7.8485

> <Gold.Chemscore.Metal.Weighted>
-0.0000

> <Gold.Chemscore.Lipo.Weighted>
-6.6932

> <Gold.Chemscore.Internal_Hbond.Weighted>
0.0000

> <Gold.Chemscore.DEClash.Weighted>
0.0456

> <Gold.Chemscore.DEInternal.Weighted>
3.5556

> <Gold.Chemscore.Rot.Weighted>
7.7661

> <Gold.Chemscore.Internal.Correction.Weighted>
   9.000000E+99

> <Gold.Protein.RotatedTorsions>
[ 6907 6896 6895 6894 ] final -102.07 input  -60.11 | X-H torsion
[ 7974 7965 7964 7962 ] final  141.10 input  175.53 | X-H torsion
[ 8008 7997 7996 7995 ] final  -96.65 input   59.86 | X-H torsion
[ 10167 10162 10161 10158 ] final  -46.68 input  -65.29 | X-H torsion
[ 10718 10713 10712 10709 ] final  167.00 input   66.30 | X-H torsion
[ 10763 10752 10751 10750 ] final  -10.44 input  -60.55 | X-H torsion
[ 11005 11000 10999 10996 ] final -108.28 input  -57.11 | X-H torsion

> <Gold.Protein.ActiveResidues>
 VAL166  LYS551  ARG553  GLY616  TRP617  ASP618  TYR619  PRO620  LYS621  CYS622 
 ASP623  PHE694  ASN695  SER759  ASP760  ASP761  ALA762  ILE779  LEU786  VAL792 
 PHE793  MET794  SER795  GLU796  ALA797  LYS798  CYS799  TRP800  GLU811  SER814 

> <Gold.Protein.RotatedAtoms>
  150.7180  134.0637  159.3840 H   0  0  0  0  0  0  0  0  0  0  0  0  # atno 6907 bound_to 6896
  151.8618  135.0519  160.0479 H   0  0  0  0  0  0  0  0  0  0  0  0  # atno 6908 bound_to 6896
  152.2711  133.5348  159.5476 H   0  0  0  0  0  0  0  0  0  0  0  0  # atno 6909 bound_to 6896
  144.9127  139.5272  143.5701 H   0  0  0  0  0  0  0  0  0  0  0  0  # atno 7974 bound_to 7965
  154.7772  140.0469  157.1098 H   0  0  0  0  0  0  0  0  0  0  0  0  # atno 8008 bound_to 7997
  154.9748  140.3094  155.4952 H   0  0  0  0  0  0  0  0  0  0  0  0  # atno 8009 bound_to 7997
  156.2931  140.2246  156.4843 H   0  0  0  0  0  0  0  0  0  0  0  0  # atno 8010 bound_to 7997
  140.6807  143.2819  151.3818 H   0  0  0  0  0  0  0  0  0  0  0  0  # atno 10167 bound_to 10162
  157.0579  131.0331  151.2657 H   0  0  0  0  0  0  0  0  0  0  0  0  # atno 10718 bound_to 10713
  153.4692  135.7016  153.6003 H   0  0  0  0  0  0  0  0  0  0  0  0  # atno 10763 bound_to 10752
  153.4265  135.3813  155.2144 H   0  0  0  0  0  0  0  0  0  0  0  0  # atno 10764 bound_to 10752
  154.8725  135.3940  154.4128 H   0  0  0  0  0  0  0  0  0  0  0  0  # atno 10765 bound_to 10752
  141.0910  133.9055  157.2075 H   0  0  0  0  0  0  0  0  0  0  0  0  # atno 11005 bound_to 11000
  146.3166  139.7945  142.8978 LP  0  0  0  0  0  0  0  0  0  0  0  0  # atno 17320 bound_to 7965
  145.3428  141.0291  143.3383 LP  0  0  0  0  0  0  0  0  0  0  0  0  # atno 17321 bound_to 7965
  139.6128  144.1064  152.2315 LP  0  0  0  0  0  0  0  0  0  0  0  0  # atno 17342 bound_to 10162
  140.0484  144.5952  150.7356 LP  0  0  0  0  0  0  0  0  0  0  0  0  # atno 17343 bound_to 10162
  157.4978  130.7861  149.7573 LP  0  0  0  0  0  0  0  0  0  0  0  0  # atno 17370 bound_to 10713
  155.9987  130.3892  150.2690 LP  0  0  0  0  0  0  0  0  0  0  0  0  # atno 17371 bound_to 10713
  139.9736  135.0121  156.9575 LP  0  0  0  0  0  0  0  0  0  0  0  0  # atno 17394 bound_to 11000
  140.5252  134.0868  155.7302 LP  0  0  0  0  0  0  0  0  0  0  0  0  # atno 17395 bound_to 11000

$$$$
