AV-unprocessed.smi:221|AV-procd|sdf|1695|dock8
  -GOLD-   2262020143D 1   1.00000     0.00000
 Structure written by MMmdl.
 50 53  0  0  0  0  0  0  0  0  1 V2000
  148.6881  143.0090  157.8425 N   0  0  0  0  0  0  0  0  0  0  0  0
  149.6871  143.3025  158.6781 C   0  0  0  0  0  0  0  0  0  0  0  0
  149.5126  143.3998  159.8919 O   0  0  0  0  0  0  0  0  0  0  0  0
  151.0755  143.5163  158.0463 C   0  0  1  0  0  0  0  0  0  0  0  0
  151.6708  144.8885  158.4116 C   0  0  0  0  0  0  0  0  0  0  0  0
  152.5052  144.6350  159.6677 C   0  0  1  0  0  0  0  0  0  0  0  0
  151.7284  144.6902  160.7507 F   0  0  0  0  0  0  0  0  0  0  0  0
  153.0173  143.2074  159.4694 C   0  0  0  0  0  0  0  0  0  0  0  0
  152.0725  142.5732  158.5540 N   0  0  0  0  0  0  0  0  0  0  0  0
  152.1972  141.2735  158.1645 C   0  0  0  0  0  0  0  0  0  0  0  0
  152.9577  140.4525  158.9372 N   0  0  0  0  0  0  0  0  0  0  0  0
  153.1223  139.1669  158.6168 C   0  0  0  0  0  0  0  0  0  0  0  0
  152.6259  138.4986  157.5764 N   0  0  0  0  0  0  0  0  0  0  0  0
  151.8640  139.3094  156.7898 C   0  0  0  0  0  0  0  0  0  0  0  0
  151.5964  140.6938  157.0042 C   0  0  0  0  0  0  0  0  0  0  0  0
  150.7780  141.1641  155.9811 N   0  0  0  0  0  0  0  0  0  0  0  0
  150.5727  140.1270  155.2177 C   0  0  0  0  0  0  0  0  0  0  0  0
  151.1980  138.9726  155.6250 N   0  0  0  0  0  0  0  0  0  0  0  0
  151.1518  137.6760  154.9717 C   0  0  0  0  0  0  0  0  0  0  0  0
  149.9738  136.7965  155.4645 C   0  0  2  0  0  0  0  0  0  0  0  0
  148.6105  137.4571  155.1524 C   0  0  0  0  0  0  0  0  0  0  0  0
  148.6003  138.0231  153.8584 O   0  0  0  0  0  0  0  0  0  0  0  0
  150.0860  136.3923  156.9608 C   0  0  1  0  0  0  0  0  0  0  0  0
  149.7902  137.4883  157.9738 C   0  0  0  0  0  0  0  0  0  0  0  0
  149.4256  136.7096  159.2424 C   0  0  0  0  0  0  0  0  0  0  0  0
  149.2913  135.3440  158.8560 O   0  0  0  0  0  0  0  0  0  0  0  0
  149.1679  135.2709  157.4441 C   0  0  0  0  0  0  0  0  0  0  0  0
  150.9986  143.4485  156.9609 H   0  0  0  0  0  0  0  0  0  0  0  0
  153.3062  145.3614  159.8066 H   0  0  0  0  0  0  0  0  0  0  0  0
  147.7595  142.8572  158.2085 H   0  0  0  0  0  0  0  0  0  0  0  0
  148.8635  142.9373  156.8510 H   0  0  0  0  0  0  0  0  0  0  0  0
  152.3278  145.2191  157.6060 H   0  0  0  0  0  0  0  0  0  0  0  0
  150.9222  145.6692  158.5550 H   0  0  0  0  0  0  0  0  0  0  0  0
  154.0047  143.2209  159.0059 H   0  0  0  0  0  0  0  0  0  0  0  0
  153.0925  142.6740  160.4182 H   0  0  0  0  0  0  0  0  0  0  0  0
  153.7413  138.5924  159.2901 H   0  0  0  0  0  0  0  0  0  0  0  0
  149.9633  140.1791  154.3270 H   0  0  0  0  0  0  0  0  0  0  0  0
  151.0923  137.8582  153.9000 H   0  0  0  0  0  0  0  0  0  0  0  0
  152.1032  137.1733  155.1470 H   0  0  0  0  0  0  0  0  0  0  0  0
  150.0103  135.8679  154.8930 H   0  0  0  0  0  0  0  0  0  0  0  0
  147.7989  136.7345  155.2383 H   0  0  0  0  0  0  0  0  0  0  0  0
  148.3921  138.2630  155.8523 H   0  0  0  0  0  0  0  0  0  0  0  0
  148.9086  137.3752  153.2431 H   0  0  0  0  0  0  0  0  0  0  0  0
  151.1107  136.0733  157.1563 H   0  0  0  0  0  0  0  0  0  0  0  0
  150.6418  138.1527  158.1235 H   0  0  0  0  0  0  0  0  0  0  0  0
  148.9435  138.1030  157.6722 H   0  0  0  0  0  0  0  0  0  0  0  0
  150.2009  136.7948  160.0042 H   0  0  0  0  0  0  0  0  0  0  0  0
  148.4908  137.0737  159.6697 H   0  0  0  0  0  0  0  0  0  0  0  0
  148.1261  135.4488  157.1764 H   0  0  0  0  0  0  0  0  0  0  0  0
  149.4600  134.2898  157.0699 H   0  0  0  0  0  0  0  0  0  0  0  0
  1  2  1  0  0  0  0
  1 30  1  0  0  0  0
  1 31  1  0  0  0  0
  2  3  2  0  0  0  0
  2  4  1  0  0  0  0
  4 28  1  0  0  0  0
  4  9  1  0  0  0  0
  4  5  1  0  0  0  0
  5  6  1  0  0  0  0
  5 32  1  0  0  0  0
  5 33  1  0  0  0  0
  6 29  1  0  0  0  0
  6  7  1  0  0  0  0
  6  8  1  0  0  0  0
  8  9  1  0  0  0  0
  8 34  1  0  0  0  0
  8 35  1  0  0  0  0
  9 10  1  0  0  0  0
 10 15  1  0  0  0  0
 10 11  2  0  0  0  0
 11 12  1  0  0  0  0
 12 13  2  0  0  0  0
 12 36  1  0  0  0  0
 13 14  1  0  0  0  0
 14 18  1  0  0  0  0
 14 15  2  0  0  0  0
 15 16  1  0  0  0  0
 16 17  2  0  0  0  0
 17 18  1  0  0  0  0
 17 37  1  0  0  0  0
 18 19  1  0  0  0  0
 19 20  1  0  0  0  0
 19 38  1  0  0  0  0
 19 39  1  0  0  0  0
 20 21  1  0  0  0  0
 20 23  1  0  0  0  0
 20 40  1  0  0  0  0
 21 22  1  0  0  0  0
 21 41  1  0  0  0  0
 21 42  1  0  0  0  0
 22 43  1  0  0  0  0
 23 27  1  0  0  0  0
 23 24  1  0  0  0  0
 23 44  1  0  0  0  0
 24 25  1  0  0  0  0
 24 45  1  0  0  0  0
 24 46  1  0  0  0  0
 25 26  1  0  0  0  0
 25 47  1  0  0  0  0
 25 48  1  0  0  0  0
 26 27  1  0  0  0  0
 27 49  1  0  0  0  0
 27 50  1  0  0  0  0
M  END
> <s_m_source_file>
AV-unprocessed.smi

> <i_m_source_file_index>
221

> <i_lp_mmshare_version>
43012

> <i_f3d_flags>
0

> <s_epik_input>
W05IMl1DKD1PKVtDQEBIXTFbQ0gyXVtDQEBIXShGKVtDSDJdTjFjKG5bY0hdbjIpYyhjMjMpbltjSF1uM1tDSDJdW0NASF0oW0NIMl1bT0hdKVtDQEBIXTRbQ0gyXVtDSDJdT1tDSDJdNA==

> <s_epik_cmdline>
J2VwaWtfcHl0aG9uJywgJy1waCcsICc3LjAnLCAnLXRuJywgJzgnLCAnLW1hJywgJzIwMCcsICctbWV0YWxfYmluZGluZycsICctaW1hZScsICc8aW5maWxlLm1hZT4nLCAnLW9tYWUnLCAnPG91dGZpbGUubWFlPic=

> <r_lp_tautomer_probability>
1

> <r_epik_Ionization_Penalty>
0.000818822

> <r_epik_Ionization_Penalty_Charging>
0

> <r_epik_Ionization_Penalty_Neutral>
0.000818822

> <r_epik_State_Penalty>
0.000440551

> <r_epik_Charging_Adjusted_Penalty>
0.000440551

> <i_epik_Tot_Q>
0

> <i_epik_Tot_abs_Q>
0

> <r_epik_Metal_State_Penalty>
-0

> <b_epik_Metal_Only>
0

> <s_lp_Force_Field>
OPLS_2005

> <r_lp_Energy>
49.0425

> <b_lp_Chiralities_Consistent>
1

> <s_lp_Variant>
AV-unprocessed.smi:221-10

> <Gold.Version>
5.8.1

> <Gold.Id.Protein>
6NUR|6NUR_protein|mol2

> <Gold.PLP.Fitness>
50.4333

> <Gold.PLP.PLP>
-44.3098

> <Gold.PLP.part.hbond>
-5.0882

> <Gold.PLP.part.metal>
0.0000

> <Gold.PLP.part.buried>
-4.9951

> <Gold.PLP.part.nonpolar>
-34.2863

> <Gold.PLP.part.repulsive>
0.2193

> <Gold.PLP.ligand.clash>
0.0000

> <Gold.PLP.ligand.torsion>
0.7643

> <Gold.PLP.Chemscore.Hbond>
2.4898

> <Gold.PLP.Chemscore.CHOScore>
0.0000

> <Gold.PLP.Chemscore.Metal>
0.0000

> <Gold.Chemscore.Hbonds>
donor molecule, donor type, donor heavy atom, donor atom, acceptor molecule, acceptor atom, score
      L1  H     1    31       P1  8028  0.27
      L1  H    22    43       P1  7948  1.00
      P1  H  6896  6907       L1    26  1.00
      P1  H  6933  6944       L1     3  0.19

> <Gold.PLP.Chemscore.Internal.Correction>
0.1826

> <Gold.Rescore>
     Score         DG    S(hbond)    S(metal)    S(lipo)     H(rot)  DE(clash)    DE(int)     intcor
      9.69     -12.96       1.94        0.00      81.00       3.31       0.36       2.91       ----

> <Gold.Chemscore.Fitness>
9.6901

> <Gold.Chemscore.DG>
-12.9580

> <Gold.Chemscore.ZeroCoef>
-5.4800

> <Gold.Chemscore.Hbond>
1.9375

> <Gold.Chemscore.Metal>
0.0000

> <Gold.Chemscore.Lipo>
81.0046

> <Gold.Chemscore.Internal_Hbond>
0.0000

> <Gold.Chemscore.DEClash>
0.3552

> <Gold.Chemscore.DEInternal>
2.9127

> <Gold.Chemscore.Rot>
3.3089

> <Gold.Chemscore.Internal.Correction>
   9.000000E+99

> <Gold.Chemscore.Hbonds>
donor molecule, donor type, donor heavy atom, donor atom, acceptor molecule, acceptor atom, score
      L1  H     1    31       P1  8028  0.25
      L1  H    22    43       P1  7948  1.00
      P1  H  6896  6907       L1    26  0.65
      P1  H  6933  6944       L1     3  0.19

> <Gold.Chemscore.Hbond.Weighted>
-6.4714

> <Gold.Chemscore.Metal.Weighted>
-0.0000

> <Gold.Chemscore.Lipo.Weighted>
-9.4775

> <Gold.Chemscore.Internal_Hbond.Weighted>
0.0000

> <Gold.Chemscore.DEClash.Weighted>
0.3552

> <Gold.Chemscore.DEInternal.Weighted>
2.9127

> <Gold.Chemscore.Rot.Weighted>
8.4709

> <Gold.Chemscore.Internal.Correction.Weighted>
   9.000000E+99

> <Gold.Protein.RotatedTorsions>
[ 6907 6896 6895 6894 ] final  -88.20 input  -60.11 | X-H torsion
[ 7974 7965 7964 7962 ] final   81.93 input  175.53 | X-H torsion
[ 8008 7997 7996 7995 ] final  -29.09 input   59.86 | X-H torsion
[ 10167 10162 10161 10158 ] final   44.69 input  -65.29 | X-H torsion
[ 10718 10713 10712 10709 ] final  -97.64 input   66.30 | X-H torsion
[ 10763 10752 10751 10750 ] final  133.62 input  -60.55 | X-H torsion
[ 11005 11000 10999 10996 ] final  -87.69 input  -57.11 | X-H torsion

> <Gold.Protein.ActiveResidues>
 VAL166  LYS551  ARG553  GLY616  TRP617  ASP618  TYR619  PRO620  LYS621  CYS622 
 ASP623  PHE694  ASN695  SER759  ASP760  ASP761  ALA762  ILE779  LEU786  VAL792 
 PHE793  MET794  SER795  GLU796  ALA797  LYS798  CYS799  TRP800  GLU811  SER814 

> <Gold.Protein.RotatedAtoms>
  150.6868  134.2779  159.4614 H   0  0  0  0  0  0  0  0  0  0  0  0  # atno 6907 bound_to 6896
  152.0695  134.9540  160.0584 H   0  0  0  0  0  0  0  0  0  0  0  0  # atno 6908 bound_to 6896
  152.0935  133.4178  159.4591 H   0  0  0  0  0  0  0  0  0  0  0  0  # atno 6909 bound_to 6896
  145.6317  139.2406  143.2081 H   0  0  0  0  0  0  0  0  0  0  0  0  # atno 7974 bound_to 7965
  154.4304  140.1827  156.1193 H   0  0  0  0  0  0  0  0  0  0  0  0  # atno 8008 bound_to 7997
  156.0155  140.3346  155.6959 H   0  0  0  0  0  0  0  0  0  0  0  0  # atno 8009 bound_to 7997
  155.6050  140.0644  157.2713 H   0  0  0  0  0  0  0  0  0  0  0  0  # atno 8010 bound_to 7997
  140.3317  144.2580  150.6167 H   0  0  0  0  0  0  0  0  0  0  0  0  # atno 10167 bound_to 10162
  156.0088  130.5203  150.6404 H   0  0  0  0  0  0  0  0  0  0  0  0  # atno 10718 bound_to 10713
  153.8102  135.3130  155.3400 H   0  0  0  0  0  0  0  0  0  0  0  0  # atno 10763 bound_to 10752
  154.8054  135.4701  154.0383 H   0  0  0  0  0  0  0  0  0  0  0  0  # atno 10764 bound_to 10752
  153.1759  135.6885  153.8633 H   0  0  0  0  0  0  0  0  0  0  0  0  # atno 10765 bound_to 10752
  141.1613  133.7526  156.9344 H   0  0  0  0  0  0  0  0  0  0  0  0  # atno 11005 bound_to 11000
  146.1352  140.7133  142.9393 LP  0  0  0  0  0  0  0  0  0  0  0  0  # atno 17320 bound_to 7965
  144.7191  140.4313  143.7022 LP  0  0  0  0  0  0  0  0  0  0  0  0  # atno 17321 bound_to 7965
  140.5391  143.2227  151.8115 LP  0  0  0  0  0  0  0  0  0  0  0  0  # atno 17342 bound_to 10162
  139.4855  144.4624  151.9525 LP  0  0  0  0  0  0  0  0  0  0  0  0  # atno 17343 bound_to 10162
  157.4185  131.0833  151.1153 LP  0  0  0  0  0  0  0  0  0  0  0  0  # atno 17370 bound_to 10713
  157.1763  130.6289  149.5657 LP  0  0  0  0  0  0  0  0  0  0  0  0  # atno 17371 bound_to 10713
  140.1364  134.9322  157.2408 LP  0  0  0  0  0  0  0  0  0  0  0  0  # atno 17394 bound_to 11000
  140.2889  134.3263  155.7321 LP  0  0  0  0  0  0  0  0  0  0  0  0  # atno 17395 bound_to 11000

$$$$
