AV-unprocessed.smi:2802|AV-procd|sdf|10805|dock1
  -GOLD-   2272015243D 1   1.00000     0.00000
 Structure written by MMmdl.
 47 48  0  0  0  0  0  0  0  0  1 V2000
  147.6908  141.3535  153.7852 C   0  0  0  0  0  0  0  0  0  0  0  0
  148.7640  140.5734  154.5590 C   0  0  2  0  0  0  0  0  0  0  0  0
  148.1313  139.7008  155.6563 C   0  0  0  0  0  0  0  0  0  0  0  0
  149.1627  138.8688  156.4509 C   0  0  0  0  0  0  0  0  0  0  0  0
  148.4570  138.2747  157.6887 C   0  0  0  0  0  0  0  0  0  0  0  0
  149.6701  137.6723  155.6154 C   0  0  0  0  0  0  0  0  0  0  0  0
  150.3257  139.7743  156.9487 C   0  0  0  0  0  0  0  0  0  0  0  0
  150.9418  140.8047  155.9486 C   0  0  2  0  0  0  0  0  0  0  0  0
  151.9588  140.1503  154.9676 C   0  0  0  0  0  0  0  0  0  0  0  0
  153.0945  139.6364  155.6376 O   0  0  0  0  0  0  0  0  0  0  0  0
  151.6169  141.8534  156.7325 N   0  0  0  0  0  0  0  0  0  0  0  0
  151.0971  142.6593  157.6758 C   0  0  0  0  0  0  0  0  0  0  0  0
  149.9203  142.6183  158.0375 O   0  0  0  0  0  0  0  0  0  0  0  0
  152.0735  143.6606  158.3037 C   0  0  0  0  0  0  0  0  0  0  0  0
  152.4589  143.2618  159.7187 C   0  0  0  0  0  0  0  0  0  0  0  0
  152.0953  144.0626  160.8211 C   0  0  0  0  0  0  0  0  0  0  0  0
  152.4851  143.6573  162.1119 C   0  0  0  0  0  0  0  0  0  0  0  0
  153.2243  142.4649  162.2458 C   0  0  0  0  0  0  0  0  0  0  0  0
  153.5760  141.6886  161.1982 N   0  0  0  0  0  0  0  0  0  0  0  0
  153.1983  142.0847  159.9636 C   0  0  0  0  0  0  0  0  0  0  0  0
  149.8035  141.5236  155.1790 C   0  0  0  0  0  0  0  0  0  0  0  0
  147.1395  142.0291  154.4397 H   0  0  0  0  0  0  0  0  0  0  0  0
  146.9713  140.6772  153.3226 H   0  0  0  0  0  0  0  0  0  0  0  0
  148.1372  141.9509  152.9896 H   0  0  0  0  0  0  0  0  0  0  0  0
  149.2622  139.9302  153.8352 H   0  0  0  0  0  0  0  0  0  0  0  0
  147.5873  140.3523  156.3421 H   0  0  0  0  0  0  0  0  0  0  0  0
  147.3827  139.0390  155.2179 H   0  0  0  0  0  0  0  0  0  0  0  0
  149.1442  137.6771  158.2890 H   0  0  0  0  0  0  0  0  0  0  0  0
  147.6245  137.6302  157.4037 H   0  0  0  0  0  0  0  0  0  0  0  0
  148.0533  139.0539  158.3363 H   0  0  0  0  0  0  0  0  0  0  0  0
  150.4653  137.1356  156.1341 H   0  0  0  0  0  0  0  0  0  0  0  0
  150.0487  137.9567  154.6384 H   0  0  0  0  0  0  0  0  0  0  0  0
  148.8676  136.9575  155.4300 H   0  0  0  0  0  0  0  0  0  0  0  0
  149.9371  140.3474  157.7928 H   0  0  0  0  0  0  0  0  0  0  0  0
  151.1095  139.1475  157.3756 H   0  0  0  0  0  0  0  0  0  0  0  0
  151.4971  139.3412  154.4021 H   0  0  0  0  0  0  0  0  0  0  0  0
  152.3283  140.8601  154.2341 H   0  0  0  0  0  0  0  0  0  0  0  0
  153.0782  138.6936  155.5750 H   0  0  0  0  0  0  0  0  0  0  0  0
  152.5984  141.9755  156.5306 H   0  0  0  0  0  0  0  0  0  0  0  0
  152.9655  143.7259  157.6797 H   0  0  0  0  0  0  0  0  0  0  0  0
  151.6253  144.6552  158.3226 H   0  0  0  0  0  0  0  0  0  0  0  0
  151.5320  144.9735  160.6813 H   0  0  0  0  0  0  0  0  0  0  0  0
  152.2258  144.2471  162.9784 H   0  0  0  0  0  0  0  0  0  0  0  0
  153.5415  142.1260  163.2211 H   0  0  0  0  0  0  0  0  0  0  0  0
  153.4993  141.4460  159.1461 H   0  0  0  0  0  0  0  0  0  0  0  0
  150.2208  142.1693  154.4052 H   0  0  0  0  0  0  0  0  0  0  0  0
  149.2773  142.1929  155.8624 H   0  0  0  0  0  0  0  0  0  0  0  0
  1  2  1  0  0  0  0
  1 22  1  0  0  0  0
  1 23  1  0  0  0  0
  1 24  1  0  0  0  0
  2 21  1  0  0  0  0
  2  3  1  0  0  0  0
  2 25  1  0  0  0  0
  3  4  1  0  0  0  0
  3 26  1  0  0  0  0
  3 27  1  0  0  0  0
  4  5  1  0  0  0  0
  4  6  1  0  0  0  0
  4  7  1  0  0  0  0
  5 28  1  0  0  0  0
  5 29  1  0  0  0  0
  5 30  1  0  0  0  0
  6 31  1  0  0  0  0
  6 32  1  0  0  0  0
  6 33  1  0  0  0  0
  7  8  1  0  0  0  0
  7 34  1  0  0  0  0
  7 35  1  0  0  0  0
  8  9  1  0  0  0  0
  8 11  1  0  0  0  0
  8 21  1  0  0  0  0
  9 10  1  0  0  0  0
  9 36  1  0  0  0  0
  9 37  1  0  0  0  0
 10 38  1  0  0  0  0
 11 12  1  0  0  0  0
 11 39  1  0  0  0  0
 12 13  2  0  0  0  0
 12 14  1  0  0  0  0
 14 15  1  0  0  0  0
 14 40  1  0  0  0  0
 14 41  1  0  0  0  0
 15 20  1  0  0  0  0
 15 16  2  0  0  0  0
 16 17  1  0  0  0  0
 16 42  1  0  0  0  0
 17 18  2  0  0  0  0
 17 43  1  0  0  0  0
 18 19  1  0  0  0  0
 18 44  1  0  0  0  0
 19 20  2  0  0  0  0
 20 45  1  0  0  0  0
 21 46  1  0  0  0  0
 21 47  1  0  0  0  0
M  END
> <s_m_source_file>
AV-unprocessed.smi

> <i_m_source_file_index>
2802

> <i_lp_mmshare_version>
43012

> <i_f3d_flags>
0

> <s_epik_input>
W0NIM11DMShbQ0gzXSlbQ0gyXVtDQEBIXShbQ0gzXSlbQ0gyXVtDQF0oW0NIMl0xKShbQ0gyXVtPSF0pW05IXUMoPU8pW0NIMl1jMltjSF1bY0hdW2NIXW5bY0hdMg==

> <s_epik_cmdline>
J2VwaWtfcHl0aG9uJywgJy1waCcsICc3LjAnLCAnLXRuJywgJzgnLCAnLW1hJywgJzIwMCcsICctbWV0YWxfYmluZGluZycsICctaW1hZScsICc8aW5maWxlLm1hZT4nLCAnLW9tYWUnLCAnPG91dGZpbGUubWFlPic=

> <r_epik_Ionization_Penalty>
0.004793

> <r_epik_Ionization_Penalty_Charging>
0

> <r_epik_Ionization_Penalty_Neutral>
0.004793

> <r_epik_State_Penalty>
0.00347421

> <r_epik_Charging_Adjusted_Penalty>
0.00347421

> <i_epik_Tot_Q>
0

> <i_epik_Tot_abs_Q>
0

> <r_epik_Metal_State_Penalty>
-0

> <b_epik_Metal_Only>
0

> <s_lp_Force_Field>
OPLS_2005

> <r_lp_Energy>
22.6418

> <b_lp_Chiralities_Consistent>
1

> <s_lp_Variant>
AV-unprocessed.smi:2802-3

> <Gold.Version>
5.8.1

> <Gold.Id.Protein>
6NUR|6NUR_protein|mol2

> <Gold.PLP.Fitness>
45.2324

> <Gold.PLP.PLP>
-42.6369

> <Gold.PLP.part.hbond>
-1.0000

> <Gold.PLP.part.metal>
0.0000

> <Gold.PLP.part.buried>
-2.8560

> <Gold.PLP.part.nonpolar>
-38.5043

> <Gold.PLP.part.repulsive>
0.2673

> <Gold.PLP.ligand.clash>
0.0000

> <Gold.PLP.ligand.torsion>
0.2090

> <Gold.PLP.Chemscore.Hbond>
1.0000

> <Gold.PLP.Chemscore.CHOScore>
0.0000

> <Gold.PLP.Chemscore.Metal>
0.0000

> <Gold.Chemscore.Hbonds>
donor molecule, donor type, donor heavy atom, donor atom, acceptor molecule, acceptor atom, score
      P1  H  7997  8010       L1    10  0.84

> <Gold.PLP.Chemscore.Internal.Correction>
0.0135

> <Gold.Rescore>
     Score         DG    S(hbond)    S(metal)    S(lipo)     H(rot)  DE(clash)    DE(int)     intcor
     14.28     -16.00       0.99        0.00     105.38       2.00       0.17       1.55       ----

> <Gold.Chemscore.Fitness>
14.2752

> <Gold.Chemscore.DG>
-16.0037

> <Gold.Chemscore.ZeroCoef>
-5.4800

> <Gold.Chemscore.Hbond>
0.9942

> <Gold.Chemscore.Metal>
0.0000

> <Gold.Chemscore.Lipo>
105.3822

> <Gold.Chemscore.Internal_Hbond>
0.0000

> <Gold.Chemscore.DEClash>
0.1736

> <Gold.Chemscore.DEInternal>
1.5549

> <Gold.Chemscore.Rot>
2.0026

> <Gold.Chemscore.Internal.Correction>
   9.000000E+99

> <Gold.Chemscore.Hbonds>
donor molecule, donor type, donor heavy atom, donor atom, acceptor molecule, acceptor atom, score
      P1  H  7997  8010       L1    10  0.69

> <Gold.Chemscore.Hbond.Weighted>
-3.3206

> <Gold.Chemscore.Metal.Weighted>
-0.0000

> <Gold.Chemscore.Lipo.Weighted>
-12.3297

> <Gold.Chemscore.Internal_Hbond.Weighted>
0.0000

> <Gold.Chemscore.DEClash.Weighted>
0.1736

> <Gold.Chemscore.DEInternal.Weighted>
1.5549

> <Gold.Chemscore.Rot.Weighted>
5.1267

> <Gold.Chemscore.Internal.Correction.Weighted>
   9.000000E+99

> <Gold.Protein.RotatedTorsions>
[ 6907 6896 6895 6894 ] final -112.44 input  -60.11 | X-H torsion
[ 7974 7965 7964 7962 ] final -169.18 input  175.53 | X-H torsion
[ 8008 7997 7996 7995 ] final   82.78 input   59.86 | X-H torsion
[ 10167 10162 10161 10158 ] final  115.78 input  -65.29 | X-H torsion
[ 10718 10713 10712 10709 ] final   85.85 input   66.30 | X-H torsion
[ 10763 10752 10751 10750 ] final -156.07 input  -60.55 | X-H torsion
[ 11005 11000 10999 10996 ] final   77.67 input  -57.11 | X-H torsion

> <Gold.Protein.ActiveResidues>
 VAL166  LYS551  ARG553  GLY616  TRP617  ASP618  TYR619  PRO620  LYS621  CYS622 
 ASP623  PHE694  ASN695  SER759  ASP760  ASP761  ALA762  ILE779  LEU786  VAL792 
 PHE793  MET794  SER795  GLU796  ALA797  LYS798  CYS799  TRP800  GLU811  SER814 

> <Gold.Protein.RotatedAtoms>
  150.7759  133.9089  159.3363 H   0  0  0  0  0  0  0  0  0  0  0  0  # atno 6907 bound_to 6896
  151.6964  135.0936  160.0252 H   0  0  0  0  0  0  0  0  0  0  0  0  # atno 6908 bound_to 6896
  152.3794  133.6487  159.6185 H   0  0  0  0  0  0  0  0  0  0  0  0  # atno 6909 bound_to 6896
  144.7190  140.2260  143.6310 H   0  0  0  0  0  0  0  0  0  0  0  0  # atno 7974 bound_to 7965
  155.9152  140.3425  155.6129 H   0  0  0  0  0  0  0  0  0  0  0  0  # atno 8008 bound_to 7997
  155.7340  140.0799  157.2295 H   0  0  0  0  0  0  0  0  0  0  0  0  # atno 8009 bound_to 7997
  154.4061  140.1583  156.2528 H   0  0  0  0  0  0  0  0  0  0  0  0  # atno 8010 bound_to 7997
  139.6293  144.7113  151.2466 H   0  0  0  0  0  0  0  0  0  0  0  0  # atno 10167 bound_to 10162
  157.6921  131.0192  150.2885 H   0  0  0  0  0  0  0  0  0  0  0  0  # atno 10718 bound_to 10713
  154.7740  135.3154  154.8131 H   0  0  0  0  0  0  0  0  0  0  0  0  # atno 10763 bound_to 10752
  153.8859  135.6830  153.4768 H   0  0  0  0  0  0  0  0  0  0  0  0  # atno 10764 bound_to 10752
  153.1360  135.4760  154.9358 H   0  0  0  0  0  0  0  0  0  0  0  0  # atno 10765 bound_to 10752
  139.9245  134.7702  156.1551 H   0  0  0  0  0  0  0  0  0  0  0  0  # atno 11005 bound_to 11000
  145.8456  139.2151  143.1802 LP  0  0  0  0  0  0  0  0  0  0  0  0  # atno 17320 bound_to 7965
  146.0307  140.8261  142.9877 LP  0  0  0  0  0  0  0  0  0  0  0  0  # atno 17321 bound_to 7965
  140.7430  143.6510  150.8249 LP  0  0  0  0  0  0  0  0  0  0  0  0  # atno 17342 bound_to 10162
  140.0132  143.5620  152.2830 LP  0  0  0  0  0  0  0  0  0  0  0  0  # atno 17343 bound_to 10162
  156.3420  130.3817  149.7401 LP  0  0  0  0  0  0  0  0  0  0  0  0  # atno 17370 bound_to 10713
  156.4907  130.8084  151.3093 LP  0  0  0  0  0  0  0  0  0  0  0  0  # atno 17371 bound_to 10713
  141.0791  133.6762  156.2299 LP  0  0  0  0  0  0  0  0  0  0  0  0  # atno 17394 bound_to 11000
  140.6377  134.5198  157.5566 LP  0  0  0  0  0  0  0  0  0  0  0  0  # atno 17395 bound_to 11000

$$$$
