AV-unprocessed.smi:1231|AV-procd|sdf|5163|dock3
  -GOLD-   22720 4233D 1   1.00000     0.00000
 Structure written by MMmdl.
 43 44  0  0  0  0  0  0  0  0  2 V2000
  146.3873  136.8187  151.3422 C   0  0  0  0  0  0  0  0  0  0  0  0
  145.9190  137.8377  152.3868 C   0  0  2  0  0  0  0  0  0  0  0  0
  146.8730  139.0416  152.4861 C   0  0  0  0  0  0  0  0  0  0  0  0
  146.4394  139.9591  153.5647 N   0  3  2  0  0  0  0  0  0  0  0  0
  147.2673  141.1887  153.6283 C   0  0  0  0  0  0  0  0  0  0  0  0
  148.7252  140.8956  154.0337 C   0  0  0  0  0  0  0  0  0  0  0  0
  149.2965  141.9869  154.8145 N   0  0  0  0  0  0  0  0  0  0  0  0
  150.0723  141.8289  155.8969 C   0  0  0  0  0  0  0  0  0  0  0  0
  150.3911  140.7262  156.3434 O   0  0  0  0  0  0  0  0  0  0  0  0
  150.4417  143.0149  156.4115 N   0  0  0  0  0  0  0  0  0  0  0  0
  151.2797  143.2620  157.5316 C   0  0  0  0  0  0  0  0  0  0  0  0
  151.4872  144.6268  157.8343 C   0  0  0  0  0  0  0  0  0  0  0  0
  152.3058  144.9776  158.9255 C   0  0  0  0  0  0  0  0  0  0  0  0
  152.8977  143.9532  159.6855 C   0  0  0  0  0  0  0  0  0  0  0  0
  152.6404  142.6201  159.3162 C   0  0  0  0  0  0  0  0  0  0  0  0
  151.8558  142.2817  158.2712 N   0  0  0  0  0  0  0  0  0  0  0  0
  146.3583  139.2304  154.8549 C   0  0  0  0  0  0  0  0  0  0  0  0
  145.4423  137.9967  154.7383 C   0  0  1  0  0  0  0  0  0  0  0  0
  143.9458  138.3496  154.6683 C   0  0  0  0  0  0  0  0  0  0  0  0
  145.8575  137.1751  153.6470 O   0  0  0  0  0  0  0  0  0  0  0  0
  146.4374  137.2674  150.3499 H   0  0  0  0  0  0  0  0  0  0  0  0
  145.7021  135.9724  151.2899 H   0  0  0  0  0  0  0  0  0  0  0  0
  147.3771  136.4307  151.5849 H   0  0  0  0  0  0  0  0  0  0  0  0
  144.9241  138.1805  152.1016 H   0  0  0  0  0  0  0  0  0  0  0  0
  147.8926  138.7050  152.6825 H   0  0  0  0  0  0  0  0  0  0  0  0
  146.8894  139.5723  151.5333 H   0  0  0  0  0  0  0  0  0  0  0  0
  147.2197  141.7082  152.6700 H   0  0  0  0  0  0  0  0  0  0  0  0
  146.8412  141.8680  154.3682 H   0  0  0  0  0  0  0  0  0  0  0  0
  148.7680  139.9886  154.6370 H   0  0  0  0  0  0  0  0  0  0  0  0
  149.3558  140.7186  153.1621 H   0  0  0  0  0  0  0  0  0  0  0  0
  149.0792  142.9265  154.5155 H   0  0  0  0  0  0  0  0  0  0  0  0
  150.0881  143.8372  155.9455 H   0  0  0  0  0  0  0  0  0  0  0  0
  151.0257  145.4011  157.2390 H   0  0  0  0  0  0  0  0  0  0  0  0
  152.4767  146.0148  159.1735 H   0  0  0  0  0  0  0  0  0  0  0  0
  153.5318  144.1824  160.5292 H   0  0  0  0  0  0  0  0  0  0  0  0
  153.0757  141.8039  159.8734 H   0  0  0  0  0  0  0  0  0  0  0  0
  147.3606  138.9146  155.1488 H   0  0  0  0  0  0  0  0  0  0  0  0
  145.9911  139.8800  155.6486 H   0  0  0  0  0  0  0  0  0  0  0  0
  145.5808  137.3951  155.6369 H   0  0  0  0  0  0  0  0  0  0  0  0
  143.6273  138.8595  155.5779 H   0  0  0  0  0  0  0  0  0  0  0  0
  143.3386  137.4501  154.5661 H   0  0  0  0  0  0  0  0  0  0  0  0
  143.7130  139.0078  153.8315 H   0  0  0  0  0  0  0  0  0  0  0  0
  145.5025  140.2531  153.3286 H   0  0  0  0  0  0  0  0  0  0  0  0
  1  2  1  0  0  0  0
  1 21  1  0  0  0  0
  1 22  1  0  0  0  0
  1 23  1  0  0  0  0
  2 20  1  0  0  0  0
  2  3  1  0  0  0  0
  2 24  1  0  0  0  0
  3  4  1  0  0  0  0
  3 25  1  0  0  0  0
  3 26  1  0  0  0  0
  4  5  1  0  0  0  0
  4 17  1  0  0  0  0
  4 43  1  0  0  0  0
  5  6  1  0  0  0  0
  5 27  1  0  0  0  0
  5 28  1  0  0  0  0
  6  7  1  0  0  0  0
  6 29  1  0  0  0  0
  6 30  1  0  0  0  0
  7  8  1  0  0  0  0
  7 31  1  0  0  0  0
  8  9  2  0  0  0  0
  8 10  1  0  0  0  0
 10 11  1  0  0  0  0
 10 32  1  0  0  0  0
 11 16  1  0  0  0  0
 11 12  2  0  0  0  0
 12 13  1  0  0  0  0
 12 33  1  0  0  0  0
 13 14  2  0  0  0  0
 13 34  1  0  0  0  0
 14 15  1  0  0  0  0
 14 35  1  0  0  0  0
 15 16  2  0  0  0  0
 15 36  1  0  0  0  0
 17 18  1  0  0  0  0
 17 37  1  0  0  0  0
 17 38  1  0  0  0  0
 18 19  1  0  0  0  0
 18 20  1  0  0  0  0
 18 39  1  0  0  0  0
 19 40  1  0  0  0  0
 19 41  1  0  0  0  0
 19 42  1  0  0  0  0
M  CHG  1   4   1
M  END
> <s_m_source_file>
AV-unprocessed.smi

> <i_m_source_file_index>
1231

> <i_lp_mmshare_version>
43012

> <i_f3d_flags>
0

> <s_epik_input>
W0NIM11bQ0BASF0xW0NIMl1OKFtDSDJdW0NASF0oTzEpW0NIM10pW0NIMl1bQ0gyXVtOSF1DKD1PKVtOSF1jMltjSF1bY0hdW2NIXVtjSF1uMg==

> <s_epik_cmdline>
J2VwaWtfcHl0aG9uJywgJy1waCcsICc3LjAnLCAnLXRuJywgJzgnLCAnLW1hJywgJzIwMCcsICctbWV0YWxfYmluZGluZycsICctaW1hZScsICc8aW5maWxlLm1hZT4nLCAnLW9tYWUnLCAnPG91dGZpbGUubWFlPic=

> <r_epik_Ionization_Penalty>
0.602565

> <r_epik_Ionization_Penalty_Charging>
0.602531

> <r_epik_Ionization_Penalty_Neutral>
3.43186e-05

> <r_epik_State_Penalty>
0.617039

> <r_epik_Charging_Adjusted_Penalty>
1.21957

> <i_epik_Tot_Q>
1

> <i_epik_Tot_abs_Q>
1

> <r_epik_Metal_State_Penalty>
0.617041

> <b_epik_Metal_Only>
0

> <s_lp_Force_Field>
OPLS_2005

> <r_lp_Energy>
18.1203

> <b_lp_Chiralities_Consistent>
1

> <s_lp_Variant>
AV-unprocessed.smi:1231-4

> <Gold.Version>
5.8.1

> <Gold.Id.Protein>
6NUR|6NUR_protein|mol2

> <Gold.PLP.Fitness>
48.5422

> <Gold.PLP.PLP>
-37.8458

> <Gold.PLP.part.hbond>
-3.0000

> <Gold.PLP.part.metal>
0.0000

> <Gold.PLP.part.buried>
-0.2695

> <Gold.PLP.part.nonpolar>
-35.6098

> <Gold.PLP.part.repulsive>
0.4541

> <Gold.PLP.ligand.clash>
0.0000

> <Gold.PLP.ligand.torsion>
0.3512

> <Gold.PLP.Chemscore.Hbond>
3.7937

> <Gold.PLP.Chemscore.CHOScore>
0.0000

> <Gold.PLP.Chemscore.Metal>
0.0000

> <Gold.Chemscore.Hbonds>
donor molecule, donor type, donor heavy atom, donor atom, acceptor molecule, acceptor atom, score
      L1  H     4    43       P1 10175  2.00
      L1  H     7    31       P1  8028  0.50
      L1  H    10    32       P1  8028  0.90

> <Gold.PLP.Chemscore.Internal.Correction>
0.0177

> <Gold.Rescore>
     Score         DG    S(hbond)    S(metal)    S(lipo)     H(rot)  DE(clash)    DE(int)     intcor
     19.04     -21.35       2.79        0.00      89.89       1.55       0.68       1.62       ----

> <Gold.Chemscore.Fitness>
19.0449

> <Gold.Chemscore.DG>
-21.3459

> <Gold.Chemscore.ZeroCoef>
-5.4800

> <Gold.Chemscore.Hbond>
2.7929

> <Gold.Chemscore.Metal>
0.0000

> <Gold.Chemscore.Lipo>
89.8904

> <Gold.Chemscore.Internal_Hbond>
0.0000

> <Gold.Chemscore.DEClash>
0.6843

> <Gold.Chemscore.DEInternal>
1.6168

> <Gold.Chemscore.Rot>
1.5546

> <Gold.Chemscore.Internal.Correction>
   9.000000E+99

> <Gold.Chemscore.Hbonds>
donor molecule, donor type, donor heavy atom, donor atom, acceptor molecule, acceptor atom, score
      L1  H     4    43       P1 10175  0.94
      L1  H     7    31       P1  8028  0.49
      L1  H    10    32       P1  8028  0.83

> <Gold.Chemscore.Hbond.Weighted>
-9.3284

> <Gold.Chemscore.Metal.Weighted>
-0.0000

> <Gold.Chemscore.Lipo.Weighted>
-10.5172

> <Gold.Chemscore.Internal_Hbond.Weighted>
0.0000

> <Gold.Chemscore.DEClash.Weighted>
0.6843

> <Gold.Chemscore.DEInternal.Weighted>
1.6168

> <Gold.Chemscore.Rot.Weighted>
3.9797

> <Gold.Chemscore.Internal.Correction.Weighted>
   9.000000E+99

> <Gold.Protein.RotatedTorsions>
[ 6907 6896 6895 6894 ] final -105.39 input  -60.11 | X-H torsion
[ 7974 7965 7964 7962 ] final  -10.42 input  175.53 | X-H torsion
[ 8008 7997 7996 7995 ] final -171.63 input   59.86 | X-H torsion
[ 10167 10162 10161 10158 ] final  120.07 input  -65.29 | X-H torsion
[ 10718 10713 10712 10709 ] final -162.24 input   66.30 | X-H torsion
[ 10763 10752 10751 10750 ] final  -17.34 input  -60.55 | X-H torsion
[ 11005 11000 10999 10996 ] final   10.39 input  -57.11 | X-H torsion

> <Gold.Protein.ActiveResidues>
 VAL166  LYS551  ARG553  GLY616  TRP617  ASP618  TYR619  PRO620  LYS621  CYS622 
 ASP623  PHE694  ASN695  SER759  ASP760  ASP761  ALA762  ILE779  LEU786  VAL792 
 PHE793  MET794  SER795  GLU796  ALA797  LYS798  CYS799  TRP800  GLU811  SER814 

> <Gold.Protein.RotatedAtoms>
  150.7334  134.0134  159.3677 H   0  0  0  0  0  0  0  0  0  0  0  0  # atno 6907 bound_to 6896
  151.8095  135.0683  160.0420 H   0  0  0  0  0  0  0  0  0  0  0  0  # atno 6908 bound_to 6896
  152.3083  133.5689  159.5700 H   0  0  0  0  0  0  0  0  0  0  0  0  # atno 6909 bound_to 6896
  146.2221  140.2761  142.8359 H   0  0  0  0  0  0  0  0  0  0  0  0  # atno 7974 bound_to 7965
  155.9341  140.1096  157.1108 H   0  0  0  0  0  0  0  0  0  0  0  0  # atno 8008 bound_to 7997
  154.4076  140.1232  156.4907 H   0  0  0  0  0  0  0  0  0  0  0  0  # atno 8009 bound_to 7997
  155.7043  140.3471  155.4949 H   0  0  0  0  0  0  0  0  0  0  0  0  # atno 8010 bound_to 7997
  139.6006  144.7055  151.3073 H   0  0  0  0  0  0  0  0  0  0  0  0  # atno 10167 bound_to 10162
  156.6077  130.8837  151.2929 H   0  0  0  0  0  0  0  0  0  0  0  0  # atno 10718 bound_to 10713
  153.5724  135.7007  153.5499 H   0  0  0  0  0  0  0  0  0  0  0  0  # atno 10763 bound_to 10752
  153.3333  135.4041  155.1513 H   0  0  0  0  0  0  0  0  0  0  0  0  # atno 10764 bound_to 10752
  154.8631  135.3724  154.5247 H   0  0  0  0  0  0  0  0  0  0  0  0  # atno 10765 bound_to 10752
  140.5150  134.0614  155.7828 H   0  0  0  0  0  0  0  0  0  0  0  0  # atno 11005 bound_to 11000
  144.9231  140.7891  143.5736 LP  0  0  0  0  0  0  0  0  0  0  0  0  # atno 17320 bound_to 7965
  145.2700  139.1958  143.4847 LP  0  0  0  0  0  0  0  0  0  0  0  0  # atno 17321 bound_to 7965
  140.7246  143.7039  150.7822 LP  0  0  0  0  0  0  0  0  0  0  0  0  # atno 17342 bound_to 10162
  140.0615  143.5150  152.2625 LP  0  0  0  0  0  0  0  0  0  0  0  0  # atno 17343 bound_to 10162
  157.7263  130.9627  150.1649 LP  0  0  0  0  0  0  0  0  0  0  0  0  # atno 17370 bound_to 10713
  156.2416  130.3691  149.8331 LP  0  0  0  0  0  0  0  0  0  0  0  0  # atno 17371 bound_to 10713
  141.1365  133.9213  157.2422 LP  0  0  0  0  0  0  0  0  0  0  0  0  # atno 17394 bound_to 11000
  139.9637  135.0147  156.9330 LP  0  0  0  0  0  0  0  0  0  0  0  0  # atno 17395 bound_to 11000

$$$$
