AV-unprocessed.smi:1592|AV-procd|sdf|6406|dock4
  -GOLD-   22720 7 43D 1   1.00000     0.00000
 Structure written by MMmdl.
 26 27  0  0  0  0  0  0  0  0  2 V2000
  149.3497  141.7149  156.4281 O   0  0  0  0  0  0  0  0  0  0  0  0
  150.5019  141.3366  156.6596 C   0  0  0  0  0  0  0  0  0  0  0  0
  151.2987  141.5679  157.7784 N   0  0  0  0  0  0  0  0  0  0  0  0
  151.4114  142.7324  158.3574 C   0  0  0  0  0  0  0  0  0  0  0  0
  150.7317  143.8823  157.9191 N   0  0  0  0  0  0  0  0  0  0  0  0
  150.8470  145.1075  158.5409 C   0  0  0  0  0  0  0  0  0  0  0  0
  151.6271  145.2767  159.6096 C   0  0  0  0  0  0  0  0  0  0  0  0
  152.3667  144.1419  160.1225 C   0  0  0  0  0  0  0  0  0  0  0  0
  152.2871  142.8738  159.5348 C   0  0  0  0  0  0  0  0  0  0  0  0
  152.9431  141.9199  160.0139 O   0  5  0  0  0  0  0  0  0  0  0  0
  151.2418  140.4931  155.6069 C   0  0  1  0  0  0  0  0  0  0  0  0
  151.4497  139.0289  156.0444 C   0  0  0  0  0  0  0  0  0  0  0  0
  150.7667  138.2111  154.9622 C   0  0  0  0  0  0  0  0  0  0  0  0
  149.7589  139.1934  154.3847 C   0  0  0  0  0  0  0  0  0  0  0  0
  150.4718  140.4207  154.4053 O   0  0  0  0  0  0  0  0  0  0  0  0
  150.2622  145.8990  158.0964 H   0  0  0  0  0  0  0  0  0  0  0  0
  151.7053  146.2430  160.0856 H   0  0  0  0  0  0  0  0  0  0  0  0
  152.9960  144.2910  160.9881 H   0  0  0  0  0  0  0  0  0  0  0  0
  150.1201  143.8446  157.1170 H   0  0  0  0  0  0  0  0  0  0  0  0
  152.1950  140.9693  155.3734 H   0  0  0  0  0  0  0  0  0  0  0  0
  152.5065  138.7747  156.1306 H   0  0  0  0  0  0  0  0  0  0  0  0
  150.9860  138.8236  157.0108 H   0  0  0  0  0  0  0  0  0  0  0  0
  151.4905  137.9314  154.1960 H   0  0  0  0  0  0  0  0  0  0  0  0
  150.3035  137.3005  155.3424 H   0  0  0  0  0  0  0  0  0  0  0  0
  149.4402  138.9288  153.3764 H   0  0  0  0  0  0  0  0  0  0  0  0
  148.8744  139.2663  155.0196 H   0  0  0  0  0  0  0  0  0  0  0  0
  1  2  2  0  0  0  0
  2  3  1  0  0  0  0
  2 11  1  0  0  0  0
  3  4  2  0  0  0  0
  4  9  1  0  0  0  0
  4  5  1  0  0  0  0
  5 19  1  0  0  0  0
  5  6  1  0  0  0  0
  6 16  1  0  0  0  0
  6  7  2  0  0  0  0
  7 17  1  0  0  0  0
  7  8  1  0  0  0  0
  8  9  2  0  0  0  0
  8 18  1  0  0  0  0
  9 10  1  0  0  0  0
 11 15  1  0  0  0  0
 11 12  1  0  0  0  0
 11 20  1  0  0  0  0
 12 13  1  0  0  0  0
 12 21  1  0  0  0  0
 12 22  1  0  0  0  0
 13 14  1  0  0  0  0
 13 23  1  0  0  0  0
 13 24  1  0  0  0  0
 14 15  1  0  0  0  0
 14 25  1  0  0  0  0
 14 26  1  0  0  0  0
M  CHG  1  10  -1
M  END
> <s_m_source_file>
AV-unprocessed.smi

> <i_m_source_file_index>
1592

> <i_lp_mmshare_version>
43012

> <i_f3d_flags>
0

> <s_epik_input>
TzFbQ0gyXVtDSDJdW0NIMl1bQ0BIXTFDKD1PKVtOSF1jMm5bY0hdW2NIXVtjSF1jMltPSF0=

> <s_epik_cmdline>
J2VwaWtfcHl0aG9uJywgJy1waCcsICc3LjAnLCAnLXRuJywgJzgnLCAnLW1hJywgJzIwMCcsICctbWV0YWxfYmluZGluZycsICctaW1hZScsICc8aW5maWxlLm1hZT4nLCAnLW9tYWUnLCAnPG91dGZpbGUubWFlPic=

> <r_epik_Ionization_Penalty>
0.780127

> <r_epik_Ionization_Penalty_Charging>
0.780127

> <r_epik_Ionization_Penalty_Neutral>
6.55423e-13

> <r_epik_State_Penalty>
1.4426

> <r_epik_Charging_Adjusted_Penalty>
2.22273

> <i_epik_Tot_Q>
-1

> <i_epik_Tot_abs_Q>
1

> <r_epik_Metal_State_Penalty>
1.40439

> <b_epik_Metal_Only>
0

> <s_lp_Force_Field>
OPLS_2005

> <r_lp_Energy>
49.5573

> <b_lp_Chiralities_Consistent>
1

> <s_lp_Variant>
AV-unprocessed.smi:1592-6

> <Gold.Version>
5.8.1

> <Gold.Id.Protein>
6NUR|6NUR_protein|mol2

> <Gold.PLP.Fitness>
38.2356

> <Gold.PLP.PLP>
-31.2761

> <Gold.PLP.part.hbond>
-1.8226

> <Gold.PLP.part.metal>
0.0000

> <Gold.PLP.part.buried>
-4.3214

> <Gold.PLP.part.nonpolar>
-26.0957

> <Gold.PLP.part.repulsive>
0.2854

> <Gold.PLP.ligand.clash>
0.0000

> <Gold.PLP.ligand.torsion>
0.5158

> <Gold.PLP.Chemscore.Hbond>
1.6613

> <Gold.PLP.Chemscore.CHOScore>
1.0000

> <Gold.PLP.Chemscore.Metal>
0.0000

> <Gold.Chemscore.Hbonds>
donor molecule, donor type, donor heavy atom, donor atom, acceptor molecule, acceptor atom, score
      L1  H     5    19       P1  8028  0.86
      P1  H  7989  7998       L1    15  0.75
      L1  C     6    16       P1  8029  1.00

> <Gold.PLP.Chemscore.Internal.Correction>
0.0073

> <Gold.Rescore>
     Score         DG    S(hbond)    S(metal)    S(lipo)     H(rot)  DE(clash)    DE(int)     intcor
     16.25     -16.90       1.74        0.00      69.85       1.00       0.07       0.58       ----

> <Gold.Chemscore.Fitness>
16.2544

> <Gold.Chemscore.DG>
-16.9016

> <Gold.Chemscore.ZeroCoef>
-5.4800

> <Gold.Chemscore.Hbond>
1.7394

> <Gold.Chemscore.Metal>
0.0000

> <Gold.Chemscore.Lipo>
69.8456

> <Gold.Chemscore.Internal_Hbond>
0.0000

> <Gold.Chemscore.DEClash>
0.0671

> <Gold.Chemscore.DEInternal>
0.5801

> <Gold.Chemscore.Rot>
1.0000

> <Gold.Chemscore.Internal.Correction>
   9.000000E+99

> <Gold.Chemscore.Hbonds>
donor molecule, donor type, donor heavy atom, donor atom, acceptor molecule, acceptor atom, score
      L1  H     5    19       P1  8028  0.77
      P1  H  7989  7998       L1    15  0.08

> <Gold.Chemscore.Hbond.Weighted>
-5.8097

> <Gold.Chemscore.Metal.Weighted>
-0.0000

> <Gold.Chemscore.Lipo.Weighted>
-8.1719

> <Gold.Chemscore.Internal_Hbond.Weighted>
0.0000

> <Gold.Chemscore.DEClash.Weighted>
0.0671

> <Gold.Chemscore.DEInternal.Weighted>
0.5801

> <Gold.Chemscore.Rot.Weighted>
2.5600

> <Gold.Chemscore.Internal.Correction.Weighted>
   9.000000E+99

> <Gold.Protein.RotatedTorsions>
[ 6907 6896 6895 6894 ] final   79.91 input  -60.11 | X-H torsion
[ 7974 7965 7964 7962 ] final  -11.52 input  175.53 | X-H torsion
[ 8008 7997 7996 7995 ] final -174.10 input   59.86 | X-H torsion
[ 10167 10162 10161 10158 ] final  154.18 input  -65.29 | X-H torsion
[ 10718 10713 10712 10709 ] final  135.20 input   66.30 | X-H torsion
[ 10763 10752 10751 10750 ] final   86.78 input  -60.55 | X-H torsion
[ 11005 11000 10999 10996 ] final  122.76 input  -57.11 | X-H torsion

> <Gold.Protein.ActiveResidues>
 VAL166  LYS551  ARG553  GLY616  TRP617  ASP618  TYR619  PRO620  LYS621  CYS622 
 ASP623  PHE694  ASN695  SER759  ASP760  ASP761  ALA762  ILE779  LEU786  VAL792 
 PHE793  MET794  SER795  GLU796  ALA797  LYS798  CYS799  TRP800  GLU811  SER814 

> <Gold.Protein.RotatedAtoms>
  152.5216  134.3438  159.9226 H   0  0  0  0  0  0  0  0  0  0  0  0  # atno 6907 bound_to 6896
  151.3388  133.3964  159.2677 H   0  0  0  0  0  0  0  0  0  0  0  0  # atno 6908 bound_to 6896
  150.9820  134.9191  159.7907 H   0  0  0  0  0  0  0  0  0  0  0  0  # atno 6909 bound_to 6896
  146.2184  140.2923  142.8369 H   0  0  0  0  0  0  0  0  0  0  0  0  # atno 7974 bound_to 7965
  155.9659  140.1153  157.0855 H   0  0  0  0  0  0  0  0  0  0  0  0  # atno 8008 bound_to 7997
  154.4143  140.1173  156.5308 H   0  0  0  0  0  0  0  0  0  0  0  0  # atno 8009 bound_to 7997
  155.6660  140.3473  155.4803 H   0  0  0  0  0  0  0  0  0  0  0  0  # atno 8010 bound_to 7997
  139.4824  144.5209  151.7878 H   0  0  0  0  0  0  0  0  0  0  0  0  # atno 10167 bound_to 10162
  157.4595  131.1072  150.9937 H   0  0  0  0  0  0  0  0  0  0  0  0  # atno 10718 bound_to 10713
  153.1604  135.4568  154.9764 H   0  0  0  0  0  0  0  0  0  0  0  0  # atno 10763 bound_to 10752
  154.7893  135.3215  154.7817 H   0  0  0  0  0  0  0  0  0  0  0  0  # atno 10764 bound_to 10752
  153.8307  135.6939  153.4869 H   0  0  0  0  0  0  0  0  0  0  0  0  # atno 10765 bound_to 10752
  139.9282  134.9641  156.8157 H   0  0  0  0  0  0  0  0  0  0  0  0  # atno 11005 bound_to 11000
  144.9117  140.7765  143.5803 LP  0  0  0  0  0  0  0  0  0  0  0  0  # atno 17320 bound_to 7965
  145.2855  139.1903  143.4768 LP  0  0  0  0  0  0  0  0  0  0  0  0  # atno 17321 bound_to 7965
  140.4722  144.1570  150.5919 LP  0  0  0  0  0  0  0  0  0  0  0  0  # atno 17342 bound_to 10162
  140.4369  143.2543  151.9523 LP  0  0  0  0  0  0  0  0  0  0  0  0  # atno 17343 bound_to 10162
  157.0740  130.5875  149.5408 LP  0  0  0  0  0  0  0  0  0  0  0  0  # atno 17370 bound_to 10713
  156.0022  130.5103  150.7704 LP  0  0  0  0  0  0  0  0  0  0  0  0  # atno 17371 bound_to 10713
  140.6276  133.9936  155.7647 LP  0  0  0  0  0  0  0  0  0  0  0  0  # atno 17394 bound_to 11000
  141.0854  133.9998  157.3321 LP  0  0  0  0  0  0  0  0  0  0  0  0  # atno 17395 bound_to 11000

$$$$
