AV-unprocessed.smi:2931|AV-procd|sdf|11249|dock1
  -GOLD-   2272016143D 1   1.00000     0.00000
 Structure written by MMmdl.
 43 44  0  0  0  0  0  0  0  0  3 V2000
  146.5028  130.1965  152.4534 C   0  0  0  0  0  0  0  0  0  0  0  0
  145.6611  131.3734  152.1492 N   0  3  2  0  0  0  0  0  0  0  0  0
  144.8377  131.1802  150.9294 C   0  0  0  0  0  0  0  0  0  0  0  0
  143.8845  132.3677  150.7137 C   0  0  0  0  0  0  0  0  0  0  0  0
  144.6559  133.6937  150.6603 C   0  0  0  0  0  0  0  0  0  0  0  0
  145.5244  133.8528  151.9211 C   0  0  2  0  0  0  0  0  0  0  0  0
  146.3219  135.0734  151.8447 N   0  0  0  0  0  0  0  0  0  0  0  0
  145.8279  136.3182  151.9035 C   0  0  0  0  0  0  0  0  0  0  0  0
  144.6328  136.5779  152.0444 O   0  0  0  0  0  0  0  0  0  0  0  0
  146.7920  137.2443  151.7976 N   0  0  0  0  0  0  0  0  0  0  0  0
  146.5805  138.6905  151.8158 C   0  0  0  0  0  0  0  0  0  0  0  0
  146.1424  139.2087  153.1996 C   0  0  0  0  0  0  0  0  0  0  0  0
  146.9571  140.3895  153.7004 C   0  0  0  0  0  0  0  0  0  0  0  0
  148.3215  140.2275  154.0276 C   0  0  0  0  0  0  0  0  0  0  0  0
  149.0603  141.3435  154.4704 C   0  0  0  0  0  0  0  0  0  0  0  0
  148.4584  142.5479  154.5813 N   0  3  0  0  0  0  0  0  0  0  0  0
  147.1554  142.7450  154.2837 C   0  0  0  0  0  0  0  0  0  0  0  0
  146.3670  141.6664  153.8334 C   0  0  0  0  0  0  0  0  0  0  0  0
  146.4469  132.6319  152.0969 C   0  0  0  0  0  0  0  0  0  0  0  0
  147.2354  130.0247  151.6638 H   0  0  0  0  0  0  0  0  0  0  0  0
  145.8901  129.2999  152.5540 H   0  0  0  0  0  0  0  0  0  0  0  0
  147.0388  130.3391  153.3923 H   0  0  0  0  0  0  0  0  0  0  0  0
  145.4899  131.0586  150.0630 H   0  0  0  0  0  0  0  0  0  0  0  0
  144.2577  130.2612  151.0216 H   0  0  0  0  0  0  0  0  0  0  0  0
  143.3184  132.2294  149.7921 H   0  0  0  0  0  0  0  0  0  0  0  0
  143.1541  132.4024  151.5230 H   0  0  0  0  0  0  0  0  0  0  0  0
  145.2844  133.7154  149.7687 H   0  0  0  0  0  0  0  0  0  0  0  0
  143.9569  134.5263  150.5695 H   0  0  0  0  0  0  0  0  0  0  0  0
  144.8706  133.9065  152.7942 H   0  0  0  0  0  0  0  0  0  0  0  0
  147.3183  134.9624  151.7233 H   0  0  0  0  0  0  0  0  0  0  0  0
  147.7439  136.9286  151.6804 H   0  0  0  0  0  0  0  0  0  0  0  0
  147.5181  139.1691  151.5318 H   0  0  0  0  0  0  0  0  0  0  0  0
  145.8531  138.9820  151.0563 H   0  0  0  0  0  0  0  0  0  0  0  0
  145.0878  139.4858  153.1697 H   0  0  0  0  0  0  0  0  0  0  0  0
  146.2203  138.4027  153.9303 H   0  0  0  0  0  0  0  0  0  0  0  0
  148.7995  139.2635  153.9304 H   0  0  0  0  0  0  0  0  0  0  0  0
  150.1071  141.3090  154.7350 H   0  0  0  0  0  0  0  0  0  0  0  0
  146.7861  143.7519  154.4129 H   0  0  0  0  0  0  0  0  0  0  0  0
  145.3259  141.8207  153.5899 H   0  0  0  0  0  0  0  0  0  0  0  0
  147.0206  132.7372  153.0189 H   0  0  0  0  0  0  0  0  0  0  0  0
  147.1672  132.5765  151.2786 H   0  0  0  0  0  0  0  0  0  0  0  0
  145.0142  131.4690  152.9193 H   0  0  0  0  0  0  0  0  0  0  0  0
  149.0118  143.3421  154.9047 H   0  0  0  0  0  0  0  0  0  0  0  0
  1  2  1  0  0  0  0
  1 20  1  0  0  0  0
  1 21  1  0  0  0  0
  1 22  1  0  0  0  0
  2 19  1  0  0  0  0
  2  3  1  0  0  0  0
  2 42  1  0  0  0  0
  3  4  1  0  0  0  0
  3 23  1  0  0  0  0
  3 24  1  0  0  0  0
  4  5  1  0  0  0  0
  4 25  1  0  0  0  0
  4 26  1  0  0  0  0
  5  6  1  0  0  0  0
  5 27  1  0  0  0  0
  5 28  1  0  0  0  0
  6  7  1  0  0  0  0
  6 19  1  0  0  0  0
  6 29  1  0  0  0  0
  7  8  1  0  0  0  0
  7 30  1  0  0  0  0
  8  9  2  0  0  0  0
  8 10  1  0  0  0  0
 10 11  1  0  0  0  0
 10 31  1  0  0  0  0
 11 12  1  0  0  0  0
 11 32  1  0  0  0  0
 11 33  1  0  0  0  0
 12 13  1  0  0  0  0
 12 34  1  0  0  0  0
 12 35  1  0  0  0  0
 13 18  1  0  0  0  0
 13 14  2  0  0  0  0
 14 15  1  0  0  0  0
 14 36  1  0  0  0  0
 15 16  2  0  0  0  0
 15 37  1  0  0  0  0
 16 17  1  0  0  0  0
 16 43  1  0  0  0  0
 17 18  2  0  0  0  0
 17 38  1  0  0  0  0
 18 39  1  0  0  0  0
 19 40  1  0  0  0  0
 19 41  1  0  0  0  0
M  CHG  1   2   1
M  CHG  1  16   1
M  END
> <s_m_source_file>
AV-unprocessed.smi

> <i_m_source_file_index>
2931

> <i_lp_mmshare_version>
43012

> <i_f3d_flags>
0

> <s_epik_input>
W0NIM11OMVtDSDJdW0NIMl1bQ0gyXVtDQEhdKFtDSDJdMSlbTkhdQyg9TylbTkhdW0NIMl1bQ0gyXWMyW2NIXVtjSF1uW2NIXVtjSF0y

> <s_epik_cmdline>
J2VwaWtfcHl0aG9uJywgJy1waCcsICc3LjAnLCAnLXRuJywgJzgnLCAnLW1hJywgJzIwMCcsICctbWV0YWxfYmluZGluZycsICctaW1hZScsICc8aW5maWxlLm1hZT4nLCAnLW9tYWUnLCAnPG91dGZpbGUubWFlPic=

> <r_epik_Ionization_Penalty>
1.43754

> <r_epik_Ionization_Penalty_Charging>
1.4375

> <r_epik_Ionization_Penalty_Neutral>
3.7629e-05

> <r_epik_State_Penalty>
1.52008

> <r_epik_Charging_Adjusted_Penalty>
2.95758

> <i_epik_Tot_Q>
2

> <i_epik_Tot_abs_Q>
2

> <r_epik_Metal_State_Penalty>
1.57105

> <b_epik_Metal_Only>
0

> <s_lp_Force_Field>
OPLS_2005

> <r_lp_Energy>
22.8727

> <b_lp_Chiralities_Consistent>
1

> <s_lp_Variant>
AV-unprocessed.smi:2931-8

> <Gold.Version>
5.8.1

> <Gold.Id.Protein>
6NUR|6NUR_protein|mol2

> <Gold.PLP.Fitness>
42.1337

> <Gold.PLP.PLP>
-33.1445

> <Gold.PLP.part.hbond>
-2.4104

> <Gold.PLP.part.metal>
0.0000

> <Gold.PLP.part.buried>
0.0540

> <Gold.PLP.part.nonpolar>
-32.7808

> <Gold.PLP.part.repulsive>
0.9466

> <Gold.PLP.ligand.clash>
0.0000

> <Gold.PLP.ligand.torsion>
0.5377

> <Gold.PLP.Chemscore.Hbond>
3.3463

> <Gold.PLP.Chemscore.CHOScore>
0.0000

> <Gold.PLP.Chemscore.Metal>
0.0000

> <Gold.Chemscore.Hbonds>
donor molecule, donor type, donor heavy atom, donor atom, acceptor molecule, acceptor atom, score
      L1  H     7    30       P1  7948  0.72
      L1  H    10    31       P1  7948  0.62
      L1  H    16    43       P1  8028  1.66

> <Gold.PLP.Chemscore.Internal.Correction>
0.0258

> <Gold.Rescore>
     Score         DG    S(hbond)    S(metal)    S(lipo)     H(rot)  DE(clash)    DE(int)     intcor
     18.23     -20.45       2.47        0.00      93.42       1.65       1.61       0.62       ----

> <Gold.Chemscore.Fitness>
18.2290

> <Gold.Chemscore.DG>
-20.4504

> <Gold.Chemscore.ZeroCoef>
-5.4800

> <Gold.Chemscore.Hbond>
2.4716

> <Gold.Chemscore.Metal>
0.0000

> <Gold.Chemscore.Lipo>
93.4182

> <Gold.Chemscore.Internal_Hbond>
0.0000

> <Gold.Chemscore.DEClash>
1.6062

> <Gold.Chemscore.DEInternal>
0.6151

> <Gold.Chemscore.Rot>
1.6464

> <Gold.Chemscore.Internal.Correction>
   9.000000E+99

> <Gold.Chemscore.Hbonds>
donor molecule, donor type, donor heavy atom, donor atom, acceptor molecule, acceptor atom, score
      L1  H     7    30       P1  7948  0.55
      L1  H    10    31       P1  7948  0.62
      L1  H    16    43       P1  8028  0.80

> <Gold.Chemscore.Hbond.Weighted>
-8.2552

> <Gold.Chemscore.Metal.Weighted>
-0.0000

> <Gold.Chemscore.Lipo.Weighted>
-10.9299

> <Gold.Chemscore.Internal_Hbond.Weighted>
0.0000

> <Gold.Chemscore.DEClash.Weighted>
1.6062

> <Gold.Chemscore.DEInternal.Weighted>
0.6151

> <Gold.Chemscore.Rot.Weighted>
4.2148

> <Gold.Chemscore.Internal.Correction.Weighted>
   9.000000E+99

> <Gold.Protein.RotatedTorsions>
[ 6907 6896 6895 6894 ] final   22.01 input  -60.11 | X-H torsion
[ 7974 7965 7964 7962 ] final   67.69 input  175.53 | X-H torsion
[ 8008 7997 7996 7995 ] final  150.86 input   59.86 | X-H torsion
[ 10167 10162 10161 10158 ] final  -18.66 input  -65.29 | X-H torsion
[ 10718 10713 10712 10709 ] final -121.11 input   66.30 | X-H torsion
[ 10763 10752 10751 10750 ] final  123.67 input  -60.55 | X-H torsion
[ 11005 11000 10999 10996 ] final  122.94 input  -57.11 | X-H torsion

> <Gold.Protein.ActiveResidues>
 VAL166  LYS551  ARG553  GLY616  TRP617  ASP618  TYR619  PRO620  LYS621  CYS622 
 ASP623  PHE694  ASN695  SER759  ASP760  ASP761  ALA762  ILE779  LEU786  VAL792 
 PHE793  MET794  SER795  GLU796  ALA797  LYS798  CYS799  TRP800  GLU811  SER814 

> <Gold.Protein.RotatedAtoms>
  151.9206  135.0300  160.0521 H   0  0  0  0  0  0  0  0  0  0  0  0  # atno 6907 bound_to 6896
  152.2202  133.4973  159.5167 H   0  0  0  0  0  0  0  0  0  0  0  0  # atno 6908 bound_to 6896
  150.6998  134.1268  159.4098 H   0  0  0  0  0  0  0  0  0  0  0  0  # atno 6909 bound_to 6896
  145.8116  139.3035  143.1096 H   0  0  0  0  0  0  0  0  0  0  0  0  # atno 7974 bound_to 7965
  156.2698  140.2063  156.6084 H   0  0  0  0  0  0  0  0  0  0  0  0  # atno 8008 bound_to 7997
  154.6851  140.0536  157.0329 H   0  0  0  0  0  0  0  0  0  0  0  0  # atno 8009 bound_to 7997
  155.0946  140.3200  155.4567 H   0  0  0  0  0  0  0  0  0  0  0  0  # atno 8010 bound_to 7997
  140.7261  143.4895  151.0011 H   0  0  0  0  0  0  0  0  0  0  0  0  # atno 10167 bound_to 10162
  156.1311  130.6396  150.9622 H   0  0  0  0  0  0  0  0  0  0  0  0  # atno 10718 bound_to 10713
  153.6491  135.3366  155.3094 H   0  0  0  0  0  0  0  0  0  0  0  0  # atno 10763 bound_to 10752
  154.8542  135.4337  154.1923 H   0  0  0  0  0  0  0  0  0  0  0  0  # atno 10764 bound_to 10752
  153.2861  135.7013  153.7413 H   0  0  0  0  0  0  0  0  0  0  0  0  # atno 10765 bound_to 10752
  139.9290  134.9641  156.8185 H   0  0  0  0  0  0  0  0  0  0  0  0  # atno 11005 bound_to 11000
  145.9771  140.8713  143.0133 LP  0  0  0  0  0  0  0  0  0  0  0  0  # atno 17320 bound_to 7965
  144.6757  140.2028  143.7385 LP  0  0  0  0  0  0  0  0  0  0  0  0  # atno 17321 bound_to 7965
  139.8598  143.7329  152.3174 LP  0  0  0  0  0  0  0  0  0  0  0  0  # atno 17342 bound_to 10162
  139.7541  144.7526  151.0462 LP  0  0  0  0  0  0  0  0  0  0  0  0  # atno 17343 bound_to 10162
  157.6488  131.0900  150.8095 LP  0  0  0  0  0  0  0  0  0  0  0  0  # atno 17370 bound_to 10713
  156.8179  130.4974  149.5347 LP  0  0  0  0  0  0  0  0  0  0  0  0  # atno 17371 bound_to 10713
  140.6254  133.9955  155.7637 LP  0  0  0  0  0  0  0  0  0  0  0  0  # atno 17394 bound_to 11000
  141.0867  133.9979  157.3302 LP  0  0  0  0  0  0  0  0  0  0  0  0  # atno 17395 bound_to 11000

$$$$
