AV-unprocessed.smi:3167|AV-procd|sdf|12098|dock4
  -GOLD-   2272017533D 1   1.00000     0.00000
 Structure written by MMmdl.
 37 38  0  0  0  0  0  0  0  0  2 V2000
  151.0962  135.0532  156.2219 C   0  0  0  0  0  0  0  0  0  0  0  0
  150.3123  135.2825  154.9096 C   0  0  1  0  0  0  0  0  0  0  0  0
  148.9570  134.5355  154.9429 C   0  0  0  0  0  0  0  0  0  0  0  0
  148.1714  134.7730  153.7375 N   0  0  0  0  0  0  0  0  0  0  0  0
  146.9746  134.2217  153.4975 C   0  0  0  0  0  0  0  0  0  0  0  0
  146.4130  133.4556  154.2806 O   0  0  0  0  0  0  0  0  0  0  0  0
  146.4841  134.6123  152.3097 N   0  0  0  0  0  0  0  0  0  0  0  0
  145.2490  134.2366  151.7232 C   0  0  0  0  0  0  0  0  0  0  0  0
  144.3022  133.3610  152.3212 C   0  0  0  0  0  0  0  0  0  0  0  0
  143.2420  133.1914  151.5443 N   0  0  0  0  0  0  0  0  0  0  0  0
  143.5032  133.9495  150.4557 N   0  0  0  0  0  0  0  0  0  0  0  0
  144.7137  134.6037  150.5205 C   0  0  0  0  0  0  0  0  0  0  0  0
  150.1058  136.7372  154.6501 N   0  3  0  0  0  0  0  0  0  0  0  0
  149.2668  137.4542  155.6358 C   0  0  0  0  0  0  0  0  0  0  0  0
  149.6140  138.9271  155.4558 C   0  0  0  0  0  0  0  0  0  0  0  0
  151.1099  138.8932  155.1675 C   0  0  0  0  0  0  0  0  0  0  0  0
  151.3489  137.5356  154.4924 C   0  0  0  0  0  0  0  0  0  0  0  0
  142.8531  134.0089  149.6849 H   0  0  0  0  0  0  0  0  0  0  0  0
  151.2455  133.9927  156.4242 H   0  0  0  0  0  0  0  0  0  0  0  0
  150.5693  135.4790  157.0763 H   0  0  0  0  0  0  0  0  0  0  0  0
  152.0911  135.4965  156.1878 H   0  0  0  0  0  0  0  0  0  0  0  0
  150.9085  134.8805  154.0886 H   0  0  0  0  0  0  0  0  0  0  0  0
  149.1265  133.4632  155.0547 H   0  0  0  0  0  0  0  0  0  0  0  0
  148.3556  134.8496  155.7966 H   0  0  0  0  0  0  0  0  0  0  0  0
  148.5640  135.3917  153.0427 H   0  0  0  0  0  0  0  0  0  0  0  0
  147.0531  135.2443  151.7659 H   0  0  0  0  0  0  0  0  0  0  0  0
  144.3480  132.8535  153.2733 H   0  0  0  0  0  0  0  0  0  0  0  0
  145.0660  135.2471  149.7283 H   0  0  0  0  0  0  0  0  0  0  0  0
  148.2038  137.2654  155.4829 H   0  0  0  0  0  0  0  0  0  0  0  0
  149.5301  137.1355  156.6459 H   0  0  0  0  0  0  0  0  0  0  0  0
  149.0787  139.3327  154.5961 H   0  0  0  0  0  0  0  0  0  0  0  0
  149.3627  139.5328  156.3270 H   0  0  0  0  0  0  0  0  0  0  0  0
  151.4340  139.7321  154.5510 H   0  0  0  0  0  0  0  0  0  0  0  0
  151.6647  138.9388  156.1055 H   0  0  0  0  0  0  0  0  0  0  0  0
  152.2070  137.0451  154.9541 H   0  0  0  0  0  0  0  0  0  0  0  0
  151.5652  137.6539  153.4303 H   0  0  0  0  0  0  0  0  0  0  0  0
  149.6154  136.8128  153.7703 H   0  0  0  0  0  0  0  0  0  0  0  0
  1  2  1  0  0  0  0
  1 19  1  0  0  0  0
  1 20  1  0  0  0  0
  1 21  1  0  0  0  0
  2  3  1  0  0  0  0
  2 13  1  0  0  0  0
  2 22  1  0  0  0  0
  3  4  1  0  0  0  0
  3 23  1  0  0  0  0
  3 24  1  0  0  0  0
  4  5  1  0  0  0  0
  4 25  1  0  0  0  0
  5  6  2  0  0  0  0
  5  7  1  0  0  0  0
  7  8  1  0  0  0  0
  7 26  1  0  0  0  0
  8 12  2  0  0  0  0
  8  9  1  0  0  0  0
  9 10  2  0  0  0  0
  9 27  1  0  0  0  0
 10 11  1  0  0  0  0
 11 18  1  0  0  0  0
 11 12  1  0  0  0  0
 12 28  1  0  0  0  0
 13 17  1  0  0  0  0
 13 14  1  0  0  0  0
 13 37  1  0  0  0  0
 14 15  1  0  0  0  0
 14 29  1  0  0  0  0
 14 30  1  0  0  0  0
 15 16  1  0  0  0  0
 15 31  1  0  0  0  0
 15 32  1  0  0  0  0
 16 17  1  0  0  0  0
 16 33  1  0  0  0  0
 16 34  1  0  0  0  0
 17 35  1  0  0  0  0
 17 36  1  0  0  0  0
M  CHG  1  13   1
M  END
> <s_m_source_file>
AV-unprocessed.smi

> <i_m_source_file_index>
3167

> <i_lp_mmshare_version>
43012

> <i_f3d_flags>
0

> <s_epik_input>
W0NIMl0xW0NIMl1bQ0gyXVtDSDJdTjFbQ0BIXShbQ0gzXSlbQ0gyXVtOSF1DKD1PKVtOSF1jMltjSF1uW25IXVtjSF0y

> <s_epik_cmdline>
J2VwaWtfcHl0aG9uJywgJy1waCcsICc3LjAnLCAnLXRuJywgJzgnLCAnLW1hJywgJzIwMCcsICctbWV0YWxfYmluZGluZycsICctaW1hZScsICc8aW5maWxlLm1hZT4nLCAnLW9tYWUnLCAnPG91dGZpbGUubWFlPic=

> <r_lp_tautomer_probability>
0.5

> <r_epik_Ionization_Penalty>
0.000801258

> <r_epik_Ionization_Penalty_Charging>
0.000761583

> <r_epik_Ionization_Penalty_Neutral>
3.96747e-05

> <r_epik_State_Penalty>
0.000487427

> <r_epik_Charging_Adjusted_Penalty>
0.00124901

> <i_epik_Tot_Q>
1

> <i_epik_Tot_abs_Q>
1

> <r_epik_Metal_State_Penalty>
-0

> <b_epik_Metal_Only>
0

> <s_lp_Force_Field>
OPLS_2005

> <r_lp_Energy>
33.9812

> <b_lp_Chiralities_Consistent>
1

> <s_lp_Variant>
AV-unprocessed.smi:3167-2

> <Gold.Version>
5.8.1

> <Gold.Id.Protein>
6NUR|6NUR_protein|mol2

> <Gold.PLP.Fitness>
40.9855

> <Gold.PLP.PLP>
-22.4062

> <Gold.PLP.part.hbond>
-3.7310

> <Gold.PLP.part.metal>
0.0000

> <Gold.PLP.part.buried>
-1.8626

> <Gold.PLP.part.nonpolar>
-17.3667

> <Gold.PLP.part.repulsive>
0.3879

> <Gold.PLP.ligand.clash>
0.0000

> <Gold.PLP.ligand.torsion>
0.0225

> <Gold.PLP.Chemscore.Hbond>
4.1985

> <Gold.PLP.Chemscore.CHOScore>
2.0000

> <Gold.PLP.Chemscore.Metal>
0.0000

> <Gold.Chemscore.Hbonds>
donor molecule, donor type, donor heavy atom, donor atom, acceptor molecule, acceptor atom, score
      L1  H     4    25       P1  7948  0.86
      L1  H     7    26       P1  7948  0.66
      L1  H    11    18       P1 10186  0.69
      L1  H    13    37       P1  7948  1.79
      L1  C     9    27       P1 10957  1.00
      L1  C    12    28       P1  7921  1.00

> <Gold.PLP.Chemscore.Internal.Correction>
0.0288

> <Gold.Rescore>
     Score         DG    S(hbond)    S(metal)    S(lipo)     H(rot)  DE(clash)    DE(int)     intcor
     16.53     -18.01       3.13        0.00      53.38       1.63       0.04       1.44       ----

> <Gold.Chemscore.Fitness>
16.5327

> <Gold.Chemscore.DG>
-18.0108

> <Gold.Chemscore.ZeroCoef>
-5.4800

> <Gold.Chemscore.Hbond>
3.1322

> <Gold.Chemscore.Metal>
0.0000

> <Gold.Chemscore.Lipo>
53.3755

> <Gold.Chemscore.Internal_Hbond>
0.0000

> <Gold.Chemscore.DEClash>
0.0418

> <Gold.Chemscore.DEInternal>
1.4363

> <Gold.Chemscore.Rot>
1.6311

> <Gold.Chemscore.Internal.Correction>
   9.000000E+99

> <Gold.Chemscore.Hbonds>
donor molecule, donor type, donor heavy atom, donor atom, acceptor molecule, acceptor atom, score
      L1  H     4    25       P1  7948  0.78
      L1  H     7    26       P1  7948  0.64
      L1  H    11    18       P1 10186  0.68
      L1  H    13    37       P1  7948  0.68

> <Gold.Chemscore.Hbond.Weighted>
-10.4615

> <Gold.Chemscore.Metal.Weighted>
-0.0000

> <Gold.Chemscore.Lipo.Weighted>
-6.2449

> <Gold.Chemscore.Internal_Hbond.Weighted>
0.0000

> <Gold.Chemscore.DEClash.Weighted>
0.0418

> <Gold.Chemscore.DEInternal.Weighted>
1.4363

> <Gold.Chemscore.Rot.Weighted>
4.1757

> <Gold.Chemscore.Internal.Correction.Weighted>
   9.000000E+99

> <Gold.Protein.RotatedTorsions>
[ 6907 6896 6895 6894 ] final -165.85 input  -60.11 | X-H torsion
[ 7974 7965 7964 7962 ] final  -51.34 input  175.53 | X-H torsion
[ 8008 7997 7996 7995 ] final   33.31 input   59.86 | X-H torsion
[ 10167 10162 10161 10158 ] final -153.17 input  -65.29 | X-H torsion
[ 10718 10713 10712 10709 ] final   89.80 input   66.30 | X-H torsion
[ 10763 10752 10751 10750 ] final  -71.14 input  -60.55 | X-H torsion
[ 11005 11000 10999 10996 ] final  -97.42 input  -57.11 | X-H torsion

> <Gold.Protein.ActiveResidues>
 VAL166  LYS551  ARG553  GLY616  TRP617  ASP618  TYR619  PRO620  LYS621  CYS622 
 ASP623  PHE694  ASN695  SER759  ASP760  ASP761  ALA762  ILE779  LEU786  VAL792 
 PHE793  MET794  SER795  GLU796  ALA797  LYS798  CYS799  TRP800  GLU811  SER814 

> <Gold.Protein.RotatedAtoms>
  151.4342  133.3661  159.2772 H   0  0  0  0  0  0  0  0  0  0  0  0  # atno 6907 bound_to 6896
  150.9203  134.8622  159.7495 H   0  0  0  0  0  0  0  0  0  0  0  0  # atno 6908 bound_to 6896
  152.4978  134.4279  159.9554 H   0  0  0  0  0  0  0  0  0  0  0  0  # atno 6909 bound_to 6896
  145.9200  140.7842  142.9652 H   0  0  0  0  0  0  0  0  0  0  0  0  # atno 7974 bound_to 7965
  155.1366  140.3262  155.4462 H   0  0  0  0  0  0  0  0  0  0  0  0  # atno 8008 bound_to 7997
  156.2618  140.2001  156.6432 H   0  0  0  0  0  0  0  0  0  0  0  0  # atno 8009 bound_to 7997
  154.6573  140.0551  157.0010 H   0  0  0  0  0  0  0  0  0  0  0  0  # atno 8010 bound_to 7997
  139.7119  143.9094  152.2471 H   0  0  0  0  0  0  0  0  0  0  0  0  # atno 10167 bound_to 10162
  157.6957  131.0346  150.3480 H   0  0  0  0  0  0  0  0  0  0  0  0  # atno 10718 bound_to 10713
  154.4275  135.5972  153.6048 H   0  0  0  0  0  0  0  0  0  0  0  0  # atno 10763 bound_to 10752
  152.9797  135.5967  154.3880 H   0  0  0  0  0  0  0  0  0  0  0  0  # atno 10764 bound_to 10752
  154.3713  135.2841  155.2243 H   0  0  0  0  0  0  0  0  0  0  0  0  # atno 10765 bound_to 10752
  141.1379  133.8169  157.0703 H   0  0  0  0  0  0  0  0  0  0  0  0  # atno 11005 bound_to 11000
  144.6752  140.1960  143.7392 LP  0  0  0  0  0  0  0  0  0  0  0  0  # atno 17320 bound_to 7965
  145.8562  139.2200  143.1743 LP  0  0  0  0  0  0  0  0  0  0  0  0  # atno 17321 bound_to 7965
  139.8966  144.6935  150.8711 LP  0  0  0  0  0  0  0  0  0  0  0  0  # atno 17342 bound_to 10162
  140.7735  143.3545  151.1947 LP  0  0  0  0  0  0  0  0  0  0  0  0  # atno 17343 bound_to 10162
  156.3932  130.3902  149.7014 LP  0  0  0  0  0  0  0  0  0  0  0  0  # atno 17370 bound_to 10713
  156.4357  130.7836  151.2857 LP  0  0  0  0  0  0  0  0  0  0  0  0  # atno 17371 bound_to 10713
  140.0515  134.9803  157.1145 LP  0  0  0  0  0  0  0  0  0  0  0  0  # atno 17394 bound_to 11000
  140.3983  134.2110  155.7164 LP  0  0  0  0  0  0  0  0  0  0  0  0  # atno 17395 bound_to 11000

$$$$
