AV-unprocessed.smi:2469|AV-procd|sdf|9734|dock10
  -GOLD-   2272013373D 1   1.00000     0.00000
 Structure written by MMmdl.
 32 33  0  0  0  0  0  0  0  0  1 V2000
  148.5566  135.6751  154.9688 O   0  0  0  0  0  0  0  0  0  0  0  0
  149.3966  136.4281  155.8176 C   0  0  0  0  0  0  0  0  0  0  0  0
  150.5665  137.0191  155.0214 C   0  0  0  0  0  0  0  0  0  0  0  0
  150.1277  138.2044  154.3630 O   0  0  0  0  0  0  0  0  0  0  0  0
  150.2537  139.4103  155.0218 C   0  0  0  0  0  0  0  0  0  0  0  0
  151.0535  139.4652  156.1805 C   0  0  0  0  0  0  0  0  0  0  0  0
  151.1900  140.6929  156.8559 C   0  0  0  0  0  0  0  0  0  0  0  0
  150.5230  141.8331  156.3505 C   0  0  0  0  0  0  0  0  0  0  0  0
  150.5924  143.1016  156.9461 N   0  0  0  0  0  0  0  0  0  0  0  0
  151.4968  143.3821  158.0541 C   0  0  1  0  0  0  0  0  0  0  0  0
  151.3653  144.7874  158.6087 C   0  0  0  0  0  0  0  0  0  0  0  0
  151.9870  144.6314  159.9937 C   0  0  0  0  0  0  0  0  0  0  0  0
  151.7333  143.2849  160.3877 O   0  0  0  0  0  0  0  0  0  0  0  0
  151.1810  142.5536  159.2972 C   0  0  0  0  0  0  0  0  0  0  0  0
  149.7442  141.6705  155.1852 C   0  0  0  0  0  0  0  0  0  0  0  0
  149.6079  140.4972  154.5320 N   0  0  0  0  0  0  0  0  0  0  0  0
  148.4732  136.1323  154.1459 H   0  0  0  0  0  0  0  0  0  0  0  0
  148.8276  137.2072  156.3260 H   0  0  0  0  0  0  0  0  0  0  0  0
  149.7775  135.7537  156.5852 H   0  0  0  0  0  0  0  0  0  0  0  0
  151.3653  137.2796  155.7176 H   0  0  0  0  0  0  0  0  0  0  0  0
  150.9665  136.2881  154.3162 H   0  0  0  0  0  0  0  0  0  0  0  0
  151.5537  138.5804  156.5456 H   0  0  0  0  0  0  0  0  0  0  0  0
  151.8005  140.7381  157.7448 H   0  0  0  0  0  0  0  0  0  0  0  0
  150.1284  143.8800  156.4996 H   0  0  0  0  0  0  0  0  0  0  0  0
  152.5296  143.1895  157.7608 H   0  0  0  0  0  0  0  0  0  0  0  0
  151.8646  145.5447  158.0041 H   0  0  0  0  0  0  0  0  0  0  0  0
  150.3142  145.0652  158.7037 H   0  0  0  0  0  0  0  0  0  0  0  0
  153.0664  144.7805  159.9460 H   0  0  0  0  0  0  0  0  0  0  0  0
  151.5785  145.3409  160.7137 H   0  0  0  0  0  0  0  0  0  0  0  0
  150.1033  142.4771  159.4513 H   0  0  0  0  0  0  0  0  0  0  0  0
  151.5878  141.5435  159.2435 H   0  0  0  0  0  0  0  0  0  0  0  0
  149.2131  142.5096  154.7595 H   0  0  0  0  0  0  0  0  0  0  0  0
  1  2  1  0  0  0  0
  1 17  1  0  0  0  0
  2  3  1  0  0  0  0
  2 18  1  0  0  0  0
  2 19  1  0  0  0  0
  3  4  1  0  0  0  0
  3 20  1  0  0  0  0
  3 21  1  0  0  0  0
  4  5  1  0  0  0  0
  5 16  1  0  0  0  0
  5  6  2  0  0  0  0
  6  7  1  0  0  0  0
  6 22  1  0  0  0  0
  7  8  2  0  0  0  0
  7 23  1  0  0  0  0
  8  9  1  0  0  0  0
  8 15  1  0  0  0  0
  9 10  1  0  0  0  0
  9 24  1  0  0  0  0
 10 14  1  0  0  0  0
 10 11  1  0  0  0  0
 10 25  1  0  0  0  0
 11 12  1  0  0  0  0
 11 26  1  0  0  0  0
 11 27  1  0  0  0  0
 12 13  1  0  0  0  0
 12 28  1  0  0  0  0
 12 29  1  0  0  0  0
 13 14  1  0  0  0  0
 14 30  1  0  0  0  0
 14 31  1  0  0  0  0
 15 16  2  0  0  0  0
 15 32  1  0  0  0  0
M  END
> <s_m_source_file>
AV-unprocessed.smi

> <i_m_source_file_index>
2469

> <i_lp_mmshare_version>
43012

> <i_f3d_flags>
0

> <s_epik_input>
W09IXVtDSDJdW0NIMl1PYzFbY0hdW2NIXWMoW2NIXW4xKVtOSF1bQ0BASF0yW0NIMl1bQ0gyXU9bQ0gyXTI=

> <s_epik_cmdline>
J2VwaWtfcHl0aG9uJywgJy1waCcsICc3LjAnLCAnLXRuJywgJzgnLCAnLW1hJywgJzIwMCcsICctbWV0YWxfYmluZGluZycsICctaW1hZScsICc8aW5maWxlLm1hZT4nLCAnLW9tYWUnLCAnPG91dGZpbGUubWFlPic=

> <r_lp_tautomer_probability>
1

> <r_epik_Ionization_Penalty>
0.000432265

> <r_epik_Ionization_Penalty_Charging>
0

> <r_epik_Ionization_Penalty_Neutral>
0.000432265

> <r_epik_State_Penalty>
-0

> <r_epik_Charging_Adjusted_Penalty>
0

> <i_epik_Tot_Q>
0

> <i_epik_Tot_abs_Q>
0

> <r_epik_Metal_State_Penalty>
-0

> <b_epik_Metal_Only>
0

> <s_lp_Force_Field>
OPLS_2005

> <r_lp_Energy>
23.2185

> <b_lp_Chiralities_Consistent>
1

> <s_lp_Variant>
AV-unprocessed.smi:2469-2

> <Gold.Version>
5.8.1

> <Gold.Id.Protein>
6NUR|6NUR_protein|mol2

> <Gold.PLP.Fitness>
42.8857

> <Gold.PLP.PLP>
-34.7829

> <Gold.PLP.part.hbond>
-3.0000

> <Gold.PLP.part.metal>
0.0000

> <Gold.PLP.part.buried>
-4.0765

> <Gold.PLP.part.nonpolar>
-27.8380

> <Gold.PLP.part.repulsive>
0.4204

> <Gold.PLP.ligand.clash>
0.0000

> <Gold.PLP.ligand.torsion>
0.4693

> <Gold.PLP.Chemscore.Hbond>
2.0000

> <Gold.PLP.Chemscore.CHOScore>
1.0000

> <Gold.PLP.Chemscore.Metal>
0.0000

> <Gold.Chemscore.Hbonds>
donor molecule, donor type, donor heavy atom, donor atom, acceptor molecule, acceptor atom, score
      L1  H     1    17       P1  7948  0.25
      L1  H     9    24       P1  8028  1.00
      P1  H  7989  7998       L1    16  0.03
      L1  C    15    32       P1  8028  1.00

> <Gold.PLP.Chemscore.Internal.Correction>
0.0413

> <Gold.Rescore>
     Score         DG    S(hbond)    S(metal)    S(lipo)     H(rot)  DE(clash)    DE(int)     intcor
     15.05     -15.84       1.93        0.00      84.18       2.32       0.00       0.79       ----

> <Gold.Chemscore.Fitness>
15.0503

> <Gold.Chemscore.DG>
-15.8435

> <Gold.Chemscore.ZeroCoef>
-5.4800

> <Gold.Chemscore.Hbond>
1.9342

> <Gold.Chemscore.Metal>
0.0000

> <Gold.Chemscore.Lipo>
84.1793

> <Gold.Chemscore.Internal_Hbond>
0.0000

> <Gold.Chemscore.DEClash>
0.0004

> <Gold.Chemscore.DEInternal>
0.7928

> <Gold.Chemscore.Rot>
2.3225

> <Gold.Chemscore.Internal.Correction>
   9.000000E+99

> <Gold.Chemscore.Hbonds>
donor molecule, donor type, donor heavy atom, donor atom, acceptor molecule, acceptor atom, score
      L1  H     1    17       P1  7948  0.25
      L1  H     9    24       P1  8028  0.99

> <Gold.Chemscore.Hbond.Weighted>
-6.4601

> <Gold.Chemscore.Metal.Weighted>
-0.0000

> <Gold.Chemscore.Lipo.Weighted>
-9.8490

> <Gold.Chemscore.Internal_Hbond.Weighted>
0.0000

> <Gold.Chemscore.DEClash.Weighted>
0.0004

> <Gold.Chemscore.DEInternal.Weighted>
0.7928

> <Gold.Chemscore.Rot.Weighted>
5.9456

> <Gold.Chemscore.Internal.Correction.Weighted>
   9.000000E+99

> <Gold.Protein.RotatedTorsions>
[ 6907 6896 6895 6894 ] final  -52.90 input  -60.11 | X-H torsion
[ 7974 7965 7964 7962 ] final -165.05 input  175.53 | X-H torsion
[ 8008 7997 7996 7995 ] final -105.48 input   59.86 | X-H torsion
[ 10167 10162 10161 10158 ] final  112.44 input  -65.29 | X-H torsion
[ 10718 10713 10712 10709 ] final  -28.45 input   66.30 | X-H torsion
[ 10763 10752 10751 10750 ] final  157.35 input  -60.55 | X-H torsion
[ 11005 11000 10999 10996 ] final -124.93 input  -57.11 | X-H torsion

> <Gold.Protein.ActiveResidues>
 VAL166  LYS551  ARG553  GLY616  TRP617  ASP618  TYR619  PRO620  LYS621  CYS622 
 ASP623  PHE694  ASN695  SER759  ASP760  ASP761  ALA762  ILE779  LEU786  VAL792 
 PHE793  MET794  SER795  GLU796  ALA797  LYS798  CYS799  TRP800  GLU811  SER814 

> <Gold.Protein.RotatedAtoms>
  150.8475  134.7789  159.6982 H   0  0  0  0  0  0  0  0  0  0  0  0  # atno 6907 bound_to 6896
  152.4548  134.5311  159.9821 H   0  0  0  0  0  0  0  0  0  0  0  0  # atno 6908 bound_to 6896
  151.5439  133.3390  159.2976 H   0  0  0  0  0  0  0  0  0  0  0  0  # atno 6909 bound_to 6896
  144.7280  140.2871  143.6226 H   0  0  0  0  0  0  0  0  0  0  0  0  # atno 7974 bound_to 7965
  154.9005  140.0413  157.1890 H   0  0  0  0  0  0  0  0  0  0  0  0  # atno 8008 bound_to 7997
  154.8449  140.2920  155.5614 H   0  0  0  0  0  0  0  0  0  0  0  0  # atno 8009 bound_to 7997
  156.2994  140.2476  156.3398 H   0  0  0  0  0  0  0  0  0  0  0  0  # atno 8010 bound_to 7997
  139.6535  144.7129  151.2001 H   0  0  0  0  0  0  0  0  0  0  0  0  # atno 10167 bound_to 10162
  156.4251  130.4434  149.7156 H   0  0  0  0  0  0  0  0  0  0  0  0  # atno 10718 bound_to 10713
  154.1989  135.2791  155.2997 H   0  0  0  0  0  0  0  0  0  0  0  0  # atno 10763 bound_to 10752
  154.5870  135.5572  153.7244 H   0  0  0  0  0  0  0  0  0  0  0  0  # atno 10764 bound_to 10752
  153.0093  135.6359  154.2128 H   0  0  0  0  0  0  0  0  0  0  0  0  # atno 10765 bound_to 10752
  140.9802  134.0683  157.3773 H   0  0  0  0  0  0  0  0  0  0  0  0  # atno 11005 bound_to 11000
  145.7892  139.1920  143.2113 LP  0  0  0  0  0  0  0  0  0  0  0  0  # atno 17320 bound_to 7965
  146.0770  140.7806  142.9660 LP  0  0  0  0  0  0  0  0  0  0  0  0  # atno 17321 bound_to 7965
  140.7549  143.6110  150.8605 LP  0  0  0  0  0  0  0  0  0  0  0  0  # atno 17342 bound_to 10162
  139.9761  143.6003  152.2958 LP  0  0  0  0  0  0  0  0  0  0  0  0  # atno 17343 bound_to 10162
  156.4081  130.7708  151.2720 LP  0  0  0  0  0  0  0  0  0  0  0  0  # atno 17370 bound_to 10713
  157.7508  131.0219  150.3772 LP  0  0  0  0  0  0  0  0  0  0  0  0  # atno 17371 bound_to 10713
  139.8947  135.0137  156.6964 LP  0  0  0  0  0  0  0  0  0  0  0  0  # atno 17394 bound_to 11000
  140.7198  133.9151  155.8139 LP  0  0  0  0  0  0  0  0  0  0  0  0  # atno 17395 bound_to 11000

$$$$
