AV-unprocessed.smi:1593|AV-procd|sdf|6413|dock8
  -GOLD-   22720 7 43D 1   1.00000     0.00000
 Structure written by MMmdl.
 36 37  0  0  0  0  0  0  0  0  3 V2000
  151.1709  142.1436  157.4260 C   0  0  0  0  0  0  0  0  0  0  0  0
  150.7045  141.4439  156.1958 C   0  0  0  0  0  0  0  0  0  0  0  0
  149.5455  141.5025  155.4745 C   0  0  0  0  0  0  0  0  0  0  0  0
  149.7743  140.5759  154.4225 C   0  0  0  0  0  0  0  0  0  0  0  0
  148.7852  140.3502  153.4290 N   0  0  0  0  0  0  0  0  0  0  0  0
  147.4454  140.3812  153.5515 C   0  0  0  0  0  0  0  0  0  0  0  0
  146.9243  140.6827  154.6320 O   0  0  0  0  0  0  0  0  0  0  0  0
  146.8151  140.0576  152.3888 N   0  5  0  0  0  0  0  0  0  0  0  0
  146.7422  138.7084  151.8325 C   0  0  0  0  0  0  0  0  0  0  0  0
  146.1660  137.7423  152.8854 C   0  0  0  0  0  0  0  0  0  0  0  0
  146.2388  136.3255  152.4388 N   0  3  0  0  0  0  0  0  0  0  0  0
  145.9023  135.3601  153.5132 C   0  0  0  0  0  0  0  0  0  0  0  0
  146.0830  133.9172  153.0118 C   0  0  0  0  0  0  0  0  0  0  0  0
  145.2775  133.7055  151.8588 O   0  0  0  0  0  0  0  0  0  0  0  0
  145.6398  134.5703  150.7892 C   0  0  0  0  0  0  0  0  0  0  0  0
  145.4400  136.0328  151.2191 C   0  0  0  0  0  0  0  0  0  0  0  0
  150.9665  140.0028  154.4971 N   0  0  0  0  0  0  0  0  0  0  0  0
  151.5683  140.5558  155.6335 O   0  0  0  0  0  0  0  0  0  0  0  0
  150.4121  142.8353  157.7925 H   0  0  0  0  0  0  0  0  0  0  0  0
  152.0786  142.7128  157.2255 H   0  0  0  0  0  0  0  0  0  0  0  0
  151.3875  141.4277  158.2189 H   0  0  0  0  0  0  0  0  0  0  0  0
  148.6757  142.1121  155.6688 H   0  0  0  0  0  0  0  0  0  0  0  0
  149.1347  140.1194  152.5110 H   0  0  0  0  0  0  0  0  0  0  0  0
  146.1167  138.6652  150.9399 H   0  0  0  0  0  0  0  0  0  0  0  0
  147.7250  138.3496  151.5243 H   0  0  0  0  0  0  0  0  0  0  0  0
  146.7412  137.8653  153.8047 H   0  0  0  0  0  0  0  0  0  0  0  0
  145.1366  138.0034  153.1369 H   0  0  0  0  0  0  0  0  0  0  0  0
  146.5455  135.5275  154.3780 H   0  0  0  0  0  0  0  0  0  0  0  0
  144.8735  135.5194  153.8402 H   0  0  0  0  0  0  0  0  0  0  0  0
  147.1301  133.7138  152.7814 H   0  0  0  0  0  0  0  0  0  0  0  0
  145.7842  133.2103  153.7859 H   0  0  0  0  0  0  0  0  0  0  0  0
  146.6739  134.3889  150.4914 H   0  0  0  0  0  0  0  0  0  0  0  0
  145.0149  134.3442  149.9250 H   0  0  0  0  0  0  0  0  0  0  0  0
  144.3839  136.2208  151.4188 H   0  0  0  0  0  0  0  0  0  0  0  0
  145.7323  136.6948  150.4034 H   0  0  0  0  0  0  0  0  0  0  0  0
  147.2076  136.1599  152.2057 H   0  0  0  0  0  0  0  0  0  0  0  0
  1  2  1  0  0  0  0
  1 19  1  0  0  0  0
  1 20  1  0  0  0  0
  1 21  1  0  0  0  0
  2 18  1  0  0  0  0
  2  3  2  0  0  0  0
  3  4  1  0  0  0  0
  3 22  1  0  0  0  0
  4  5  1  0  0  0  0
  4 17  2  0  0  0  0
  5  6  1  0  0  0  0
  5 23  1  0  0  0  0
  6  7  2  0  0  0  0
  6  8  1  0  0  0  0
  8  9  1  0  0  0  0
  9 10  1  0  0  0  0
  9 24  1  0  0  0  0
  9 25  1  0  0  0  0
 10 11  1  0  0  0  0
 10 26  1  0  0  0  0
 10 27  1  0  0  0  0
 11 16  1  0  0  0  0
 11 12  1  0  0  0  0
 11 36  1  0  0  0  0
 12 13  1  0  0  0  0
 12 28  1  0  0  0  0
 12 29  1  0  0  0  0
 13 14  1  0  0  0  0
 13 30  1  0  0  0  0
 13 31  1  0  0  0  0
 14 15  1  0  0  0  0
 15 16  1  0  0  0  0
 15 32  1  0  0  0  0
 15 33  1  0  0  0  0
 16 34  1  0  0  0  0
 16 35  1  0  0  0  0
 17 18  1  0  0  0  0
M  CHG  1   8  -1
M  CHG  1  11   1
M  END
> <s_m_source_file>
AV-unprocessed.smi

> <i_m_source_file_index>
1593

> <i_lp_mmshare_version>
43012

> <i_f3d_flags>
0

> <s_epik_input>
W0NIM11jMVtjSF1jKG5vMSlbTkhdQyg9TylbTkhdW0NIMl1bQ0gyXU4yW0NIMl1bQ0gyXU9bQ0gyXVtDSDJdMg==

> <s_epik_cmdline>
J2VwaWtfcHl0aG9uJywgJy1waCcsICc3LjAnLCAnLXRuJywgJzgnLCAnLW1hJywgJzIwMCcsICctbWV0YWxfYmluZGluZycsICctaW1hZScsICc8aW5maWxlLm1hZT4nLCAnLW9tYWUnLCAnPG91dGZpbGUubWFlPic=

> <r_epik_Ionization_Penalty>
6.79272

> <r_epik_Ionization_Penalty_Charging>
6.79272

> <r_epik_Ionization_Penalty_Neutral>
5.6208e-06

> <r_epik_State_Penalty>
7.45901

> <r_epik_Charging_Adjusted_Penalty>
14.2517

> <i_epik_Tot_Q>
0

> <i_epik_Tot_abs_Q>
2

> <r_epik_Metal_State_Penalty>
3.38639

> <b_epik_Metal_Only>
1

> <s_lp_Force_Field>
OPLS_2005

> <r_lp_Energy>
12.9182

> <b_lp_Chiralities_Consistent>
1

> <s_lp_Variant>
AV-unprocessed.smi:1593-5

> <Gold.Version>
5.8.1

> <Gold.Id.Protein>
6NUR|6NUR_protein|mol2

> <Gold.PLP.Fitness>
39.7001

> <Gold.PLP.PLP>
-29.7507

> <Gold.PLP.part.hbond>
-3.7243

> <Gold.PLP.part.metal>
0.0000

> <Gold.PLP.part.buried>
-3.1773

> <Gold.PLP.part.nonpolar>
-24.7515

> <Gold.PLP.part.repulsive>
1.3245

> <Gold.PLP.ligand.clash>
0.0000

> <Gold.PLP.ligand.torsion>
0.9631

> <Gold.PLP.Chemscore.Hbond>
3.9425

> <Gold.PLP.Chemscore.CHOScore>
0.0000

> <Gold.PLP.Chemscore.Metal>
0.0000

> <Gold.Chemscore.Hbonds>
donor molecule, donor type, donor heavy atom, donor atom, acceptor molecule, acceptor atom, score
      L1  H     5    23       P1  7957  0.76
      L1  H    11    36       P1  7948  2.00
      P1  H  7989  7998       L1    17  0.63

> <Gold.PLP.Chemscore.Internal.Correction>
0.0482

> <Gold.Rescore>
     Score         DG    S(hbond)    S(metal)    S(lipo)     H(rot)  DE(clash)    DE(int)     intcor
     14.00     -16.54       2.74        0.00      51.69       1.62       0.25       2.29       ----

> <Gold.Chemscore.Fitness>
14.0002

> <Gold.Chemscore.DG>
-16.5371

> <Gold.Chemscore.ZeroCoef>
-5.4800

> <Gold.Chemscore.Hbond>
2.7437

> <Gold.Chemscore.Metal>
0.0000

> <Gold.Chemscore.Lipo>
51.6872

> <Gold.Chemscore.Internal_Hbond>
0.0000

> <Gold.Chemscore.DEClash>
0.2482

> <Gold.Chemscore.DEInternal>
2.2887

> <Gold.Chemscore.Rot>
1.6228

> <Gold.Chemscore.Internal.Correction>
   9.000000E+99

> <Gold.Chemscore.Hbonds>
donor molecule, donor type, donor heavy atom, donor atom, acceptor molecule, acceptor atom, score
      L1  H     5    23       P1  7957  0.75
      L1  H    11    36       P1  7948  1.00
      P1  H  7989  7998       L1    17  0.02

> <Gold.Chemscore.Hbond.Weighted>
-9.1640

> <Gold.Chemscore.Metal.Weighted>
-0.0000

> <Gold.Chemscore.Lipo.Weighted>
-6.0474

> <Gold.Chemscore.Internal_Hbond.Weighted>
0.0000

> <Gold.Chemscore.DEClash.Weighted>
0.2482

> <Gold.Chemscore.DEInternal.Weighted>
2.2887

> <Gold.Chemscore.Rot.Weighted>
4.1542

> <Gold.Chemscore.Internal.Correction.Weighted>
   9.000000E+99

> <Gold.Protein.RotatedTorsions>
[ 6907 6896 6895 6894 ] final  -86.72 input  -60.11 | X-H torsion
[ 7974 7965 7964 7962 ] final   -9.59 input  175.53 | X-H torsion
[ 8008 7997 7996 7995 ] final   62.87 input   59.86 | X-H torsion
[ 10167 10162 10161 10158 ] final   99.06 input  -65.29 | X-H torsion
[ 10718 10713 10712 10709 ] final -145.23 input   66.30 | X-H torsion
[ 10763 10752 10751 10750 ] final    8.34 input  -60.55 | X-H torsion
[ 11005 11000 10999 10996 ] final  132.87 input  -57.11 | X-H torsion

> <Gold.Protein.ActiveResidues>
 VAL166  LYS551  ARG553  GLY616  TRP617  ASP618  TYR619  PRO620  LYS621  CYS622 
 ASP623  PHE694  ASN695  SER759  ASP760  ASP761  ALA762  ILE779  LEU786  VAL792 
 PHE793  MET794  SER795  GLU796  ALA797  LYS798  CYS799  TRP800  GLU811  SER814 

> <Gold.Protein.RotatedAtoms>
  150.6866  134.3007  159.4704 H   0  0  0  0  0  0  0  0  0  0  0  0  # atno 6907 bound_to 6896
  152.0903  134.9409  160.0581 H   0  0  0  0  0  0  0  0  0  0  0  0  # atno 6908 bound_to 6896
  152.0727  133.4080  159.4503 H   0  0  0  0  0  0  0  0  0  0  0  0  # atno 6909 bound_to 6896
  146.2247  140.2638  142.8353 H   0  0  0  0  0  0  0  0  0  0  0  0  # atno 7974 bound_to 7965
  155.6212  140.3496  155.4653 H   0  0  0  0  0  0  0  0  0  0  0  0  # atno 8008 bound_to 7997
  156.0077  140.1226  157.0508 H   0  0  0  0  0  0  0  0  0  0  0  0  # atno 8009 bound_to 7997
  154.4270  140.1088  156.5772 H   0  0  0  0  0  0  0  0  0  0  0  0  # atno 8010 bound_to 7997
  139.7652  144.6941  151.0235 H   0  0  0  0  0  0  0  0  0  0  0  0  # atno 10167 bound_to 10162
  156.3799  130.7831  151.2022 H   0  0  0  0  0  0  0  0  0  0  0  0  # atno 10718 bound_to 10713
  153.2262  135.6887  153.7943 H   0  0  0  0  0  0  0  0  0  0  0  0  # atno 10763 bound_to 10752
  153.7124  135.3280  155.3250 H   0  0  0  0  0  0  0  0  0  0  0  0  # atno 10764 bound_to 10752
  154.8293  135.4593  154.1129 H   0  0  0  0  0  0  0  0  0  0  0  0  # atno 10765 bound_to 10752
  139.9816  134.9546  156.9643 H   0  0  0  0  0  0  0  0  0  0  0  0  # atno 11005 bound_to 11000
  144.9319  140.7984  143.5684 LP  0  0  0  0  0  0  0  0  0  0  0  0  # atno 17320 bound_to 7965
  145.2583  139.2003  143.4906 LP  0  0  0  0  0  0  0  0  0  0  0  0  # atno 17321 bound_to 7965
  140.7810  143.4651  151.0224 LP  0  0  0  0  0  0  0  0  0  0  0  0  # atno 17342 bound_to 10162
  139.8336  143.7658  152.3180 LP  0  0  0  0  0  0  0  0  0  0  0  0  # atno 17343 bound_to 10162
  157.7491  131.0347  150.4330 LP  0  0  0  0  0  0  0  0  0  0  0  0  # atno 17370 bound_to 10713
  156.4572  130.4024  149.6599 LP  0  0  0  0  0  0  0  0  0  0  0  0  # atno 17371 bound_to 10713
  140.5084  134.1026  155.7265 LP  0  0  0  0  0  0  0  0  0  0  0  0  # atno 17394 bound_to 11000
  141.1487  133.9007  157.2151 LP  0  0  0  0  0  0  0  0  0  0  0  0  # atno 17395 bound_to 11000

$$$$
