AV-unprocessed.smi:2089|AV-procd|sdf|8531|dock8
  -GOLD-   2272011253D 1   1.00000     0.00000
 Structure written by MMmdl.
 40 41  0  0  0  0  0  0  0  0  2 V2000
  151.5448  136.3074  156.6947 C   0  0  0  0  0  0  0  0  0  0  0  0
  150.8296  136.6482  155.0348 S   0  0  0  0  0  0  0  0  0  0  0  0
  151.9198  136.8342  154.0652 O   0  0  0  0  0  0  0  0  0  0  0  0
  149.7811  135.6496  154.7753 O   0  0  0  0  0  0  0  0  0  0  0  0
  150.0563  138.1822  155.2602 N   0  0  0  0  0  0  0  0  0  0  0  0
  150.8547  139.2948  155.7937 C   0  0  0  0  0  0  0  0  0  0  0  0
  150.6939  140.4345  154.7923 C   0  0  0  0  0  0  0  0  0  0  0  0
  149.2953  140.2102  154.2389 C   0  0  0  0  0  0  0  0  0  0  0  0
  149.1699  138.6787  154.1933 C   0  0  2  0  0  0  0  0  0  0  0  0
  147.7211  138.1940  154.3255 C   0  0  0  0  0  0  0  0  0  0  0  0
  147.0015  138.6184  155.2301 O   0  0  0  0  0  0  0  0  0  0  0  0
  147.3114  137.2817  153.4325 N   0  0  0  0  0  0  0  0  0  0  0  0
  145.9919  136.6671  153.4362 C   0  0  0  0  0  0  0  0  0  0  0  0
  145.3956  136.6506  152.0224 C   0  0  0  0  0  0  0  0  0  0  0  0
  145.3839  135.2572  151.4237 C   0  0  0  0  0  0  0  0  0  0  0  0
  144.1879  134.6150  151.0351 C   0  0  0  0  0  0  0  0  0  0  0  0
  144.2495  133.3140  150.4934 C   0  0  0  0  0  0  0  0  0  0  0  0
  145.5028  132.6826  150.3539 C   0  0  0  0  0  0  0  0  0  0  0  0
  146.6651  133.3692  150.7600 C   0  0  0  0  0  0  0  0  0  0  0  0
  146.5651  134.6149  151.2739 N   0  3  0  0  0  0  0  0  0  0  0  0
  152.0459  135.3398  156.6811 H   0  0  0  0  0  0  0  0  0  0  0  0
  150.7473  136.2908  157.4371 H   0  0  0  0  0  0  0  0  0  0  0  0
  152.2657  137.0822  156.9535 H   0  0  0  0  0  0  0  0  0  0  0  0
  150.4529  139.5765  156.7675 H   0  0  0  0  0  0  0  0  0  0  0  0
  151.9007  139.0171  155.9263 H   0  0  0  0  0  0  0  0  0  0  0  0
  150.8190  141.4181  155.2454 H   0  0  0  0  0  0  0  0  0  0  0  0
  151.4302  140.3336  153.9935 H   0  0  0  0  0  0  0  0  0  0  0  0
  148.5612  140.6560  154.9122 H   0  0  0  0  0  0  0  0  0  0  0  0
  149.1666  140.6664  153.2570 H   0  0  0  0  0  0  0  0  0  0  0  0
  149.5792  138.3393  153.2396 H   0  0  0  0  0  0  0  0  0  0  0  0
  147.9655  136.9757  152.7265 H   0  0  0  0  0  0  0  0  0  0  0  0
  146.0745  135.6497  153.8216 H   0  0  0  0  0  0  0  0  0  0  0  0
  145.3356  137.2173  154.1127 H   0  0  0  0  0  0  0  0  0  0  0  0
  144.3766  137.0401  152.0418 H   0  0  0  0  0  0  0  0  0  0  0  0
  145.9658  137.3107  151.3668 H   0  0  0  0  0  0  0  0  0  0  0  0
  143.2344  135.1097  151.1514 H   0  0  0  0  0  0  0  0  0  0  0  0
  143.3460  132.8060  150.1895 H   0  0  0  0  0  0  0  0  0  0  0  0
  145.5711  131.6860  149.9424 H   0  0  0  0  0  0  0  0  0  0  0  0
  147.6637  132.9626  150.6905 H   0  0  0  0  0  0  0  0  0  0  0  0
  147.4193  135.0930  151.5626 H   0  0  0  0  0  0  0  0  0  0  0  0
  1  2  1  0  0  0  0
  1 21  1  0  0  0  0
  1 22  1  0  0  0  0
  1 23  1  0  0  0  0
  2  3  2  0  0  0  0
  2  4  2  0  0  0  0
  2  5  1  0  0  0  0
  5  9  1  0  0  0  0
  5  6  1  0  0  0  0
  6  7  1  0  0  0  0
  6 24  1  0  0  0  0
  6 25  1  0  0  0  0
  7  8  1  0  0  0  0
  7 26  1  0  0  0  0
  7 27  1  0  0  0  0
  8  9  1  0  0  0  0
  8 28  1  0  0  0  0
  8 29  1  0  0  0  0
  9 10  1  0  0  0  0
  9 30  1  0  0  0  0
 10 11  2  0  0  0  0
 10 12  1  0  0  0  0
 12 13  1  0  0  0  0
 12 31  1  0  0  0  0
 13 14  1  0  0  0  0
 13 32  1  0  0  0  0
 13 33  1  0  0  0  0
 14 15  1  0  0  0  0
 14 34  1  0  0  0  0
 14 35  1  0  0  0  0
 15 20  1  0  0  0  0
 15 16  2  0  0  0  0
 16 17  1  0  0  0  0
 16 36  1  0  0  0  0
 17 18  2  0  0  0  0
 17 37  1  0  0  0  0
 18 19  1  0  0  0  0
 18 38  1  0  0  0  0
 19 20  2  0  0  0  0
 19 39  1  0  0  0  0
 20 40  1  0  0  0  0
M  CHG  1  20   1
M  END
> <s_m_source_file>
AV-unprocessed.smi

> <i_m_source_file_index>
2089

> <i_lp_mmshare_version>
43012

> <i_f3d_flags>
0

> <s_epik_input>
W0NIM11TKD1PKSg9TylOMVtDSDJdW0NIMl1bQ0gyXVtDQEhdMUMoPU8pW05IXVtDSDJdW0NIMl1jMltjSF1bY0hdW2NIXVtjSF1uMg==

> <s_epik_cmdline>
J2VwaWtfcHl0aG9uJywgJy1waCcsICc3LjAnLCAnLXRuJywgJzgnLCAnLW1hJywgJzIwMCcsICctbWV0YWxfYmluZGluZycsICctaW1hZScsICc8aW5maWxlLm1hZT4nLCAnLW9tYWUnLCAnPG91dGZpbGUubWFlPic=

> <r_epik_Ionization_Penalty>
1.90116

> <r_epik_Ionization_Penalty_Charging>
1.90116

> <r_epik_Ionization_Penalty_Neutral>
1.4017e-07

> <r_epik_State_Penalty>
2.02245

> <r_epik_Charging_Adjusted_Penalty>
3.9236

> <i_epik_Tot_Q>
1

> <i_epik_Tot_abs_Q>
1

> <r_epik_Metal_State_Penalty>
2.04621

> <b_epik_Metal_Only>
0

> <s_lp_Force_Field>
OPLS_2005

> <r_lp_Energy>
13.4041

> <b_lp_Chiralities_Consistent>
1

> <s_lp_Variant>
AV-unprocessed.smi:2089-4

> <Gold.Version>
5.8.1

> <Gold.Id.Protein>
6NUR|6NUR_protein|mol2

> <Gold.PLP.Fitness>
39.3039

> <Gold.PLP.PLP>
-28.5797

> <Gold.PLP.part.hbond>
-3.0000

> <Gold.PLP.part.metal>
0.0000

> <Gold.PLP.part.buried>
-2.7640

> <Gold.PLP.part.nonpolar>
-23.1423

> <Gold.PLP.part.repulsive>
0.4885

> <Gold.PLP.ligand.clash>
0.0000

> <Gold.PLP.ligand.torsion>
0.8821

> <Gold.PLP.Chemscore.Hbond>
4.0000

> <Gold.PLP.Chemscore.CHOScore>
0.0000

> <Gold.PLP.Chemscore.Metal>
0.0000

> <Gold.Chemscore.Hbonds>
donor molecule, donor type, donor heavy atom, donor atom, acceptor molecule, acceptor atom, score
      L1  H    12    31       P1  7948  0.94
      L1  H    20    40       P1  7948  2.00
      P1  H 10752 10765       L1     3  1.00

> <Gold.PLP.Chemscore.Internal.Correction>
0.4886

> <Gold.Rescore>
     Score         DG    S(hbond)    S(metal)    S(lipo)     H(rot)  DE(clash)    DE(int)     intcor
     17.40     -18.12       2.88        0.00      69.81       2.00       0.02       0.71       ----

> <Gold.Chemscore.Fitness>
17.3972

> <Gold.Chemscore.DG>
-18.1245

> <Gold.Chemscore.ZeroCoef>
-5.4800

> <Gold.Chemscore.Hbond>
2.8767

> <Gold.Chemscore.Metal>
0.0000

> <Gold.Chemscore.Lipo>
69.8065

> <Gold.Chemscore.Internal_Hbond>
0.0000

> <Gold.Chemscore.DEClash>
0.0166

> <Gold.Chemscore.DEInternal>
0.7107

> <Gold.Chemscore.Rot>
2.0043

> <Gold.Chemscore.Internal.Correction>
   9.000000E+99

> <Gold.Chemscore.Hbonds>
donor molecule, donor type, donor heavy atom, donor atom, acceptor molecule, acceptor atom, score
      L1  H    12    31       P1  7948  0.90
      L1  H    20    40       P1  7948  0.74
      P1  H 10752 10765       L1     3  0.42

> <Gold.Chemscore.Hbond.Weighted>
-9.6080

> <Gold.Chemscore.Metal.Weighted>
-0.0000

> <Gold.Chemscore.Lipo.Weighted>
-8.1674

> <Gold.Chemscore.Internal_Hbond.Weighted>
0.0000

> <Gold.Chemscore.DEClash.Weighted>
0.0166

> <Gold.Chemscore.DEInternal.Weighted>
0.7107

> <Gold.Chemscore.Rot.Weighted>
5.1309

> <Gold.Chemscore.Internal.Correction.Weighted>
   9.000000E+99

> <Gold.Protein.RotatedTorsions>
[ 6907 6896 6895 6894 ] final  -23.46 input  -60.11 | X-H torsion
[ 7974 7965 7964 7962 ] final -157.56 input  175.53 | X-H torsion
[ 8008 7997 7996 7995 ] final  150.00 input   59.86 | X-H torsion
[ 10167 10162 10161 10158 ] final -177.61 input  -65.29 | X-H torsion
[ 10718 10713 10712 10709 ] final   49.52 input   66.30 | X-H torsion
[ 10763 10752 10751 10750 ] final  169.30 input  -60.55 | X-H torsion
[ 11005 11000 10999 10996 ] final  129.71 input  -57.11 | X-H torsion

> <Gold.Protein.ActiveResidues>
 VAL166  LYS551  ARG553  GLY616  TRP617  ASP618  TYR619  PRO620  LYS621  CYS622 
 ASP623  PHE694  ASN695  SER759  ASP760  ASP761  ALA762  ILE779  LEU786  VAL792 
 PHE793  MET794  SER795  GLU796  ALA797  LYS798  CYS799  TRP800  GLU811  SER814 

> <Gold.Protein.RotatedAtoms>
  151.2037  135.0453  159.8882 H   0  0  0  0  0  0  0  0  0  0  0  0  # atno 6907 bound_to 6896
  152.5430  134.0822  159.8250 H   0  0  0  0  0  0  0  0  0  0  0  0  # atno 6908 bound_to 6896
  151.0966  133.5227  159.2644 H   0  0  0  0  0  0  0  0  0  0  0  0  # atno 6909 bound_to 6896
  144.7543  140.3952  143.6024 H   0  0  0  0  0  0  0  0  0  0  0  0  # atno 7974 bound_to 7965
  156.2733  140.2086  156.5948 H   0  0  0  0  0  0  0  0  0  0  0  0  # atno 8008 bound_to 7997
  154.6953  140.0526  157.0428 H   0  0  0  0  0  0  0  0  0  0  0  0  # atno 8009 bound_to 7997
  155.0809  140.3186  155.4605 H   0  0  0  0  0  0  0  0  0  0  0  0  # atno 8010 bound_to 7997
  139.5472  144.2205  152.1009 H   0  0  0  0  0  0  0  0  0  0  0  0  # atno 10167 bound_to 10162
  157.4794  130.8306  149.8076 H   0  0  0  0  0  0  0  0  0  0  0  0  # atno 10718 bound_to 10713
  154.3812  135.2753  155.2210 H   0  0  0  0  0  0  0  0  0  0  0  0  # atno 10763 bound_to 10752
  154.4316  135.5976  153.6076 H   0  0  0  0  0  0  0  0  0  0  0  0  # atno 10764 bound_to 10752
  152.9834  135.5997  154.4055 H   0  0  0  0  0  0  0  0  0  0  0  0  # atno 10765 bound_to 10752
  139.9631  134.9597  156.9188 H   0  0  0  0  0  0  0  0  0  0  0  0  # atno 11005 bound_to 11000
  145.6834  139.1623  143.2688 LP  0  0  0  0  0  0  0  0  0  0  0  0  # atno 17320 bound_to 7965
  146.1533  140.6893  142.9311 LP  0  0  0  0  0  0  0  0  0  0  0  0  # atno 17321 bound_to 7965
  140.1694  144.4950  150.6588 LP  0  0  0  0  0  0  0  0  0  0  0  0  # atno 17342 bound_to 10162
  140.6723  143.2291  151.5593 LP  0  0  0  0  0  0  0  0  0  0  0  0  # atno 17343 bound_to 10162
  156.0114  130.3832  150.2253 LP  0  0  0  0  0  0  0  0  0  0  0  0  # atno 17370 bound_to 10713
  157.0439  131.0043  151.3275 LP  0  0  0  0  0  0  0  0  0  0  0  0  # atno 17371 bound_to 10713
  140.5457  134.0676  155.7354 LP  0  0  0  0  0  0  0  0  0  0  0  0  # atno 17394 bound_to 11000
  141.1309  133.9304  157.2537 LP  0  0  0  0  0  0  0  0  0  0  0  0  # atno 17395 bound_to 11000

$$$$
