AV-unprocessed.smi:2124|AV-procd|sdf|8665|dock3
  -GOLD-   2272011413D 1   1.00000     0.00000
 Structure written by MMmdl.
 47 49  0  0  0  0  0  0  0  0  1 V2000
  151.2504  143.3778  157.4908 C   0  0  0  0  0  0  0  0  0  0  0  0
  151.1400  142.0697  156.7384 C   0  0  0  0  0  0  0  0  0  0  0  0
  150.0640  142.0176  155.8679 N   0  0  0  0  0  0  0  0  0  0  0  0
  149.8764  140.8563  155.1393 C   0  0  0  0  0  0  0  0  0  0  0  0
  148.6722  140.8795  154.2136 C   0  0  0  0  0  0  0  0  0  0  0  0
  150.7185  139.8003  155.2717 C   0  0  0  0  0  0  0  0  0  0  0  0
  150.5378  138.4985  154.4929 C   0  0  0  0  0  0  0  0  0  0  0  0
  150.2838  137.2504  155.3414 C   0  0  0  0  0  0  0  0  0  0  0  0
  150.7627  137.1621  156.4721 O   0  0  0  0  0  0  0  0  0  0  0  0
  149.5252  136.2964  154.7790 N   0  0  0  0  0  0  0  0  0  0  0  0
  149.1333  135.0291  155.3941 C   0  0  1  0  0  0  0  0  0  0  0  0
  148.2206  135.3307  156.5926 C   0  0  0  0  0  0  0  0  0  0  0  0
  148.4502  134.1253  154.3387 C   0  0  1  0  0  0  0  0  0  0  0  0
  149.4182  133.2990  153.4596 C   0  0  0  0  0  0  0  0  0  0  0  0
  148.8270  131.8789  153.5305 C   0  0  1  0  0  0  0  0  0  0  0  0
  149.1312  131.2780  154.9148 C   0  0  0  0  0  0  0  0  0  0  0  0
  148.1839  132.0642  155.8388 C   0  0  0  0  0  0  0  0  0  0  0  0
  147.4836  133.0356  154.8660 C   0  0  2  0  0  0  0  0  0  0  0  0
  147.3314  132.1554  153.6291 C   0  0  0  0  0  0  0  0  0  0  0  0
  151.8531  139.9158  156.2184 C   0  0  0  0  0  0  0  0  0  0  0  0
  152.6482  138.9923  156.3873 O   0  0  0  0  0  0  0  0  0  0  0  0
  151.9995  141.1162  156.9324 N   0  0  0  0  0  0  0  0  0  0  0  0
  149.4102  142.7771  155.7435 H   0  0  0  0  0  0  0  0  0  0  0  0
  152.1944  143.4366  158.0341 H   0  0  0  0  0  0  0  0  0  0  0  0
  150.4360  143.4693  158.2100 H   0  0  0  0  0  0  0  0  0  0  0  0
  151.2019  144.2222  156.8023 H   0  0  0  0  0  0  0  0  0  0  0  0
  148.9844  140.7433  153.1781 H   0  0  0  0  0  0  0  0  0  0  0  0
  148.1338  141.8259  154.2780 H   0  0  0  0  0  0  0  0  0  0  0  0
  147.9762  140.0812  154.4726 H   0  0  0  0  0  0  0  0  0  0  0  0
  151.3995  138.3051  153.8537 H   0  0  0  0  0  0  0  0  0  0  0  0
  149.7050  138.6294  153.8010 H   0  0  0  0  0  0  0  0  0  0  0  0
  149.1830  136.4645  153.8441 H   0  0  0  0  0  0  0  0  0  0  0  0
  150.0214  134.5260  155.7771 H   0  0  0  0  0  0  0  0  0  0  0  0
  147.9548  134.4197  157.1289 H   0  0  0  0  0  0  0  0  0  0  0  0
  147.2955  135.8144  156.2773 H   0  0  0  0  0  0  0  0  0  0  0  0
  148.7165  135.9909  157.3051 H   0  0  0  0  0  0  0  0  0  0  0  0
  147.8717  134.7739  153.6780 H   0  0  0  0  0  0  0  0  0  0  0  0
  149.4200  133.6744  152.4358 H   0  0  0  0  0  0  0  0  0  0  0  0
  150.4477  133.3185  153.8189 H   0  0  0  0  0  0  0  0  0  0  0  0
  149.1266  131.2384  152.7006 H   0  0  0  0  0  0  0  0  0  0  0  0
  148.8942  130.2136  154.9391 H   0  0  0  0  0  0  0  0  0  0  0  0
  150.1786  131.3940  155.1961 H   0  0  0  0  0  0  0  0  0  0  0  0
  147.4552  131.3903  156.2910 H   0  0  0  0  0  0  0  0  0  0  0  0
  148.7064  132.5647  156.6530 H   0  0  0  0  0  0  0  0  0  0  0  0
  146.5438  133.4338  155.2495 H   0  0  0  0  0  0  0  0  0  0  0  0
  146.9314  132.6854  152.7627 H   0  0  0  0  0  0  0  0  0  0  0  0
  146.7355  131.2578  153.8046 H   0  0  0  0  0  0  0  0  0  0  0  0
  1 24  1  0  0  0  0
  1 25  1  0  0  0  0
  1 26  1  0  0  0  0
  1  2  1  0  0  0  0
  2  3  1  0  0  0  0
  2 22  2  0  0  0  0
  3  4  1  0  0  0  0
  3 23  1  0  0  0  0
  4  6  2  0  0  0  0
  4  5  1  0  0  0  0
  5 27  1  0  0  0  0
  5 28  1  0  0  0  0
  5 29  1  0  0  0  0
  6 20  1  0  0  0  0
  6  7  1  0  0  0  0
  7  8  1  0  0  0  0
  7 30  1  0  0  0  0
  7 31  1  0  0  0  0
  8  9  2  0  0  0  0
  8 10  1  0  0  0  0
 10 11  1  0  0  0  0
 10 32  1  0  0  0  0
 11 12  1  0  0  0  0
 11 13  1  0  0  0  0
 11 33  1  0  0  0  0
 12 34  1  0  0  0  0
 12 35  1  0  0  0  0
 12 36  1  0  0  0  0
 13 18  1  0  0  0  0
 13 14  1  0  0  0  0
 13 37  1  0  0  0  0
 14 15  1  0  0  0  0
 14 38  1  0  0  0  0
 14 39  1  0  0  0  0
 15 19  1  0  0  0  0
 15 16  1  0  0  0  0
 15 40  1  0  0  0  0
 16 17  1  0  0  0  0
 16 41  1  0  0  0  0
 16 42  1  0  0  0  0
 17 18  1  0  0  0  0
 17 43  1  0  0  0  0
 17 44  1  0  0  0  0
 18 19  1  0  0  0  0
 18 45  1  0  0  0  0
 19 46  1  0  0  0  0
 19 47  1  0  0  0  0
 20 21  2  0  0  0  0
 20 22  1  0  0  0  0
M  END
> <s_m_source_file>
AV-unprocessed.smi

> <i_m_source_file_index>
2124

> <i_lp_mmshare_version>
43012

> <i_f3d_flags>
0

> <s_epik_input>
W0NIM11jMW5jKFtDSDNdKWMoYyg9TylbbkhdMSlbQ0gyXUMoPU8pW05IXVtDQEhdKFtDSDNdKVtDQEhdKFtDSDJdW0NASF0yMylbQ0BIXShbQ0gyXTMpW0NIMl1bQ0gyXTI=

> <s_epik_cmdline>
J2VwaWtfcHl0aG9uJywgJy1waCcsICc3LjAnLCAnLXRuJywgJzgnLCAnLW1hJywgJzIwMCcsICctbWV0YWxfYmluZGluZycsICctaW1hZScsICc8aW5maWxlLm1hZT4nLCAnLW9tYWUnLCAnPG91dGZpbGUubWFlPic=

> <r_lp_tautomer_probability>
0.156392

> <r_epik_Ionization_Penalty>
0.0139374

> <r_epik_Ionization_Penalty_Charging>
0.0138122

> <r_epik_Ionization_Penalty_Neutral>
0.000125146

> <r_epik_State_Penalty>
1.15342

> <r_epik_Charging_Adjusted_Penalty>
1.16723

> <i_epik_Tot_Q>
0

> <i_epik_Tot_abs_Q>
0

> <r_epik_Metal_State_Penalty>
1.3173

> <b_epik_Metal_Only>
0

> <s_lp_Force_Field>
OPLS_2005

> <r_lp_Energy>
55.9992

> <b_lp_Chiralities_Consistent>
1

> <s_lp_Variant>
AV-unprocessed.smi:2124-16

> <Gold.Version>
5.8.1

> <Gold.Id.Protein>
6NUR|6NUR_protein|mol2

> <Gold.PLP.Fitness>
39.5839

> <Gold.PLP.PLP>
-32.4929

> <Gold.PLP.part.hbond>
-2.9954

> <Gold.PLP.part.metal>
0.0000

> <Gold.PLP.part.buried>
-0.0166

> <Gold.PLP.part.nonpolar>
-28.7936

> <Gold.PLP.part.repulsive>
0.1665

> <Gold.PLP.ligand.clash>
0.0000

> <Gold.PLP.ligand.torsion>
0.9648

> <Gold.PLP.Chemscore.Hbond>
3.0000

> <Gold.PLP.Chemscore.CHOScore>
0.0000

> <Gold.PLP.Chemscore.Metal>
0.0000

> <Gold.Chemscore.Hbonds>
donor molecule, donor type, donor heavy atom, donor atom, acceptor molecule, acceptor atom, score
      L1  H     3    23       P1  8028  1.00
      L1  H    10    32       P1  7948  1.00
      P1  H  7997  8009       L1    21  0.90

> <Gold.PLP.Chemscore.Internal.Correction>
0.0205

> <Gold.Rescore>
     Score         DG    S(hbond)    S(metal)    S(lipo)     H(rot)  DE(clash)    DE(int)     intcor
     14.28     -18.57       2.40        0.00      79.53       1.65       0.58       3.71       ----

> <Gold.Chemscore.Fitness>
14.2805

> <Gold.Chemscore.DG>
-18.5688

> <Gold.Chemscore.ZeroCoef>
-5.4800

> <Gold.Chemscore.Hbond>
2.4001

> <Gold.Chemscore.Metal>
0.0000

> <Gold.Chemscore.Lipo>
79.5294

> <Gold.Chemscore.Internal_Hbond>
0.0000

> <Gold.Chemscore.DEClash>
0.5766

> <Gold.Chemscore.DEInternal>
3.7118

> <Gold.Chemscore.Rot>
1.6534

> <Gold.Chemscore.Internal.Correction>
   9.000000E+99

> <Gold.Chemscore.Hbonds>
donor molecule, donor type, donor heavy atom, donor atom, acceptor molecule, acceptor atom, score
      L1  H     3    23       P1  8028  0.93
      L1  H    10    32       P1  7948  0.93
      P1  H  7997  8009       L1    21  0.17

> <Gold.Chemscore.Hbond.Weighted>
-8.0165

> <Gold.Chemscore.Metal.Weighted>
-0.0000

> <Gold.Chemscore.Lipo.Weighted>
-9.3049

> <Gold.Chemscore.Internal_Hbond.Weighted>
0.0000

> <Gold.Chemscore.DEClash.Weighted>
0.5766

> <Gold.Chemscore.DEInternal.Weighted>
3.7118

> <Gold.Chemscore.Rot.Weighted>
4.2326

> <Gold.Chemscore.Internal.Correction.Weighted>
   9.000000E+99

> <Gold.Protein.RotatedTorsions>
[ 6907 6896 6895 6894 ] final -177.72 input  -60.11 | X-H torsion
[ 7974 7965 7964 7962 ] final  -10.73 input  175.53 | X-H torsion
[ 8008 7997 7996 7995 ] final -167.69 input   59.86 | X-H torsion
[ 10167 10162 10161 10158 ] final  -79.25 input  -65.29 | X-H torsion
[ 10718 10713 10712 10709 ] final  -49.10 input   66.30 | X-H torsion
[ 10763 10752 10751 10750 ] final -176.26 input  -60.55 | X-H torsion
[ 11005 11000 10999 10996 ] final  140.65 input  -57.11 | X-H torsion

> <Gold.Protein.ActiveResidues>
 VAL166  LYS551  ARG553  GLY616  TRP617  ASP618  TYR619  PRO620  LYS621  CYS622 
 ASP623  PHE694  ASN695  SER759  ASP760  ASP761  ALA762  ILE779  LEU786  VAL792 
 PHE793  MET794  SER795  GLU796  ALA797  LYS798  CYS799  TRP800  GLU811  SER814 

> <Gold.Protein.RotatedAtoms>
  151.6256  133.3336  159.3097 H   0  0  0  0  0  0  0  0  0  0  0  0  # atno 6907 bound_to 6896
  150.8083  134.7225  159.6676 H   0  0  0  0  0  0  0  0  0  0  0  0  # atno 6908 bound_to 6896
  152.4179  134.6013  160.0052 H   0  0  0  0  0  0  0  0  0  0  0  0  # atno 6909 bound_to 6896
  146.2211  140.2807  142.8362 H   0  0  0  0  0  0  0  0  0  0  0  0  # atno 7974 bound_to 7965
  155.8812  140.1009  157.1484 H   0  0  0  0  0  0  0  0  0  0  0  0  # atno 8008 bound_to 7997
  154.4005  140.1328  156.4262 H   0  0  0  0  0  0  0  0  0  0  0  0  # atno 8009 bound_to 7997
  155.7641  140.3462  155.5215 H   0  0  0  0  0  0  0  0  0  0  0  0  # atno 8010 bound_to 7997
  140.4610  143.2454  151.8349 H   0  0  0  0  0  0  0  0  0  0  0  0  # atno 10167 bound_to 10162
  156.1924  130.4153  149.9352 H   0  0  0  0  0  0  0  0  0  0  0  0  # atno 10718 bound_to 10713
  154.5745  135.2831  155.0794 H   0  0  0  0  0  0  0  0  0  0  0  0  # atno 10763 bound_to 10752
  154.2154  135.6400  153.5132 H   0  0  0  0  0  0  0  0  0  0  0  0  # atno 10764 bound_to 10752
  153.0068  135.5501  154.6379 H   0  0  0  0  0  0  0  0  0  0  0  0  # atno 10765 bound_to 10752
  140.0342  134.9337  157.0722 H   0  0  0  0  0  0  0  0  0  0  0  0  # atno 11005 bound_to 11000
  144.9199  140.7856  143.5754 LP  0  0  0  0  0  0  0  0  0  0  0  0  # atno 17320 bound_to 7965
  145.2743  139.1942  143.4825 LP  0  0  0  0  0  0  0  0  0  0  0  0  # atno 17321 bound_to 7965
  139.4806  144.5008  151.9063 LP  0  0  0  0  0  0  0  0  0  0  0  0  # atno 17342 bound_to 10162
  140.4093  144.2390  150.5889 LP  0  0  0  0  0  0  0  0  0  0  0  0  # atno 17343 bound_to 10162
  156.7088  130.8962  151.3607 LP  0  0  0  0  0  0  0  0  0  0  0  0  # atno 17370 bound_to 10713
  157.6937  130.9260  150.0585 LP  0  0  0  0  0  0  0  0  0  0  0  0  # atno 17371 bound_to 10713
  140.4174  134.1916  155.7164 LP  0  0  0  0  0  0  0  0  0  0  0  0  # atno 17394 bound_to 11000
  141.1848  133.8336  157.1126 LP  0  0  0  0  0  0  0  0  0  0  0  0  # atno 17395 bound_to 11000

$$$$
