AV-unprocessed.smi:716|AV-procd|sdf|3487|dock3
  -GOLD-   22720 0483D 1   1.00000     0.00000
 Structure written by MMmdl.
 48 50  0  0  0  0  0  0  0  0  1 V2000
  152.2540  144.3276  159.7737 C   0  0  0  0  0  0  0  0  0  0  0  0
  152.5327  142.8728  159.3907 C   0  0  0  0  0  0  0  0  0  0  0  0
  151.4929  142.4146  158.5423 O   0  0  0  0  0  0  0  0  0  0  0  0
  151.7222  141.1107  158.0301 C   0  0  1  0  0  0  0  0  0  0  0  0
  151.3066  140.0264  159.0266 C   0  0  0  0  0  0  0  0  0  0  0  0
  150.8795  139.2194  157.8015 C   0  0  1  0  0  0  0  0  0  0  0  0
  149.6827  138.4211  158.0417 N   0  0  0  0  0  0  0  0  0  0  0  0
  149.6460  137.3254  158.8127 C   0  0  0  0  0  0  0  0  0  0  0  0
  150.6339  136.8880  159.4051 O   0  0  0  0  0  0  0  0  0  0  0  0
  148.2855  136.6192  158.9025 C   0  0  0  0  0  0  0  0  0  0  0  0
  148.0009  136.0535  160.2292 N   0  0  0  0  0  0  0  0  0  0  0  0
  147.7214  137.0024  161.1990 N   0  0  0  0  0  0  0  0  0  0  0  0
  147.4362  136.6531  162.4104 C   0  0  0  0  0  0  0  0  0  0  0  0
  147.1445  137.7453  163.3963 C   0  0  0  0  0  0  0  0  0  0  0  0
  147.4107  135.2460  162.7613 C   0  0  0  0  0  0  0  0  0  0  0  0
  147.6861  134.3230  161.8149 C   0  0  0  0  0  0  0  0  0  0  0  0
  148.0087  134.7038  160.4413 C   0  0  0  0  0  0  0  0  0  0  0  0
  148.2612  133.8875  159.5555 O   0  0  0  0  0  0  0  0  0  0  0  0
  150.6412  140.5643  157.0600 C   0  0  0  0  0  0  0  0  0  0  0  0
  150.9415  140.5855  155.5623 C   0  0  0  0  0  0  0  0  0  0  0  0
  149.6091  140.4678  154.8129 C   0  0  0  0  0  0  0  0  0  0  0  0
  148.5124  140.7951  155.8298 C   0  0  0  0  0  0  0  0  0  0  0  0
  149.2426  141.1981  157.1123 C   0  0  0  0  0  0  0  0  0  0  0  0
  153.0298  144.7109  160.4370 H   0  0  0  0  0  0  0  0  0  0  0  0
  151.2974  144.4202  160.2887 H   0  0  0  0  0  0  0  0  0  0  0  0
  152.2233  144.9659  158.8904 H   0  0  0  0  0  0  0  0  0  0  0  0
  153.4967  142.8032  158.8865 H   0  0  0  0  0  0  0  0  0  0  0  0
  152.5832  142.2554  160.2889 H   0  0  0  0  0  0  0  0  0  0  0  0
  152.7433  140.9549  157.6734 H   0  0  0  0  0  0  0  0  0  0  0  0
  152.1269  139.5913  159.5981 H   0  0  0  0  0  0  0  0  0  0  0  0
  150.4774  140.3279  159.6697 H   0  0  0  0  0  0  0  0  0  0  0  0
  151.7175  138.6508  157.3900 H   0  0  0  0  0  0  0  0  0  0  0  0
  148.8318  138.7167  157.5855 H   0  0  0  0  0  0  0  0  0  0  0  0
  147.5005  137.3199  158.6123 H   0  0  0  0  0  0  0  0  0  0  0  0
  148.2627  135.8285  158.1502 H   0  0  0  0  0  0  0  0  0  0  0  0
  146.9405  137.3385  164.3870 H   0  0  0  0  0  0  0  0  0  0  0  0
  146.2738  138.3246  163.0871 H   0  0  0  0  0  0  0  0  0  0  0  0
  147.9916  138.4264  163.4836 H   0  0  0  0  0  0  0  0  0  0  0  0
  147.1731  134.9479  163.7718 H   0  0  0  0  0  0  0  0  0  0  0  0
  147.6668  133.2754  162.0771 H   0  0  0  0  0  0  0  0  0  0  0  0
  151.4262  141.5229  155.2896 H   0  0  0  0  0  0  0  0  0  0  0  0
  151.6249  139.7885  155.2678 H   0  0  0  0  0  0  0  0  0  0  0  0
  149.5802  141.1459  153.9593 H   0  0  0  0  0  0  0  0  0  0  0  0
  149.4724  139.4563  154.4290 H   0  0  0  0  0  0  0  0  0  0  0  0
  147.8500  141.5867  155.4785 H   0  0  0  0  0  0  0  0  0  0  0  0
  147.8979  139.9118  156.0077 H   0  0  0  0  0  0  0  0  0  0  0  0
  148.6760  140.9169  158.0003 H   0  0  0  0  0  0  0  0  0  0  0  0
  149.3231  142.2850  157.1349 H   0  0  0  0  0  0  0  0  0  0  0  0
  1  2  1  0  0  0  0
  1 24  1  0  0  0  0
  1 25  1  0  0  0  0
  1 26  1  0  0  0  0
  2  3  1  0  0  0  0
  2 27  1  0  0  0  0
  2 28  1  0  0  0  0
  3  4  1  0  0  0  0
  4 19  1  0  0  0  0
  4  5  1  0  0  0  0
  4 29  1  0  0  0  0
  5  6  1  0  0  0  0
  5 30  1  0  0  0  0
  5 31  1  0  0  0  0
  6  7  1  0  0  0  0
  6 19  1  0  0  0  0
  6 32  1  0  0  0  0
  7  8  1  0  0  0  0
  7 33  1  0  0  0  0
  8  9  2  0  0  0  0
  8 10  1  0  0  0  0
 10 11  1  0  0  0  0
 10 34  1  0  0  0  0
 10 35  1  0  0  0  0
 11 17  1  0  0  0  0
 11 12  1  0  0  0  0
 12 13  2  0  0  0  0
 13 14  1  0  0  0  0
 13 15  1  0  0  0  0
 14 36  1  0  0  0  0
 14 37  1  0  0  0  0
 14 38  1  0  0  0  0
 15 16  2  0  0  0  0
 15 39  1  0  0  0  0
 16 17  1  0  0  0  0
 16 40  1  0  0  0  0
 17 18  2  0  0  0  0
 19 23  1  0  0  0  0
 19 20  1  0  0  0  0
 20 21  1  0  0  0  0
 20 41  1  0  0  0  0
 20 42  1  0  0  0  0
 21 22  1  0  0  0  0
 21 43  1  0  0  0  0
 21 44  1  0  0  0  0
 22 23  1  0  0  0  0
 22 45  1  0  0  0  0
 22 46  1  0  0  0  0
 23 47  1  0  0  0  0
 23 48  1  0  0  0  0
M  END
> <s_m_source_file>
AV-unprocessed.smi

> <i_m_source_file_index>
716

> <i_lp_mmshare_version>
43012

> <i_f3d_flags>
0

> <s_epik_input>
W0NIMl0xW0NIMl1bQ0gyXVtDSDJdQzEyW0NASF0oT1tDSDJdW0NIM10pW0NIMl1bQ0BIXTJbTkhdQyg9TylbQ0gyXW4zbmMoW0NIM10pW2NIXVtjSF1jMz1P

> <s_epik_cmdline>
J2VwaWtfcHl0aG9uJywgJy1waCcsICc3LjAnLCAnLXRuJywgJzgnLCAnLW1hJywgJzIwMCcsICctbWV0YWxfYmluZGluZycsICctaW1hZScsICc8aW5maWxlLm1hZT4nLCAnLW9tYWUnLCAnPG91dGZpbGUubWFlPic=

> <r_lp_tautomer_probability>
1

> <r_epik_Ionization_Penalty>
4.75561e-08

> <r_epik_Ionization_Penalty_Charging>
2.86617e-08

> <r_epik_Ionization_Penalty_Neutral>
1.88944e-08

> <r_epik_State_Penalty>
-0

> <r_epik_Charging_Adjusted_Penalty>
2.86617e-08

> <i_epik_Tot_Q>
0

> <i_epik_Tot_abs_Q>
0

> <r_epik_Metal_State_Penalty>
-0

> <b_epik_Metal_Only>
0

> <s_lp_Force_Field>
OPLS_2005

> <r_lp_Energy>
50.2142

> <b_lp_Chiralities_Consistent>
1

> <s_lp_Variant>
AV-unprocessed.smi:716-2

> <Gold.Version>
5.8.1

> <Gold.Id.Protein>
6NUR|6NUR_protein|mol2

> <Gold.PLP.Fitness>
50.5279

> <Gold.PLP.PLP>
-44.6337

> <Gold.PLP.part.hbond>
-3.2169

> <Gold.PLP.part.metal>
0.0000

> <Gold.PLP.part.buried>
-2.9255

> <Gold.PLP.part.nonpolar>
-38.1316

> <Gold.PLP.part.repulsive>
0.1354

> <Gold.PLP.ligand.clash>
0.0000

> <Gold.PLP.ligand.torsion>
0.6810

> <Gold.PLP.Chemscore.Hbond>
2.3008

> <Gold.PLP.Chemscore.CHOScore>
0.0000

> <Gold.PLP.Chemscore.Metal>
0.0000

> <Gold.Chemscore.Hbonds>
donor molecule, donor type, donor heavy atom, donor atom, acceptor molecule, acceptor atom, score
      P1  H  6896  6907       L1     9  1.00
      P1  H  6931  6943       L1    12  0.45
      P1  H  6934  6947       L1    12  0.70

> <Gold.PLP.Chemscore.Internal.Correction>
0.3539

> <Gold.Rescore>
     Score         DG    S(hbond)    S(metal)    S(lipo)     H(rot)  DE(clash)    DE(int)     intcor
     18.60     -19.65       1.84        0.00     106.57       1.73       0.34       0.71       ----

> <Gold.Chemscore.Fitness>
18.6031

> <Gold.Chemscore.DG>
-19.6512

> <Gold.Chemscore.ZeroCoef>
-5.4800

> <Gold.Chemscore.Hbond>
1.8394

> <Gold.Chemscore.Metal>
0.0000

> <Gold.Chemscore.Lipo>
106.5698

> <Gold.Chemscore.Internal_Hbond>
0.0000

> <Gold.Chemscore.DEClash>
0.3383

> <Gold.Chemscore.DEInternal>
0.7098

> <Gold.Chemscore.Rot>
1.7348

> <Gold.Chemscore.Internal.Correction>
   9.000000E+99

> <Gold.Chemscore.Hbonds>
donor molecule, donor type, donor heavy atom, donor atom, acceptor molecule, acceptor atom, score
      P1  H  6896  6907       L1     9  0.98
      P1  H  6931  6943       L1    12  0.02
      P1  H  6934  6947       L1    12  0.48

> <Gold.Chemscore.Hbond.Weighted>
-6.1436

> <Gold.Chemscore.Metal.Weighted>
-0.0000

> <Gold.Chemscore.Lipo.Weighted>
-12.4687

> <Gold.Chemscore.Internal_Hbond.Weighted>
0.0000

> <Gold.Chemscore.DEClash.Weighted>
0.3383

> <Gold.Chemscore.DEInternal.Weighted>
0.7098

> <Gold.Chemscore.Rot.Weighted>
4.4411

> <Gold.Chemscore.Internal.Correction.Weighted>
   9.000000E+99

> <Gold.Protein.RotatedTorsions>
[ 6907 6896 6895 6894 ] final   -9.48 input  -60.11 | X-H torsion
[ 7974 7965 7964 7962 ] final   34.61 input  175.53 | X-H torsion
[ 8008 7997 7996 7995 ] final    1.12 input   59.86 | X-H torsion
[ 10167 10162 10161 10158 ] final  -21.34 input  -65.29 | X-H torsion
[ 10718 10713 10712 10709 ] final -141.24 input   66.30 | X-H torsion
[ 10763 10752 10751 10750 ] final   88.56 input  -60.55 | X-H torsion
[ 11005 11000 10999 10996 ] final  -23.68 input  -57.11 | X-H torsion

> <Gold.Protein.ActiveResidues>
 VAL166  LYS551  ARG553  GLY616  TRP617  ASP618  TYR619  PRO620  LYS621  CYS622 
 ASP623  PHE694  ASN695  SER759  ASP760  ASP761  ALA762  ILE779  LEU786  VAL792 
 PHE793  MET794  SER795  GLU796  ALA797  LYS798  CYS799  TRP800  GLU811  SER814 

> <Gold.Protein.RotatedAtoms>
  151.4170  135.0993  159.9602 H   0  0  0  0  0  0  0  0  0  0  0  0  # atno 6907 bound_to 6896
  152.5001  133.8743  159.7324 H   0  0  0  0  0  0  0  0  0  0  0  0  # atno 6908 bound_to 6896
  150.9250  133.6777  159.2851 H   0  0  0  0  0  0  0  0  0  0  0  0  # atno 6909 bound_to 6896
  146.1341  139.6247  142.9207 H   0  0  0  0  0  0  0  0  0  0  0  0  # atno 7974 bound_to 7965
  154.6760  140.2622  155.6957 H   0  0  0  0  0  0  0  0  0  0  0  0  # atno 8008 bound_to 7997
  156.2678  140.2819  156.1210 H   0  0  0  0  0  0  0  0  0  0  0  0  # atno 8009 bound_to 7997
  155.1099  140.0375  157.2711 H   0  0  0  0  0  0  0  0  0  0  0  0  # atno 8010 bound_to 7997
  140.7281  143.4637  151.0344 H   0  0  0  0  0  0  0  0  0  0  0  0  # atno 10167 bound_to 10162
  156.3317  130.7589  151.1709 H   0  0  0  0  0  0  0  0  0  0  0  0  # atno 10718 bound_to 10713
  153.1781  135.4502  154.9992 H   0  0  0  0  0  0  0  0  0  0  0  0  # atno 10763 bound_to 10752
  154.8012  135.3256  154.7548 H   0  0  0  0  0  0  0  0  0  0  0  0  # atno 10764 bound_to 10752
  153.8015  135.6962  153.4910 H   0  0  0  0  0  0  0  0  0  0  0  0  # atno 10765 bound_to 10752
  140.8775  133.7677  156.0261 H   0  0  0  0  0  0  0  0  0  0  0  0  # atno 11005 bound_to 11000
  145.5196  141.0432  143.2443 LP  0  0  0  0  0  0  0  0  0  0  0  0  # atno 17320 bound_to 7965
  144.7721  139.6712  143.7190 LP  0  0  0  0  0  0  0  0  0  0  0  0  # atno 17321 bound_to 7965
  139.8323  143.7674  152.3180 LP  0  0  0  0  0  0  0  0  0  0  0  0  # atno 17342 bound_to 10162
  139.7794  144.7449  151.0110 LP  0  0  0  0  0  0  0  0  0  0  0  0  # atno 17343 bound_to 10162
  157.7431  131.0479  150.4969 LP  0  0  0  0  0  0  0  0  0  0  0  0  # atno 17370 bound_to 10713
  156.5136  130.4145  149.6288 LP  0  0  0  0  0  0  0  0  0  0  0  0  # atno 17371 bound_to 10713
  140.8501  134.2964  157.5279 LP  0  0  0  0  0  0  0  0  0  0  0  0  # atno 17394 bound_to 11000
  139.8717  134.9463  156.3934 LP  0  0  0  0  0  0  0  0  0  0  0  0  # atno 17395 bound_to 11000

$$$$
