AV-unprocessed.smi:561|AV-procd|sdf|2940|dock3
  -GOLD-   2262023433D 1   1.00000     0.00000
 Structure written by MMmdl.
 36 37  0  0  0  0  0  0  0  0  3 V2000
  141.3684  134.5073  153.2081 C   0  0  0  0  0  0  0  0  0  0  0  0
  141.9499  135.9201  153.0619 C   0  0  2  0  0  0  0  0  0  0  0  0
  143.4950  135.8800  152.9389 C   0  0  0  0  0  0  0  0  0  0  0  0
  143.9977  135.0468  151.8311 N   0  0  0  0  0  0  0  0  0  0  0  0
  143.9204  133.6800  151.7210 C   0  0  0  0  0  0  0  0  0  0  0  0
  144.5169  133.3465  150.5329 C   0  0  0  0  0  0  0  0  0  0  0  0
  144.9231  134.5214  149.9597 N   0  3  0  0  0  0  0  0  0  0  0  0
  144.6007  135.5540  150.7451 C   0  0  0  0  0  0  0  0  0  0  0  0
  141.5527  136.7141  154.2300 N   0  5  0  0  0  0  0  0  0  0  0  0
  140.2664  136.9497  154.6330 C   0  0  0  0  0  0  0  0  0  0  0  0
  139.4193  136.0889  154.9015 O   0  0  0  0  0  0  0  0  0  0  0  0
  139.7966  138.3622  154.7494 C   0  0  0  0  0  0  0  0  0  0  0  0
  138.5674  138.6548  154.4578 N   0  0  0  0  0  0  0  0  0  0  0  0
  138.0697  139.9370  154.5643 N   0  0  0  0  0  0  0  0  0  0  0  0
  136.6165  140.0409  154.4494 C   0  0  0  0  0  0  0  0  0  0  0  0
  138.8299  141.0483  154.7232 C   0  0  0  0  0  0  0  0  0  0  0  0
  138.3679  142.1845  154.8306 O   0  0  0  0  0  0  0  0  0  0  0  0
  140.3467  140.8416  154.7315 C   0  0  0  0  0  0  0  0  0  0  0  0
  140.7436  139.4426  155.2423 C   0  0  0  0  0  0  0  0  0  0  0  0
  141.6284  133.8869  152.3502 H   0  0  0  0  0  0  0  0  0  0  0  0
  140.2801  134.5334  153.2743 H   0  0  0  0  0  0  0  0  0  0  0  0
  141.7455  134.0104  154.1029 H   0  0  0  0  0  0  0  0  0  0  0  0
  141.5512  136.3349  152.1347 H   0  0  0  0  0  0  0  0  0  0  0  0
  143.8961  136.8864  152.8076 H   0  0  0  0  0  0  0  0  0  0  0  0
  143.9328  135.4913  153.8593 H   0  0  0  0  0  0  0  0  0  0  0  0
  143.4702  133.0651  152.4870 H   0  0  0  0  0  0  0  0  0  0  0  0
  144.6793  132.3862  150.0659 H   0  0  0  0  0  0  0  0  0  0  0  0
  144.8009  136.5925  150.5502 H   0  0  0  0  0  0  0  0  0  0  0  0
  136.3441  140.6217  153.5672 H   0  0  0  0  0  0  0  0  0  0  0  0
  136.1932  140.5315  155.3271 H   0  0  0  0  0  0  0  0  0  0  0  0
  136.1423  139.0623  154.3598 H   0  0  0  0  0  0  0  0  0  0  0  0
  140.6988  140.9707  153.7075 H   0  0  0  0  0  0  0  0  0  0  0  0
  140.8289  141.6154  155.3297 H   0  0  0  0  0  0  0  0  0  0  0  0
  140.7616  139.4342  156.3327 H   0  0  0  0  0  0  0  0  0  0  0  0
  141.7643  139.2420  154.9152 H   0  0  0  0  0  0  0  0  0  0  0  0
  145.4027  134.6008  149.0720 H   0  0  0  0  0  0  0  0  0  0  0  0
  1  2  1  0  0  0  0
  1 20  1  0  0  0  0
  1 21  1  0  0  0  0
  1 22  1  0  0  0  0
  2  3  1  0  0  0  0
  2  9  1  0  0  0  0
  2 23  1  0  0  0  0
  3  4  1  0  0  0  0
  3 24  1  0  0  0  0
  3 25  1  0  0  0  0
  4  8  1  0  0  0  0
  4  5  1  0  0  0  0
  5  6  2  0  0  0  0
  5 26  1  0  0  0  0
  6  7  1  0  0  0  0
  6 27  1  0  0  0  0
  7  8  2  0  0  0  0
  7 36  1  0  0  0  0
  8 28  1  0  0  0  0
  9 10  1  0  0  0  0
 10 11  2  0  0  0  0
 10 12  1  0  0  0  0
 12 19  1  0  0  0  0
 12 13  2  0  0  0  0
 13 14  1  0  0  0  0
 14 15  1  0  0  0  0
 14 16  1  0  0  0  0
 15 29  1  0  0  0  0
 15 30  1  0  0  0  0
 15 31  1  0  0  0  0
 16 17  2  0  0  0  0
 16 18  1  0  0  0  0
 18 19  1  0  0  0  0
 18 32  1  0  0  0  0
 18 33  1  0  0  0  0
 19 34  1  0  0  0  0
 19 35  1  0  0  0  0
M  CHG  1   7   1
M  CHG  1   9  -1
M  END
> <s_m_source_file>
AV-unprocessed.smi

> <i_m_source_file_index>
561

> <i_lp_mmshare_version>
43012

> <i_f3d_flags>
0

> <s_epik_input>
W2NIXTFuW2NIXVtjSF1uMVtDSDJdW0NAQEhdKFtDSDNdKVtOSF1DKD1PKUMyPU5OKFtDSDNdKUMoPU8pW0NIMl1bQ0gyXTI=

> <s_epik_cmdline>
J2VwaWtfcHl0aG9uJywgJy1waCcsICc3LjAnLCAnLXRuJywgJzgnLCAnLW1hJywgJzIwMCcsICctbWV0YWxfYmluZGluZycsICctaW1hZScsICc8aW5maWxlLm1hZT4nLCAnLW9tYWUnLCAnPG91dGZpbGUubWFlPic=

> <r_lp_tautomer_probability>
1

> <r_epik_Ionization_Penalty>
5.37239

> <r_epik_Ionization_Penalty_Charging>
5.18263

> <r_epik_Ionization_Penalty_Neutral>
0.189756

> <r_epik_State_Penalty>
5.53772

> <r_epik_Charging_Adjusted_Penalty>
10.7204

> <i_epik_Tot_Q>
0

> <i_epik_Tot_abs_Q>
2

> <r_epik_Metal_State_Penalty>
1.80836

> <b_epik_Metal_Only>
1

> <s_epik_Chemistry_Notes>
This compound has an imine and may undergo hydrolysis.

> <s_lp_Force_Field>
OPLS_2005

> <r_lp_Energy>
20.2917

> <b_lp_Chiralities_Consistent>
1

> <s_lp_Variant>
AV-unprocessed.smi:561-5

> <Gold.Version>
5.8.1

> <Gold.Id.Protein>
6NUR|6NUR_protein|mol2

> <Gold.PLP.Fitness>
39.3330

> <Gold.PLP.PLP>
-29.5288

> <Gold.PLP.part.hbond>
-2.0000

> <Gold.PLP.part.metal>
0.0000

> <Gold.PLP.part.buried>
-7.1110

> <Gold.PLP.part.nonpolar>
-21.7663

> <Gold.PLP.part.repulsive>
0.3283

> <Gold.PLP.ligand.clash>
0.0000

> <Gold.PLP.ligand.torsion>
1.1046

> <Gold.PLP.Chemscore.Hbond>
2.0000

> <Gold.PLP.Chemscore.CHOScore>
1.9913

> <Gold.PLP.Chemscore.Metal>
0.0000

> <Gold.Chemscore.Hbonds>
donor molecule, donor type, donor heavy atom, donor atom, acceptor molecule, acceptor atom, score
      L1  H     7    36       P1  7921  1.00
      P1  H 11000 11005       L1    11  1.00
      L1  C     5    26       P1 10957  0.47
      L1  C     8    28       P1 10171  1.00

> <Gold.PLP.Chemscore.Internal.Correction>
0.0395

> <Gold.Rescore>
     Score         DG    S(hbond)    S(metal)    S(lipo)     H(rot)  DE(clash)    DE(int)     intcor
     12.01     -13.07       1.97        0.00      46.62       1.73       0.12       0.94       ----

> <Gold.Chemscore.Fitness>
12.0149

> <Gold.Chemscore.DG>
-13.0693

> <Gold.Chemscore.ZeroCoef>
-5.4800

> <Gold.Chemscore.Hbond>
1.9652

> <Gold.Chemscore.Metal>
0.0000

> <Gold.Chemscore.Lipo>
46.6164

> <Gold.Chemscore.Internal_Hbond>
0.0000

> <Gold.Chemscore.DEClash>
0.1179

> <Gold.Chemscore.DEInternal>
0.9365

> <Gold.Chemscore.Rot>
1.7299

> <Gold.Chemscore.Internal.Correction>
   9.000000E+99

> <Gold.Chemscore.Hbonds>
donor molecule, donor type, donor heavy atom, donor atom, acceptor molecule, acceptor atom, score
      L1  H     7    36       P1  7921  0.99
      P1  H 11000 11005       L1    11  0.94

> <Gold.Chemscore.Hbond.Weighted>
-6.5638

> <Gold.Chemscore.Metal.Weighted>
-0.0000

> <Gold.Chemscore.Lipo.Weighted>
-5.4541

> <Gold.Chemscore.Internal_Hbond.Weighted>
0.0000

> <Gold.Chemscore.DEClash.Weighted>
0.1179

> <Gold.Chemscore.DEInternal.Weighted>
0.9365

> <Gold.Chemscore.Rot.Weighted>
4.4286

> <Gold.Chemscore.Internal.Correction.Weighted>
   9.000000E+99

> <Gold.Protein.RotatedTorsions>
[ 6907 6896 6895 6894 ] final  124.09 input  -60.11 | X-H torsion
[ 7974 7965 7964 7962 ] final   16.06 input  175.53 | X-H torsion
[ 8008 7997 7996 7995 ] final -126.69 input   59.86 | X-H torsion
[ 10167 10162 10161 10158 ] final   70.27 input  -65.29 | X-H torsion
[ 10718 10713 10712 10709 ] final   31.43 input   66.30 | X-H torsion
[ 10763 10752 10751 10750 ] final   20.93 input  -60.55 | X-H torsion
[ 11005 11000 10999 10996 ] final   67.78 input  -57.11 | X-H torsion

> <Gold.Protein.ActiveResidues>
 VAL166  LYS551  ARG553  GLY616  TRP617  ASP618  TYR619  PRO620  LYS621  CYS622 
 ASP623  PHE694  ASN695  SER759  ASP760  ASP761  ALA762  ILE779  LEU786  VAL792 
 PHE793  MET794  SER795  GLU796  ALA797  LYS798  CYS799  TRP800  GLU811  SER814 

> <Gold.Protein.RotatedAtoms>
  152.4107  133.6959  159.6394 H   0  0  0  0  0  0  0  0  0  0  0  0  # atno 6907 bound_to 6896
  150.7987  133.8629  159.3246 H   0  0  0  0  0  0  0  0  0  0  0  0  # atno 6908 bound_to 6896
  151.6372  135.1018  160.0185 H   0  0  0  0  0  0  0  0  0  0  0  0  # atno 6909 bound_to 6896
  146.2260  139.8802  142.8572 H   0  0  0  0  0  0  0  0  0  0  0  0  # atno 7974 bound_to 7965
  155.2338  140.0426  157.2966 H   0  0  0  0  0  0  0  0  0  0  0  0  # atno 8008 bound_to 7997
  154.5871  140.2417  155.7942 H   0  0  0  0  0  0  0  0  0  0  0  0  # atno 8009 bound_to 7997
  156.2234  140.2962  156.0016 H   0  0  0  0  0  0  0  0  0  0  0  0  # atno 8010 bound_to 7997
  140.0588  144.5250  150.7309 H   0  0  0  0  0  0  0  0  0  0  0  0  # atno 10167 bound_to 10162
  157.2723  130.7214  149.6511 H   0  0  0  0  0  0  0  0  0  0  0  0  # atno 10718 bound_to 10713
  153.1037  135.6679  153.9626 H   0  0  0  0  0  0  0  0  0  0  0  0  # atno 10763 bound_to 10752
  153.9189  135.3016  155.3449 H   0  0  0  0  0  0  0  0  0  0  0  0  # atno 10764 bound_to 10752
  154.7458  135.5058  153.9277 H   0  0  0  0  0  0  0  0  0  0  0  0  # atno 10765 bound_to 10752
  139.9750  134.6837  156.0371 H   0  0  0  0  0  0  0  0  0  0  0  0  # atno 11005 bound_to 11000
  145.2520  141.0047  143.3876 LP  0  0  0  0  0  0  0  0  0  0  0  0  # atno 17320 bound_to 7965
  144.9367  139.4236  143.6469 LP  0  0  0  0  0  0  0  0  0  0  0  0  # atno 17321 bound_to 7965
  140.7182  143.2563  151.4366 LP  0  0  0  0  0  0  0  0  0  0  0  0  # atno 17342 bound_to 10162
  139.5907  144.1506  152.2084 LP  0  0  0  0  0  0  0  0  0  0  0  0  # atno 17343 bound_to 10162
  155.9663  130.4363  150.5130 LP  0  0  0  0  0  0  0  0  0  0  0  0  # atno 17370 bound_to 10713
  157.3057  131.0654  151.2036 LP  0  0  0  0  0  0  0  0  0  0  0  0  # atno 17371 bound_to 10713
  141.1428  133.6561  156.3779 LP  0  0  0  0  0  0  0  0  0  0  0  0  # atno 17394 bound_to 11000
  140.5213  134.6301  157.5319 LP  0  0  0  0  0  0  0  0  0  0  0  0  # atno 17395 bound_to 11000

$$$$
