AV-unprocessed.smi:20|AV-procd|sdf|118|dock3
  -GOLD-   2262015283D 1   1.00000     0.00000
 Structure written by MMmdl.
 57 61  0  0  0  0  0  0  0  0  1 V2000
  146.2349  133.0352  152.1987 O   0  0  0  0  0  0  0  0  0  0  0  0
  146.8972  132.8644  153.2196 C   0  0  0  0  0  0  0  0  0  0  0  0
  148.3880  132.5686  153.2195 C   0  0  0  0  0  0  0  0  0  0  0  0
  148.8026  132.8187  154.6858 C   0  0  1  0  0  0  0  0  0  0  0  0
  149.8947  131.8291  155.1516 C   0  0  0  0  0  0  0  0  0  0  0  0
  150.3795  132.1519  156.5736 C   0  0  0  0  0  0  0  0  0  0  0  0
  150.8618  133.6058  156.6738 C   0  0  0  0  0  0  0  0  0  0  0  0
  149.8329  134.5272  156.1917 N   0  0  0  0  0  0  0  0  0  0  0  0
  149.9284  135.8106  156.6264 C   0  0  0  0  0  0  0  0  0  0  0  0
  149.1256  136.1773  157.6595 N   0  0  0  0  0  0  0  0  0  0  0  0
  149.1573  137.4243  158.1366 C   0  0  0  0  0  0  0  0  0  0  0  0
  149.9065  138.4514  157.7350 N   0  0  0  0  0  0  0  0  0  0  0  0
  150.7189  138.0934  156.7004 C   0  0  0  0  0  0  0  0  0  0  0  0
  150.7961  136.8090  156.0875 C   0  0  0  0  0  0  0  0  0  0  0  0
  151.7509  136.8370  155.0750 N   0  0  0  0  0  0  0  0  0  0  0  0
  152.2019  138.0611  155.0845 C   0  0  0  0  0  0  0  0  0  0  0  0
  151.6323  138.8841  156.0276 N   0  0  0  0  0  0  0  0  0  0  0  0
  151.9400  140.2831  156.2667 C   0  0  0  0  0  0  0  0  0  0  0  0
  150.9344  140.9736  157.2211 C   0  0  2  0  0  0  0  0  0  0  0  0
  149.5527  141.2054  156.5631 C   0  0  0  0  0  0  0  0  0  0  0  0
  149.6522  142.0538  155.4374 O   0  0  0  0  0  0  0  0  0  0  0  0
  151.5264  142.2699  157.8296 C   0  0  1  0  0  0  0  0  0  0  0  0
  150.5314  143.1387  158.5787 C   0  0  0  0  0  0  0  0  0  0  0  0
  151.4455  144.0185  159.4235 C   0  0  0  0  0  0  0  0  0  0  0  0
  152.5685  143.2057  159.7426 O   0  0  0  0  0  0  0  0  0  0  0  0
  152.5727  142.0385  158.9261 C   0  0  0  0  0  0  0  0  0  0  0  0
  149.3249  134.2708  154.8443 C   0  0  0  0  0  0  0  0  0  0  0  0
  147.4676  132.6387  155.4518 C   0  0  0  0  0  0  0  0  0  0  0  0
  146.4362  132.9042  154.4675 N   0  0  0  0  0  0  0  0  0  0  0  0
  148.5339  131.5273  152.9297 H   0  0  0  0  0  0  0  0  0  0  0  0
  148.9247  133.1986  152.5092 H   0  0  0  0  0  0  0  0  0  0  0  0
  149.5262  130.8034  155.1089 H   0  0  0  0  0  0  0  0  0  0  0  0
  150.7429  131.8766  154.4674 H   0  0  0  0  0  0  0  0  0  0  0  0
  149.5715  131.9850  157.2869 H   0  0  0  0  0  0  0  0  0  0  0  0
  151.1850  131.4741  156.8569 H   0  0  0  0  0  0  0  0  0  0  0  0
  151.1432  133.8168  157.7057 H   0  0  0  0  0  0  0  0  0  0  0  0
  151.7599  133.7429  156.0702 H   0  0  0  0  0  0  0  0  0  0  0  0
  148.4858  137.6283  158.9578 H   0  0  0  0  0  0  0  0  0  0  0  0
  152.9638  138.4005  154.3977 H   0  0  0  0  0  0  0  0  0  0  0  0
  152.9510  140.3313  156.6713 H   0  0  0  0  0  0  0  0  0  0  0  0
  151.9684  140.8006  155.3069 H   0  0  0  0  0  0  0  0  0  0  0  0
  150.7631  140.2851  158.0499 H   0  0  0  0  0  0  0  0  0  0  0  0
  149.1047  140.2615  156.2522 H   0  0  0  0  0  0  0  0  0  0  0  0
  148.8533  141.6463  157.2731 H   0  0  0  0  0  0  0  0  0  0  0  0
  149.3739  142.9213  155.6890 H   0  0  0  0  0  0  0  0  0  0  0  0
  151.9825  142.8703  157.0404 H   0  0  0  0  0  0  0  0  0  0  0  0
  149.8863  143.7219  157.9212 H   0  0  0  0  0  0  0  0  0  0  0  0
  149.8999  142.5270  159.2249 H   0  0  0  0  0  0  0  0  0  0  0  0
  151.7903  144.8755  158.8436 H   0  0  0  0  0  0  0  0  0  0  0  0
  150.9535  144.3924  160.3219 H   0  0  0  0  0  0  0  0  0  0  0  0
  152.2987  141.1865  159.5503 H   0  0  0  0  0  0  0  0  0  0  0  0
  153.5667  141.8510  158.5195 H   0  0  0  0  0  0  0  0  0  0  0  0
  150.1335  134.4508  154.1347 H   0  0  0  0  0  0  0  0  0  0  0  0
  148.5260  134.9745  154.6066 H   0  0  0  0  0  0  0  0  0  0  0  0
  147.3441  131.6155  155.8096 H   0  0  0  0  0  0  0  0  0  0  0  0
  147.3715  133.3044  156.3101 H   0  0  0  0  0  0  0  0  0  0  0  0
  145.4741  133.0850  154.7151 H   0  0  0  0  0  0  0  0  0  0  0  0
  1  2  2  0  0  0  0
  2 29  1  0  0  0  0
  2  3  1  0  0  0  0
  3  4  1  0  0  0  0
  3 30  1  0  0  0  0
  3 31  1  0  0  0  0
  4 27  1  0  0  0  0
  4  5  1  0  0  0  0
  4 28  1  0  0  0  0
  5  6  1  0  0  0  0
  5 32  1  0  0  0  0
  5 33  1  0  0  0  0
  6  7  1  0  0  0  0
  6 34  1  0  0  0  0
  6 35  1  0  0  0  0
  7  8  1  0  0  0  0
  7 36  1  0  0  0  0
  7 37  1  0  0  0  0
  8  9  1  0  0  0  0
  8 27  1  0  0  0  0
  9 14  1  0  0  0  0
  9 10  2  0  0  0  0
 10 11  1  0  0  0  0
 11 12  2  0  0  0  0
 11 38  1  0  0  0  0
 12 13  1  0  0  0  0
 13 17  1  0  0  0  0
 13 14  2  0  0  0  0
 14 15  1  0  0  0  0
 15 16  2  0  0  0  0
 16 17  1  0  0  0  0
 16 39  1  0  0  0  0
 17 18  1  0  0  0  0
 18 19  1  0  0  0  0
 18 40  1  0  0  0  0
 18 41  1  0  0  0  0
 19 20  1  0  0  0  0
 19 22  1  0  0  0  0
 19 42  1  0  0  0  0
 20 21  1  0  0  0  0
 20 43  1  0  0  0  0
 20 44  1  0  0  0  0
 21 45  1  0  0  0  0
 22 26  1  0  0  0  0
 22 23  1  0  0  0  0
 22 46  1  0  0  0  0
 23 24  1  0  0  0  0
 23 47  1  0  0  0  0
 23 48  1  0  0  0  0
 24 25  1  0  0  0  0
 24 49  1  0  0  0  0
 24 50  1  0  0  0  0
 25 26  1  0  0  0  0
 26 51  1  0  0  0  0
 26 52  1  0  0  0  0
 27 53  1  0  0  0  0
 27 54  1  0  0  0  0
 28 29  1  0  0  0  0
 28 55  1  0  0  0  0
 28 56  1  0  0  0  0
 29 57  1  0  0  0  0
M  END
> <s_m_source_file>
AV-unprocessed.smi

> <i_m_source_file_index>
20

> <i_lp_mmshare_version>
43012

> <i_f3d_flags>
0

> <s_epik_input>
W0NIMl0xW05IXUMoPU8pW0NIMl1bQ0BAXTEyW0NIMl1bQ0gyXVtDSDJdTihbQ0gyXTIpYyhuW2NIXW4zKWMoYzM0KW5bY0hdbjRbQ0gyXVtDQEhdKFtDSDJdW09IXSlbQ0BASF01W0NIMl1bQ0gyXU9bQ0gyXTU=

> <s_epik_cmdline>
J2VwaWtfcHl0aG9uJywgJy1waCcsICc3LjAnLCAnLXRuJywgJzgnLCAnLW1hJywgJzIwMCcsICctbWV0YWxfYmluZGluZycsICctaW1hZScsICc8aW5maWxlLm1hZT4nLCAnLW9tYWUnLCAnPG91dGZpbGUubWFlPic=

> <r_lp_tautomer_probability>
1

> <r_epik_Ionization_Penalty>
0.0019697

> <r_epik_Ionization_Penalty_Charging>
0

> <r_epik_Ionization_Penalty_Neutral>
0.0019697

> <r_epik_State_Penalty>
0.00113613

> <r_epik_Charging_Adjusted_Penalty>
0.00113613

> <i_epik_Tot_Q>
0

> <i_epik_Tot_abs_Q>
0

> <r_epik_Metal_State_Penalty>
-0

> <b_epik_Metal_Only>
0

> <s_lp_Force_Field>
OPLS_2005

> <r_lp_Energy>
59.1367

> <b_lp_Chiralities_Consistent>
1

> <s_lp_Variant>
AV-unprocessed.smi:20-6

> <Gold.Version>
5.8.1

> <Gold.Id.Protein>
6NUR|6NUR_protein|mol2

> <Gold.PLP.Fitness>
46.8506

> <Gold.PLP.PLP>
-44.0596

> <Gold.PLP.part.hbond>
-2.0000

> <Gold.PLP.part.metal>
0.0000

> <Gold.PLP.part.buried>
-6.9496

> <Gold.PLP.part.nonpolar>
-34.4190

> <Gold.PLP.part.repulsive>
0.2694

> <Gold.PLP.ligand.clash>
0.0000

> <Gold.PLP.ligand.torsion>
1.8663

> <Gold.PLP.Chemscore.Hbond>
2.0000

> <Gold.PLP.Chemscore.CHOScore>
0.0000

> <Gold.PLP.Chemscore.Metal>
0.0000

> <Gold.Chemscore.Hbonds>
donor molecule, donor type, donor heavy atom, donor atom, acceptor molecule, acceptor atom, score
      L1  H    21    45       P1  8028  1.00
      P1  H 10752 10765       L1    15  0.94

> <Gold.PLP.Chemscore.Internal.Correction>
0.5235

> <Gold.Rescore>
     Score         DG    S(hbond)    S(metal)    S(lipo)     H(rot)  DE(clash)    DE(int)     intcor
     12.98     -16.50       1.83        0.00      95.16       2.43       0.09       3.44       ----

> <Gold.Chemscore.Fitness>
12.9777

> <Gold.Chemscore.DG>
-16.5011

> <Gold.Chemscore.ZeroCoef>
-5.4800

> <Gold.Chemscore.Hbond>
1.8295

> <Gold.Chemscore.Metal>
0.0000

> <Gold.Chemscore.Lipo>
95.1595

> <Gold.Chemscore.Internal_Hbond>
0.0000

> <Gold.Chemscore.DEClash>
0.0868

> <Gold.Chemscore.DEInternal>
3.4366

> <Gold.Chemscore.Rot>
2.4309

> <Gold.Chemscore.Internal.Correction>
   9.000000E+99

> <Gold.Chemscore.Hbonds>
donor molecule, donor type, donor heavy atom, donor atom, acceptor molecule, acceptor atom, score
      L1  H    21    45       P1  8028  1.00
      P1  H 10752 10765       L1    15  0.75

> <Gold.Chemscore.Hbond.Weighted>
-6.1106

> <Gold.Chemscore.Metal.Weighted>
-0.0000

> <Gold.Chemscore.Lipo.Weighted>
-11.1337

> <Gold.Chemscore.Internal_Hbond.Weighted>
0.0000

> <Gold.Chemscore.DEClash.Weighted>
0.0868

> <Gold.Chemscore.DEInternal.Weighted>
3.4366

> <Gold.Chemscore.Rot.Weighted>
6.2231

> <Gold.Chemscore.Internal.Correction.Weighted>
   9.000000E+99

> <Gold.Protein.RotatedTorsions>
[ 6907 6896 6895 6894 ] final  151.09 input  -60.11 | X-H torsion
[ 7974 7965 7964 7962 ] final  -16.85 input  175.53 | X-H torsion
[ 8008 7997 7996 7995 ] final  169.02 input   59.86 | X-H torsion
[ 10167 10162 10161 10158 ] final -121.03 input  -65.29 | X-H torsion
[ 10718 10713 10712 10709 ] final  134.66 input   66.30 | X-H torsion
[ 10763 10752 10751 10750 ] final  161.44 input  -60.55 | X-H torsion
[ 11005 11000 10999 10996 ] final -161.32 input  -57.11 | X-H torsion

> <Gold.Protein.ActiveResidues>
 VAL166  LYS551  ARG553  GLY616  TRP617  ASP618  TYR619  PRO620  LYS621  CYS622 
 ASP623  PHE694  ASN695  SER759  ASP760  ASP761  ALA762  ILE779  LEU786  VAL792 
 PHE793  MET794  SER795  GLU796  ALA797  LYS798  CYS799  TRP800  GLU811  SER814 

> <Gold.Protein.RotatedAtoms>
  152.1054  133.4272  159.4606 H   0  0  0  0  0  0  0  0  0  0  0  0  # atno 6907 bound_to 6896
  150.6865  134.2711  159.4598 H   0  0  0  0  0  0  0  0  0  0  0  0  # atno 6908 bound_to 6896
  152.0575  134.9615  160.0625 H   0  0  0  0  0  0  0  0  0  0  0  0  # atno 6909 bound_to 6896
  146.1968  140.3696  142.8437 H   0  0  0  0  0  0  0  0  0  0  0  0  # atno 7974 bound_to 7965
  156.1495  140.1575  156.8793 H   0  0  0  0  0  0  0  0  0  0  0  0  # atno 8008 bound_to 7997
  154.5058  140.0813  156.7928 H   0  0  0  0  0  0  0  0  0  0  0  0  # atno 8009 bound_to 7997
  155.3924  140.3410  155.4254 H   0  0  0  0  0  0  0  0  0  0  0  0  # atno 8010 bound_to 7997
  140.0295  143.5263  152.2183 H   0  0  0  0  0  0  0  0  0  0  0  0  # atno 10167 bound_to 10162
  157.4650  131.1076  150.9874 H   0  0  0  0  0  0  0  0  0  0  0  0  # atno 10718 bound_to 10713
  154.2630  135.2768  155.2770 H   0  0  0  0  0  0  0  0  0  0  0  0  # atno 10763 bound_to 10752
  154.5367  135.5714  153.6808 H   0  0  0  0  0  0  0  0  0  0  0  0  # atno 10764 bound_to 10752
  152.9959  135.6241  154.2781 H   0  0  0  0  0  0  0  0  0  0  0  0  # atno 10765 bound_to 10752
  140.6217  134.4743  157.5224 H   0  0  0  0  0  0  0  0  0  0  0  0  # atno 11005 bound_to 11000
  144.8598  140.7123  143.6115 LP  0  0  0  0  0  0  0  0  0  0  0  0  # atno 17320 bound_to 7965
  145.3616  139.1680  143.4380 LP  0  0  0  0  0  0  0  0  0  0  0  0  # atno 17321 bound_to 7965
  139.6086  144.7603  151.3005 LP  0  0  0  0  0  0  0  0  0  0  0  0  # atno 17342 bound_to 10162
  140.7308  143.6869  150.7954 LP  0  0  0  0  0  0  0  0  0  0  0  0  # atno 17343 bound_to 10162
  157.0658  130.5844  149.5394 LP  0  0  0  0  0  0  0  0  0  0  0  0  # atno 17370 bound_to 10713
  156.0046  130.5131  150.7784 LP  0  0  0  0  0  0  0  0  0  0  0  0  # atno 17371 bound_to 10713
  139.9151  134.8264  156.1395 LP  0  0  0  0  0  0  0  0  0  0  0  0  # atno 17394 bound_to 11000
  141.0737  133.6785  156.2193 LP  0  0  0  0  0  0  0  0  0  0  0  0  # atno 17395 bound_to 11000

$$$$
