AV-unprocessed.smi:2086|AV-procd|sdf|8518|dock3
  -GOLD-   2272011233D 1   1.00000     0.00000
 Structure written by MMmdl.
 34 35  0  0  0  0  0  0  0  0  1 V2000
  151.4190  140.7889  157.5923 O   0  0  0  0  0  0  0  0  0  0  0  0
  150.5277  141.5094  157.1431 C   0  0  0  0  0  0  0  0  0  0  0  0
  150.1843  142.6887  157.6849 N   0  0  0  0  0  0  0  0  0  0  0  0
  150.7681  143.2655  158.8908 C   0  0  0  0  0  0  0  0  0  0  0  0
  151.8613  144.2975  158.5676 C   0  0  0  0  0  0  0  0  0  0  0  0
  151.7816  144.6280  157.2793 F   0  0  0  0  0  0  0  0  0  0  0  0
  151.7073  145.4007  159.2997 F   0  0  0  0  0  0  0  0  0  0  0  0
  153.0675  143.7801  158.8017 F   0  0  0  0  0  0  0  0  0  0  0  0
  149.7965  141.1263  155.8828 C   0  0  0  0  0  0  0  0  0  0  0  0
  148.9328  142.0754  155.2914 C   0  0  0  0  0  0  0  0  0  0  0  0
  148.2314  141.7431  154.1190 C   0  0  0  0  0  0  0  0  0  0  0  0
  148.4246  140.4646  153.5694 C   0  0  0  0  0  0  0  0  0  0  0  0
  149.2582  139.5510  154.1057 N   0  0  0  0  0  0  0  0  0  0  0  0
  149.9455  139.8631  155.2326 C   0  0  0  0  0  0  0  0  0  0  0  0
  150.8505  138.8893  155.7015 N   0  0  0  0  0  0  0  0  0  0  0  0
  152.2213  139.0868  155.2474 C   0  0  0  0  0  0  0  0  0  0  0  0
  153.1693  138.1710  156.0402 C   0  0  0  0  0  0  0  0  0  0  0  0
  152.7403  136.8172  155.9202 O   0  0  0  0  0  0  0  0  0  0  0  0
  151.4251  136.6217  156.4329 C   0  0  0  0  0  0  0  0  0  0  0  0
  150.4299  137.4935  155.6480 C   0  0  0  0  0  0  0  0  0  0  0  0
  149.4584  143.2232  157.2302 H   0  0  0  0  0  0  0  0  0  0  0  0
  149.9645  143.7460  159.4497 H   0  0  0  0  0  0  0  0  0  0  0  0
  151.1636  142.4806  159.5378 H   0  0  0  0  0  0  0  0  0  0  0  0
  148.7953  143.0503  155.7369 H   0  0  0  0  0  0  0  0  0  0  0  0
  147.5595  142.4500  153.6551 H   0  0  0  0  0  0  0  0  0  0  0  0
  147.9026  140.1693  152.6713 H   0  0  0  0  0  0  0  0  0  0  0  0
  152.2811  138.8567  154.1827 H   0  0  0  0  0  0  0  0  0  0  0  0
  152.5242  140.1273  155.3661 H   0  0  0  0  0  0  0  0  0  0  0  0
  154.1854  138.2579  155.6555 H   0  0  0  0  0  0  0  0  0  0  0  0
  153.1995  138.4622  157.0917 H   0  0  0  0  0  0  0  0  0  0  0  0
  151.1589  135.5689  156.3390 H   0  0  0  0  0  0  0  0  0  0  0  0
  151.3990  136.8641  157.4965 H   0  0  0  0  0  0  0  0  0  0  0  0
  149.4284  137.3903  156.0674 H   0  0  0  0  0  0  0  0  0  0  0  0
  150.3861  137.1604  154.6100 H   0  0  0  0  0  0  0  0  0  0  0  0
  1  2  2  0  0  0  0
  2  3  1  0  0  0  0
  2  9  1  0  0  0  0
  3  4  1  0  0  0  0
  3 21  1  0  0  0  0
  4  5  1  0  0  0  0
  4 22  1  0  0  0  0
  4 23  1  0  0  0  0
  5  6  1  0  0  0  0
  5  7  1  0  0  0  0
  5  8  1  0  0  0  0
  9 14  1  0  0  0  0
  9 10  2  0  0  0  0
 10 11  1  0  0  0  0
 10 24  1  0  0  0  0
 11 12  2  0  0  0  0
 11 25  1  0  0  0  0
 12 13  1  0  0  0  0
 12 26  1  0  0  0  0
 13 14  2  0  0  0  0
 14 15  1  0  0  0  0
 15 20  1  0  0  0  0
 15 16  1  0  0  0  0
 16 17  1  0  0  0  0
 16 27  1  0  0  0  0
 16 28  1  0  0  0  0
 17 18  1  0  0  0  0
 17 29  1  0  0  0  0
 17 30  1  0  0  0  0
 18 19  1  0  0  0  0
 19 20  1  0  0  0  0
 19 31  1  0  0  0  0
 19 32  1  0  0  0  0
 20 33  1  0  0  0  0
 20 34  1  0  0  0  0
M  END
> <s_m_source_file>
AV-unprocessed.smi

> <i_m_source_file_index>
2086

> <i_lp_mmshare_version>
43012

> <i_f3d_flags>
0

> <s_epik_input>
RkMoRikoRilbQ0gyXVtOSF1DKD1PKWMxW2NIXVtjSF1bY0hdbmMxTjJbQ0gyXVtDSDJdT1tDSDJdW0NIMl0y

> <s_epik_cmdline>
J2VwaWtfcHl0aG9uJywgJy1waCcsICc3LjAnLCAnLXRuJywgJzgnLCAnLW1hJywgJzIwMCcsICctbWV0YWxfYmluZGluZycsICctaW1hZScsICc8aW5maWxlLm1hZT4nLCAnLW9tYWUnLCAnPG91dGZpbGUubWFlPic=

> <r_lp_tautomer_probability>
1

> <r_epik_Ionization_Penalty>
1.36166e-05

> <r_epik_Ionization_Penalty_Charging>
0

> <r_epik_Ionization_Penalty_Neutral>
1.36166e-05

> <r_epik_State_Penalty>
-0

> <r_epik_Charging_Adjusted_Penalty>
0

> <i_epik_Tot_Q>
0

> <i_epik_Tot_abs_Q>
0

> <r_epik_Metal_State_Penalty>
0.00705299

> <b_epik_Metal_Only>
0

> <s_lp_Force_Field>
OPLS_2005

> <r_lp_Energy>
23.9064

> <b_lp_Chiralities_Consistent>
1

> <s_lp_Variant>
AV-unprocessed.smi:2086-1

> <Gold.Version>
5.8.1

> <Gold.Id.Protein>
6NUR|6NUR_protein|mol2

> <Gold.PLP.Fitness>
37.9447

> <Gold.PLP.PLP>
-35.5447

> <Gold.PLP.part.hbond>
-1.6040

> <Gold.PLP.part.metal>
0.0000

> <Gold.PLP.part.buried>
2.2049

> <Gold.PLP.part.nonpolar>
-36.4955

> <Gold.PLP.part.repulsive>
1.0078

> <Gold.PLP.ligand.clash>
0.0000

> <Gold.PLP.ligand.torsion>
1.7834

> <Gold.PLP.Chemscore.Hbond>
1.4653

> <Gold.PLP.Chemscore.CHOScore>
0.4264

> <Gold.PLP.Chemscore.Metal>
0.0000

> <Gold.Chemscore.Hbonds>
donor molecule, donor type, donor heavy atom, donor atom, acceptor molecule, acceptor atom, score
      L1  H     3    21       P1  8028  0.48
      P1  H 10752 10764       L1    18  0.78
      L1  C    12    26       P1  7957  0.46

> <Gold.PLP.Chemscore.Internal.Correction>
0.2918

> <Gold.Rescore>
     Score         DG    S(hbond)    S(metal)    S(lipo)     H(rot)  DE(clash)    DE(int)     intcor
      8.67     -16.79       1.82        0.00      73.72       1.33       3.68       4.44       ----

> <Gold.Chemscore.Fitness>
8.6679

> <Gold.Chemscore.DG>
-16.7892

> <Gold.Chemscore.ZeroCoef>
-5.4800

> <Gold.Chemscore.Hbond>
1.8227

> <Gold.Chemscore.Metal>
0.0000

> <Gold.Chemscore.Lipo>
73.7161

> <Gold.Chemscore.Internal_Hbond>
0.0000

> <Gold.Chemscore.DEClash>
3.6779

> <Gold.Chemscore.DEInternal>
4.4434

> <Gold.Chemscore.Rot>
1.3294

> <Gold.Chemscore.Internal.Correction>
   9.000000E+99

> <Gold.Chemscore.Hbonds>
donor molecule, donor type, donor heavy atom, donor atom, acceptor molecule, acceptor atom, score
      L1  H     3    21       P1  8028  0.42
      P1  H 10752 10764       L1    18  0.50

> <Gold.Chemscore.Hbond.Weighted>
-6.0878

> <Gold.Chemscore.Metal.Weighted>
-0.0000

> <Gold.Chemscore.Lipo.Weighted>
-8.6248

> <Gold.Chemscore.Internal_Hbond.Weighted>
0.0000

> <Gold.Chemscore.DEClash.Weighted>
3.6779

> <Gold.Chemscore.DEInternal.Weighted>
4.4434

> <Gold.Chemscore.Rot.Weighted>
3.4033

> <Gold.Chemscore.Internal.Correction.Weighted>
   9.000000E+99

> <Gold.Protein.RotatedTorsions>
[ 6907 6896 6895 6894 ] final -146.29 input  -60.11 | X-H torsion
[ 7974 7965 7964 7962 ] final  -35.88 input  175.53 | X-H torsion
[ 8008 7997 7996 7995 ] final   67.32 input   59.86 | X-H torsion
[ 10167 10162 10161 10158 ] final    9.96 input  -65.29 | X-H torsion
[ 10718 10713 10712 10709 ] final -147.00 input   66.30 | X-H torsion
[ 10763 10752 10751 10750 ] final  -32.88 input  -60.55 | X-H torsion
[ 11005 11000 10999 10996 ] final  158.97 input  -57.11 | X-H torsion

> <Gold.Protein.ActiveResidues>
 VAL166  LYS551  ARG553  GLY616  TRP617  ASP618  TYR619  PRO620  LYS621  CYS622 
 ASP623  PHE694  ASN695  SER759  ASP760  ASP761  ALA762  ILE779  LEU786  VAL792 
 PHE793  MET794  SER795  GLU796  ALA797  LYS798  CYS799  TRP800  GLU811  SER814 

> <Gold.Protein.RotatedAtoms>
  151.1396  133.4981  159.2596 H   0  0  0  0  0  0  0  0  0  0  0  0  # atno 6907 bound_to 6896
  151.1670  135.0299  159.8745 H   0  0  0  0  0  0  0  0  0  0  0  0  # atno 6908 bound_to 6896
  152.5462  134.1263  159.8473 H   0  0  0  0  0  0  0  0  0  0  0  0  # atno 6909 bound_to 6896
  146.0709  140.6212  142.8953 H   0  0  0  0  0  0  0  0  0  0  0  0  # atno 7974 bound_to 7965
  155.6910  140.3496  155.4893 H   0  0  0  0  0  0  0  0  0  0  0  0  # atno 8008 bound_to 7997
  155.9524  140.1122  157.0988 H   0  0  0  0  0  0  0  0  0  0  0  0  # atno 8009 bound_to 7997
  154.4125  140.1191  156.5056 H   0  0  0  0  0  0  0  0  0  0  0  0  # atno 8010 bound_to 7997
  140.6223  143.8176  150.7191 H   0  0  0  0  0  0  0  0  0  0  0  0  # atno 10167 bound_to 10162
  156.4020  130.7939  151.2150 H   0  0  0  0  0  0  0  0  0  0  0  0  # atno 10718 bound_to 10713
  153.8211  135.6874  153.4827 H   0  0  0  0  0  0  0  0  0  0  0  0  # atno 10763 bound_to 10752
  153.1568  135.4595  154.9714 H   0  0  0  0  0  0  0  0  0  0  0  0  # atno 10764 bound_to 10752
  154.7927  135.3307  154.7683 H   0  0  0  0  0  0  0  0  0  0  0  0  # atno 10765 bound_to 10752
  140.1917  134.8402  157.2919 H   0  0  0  0  0  0  0  0  0  0  0  0  # atno 11005 bound_to 11000
  144.7231  140.4437  143.6993 LP  0  0  0  0  0  0  0  0  0  0  0  0  # atno 17320 bound_to 7965
  145.6394  139.1547  143.2924 LP  0  0  0  0  0  0  0  0  0  0  0  0  # atno 17321 bound_to 7965
  140.1769  143.4147  152.1961 LP  0  0  0  0  0  0  0  0  0  0  0  0  # atno 17342 bound_to 10162
  139.5450  144.7290  151.4613 LP  0  0  0  0  0  0  0  0  0  0  0  0  # atno 17343 bound_to 10162
  157.7504  131.0284  150.4046 LP  0  0  0  0  0  0  0  0  0  0  0  0  # atno 17370 bound_to 10713
  156.4327  130.3975  149.6749 LP  0  0  0  0  0  0  0  0  0  0  0  0  # atno 17371 bound_to 10713
  140.2152  134.4090  155.7592 LP  0  0  0  0  0  0  0  0  0  0  0  0  # atno 17394 bound_to 11000
  141.2226  133.7138  156.8403 LP  0  0  0  0  0  0  0  0  0  0  0  0  # atno 17395 bound_to 11000

$$$$
