AV-unprocessed.smi:1690|AV-procd|sdf|6773|dock8
  -GOLD-   22720 7533D 1   1.00000     0.00000
 Structure written by MMmdl.
 37 38  0  0  0  0  0  0  0  0  1 V2000
  152.8355  144.6621  157.9979 C   0  0  0  0  0  0  0  0  0  0  0  0
  151.9235  144.3176  159.1843 C   0  0  0  0  0  0  0  0  0  0  0  0
  151.5656  145.5389  160.0438 C   0  0  0  0  0  0  0  0  0  0  0  0
  152.4694  143.1937  160.0072 C   0  0  0  0  0  0  0  0  0  0  0  0
  152.7751  141.9917  159.5096 N   0  0  0  0  0  0  0  0  0  0  0  0
  153.2867  141.1187  160.4756 C   0  0  0  0  0  0  0  0  0  0  0  0
  153.7035  139.7297  160.0847 C   0  0  0  0  0  0  0  0  0  0  0  0
  153.1945  139.3926  158.6812 C   0  0  0  0  0  0  0  0  0  0  0  0
  153.9477  138.8648  157.8630 O   0  0  0  0  0  0  0  0  0  0  0  0
  151.9126  139.6945  158.4201 N   0  0  0  0  0  0  0  0  0  0  0  0
  151.2318  139.4728  157.1480 C   0  0  0  0  0  0  0  0  0  0  0  0
  151.1626  137.9675  156.8243 C   0  0  0  0  0  0  0  0  0  0  0  0
  151.6855  137.8143  155.3945 C   0  0  0  0  0  0  0  0  0  0  0  0
  152.6545  138.9790  155.2172 C   0  0  0  0  0  0  0  0  0  0  0  0
  151.9978  140.1278  155.9826 C   0  0  0  0  0  0  0  0  0  0  0  0
  153.3485  141.6771  161.7283 C   0  0  0  0  0  0  0  0  0  0  0  0
  152.7813  143.3243  161.7348 S   0  0  0  0  0  0  0  0  0  0  0  0
  153.0004  143.7901  157.3642 H   0  0  0  0  0  0  0  0  0  0  0  0
  153.8093  145.0176  158.3361 H   0  0  0  0  0  0  0  0  0  0  0  0
  152.3948  145.4428  157.3773 H   0  0  0  0  0  0  0  0  0  0  0  0
  150.9867  143.9578  158.7569 H   0  0  0  0  0  0  0  0  0  0  0  0
  150.8509  145.2735  160.8236 H   0  0  0  0  0  0  0  0  0  0  0  0
  151.1172  146.3273  159.4391 H   0  0  0  0  0  0  0  0  0  0  0  0
  152.4490  145.9550  160.5292 H   0  0  0  0  0  0  0  0  0  0  0  0
  154.7901  139.6365  160.1083 H   0  0  0  0  0  0  0  0  0  0  0  0
  153.3162  138.9927  160.7894 H   0  0  0  0  0  0  0  0  0  0  0  0
  151.3714  140.1249  159.1563 H   0  0  0  0  0  0  0  0  0  0  0  0
  150.2200  139.8802  157.1946 H   0  0  0  0  0  0  0  0  0  0  0  0
  151.8017  137.3968  157.5006 H   0  0  0  0  0  0  0  0  0  0  0  0
  150.1521  137.5715  156.9296 H   0  0  0  0  0  0  0  0  0  0  0  0
  152.1550  136.8457  155.2211 H   0  0  0  0  0  0  0  0  0  0  0  0
  150.8601  137.9153  154.6885 H   0  0  0  0  0  0  0  0  0  0  0  0
  153.6138  138.7329  155.6745 H   0  0  0  0  0  0  0  0  0  0  0  0
  152.8355  139.2209  154.1695 H   0  0  0  0  0  0  0  0  0  0  0  0
  151.2874  140.6343  155.3276 H   0  0  0  0  0  0  0  0  0  0  0  0
  152.7241  140.8758  156.3037 H   0  0  0  0  0  0  0  0  0  0  0  0
  153.6998  141.2226  162.6429 H   0  0  0  0  0  0  0  0  0  0  0  0
  1  2  1  0  0  0  0
  1 18  1  0  0  0  0
  1 19  1  0  0  0  0
  1 20  1  0  0  0  0
  2  3  1  0  0  0  0
  2  4  1  0  0  0  0
  2 21  1  0  0  0  0
  3 22  1  0  0  0  0
  3 23  1  0  0  0  0
  3 24  1  0  0  0  0
  4 17  1  0  0  0  0
  4  5  2  0  0  0  0
  5  6  1  0  0  0  0
  6  7  1  0  0  0  0
  6 16  2  0  0  0  0
  7  8  1  0  0  0  0
  7 25  1  0  0  0  0
  7 26  1  0  0  0  0
  8  9  2  0  0  0  0
  8 10  1  0  0  0  0
 10 11  1  0  0  0  0
 10 27  1  0  0  0  0
 11 15  1  0  0  0  0
 11 12  1  0  0  0  0
 11 28  1  0  0  0  0
 12 13  1  0  0  0  0
 12 29  1  0  0  0  0
 12 30  1  0  0  0  0
 13 14  1  0  0  0  0
 13 31  1  0  0  0  0
 13 32  1  0  0  0  0
 14 15  1  0  0  0  0
 14 33  1  0  0  0  0
 14 34  1  0  0  0  0
 15 35  1  0  0  0  0
 15 36  1  0  0  0  0
 16 17  1  0  0  0  0
 16 37  1  0  0  0  0
M  END
> <s_m_source_file>
AV-unprocessed.smi

> <i_m_source_file_index>
1690

> <i_lp_mmshare_version>
43012

> <i_f3d_flags>
0

> <s_epik_input>
W0NIM11bQ0hdKFtDSDNdKWMxbmMoW2NIXXMxKVtDSDJdQyg9TylbTkhdW0NIXTJbQ0gyXVtDSDJdW0NIMl1bQ0gyXTI=

> <s_epik_cmdline>
J2VwaWtfcHl0aG9uJywgJy1waCcsICc3LjAnLCAnLXRuJywgJzgnLCAnLW1hJywgJzIwMCcsICctbWV0YWxfYmluZGluZycsICctaW1hZScsICc8aW5maWxlLm1hZT4nLCAnLW9tYWUnLCAnPG91dGZpbGUubWFlPic=

> <r_lp_tautomer_probability>
1

> <r_epik_Ionization_Penalty>
4.81312e-05

> <r_epik_Ionization_Penalty_Charging>
0

> <r_epik_Ionization_Penalty_Neutral>
4.81312e-05

> <r_epik_State_Penalty>
-0

> <r_epik_Charging_Adjusted_Penalty>
0

> <i_epik_Tot_Q>
0

> <i_epik_Tot_abs_Q>
0

> <r_epik_Metal_State_Penalty>
-0

> <b_epik_Metal_Only>
0

> <s_lp_Force_Field>
OPLS_2005

> <r_lp_Energy>
9.48899

> <b_lp_Chiralities_Consistent>
1

> <s_lp_Variant>
AV-unprocessed.smi:1690-1

> <Gold.Version>
5.8.1

> <Gold.Id.Protein>
6NUR|6NUR_protein|mol2

> <Gold.PLP.Fitness>
45.3482

> <Gold.PLP.PLP>
-42.9951

> <Gold.PLP.part.hbond>
-1.0000

> <Gold.PLP.part.metal>
0.0000

> <Gold.PLP.part.buried>
-5.6037

> <Gold.PLP.part.nonpolar>
-36.3525

> <Gold.PLP.part.repulsive>
0.1010

> <Gold.PLP.ligand.clash>
0.0000

> <Gold.PLP.ligand.torsion>
0.3619

> <Gold.PLP.Chemscore.Hbond>
1.0000

> <Gold.PLP.Chemscore.CHOScore>
0.0000

> <Gold.PLP.Chemscore.Metal>
0.0000

> <Gold.Chemscore.Hbonds>
donor molecule, donor type, donor heavy atom, donor atom, acceptor molecule, acceptor atom, score
      P1  H  7997  8009       L1     9  1.00

> <Gold.PLP.Chemscore.Internal.Correction>
0.0770

> <Gold.Rescore>
     Score         DG    S(hbond)    S(metal)    S(lipo)     H(rot)  DE(clash)    DE(int)     intcor
     16.77     -19.35       0.98        0.00     120.02       1.35       0.00       2.57       ----

> <Gold.Chemscore.Fitness>
16.7710

> <Gold.Chemscore.DG>
-19.3456

> <Gold.Chemscore.ZeroCoef>
-5.4800

> <Gold.Chemscore.Hbond>
0.9808

> <Gold.Chemscore.Metal>
0.0000

> <Gold.Chemscore.Lipo>
120.0240

> <Gold.Chemscore.Internal_Hbond>
0.0000

> <Gold.Chemscore.DEClash>
0.0004

> <Gold.Chemscore.DEInternal>
2.5741

> <Gold.Chemscore.Rot>
1.3489

> <Gold.Chemscore.Internal.Correction>
   9.000000E+99

> <Gold.Chemscore.Hbonds>
donor molecule, donor type, donor heavy atom, donor atom, acceptor molecule, acceptor atom, score
      P1  H  7997  8009       L1     9  0.62

> <Gold.Chemscore.Hbond.Weighted>
-3.2760

> <Gold.Chemscore.Metal.Weighted>
-0.0000

> <Gold.Chemscore.Lipo.Weighted>
-14.0428

> <Gold.Chemscore.Internal_Hbond.Weighted>
0.0000

> <Gold.Chemscore.DEClash.Weighted>
0.0004

> <Gold.Chemscore.DEInternal.Weighted>
2.5741

> <Gold.Chemscore.Rot.Weighted>
3.4532

> <Gold.Chemscore.Internal.Correction.Weighted>
   9.000000E+99

> <Gold.Protein.RotatedTorsions>
[ 6907 6896 6895 6894 ] final  -75.55 input  -60.11 | X-H torsion
[ 7974 7965 7964 7962 ] final   32.94 input  175.53 | X-H torsion
[ 8008 7997 7996 7995 ] final  138.29 input   59.86 | X-H torsion
[ 10167 10162 10161 10158 ] final  -76.88 input  -65.29 | X-H torsion
[ 10718 10713 10712 10709 ] final   30.32 input   66.30 | X-H torsion
[ 10763 10752 10751 10750 ] final -102.27 input  -60.55 | X-H torsion
[ 11005 11000 10999 10996 ] final  -14.91 input  -57.11 | X-H torsion

> <Gold.Protein.ActiveResidues>
 VAL166  LYS551  ARG553  GLY616  TRP617  ASP618  TYR619  PRO620  LYS621  CYS622 
 ASP623  PHE694  ASN695  SER759  ASP760  ASP761  ALA762  ILE779  LEU786  VAL792 
 PHE793  MET794  SER795  GLU796  ALA797  LYS798  CYS799  TRP800  GLU811  SER814 

> <Gold.Protein.RotatedAtoms>
  150.7055  134.4704  159.5422 H   0  0  0  0  0  0  0  0  0  0  0  0  # atno 6907 bound_to 6896
  152.2361  134.8271  160.0476 H   0  0  0  0  0  0  0  0  0  0  0  0  # atno 6908 bound_to 6896
  151.9070  133.3516  159.3887 H   0  0  0  0  0  0  0  0  0  0  0  0  # atno 6909 bound_to 6896
  146.1454  139.6461  142.9135 H   0  0  0  0  0  0  0  0  0  0  0  0  # atno 7974 bound_to 7965
  156.2998  140.2397  156.4048 H   0  0  0  0  0  0  0  0  0  0  0  0  # atno 8008 bound_to 7997
  154.8494  140.0424  157.1614 H   0  0  0  0  0  0  0  0  0  0  0  0  # atno 8009 bound_to 7997
  154.9015  140.2977  155.5319 H   0  0  0  0  0  0  0  0  0  0  0  0  # atno 8010 bound_to 7997
  140.4818  143.2400  151.8045 H   0  0  0  0  0  0  0  0  0  0  0  0  # atno 10167 bound_to 10162
  157.2581  130.7148  149.6440 H   0  0  0  0  0  0  0  0  0  0  0  0  # atno 10718 bound_to 10713
  154.7721  135.4867  153.9670 H   0  0  0  0  0  0  0  0  0  0  0  0  # atno 10763 bound_to 10752
  153.1381  135.6767  153.9078 H   0  0  0  0  0  0  0  0  0  0  0  0  # atno 10764 bound_to 10752
  153.8761  135.3138  155.3422 H   0  0  0  0  0  0  0  0  0  0  0  0  # atno 10765 bound_to 10752
  140.7913  133.8286  155.9382 H   0  0  0  0  0  0  0  0  0  0  0  0  # atno 11005 bound_to 11000
  145.4951  141.0438  143.2572 LP  0  0  0  0  0  0  0  0  0  0  0  0  # atno 17320 bound_to 7965
  144.7840  139.6466  143.7142 LP  0  0  0  0  0  0  0  0  0  0  0  0  # atno 17321 bound_to 7965
  139.4835  144.4762  151.9364 LP  0  0  0  0  0  0  0  0  0  0  0  0  # atno 17342 bound_to 10162
  140.3848  144.2691  150.5905 LP  0  0  0  0  0  0  0  0  0  0  0  0  # atno 17343 bound_to 10162
  155.9664  130.4406  150.5307 LP  0  0  0  0  0  0  0  0  0  0  0  0  # atno 17370 bound_to 10713
  157.3205  131.0681  151.1935 LP  0  0  0  0  0  0  0  0  0  0  0  0  # atno 17371 bound_to 10713
  140.9387  134.1929  157.4813 LP  0  0  0  0  0  0  0  0  0  0  0  0  # atno 17394 bound_to 11000
  139.8731  134.9863  156.5318 LP  0  0  0  0  0  0  0  0  0  0  0  0  # atno 17395 bound_to 11000

$$$$
