AV-unprocessed.smi:197|AV-procd|sdf|1547|dock2
  -GOLD-   2262019413D 1   1.00000     0.00000
 Structure written by MMmdl.
 54 57  0  0  0  0  0  0  0  0  1 V2000
  151.8014  144.4953  159.0119 C   0  0  0  0  0  0  0  0  0  0  0  0
  151.3574  143.1503  159.0265 O   0  0  0  0  0  0  0  0  0  0  0  0
  151.1327  142.6370  157.7238 C   0  0  0  0  0  0  0  0  0  0  0  0
  150.4039  141.2886  157.8274 C   0  0  0  0  0  0  0  0  0  0  0  0
  150.5093  140.3995  156.5590 C   0  0  1  0  0  0  0  0  0  0  0  0
  151.9629  140.3750  156.0263 C   0  0  0  0  0  0  0  0  0  0  0  0
  152.0788  139.5060  154.9063 O   0  0  0  0  0  0  0  0  0  0  0  0
  151.7591  138.1649  155.2466 C   0  0  0  0  0  0  0  0  0  0  0  0
  150.2951  138.1074  155.6975 C   0  0  0  0  0  0  0  0  0  0  0  0
  150.0643  139.0206  156.8126 N   0  0  0  0  0  0  0  0  0  0  0  0
  148.8093  138.8424  157.2919 C   0  0  0  0  0  0  0  0  0  0  0  0
  147.8227  139.7268  156.9854 N   0  0  0  0  0  0  0  0  0  0  0  0
  146.5821  139.5304  157.4419 C   0  0  0  0  0  0  0  0  0  0  0  0
  146.1180  138.5307  158.1950 N   0  0  0  0  0  0  0  0  0  0  0  0
  147.1035  137.6358  158.4928 C   0  0  0  0  0  0  0  0  0  0  0  0
  148.4641  137.7162  158.0853 C   0  0  0  0  0  0  0  0  0  0  0  0
  149.1755  136.6295  158.5770 N   0  0  0  0  0  0  0  0  0  0  0  0
  148.2834  135.9415  159.2365 C   0  0  0  0  0  0  0  0  0  0  0  0
  147.0112  136.4690  159.2311 N   0  0  0  0  0  0  0  0  0  0  0  0
  145.8319  135.9070  159.8709 C   0  0  0  0  0  0  0  0  0  0  0  0
  145.8987  135.9468  161.4161 C   0  0  2  0  0  0  0  0  0  0  0  0
  144.6769  136.4781  161.9058 O   0  0  0  0  0  0  0  0  0  0  0  0
  147.0443  136.7823  161.9682 C   0  0  0  0  0  0  0  0  0  0  0  0
  147.2406  136.1941  163.3598 C   0  0  0  0  0  0  0  0  0  0  0  0
  146.9922  134.8027  163.2050 O   0  0  0  0  0  0  0  0  0  0  0  0
  146.1881  134.5679  162.0493 C   0  0  1  0  0  0  0  0  0  0  0  0
  144.9678  133.6993  162.3950 C   0  0  0  0  0  0  0  0  0  0  0  0
  151.9620  144.8390  160.0336 H   0  0  0  0  0  0  0  0  0  0  0  0
  151.0610  145.1493  158.5492 H   0  0  0  0  0  0  0  0  0  0  0  0
  152.7436  144.5941  158.4713 H   0  0  0  0  0  0  0  0  0  0  0  0
  150.5659  143.3474  157.1217 H   0  0  0  0  0  0  0  0  0  0  0  0
  152.0900  142.4911  157.2210 H   0  0  0  0  0  0  0  0  0  0  0  0
  150.7899  140.7379  158.6860 H   0  0  0  0  0  0  0  0  0  0  0  0
  149.3627  141.5065  158.0635 H   0  0  0  0  0  0  0  0  0  0  0  0
  149.8719  140.8167  155.7780 H   0  0  0  0  0  0  0  0  0  0  0  0
  152.2720  141.3676  155.7014 H   0  0  0  0  0  0  0  0  0  0  0  0
  152.6604  140.0649  156.8063 H   0  0  0  0  0  0  0  0  0  0  0  0
  151.9090  137.5298  154.3734 H   0  0  0  0  0  0  0  0  0  0  0  0
  152.4264  137.7993  156.0289 H   0  0  0  0  0  0  0  0  0  0  0  0
  149.6414  138.3772  154.8664 H   0  0  0  0  0  0  0  0  0  0  0  0
  150.0437  137.0851  155.9847 H   0  0  0  0  0  0  0  0  0  0  0  0
  145.8570  140.2795  157.1602 H   0  0  0  0  0  0  0  0  0  0  0  0
  148.5287  135.0189  159.7424 H   0  0  0  0  0  0  0  0  0  0  0  0
  144.9545  136.4483  159.5140 H   0  0  0  0  0  0  0  0  0  0  0  0
  145.7172  134.8791  159.5240 H   0  0  0  0  0  0  0  0  0  0  0  0
  144.8269  137.3700  162.1795 H   0  0  0  0  0  0  0  0  0  0  0  0
  147.9478  136.6161  161.3803 H   0  0  0  0  0  0  0  0  0  0  0  0
  146.8436  137.8546  161.9787 H   0  0  0  0  0  0  0  0  0  0  0  0
  148.2375  136.3814  163.7590 H   0  0  0  0  0  0  0  0  0  0  0  0
  146.5115  136.6086  164.0573 H   0  0  0  0  0  0  0  0  0  0  0  0
  146.8245  134.0010  161.3685 H   0  0  0  0  0  0  0  0  0  0  0  0
  144.3489  133.5244  161.5147 H   0  0  0  0  0  0  0  0  0  0  0  0
  144.3457  134.1633  163.1608 H   0  0  0  0  0  0  0  0  0  0  0  0
  145.2830  132.7280  162.7765 H   0  0  0  0  0  0  0  0  0  0  0  0
  1  2  1  0  0  0  0
  1 28  1  0  0  0  0
  1 29  1  0  0  0  0
  1 30  1  0  0  0  0
  2  3  1  0  0  0  0
  3  4  1  0  0  0  0
  3 31  1  0  0  0  0
  3 32  1  0  0  0  0
  4  5  1  0  0  0  0
  4 33  1  0  0  0  0
  4 34  1  0  0  0  0
  5 10  1  0  0  0  0
  5  6  1  0  0  0  0
  5 35  1  0  0  0  0
  6  7  1  0  0  0  0
  6 36  1  0  0  0  0
  6 37  1  0  0  0  0
  7  8  1  0  0  0  0
  8  9  1  0  0  0  0
  8 38  1  0  0  0  0
  8 39  1  0  0  0  0
  9 10  1  0  0  0  0
  9 40  1  0  0  0  0
  9 41  1  0  0  0  0
 10 11  1  0  0  0  0
 11 16  1  0  0  0  0
 11 12  2  0  0  0  0
 12 13  1  0  0  0  0
 13 14  2  0  0  0  0
 13 42  1  0  0  0  0
 14 15  1  0  0  0  0
 15 19  1  0  0  0  0
 15 16  2  0  0  0  0
 16 17  1  0  0  0  0
 17 18  2  0  0  0  0
 18 19  1  0  0  0  0
 18 43  1  0  0  0  0
 19 20  1  0  0  0  0
 20 21  1  0  0  0  0
 20 44  1  0  0  0  0
 20 45  1  0  0  0  0
 21 26  1  0  0  0  0
 21 22  1  0  0  0  0
 21 23  1  0  0  0  0
 22 46  1  0  0  0  0
 23 24  1  0  0  0  0
 23 47  1  0  0  0  0
 23 48  1  0  0  0  0
 24 25  1  0  0  0  0
 24 49  1  0  0  0  0
 24 50  1  0  0  0  0
 25 26  1  0  0  0  0
 26 27  1  0  0  0  0
 26 51  1  0  0  0  0
 27 52  1  0  0  0  0
 27 53  1  0  0  0  0
 27 54  1  0  0  0  0
M  END
> <s_m_source_file>
AV-unprocessed.smi

> <i_m_source_file_index>
197

> <i_lp_mmshare_version>
43012

> <i_f3d_flags>
0

> <s_epik_input>
W0NIM11PW0NIMl1bQ0gyXVtDQEBIXTFbQ0gyXU9bQ0gyXVtDSDJdTjFjKG5bY0hdbjIpYyhjMjMpbltjSF1uM1tDSDJdW0NAQF00KFtPSF0pW0NIMl1bQ0gyXU9bQ0BIXTRbQ0gzXQ==

> <s_epik_cmdline>
J2VwaWtfcHl0aG9uJywgJy1waCcsICc3LjAnLCAnLXRuJywgJzgnLCAnLW1hJywgJzIwMCcsICctbWV0YWxfYmluZGluZycsICctaW1hZScsICc8aW5maWxlLm1hZT4nLCAnLW9tYWUnLCAnPG91dGZpbGUubWFlPic=

> <r_lp_tautomer_probability>
1

> <r_epik_Ionization_Penalty>
0.000106218

> <r_epik_Ionization_Penalty_Charging>
0

> <r_epik_Ionization_Penalty_Neutral>
0.000106218

> <r_epik_State_Penalty>
-0

> <r_epik_Charging_Adjusted_Penalty>
0

> <i_epik_Tot_Q>
0

> <i_epik_Tot_abs_Q>
0

> <r_epik_Metal_State_Penalty>
-0

> <b_epik_Metal_Only>
0

> <s_lp_Force_Field>
OPLS_2005

> <r_lp_Energy>
42.2665

> <b_lp_Chiralities_Consistent>
1

> <s_lp_Variant>
AV-unprocessed.smi:197-4

> <Gold.Version>
5.8.1

> <Gold.Id.Protein>
6NUR|6NUR_protein|mol2

> <Gold.PLP.Fitness>
38.8546

> <Gold.PLP.PLP>
-39.1420

> <Gold.PLP.part.hbond>
-2.0845

> <Gold.PLP.part.metal>
0.0000

> <Gold.PLP.part.buried>
-6.7561

> <Gold.PLP.part.nonpolar>
-29.6999

> <Gold.PLP.part.repulsive>
0.0881

> <Gold.PLP.ligand.clash>
0.0000

> <Gold.PLP.ligand.torsion>
1.8716

> <Gold.PLP.Chemscore.Hbond>
0.9760

> <Gold.PLP.Chemscore.CHOScore>
0.0000

> <Gold.PLP.Chemscore.Metal>
0.0000

> <Gold.Chemscore.Hbonds>
donor molecule, donor type, donor heavy atom, donor atom, acceptor molecule, acceptor atom, score
      P1  H  7989  7998       L1     7  0.75

> <Gold.PLP.Chemscore.Internal.Correction>
0.5279

> <Gold.Rescore>
     Score         DG    S(hbond)    S(metal)    S(lipo)     H(rot)  DE(clash)    DE(int)     intcor
     10.40     -12.57       0.93        0.00      95.98       2.84       0.13       2.04       ----

> <Gold.Chemscore.Fitness>
10.3952

> <Gold.Chemscore.DG>
-12.5691

> <Gold.Chemscore.ZeroCoef>
-5.4800

> <Gold.Chemscore.Hbond>
0.9337

> <Gold.Chemscore.Metal>
0.0000

> <Gold.Chemscore.Lipo>
95.9825

> <Gold.Chemscore.Internal_Hbond>
0.0000

> <Gold.Chemscore.DEClash>
0.1302

> <Gold.Chemscore.DEInternal>
2.0437

> <Gold.Chemscore.Rot>
2.8358

> <Gold.Chemscore.Internal.Correction>
   9.000000E+99

> <Gold.Chemscore.Hbonds>
donor molecule, donor type, donor heavy atom, donor atom, acceptor molecule, acceptor atom, score
      P1  H  7989  7998       L1     7  0.12

> <Gold.Chemscore.Hbond.Weighted>
-3.1187

> <Gold.Chemscore.Metal.Weighted>
-0.0000

> <Gold.Chemscore.Lipo.Weighted>
-11.2300

> <Gold.Chemscore.Internal_Hbond.Weighted>
0.0000

> <Gold.Chemscore.DEClash.Weighted>
0.1302

> <Gold.Chemscore.DEInternal.Weighted>
2.0437

> <Gold.Chemscore.Rot.Weighted>
7.2596

> <Gold.Chemscore.Internal.Correction.Weighted>
   9.000000E+99

> <Gold.Protein.RotatedTorsions>
[ 6907 6896 6895 6894 ] final   47.79 input  -60.11 | X-H torsion
[ 7974 7965 7964 7962 ] final    0.50 input  175.53 | X-H torsion
[ 8008 7997 7996 7995 ] final  -21.88 input   59.86 | X-H torsion
[ 10167 10162 10161 10158 ] final  -36.91 input  -65.29 | X-H torsion
[ 10718 10713 10712 10709 ] final  -79.99 input   66.30 | X-H torsion
[ 10763 10752 10751 10750 ] final  -29.68 input  -60.55 | X-H torsion
[ 11005 11000 10999 10996 ] final  -58.03 input  -57.11 | X-H torsion

> <Gold.Protein.ActiveResidues>
 VAL166  LYS551  ARG553  GLY616  TRP617  ASP618  TYR619  PRO620  LYS621  CYS622 
 ASP623  PHE694  ASN695  SER759  ASP760  ASP761  ALA762  ILE779  LEU786  VAL792 
 PHE793  MET794  SER795  GLU796  ALA797  LYS798  CYS799  TRP800  GLU811  SER814 

> <Gold.Protein.RotatedAtoms>
  152.2720  134.7922  160.0412 H   0  0  0  0  0  0  0  0  0  0  0  0  # atno 6907 bound_to 6896
  151.8531  133.3438  159.3688 H   0  0  0  0  0  0  0  0  0  0  0  0  # atno 6908 bound_to 6896
  150.7156  134.5207  159.5697 H   0  0  0  0  0  0  0  0  0  0  0  0  # atno 6909 bound_to 6896
  146.2435  140.1128  142.8343 H   0  0  0  0  0  0  0  0  0  0  0  0  # atno 7974 bound_to 7965
  154.4678  140.2023  156.0073 H   0  0  0  0  0  0  0  0  0  0  0  0  # atno 8008 bound_to 7997
  156.0958  140.3251  155.7846 H   0  0  0  0  0  0  0  0  0  0  0  0  # atno 8009 bound_to 7997
  155.4881  140.0544  157.2948 H   0  0  0  0  0  0  0  0  0  0  0  0  # atno 8010 bound_to 7997
  140.7131  143.3377  151.2426 H   0  0  0  0  0  0  0  0  0  0  0  0  # atno 10167 bound_to 10162
  156.0080  130.4561  150.3732 H   0  0  0  0  0  0  0  0  0  0  0  0  # atno 10718 bound_to 10713
  153.7686  135.6914  153.4911 H   0  0  0  0  0  0  0  0  0  0  0  0  # atno 10763 bound_to 10752
  153.1890  135.4478  155.0124 H   0  0  0  0  0  0  0  0  0  0  0  0  # atno 10764 bound_to 10752
  154.8126  135.3384  154.7196 H   0  0  0  0  0  0  0  0  0  0  0  0  # atno 10765 bound_to 10752
  141.1190  133.6611  156.4858 H   0  0  0  0  0  0  0  0  0  0  0  0  # atno 11005 bound_to 11000
  145.0472  140.8990  143.5017 LP  0  0  0  0  0  0  0  0  0  0  0  0  # atno 17320 bound_to 7965
  145.1220  139.2688  143.5584 LP  0  0  0  0  0  0  0  0  0  0  0  0  # atno 17321 bound_to 7965
  139.6876  143.9747  152.2842 LP  0  0  0  0  0  0  0  0  0  0  0  0  # atno 17342 bound_to 10162
  139.9397  144.6689  150.8278 LP  0  0  0  0  0  0  0  0  0  0  0  0  # atno 17343 bound_to 10162
  157.1815  131.0393  151.2746 LP  0  0  0  0  0  0  0  0  0  0  0  0  # atno 17370 bound_to 10713
  157.4141  130.7401  149.6862 LP  0  0  0  0  0  0  0  0  0  0  0  0  # atno 17371 bound_to 10713
  140.4563  134.6882  157.5064 LP  0  0  0  0  0  0  0  0  0  0  0  0  # atno 17394 bound_to 11000
  140.0132  134.6658  155.9348 LP  0  0  0  0  0  0  0  0  0  0  0  0  # atno 17395 bound_to 11000

$$$$
