AV-unprocessed.smi:1389|AV-procd|sdf|5648|dock10
  -GOLD-   22720 5263D 1   1.00000     0.00000
 Structure written by MMmdl.
 52 54  0  0  0  0  0  0  0  0  2 V2000
  149.0041  135.8806  156.7346 C   0  0  0  0  0  0  0  0  0  0  0  0
  149.7111  136.2535  155.4086 C   0  0  2  0  0  0  0  0  0  0  0  0
  150.3310  134.9876  154.7610 C   0  0  0  0  0  0  0  0  0  0  0  0
  149.3819  134.2469  153.9358 N   0  0  0  0  0  0  0  0  0  0  0  0
  149.0644  132.9561  154.1061 C   0  0  0  0  0  0  0  0  0  0  0  0
  149.5451  132.2521  154.9940 O   0  0  0  0  0  0  0  0  0  0  0  0
  148.1602  132.5566  153.1965 N   0  0  0  0  0  0  0  0  0  0  0  0
  147.5003  131.2989  153.0956 C   0  0  0  0  0  0  0  0  0  0  0  0
  147.9934  130.1410  153.7463 C   0  0  0  0  0  0  0  0  0  0  0  0
  147.3380  128.9120  153.5587 C   0  0  0  0  0  0  0  0  0  0  0  0
  146.2181  128.8781  152.7118 C   0  0  0  0  0  0  0  0  0  0  0  0
  145.7449  129.9668  152.0736 N   0  0  0  0  0  0  0  0  0  0  0  0
  146.3575  131.1626  152.2556 C   0  0  0  0  0  0  0  0  0  0  0  0
  145.8085  132.2719  151.5721 N   0  0  0  0  0  0  0  0  0  0  0  0
  144.8775  132.0732  150.4666 C   0  0  0  0  0  0  0  0  0  0  0  0
  144.2285  133.4369  150.2496 C   0  0  0  0  0  0  0  0  0  0  0  0
  144.1276  133.9794  151.6720 C   0  0  0  0  0  0  0  0  0  0  0  0
  145.3739  133.4182  152.3653 C   0  0  0  0  0  0  0  0  0  0  0  0
  150.7572  137.3167  155.5647 N   0  3  0  0  0  0  0  0  0  0  0  0
  151.8592  136.9014  156.4747 C   0  0  0  0  0  0  0  0  0  0  0  0
  152.8580  138.0493  156.6932 C   0  0  0  0  0  0  0  0  0  0  0  0
  153.3836  138.4628  155.4405 O   0  0  0  0  0  0  0  0  0  0  0  0
  152.3637  138.9575  154.5854 C   0  0  0  0  0  0  0  0  0  0  0  0
  151.3343  137.8499  154.2997 C   0  0  0  0  0  0  0  0  0  0  0  0
  148.2664  135.0913  156.5908 H   0  0  0  0  0  0  0  0  0  0  0  0
  148.4538  136.7219  157.1561 H   0  0  0  0  0  0  0  0  0  0  0  0
  149.7166  135.5280  157.4812 H   0  0  0  0  0  0  0  0  0  0  0  0
  148.9400  136.6479  154.7443 H   0  0  0  0  0  0  0  0  0  0  0  0
  151.2004  135.2248  154.1487 H   0  0  0  0  0  0  0  0  0  0  0  0
  150.6898  134.3148  155.5407 H   0  0  0  0  0  0  0  0  0  0  0  0
  148.9366  134.7523  153.1836 H   0  0  0  0  0  0  0  0  0  0  0  0
  147.8112  133.2723  152.5757 H   0  0  0  0  0  0  0  0  0  0  0  0
  148.8757  130.1675  154.3668 H   0  0  0  0  0  0  0  0  0  0  0  0
  147.6936  128.0145  154.0429 H   0  0  0  0  0  0  0  0  0  0  0  0
  145.6912  127.9518  152.5367 H   0  0  0  0  0  0  0  0  0  0  0  0
  145.3915  131.7209  149.5719 H   0  0  0  0  0  0  0  0  0  0  0  0
  144.1101  131.3449  150.7318 H   0  0  0  0  0  0  0  0  0  0  0  0
  144.8845  134.0729  149.6534 H   0  0  0  0  0  0  0  0  0  0  0  0
  143.2641  133.3730  149.7449 H   0  0  0  0  0  0  0  0  0  0  0  0
  144.0758  135.0678  151.7102 H   0  0  0  0  0  0  0  0  0  0  0  0
  143.2311  133.5833  152.1511 H   0  0  0  0  0  0  0  0  0  0  0  0
  145.1650  133.1463  153.4012 H   0  0  0  0  0  0  0  0  0  0  0  0
  146.1663  134.1670  152.3645 H   0  0  0  0  0  0  0  0  0  0  0  0
  151.4749  136.5872  157.4433 H   0  0  0  0  0  0  0  0  0  0  0  0
  152.3775  136.0403  156.0492 H   0  0  0  0  0  0  0  0  0  0  0  0
  152.3840  138.8898  157.2033 H   0  0  0  0  0  0  0  0  0  0  0  0
  153.6802  137.7159  157.3266 H   0  0  0  0  0  0  0  0  0  0  0  0
  151.8844  139.8274  155.0375 H   0  0  0  0  0  0  0  0  0  0  0  0
  152.8185  139.2954  153.6539 H   0  0  0  0  0  0  0  0  0  0  0  0
  151.8013  137.0391  153.7381 H   0  0  0  0  0  0  0  0  0  0  0  0
  150.5576  138.2822  153.6696 H   0  0  0  0  0  0  0  0  0  0  0  0
  150.2955  138.1009  156.0028 H   0  0  0  0  0  0  0  0  0  0  0  0
  1  2  1  0  0  0  0
  1 25  1  0  0  0  0
  1 26  1  0  0  0  0
  1 27  1  0  0  0  0
  2  3  1  0  0  0  0
  2 19  1  0  0  0  0
  2 28  1  0  0  0  0
  3  4  1  0  0  0  0
  3 29  1  0  0  0  0
  3 30  1  0  0  0  0
  4  5  1  0  0  0  0
  4 31  1  0  0  0  0
  5  6  2  0  0  0  0
  5  7  1  0  0  0  0
  7  8  1  0  0  0  0
  7 32  1  0  0  0  0
  8 13  1  0  0  0  0
  8  9  2  0  0  0  0
  9 10  1  0  0  0  0
  9 33  1  0  0  0  0
 10 11  2  0  0  0  0
 10 34  1  0  0  0  0
 11 12  1  0  0  0  0
 11 35  1  0  0  0  0
 12 13  2  0  0  0  0
 13 14  1  0  0  0  0
 14 18  1  0  0  0  0
 14 15  1  0  0  0  0
 15 16  1  0  0  0  0
 15 36  1  0  0  0  0
 15 37  1  0  0  0  0
 16 17  1  0  0  0  0
 16 38  1  0  0  0  0
 16 39  1  0  0  0  0
 17 18  1  0  0  0  0
 17 40  1  0  0  0  0
 17 41  1  0  0  0  0
 18 42  1  0  0  0  0
 18 43  1  0  0  0  0
 19 24  1  0  0  0  0
 19 20  1  0  0  0  0
 19 52  1  0  0  0  0
 20 21  1  0  0  0  0
 20 44  1  0  0  0  0
 20 45  1  0  0  0  0
 21 22  1  0  0  0  0
 21 46  1  0  0  0  0
 21 47  1  0  0  0  0
 22 23  1  0  0  0  0
 23 24  1  0  0  0  0
 23 48  1  0  0  0  0
 23 49  1  0  0  0  0
 24 50  1  0  0  0  0
 24 51  1  0  0  0  0
M  CHG  1  19   1
M  END
> <s_m_source_file>
AV-unprocessed.smi

> <i_m_source_file_index>
1389

> <i_lp_mmshare_version>
43012

> <i_f3d_flags>
0

> <s_epik_input>
W0NIMl0xW0NIMl1PW0NIMl1bQ0gyXU4xW0NASF0oW0NIM10pW0NIMl1bTkhdQyg9TylbTkhdYzJbY0hdW2NIXVtjSF1uYzJOM1tDSDJdW0NIMl1bQ0gyXVtDSDJdMw==

> <s_epik_cmdline>
J2VwaWtfcHl0aG9uJywgJy1waCcsICc3LjAnLCAnLXRuJywgJzgnLCAnLW1hJywgJzIwMCcsICctbWV0YWxfYmluZGluZycsICctaW1hZScsICc8aW5maWxlLm1hZT4nLCAnLW9tYWUnLCAnPG91dGZpbGUubWFlPic=

> <r_lp_tautomer_probability>
1

> <r_epik_Ionization_Penalty>
0.686

> <r_epik_Ionization_Penalty_Charging>
0.602531

> <r_epik_Ionization_Penalty_Neutral>
0.08347

> <r_epik_State_Penalty>
0.679975

> <r_epik_Charging_Adjusted_Penalty>
1.28251

> <i_epik_Tot_Q>
1

> <i_epik_Tot_abs_Q>
1

> <r_epik_Metal_State_Penalty>
0.679055

> <b_epik_Metal_Only>
0

> <s_lp_Force_Field>
OPLS_2005

> <r_lp_Energy>
48.7477

> <b_lp_Chiralities_Consistent>
1

> <s_lp_Variant>
AV-unprocessed.smi:1389-3

> <Gold.Version>
5.8.1

> <Gold.Id.Protein>
6NUR|6NUR_protein|mol2

> <Gold.PLP.Fitness>
40.9392

> <Gold.PLP.PLP>
-36.0317

> <Gold.PLP.part.hbond>
-2.0000

> <Gold.PLP.part.metal>
0.0000

> <Gold.PLP.part.buried>
-6.4015

> <Gold.PLP.part.nonpolar>
-28.0132

> <Gold.PLP.part.repulsive>
0.3268

> <Gold.PLP.ligand.clash>
0.0000

> <Gold.PLP.ligand.torsion>
0.6457

> <Gold.PLP.Chemscore.Hbond>
1.9420

> <Gold.PLP.Chemscore.CHOScore>
0.0000

> <Gold.PLP.Chemscore.Metal>
0.0000

> <Gold.Chemscore.Hbonds>
donor molecule, donor type, donor heavy atom, donor atom, acceptor molecule, acceptor atom, score
      L1  H     4    31       P1  7948  0.79
      P1  H  7997  8008       L1    22  0.69

> <Gold.PLP.Chemscore.Internal.Correction>
0.3730

> <Gold.Rescore>
     Score         DG    S(hbond)    S(metal)    S(lipo)     H(rot)  DE(clash)    DE(int)     intcor
     13.68     -16.37       1.68        0.00      80.68       1.63       0.09       2.60       ----

> <Gold.Chemscore.Fitness>
13.6806

> <Gold.Chemscore.DG>
-16.3712

> <Gold.Chemscore.ZeroCoef>
-5.4800

> <Gold.Chemscore.Hbond>
1.6844

> <Gold.Chemscore.Metal>
0.0000

> <Gold.Chemscore.Lipo>
80.6821

> <Gold.Chemscore.Internal_Hbond>
0.0000

> <Gold.Chemscore.DEClash>
0.0900

> <Gold.Chemscore.DEInternal>
2.6007

> <Gold.Chemscore.Rot>
1.6307

> <Gold.Chemscore.Internal.Correction>
   9.000000E+99

> <Gold.Chemscore.Hbonds>
donor molecule, donor type, donor heavy atom, donor atom, acceptor molecule, acceptor atom, score
      L1  H     4    31       P1  7948  0.11
      P1  H  7997  8008       L1    22  0.06

> <Gold.Chemscore.Hbond.Weighted>
-5.6260

> <Gold.Chemscore.Metal.Weighted>
-0.0000

> <Gold.Chemscore.Lipo.Weighted>
-9.4398

> <Gold.Chemscore.Internal_Hbond.Weighted>
0.0000

> <Gold.Chemscore.DEClash.Weighted>
0.0900

> <Gold.Chemscore.DEInternal.Weighted>
2.6007

> <Gold.Chemscore.Rot.Weighted>
4.1746

> <Gold.Chemscore.Internal.Correction.Weighted>
   9.000000E+99

> <Gold.Protein.RotatedTorsions>
[ 6907 6896 6895 6894 ] final   31.12 input  -60.11 | X-H torsion
[ 7974 7965 7964 7962 ] final  -32.50 input  175.53 | X-H torsion
[ 8008 7997 7996 7995 ] final  -31.06 input   59.86 | X-H torsion
[ 10167 10162 10161 10158 ] final  -91.10 input  -65.29 | X-H torsion
[ 10718 10713 10712 10709 ] final   56.39 input   66.30 | X-H torsion
[ 10763 10752 10751 10750 ] final -154.96 input  -60.55 | X-H torsion
[ 11005 11000 10999 10996 ] final  -49.05 input  -57.11 | X-H torsion

> <Gold.Protein.ActiveResidues>
 VAL166  LYS551  ARG553  GLY616  TRP617  ASP618  TYR619  PRO620  LYS621  CYS622 
 ASP623  PHE694  ASN695  SER759  ASP760  ASP761  ALA762  ILE779  LEU786  VAL792 
 PHE793  MET794  SER795  GLU796  ALA797  LYS798  CYS799  TRP800  GLU811  SER814 

> <Gold.Protein.RotatedAtoms>
  152.0558  134.9625  160.0574 H   0  0  0  0  0  0  0  0  0  0  0  0  # atno 6907 bound_to 6896
  152.1008  133.4244  159.4594 H   0  0  0  0  0  0  0  0  0  0  0  0  # atno 6908 bound_to 6896
  150.6839  134.2681  159.4620 H   0  0  0  0  0  0  0  0  0  0  0  0  # atno 6909 bound_to 6896
  146.0985  140.5800  142.8832 H   0  0  0  0  0  0  0  0  0  0  0  0  # atno 7974 bound_to 7965
  154.4227  140.1774  156.1506 H   0  0  0  0  0  0  0  0  0  0  0  0  # atno 8008 bound_to 7997
  155.9918  140.3368  155.6736 H   0  0  0  0  0  0  0  0  0  0  0  0  # atno 8009 bound_to 7997
  155.6362  140.0675  157.2624 H   0  0  0  0  0  0  0  0  0  0  0  0  # atno 8010 bound_to 7997
  140.3483  143.2905  151.9756 H   0  0  0  0  0  0  0  0  0  0  0  0  # atno 10167 bound_to 10162
  157.5426  130.8708  149.8845 H   0  0  0  0  0  0  0  0  0  0  0  0  # atno 10718 bound_to 10713
  154.7822  135.3178  154.7965 H   0  0  0  0  0  0  0  0  0  0  0  0  # atno 10763 bound_to 10752
  153.8674  135.6847  153.4781 H   0  0  0  0  0  0  0  0  0  0  0  0  # atno 10764 bound_to 10752
  153.1462  135.4718  154.9507 H   0  0  0  0  0  0  0  0  0  0  0  0  # atno 10765 bound_to 10752
  141.0737  133.6672  156.3529 H   0  0  0  0  0  0  0  0  0  0  0  0  # atno 11005 bound_to 11000
  144.7414  140.4951  143.6867 LP  0  0  0  0  0  0  0  0  0  0  0  0  # atno 17320 bound_to 7965
  145.5901  139.1495  143.3187 LP  0  0  0  0  0  0  0  0  0  0  0  0  # atno 17321 bound_to 7965
  139.4830  144.6098  151.7454 LP  0  0  0  0  0  0  0  0  0  0  0  0  # atno 17342 bound_to 10162
  140.5244  144.0829  150.6032 LP  0  0  0  0  0  0  0  0  0  0  0  0  # atno 17343 bound_to 10162
  156.0509  130.3718  150.1203 LP  0  0  0  0  0  0  0  0  0  0  0  0  # atno 17370 bound_to 10713
  156.9381  130.9735  151.3521 LP  0  0  0  0  0  0  0  0  0  0  0  0  # atno 17371 bound_to 10713
  140.5620  134.5925  157.5436 LP  0  0  0  0  0  0  0  0  0  0  0  0  # atno 17394 bound_to 11000
  139.9549  134.7552  156.0364 LP  0  0  0  0  0  0  0  0  0  0  0  0  # atno 17395 bound_to 11000

$$$$
