AV-unprocessed.smi:1047|AV-procd|sdf|4593|dock7
  -GOLD-   22720 3 73D 1   1.00000     0.00000
 Structure written by MMmdl.
 55 57  0  0  0  0  0  0  0  0  1 V2000
  147.4142  135.0374  163.0546 C   0  0  0  0  0  0  0  0  0  0  0  0
  146.4523  135.4678  161.9381 C   0  0  0  0  0  0  0  0  0  0  0  0
  147.0207  135.4434  160.5916 N   0  0  0  0  0  0  0  0  0  0  0  0
  147.5976  134.1379  160.2916 C   0  0  0  0  0  0  0  0  0  0  0  0
  148.2081  134.0904  158.8813 C   0  0  0  0  0  0  0  0  0  0  0  0
  149.1808  135.1218  158.7522 O   0  0  0  0  0  0  0  0  0  0  0  0
  148.6447  136.4242  158.9758 C   0  0  2  0  0  0  0  0  0  0  0  0
  149.7782  137.4454  158.8039 C   0  0  0  0  0  0  0  0  0  0  0  0
  151.0434  136.9113  159.2971 N   0  0  0  0  0  0  0  0  0  0  0  0
  152.1223  137.8935  159.3174 C   0  0  0  0  0  0  0  0  0  0  0  0
  153.4951  137.2136  159.1844 C   0  0  2  0  0  0  0  0  0  0  0  0
  153.6484  136.2981  160.2526 O   0  0  0  0  0  0  0  0  0  0  0  0
  154.6462  138.2367  159.2324 C   0  0  0  0  0  0  0  0  0  0  0  0
  154.5445  139.1327  160.3707 N   0  0  0  0  0  0  0  0  0  0  0  0
  155.0861  138.9628  161.5924 C   0  0  0  0  0  0  0  0  0  0  0  0
  154.8708  139.9180  162.4923 N   0  0  0  0  0  0  0  0  0  0  0  0
  154.0989  140.8121  161.7700 C   0  0  0  0  0  0  0  0  0  0  0  0
  153.5360  142.0509  162.1475 C   0  0  0  0  0  0  0  0  0  0  0  0
  152.7693  142.8075  161.2326 C   0  0  0  0  0  0  0  0  0  0  0  0
  152.1850  144.1360  161.6801 C   0  0  0  0  0  0  0  0  0  0  0  0
  152.5541  142.3253  159.9163 C   0  0  0  0  0  0  0  0  0  0  0  0
  151.7284  143.1179  158.9184 C   0  0  0  0  0  0  0  0  0  0  0  0
  153.1121  141.0911  159.5219 C   0  0  0  0  0  0  0  0  0  0  0  0
  153.8743  140.3486  160.4408 C   0  0  0  0  0  0  0  0  0  0  0  0
  148.0432  136.4693  160.3950 C   0  0  0  0  0  0  0  0  0  0  0  0
  146.9529  135.1805  164.0319 H   0  0  0  0  0  0  0  0  0  0  0  0
  148.3311  135.6270  163.0325 H   0  0  0  0  0  0  0  0  0  0  0  0
  147.6859  133.9850  162.9772 H   0  0  0  0  0  0  0  0  0  0  0  0
  145.5535  134.8504  161.9734 H   0  0  0  0  0  0  0  0  0  0  0  0
  146.1260  136.4840  162.1636 H   0  0  0  0  0  0  0  0  0  0  0  0
  148.3681  133.8966  161.0255 H   0  0  0  0  0  0  0  0  0  0  0  0
  146.8321  133.3658  160.3783 H   0  0  0  0  0  0  0  0  0  0  0  0
  148.6851  133.1260  158.7062 H   0  0  0  0  0  0  0  0  0  0  0  0
  147.4358  134.2099  158.1199 H   0  0  0  0  0  0  0  0  0  0  0  0
  147.8562  136.6262  158.2477 H   0  0  0  0  0  0  0  0  0  0  0  0
  149.8830  137.6977  157.7481 H   0  0  0  0  0  0  0  0  0  0  0  0
  149.5228  138.3702  159.3231 H   0  0  0  0  0  0  0  0  0  0  0  0
  150.9117  136.5314  160.2297 H   0  0  0  0  0  0  0  0  0  0  0  0
  151.9819  138.5862  158.4867 H   0  0  0  0  0  0  0  0  0  0  0  0
  152.0844  138.4930  160.2283 H   0  0  0  0  0  0  0  0  0  0  0  0
  153.5488  136.6660  158.2419 H   0  0  0  0  0  0  0  0  0  0  0  0
  154.5031  135.9007  160.1877 H   0  0  0  0  0  0  0  0  0  0  0  0
  155.6056  137.7215  159.2920 H   0  0  0  0  0  0  0  0  0  0  0  0
  154.6689  138.8325  158.3186 H   0  0  0  0  0  0  0  0  0  0  0  0
  155.6755  138.0901  161.8335 H   0  0  0  0  0  0  0  0  0  0  0  0
  153.6994  142.4169  163.1505 H   0  0  0  0  0  0  0  0  0  0  0  0
  151.0965  144.1113  161.6270 H   0  0  0  0  0  0  0  0  0  0  0  0
  152.5455  144.9455  161.0450 H   0  0  0  0  0  0  0  0  0  0  0  0
  152.4648  144.3684  162.7080 H   0  0  0  0  0  0  0  0  0  0  0  0
  151.6419  142.5917  157.9673 H   0  0  0  0  0  0  0  0  0  0  0  0
  152.1886  144.0871  158.7254 H   0  0  0  0  0  0  0  0  0  0  0  0
  150.7210  143.2825  159.3018 H   0  0  0  0  0  0  0  0  0  0  0  0
  152.9595  140.7132  158.5218 H   0  0  0  0  0  0  0  0  0  0  0  0
  147.6185  137.4589  160.5609 H   0  0  0  0  0  0  0  0  0  0  0  0
  148.8388  136.3433  161.1312 H   0  0  0  0  0  0  0  0  0  0  0  0
  1  2  1  0  0  0  0
  1 26  1  0  0  0  0
  1 27  1  0  0  0  0
  1 28  1  0  0  0  0
  2  3  1  0  0  0  0
  2 29  1  0  0  0  0
  2 30  1  0  0  0  0
  3 25  1  0  0  0  0
  3  4  1  0  0  0  0
  4  5  1  0  0  0  0
  4 31  1  0  0  0  0
  4 32  1  0  0  0  0
  5  6  1  0  0  0  0
  5 33  1  0  0  0  0
  5 34  1  0  0  0  0
  6  7  1  0  0  0  0
  7  8  1  0  0  0  0
  7 25  1  0  0  0  0
  7 35  1  0  0  0  0
  8  9  1  0  0  0  0
  8 36  1  0  0  0  0
  8 37  1  0  0  0  0
  9 10  1  0  0  0  0
  9 38  1  0  0  0  0
 10 11  1  0  0  0  0
 10 39  1  0  0  0  0
 10 40  1  0  0  0  0
 11 12  1  0  0  0  0
 11 13  1  0  0  0  0
 11 41  1  0  0  0  0
 12 42  1  0  0  0  0
 13 14  1  0  0  0  0
 13 43  1  0  0  0  0
 13 44  1  0  0  0  0
 14 24  1  0  0  0  0
 14 15  1  0  0  0  0
 15 16  2  0  0  0  0
 15 45  1  0  0  0  0
 16 17  1  0  0  0  0
 17 24  2  0  0  0  0
 17 18  1  0  0  0  0
 18 19  2  0  0  0  0
 18 46  1  0  0  0  0
 19 20  1  0  0  0  0
 19 21  1  0  0  0  0
 20 47  1  0  0  0  0
 20 48  1  0  0  0  0
 20 49  1  0  0  0  0
 21 22  1  0  0  0  0
 21 23  2  0  0  0  0
 22 50  1  0  0  0  0
 22 51  1  0  0  0  0
 22 52  1  0  0  0  0
 23 24  1  0  0  0  0
 23 53  1  0  0  0  0
 25 54  1  0  0  0  0
 25 55  1  0  0  0  0
M  END
> <s_m_source_file>
AV-unprocessed.smi

> <i_m_source_file_index>
1047

> <i_lp_mmshare_version>
43012

> <i_f3d_flags>
0

> <s_epik_input>
W0NIM11bQ0gyXU4xW0NIMl1bQ0gyXU9bQ0BIXShbQ0gyXTEpW0NIMl1bTkhdW0NIMl1bQ0BIXShbT0hdKVtDSDJdbihbY0hdbjIpYyhjMjMpW2NIXWMoW0NIM10pYyhbY0hdMylbQ0gzXQ==

> <s_epik_cmdline>
J2VwaWtfcHl0aG9uJywgJy1waCcsICc3LjAnLCAnLXRuJywgJzgnLCAnLW1hJywgJzIwMCcsICctbWV0YWxfYmluZGluZycsICctaW1hZScsICc8aW5maWxlLm1hZT4nLCAnLW9tYWUnLCAnPG91dGZpbGUubWFlPic=

> <r_epik_Ionization_Penalty>
2.74124

> <r_epik_Ionization_Penalty_Charging>
0

> <r_epik_Ionization_Penalty_Neutral>
2.74124

> <r_epik_State_Penalty>
2.37482

> <r_epik_Charging_Adjusted_Penalty>
2.37482

> <i_epik_Tot_Q>
0

> <i_epik_Tot_abs_Q>
0

> <r_epik_Metal_State_Penalty>
2.25944

> <b_epik_Metal_Only>
0

> <s_lp_Force_Field>
OPLS_2005

> <r_lp_Energy>
33.9666

> <b_lp_Chiralities_Consistent>
1

> <s_lp_Variant>
AV-unprocessed.smi:1047-34

> <Gold.Version>
5.8.1

> <Gold.Id.Protein>
6NUR|6NUR_protein|mol2

> <Gold.PLP.Fitness>
55.3443

> <Gold.PLP.PLP>
-51.0236

> <Gold.PLP.part.hbond>
-2.9490

> <Gold.PLP.part.metal>
0.0000

> <Gold.PLP.part.buried>
-6.6514

> <Gold.PLP.part.nonpolar>
-41.7237

> <Gold.PLP.part.repulsive>
0.0000

> <Gold.PLP.ligand.clash>
0.0000

> <Gold.PLP.ligand.torsion>
0.8780

> <Gold.PLP.Chemscore.Hbond>
1.9913

> <Gold.PLP.Chemscore.CHOScore>
0.0000

> <Gold.PLP.Chemscore.Metal>
0.0000

> <Gold.Chemscore.Hbonds>
donor molecule, donor type, donor heavy atom, donor atom, acceptor molecule, acceptor atom, score
      P1  H  6896  6907       L1     6  1.00
      P1  H  6896  6908       L1    12  1.00

> <Gold.PLP.Chemscore.Internal.Correction>
0.1030

> <Gold.Rescore>
     Score         DG    S(hbond)    S(metal)    S(lipo)     H(rot)  DE(clash)    DE(int)     intcor
     19.95     -20.88       1.69        0.00     138.56       2.52       0.07       0.87       ----

> <Gold.Chemscore.Fitness>
19.9494

> <Gold.Chemscore.DG>
-20.8847

> <Gold.Chemscore.ZeroCoef>
-5.4800

> <Gold.Chemscore.Hbond>
1.6928

> <Gold.Chemscore.Metal>
0.0000

> <Gold.Chemscore.Lipo>
138.5583

> <Gold.Chemscore.Internal_Hbond>
0.0000

> <Gold.Chemscore.DEClash>
0.0679

> <Gold.Chemscore.DEInternal>
0.8674

> <Gold.Chemscore.Rot>
2.5237

> <Gold.Chemscore.Internal.Correction>
   9.000000E+99

> <Gold.Chemscore.Hbonds>
donor molecule, donor type, donor heavy atom, donor atom, acceptor molecule, acceptor atom, score
      P1  H  6896  6907       L1     6  0.50
      P1  H  6896  6908       L1    12  0.44

> <Gold.Chemscore.Hbond.Weighted>
-5.6541

> <Gold.Chemscore.Metal.Weighted>
-0.0000

> <Gold.Chemscore.Lipo.Weighted>
-16.2113

> <Gold.Chemscore.Internal_Hbond.Weighted>
0.0000

> <Gold.Chemscore.DEClash.Weighted>
0.0679

> <Gold.Chemscore.DEInternal.Weighted>
0.8674

> <Gold.Chemscore.Rot.Weighted>
6.4607

> <Gold.Chemscore.Internal.Correction.Weighted>
   9.000000E+99

> <Gold.Protein.RotatedTorsions>
[ 6907 6896 6895 6894 ] final  -77.17 input  -60.11 | X-H torsion
[ 7974 7965 7964 7962 ] final -147.20 input  175.53 | X-H torsion
[ 8008 7997 7996 7995 ] final  175.02 input   59.86 | X-H torsion
[ 10167 10162 10161 10158 ] final -123.63 input  -65.29 | X-H torsion
[ 10718 10713 10712 10709 ] final -133.96 input   66.30 | X-H torsion
[ 10763 10752 10751 10750 ] final -172.87 input  -60.55 | X-H torsion
[ 11005 11000 10999 10996 ] final   78.27 input  -57.11 | X-H torsion

> <Gold.Protein.ActiveResidues>
 VAL166  LYS551  ARG553  GLY616  TRP617  ASP618  TYR619  PRO620  LYS621  CYS622 
 ASP623  PHE694  ASN695  SER759  ASP760  ASP761  ALA762  ILE779  LEU786  VAL792 
 PHE793  MET794  SER795  GLU796  ALA797  LYS798  CYS799  TRP800  GLU811  SER814 

> <Gold.Protein.RotatedAtoms>
  150.7006  134.4462  159.5314 H   0  0  0  0  0  0  0  0  0  0  0  0  # atno 6907 bound_to 6896
  152.2163  134.8452  160.0500 H   0  0  0  0  0  0  0  0  0  0  0  0  # atno 6908 bound_to 6896
  151.9319  133.3578  159.3971 H   0  0  0  0  0  0  0  0  0  0  0  0  # atno 6909 bound_to 6896
  144.8109  140.5357  143.5643 H   0  0  0  0  0  0  0  0  0  0  0  0  # atno 7974 bound_to 7965
  156.0914  140.1419  156.9587 H   0  0  0  0  0  0  0  0  0  0  0  0  # atno 8008 bound_to 7997
  154.4644  140.0931  156.7028 H   0  0  0  0  0  0  0  0  0  0  0  0  # atno 8009 bound_to 7997
  155.4913  140.3448  155.4357 H   0  0  0  0  0  0  0  0  0  0  0  0  # atno 8010 bound_to 7997
  140.0015  143.5536  152.2301 H   0  0  0  0  0  0  0  0  0  0  0  0  # atno 10167 bound_to 10162
  156.2504  130.7149  151.1046 H   0  0  0  0  0  0  0  0  0  0  0  0  # atno 10718 bound_to 10713
  154.6144  135.2868  155.0396 H   0  0  0  0  0  0  0  0  0  0  0  0  # atno 10763 bound_to 10752
  154.1614  135.6487  153.4991 H   0  0  0  0  0  0  0  0  0  0  0  0  # atno 10764 bound_to 10752
  153.0208  135.5379  154.6909 H   0  0  0  0  0  0  0  0  0  0  0  0  # atno 10765 bound_to 10752
  139.9219  134.7750  156.1628 H   0  0  0  0  0  0  0  0  0  0  0  0  # atno 11005 bound_to 11000
  145.5327  139.1475  143.3490 LP  0  0  0  0  0  0  0  0  0  0  0  0  # atno 17320 bound_to 7965
  146.2407  140.5467  142.8935 LP  0  0  0  0  0  0  0  0  0  0  0  0  # atno 17321 bound_to 7965
  139.6269  144.7638  151.2620 LP  0  0  0  0  0  0  0  0  0  0  0  0  # atno 17342 bound_to 10162
  140.7417  143.6549  150.8216 LP  0  0  0  0  0  0  0  0  0  0  0  0  # atno 17343 bound_to 10162
  157.7212  131.0680  150.6128 LP  0  0  0  0  0  0  0  0  0  0  0  0  # atno 17370 bound_to 10713
  156.6207  130.4405  149.5823 LP  0  0  0  0  0  0  0  0  0  0  0  0  # atno 17371 bound_to 10713
  141.0747  133.6781  156.2212 LP  0  0  0  0  0  0  0  0  0  0  0  0  # atno 17394 bound_to 11000
  140.6448  134.5128  157.5572 LP  0  0  0  0  0  0  0  0  0  0  0  0  # atno 17395 bound_to 11000

$$$$
