AV-unprocessed.smi:2448|AV-procd|sdf|9655|dock2
  -GOLD-   2272013293D 1   1.00000     0.00000
 Structure written by MMmdl.
 38 39  0  0  0  0  0  0  0  0  2 V2000
  148.5917  138.8932  152.8187 O   0  0  0  0  0  0  0  0  0  0  0  0
  147.2321  139.1887  153.0922 C   0  0  1  0  0  0  0  0  0  0  0  0
  146.3502  138.1507  152.3695 C   0  0  0  0  0  0  0  0  0  0  0  0
  145.0402  137.9722  153.0354 N   0  3  0  0  0  0  0  0  0  0  0  0
  144.4731  136.6047  152.9595 C   0  0  2  0  0  0  0  0  0  0  0  0
  144.4666  136.0868  151.5030 C   0  0  0  0  0  0  0  0  0  0  0  0
  144.7789  134.6065  151.3818 C   0  0  0  0  0  0  0  0  0  0  0  0
  143.7470  133.6651  151.1853 C   0  0  0  0  0  0  0  0  0  0  0  0
  144.0944  132.3056  151.0534 C   0  0  0  0  0  0  0  0  0  0  0  0
  145.3671  131.8580  151.1061 N   0  0  0  0  0  0  0  0  0  0  0  0
  146.3493  132.7637  151.3010 C   0  0  0  0  0  0  0  0  0  0  0  0
  146.1099  134.1455  151.4433 C   0  0  0  0  0  0  0  0  0  0  0  0
  143.0577  136.5972  153.5685 C   0  0  0  0  0  0  0  0  0  0  0  0
  142.4936  135.4044  153.3770 F   0  0  0  0  0  0  0  0  0  0  0  0
  143.1086  136.8432  154.8781 F   0  0  0  0  0  0  0  0  0  0  0  0
  142.2967  137.5204  152.9813 F   0  0  0  0  0  0  0  0  0  0  0  0
  147.0443  139.1319  154.6173 C   0  0  0  0  0  0  0  0  0  0  0  0
  147.6958  140.3819  155.2173 C   0  0  0  0  0  0  0  0  0  0  0  0
  147.4786  141.7325  154.0313 S   0  0  0  0  0  0  0  0  0  0  0  0
  146.9254  140.6433  152.6926 C   0  0  0  0  0  0  0  0  0  0  0  0
  148.6461  138.0441  152.4083 H   0  0  0  0  0  0  0  0  0  0  0  0
  146.2045  138.4546  151.3329 H   0  0  0  0  0  0  0  0  0  0  0  0
  146.8581  137.1856  152.3416 H   0  0  0  0  0  0  0  0  0  0  0  0
  145.1638  138.2019  154.0114 H   0  0  0  0  0  0  0  0  0  0  0  0
  145.0855  135.9352  153.5666 H   0  0  0  0  0  0  0  0  0  0  0  0
  143.4882  136.2582  151.0531 H   0  0  0  0  0  0  0  0  0  0  0  0
  145.1773  136.6533  150.8994 H   0  0  0  0  0  0  0  0  0  0  0  0
  142.7127  133.9717  151.1299 H   0  0  0  0  0  0  0  0  0  0  0  0
  143.3298  131.5588  150.8974 H   0  0  0  0  0  0  0  0  0  0  0  0
  147.3569  132.3768  151.3401 H   0  0  0  0  0  0  0  0  0  0  0  0
  146.9313  134.8313  151.5923 H   0  0  0  0  0  0  0  0  0  0  0  0
  145.9790  139.1480  154.8517 H   0  0  0  0  0  0  0  0  0  0  0  0
  147.4495  138.2172  155.0528 H   0  0  0  0  0  0  0  0  0  0  0  0
  147.2723  140.6402  156.1881 H   0  0  0  0  0  0  0  0  0  0  0  0
  148.7652  140.2188  155.3552 H   0  0  0  0  0  0  0  0  0  0  0  0
  147.3832  140.9270  151.7443 H   0  0  0  0  0  0  0  0  0  0  0  0
  145.8487  140.7836  152.5882 H   0  0  0  0  0  0  0  0  0  0  0  0
  144.3735  138.6174  152.6364 H   0  0  0  0  0  0  0  0  0  0  0  0
  1  2  1  0  0  0  0
  1 21  1  0  0  0  0
  2 20  1  0  0  0  0
  2  3  1  0  0  0  0
  2 17  1  0  0  0  0
  3  4  1  0  0  0  0
  3 22  1  0  0  0  0
  3 23  1  0  0  0  0
  4  5  1  0  0  0  0
  4 24  1  0  0  0  0
  4 38  1  0  0  0  0
  5  6  1  0  0  0  0
  5 13  1  0  0  0  0
  5 25  1  0  0  0  0
  6  7  1  0  0  0  0
  6 26  1  0  0  0  0
  6 27  1  0  0  0  0
  7 12  1  0  0  0  0
  7  8  2  0  0  0  0
  8  9  1  0  0  0  0
  8 28  1  0  0  0  0
  9 10  2  0  0  0  0
  9 29  1  0  0  0  0
 10 11  1  0  0  0  0
 11 12  2  0  0  0  0
 11 30  1  0  0  0  0
 12 31  1  0  0  0  0
 13 14  1  0  0  0  0
 13 15  1  0  0  0  0
 13 16  1  0  0  0  0
 17 18  1  0  0  0  0
 17 32  1  0  0  0  0
 17 33  1  0  0  0  0
 18 19  1  0  0  0  0
 18 34  1  0  0  0  0
 18 35  1  0  0  0  0
 19 20  1  0  0  0  0
 20 36  1  0  0  0  0
 20 37  1  0  0  0  0
M  CHG  1   4   1
M  END
> <s_m_source_file>
AV-unprocessed.smi

> <i_m_source_file_index>
2448

> <i_lp_mmshare_version>
43012

> <i_f3d_flags>
0

> <s_epik_input>
W0NIMl0xU1tDSDJdW0NIMl1bQ0BAXTEoW09IXSlbQ0gyXVtOSF1bQ0BASF0oQyhGKShGKUYpW0NIMl1jMltjSF1bY0hdbltjSF1bY0hdMg==

> <s_epik_cmdline>
J2VwaWtfcHl0aG9uJywgJy1waCcsICc3LjAnLCAnLXRuJywgJzgnLCAnLW1hJywgJzIwMCcsICctbWV0YWxfYmluZGluZycsICctaW1hZScsICc8aW5maWxlLm1hZT4nLCAnLW9tYWUnLCAnPG91dGZpbGUubWFlPic=

> <r_epik_Ionization_Penalty>
1.19945

> <r_epik_Ionization_Penalty_Charging>
1.19892

> <r_epik_Ionization_Penalty_Neutral>
0.000532129

> <r_epik_State_Penalty>
0.752927

> <r_epik_Charging_Adjusted_Penalty>
1.95185

> <i_epik_Tot_Q>
1

> <i_epik_Tot_abs_Q>
1

> <r_epik_Metal_State_Penalty>
0.804507

> <b_epik_Metal_Only>
0

> <s_lp_Force_Field>
OPLS_2005

> <r_lp_Energy>
24.3965

> <b_lp_Chiralities_Consistent>
1

> <s_lp_Variant>
AV-unprocessed.smi:2448-5

> <Gold.Version>
5.8.1

> <Gold.Id.Protein>
6NUR|6NUR_protein|mol2

> <Gold.PLP.Fitness>
44.6389

> <Gold.PLP.PLP>
-35.0289

> <Gold.PLP.part.hbond>
-2.4182

> <Gold.PLP.part.metal>
0.0000

> <Gold.PLP.part.buried>
-3.8270

> <Gold.PLP.part.nonpolar>
-27.8917

> <Gold.PLP.part.repulsive>
0.1115

> <Gold.PLP.ligand.clash>
0.0000

> <Gold.PLP.ligand.torsion>
1.5027

> <Gold.PLP.Chemscore.Hbond>
3.0000

> <Gold.PLP.Chemscore.CHOScore>
1.0000

> <Gold.PLP.Chemscore.Metal>
0.0000

> <Gold.Chemscore.Hbonds>
donor molecule, donor type, donor heavy atom, donor atom, acceptor molecule, acceptor atom, score
      L1  H     1    21       P1  7948  1.00
      L1  H     4    38       P1 10175  2.00
      L1  C    11    30       P1 10747  1.00

> <Gold.PLP.Chemscore.Internal.Correction>
0.6153

> <Gold.Rescore>
     Score         DG    S(hbond)    S(metal)    S(lipo)     H(rot)  DE(clash)    DE(int)     intcor
     13.34     -14.90       1.92        0.00      78.01       2.39       0.43       1.14       ----

> <Gold.Chemscore.Fitness>
13.3386

> <Gold.Chemscore.DG>
-14.9003

> <Gold.Chemscore.ZeroCoef>
-5.4800

> <Gold.Chemscore.Hbond>
1.9170

> <Gold.Chemscore.Metal>
0.0000

> <Gold.Chemscore.Lipo>
78.0090

> <Gold.Chemscore.Internal_Hbond>
0.0000

> <Gold.Chemscore.DEClash>
0.4256

> <Gold.Chemscore.DEInternal>
1.1361

> <Gold.Chemscore.Rot>
2.3866

> <Gold.Chemscore.Internal.Correction>
   9.000000E+99

> <Gold.Chemscore.Hbonds>
donor molecule, donor type, donor heavy atom, donor atom, acceptor molecule, acceptor atom, score
      L1  H     1    21       P1  7948  1.00
      L1  H     4    38       P1 10175  0.94

> <Gold.Chemscore.Hbond.Weighted>
-6.4029

> <Gold.Chemscore.Metal.Weighted>
-0.0000

> <Gold.Chemscore.Lipo.Weighted>
-9.1270

> <Gold.Chemscore.Internal_Hbond.Weighted>
0.0000

> <Gold.Chemscore.DEClash.Weighted>
0.4256

> <Gold.Chemscore.DEInternal.Weighted>
1.1361

> <Gold.Chemscore.Rot.Weighted>
6.1096

> <Gold.Chemscore.Internal.Correction.Weighted>
   9.000000E+99

> <Gold.Protein.RotatedTorsions>
[ 6907 6896 6895 6894 ] final   40.36 input  -60.11 | X-H torsion
[ 7974 7965 7964 7962 ] final  -85.89 input  175.53 | X-H torsion
[ 8008 7997 7996 7995 ] final -146.80 input   59.86 | X-H torsion
[ 10167 10162 10161 10158 ] final -162.60 input  -65.29 | X-H torsion
[ 10718 10713 10712 10709 ] final -174.48 input   66.30 | X-H torsion
[ 10763 10752 10751 10750 ] final  -70.28 input  -60.55 | X-H torsion
[ 11005 11000 10999 10996 ] final -101.60 input  -57.11 | X-H torsion

> <Gold.Protein.ActiveResidues>
 VAL166  LYS551  ARG553  GLY616  TRP617  ASP618  TYR619  PRO620  LYS621  CYS622 
 ASP623  PHE694  ASN695  SER759  ASP760  ASP761  ALA762  ILE779  LEU786  VAL792 
 PHE793  MET794  SER795  GLU796  ALA797  LYS798  CYS799  TRP800  GLU811  SER814 

> <Gold.Protein.RotatedAtoms>
  152.1814  134.8750  160.0525 H   0  0  0  0  0  0  0  0  0  0  0  0  # atno 6907 bound_to 6896
  151.9673  133.3709  159.4066 H   0  0  0  0  0  0  0  0  0  0  0  0  # atno 6908 bound_to 6896
  150.6918  134.4100  159.5201 H   0  0  0  0  0  0  0  0  0  0  0  0  # atno 6909 bound_to 6896
  145.4871  140.9554  143.1832 H   0  0  0  0  0  0  0  0  0  0  0  0  # atno 7974 bound_to 7965
  155.5653  140.0629  157.2819 H   0  0  0  0  0  0  0  0  0  0  0  0  # atno 8008 bound_to 7997
  154.4377  140.1878  156.0869 H   0  0  0  0  0  0  0  0  0  0  0  0  # atno 8009 bound_to 7997
  156.0417  140.3295  155.7254 H   0  0  0  0  0  0  0  0  0  0  0  0  # atno 8010 bound_to 7997
  139.6380  144.0312  152.2070 H   0  0  0  0  0  0  0  0  0  0  0  0  # atno 10167 bound_to 10162
  156.7857  130.9500  151.3120 H   0  0  0  0  0  0  0  0  0  0  0  0  # atno 10718 bound_to 10713
  154.4154  135.5999  153.5978 H   0  0  0  0  0  0  0  0  0  0  0  0  # atno 10763 bound_to 10752
  152.9792  135.5939  154.4019 H   0  0  0  0  0  0  0  0  0  0  0  0  # atno 10764 bound_to 10752
  154.3837  135.2841  155.2174 H   0  0  0  0  0  0  0  0  0  0  0  0  # atno 10765 bound_to 10752
  141.1224  133.8491  157.1252 H   0  0  0  0  0  0  0  0  0  0  0  0  # atno 11005 bound_to 11000
  144.7855  139.6436  143.7136 LP  0  0  0  0  0  0  0  0  0  0  0  0  # atno 17320 bound_to 7965
  146.2306  139.5806  142.9558 LP  0  0  0  0  0  0  0  0  0  0  0  0  # atno 17321 bound_to 7965
  139.9995  144.6304  150.7743 LP  0  0  0  0  0  0  0  0  0  0  0  0  # atno 17342 bound_to 10162
  140.7476  143.2909  151.3334 LP  0  0  0  0  0  0  0  0  0  0  0  0  # atno 17343 bound_to 10162
  157.6625  130.8978  149.9860 LP  0  0  0  0  0  0  0  0  0  0  0  0  # atno 17370 bound_to 10713
  156.1190  130.3646  149.9919 LP  0  0  0  0  0  0  0  0  0  0  0  0  # atno 17371 bound_to 10713
  140.0192  134.9953  157.0558 LP  0  0  0  0  0  0  0  0  0  0  0  0  # atno 17394 bound_to 11000
  140.4467  134.1624  155.7178 LP  0  0  0  0  0  0  0  0  0  0  0  0  # atno 17395 bound_to 11000

$$$$
