AV-unprocessed.smi:3145|AV-procd|sdf|11980|dock7
  -GOLD-   2272017383D 1   1.00000     0.00000
 Structure written by MMmdl.
 35 35  0  0  0  0  0  0  0  0  2 V2000
  151.9329  144.0172  157.6165 C   0  0  0  0  0  0  0  0  0  0  0  0
  150.9119  142.8715  157.5982 C   0  0  1  0  0  0  0  0  0  0  0  0
  151.3375  141.7487  158.5682 C   0  0  0  0  0  0  0  0  0  0  0  0
  151.9334  142.2517  159.7928 N   0  0  0  0  0  0  0  0  0  0  0  0
  153.1226  141.8798  160.3836 C   0  0  0  0  0  0  0  0  0  0  0  0
  153.2570  142.6183  161.5242 C   0  0  0  0  0  0  0  0  0  0  0  0
  152.0867  143.4274  161.5445 C   0  0  0  0  0  0  0  0  0  0  0  0
  151.2954  143.2045  160.5072 N   0  0  0  0  0  0  0  0  0  0  0  0
  149.5738  143.4020  157.9452 N   0  3  0  0  0  0  0  0  0  0  0  0
  148.4839  142.4025  157.9539 C   0  0  0  0  0  0  0  0  0  0  0  0
  147.3056  142.8566  158.8153 C   0  0  0  0  0  0  0  0  0  0  0  0
  146.9024  142.1537  159.7426 O   0  0  0  0  0  0  0  0  0  0  0  0
  146.7689  144.0458  158.5074 N   0  0  0  0  0  0  0  0  0  0  0  0
  145.6482  144.6502  159.2150 C   0  0  0  0  0  0  0  0  0  0  0  0
  145.9519  144.7590  160.7129 C   0  0  0  0  0  0  0  0  0  0  0  0
  147.1681  145.5388  160.9886 C   0  0  0  0  0  0  0  0  0  0  0  0
  148.1245  146.1523  161.2054 N   0  0  0  0  0  0  0  0  0  0  0  0
  152.9259  143.6630  157.3380 H   0  0  0  0  0  0  0  0  0  0  0  0
  152.0077  144.4680  158.6069 H   0  0  0  0  0  0  0  0  0  0  0  0
  151.6566  144.8029  156.9124 H   0  0  0  0  0  0  0  0  0  0  0  0
  150.8885  142.4745  156.5818 H   0  0  0  0  0  0  0  0  0  0  0  0
  150.4704  141.1478  158.8456 H   0  0  0  0  0  0  0  0  0  0  0  0
  152.0404  141.0685  158.0835 H   0  0  0  0  0  0  0  0  0  0  0  0
  153.7656  141.1277  159.9501 H   0  0  0  0  0  0  0  0  0  0  0  0
  154.0697  142.5877  162.2348 H   0  0  0  0  0  0  0  0  0  0  0  0
  151.7905  144.1637  162.2772 H   0  0  0  0  0  0  0  0  0  0  0  0
  149.6260  143.8383  158.8548 H   0  0  0  0  0  0  0  0  0  0  0  0
  148.1334  142.2415  156.9338 H   0  0  0  0  0  0  0  0  0  0  0  0
  148.8536  141.4456  158.3224 H   0  0  0  0  0  0  0  0  0  0  0  0
  147.1589  144.5650  157.7338 H   0  0  0  0  0  0  0  0  0  0  0  0
  145.4450  145.6411  158.8054 H   0  0  0  0  0  0  0  0  0  0  0  0
  144.7537  144.0455  159.0582 H   0  0  0  0  0  0  0  0  0  0  0  0
  145.1240  145.2364  161.2374 H   0  0  0  0  0  0  0  0  0  0  0  0
  146.0862  143.7686  161.1483 H   0  0  0  0  0  0  0  0  0  0  0  0
  149.3255  144.1094  157.2683 H   0  0  0  0  0  0  0  0  0  0  0  0
  1  2  1  0  0  0  0
  1 18  1  0  0  0  0
  1 19  1  0  0  0  0
  1 20  1  0  0  0  0
  2  3  1  0  0  0  0
  2  9  1  0  0  0  0
  2 21  1  0  0  0  0
  3  4  1  0  0  0  0
  3 22  1  0  0  0  0
  3 23  1  0  0  0  0
  4  8  1  0  0  0  0
  4  5  1  0  0  0  0
  5  6  2  0  0  0  0
  5 24  1  0  0  0  0
  6  7  1  0  0  0  0
  6 25  1  0  0  0  0
  7  8  2  0  0  0  0
  7 26  1  0  0  0  0
  9 10  1  0  0  0  0
  9 27  1  0  0  0  0
  9 35  1  0  0  0  0
 10 11  1  0  0  0  0
 10 28  1  0  0  0  0
 10 29  1  0  0  0  0
 11 12  2  0  0  0  0
 11 13  1  0  0  0  0
 13 14  1  0  0  0  0
 13 30  1  0  0  0  0
 14 15  1  0  0  0  0
 14 31  1  0  0  0  0
 14 32  1  0  0  0  0
 15 16  1  0  0  0  0
 15 33  1  0  0  0  0
 15 34  1  0  0  0  0
 16 17  3  0  0  0  0
M  CHG  1   9   1
M  END
> <s_m_source_file>
AV-unprocessed.smi

> <i_m_source_file_index>
3145

> <i_lp_mmshare_version>
43012

> <i_f3d_flags>
0

> <s_epik_input>
bjFbY0hdW2NIXVtjSF1uMVtDSDJdW0NAQEhdKFtDSDNdKVtOSF1bQ0gyXUMoPU8pW05IXVtDSDJdW0NIMl1DI04=

> <s_epik_cmdline>
J2VwaWtfcHl0aG9uJywgJy1waCcsICc3LjAnLCAnLXRuJywgJzgnLCAnLW1hJywgJzIwMCcsICctbWV0YWxfYmluZGluZycsICctaW1hZScsICc8aW5maWxlLm1hZT4nLCAnLW9tYWUnLCAnPG91dGZpbGUubWFlPic=

> <r_lp_tautomer_probability>
1

> <r_epik_Ionization_Penalty>
0.190162

> <r_epik_Ionization_Penalty_Charging>
0.190142

> <r_epik_Ionization_Penalty_Neutral>
2.0165e-05

> <r_epik_State_Penalty>
0.179787

> <r_epik_Charging_Adjusted_Penalty>
0.369929

> <i_epik_Tot_Q>
1

> <i_epik_Tot_abs_Q>
1

> <r_epik_Metal_State_Penalty>
0.191786

> <b_epik_Metal_Only>
0

> <s_lp_Force_Field>
OPLS_2005

> <r_lp_Energy>
4.60732

> <b_lp_Chiralities_Consistent>
1

> <s_lp_Variant>
AV-unprocessed.smi:3145-2

> <Gold.Version>
5.8.1

> <Gold.Id.Protein>
6NUR|6NUR_protein|mol2

> <Gold.PLP.Fitness>
48.3095

> <Gold.PLP.PLP>
-36.9746

> <Gold.PLP.part.hbond>
-7.4423

> <Gold.PLP.part.metal>
0.0000

> <Gold.PLP.part.buried>
-2.9204

> <Gold.PLP.part.nonpolar>
-26.9141

> <Gold.PLP.part.repulsive>
0.7928

> <Gold.PLP.ligand.clash>
0.0000

> <Gold.PLP.ligand.torsion>
0.4724

> <Gold.PLP.Chemscore.Hbond>
4.0551

> <Gold.PLP.Chemscore.CHOScore>
0.0000

> <Gold.PLP.Chemscore.Metal>
0.0000

> <Gold.Chemscore.Hbonds>
donor molecule, donor type, donor heavy atom, donor atom, acceptor molecule, acceptor atom, score
      L1  H     9    35       P1  8028  1.80
      L1  H    13    30       P1  8029  0.84
      P1  H  6933  6944       L1    12  0.13
      P1  H  6934  6946       L1    12  0.90

> <Gold.PLP.Chemscore.Internal.Correction>
0.1142

> <Gold.Rescore>
     Score         DG    S(hbond)    S(metal)    S(lipo)     H(rot)  DE(clash)    DE(int)     intcor
      8.49     -13.47       1.95        0.00      75.95       2.89       3.40       1.58       ----

> <Gold.Chemscore.Fitness>
8.4919

> <Gold.Chemscore.DG>
-13.4673

> <Gold.Chemscore.ZeroCoef>
-5.4800

> <Gold.Chemscore.Hbond>
1.9455

> <Gold.Chemscore.Metal>
0.0000

> <Gold.Chemscore.Lipo>
75.9501

> <Gold.Chemscore.Internal_Hbond>
0.0000

> <Gold.Chemscore.DEClash>
3.3952

> <Gold.Chemscore.DEInternal>
1.5801

> <Gold.Chemscore.Rot>
2.8894

> <Gold.Chemscore.Internal.Correction>
   9.000000E+99

> <Gold.Chemscore.Hbonds>
donor molecule, donor type, donor heavy atom, donor atom, acceptor molecule, acceptor atom, score
      L1  H     9    35       P1  8028  0.18
      L1  H    13    30       P1  8029  0.16
      P1  H  6933  6944       L1    12  0.08
      P1  H  6934  6946       L1    12  0.86

> <Gold.Chemscore.Hbond.Weighted>
-6.4979

> <Gold.Chemscore.Metal.Weighted>
-0.0000

> <Gold.Chemscore.Lipo.Weighted>
-8.8862

> <Gold.Chemscore.Internal_Hbond.Weighted>
0.0000

> <Gold.Chemscore.DEClash.Weighted>
3.3952

> <Gold.Chemscore.DEInternal.Weighted>
1.5801

> <Gold.Chemscore.Rot.Weighted>
7.3968

> <Gold.Chemscore.Internal.Correction.Weighted>
   9.000000E+99

> <Gold.Protein.RotatedTorsions>
[ 6907 6896 6895 6894 ] final  141.83 input  -60.11 | X-H torsion
[ 7974 7965 7964 7962 ] final -145.24 input  175.53 | X-H torsion
[ 8008 7997 7996 7995 ] final   64.16 input   59.86 | X-H torsion
[ 10167 10162 10161 10158 ] final  108.85 input  -65.29 | X-H torsion
[ 10718 10713 10712 10709 ] final  -22.68 input   66.30 | X-H torsion
[ 10763 10752 10751 10750 ] final  -95.66 input  -60.55 | X-H torsion
[ 11005 11000 10999 10996 ] final -132.87 input  -57.11 | X-H torsion

> <Gold.Protein.ActiveResidues>
 VAL166  LYS551  ARG553  GLY616  TRP617  ASP618  TYR619  PRO620  LYS621  CYS622 
 ASP623  PHE694  ASN695  SER759  ASP760  ASP761  ALA762  ILE779  LEU786  VAL792 
 PHE793  MET794  SER795  GLU796  ALA797  LYS798  CYS799  TRP800  GLU811  SER814 

> <Gold.Protein.RotatedAtoms>
  152.2262  133.5022  159.5189 H   0  0  0  0  0  0  0  0  0  0  0  0  # atno 6907 bound_to 6896
  150.7025  134.1277  159.4067 H   0  0  0  0  0  0  0  0  0  0  0  0  # atno 6908 bound_to 6896
  151.9198  135.0303  160.0572 H   0  0  0  0  0  0  0  0  0  0  0  0  # atno 6909 bound_to 6896
  144.8241  140.5608  143.5559 H   0  0  0  0  0  0  0  0  0  0  0  0  # atno 7974 bound_to 7965
  155.6416  140.3497  155.4717 H   0  0  0  0  0  0  0  0  0  0  0  0  # atno 8008 bound_to 7997
  155.9921  140.1196  157.0652 H   0  0  0  0  0  0  0  0  0  0  0  0  # atno 8009 bound_to 7997
  154.4222  140.1117  156.5566 H   0  0  0  0  0  0  0  0  0  0  0  0  # atno 8010 bound_to 7997
  139.6813  144.7118  151.1510 H   0  0  0  0  0  0  0  0  0  0  0  0  # atno 10167 bound_to 10162
  156.5013  130.4588  149.6699 H   0  0  0  0  0  0  0  0  0  0  0  0  # atno 10718 bound_to 10713
  154.7169  135.5112  153.8751 H   0  0  0  0  0  0  0  0  0  0  0  0  # atno 10763 bound_to 10752
  153.0828  135.6636  154.0019 H   0  0  0  0  0  0  0  0  0  0  0  0  # atno 10764 bound_to 10752
  153.9850  135.3025  155.3396 H   0  0  0  0  0  0  0  0  0  0  0  0  # atno 10765 bound_to 10752
  140.9131  134.1541  157.4373 H   0  0  0  0  0  0  0  0  0  0  0  0  # atno 11005 bound_to 11000
  145.5040  139.1482  143.3642 LP  0  0  0  0  0  0  0  0  0  0  0  0  # atno 17320 bound_to 7965
  146.2546  140.5180  142.8879 LP  0  0  0  0  0  0  0  0  0  0  0  0  # atno 17321 bound_to 7965
  140.7653  143.5695  150.9011 LP  0  0  0  0  0  0  0  0  0  0  0  0  # atno 17342 bound_to 10162
  139.9367  143.6430  152.3063 LP  0  0  0  0  0  0  0  0  0  0  0  0  # atno 17343 bound_to 10162
  156.3330  130.7341  151.2274 LP  0  0  0  0  0  0  0  0  0  0  0  0  # atno 17370 bound_to 10713
  157.7462  131.0424  150.4696 LP  0  0  0  0  0  0  0  0  0  0  0  0  # atno 17371 bound_to 10713
  139.8761  134.9943  156.5688 LP  0  0  0  0  0  0  0  0  0  0  0  0  # atno 17394 bound_to 11000
  140.8084  133.8449  155.8788 LP  0  0  0  0  0  0  0  0  0  0  0  0  # atno 17395 bound_to 11000

$$$$
