AV-unprocessed.smi:1946|AV-procd|sdf|7861|dock10
  -GOLD-   2272010 13D 1   1.00000     0.00000
 Structure written by MMmdl.
 38 40  0  0  0  0  0  0  0  0  1 V2000
  154.5939  134.2745  164.1247 C   0  0  0  0  0  0  0  0  0  0  0  0
  155.4474  134.3769  162.4996 S   0  0  0  0  0  0  0  0  0  0  0  0
  156.8920  134.4981  162.7494 O   0  0  0  0  0  0  0  0  0  0  0  0
  154.9443  133.2854  161.6509 O   0  0  0  0  0  0  0  0  0  0  0  0
  154.8693  135.9263  161.8186 C   0  0  0  0  0  0  0  0  0  0  0  0
  154.5490  136.9948  162.6794 C   0  0  0  0  0  0  0  0  0  0  0  0
  154.1245  138.2230  162.1361 C   0  0  0  0  0  0  0  0  0  0  0  0
  154.0337  138.3902  160.7358 C   0  0  0  0  0  0  0  0  0  0  0  0
  153.5680  139.7096  160.1404 C   0  0  2  0  0  0  0  0  0  0  0  0
  153.5896  139.6987  158.7256 O   0  0  0  0  0  0  0  0  0  0  0  0
  154.4097  140.8886  160.6650 C   0  0  0  0  0  0  0  0  0  0  0  0
  153.5889  142.0134  161.0748 N   0  0  0  0  0  0  0  0  0  0  0  0
  153.3102  142.4059  162.3329 C   0  0  0  0  0  0  0  0  0  0  0  0
  152.5313  143.4744  162.4790 N   0  0  0  0  0  0  0  0  0  0  0  0
  152.2746  143.8151  161.1619 C   0  0  0  0  0  0  0  0  0  0  0  0
  151.5041  144.8687  160.6194 C   0  0  0  0  0  0  0  0  0  0  0  0
  151.3845  145.0201  159.2221 C   0  0  0  0  0  0  0  0  0  0  0  0
  152.0317  144.1235  158.3470 C   0  0  0  0  0  0  0  0  0  0  0  0
  152.8055  143.0665  158.8638 C   0  0  0  0  0  0  0  0  0  0  0  0
  152.9218  142.9191  160.2585 C   0  0  0  0  0  0  0  0  0  0  0  0
  154.3678  137.3156  159.8829 C   0  0  0  0  0  0  0  0  0  0  0  0
  154.7912  136.0852  160.4212 C   0  0  0  0  0  0  0  0  0  0  0  0
  154.8854  133.3539  164.6298 H   0  0  0  0  0  0  0  0  0  0  0  0
  153.5151  134.2775  163.9704 H   0  0  0  0  0  0  0  0  0  0  0  0
  154.8757  135.1296  164.7389 H   0  0  0  0  0  0  0  0  0  0  0  0
  154.6243  136.8790  163.7506 H   0  0  0  0  0  0  0  0  0  0  0  0
  153.8689  139.0371  162.7986 H   0  0  0  0  0  0  0  0  0  0  0  0
  152.5285  139.8642  160.4330 H   0  0  0  0  0  0  0  0  0  0  0  0
  152.7000  139.7564  158.4120 H   0  0  0  0  0  0  0  0  0  0  0  0
  155.0011  140.5735  161.5256 H   0  0  0  0  0  0  0  0  0  0  0  0
  155.1175  141.2258  159.9062 H   0  0  0  0  0  0  0  0  0  0  0  0
  153.7042  141.8794  163.1900 H   0  0  0  0  0  0  0  0  0  0  0  0
  151.0041  145.5618  161.2797 H   0  0  0  0  0  0  0  0  0  0  0  0
  150.7923  145.8289  158.8198 H   0  0  0  0  0  0  0  0  0  0  0  0
  151.9335  144.2479  157.2785 H   0  0  0  0  0  0  0  0  0  0  0  0
  153.3035  142.3777  158.1976 H   0  0  0  0  0  0  0  0  0  0  0  0
  154.3017  137.4315  158.8109 H   0  0  0  0  0  0  0  0  0  0  0  0
  155.0532  135.2712  159.7614 H   0  0  0  0  0  0  0  0  0  0  0  0
  1  2  1  0  0  0  0
  1 23  1  0  0  0  0
  1 24  1  0  0  0  0
  1 25  1  0  0  0  0
  2  3  2  0  0  0  0
  2  4  2  0  0  0  0
  2  5  1  0  0  0  0
  5 22  1  0  0  0  0
  5  6  2  0  0  0  0
  6  7  1  0  0  0  0
  6 26  1  0  0  0  0
  7  8  2  0  0  0  0
  7 27  1  0  0  0  0
  8  9  1  0  0  0  0
  8 21  1  0  0  0  0
  9 10  1  0  0  0  0
  9 11  1  0  0  0  0
  9 28  1  0  0  0  0
 10 29  1  0  0  0  0
 11 12  1  0  0  0  0
 11 30  1  0  0  0  0
 11 31  1  0  0  0  0
 12 20  1  0  0  0  0
 12 13  1  0  0  0  0
 13 14  2  0  0  0  0
 13 32  1  0  0  0  0
 14 15  1  0  0  0  0
 15 20  2  0  0  0  0
 15 16  1  0  0  0  0
 16 17  2  0  0  0  0
 16 33  1  0  0  0  0
 17 18  1  0  0  0  0
 17 34  1  0  0  0  0
 18 19  2  0  0  0  0
 18 35  1  0  0  0  0
 19 20  1  0  0  0  0
 19 36  1  0  0  0  0
 21 22  2  0  0  0  0
 21 37  1  0  0  0  0
 22 38  1  0  0  0  0
M  END
> <s_m_source_file>
AV-unprocessed.smi

> <i_m_source_file_index>
1946

> <i_lp_mmshare_version>
43012

> <i_f3d_flags>
0

> <s_epik_input>
W0NIM11TKD1PKSg9TyljMVtjSF1bY0hdYyhbY0hdW2NIXTEpW0NASF0oW09IXSlbQ0gyXW4oW2NIXW4yKWMoYzIzKVtjSF1bY0hdW2NIXVtjSF0z

> <s_epik_cmdline>
J2VwaWtfcHl0aG9uJywgJy1waCcsICc3LjAnLCAnLXRuJywgJzgnLCAnLW1hJywgJzIwMCcsICctbWV0YWxfYmluZGluZycsICctaW1hZScsICc8aW5maWxlLm1hZT4nLCAnLW9tYWUnLCAnPG91dGZpbGUubWFlPic=

> <r_epik_Ionization_Penalty>
0.0696512

> <r_epik_Ionization_Penalty_Charging>
0

> <r_epik_Ionization_Penalty_Neutral>
0.0696512

> <r_epik_State_Penalty>
0.0610247

> <r_epik_Charging_Adjusted_Penalty>
0.0610247

> <i_epik_Tot_Q>
0

> <i_epik_Tot_abs_Q>
0

> <r_epik_Metal_State_Penalty>
6.42746e-05

> <b_epik_Metal_Only>
0

> <s_lp_Force_Field>
OPLS_2005

> <r_lp_Energy>
7.3467

> <b_lp_Chiralities_Consistent>
1

> <s_lp_Variant>
AV-unprocessed.smi:1946-1

> <Gold.Version>
5.8.1

> <Gold.Id.Protein>
6NUR|6NUR_protein|mol2

> <Gold.PLP.Fitness>
52.5798

> <Gold.PLP.PLP>
-51.5816

> <Gold.PLP.part.hbond>
-1.0000

> <Gold.PLP.part.metal>
0.0000

> <Gold.PLP.part.buried>
-6.5159

> <Gold.PLP.part.nonpolar>
-44.5260

> <Gold.PLP.part.repulsive>
0.1704

> <Gold.PLP.ligand.clash>
0.0000

> <Gold.PLP.ligand.torsion>
2.0216

> <Gold.PLP.Chemscore.Hbond>
1.0000

> <Gold.PLP.Chemscore.CHOScore>
0.0000

> <Gold.PLP.Chemscore.Metal>
0.0000

> <Gold.Chemscore.Hbonds>
donor molecule, donor type, donor heavy atom, donor atom, acceptor molecule, acceptor atom, score
      P1  H  7997  8009       L1    10  1.00

> <Gold.PLP.Chemscore.Internal.Correction>
2.0414

> <Gold.Rescore>
     Score         DG    S(hbond)    S(metal)    S(lipo)     H(rot)  DE(clash)    DE(int)     intcor
     16.93     -18.96       0.92        0.00     132.31       1.98       0.04       1.99       ----

> <Gold.Chemscore.Fitness>
16.9318

> <Gold.Chemscore.DG>
-18.9557

> <Gold.Chemscore.ZeroCoef>
-5.4800

> <Gold.Chemscore.Hbond>
0.9206

> <Gold.Chemscore.Metal>
0.0000

> <Gold.Chemscore.Lipo>
132.3082

> <Gold.Chemscore.Internal_Hbond>
0.0000

> <Gold.Chemscore.DEClash>
0.0354

> <Gold.Chemscore.DEInternal>
1.9885

> <Gold.Chemscore.Rot>
1.9840

> <Gold.Chemscore.Internal.Correction>
   9.000000E+99

> <Gold.Chemscore.Hbonds>
donor molecule, donor type, donor heavy atom, donor atom, acceptor molecule, acceptor atom, score
      P1  H  7997  8009       L1    10  0.64

> <Gold.Chemscore.Hbond.Weighted>
-3.0747

> <Gold.Chemscore.Metal.Weighted>
-0.0000

> <Gold.Chemscore.Lipo.Weighted>
-15.4801

> <Gold.Chemscore.Internal_Hbond.Weighted>
0.0000

> <Gold.Chemscore.DEClash.Weighted>
0.0354

> <Gold.Chemscore.DEInternal.Weighted>
1.9885

> <Gold.Chemscore.Rot.Weighted>
5.0791

> <Gold.Chemscore.Internal.Correction.Weighted>
   9.000000E+99

> <Gold.Protein.RotatedTorsions>
[ 6907 6896 6895 6894 ] final  -36.81 input  -60.11 | X-H torsion
[ 7974 7965 7964 7962 ] final -178.54 input  175.53 | X-H torsion
[ 8008 7997 7996 7995 ] final  139.85 input   59.86 | X-H torsion
[ 10167 10162 10161 10158 ] final  156.40 input  -65.29 | X-H torsion
[ 10718 10713 10712 10709 ] final   29.84 input   66.30 | X-H torsion
[ 10763 10752 10751 10750 ] final   81.04 input  -60.55 | X-H torsion
[ 11005 11000 10999 10996 ] final   -1.67 input  -57.11 | X-H torsion

> <Gold.Protein.ActiveResidues>
 VAL166  LYS551  ARG553  GLY616  TRP617  ASP618  TYR619  PRO620  LYS621  CYS622 
 ASP623  PHE694  ASN695  SER759  ASP760  ASP761  ALA762  ILE779  LEU786  VAL792 
 PHE793  MET794  SER795  GLU796  ALA797  LYS798  CYS799  TRP800  GLU811  SER814 

> <Gold.Protein.RotatedAtoms>
  151.0225  134.9480  159.8067 H   0  0  0  0  0  0  0  0  0  0  0  0  # atno 6907 bound_to 6896
  152.5328  134.2884  159.9044 H   0  0  0  0  0  0  0  0  0  0  0  0  # atno 6908 bound_to 6896
  151.2892  133.4131  159.2666 H   0  0  0  0  0  0  0  0  0  0  0  0  # atno 6909 bound_to 6896
  144.7131  140.0852  143.6424 H   0  0  0  0  0  0  0  0  0  0  0  0  # atno 7974 bound_to 7965
  156.2985  140.2357  156.4304 H   0  0  0  0  0  0  0  0  0  0  0  0  # atno 8008 bound_to 7997
  154.8275  140.0434  157.1474 H   0  0  0  0  0  0  0  0  0  0  0  0  # atno 8009 bound_to 7997
  154.9245  140.3008  155.5203 H   0  0  0  0  0  0  0  0  0  0  0  0  # atno 8010 bound_to 7997
  139.4821  144.5012  151.8165 H   0  0  0  0  0  0  0  0  0  0  0  0  # atno 10167 bound_to 10162
  157.2519  130.7119  149.6409 H   0  0  0  0  0  0  0  0  0  0  0  0  # atno 10718 bound_to 10713
  153.1084  135.4780  154.8991 H   0  0  0  0  0  0  0  0  0  0  0  0  # atno 10763 bound_to 10752
  154.7454  135.3092  154.8656 H   0  0  0  0  0  0  0  0  0  0  0  0  # atno 10764 bound_to 10752
  153.9252  135.6850  153.4800 H   0  0  0  0  0  0  0  0  0  0  0  0  # atno 10765 bound_to 10752
  140.6499  133.9414  155.8374 H   0  0  0  0  0  0  0  0  0  0  0  0  # atno 11005 bound_to 11000
  145.9667  139.2840  143.1123 LP  0  0  0  0  0  0  0  0  0  0  0  0  # atno 17320 bound_to 7965
  145.9161  140.9147  143.0429 LP  0  0  0  0  0  0  0  0  0  0  0  0  # atno 17321 bound_to 7965
  140.4506  144.1860  150.5897 LP  0  0  0  0  0  0  0  0  0  0  0  0  # atno 17342 bound_to 10162
  140.4589  143.2457  151.9247 LP  0  0  0  0  0  0  0  0  0  0  0  0  # atno 17343 bound_to 10162
  155.9666  130.4425  150.5383 LP  0  0  0  0  0  0  0  0  0  0  0  0  # atno 17370 bound_to 10713
  157.3269  131.0692  151.1890 LP  0  0  0  0  0  0  0  0  0  0  0  0  # atno 17371 bound_to 10713
  141.0544  134.0437  157.3741 LP  0  0  0  0  0  0  0  0  0  0  0  0  # atno 17394 bound_to 11000
  139.9049  135.0176  156.7442 LP  0  0  0  0  0  0  0  0  0  0  0  0  # atno 17395 bound_to 11000

$$$$
