AV-unprocessed.smi:855|AV-procd|sdf|3956|dock4
  -GOLD-   22720 1423D 1   1.00000     0.00000
 Structure written by MMmdl.
 36 37  0  0  0  0  0  0  0  0  2 V2000
  137.7995  137.1670  154.6047 C   0  0  0  0  0  0  0  0  0  0  0  0
  139.2604  137.0862  154.3211 C   0  0  0  0  0  0  0  0  0  0  0  0
  140.1564  137.9753  153.7971 C   0  0  0  0  0  0  0  0  0  0  0  0
  141.3749  137.2458  153.8094 C   0  0  0  0  0  0  0  0  0  0  0  0
  142.5783  137.8294  153.3371 N   0  0  0  0  0  0  0  0  0  0  0  0
  143.7934  137.2587  153.2717 C   0  0  0  0  0  0  0  0  0  0  0  0
  144.0573  136.1064  153.6167 O   0  0  0  0  0  0  0  0  0  0  0  0
  144.7077  138.1070  152.7790 N   0  0  0  0  0  0  0  0  0  0  0  0
  146.1145  137.7850  152.5696 C   0  0  0  0  0  0  0  0  0  0  0  0
  146.9574  139.0487  152.3141 C   0  0  0  0  0  0  0  0  0  0  0  0
  146.4991  140.1934  153.1347 N   0  3  0  0  0  0  0  0  0  0  0  0
  146.4724  139.9540  154.5984 C   0  0  0  0  0  0  0  0  0  0  0  0
  147.0319  141.2167  155.2682 C   0  0  0  0  0  0  0  0  0  0  0  0
  147.0299  142.2709  154.1659 C   0  0  0  0  0  0  0  0  0  0  0  0
  147.2516  141.4429  152.9047 C   0  0  0  0  0  0  0  0  0  0  0  0
  141.2352  136.0215  154.2943 N   0  0  0  0  0  0  0  0  0  0  0  0
  139.8790  135.9125  154.6236 O   0  0  0  0  0  0  0  0  0  0  0  0
  137.4824  138.2039  154.7174 H   0  0  0  0  0  0  0  0  0  0  0  0
  137.5516  136.6374  155.5248 H   0  0  0  0  0  0  0  0  0  0  0  0
  137.2239  136.7230  153.7926 H   0  0  0  0  0  0  0  0  0  0  0  0
  139.9671  138.9843  153.4621 H   0  0  0  0  0  0  0  0  0  0  0  0
  142.5052  138.7839  153.0177 H   0  0  0  0  0  0  0  0  0  0  0  0
  144.4065  139.0350  152.5183 H   0  0  0  0  0  0  0  0  0  0  0  0
  146.5005  137.2355  153.4300 H   0  0  0  0  0  0  0  0  0  0  0  0
  146.1746  137.1078  151.7176 H   0  0  0  0  0  0  0  0  0  0  0  0
  148.0137  138.8541  152.5059 H   0  0  0  0  0  0  0  0  0  0  0  0
  146.8770  139.3298  151.2628 H   0  0  0  0  0  0  0  0  0  0  0  0
  145.4430  139.7682  154.9057 H   0  0  0  0  0  0  0  0  0  0  0  0
  147.0646  139.0827  154.8823 H   0  0  0  0  0  0  0  0  0  0  0  0
  146.4538  141.5218  156.1411 H   0  0  0  0  0  0  0  0  0  0  0  0
  148.0561  141.0338  155.5964 H   0  0  0  0  0  0  0  0  0  0  0  0
  146.0567  142.7620  154.1223 H   0  0  0  0  0  0  0  0  0  0  0  0
  147.7908  143.0387  154.3103 H   0  0  0  0  0  0  0  0  0  0  0  0
  148.3145  141.2197  152.7947 H   0  0  0  0  0  0  0  0  0  0  0  0
  146.9174  141.9545  152.0015 H   0  0  0  0  0  0  0  0  0  0  0  0
  145.5471  140.3933  152.8624 H   0  0  0  0  0  0  0  0  0  0  0  0
  1  2  1  0  0  0  0
  1 18  1  0  0  0  0
  1 19  1  0  0  0  0
  1 20  1  0  0  0  0
  2 17  1  0  0  0  0
  2  3  2  0  0  0  0
  3  4  1  0  0  0  0
  3 21  1  0  0  0  0
  4  5  1  0  0  0  0
  4 16  2  0  0  0  0
  5  6  1  0  0  0  0
  5 22  1  0  0  0  0
  6  7  2  0  0  0  0
  6  8  1  0  0  0  0
  8  9  1  0  0  0  0
  8 23  1  0  0  0  0
  9 10  1  0  0  0  0
  9 24  1  0  0  0  0
  9 25  1  0  0  0  0
 10 11  1  0  0  0  0
 10 26  1  0  0  0  0
 10 27  1  0  0  0  0
 11 15  1  0  0  0  0
 11 12  1  0  0  0  0
 11 36  1  0  0  0  0
 12 13  1  0  0  0  0
 12 28  1  0  0  0  0
 12 29  1  0  0  0  0
 13 14  1  0  0  0  0
 13 30  1  0  0  0  0
 13 31  1  0  0  0  0
 14 15  1  0  0  0  0
 14 32  1  0  0  0  0
 14 33  1  0  0  0  0
 15 34  1  0  0  0  0
 15 35  1  0  0  0  0
 16 17  1  0  0  0  0
M  CHG  1  11   1
M  END
> <s_m_source_file>
AV-unprocessed.smi

> <i_m_source_file_index>
855

> <i_lp_mmshare_version>
43012

> <i_f3d_flags>
0

> <s_epik_input>
W0NIM11jMVtjSF1jKG5vMSlbTkhdQyg9TylbTkhdW0NIMl1bQ0gyXU4yW0NIMl1bQ0gyXVtDSDJdW0NIMl0y

> <s_epik_cmdline>
J2VwaWtfcHl0aG9uJywgJy1waCcsICc3LjAnLCAnLXRuJywgJzgnLCAnLW1hJywgJzIwMCcsICctbWV0YWxfYmluZGluZycsICctaW1hZScsICc8aW5maWxlLm1hZT4nLCAnLW9tYWUnLCAnPG91dGZpbGUubWFlPic=

> <r_epik_Ionization_Penalty>
0.00243703

> <r_epik_Ionization_Penalty_Charging>
0.00240122

> <r_epik_Ionization_Penalty_Neutral>
3.58091e-05

> <r_epik_State_Penalty>
0.00166069

> <r_epik_Charging_Adjusted_Penalty>
0.00406191

> <i_epik_Tot_Q>
1

> <i_epik_Tot_abs_Q>
1

> <r_epik_Metal_State_Penalty>
0.021664

> <b_epik_Metal_Only>
0

> <s_lp_Force_Field>
OPLS_2005

> <r_lp_Energy>
23.058

> <b_lp_Chiralities_Consistent>
1

> <s_lp_Variant>
AV-unprocessed.smi:855-1

> <Gold.Version>
5.8.1

> <Gold.Id.Protein>
6NUR|6NUR_protein|mol2

> <Gold.PLP.Fitness>
43.4199

> <Gold.PLP.PLP>
-29.1454

> <Gold.PLP.part.hbond>
-5.2666

> <Gold.PLP.part.metal>
0.0000

> <Gold.PLP.part.buried>
-4.9805

> <Gold.PLP.part.nonpolar>
-20.0047

> <Gold.PLP.part.repulsive>
0.2890

> <Gold.PLP.ligand.clash>
0.0000

> <Gold.PLP.ligand.torsion>
0.2019

> <Gold.PLP.Chemscore.Hbond>
4.8872

> <Gold.PLP.Chemscore.CHOScore>
0.0000

> <Gold.PLP.Chemscore.Metal>
0.0000

> <Gold.Chemscore.Hbonds>
donor molecule, donor type, donor heavy atom, donor atom, acceptor molecule, acceptor atom, score
      L1  H     5    22       P1 10175  0.82
      L1  H     8    23       P1 10175  1.00
      L1  H    11    36       P1 10175  2.00
      P1  H 11000 11005       L1    17  1.00

> <Gold.PLP.Chemscore.Internal.Correction>
0.0165

> <Gold.Rescore>
     Score         DG    S(hbond)    S(metal)    S(lipo)     H(rot)  DE(clash)    DE(int)     intcor
     15.81     -17.35       2.83        0.00      55.74       1.60       0.07       1.46       ----

> <Gold.Chemscore.Fitness>
15.8104

> <Gold.Chemscore.DG>
-17.3475

> <Gold.Chemscore.ZeroCoef>
-5.4800

> <Gold.Chemscore.Hbond>
2.8283

> <Gold.Chemscore.Metal>
0.0000

> <Gold.Chemscore.Lipo>
55.7415

> <Gold.Chemscore.Internal_Hbond>
0.0000

> <Gold.Chemscore.DEClash>
0.0734

> <Gold.Chemscore.DEInternal>
1.4636

> <Gold.Chemscore.Rot>
1.6019

> <Gold.Chemscore.Internal.Correction>
   9.000000E+99

> <Gold.Chemscore.Hbonds>
donor molecule, donor type, donor heavy atom, donor atom, acceptor molecule, acceptor atom, score
      L1  H     5    22       P1 10175  0.77
      L1  H     8    23       P1 10175  0.98
      L1  H    11    36       P1 10175  0.88
      P1  H 11000 11005       L1    17  0.34

> <Gold.Chemscore.Hbond.Weighted>
-9.4466

> <Gold.Chemscore.Metal.Weighted>
-0.0000

> <Gold.Chemscore.Lipo.Weighted>
-6.5218

> <Gold.Chemscore.Internal_Hbond.Weighted>
0.0000

> <Gold.Chemscore.DEClash.Weighted>
0.0734

> <Gold.Chemscore.DEInternal.Weighted>
1.4636

> <Gold.Chemscore.Rot.Weighted>
4.1009

> <Gold.Chemscore.Internal.Correction.Weighted>
   9.000000E+99

> <Gold.Protein.RotatedTorsions>
[ 6907 6896 6895 6894 ] final   89.05 input  -60.11 | X-H torsion
[ 7974 7965 7964 7962 ] final  173.46 input  175.53 | X-H torsion
[ 8008 7997 7996 7995 ] final  153.39 input   59.86 | X-H torsion
[ 10167 10162 10161 10158 ] final   11.61 input  -65.29 | X-H torsion
[ 10718 10713 10712 10709 ] final   -7.86 input   66.30 | X-H torsion
[ 10763 10752 10751 10750 ] final  168.84 input  -60.55 | X-H torsion
[ 11005 11000 10999 10996 ] final   77.93 input  -57.11 | X-H torsion

> <Gold.Protein.ActiveResidues>
 VAL166  LYS551  ARG553  GLY616  TRP617  ASP618  TYR619  PRO620  LYS621  CYS622 
 ASP623  PHE694  ASN695  SER759  ASP760  ASP761  ALA762  ILE779  LEU786  VAL792 
 PHE793  MET794  SER795  GLU796  ALA797  LYS798  CYS799  TRP800  GLU811  SER814 

> <Gold.Protein.RotatedAtoms>
  152.5432  134.2027  159.8718 H   0  0  0  0  0  0  0  0  0  0  0  0  # atno 6907 bound_to 6896
  151.2014  133.4601  159.2604 H   0  0  0  0  0  0  0  0  0  0  0  0  # atno 6908 bound_to 6896
  151.0985  134.9971  159.8493 H   0  0  0  0  0  0  0  0  0  0  0  0  # atno 6909 bound_to 6896
  144.7243  139.9651  143.6436 H   0  0  0  0  0  0  0  0  0  0  0  0  # atno 7974 bound_to 7965
  156.2584  140.1995  156.6483 H   0  0  0  0  0  0  0  0  0  0  0  0  # atno 8008 bound_to 7997
  154.6556  140.0566  157.0030 H   0  0  0  0  0  0  0  0  0  0  0  0  # atno 8009 bound_to 7997
  155.1352  140.3237  155.4467 H   0  0  0  0  0  0  0  0  0  0  0  0  # atno 8010 bound_to 7997
  140.6121  143.8386  150.7077 H   0  0  0  0  0  0  0  0  0  0  0  0  # atno 10167 bound_to 10162
  156.7110  130.5122  149.5892 H   0  0  0  0  0  0  0  0  0  0  0  0  # atno 10718 bound_to 10713
  154.3745  135.2753  155.2247 H   0  0  0  0  0  0  0  0  0  0  0  0  # atno 10763 bound_to 10752
  154.4381  135.5961  153.6115 H   0  0  0  0  0  0  0  0  0  0  0  0  # atno 10764 bound_to 10752
  152.9837  135.6012  154.3980 H   0  0  0  0  0  0  0  0  0  0  0  0  # atno 10765 bound_to 10752
  139.9234  134.7723  156.1585 H   0  0  0  0  0  0  0  0  0  0  0  0  # atno 11005 bound_to 11000
  146.0607  139.3601  143.0583 LP  0  0  0  0  0  0  0  0  0  0  0  0  # atno 17320 bound_to 7965
  145.8096  140.9732  143.0956 LP  0  0  0  0  0  0  0  0  0  0  0  0  # atno 17321 bound_to 7965
  140.1956  143.4000  152.1830 LP  0  0  0  0  0  0  0  0  0  0  0  0  # atno 17342 bound_to 10162
  139.5369  144.7219  151.4862 LP  0  0  0  0  0  0  0  0  0  0  0  0  # atno 17343 bound_to 10162
  156.1661  130.6406  151.0779 LP  0  0  0  0  0  0  0  0  0  0  0  0  # atno 17370 bound_to 10713
  157.6936  131.0802  150.7036 LP  0  0  0  0  0  0  0  0  0  0  0  0  # atno 17371 bound_to 10713
  141.0772  133.6770  156.2261 LP  0  0  0  0  0  0  0  0  0  0  0  0  # atno 17394 bound_to 11000
  140.6408  134.5168  157.5569 LP  0  0  0  0  0  0  0  0  0  0  0  0  # atno 17395 bound_to 11000

$$$$
