AV-unprocessed.smi:2593|AV-procd|sdf|10165|dock2
  -GOLD-   2272014183D 1   1.00000     0.00000
 Structure written by MMmdl.
 41 43  0  0  0  0  0  0  0  0  2 V2000
  154.4541  137.2735  160.6737 C   0  0  0  0  0  0  0  0  0  0  0  0
  154.0253  136.7428  159.4325 O   0  0  0  0  0  0  0  0  0  0  0  0
  153.6433  137.7511  158.5105 C   0  0  0  0  0  0  0  0  0  0  0  0
  152.2901  138.3440  158.9272 C   0  0  0  0  0  0  0  0  0  0  0  0
  152.0154  139.6056  158.2549 N   0  0  0  0  0  0  0  0  0  0  0  0
  151.4708  139.7960  157.0275 C   0  0  0  0  0  0  0  0  0  0  0  0
  150.9806  138.4300  156.0143 S   0  0  0  0  0  0  0  0  0  0  0  0
  150.8048  139.2729  154.4137 C   0  0  0  0  0  0  0  0  0  0  0  0
  149.3448  139.5902  154.1623 C   0  0  0  0  0  0  0  0  0  0  0  0
  148.7323  140.7528  154.6774 C   0  0  0  0  0  0  0  0  0  0  0  0
  147.3689  140.9898  154.4067 C   0  0  0  0  0  0  0  0  0  0  0  0
  146.6472  140.0612  153.6284 C   0  0  0  0  0  0  0  0  0  0  0  0
  147.3080  138.9151  153.1387 C   0  0  0  0  0  0  0  0  0  0  0  0
  146.6536  137.9573  152.3667 N   0  0  0  0  0  0  0  0  0  0  0  0
  148.6160  138.7251  153.4201 N   0  3  0  0  0  0  0  0  0  0  0  0
  151.3271  141.0701  156.6571 N   0  0  0  0  0  0  0  0  0  0  0  0
  151.8206  141.7662  157.7427 C   0  0  0  0  0  0  0  0  0  0  0  0
  151.9405  143.1566  157.9654 C   0  0  0  0  0  0  0  0  0  0  0  0
  152.4812  143.6415  159.1744 C   0  0  0  0  0  0  0  0  0  0  0  0
  152.9081  142.7450  160.1754 C   0  0  0  0  0  0  0  0  0  0  0  0
  152.7983  141.3558  159.9727 C   0  0  0  0  0  0  0  0  0  0  0  0
  152.2593  140.8775  158.7632 C   0  0  0  0  0  0  0  0  0  0  0  0
  154.7407  136.4596  161.3397 H   0  0  0  0  0  0  0  0  0  0  0  0
  153.6562  137.8387  161.1567 H   0  0  0  0  0  0  0  0  0  0  0  0
  155.3193  137.9254  160.5465 H   0  0  0  0  0  0  0  0  0  0  0  0
  154.3981  138.5383  158.4835 H   0  0  0  0  0  0  0  0  0  0  0  0
  153.5739  137.3311  157.5058 H   0  0  0  0  0  0  0  0  0  0  0  0
  151.4895  137.6428  158.6902 H   0  0  0  0  0  0  0  0  0  0  0  0
  152.2522  138.4928  160.0065 H   0  0  0  0  0  0  0  0  0  0  0  0
  151.3995  140.1874  154.4069 H   0  0  0  0  0  0  0  0  0  0  0  0
  151.1755  138.6290  153.6152 H   0  0  0  0  0  0  0  0  0  0  0  0
  149.3004  141.4545  155.2709 H   0  0  0  0  0  0  0  0  0  0  0  0
  146.8822  141.8738  154.7920 H   0  0  0  0  0  0  0  0  0  0  0  0
  145.6018  140.2303  153.4140 H   0  0  0  0  0  0  0  0  0  0  0  0
  145.6765  138.0494  152.1282 H   0  0  0  0  0  0  0  0  0  0  0  0
  147.1264  137.1263  152.0413 H   0  0  0  0  0  0  0  0  0  0  0  0
  151.6148  143.8516  157.2052 H   0  0  0  0  0  0  0  0  0  0  0  0
  152.5673  144.7060  159.3354 H   0  0  0  0  0  0  0  0  0  0  0  0
  153.3190  143.1239  161.0997 H   0  0  0  0  0  0  0  0  0  0  0  0
  153.1210  140.6669  160.7392 H   0  0  0  0  0  0  0  0  0  0  0  0
  149.0781  137.8913  153.0568 H   0  0  0  0  0  0  0  0  0  0  0  0
  1  2  1  0  0  0  0
  1 23  1  0  0  0  0
  1 24  1  0  0  0  0
  1 25  1  0  0  0  0
  2  3  1  0  0  0  0
  3  4  1  0  0  0  0
  3 26  1  0  0  0  0
  3 27  1  0  0  0  0
  4  5  1  0  0  0  0
  4 28  1  0  0  0  0
  4 29  1  0  0  0  0
  5 22  1  0  0  0  0
  5  6  1  0  0  0  0
  6  7  1  0  0  0  0
  6 16  2  0  0  0  0
  7  8  1  0  0  0  0
  8  9  1  0  0  0  0
  8 30  1  0  0  0  0
  8 31  1  0  0  0  0
  9 15  1  0  0  0  0
  9 10  2  0  0  0  0
 10 11  1  0  0  0  0
 10 32  1  0  0  0  0
 11 12  2  0  0  0  0
 11 33  1  0  0  0  0
 12 13  1  0  0  0  0
 12 34  1  0  0  0  0
 13 14  1  0  0  0  0
 13 15  2  0  0  0  0
 14 35  1  0  0  0  0
 14 36  1  0  0  0  0
 15 41  1  0  0  0  0
 16 17  1  0  0  0  0
 17 22  2  0  0  0  0
 17 18  1  0  0  0  0
 18 19  2  0  0  0  0
 18 37  1  0  0  0  0
 19 20  1  0  0  0  0
 19 38  1  0  0  0  0
 20 21  2  0  0  0  0
 20 39  1  0  0  0  0
 21 22  1  0  0  0  0
 21 40  1  0  0  0  0
M  CHG  1  15   1
M  END
> <s_m_source_file>
AV-unprocessed.smi

> <i_m_source_file_index>
2593

> <i_lp_mmshare_version>
43012

> <i_f3d_flags>
0

> <s_epik_input>
W2NIXTFbY0hdW2NIXVtjSF1jKGMxMiluKFtDSDJdW0NIMl1PW0NIM10pYyhuMilTW0NIMl1jM1tjSF1bY0hdW2NIXWMobjMpW05IMl0=

> <s_epik_cmdline>
J2VwaWtfcHl0aG9uJywgJy1waCcsICc3LjAnLCAnLXRuJywgJzgnLCAnLW1hJywgJzIwMCcsICctbWV0YWxfYmluZGluZycsICctaW1hZScsICc8aW5maWxlLm1hZT4nLCAnLW9tYWUnLCAnPG91dGZpbGUubWFlPic=

> <r_epik_Ionization_Penalty>
2.18774

> <r_epik_Ionization_Penalty_Charging>
2.15599

> <r_epik_Ionization_Penalty_Neutral>
0.0317477

> <r_epik_State_Penalty>
2.32894

> <r_epik_Charging_Adjusted_Penalty>
4.48493

> <i_epik_Tot_Q>
1

> <i_epik_Tot_abs_Q>
1

> <r_epik_Metal_State_Penalty>
2.33496

> <b_epik_Metal_Only>
0

> <s_lp_Force_Field>
OPLS_2005

> <r_lp_Energy>
14.8683

> <b_lp_Chiralities_Consistent>
1

> <s_lp_Variant>
AV-unprocessed.smi:2593-3

> <Gold.Version>
5.8.1

> <Gold.Id.Protein>
6NUR|6NUR_protein|mol2

> <Gold.PLP.Fitness>
55.1365

> <Gold.PLP.PLP>
-43.5586

> <Gold.PLP.part.hbond>
-4.0000

> <Gold.PLP.part.metal>
0.0000

> <Gold.PLP.part.buried>
-2.3220

> <Gold.PLP.part.nonpolar>
-37.7017

> <Gold.PLP.part.repulsive>
0.1682

> <Gold.PLP.ligand.clash>
0.0000

> <Gold.PLP.ligand.torsion>
1.2637

> <Gold.PLP.Chemscore.Hbond>
4.6635

> <Gold.PLP.Chemscore.CHOScore>
0.0000

> <Gold.PLP.Chemscore.Metal>
0.0000

> <Gold.Chemscore.Hbonds>
donor molecule, donor type, donor heavy atom, donor atom, acceptor molecule, acceptor atom, score
      L1  H    14    36       P1  7948  1.76
      L1  H    15    41       P1  7948  1.92

> <Gold.PLP.Chemscore.Internal.Correction>
0.1148

> <Gold.Rescore>
     Score         DG    S(hbond)    S(metal)    S(lipo)     H(rot)  DE(clash)    DE(int)     intcor
     20.70     -21.73       2.70        0.00     110.23       2.21       0.12       0.91       ----

> <Gold.Chemscore.Fitness>
20.6989

> <Gold.Chemscore.DG>
-21.7313

> <Gold.Chemscore.ZeroCoef>
-5.4800

> <Gold.Chemscore.Hbond>
2.6961

> <Gold.Chemscore.Metal>
0.0000

> <Gold.Chemscore.Lipo>
110.2314

> <Gold.Chemscore.Internal_Hbond>
0.0000

> <Gold.Chemscore.DEClash>
0.1214

> <Gold.Chemscore.DEInternal>
0.9110

> <Gold.Chemscore.Rot>
2.2073

> <Gold.Chemscore.Internal.Correction>
   9.000000E+99

> <Gold.Chemscore.Hbonds>
donor molecule, donor type, donor heavy atom, donor atom, acceptor molecule, acceptor atom, score
      L1  H    14    36       P1  7948  0.81
      L1  H    15    41       P1  7948  0.87

> <Gold.Chemscore.Hbond.Weighted>
-9.0050

> <Gold.Chemscore.Metal.Weighted>
-0.0000

> <Gold.Chemscore.Lipo.Weighted>
-12.8971

> <Gold.Chemscore.Internal_Hbond.Weighted>
0.0000

> <Gold.Chemscore.DEClash.Weighted>
0.1214

> <Gold.Chemscore.DEInternal.Weighted>
0.9110

> <Gold.Chemscore.Rot.Weighted>
5.6508

> <Gold.Chemscore.Internal.Correction.Weighted>
   9.000000E+99

> <Gold.Protein.RotatedTorsions>
[ 6907 6896 6895 6894 ] final  146.24 input  -60.11 | X-H torsion
[ 7974 7965 7964 7962 ] final   85.29 input  175.53 | X-H torsion
[ 8008 7997 7996 7995 ] final  -46.28 input   59.86 | X-H torsion
[ 10167 10162 10161 10158 ] final   13.93 input  -65.29 | X-H torsion
[ 10718 10713 10712 10709 ] final -140.80 input   66.30 | X-H torsion
[ 10763 10752 10751 10750 ] final -137.56 input  -60.55 | X-H torsion
[ 11005 11000 10999 10996 ] final   52.30 input  -57.11 | X-H torsion

> <Gold.Protein.ActiveResidues>
 VAL166  LYS551  ARG553  GLY616  TRP617  ASP618  TYR619  PRO620  LYS621  CYS622 
 ASP623  PHE694  ASN695  SER759  ASP760  ASP761  ALA762  ILE779  LEU786  VAL792 
 PHE793  MET794  SER795  GLU796  ALA797  LYS798  CYS799  TRP800  GLU811  SER814 

> <Gold.Protein.RotatedAtoms>
  152.1705  133.4640  159.4906 H   0  0  0  0  0  0  0  0  0  0  0  0  # atno 6907 bound_to 6896
  150.6919  134.1959  159.4312 H   0  0  0  0  0  0  0  0  0  0  0  0  # atno 6908 bound_to 6896
  151.9866  135.0001  160.0610 H   0  0  0  0  0  0  0  0  0  0  0  0  # atno 6909 bound_to 6896
  145.5875  139.2333  143.2318 H   0  0  0  0  0  0  0  0  0  0  0  0  # atno 7974 bound_to 7965
  154.4006  140.1375  156.3985 H   0  0  0  0  0  0  0  0  0  0  0  0  # atno 8008 bound_to 7997
  155.7846  140.3480  155.5295 H   0  0  0  0  0  0  0  0  0  0  0  0  # atno 8009 bound_to 7997
  155.8640  140.0961  157.1585 H   0  0  0  0  0  0  0  0  0  0  0  0  # atno 8010 bound_to 7997
  140.5970  143.8682  150.6927 H   0  0  0  0  0  0  0  0  0  0  0  0  # atno 10167 bound_to 10162
  156.3266  130.7563  151.1672 H   0  0  0  0  0  0  0  0  0  0  0  0  # atno 10718 bound_to 10713
  154.8659  135.3638  154.5242 H   0  0  0  0  0  0  0  0  0  0  0  0  # atno 10763 bound_to 10752
  153.5871  135.7016  153.5444 H   0  0  0  0  0  0  0  0  0  0  0  0  # atno 10764 bound_to 10752
  153.3406  135.4099  155.1531 H   0  0  0  0  0  0  0  0  0  0  0  0  # atno 10765 bound_to 10752
  140.0861  134.5273  155.8898 H   0  0  0  0  0  0  0  0  0  0  0  0  # atno 11005 bound_to 11000
  146.1671  140.6701  142.9250 LP  0  0  0  0  0  0  0  0  0  0  0  0  # atno 17320 bound_to 7965
  144.7366  140.4826  143.6899 LP  0  0  0  0  0  0  0  0  0  0  0  0  # atno 17321 bound_to 7965
  140.2218  143.3803  152.1636 LP  0  0  0  0  0  0  0  0  0  0  0  0  # atno 17342 bound_to 10162
  139.5265  144.7108  151.5211 LP  0  0  0  0  0  0  0  0  0  0  0  0  # atno 17343 bound_to 10162
  157.7422  131.0493  150.5039 LP  0  0  0  0  0  0  0  0  0  0  0  0  # atno 17370 bound_to 10713
  156.5199  130.4159  149.6256 LP  0  0  0  0  0  0  0  0  0  0  0  0  # atno 17371 bound_to 10713
  141.2063  133.6654  156.6232 LP  0  0  0  0  0  0  0  0  0  0  0  0  # atno 17394 bound_to 11000
  140.3419  134.7842  157.4404 LP  0  0  0  0  0  0  0  0  0  0  0  0  # atno 17395 bound_to 11000

$$$$
