AV-unprocessed.smi:346|AV-procd|sdf|2392|dock3
  -GOLD-   2262022323D 1   1.00000     0.00000
 Structure written by MMmdl.
 33 34  0  0  0  0  0  0  0  0  1 V2000
  152.2013  145.3800  159.7484 C   0  0  0  0  0  0  0  0  0  0  0  0
  151.7591  145.3470  158.4028 O   0  0  0  0  0  0  0  0  0  0  0  0
  152.3483  144.2916  157.6630 C   0  0  0  0  0  0  0  0  0  0  0  0
  151.3707  143.1110  157.6249 C   0  0  0  0  0  0  0  0  0  0  0  0
  151.9913  141.8842  158.0992 N   0  0  0  0  0  0  0  0  0  0  0  0
  152.1515  140.7169  157.4267 C   0  0  0  0  0  0  0  0  0  0  0  0
  151.5821  140.5324  155.7605 S   0  0  0  0  0  0  0  0  0  0  0  0
  152.6413  139.1640  155.1997 C   0  0  0  0  0  0  0  0  0  0  0  0
  151.8760  138.1306  154.3763 C   0  0  0  0  0  0  0  0  0  0  0  0
  151.2338  138.5694  153.2904 N   0  0  0  0  0  0  0  0  0  0  0  0
  151.8709  136.9477  154.7093 O   0  0  0  0  0  0  0  0  0  0  0  0
  152.7620  139.7454  158.1086 N   0  0  0  0  0  0  0  0  0  0  0  0
  153.0231  140.3378  159.3279 C   0  0  0  0  0  0  0  0  0  0  0  0
  153.6549  139.8234  160.4825 C   0  0  0  0  0  0  0  0  0  0  0  0
  153.8147  140.6304  161.6282 C   0  0  0  0  0  0  0  0  0  0  0  0
  154.5869  139.9858  163.0298 Cl  0  0  0  0  0  0  0  0  0  0  0  0
  153.3466  141.9608  161.6341 C   0  0  0  0  0  0  0  0  0  0  0  0
  152.7139  142.4923  160.4937 C   0  0  0  0  0  0  0  0  0  0  0  0
  152.5554  141.6809  159.3543 C   0  0  0  0  0  0  0  0  0  0  0  0
  151.7225  146.2083  160.2706 H   0  0  0  0  0  0  0  0  0  0  0  0
  153.2808  145.5249  159.8061 H   0  0  0  0  0  0  0  0  0  0  0  0
  151.9435  144.4580  160.2710 H   0  0  0  0  0  0  0  0  0  0  0  0
  152.5758  144.6269  156.6499 H   0  0  0  0  0  0  0  0  0  0  0  0
  153.2869  143.9870  158.1287 H   0  0  0  0  0  0  0  0  0  0  0  0
  150.5018  143.3257  158.2475 H   0  0  0  0  0  0  0  0  0  0  0  0
  150.9909  142.9573  156.6146 H   0  0  0  0  0  0  0  0  0  0  0  0
  153.4590  139.5602  154.5963 H   0  0  0  0  0  0  0  0  0  0  0  0
  153.0850  138.6739  156.0674 H   0  0  0  0  0  0  0  0  0  0  0  0
  150.7204  137.9210  152.7112 H   0  0  0  0  0  0  0  0  0  0  0  0
  151.2706  139.5490  153.0486 H   0  0  0  0  0  0  0  0  0  0  0  0
  154.0169  138.8059  160.4858 H   0  0  0  0  0  0  0  0  0  0  0  0
  153.4722  142.5745  162.5144 H   0  0  0  0  0  0  0  0  0  0  0  0
  152.3557  143.5108  160.4958 H   0  0  0  0  0  0  0  0  0  0  0  0
  1  2  1  0  0  0  0
  1 20  1  0  0  0  0
  1 21  1  0  0  0  0
  1 22  1  0  0  0  0
  2  3  1  0  0  0  0
  3  4  1  0  0  0  0
  3 23  1  0  0  0  0
  3 24  1  0  0  0  0
  4  5  1  0  0  0  0
  4 25  1  0  0  0  0
  4 26  1  0  0  0  0
  5 19  1  0  0  0  0
  5  6  1  0  0  0  0
  6  7  1  0  0  0  0
  6 12  2  0  0  0  0
  7  8  1  0  0  0  0
  8  9  1  0  0  0  0
  8 27  1  0  0  0  0
  8 28  1  0  0  0  0
  9 10  1  0  0  0  0
  9 11  2  0  0  0  0
 10 29  1  0  0  0  0
 10 30  1  0  0  0  0
 12 13  1  0  0  0  0
 13 19  2  0  0  0  0
 13 14  1  0  0  0  0
 14 15  2  0  0  0  0
 14 31  1  0  0  0  0
 15 16  1  0  0  0  0
 15 17  1  0  0  0  0
 17 18  2  0  0  0  0
 17 32  1  0  0  0  0
 18 19  1  0  0  0  0
 18 33  1  0  0  0  0
M  END
> <s_m_source_file>
AV-unprocessed.smi

> <i_m_source_file_index>
346

> <i_lp_mmshare_version>
43012

> <i_f3d_flags>
0

> <s_epik_input>
W2NIXTFjKENsKVtjSF1bY0hdYyhjMTIpbihbQ0gyXVtDSDJdT1tDSDNdKWMobjIpU1tDSDJdQyg9TylbTkgyXQ==

> <s_epik_cmdline>
J2VwaWtfcHl0aG9uJywgJy1waCcsICc3LjAnLCAnLXRuJywgJzgnLCAnLW1hJywgJzIwMCcsICctbWV0YWxfYmluZGluZycsICctaW1hZScsICc8aW5maWxlLm1hZT4nLCAnLW9tYWUnLCAnPG91dGZpbGUubWFlPic=

> <r_epik_Ionization_Penalty>
0.00801462

> <r_epik_Ionization_Penalty_Charging>
0

> <r_epik_Ionization_Penalty_Neutral>
0.00801462

> <r_epik_State_Penalty>
0.00601782

> <r_epik_Charging_Adjusted_Penalty>
0.00601782

> <i_epik_Tot_Q>
0

> <i_epik_Tot_abs_Q>
0

> <r_epik_Metal_State_Penalty>
0.00593415

> <b_epik_Metal_Only>
0

> <s_lp_Force_Field>
OPLS_2005

> <r_lp_Energy>
4.29965

> <b_lp_Chiralities_Consistent>
1

> <s_lp_Variant>
AV-unprocessed.smi:346-1

> <Gold.Version>
5.8.1

> <Gold.Id.Protein>
6NUR|6NUR_protein|mol2

> <Gold.PLP.Fitness>
53.5267

> <Gold.PLP.PLP>
-47.4075

> <Gold.PLP.part.hbond>
-4.4569

> <Gold.PLP.part.metal>
0.0000

> <Gold.PLP.part.buried>
-3.0352

> <Gold.PLP.part.nonpolar>
-39.9849

> <Gold.PLP.part.repulsive>
0.3926

> <Gold.PLP.ligand.clash>
0.0000

> <Gold.PLP.ligand.torsion>
1.2685

> <Gold.PLP.Chemscore.Hbond>
2.8770

> <Gold.PLP.Chemscore.CHOScore>
0.0000

> <Gold.PLP.Chemscore.Metal>
0.0000

> <Gold.Chemscore.Hbonds>
donor molecule, donor type, donor heavy atom, donor atom, acceptor molecule, acceptor atom, score
      L1  H    10    29       P1  7949  0.15
      P1  H  7997  8010       L1    12  0.26
      P1  H 10752 10764       L1    11  0.91

> <Gold.PLP.Chemscore.Internal.Correction>
0.0250

> <Gold.Rescore>
     Score         DG    S(hbond)    S(metal)    S(lipo)     H(rot)  DE(clash)    DE(int)     intcor
     15.53     -16.81       1.74        0.00     105.85       2.68       0.02       1.26       ----

> <Gold.Chemscore.Fitness>
15.5272

> <Gold.Chemscore.DG>
-16.8091

> <Gold.Chemscore.ZeroCoef>
-5.4800

> <Gold.Chemscore.Hbond>
1.7392

> <Gold.Chemscore.Metal>
0.0000

> <Gold.Chemscore.Lipo>
105.8495

> <Gold.Chemscore.Internal_Hbond>
0.0000

> <Gold.Chemscore.DEClash>
0.0174

> <Gold.Chemscore.DEInternal>
1.2645

> <Gold.Chemscore.Rot>
2.6814

> <Gold.Chemscore.Internal.Correction>
   9.000000E+99

> <Gold.Chemscore.Hbonds>
donor molecule, donor type, donor heavy atom, donor atom, acceptor molecule, acceptor atom, score
      L1  H    10    29       P1  7949  0.02
      P1  H 10752 10764       L1    11  0.89

> <Gold.Chemscore.Hbond.Weighted>
-5.8091

> <Gold.Chemscore.Metal.Weighted>
-0.0000

> <Gold.Chemscore.Lipo.Weighted>
-12.3844

> <Gold.Chemscore.Internal_Hbond.Weighted>
0.0000

> <Gold.Chemscore.DEClash.Weighted>
0.0174

> <Gold.Chemscore.DEInternal.Weighted>
1.2645

> <Gold.Chemscore.Rot.Weighted>
6.8644

> <Gold.Chemscore.Internal.Correction.Weighted>
   9.000000E+99

> <Gold.Protein.RotatedTorsions>
[ 6907 6896 6895 6894 ] final -152.42 input  -60.11 | X-H torsion
[ 7974 7965 7964 7962 ] final  -55.34 input  175.53 | X-H torsion
[ 8008 7997 7996 7995 ] final   47.80 input   59.86 | X-H torsion
[ 10167 10162 10161 10158 ] final   38.92 input  -65.29 | X-H torsion
[ 10718 10713 10712 10709 ] final  114.87 input   66.30 | X-H torsion
[ 10763 10752 10751 10750 ] final  -85.34 input  -60.55 | X-H torsion
[ 11005 11000 10999 10996 ] final  -28.52 input  -57.11 | X-H torsion

> <Gold.Protein.ActiveResidues>
 VAL166  LYS551  ARG553  GLY616  TRP617  ASP618  TYR619  PRO620  LYS621  CYS622 
 ASP623  PHE694  ASN695  SER759  ASP760  ASP761  ALA762  ILE779  LEU786  VAL792 
 PHE793  MET794  SER795  GLU796  ALA797  LYS798  CYS799  TRP800  GLU811  SER814 

> <Gold.Protein.RotatedAtoms>
  151.2276  133.4468  159.2602 H   0  0  0  0  0  0  0  0  0  0  0  0  # atno 6907 bound_to 6896
  151.0825  134.9867  159.8373 H   0  0  0  0  0  0  0  0  0  0  0  0  # atno 6908 bound_to 6896
  152.5426  134.2214  159.8842 H   0  0  0  0  0  0  0  0  0  0  0  0  # atno 6909 bound_to 6896
  145.8753  140.8186  142.9867 H   0  0  0  0  0  0  0  0  0  0  0  0  # atno 7974 bound_to 7965
  155.3750  140.3425  155.4244 H   0  0  0  0  0  0  0  0  0  0  0  0  # atno 8008 bound_to 7997
  156.1641  140.1610  156.8595 H   0  0  0  0  0  0  0  0  0  0  0  0  # atno 8009 bound_to 7997
  154.5168  140.0776  156.8079 H   0  0  0  0  0  0  0  0  0  0  0  0  # atno 8010 bound_to 7997
  140.3890  144.1878  150.6130 H   0  0  0  0  0  0  0  0  0  0  0  0  # atno 10167 bound_to 10162
  157.6256  131.1004  150.7247 H   0  0  0  0  0  0  0  0  0  0  0  0  # atno 10718 bound_to 10713
  154.6100  135.5488  153.7463 H   0  0  0  0  0  0  0  0  0  0  0  0  # atno 10763 bound_to 10752
  153.0191  135.6387  154.1592 H   0  0  0  0  0  0  0  0  0  0  0  0  # atno 10764 bound_to 10752
  154.1530  135.2901  155.3110 H   0  0  0  0  0  0  0  0  0  0  0  0  # atno 10765 bound_to 10752
  140.9216  133.7395  156.0809 H   0  0  0  0  0  0  0  0  0  0  0  0  # atno 11005 bound_to 11000
  144.6726  140.1300  143.7444 LP  0  0  0  0  0  0  0  0  0  0  0  0  # atno 17320 bound_to 7965
  145.9089  139.2475  143.1449 LP  0  0  0  0  0  0  0  0  0  0  0  0  # atno 17321 bound_to 7965
  140.4860  143.2363  151.8888 LP  0  0  0  0  0  0  0  0  0  0  0  0  # atno 17342 bound_to 10162
  139.4790  144.5218  151.8790 LP  0  0  0  0  0  0  0  0  0  0  0  0  # atno 17343 bound_to 10162
  156.7596  130.4794  149.5439 LP  0  0  0  0  0  0  0  0  0  0  0  0  # atno 17370 bound_to 10713
  156.1426  130.6255  151.0488 LP  0  0  0  0  0  0  0  0  0  0  0  0  # atno 17371 bound_to 10713
  140.7981  134.3541  157.5447 LP  0  0  0  0  0  0  0  0  0  0  0  0  # atno 17394 bound_to 11000
  139.8776  134.9181  156.3194 LP  0  0  0  0  0  0  0  0  0  0  0  0  # atno 17395 bound_to 11000

$$$$
