AV-unprocessed.smi:1621|AV-procd|sdf|6493|dock6
  -GOLD-   22720 7153D 1   1.00000     0.00000
 Structure written by MMmdl.
 39 40  0  0  0  0  0  0  0  0  2 V2000
  150.2683  141.7527  155.4713 C   0  0  0  0  0  0  0  0  0  0  0  0
  149.1400  140.9776  154.9123 N   0  3  2  0  0  0  0  0  0  0  0  0
  149.5686  139.6598  154.3821 C   0  0  0  0  0  0  0  0  0  0  0  0
  148.3604  138.8295  153.9172 C   0  0  0  0  0  0  0  0  0  0  0  0
  147.5269  139.5905  152.8666 C   0  0  1  0  0  0  0  0  0  0  0  0
  146.2846  138.8006  152.4023 C   0  0  0  0  0  0  0  0  0  0  0  0
  146.6167  137.4693  151.9034 N   0  0  0  0  0  0  0  0  0  0  0  0
  145.7255  136.5566  151.4897 C   0  0  0  0  0  0  0  0  0  0  0  0
  144.5115  136.7570  151.4800 O   0  0  0  0  0  0  0  0  0  0  0  0
  146.3375  135.4216  151.1072 N   0  0  0  0  0  0  0  0  0  0  0  0
  145.7722  134.2083  150.6244 C   0  0  0  0  0  0  0  0  0  0  0  0
  144.4025  134.2207  150.2872 C   0  0  0  0  0  0  0  0  0  0  0  0
  143.8061  133.0349  149.8140 C   0  0  0  0  0  0  0  0  0  0  0  0
  144.4778  131.8737  149.6702 N   0  0  0  0  0  0  0  0  0  0  0  0
  145.7857  131.8594  150.0029 C   0  0  0  0  0  0  0  0  0  0  0  0
  146.4782  132.9884  150.4850 C   0  0  0  0  0  0  0  0  0  0  0  0
  147.1300  140.9622  153.4411 C   0  0  0  0  0  0  0  0  0  0  0  0
  148.3625  141.7516  153.9134 C   0  0  0  0  0  0  0  0  0  0  0  0
  150.9974  141.9962  154.6975 H   0  0  0  0  0  0  0  0  0  0  0  0
  150.7748  141.1858  156.2530 H   0  0  0  0  0  0  0  0  0  0  0  0
  149.9141  142.6842  155.9139 H   0  0  0  0  0  0  0  0  0  0  0  0
  150.2641  139.8069  153.5541 H   0  0  0  0  0  0  0  0  0  0  0  0
  150.1081  139.1130  155.1566 H   0  0  0  0  0  0  0  0  0  0  0  0
  148.7137  137.8818  153.5099 H   0  0  0  0  0  0  0  0  0  0  0  0
  147.7355  138.5824  154.7768 H   0  0  0  0  0  0  0  0  0  0  0  0
  148.1605  139.7682  151.9961 H   0  0  0  0  0  0  0  0  0  0  0  0
  145.5852  138.6841  153.2307 H   0  0  0  0  0  0  0  0  0  0  0  0
  145.7504  139.3552  151.6290 H   0  0  0  0  0  0  0  0  0  0  0  0
  147.5954  137.2222  151.8839 H   0  0  0  0  0  0  0  0  0  0  0  0
  147.3403  135.4064  151.2202 H   0  0  0  0  0  0  0  0  0  0  0  0
  143.8146  135.1218  150.3840 H   0  0  0  0  0  0  0  0  0  0  0  0
  142.7601  133.0191  149.5456 H   0  0  0  0  0  0  0  0  0  0  0  0
  146.2973  130.9155  149.8858 H   0  0  0  0  0  0  0  0  0  0  0  0
  147.5206  132.8866  150.7412 H   0  0  0  0  0  0  0  0  0  0  0  0
  146.5932  141.5412  152.6887 H   0  0  0  0  0  0  0  0  0  0  0  0
  146.4408  140.8291  154.2763 H   0  0  0  0  0  0  0  0  0  0  0  0
  148.0416  142.6966  154.3537 H   0  0  0  0  0  0  0  0  0  0  0  0
  149.0003  141.9978  153.0629 H   0  0  0  0  0  0  0  0  0  0  0  0
  148.5129  140.7890  155.6814 H   0  0  0  0  0  0  0  0  0  0  0  0
  1  2  1  0  0  0  0
  1 19  1  0  0  0  0
  1 20  1  0  0  0  0
  1 21  1  0  0  0  0
  2 18  1  0  0  0  0
  2  3  1  0  0  0  0
  2 39  1  0  0  0  0
  3  4  1  0  0  0  0
  3 22  1  0  0  0  0
  3 23  1  0  0  0  0
  4  5  1  0  0  0  0
  4 24  1  0  0  0  0
  4 25  1  0  0  0  0
  5  6  1  0  0  0  0
  5 17  1  0  0  0  0
  5 26  1  0  0  0  0
  6  7  1  0  0  0  0
  6 27  1  0  0  0  0
  6 28  1  0  0  0  0
  7  8  1  0  0  0  0
  7 29  1  0  0  0  0
  8  9  2  0  0  0  0
  8 10  1  0  0  0  0
 10 11  1  0  0  0  0
 10 30  1  0  0  0  0
 11 16  1  0  0  0  0
 11 12  2  0  0  0  0
 12 13  1  0  0  0  0
 12 31  1  0  0  0  0
 13 14  2  0  0  0  0
 13 32  1  0  0  0  0
 14 15  1  0  0  0  0
 15 16  2  0  0  0  0
 15 33  1  0  0  0  0
 16 34  1  0  0  0  0
 17 18  1  0  0  0  0
 17 35  1  0  0  0  0
 17 36  1  0  0  0  0
 18 37  1  0  0  0  0
 18 38  1  0  0  0  0
M  CHG  1   2   1
M  END
> <s_m_source_file>
AV-unprocessed.smi

> <i_m_source_file_index>
1621

> <i_lp_mmshare_version>
43012

> <i_f3d_flags>
0

> <s_epik_input>
W0NIM11OMVtDSDJdW0NIMl1bQ0hdKFtDSDJdW0NIMl0xKVtDSDJdW05IXUMoPU8pW05IXWMyW2NIXVtjSF1uW2NIXVtjSF0y

> <s_epik_cmdline>
J2VwaWtfcHl0aG9uJywgJy1waCcsICc3LjAnLCAnLXRuJywgJzgnLCAnLW1hJywgJzIwMCcsICctbWV0YWxfYmluZGluZycsICctaW1hZScsICc8aW5maWxlLm1hZT4nLCAnLW9tYWUnLCAnPG91dGZpbGUubWFlPic=

> <r_epik_Ionization_Penalty>
0.107254

> <r_epik_Ionization_Penalty_Charging>
0.00106265

> <r_epik_Ionization_Penalty_Neutral>
0.106191

> <r_epik_State_Penalty>
0.0960133

> <r_epik_Charging_Adjusted_Penalty>
0.0970759

> <i_epik_Tot_Q>
1

> <i_epik_Tot_abs_Q>
1

> <r_epik_Metal_State_Penalty>
0.0813061

> <b_epik_Metal_Only>
0

> <s_lp_Force_Field>
OPLS_2005

> <r_lp_Energy>
22.3351

> <b_lp_Chiralities_Consistent>
1

> <s_lp_Variant>
AV-unprocessed.smi:1621-1

> <Gold.Version>
5.8.1

> <Gold.Id.Protein>
6NUR|6NUR_protein|mol2

> <Gold.PLP.Fitness>
45.3145

> <Gold.PLP.PLP>
-33.8860

> <Gold.PLP.part.hbond>
-2.9227

> <Gold.PLP.part.metal>
0.0000

> <Gold.PLP.part.buried>
-2.3622

> <Gold.PLP.part.nonpolar>
-29.0146

> <Gold.PLP.part.repulsive>
0.5878

> <Gold.PLP.ligand.clash>
0.0000

> <Gold.PLP.ligand.torsion>
0.0439

> <Gold.PLP.Chemscore.Hbond>
2.0998

> <Gold.PLP.Chemscore.CHOScore>
1.7379

> <Gold.PLP.Chemscore.Metal>
0.0000

> <Gold.Chemscore.Hbonds>
donor molecule, donor type, donor heavy atom, donor atom, acceptor molecule, acceptor atom, score
      L1  H     7    29       P1  7948  1.00
      L1  H    10    30       P1  7948  1.00
      P1  H 10785 10796       L1    14  0.13
      L1  C    13    32       P1 10186  1.00
      L1  C    15    33       P1 10747  0.47

> <Gold.PLP.Chemscore.Internal.Correction>
0.0031

> <Gold.Rescore>
     Score         DG    S(hbond)    S(metal)    S(lipo)     H(rot)  DE(clash)    DE(int)     intcor
     17.10     -18.93       1.98        0.00      85.64       1.25       0.38       1.46       ----

> <Gold.Chemscore.Fitness>
17.0959

> <Gold.Chemscore.DG>
-18.9327

> <Gold.Chemscore.ZeroCoef>
-5.4800

> <Gold.Chemscore.Hbond>
1.9845

> <Gold.Chemscore.Metal>
0.0000

> <Gold.Chemscore.Lipo>
85.6396

> <Gold.Chemscore.Internal_Hbond>
0.0000

> <Gold.Chemscore.DEClash>
0.3805

> <Gold.Chemscore.DEInternal>
1.4563

> <Gold.Chemscore.Rot>
1.2482

> <Gold.Chemscore.Internal.Correction>
   9.000000E+99

> <Gold.Chemscore.Hbonds>
donor molecule, donor type, donor heavy atom, donor atom, acceptor molecule, acceptor atom, score
      L1  H     7    29       P1  7948  0.99
      L1  H    10    30       P1  7948  0.75
      P1  H 10785 10796       L1    14  0.12

> <Gold.Chemscore.Hbond.Weighted>
-6.6283

> <Gold.Chemscore.Metal.Weighted>
-0.0000

> <Gold.Chemscore.Lipo.Weighted>
-10.0198

> <Gold.Chemscore.Internal_Hbond.Weighted>
0.0000

> <Gold.Chemscore.DEClash.Weighted>
0.3805

> <Gold.Chemscore.DEInternal.Weighted>
1.4563

> <Gold.Chemscore.Rot.Weighted>
3.1954

> <Gold.Chemscore.Internal.Correction.Weighted>
   9.000000E+99

> <Gold.Protein.RotatedTorsions>
[ 6907 6896 6895 6894 ] final   78.28 input  -60.11 | X-H torsion
[ 7974 7965 7964 7962 ] final  -89.63 input  175.53 | X-H torsion
[ 8008 7997 7996 7995 ] final   -4.49 input   59.86 | X-H torsion
[ 10167 10162 10161 10158 ] final  -33.97 input  -65.29 | X-H torsion
[ 10718 10713 10712 10709 ] final   41.93 input   66.30 | X-H torsion
[ 10763 10752 10751 10750 ] final  147.22 input  -60.55 | X-H torsion
[ 11005 11000 10999 10996 ] final   21.19 input  -57.11 | X-H torsion

> <Gold.Protein.ActiveResidues>
 VAL166  LYS551  ARG553  GLY616  TRP617  ASP618  TYR619  PRO620  LYS621  CYS622 
 ASP623  PHE694  ASN695  SER759  ASP760  ASP761  ALA762  ILE779  LEU786  VAL792 
 PHE793  MET794  SER795  GLU796  ALA797  LYS798  CYS799  TRP800  GLU811  SER814 

> <Gold.Protein.RotatedAtoms>
  152.5153  134.3688  159.9310 H   0  0  0  0  0  0  0  0  0  0  0  0  # atno 6907 bound_to 6896
  151.3642  133.3872  159.2700 H   0  0  0  0  0  0  0  0  0  0  0  0  # atno 6908 bound_to 6896
  150.9628  134.9032  159.7799 H   0  0  0  0  0  0  0  0  0  0  0  0  # atno 6909 bound_to 6896
  145.4373  140.9558  143.2095 H   0  0  0  0  0  0  0  0  0  0  0  0  # atno 7974 bound_to 7965
  154.6137  140.2482  155.7636 H   0  0  0  0  0  0  0  0  0  0  0  0  # atno 8008 bound_to 7997
  156.2386  140.2941  156.0331 H   0  0  0  0  0  0  0  0  0  0  0  0  # atno 8009 bound_to 7997
  155.2009  140.0394  157.2907 H   0  0  0  0  0  0  0  0  0  0  0  0  # atno 8010 bound_to 7997
  140.7194  143.3581  151.2018 H   0  0  0  0  0  0  0  0  0  0  0  0  # atno 10167 bound_to 10162
  157.3992  130.7850  149.7334 H   0  0  0  0  0  0  0  0  0  0  0  0  # atno 10718 bound_to 10713
  154.0348  135.2894  155.3363 H   0  0  0  0  0  0  0  0  0  0  0  0  # atno 10763 bound_to 10752
  154.6966  135.5205  153.8470 H   0  0  0  0  0  0  0  0  0  0  0  0  # atno 10764 bound_to 10752
  153.0625  135.6619  154.0557 H   0  0  0  0  0  0  0  0  0  0  0  0  # atno 10765 bound_to 10752
  140.3943  134.1785  155.7663 H   0  0  0  0  0  0  0  0  0  0  0  0  # atno 11005 bound_to 11000
  144.8144  139.5903  143.7015 LP  0  0  0  0  0  0  0  0  0  0  0  0  # atno 17320 bound_to 7965
  146.2575  139.6336  142.9385 LP  0  0  0  0  0  0  0  0  0  0  0  0  # atno 17321 bound_to 7965
  139.7127  143.9350  152.2954 LP  0  0  0  0  0  0  0  0  0  0  0  0  # atno 17342 bound_to 10162
  139.9081  144.6873  150.8592 LP  0  0  0  0  0  0  0  0  0  0  0  0  # atno 17343 bound_to 10162
  155.9818  130.4015  150.3449 LP  0  0  0  0  0  0  0  0  0  0  0  0  # atno 17370 bound_to 10713
  157.1574  131.0336  151.2857 LP  0  0  0  0  0  0  0  0  0  0  0  0  # atno 17371 bound_to 10713
  141.1879  133.8270  157.1013 LP  0  0  0  0  0  0  0  0  0  0  0  0  # atno 17394 bound_to 11000
  140.0383  134.9867  157.0913 LP  0  0  0  0  0  0  0  0  0  0  0  0  # atno 17395 bound_to 11000

$$$$
