AV-unprocessed.smi:2451|AV-procd|sdf|9671|dock1
  -GOLD-   2272013313D 1   1.00000     0.00000
 Structure written by MMmdl.
 38 39  0  0  0  0  0  0  0  0  1 V2000
  152.2018  144.9127  159.8706 C   0  0  0  0  0  0  0  0  0  0  0  0
  152.2291  143.6750  158.9550 C   0  0  2  0  0  0  0  0  0  0  0  0
  151.0025  143.6976  158.0211 C   0  0  0  0  0  0  0  0  0  0  0  0
  150.9987  142.5047  157.0594 C   0  0  0  0  0  0  0  0  0  0  0  0
  151.0207  141.1884  157.8405 C   0  0  0  0  0  0  0  0  0  0  0  0
  152.2322  141.1187  158.7864 C   0  0  2  0  0  0  0  0  0  0  0  0
  152.1464  139.8741  159.5570 N   0  0  0  0  0  0  0  0  0  0  0  0
  152.6741  138.4047  158.8250 S   0  0  0  0  0  0  0  0  0  0  0  0
  153.2807  138.7468  157.5295 O   0  0  0  0  0  0  0  0  0  0  0  0
  153.4537  137.6620  159.8277 O   0  0  0  0  0  0  0  0  0  0  0  0
  151.0878  137.5145  158.5376 C   0  0  0  0  0  0  0  0  0  0  0  0
  151.0010  137.0904  157.0999 C   0  0  0  0  0  0  0  0  0  0  0  0
  150.0982  137.5444  156.0988 C   0  0  0  0  0  0  0  0  0  0  0  0
  150.4659  136.8340  154.9926 C   0  0  0  0  0  0  0  0  0  0  0  0
  151.5079  136.0137  155.2797 O   0  0  0  0  0  0  0  0  0  0  0  0
  151.8441  136.1860  156.6273 N   0  0  0  0  0  0  0  0  0  0  0  0
  152.3150  142.3370  159.7440 C   0  0  1  0  0  0  0  0  0  0  0  0
  153.5969  142.2659  160.6026 C   0  0  0  0  0  0  0  0  0  0  0  0
  151.3870  144.8540  160.5926 H   0  0  0  0  0  0  0  0  0  0  0  0
  152.0639  145.8256  159.2905 H   0  0  0  0  0  0  0  0  0  0  0  0
  153.1334  145.0319  160.4228 H   0  0  0  0  0  0  0  0  0  0  0  0
  153.1176  143.7531  158.3267 H   0  0  0  0  0  0  0  0  0  0  0  0
  150.0861  143.6917  158.6134 H   0  0  0  0  0  0  0  0  0  0  0  0
  150.9894  144.6232  157.4443 H   0  0  0  0  0  0  0  0  0  0  0  0
  150.1161  142.5438  156.4203 H   0  0  0  0  0  0  0  0  0  0  0  0
  151.8649  142.5581  156.3986 H   0  0  0  0  0  0  0  0  0  0  0  0
  150.0968  141.0952  158.4130 H   0  0  0  0  0  0  0  0  0  0  0  0
  151.0394  140.3489  157.1443 H   0  0  0  0  0  0  0  0  0  0  0  0
  153.1378  141.0989  158.1782 H   0  0  0  0  0  0  0  0  0  0  0  0
  151.2272  139.7667  159.9853 H   0  0  0  0  0  0  0  0  0  0  0  0
  151.0584  136.6484  159.1985 H   0  0  0  0  0  0  0  0  0  0  0  0
  150.2643  138.1731  158.8150 H   0  0  0  0  0  0  0  0  0  0  0  0
  149.3047  138.2721  156.1811 H   0  0  0  0  0  0  0  0  0  0  0  0
  150.1021  136.8020  153.9762 H   0  0  0  0  0  0  0  0  0  0  0  0
  151.4580  142.2920  160.4184 H   0  0  0  0  0  0  0  0  0  0  0  0
  154.4912  142.3624  159.9863 H   0  0  0  0  0  0  0  0  0  0  0  0
  153.6719  141.3213  161.1410 H   0  0  0  0  0  0  0  0  0  0  0  0
  153.6239  143.0490  161.3591 H   0  0  0  0  0  0  0  0  0  0  0  0
  1  2  1  0  0  0  0
  1 19  1  0  0  0  0
  1 20  1  0  0  0  0
  1 21  1  0  0  0  0
  2 17  1  0  0  0  0
  2  3  1  0  0  0  0
  2 22  1  0  0  0  0
  3  4  1  0  0  0  0
  3 23  1  0  0  0  0
  3 24  1  0  0  0  0
  4  5  1  0  0  0  0
  4 25  1  0  0  0  0
  4 26  1  0  0  0  0
  5  6  1  0  0  0  0
  5 27  1  0  0  0  0
  5 28  1  0  0  0  0
  6  7  1  0  0  0  0
  6 17  1  0  0  0  0
  6 29  1  0  0  0  0
  7  8  1  0  0  0  0
  7 30  1  0  0  0  0
  8  9  2  0  0  0  0
  8 10  2  0  0  0  0
  8 11  1  0  0  0  0
 11 12  1  0  0  0  0
 11 31  1  0  0  0  0
 11 32  1  0  0  0  0
 12 16  2  0  0  0  0
 12 13  1  0  0  0  0
 13 14  2  0  0  0  0
 13 33  1  0  0  0  0
 14 15  1  0  0  0  0
 14 34  1  0  0  0  0
 15 16  1  0  0  0  0
 17 18  1  0  0  0  0
 17 35  1  0  0  0  0
 18 36  1  0  0  0  0
 18 37  1  0  0  0  0
 18 38  1  0  0  0  0
M  END
> <s_m_source_file>
AV-unprocessed.smi

> <i_m_source_file_index>
2451

> <i_lp_mmshare_version>
43012

> <i_f3d_flags>
0

> <s_epik_input>
W0NIM11bQ0BASF0xW0NIMl1bQ0gyXVtDSDJdW0NASF0oW0NASF0xW0NIM10pW05IXVMoPU8pKD1PKVtDSDJdYzJbY0hdW2NIXW9uMg==

> <s_epik_cmdline>
J2VwaWtfcHl0aG9uJywgJy1waCcsICc3LjAnLCAnLXRuJywgJzgnLCAnLW1hJywgJzIwMCcsICctbWV0YWxfYmluZGluZycsICctaW1hZScsICc8aW5maWxlLm1hZT4nLCAnLW9tYWUnLCAnPG91dGZpbGUubWFlPic=

> <r_lp_tautomer_probability>
1

> <r_epik_Ionization_Penalty>
8.73668e-05

> <r_epik_Ionization_Penalty_Charging>
0

> <r_epik_Ionization_Penalty_Neutral>
8.73668e-05

> <r_epik_State_Penalty>
-0

> <r_epik_Charging_Adjusted_Penalty>
0

> <i_epik_Tot_Q>
0

> <i_epik_Tot_abs_Q>
0

> <r_epik_Metal_State_Penalty>
0.0716439

> <b_epik_Metal_Only>
0

> <s_lp_Force_Field>
OPLS_2005

> <r_lp_Energy>
6.58047

> <b_lp_Chiralities_Consistent>
1

> <s_lp_Variant>
AV-unprocessed.smi:2451-3

> <Gold.Version>
5.8.1

> <Gold.Id.Protein>
6NUR|6NUR_protein|mol2

> <Gold.PLP.Fitness>
39.6042

> <Gold.PLP.PLP>
-31.3993

> <Gold.PLP.part.hbond>
-2.5790

> <Gold.PLP.part.metal>
0.0000

> <Gold.PLP.part.buried>
-4.8254

> <Gold.PLP.part.nonpolar>
-25.4275

> <Gold.PLP.part.repulsive>
0.0989

> <Gold.PLP.ligand.clash>
0.0000

> <Gold.PLP.ligand.torsion>
0.5652

> <Gold.PLP.Chemscore.Hbond>
2.0000

> <Gold.PLP.Chemscore.CHOScore>
1.0636

> <Gold.PLP.Chemscore.Metal>
0.0000

> <Gold.Chemscore.Hbonds>
donor molecule, donor type, donor heavy atom, donor atom, acceptor molecule, acceptor atom, score
      P1  H  7997  8010       L1     9  1.00
      P1  H 10752 10763       L1    15  1.00
      L1  C    14    34       P1  7948  1.00
      L1  C    14    34       P1  7949  0.04

> <Gold.PLP.Chemscore.Internal.Correction>
0.1445

> <Gold.Rescore>
     Score         DG    S(hbond)    S(metal)    S(lipo)     H(rot)  DE(clash)    DE(int)     intcor
     18.74     -19.46       1.93        0.00     100.58       1.66       0.04       0.68       ----

> <Gold.Chemscore.Fitness>
18.7412

> <Gold.Chemscore.DG>
-19.4596

> <Gold.Chemscore.ZeroCoef>
-5.4800

> <Gold.Chemscore.Hbond>
1.9335

> <Gold.Chemscore.Metal>
0.0000

> <Gold.Chemscore.Lipo>
100.5831

> <Gold.Chemscore.Internal_Hbond>
0.0000

> <Gold.Chemscore.DEClash>
0.0418

> <Gold.Chemscore.DEInternal>
0.6766

> <Gold.Chemscore.Rot>
1.6588

> <Gold.Chemscore.Internal.Correction>
   9.000000E+99

> <Gold.Chemscore.Hbonds>
donor molecule, donor type, donor heavy atom, donor atom, acceptor molecule, acceptor atom, score
      P1  H  7997  8010       L1     9  1.00
      P1  H 10752 10763       L1    15  0.25

> <Gold.Chemscore.Hbond.Weighted>
-6.4580

> <Gold.Chemscore.Metal.Weighted>
-0.0000

> <Gold.Chemscore.Lipo.Weighted>
-11.7682

> <Gold.Chemscore.Internal_Hbond.Weighted>
0.0000

> <Gold.Chemscore.DEClash.Weighted>
0.0418

> <Gold.Chemscore.DEInternal.Weighted>
0.6766

> <Gold.Chemscore.Rot.Weighted>
4.2466

> <Gold.Chemscore.Internal.Correction.Weighted>
   9.000000E+99

> <Gold.Protein.RotatedTorsions>
[ 6907 6896 6895 6894 ] final   36.97 input  -60.11 | X-H torsion
[ 7974 7965 7964 7962 ] final  -94.66 input  175.53 | X-H torsion
[ 8008 7997 7996 7995 ] final   47.04 input   59.86 | X-H torsion
[ 10167 10162 10161 10158 ] final -131.99 input  -65.29 | X-H torsion
[ 10718 10713 10712 10709 ] final  118.92 input   66.30 | X-H torsion
[ 10763 10752 10751 10750 ] final   65.07 input  -60.55 | X-H torsion
[ 11005 11000 10999 10996 ] final  124.66 input  -57.11 | X-H torsion

> <Gold.Protein.ActiveResidues>
 VAL166  LYS551  ARG553  GLY616  TRP617  ASP618  TYR619  PRO620  LYS621  CYS622 
 ASP623  PHE694  ASN695  SER759  ASP760  ASP761  ALA762  ILE779  LEU786  VAL792 
 PHE793  MET794  SER795  GLU796  ALA797  LYS798  CYS799  TRP800  GLU811  SER814 

> <Gold.Protein.RotatedAtoms>
  152.1368  134.9093  160.0555 H   0  0  0  0  0  0  0  0  0  0  0  0  # atno 6907 bound_to 6896
  152.0176  133.3881  159.4253 H   0  0  0  0  0  0  0  0  0  0  0  0  # atno 6908 bound_to 6896
  150.6861  134.3583  159.4983 H   0  0  0  0  0  0  0  0  0  0  0  0  # atno 6909 bound_to 6896
  145.3704  140.9504  143.2450 H   0  0  0  0  0  0  0  0  0  0  0  0  # atno 7974 bound_to 7965
  155.3625  140.3419  155.4241 H   0  0  0  0  0  0  0  0  0  0  0  0  # atno 8008 bound_to 7997
  156.1706  140.1630  156.8489 H   0  0  0  0  0  0  0  0  0  0  0  0  # atno 8009 bound_to 7997
  154.5229  140.0763  156.8188 H   0  0  0  0  0  0  0  0  0  0  0  0  # atno 8010 bound_to 7997
  139.9132  143.6470  152.2571 H   0  0  0  0  0  0  0  0  0  0  0  0  # atno 10167 bound_to 10162
  157.5997  131.1053  150.7824 H   0  0  0  0  0  0  0  0  0  0  0  0  # atno 10718 bound_to 10713
  153.0081  135.5370  154.6609 H   0  0  0  0  0  0  0  0  0  0  0  0  # atno 10763 bound_to 10752
  154.5818  135.2850  155.0727 H   0  0  0  0  0  0  0  0  0  0  0  0  # atno 10764 bound_to 10752
  154.1854  135.6509  153.5098 H   0  0  0  0  0  0  0  0  0  0  0  0  # atno 10765 bound_to 10752
  139.9369  134.9639  156.8443 H   0  0  0  0  0  0  0  0  0  0  0  0  # atno 11005 bound_to 11000
  144.8581  139.5219  143.6825 LP  0  0  0  0  0  0  0  0  0  0  0  0  # atno 17320 bound_to 7965
  146.2888  139.7080  142.9176 LP  0  0  0  0  0  0  0  0  0  0  0  0  # atno 17321 bound_to 7965
  139.6925  144.7645  151.1414 LP  0  0  0  0  0  0  0  0  0  0  0  0  # atno 17342 bound_to 10162
  140.7680  143.5570  150.9141 LP  0  0  0  0  0  0  0  0  0  0  0  0  # atno 17343 bound_to 10162
  156.8226  130.4989  149.5341 LP  0  0  0  0  0  0  0  0  0  0  0  0  # atno 17370 bound_to 10713
  156.1067  130.6010  150.9982 LP  0  0  0  0  0  0  0  0  0  0  0  0  # atno 17371 bound_to 10713
  140.6052  134.0135  155.7553 LP  0  0  0  0  0  0  0  0  0  0  0  0  # atno 17394 bound_to 11000
  141.0987  133.9802  157.3116 LP  0  0  0  0  0  0  0  0  0  0  0  0  # atno 17395 bound_to 11000

$$$$
