AV-unprocessed.smi:2263|AV-procd|sdf|9140|dock3
  -GOLD-   2272012343D 1   1.00000     0.00000
 Structure written by MMmdl.
 40 41  0  0  0  0  0  0  0  0  1 V2000
  142.6695  146.2845  154.9083 C   0  0  0  0  0  0  0  0  0  0  0  0
  143.7924  145.5170  154.2185 C   0  0  0  0  0  0  0  0  0  0  0  0
  144.3128  145.9684  153.1988 O   0  0  0  0  0  0  0  0  0  0  0  0
  144.1540  144.3558  154.7844 N   0  0  0  0  0  0  0  0  0  0  0  0
  145.1941  143.4675  154.2783 C   0  0  0  0  0  0  0  0  0  0  0  0
  145.7358  142.5464  155.3832 C   0  0  0  0  0  0  0  0  0  0  0  0
  147.0512  141.9409  155.0258 C   0  0  0  0  0  0  0  0  0  0  0  0
  148.1335  142.0147  155.8050 N   0  0  0  0  0  0  0  0  0  0  0  0
  149.2512  141.3981  155.2340 C   0  0  0  0  0  0  0  0  0  0  0  0
  150.5534  141.3733  155.9754 C   0  0  0  0  0  0  0  0  0  0  0  0
  150.3913  141.7710  157.4513 C   0  0  0  0  0  0  0  0  0  0  0  0
  151.6396  142.4540  158.0382 C   0  0  0  0  0  0  0  0  0  0  0  0
  151.7757  142.2783  159.5538 C   0  0  0  0  0  0  0  0  0  0  0  0
  152.6799  143.4249  160.0252 C   0  0  0  0  0  0  0  0  0  0  0  0
  152.6982  144.4590  158.8898 C   0  0  0  0  0  0  0  0  0  0  0  0
  151.6742  143.9745  157.8607 C   0  0  0  0  0  0  0  0  0  0  0  0
  148.9989  140.8604  153.9964 C   0  0  0  0  0  0  0  0  0  0  0  0
  147.3486  141.1155  153.5008 S   0  0  0  0  0  0  0  0  0  0  0  0
  141.7815  145.6587  155.0033 H   0  0  0  0  0  0  0  0  0  0  0  0
  142.3997  147.1736  154.3370 H   0  0  0  0  0  0  0  0  0  0  0  0
  142.9796  146.6000  155.9048 H   0  0  0  0  0  0  0  0  0  0  0  0
  143.6717  144.0641  155.6222 H   0  0  0  0  0  0  0  0  0  0  0  0
  144.8104  142.8792  153.4430 H   0  0  0  0  0  0  0  0  0  0  0  0
  146.0009  144.0830  153.8792 H   0  0  0  0  0  0  0  0  0  0  0  0
  145.8466  143.1014  156.3157 H   0  0  0  0  0  0  0  0  0  0  0  0
  145.0306  141.7390  155.5833 H   0  0  0  0  0  0  0  0  0  0  0  0
  150.9933  140.3771  155.9161 H   0  0  0  0  0  0  0  0  0  0  0  0
  151.2647  142.0422  155.4901 H   0  0  0  0  0  0  0  0  0  0  0  0
  149.5246  142.4240  157.5649 H   0  0  0  0  0  0  0  0  0  0  0  0
  150.1749  140.8746  158.0342 H   0  0  0  0  0  0  0  0  0  0  0  0
  152.5309  142.0322  157.5701 H   0  0  0  0  0  0  0  0  0  0  0  0
  150.7978  142.3747  160.0279 H   0  0  0  0  0  0  0  0  0  0  0  0
  152.1738  141.2994  159.8227 H   0  0  0  0  0  0  0  0  0  0  0  0
  152.3035  143.8568  160.9535 H   0  0  0  0  0  0  0  0  0  0  0  0
  153.6910  143.0652  160.2205 H   0  0  0  0  0  0  0  0  0  0  0  0
  152.4741  145.4659  159.2429 H   0  0  0  0  0  0  0  0  0  0  0  0
  153.6900  144.4852  158.4368 H   0  0  0  0  0  0  0  0  0  0  0  0
  151.9353  144.2751  156.8457 H   0  0  0  0  0  0  0  0  0  0  0  0
  150.6962  144.3994  158.0912 H   0  0  0  0  0  0  0  0  0  0  0  0
  149.6826  140.3338  153.3473 H   0  0  0  0  0  0  0  0  0  0  0  0
  1  2  1  0  0  0  0
  1 19  1  0  0  0  0
  1 20  1  0  0  0  0
  1 21  1  0  0  0  0
  2  3  2  0  0  0  0
  2  4  1  0  0  0  0
  4  5  1  0  0  0  0
  4 22  1  0  0  0  0
  5  6  1  0  0  0  0
  5 23  1  0  0  0  0
  5 24  1  0  0  0  0
  6  7  1  0  0  0  0
  6 25  1  0  0  0  0
  6 26  1  0  0  0  0
  7 18  1  0  0  0  0
  7  8  2  0  0  0  0
  8  9  1  0  0  0  0
  9 10  1  0  0  0  0
  9 17  2  0  0  0  0
 10 11  1  0  0  0  0
 10 27  1  0  0  0  0
 10 28  1  0  0  0  0
 11 12  1  0  0  0  0
 11 29  1  0  0  0  0
 11 30  1  0  0  0  0
 12 16  1  0  0  0  0
 12 13  1  0  0  0  0
 12 31  1  0  0  0  0
 13 14  1  0  0  0  0
 13 32  1  0  0  0  0
 13 33  1  0  0  0  0
 14 15  1  0  0  0  0
 14 34  1  0  0  0  0
 14 35  1  0  0  0  0
 15 16  1  0  0  0  0
 15 36  1  0  0  0  0
 15 37  1  0  0  0  0
 16 38  1  0  0  0  0
 16 39  1  0  0  0  0
 17 18  1  0  0  0  0
 17 40  1  0  0  0  0
M  END
> <s_m_source_file>
AV-unprocessed.smi

> <i_m_source_file_index>
2263

> <i_lp_mmshare_version>
43012

> <i_f3d_flags>
0

> <s_epik_input>
W0NIM11DKD1PKVtOSF1bQ0gyXVtDSDJdYzFuYyhbY0hdczEpW0NIMl1bQ0gyXVtDSF0yW0NIMl1bQ0gyXVtDSDJdW0NIMl0y

> <s_epik_cmdline>
J2VwaWtfcHl0aG9uJywgJy1waCcsICc3LjAnLCAnLXRuJywgJzgnLCAnLW1hJywgJzIwMCcsICctbWV0YWxfYmluZGluZycsICctaW1hZScsICc8aW5maWxlLm1hZT4nLCAnLW9tYWUnLCAnPG91dGZpbGUubWFlPic=

> <r_epik_Ionization_Penalty>
0.00116713

> <r_epik_Ionization_Penalty_Charging>
0

> <r_epik_Ionization_Penalty_Neutral>
0.00116713

> <r_epik_State_Penalty>
0.000768465

> <r_epik_Charging_Adjusted_Penalty>
0.000768465

> <i_epik_Tot_Q>
0

> <i_epik_Tot_abs_Q>
0

> <r_epik_Metal_State_Penalty>
-0

> <b_epik_Metal_Only>
0

> <s_lp_Force_Field>
OPLS_2005

> <r_lp_Energy>
10.4461

> <b_lp_Chiralities_Consistent>
1

> <s_lp_Variant>
AV-unprocessed.smi:2263-1

> <Gold.Version>
5.8.1

> <Gold.Id.Protein>
6NUR|6NUR_protein|mol2

> <Gold.PLP.Fitness>
44.8701

> <Gold.PLP.PLP>
-44.0574

> <Gold.PLP.part.hbond>
-2.0000

> <Gold.PLP.part.metal>
0.0000

> <Gold.PLP.part.buried>
-5.6306

> <Gold.PLP.part.nonpolar>
-40.3156

> <Gold.PLP.part.repulsive>
2.7515

> <Gold.PLP.ligand.clash>
0.0000

> <Gold.PLP.ligand.torsion>
0.9664

> <Gold.PLP.Chemscore.Hbond>
0.0000

> <Gold.PLP.Chemscore.CHOScore>
0.8893

> <Gold.PLP.Chemscore.Metal>
0.0000

> <Gold.Chemscore.Hbonds>
donor molecule, donor type, donor heavy atom, donor atom, acceptor molecule, acceptor atom, score
      L1  C    17    40       P1  7957  1.00

> <Gold.PLP.Chemscore.Internal.Correction>
0.0776

> <Gold.Rescore>
     Score         DG    S(hbond)    S(metal)    S(lipo)     H(rot)  DE(clash)    DE(int)     intcor
     12.70     -14.42       0.00        0.00     115.75       1.80       0.69       1.03       ----

> <Gold.Chemscore.Fitness>
12.7043

> <Gold.Chemscore.DG>
-14.4221

> <Gold.Chemscore.ZeroCoef>
-5.4800

> <Gold.Chemscore.Hbond>
0.0000

> <Gold.Chemscore.Metal>
0.0000

> <Gold.Chemscore.Lipo>
115.7515

> <Gold.Chemscore.Internal_Hbond>
0.0000

> <Gold.Chemscore.DEClash>
0.6888

> <Gold.Chemscore.DEInternal>
1.0290

> <Gold.Chemscore.Rot>
1.7972

> <Gold.Chemscore.Internal.Correction>
   9.000000E+99

> <Gold.Chemscore.Hbond.Weighted>
-0.0000

> <Gold.Chemscore.Metal.Weighted>
-0.0000

> <Gold.Chemscore.Lipo.Weighted>
-13.5429

> <Gold.Chemscore.Internal_Hbond.Weighted>
0.0000

> <Gold.Chemscore.DEClash.Weighted>
0.6888

> <Gold.Chemscore.DEInternal.Weighted>
1.0290

> <Gold.Chemscore.Rot.Weighted>
4.6008

> <Gold.Chemscore.Internal.Correction.Weighted>
   9.000000E+99

> <Gold.Protein.RotatedTorsions>
[ 6907 6896 6895 6894 ] final   72.94 input  -60.11 | X-H torsion
[ 7974 7965 7964 7962 ] final -144.64 input  175.53 | X-H torsion
[ 8008 7997 7996 7995 ] final -147.57 input   59.86 | X-H torsion
[ 10167 10162 10161 10158 ] final -156.39 input  -65.29 | X-H torsion
[ 10718 10713 10712 10709 ] final  101.13 input   66.30 | X-H torsion
[ 10763 10752 10751 10750 ] final  -88.93 input  -60.55 | X-H torsion
[ 11005 11000 10999 10996 ] final -171.22 input  -57.11 | X-H torsion

> <Gold.Protein.ActiveResidues>
 VAL166  LYS551  ARG553  GLY616  TRP617  ASP618  TYR619  PRO620  LYS621  CYS622 
 ASP623  PHE694  ASN695  SER759  ASP760  ASP761  ALA762  ILE779  LEU786  VAL792 
 PHE793  MET794  SER795  GLU796  ALA797  LYS798  CYS799  TRP800  GLU811  SER814 

> <Gold.Protein.RotatedAtoms>
  152.4896  134.4496  159.9570 H   0  0  0  0  0  0  0  0  0  0  0  0  # atno 6907 bound_to 6896
  151.4486  133.3617  159.2800 H   0  0  0  0  0  0  0  0  0  0  0  0  # atno 6908 bound_to 6896
  150.9037  134.8475  159.7438 H   0  0  0  0  0  0  0  0  0  0  0  0  # atno 6909 bound_to 6896
  144.8283  140.5685  143.5532 H   0  0  0  0  0  0  0  0  0  0  0  0  # atno 7974 bound_to 7965
  155.5776  140.0640  157.2791 H   0  0  0  0  0  0  0  0  0  0  0  0  # atno 8008 bound_to 7997
  154.4342  140.1858  156.0990 H   0  0  0  0  0  0  0  0  0  0  0  0  # atno 8009 bound_to 7997
  156.0329  140.3304  155.7163 H   0  0  0  0  0  0  0  0  0  0  0  0  # atno 8010 bound_to 7997
  139.6854  143.9510  152.2358 H   0  0  0  0  0  0  0  0  0  0  0  0  # atno 10167 bound_to 10162
  157.6837  131.0718  150.5206 H   0  0  0  0  0  0  0  0  0  0  0  0  # atno 10718 bound_to 10713
  154.6498  135.5359  153.7888 H   0  0  0  0  0  0  0  0  0  0  0  0  # atno 10763 bound_to 10752
  153.0380  135.6479  154.1033 H   0  0  0  0  0  0  0  0  0  0  0  0  # atno 10764 bound_to 10752
  154.0951  135.2937  155.3243 H   0  0  0  0  0  0  0  0  0  0  0  0  # atno 10765 bound_to 10752
  140.5107  134.5805  157.5018 H   0  0  0  0  0  0  0  0  0  0  0  0  # atno 11005 bound_to 11000
  145.4951  139.1486  143.3688 LP  0  0  0  0  0  0  0  0  0  0  0  0  # atno 17320 bound_to 7965
  146.2588  140.5090  142.8862 LP  0  0  0  0  0  0  0  0  0  0  0  0  # atno 17321 bound_to 7965
  139.9311  144.6740  150.8361 LP  0  0  0  0  0  0  0  0  0  0  0  0  # atno 17342 bound_to 10162
  140.7666  143.3308  151.2415 LP  0  0  0  0  0  0  0  0  0  0  0  0  # atno 17343 bound_to 10162
  156.5520  130.4234  149.6103 LP  0  0  0  0  0  0  0  0  0  0  0  0  # atno 17370 bound_to 10713
  156.2895  130.7116  151.1961 LP  0  0  0  0  0  0  0  0  0  0  0  0  # atno 17371 bound_to 10713
  139.9661  134.7371  156.0137 LP  0  0  0  0  0  0  0  0  0  0  0  0  # atno 17394 bound_to 11000
  141.1387  133.6569  156.3667 LP  0  0  0  0  0  0  0  0  0  0  0  0  # atno 17395 bound_to 11000

$$$$
