AV-unprocessed.smi:523|AV-procd|sdf|2804|dock5
  -GOLD-   2262023283D 1   1.00000     0.00000
 Structure written by MMmdl.
 40 42  0  0  0  0  0  0  0  0  2 V2000
  147.4915  141.7597  153.8239 C   0  0  0  0  0  0  0  0  0  0  0  0
  148.8864  141.8252  154.0575 O   0  0  0  0  0  0  0  0  0  0  0  0
  149.2402  141.4131  155.3678 C   0  0  0  0  0  0  0  0  0  0  0  0
  150.6044  142.0081  155.7430 C   0  0  0  0  0  0  0  0  0  0  0  0
  151.3202  141.1699  156.7042 N   0  0  0  0  0  0  0  0  0  0  0  0
  151.7554  141.4873  157.9557 C   0  0  0  0  0  0  0  0  0  0  0  0
  151.5985  142.7596  158.5079 N   0  0  0  0  0  0  0  0  0  0  0  0
  151.0780  143.0815  159.8334 C   0  0  0  0  0  0  0  0  0  0  0  0
  151.9721  144.1207  160.5331 C   0  0  0  0  0  0  0  0  0  0  0  0
  152.0155  145.3028  159.7424 O   0  0  0  0  0  0  0  0  0  0  0  0
  152.5245  145.0474  158.4381 C   0  0  0  0  0  0  0  0  0  0  0  0
  151.6438  143.9970  157.7362 C   0  0  0  0  0  0  0  0  0  0  0  0
  152.3045  140.4725  158.6261 N   0  0  0  0  0  0  0  0  0  0  0  0
  152.2429  139.4273  157.7185 C   0  0  0  0  0  0  0  0  0  0  0  0
  151.6497  139.8177  156.5590 C   0  0  0  0  0  0  0  0  0  0  0  0
  151.4074  138.9105  155.4145 C   0  0  0  0  0  0  0  0  0  0  0  0
  150.8453  139.3075  154.3959 O   0  0  0  0  0  0  0  0  0  0  0  0
  151.8713  137.6427  155.6520 N   0  5  0  0  0  0  0  0  0  0  0  0
  152.4830  137.2069  156.8077 C   0  0  0  0  0  0  0  0  0  0  0  0
  152.8674  136.0442  156.9412 O   0  0  0  0  0  0  0  0  0  0  0  0
  152.6746  138.0790  157.8470 N   0  0  0  0  0  0  0  0  0  0  0  0
  153.3134  137.6420  159.0916 C   0  0  0  0  0  0  0  0  0  0  0  0
  147.2746  142.0973  152.8105 H   0  0  0  0  0  0  0  0  0  0  0  0
  146.9442  142.3996  154.5172 H   0  0  0  0  0  0  0  0  0  0  0  0
  147.1238  140.7378  153.9245 H   0  0  0  0  0  0  0  0  0  0  0  0
  148.4789  141.7368  156.0792 H   0  0  0  0  0  0  0  0  0  0  0  0
  149.2892  140.3244  155.4152 H   0  0  0  0  0  0  0  0  0  0  0  0
  151.2210  142.1469  154.8563 H   0  0  0  0  0  0  0  0  0  0  0  0
  150.4607  143.0074  156.1391 H   0  0  0  0  0  0  0  0  0  0  0  0
  150.0674  143.4779  159.7280 H   0  0  0  0  0  0  0  0  0  0  0  0
  150.9781  142.1806  160.4376 H   0  0  0  0  0  0  0  0  0  0  0  0
  151.5682  144.3665  161.5151 H   0  0  0  0  0  0  0  0  0  0  0  0
  152.9810  143.7345  160.6876 H   0  0  0  0  0  0  0  0  0  0  0  0
  152.5260  145.9779  157.8705 H   0  0  0  0  0  0  0  0  0  0  0  0
  153.5600  144.7095  158.4998 H   0  0  0  0  0  0  0  0  0  0  0  0
  152.0406  143.7936  156.7410 H   0  0  0  0  0  0  0  0  0  0  0  0
  150.6308  144.3777  157.5993 H   0  0  0  0  0  0  0  0  0  0  0  0
  154.2956  137.2118  158.8909 H   0  0  0  0  0  0  0  0  0  0  0  0
  152.7032  136.8847  159.5852 H   0  0  0  0  0  0  0  0  0  0  0  0
  153.4576  138.4581  159.7989 H   0  0  0  0  0  0  0  0  0  0  0  0
  1  2  1  0  0  0  0
  1 23  1  0  0  0  0
  1 24  1  0  0  0  0
  1 25  1  0  0  0  0
  2  3  1  0  0  0  0
  3  4  1  0  0  0  0
  3 26  1  0  0  0  0
  3 27  1  0  0  0  0
  4  5  1  0  0  0  0
  4 28  1  0  0  0  0
  4 29  1  0  0  0  0
  5 15  1  0  0  0  0
  5  6  1  0  0  0  0
  6  7  1  0  0  0  0
  6 13  2  0  0  0  0
  7 12  1  0  0  0  0
  7  8  1  0  0  0  0
  8  9  1  0  0  0  0
  8 30  1  0  0  0  0
  8 31  1  0  0  0  0
  9 10  1  0  0  0  0
  9 32  1  0  0  0  0
  9 33  1  0  0  0  0
 10 11  1  0  0  0  0
 11 12  1  0  0  0  0
 11 34  1  0  0  0  0
 11 35  1  0  0  0  0
 12 36  1  0  0  0  0
 12 37  1  0  0  0  0
 13 14  1  0  0  0  0
 14 21  1  0  0  0  0
 14 15  2  0  0  0  0
 15 16  1  0  0  0  0
 16 17  2  0  0  0  0
 16 18  1  0  0  0  0
 18 19  1  0  0  0  0
 19 20  2  0  0  0  0
 19 21  1  0  0  0  0
 21 22  1  0  0  0  0
 22 38  1  0  0  0  0
 22 39  1  0  0  0  0
 22 40  1  0  0  0  0
M  CHG  1  18  -1
M  END
> <s_m_source_file>
AV-unprocessed.smi

> <i_m_source_file_index>
523

> <i_lp_mmshare_version>
43012

> <i_f3d_flags>
0

> <s_epik_input>
W0NIM11uMWMoPU8pW25IXWMoPU8pYyhjMTIpbihbQ0gyXVtDSDJdT1tDSDNdKWMobjIpTjNbQ0gyXVtDSDJdT1tDSDJdW0NIMl0z

> <s_epik_cmdline>
J2VwaWtfcHl0aG9uJywgJy1waCcsICc3LjAnLCAnLXRuJywgJzgnLCAnLW1hJywgJzIwMCcsICctbWV0YWxfYmluZGluZycsICctaW1hZScsICc8aW5maWxlLm1hZT4nLCAnLW9tYWUnLCAnPG91dGZpbGUubWFlPic=

> <r_lp_tautomer_probability>
1

> <r_epik_Ionization_Penalty>
4.75788

> <r_epik_Ionization_Penalty_Charging>
0.0452179

> <r_epik_Ionization_Penalty_Neutral>
4.71266

> <r_epik_State_Penalty>
4.71244

> <r_epik_Charging_Adjusted_Penalty>
4.75766

> <i_epik_Tot_Q>
-1

> <i_epik_Tot_abs_Q>
1

> <r_epik_Metal_State_Penalty>
0.934872

> <b_epik_Metal_Only>
1

> <s_lp_Force_Field>
OPLS_2005

> <r_lp_Energy>
41.5278

> <b_lp_Chiralities_Consistent>
1

> <s_lp_Variant>
AV-unprocessed.smi:523-2

> <Gold.Version>
5.8.1

> <Gold.Id.Protein>
6NUR|6NUR_protein|mol2

> <Gold.PLP.Fitness>
44.3416

> <Gold.PLP.PLP>
-38.0601

> <Gold.PLP.part.hbond>
-3.4123

> <Gold.PLP.part.metal>
0.0000

> <Gold.PLP.part.buried>
-5.9977

> <Gold.PLP.part.nonpolar>
-28.5558

> <Gold.PLP.part.repulsive>
0.4580

> <Gold.PLP.ligand.clash>
0.0000

> <Gold.PLP.ligand.torsion>
0.9146

> <Gold.PLP.Chemscore.Hbond>
2.5760

> <Gold.PLP.Chemscore.CHOScore>
0.0000

> <Gold.PLP.Chemscore.Metal>
0.0000

> <Gold.Chemscore.Hbonds>
donor molecule, donor type, donor heavy atom, donor atom, acceptor molecule, acceptor atom, score
      P1  H  7989  7998       L1    17  1.00
      P1  H  8011  8017       L1     2  0.51
      P1  H 10752 10764       L1    20  1.00

> <Gold.PLP.Chemscore.Internal.Correction>
0.3828

> <Gold.Rescore>
     Score         DG    S(hbond)    S(metal)    S(lipo)     H(rot)  DE(clash)    DE(int)     intcor
     14.44     -18.51       2.25        0.00      80.40       1.52       0.80       3.26       ----

> <Gold.Chemscore.Fitness>
14.4440

> <Gold.Chemscore.DG>
-18.5105

> <Gold.Chemscore.ZeroCoef>
-5.4800

> <Gold.Chemscore.Hbond>
2.2469

> <Gold.Chemscore.Metal>
0.0000

> <Gold.Chemscore.Lipo>
80.3980

> <Gold.Chemscore.Internal_Hbond>
0.0000

> <Gold.Chemscore.DEClash>
0.8049

> <Gold.Chemscore.DEInternal>
3.2616

> <Gold.Chemscore.Rot>
1.5159

> <Gold.Chemscore.Internal.Correction>
   9.000000E+99

> <Gold.Chemscore.Hbonds>
donor molecule, donor type, donor heavy atom, donor atom, acceptor molecule, acceptor atom, score
      P1  H  7989  7998       L1    17  0.93
      P1  H  8011  8017       L1     2  0.31
      P1  H 10752 10764       L1    20  0.82

> <Gold.Chemscore.Hbond.Weighted>
-7.5045

> <Gold.Chemscore.Metal.Weighted>
-0.0000

> <Gold.Chemscore.Lipo.Weighted>
-9.4066

> <Gold.Chemscore.Internal_Hbond.Weighted>
0.0000

> <Gold.Chemscore.DEClash.Weighted>
0.8049

> <Gold.Chemscore.DEInternal.Weighted>
3.2616

> <Gold.Chemscore.Rot.Weighted>
3.8806

> <Gold.Chemscore.Internal.Correction.Weighted>
   9.000000E+99

> <Gold.Protein.RotatedTorsions>
[ 6907 6896 6895 6894 ] final -149.28 input  -60.11 | X-H torsion
[ 7974 7965 7964 7962 ] final -127.54 input  175.53 | X-H torsion
[ 8008 7997 7996 7995 ] final   28.13 input   59.86 | X-H torsion
[ 10167 10162 10161 10158 ] final -150.60 input  -65.29 | X-H torsion
[ 10718 10713 10712 10709 ] final  -41.37 input   66.30 | X-H torsion
[ 10763 10752 10751 10750 ] final    2.74 input  -60.55 | X-H torsion
[ 11005 11000 10999 10996 ] final -147.91 input  -57.11 | X-H torsion

> <Gold.Protein.ActiveResidues>
 VAL166  LYS551  ARG553  GLY616  TRP617  ASP618  TYR619  PRO620  LYS621  CYS622 
 ASP623  PHE694  ASN695  SER759  ASP760  ASP761  ALA762  ILE779  LEU786  VAL792 
 PHE793  MET794  SER795  GLU796  ALA797  LYS798  CYS799  TRP800  GLU811  SER814 

> <Gold.Protein.RotatedAtoms>
  151.1818  133.4720  159.2593 H   0  0  0  0  0  0  0  0  0  0  0  0  # atno 6907 bound_to 6896
  151.1251  135.0100  159.8566 H   0  0  0  0  0  0  0  0  0  0  0  0  # atno 6908 bound_to 6896
  152.5458  134.1726  159.8656 H   0  0  0  0  0  0  0  0  0  0  0  0  # atno 6909 bound_to 6896
  144.9760  140.7593  143.4641 H   0  0  0  0  0  0  0  0  0  0  0  0  # atno 7974 bound_to 7965
  155.0538  140.3182  155.4683 H   0  0  0  0  0  0  0  0  0  0  0  0  # atno 8008 bound_to 7997
  156.2828  140.2141  156.5608 H   0  0  0  0  0  0  0  0  0  0  0  0  # atno 8009 bound_to 7997
  154.7189  140.0491  157.0608 H   0  0  0  0  0  0  0  0  0  0  0  0  # atno 8010 bound_to 7997
  139.7340  143.8764  152.2543 H   0  0  0  0  0  0  0  0  0  0  0  0  # atno 10167 bound_to 10162
  156.2711  130.4207  149.8437 H   0  0  0  0  0  0  0  0  0  0  0  0  # atno 10718 bound_to 10713
  153.2919  135.6949  153.7285 H   0  0  0  0  0  0  0  0  0  0  0  0  # atno 10763 bound_to 10752
  153.6233  135.3423  155.3018 H   0  0  0  0  0  0  0  0  0  0  0  0  # atno 10764 bound_to 10752
  154.8526  135.4391  154.2004 H   0  0  0  0  0  0  0  0  0  0  0  0  # atno 10765 bound_to 10752
  140.7667  134.3236  157.5086 H   0  0  0  0  0  0  0  0  0  0  0  0  # atno 11005 bound_to 11000
  145.2489  139.2040  143.4953 LP  0  0  0  0  0  0  0  0  0  0  0  0  # atno 17320 bound_to 7965
  146.3395  140.2399  142.8595 LP  0  0  0  0  0  0  0  0  0  0  0  0  # atno 17321 bound_to 7965
  139.8695  144.7075  150.9004 LP  0  0  0  0  0  0  0  0  0  0  0  0  # atno 17342 bound_to 10162
  140.7776  143.3750  151.1580 LP  0  0  0  0  0  0  0  0  0  0  0  0  # atno 17343 bound_to 10162
  156.5919  130.8510  151.3410 LP  0  0  0  0  0  0  0  0  0  0  0  0  # atno 17370 bound_to 10713
  157.7284  130.9656  150.1740 LP  0  0  0  0  0  0  0  0  0  0  0  0  # atno 17371 bound_to 10713
  139.8762  134.9236  156.3328 LP  0  0  0  0  0  0  0  0  0  0  0  0  # atno 17394 bound_to 11000
  140.9612  133.7387  156.0404 LP  0  0  0  0  0  0  0  0  0  0  0  0  # atno 17395 bound_to 11000

$$$$
