AV-unprocessed.smi:2119|AV-procd|sdf|8633|dock5
  -GOLD-   2272011383D 1   1.00000     0.00000
 Structure written by MMmdl.
 47 49  0  0  0  0  0  0  0  0  1 V2000
  144.8835  136.4553  153.7825 O   0  0  0  0  0  0  0  0  0  0  0  0
  145.9350  136.2692  153.1711 C   0  0  0  0  0  0  0  0  0  0  0  0
  147.0472  136.9886  153.3730 N   0  0  0  0  0  0  0  0  0  0  0  0
  147.1688  138.1156  154.2908 C   0  0  0  0  0  0  0  0  0  0  0  0
  148.4664  138.9365  154.0491 C   0  0  1  0  0  0  0  0  0  0  0  0
  148.2489  140.4632  154.2693 C   0  0  1  0  0  0  0  0  0  0  0  0
  147.2154  141.0840  153.3419 C   0  0  0  0  0  0  0  0  0  0  0  0
  146.8921  142.3923  154.0496 C   0  0  0  0  0  0  0  0  0  0  0  0
  146.9374  142.0776  155.4340 O   0  0  0  0  0  0  0  0  0  0  0  0
  147.6715  140.8727  155.6329 C   0  0  0  0  0  0  0  0  0  0  0  0
  149.6264  138.4384  154.8101 N   0  0  0  0  0  0  0  0  0  0  0  0
  150.9100  138.9652  154.3544 C   0  0  0  0  0  0  0  0  0  0  0  0
  152.0578  138.5279  155.2803 C   0  0  0  0  0  0  0  0  0  0  0  0
  152.0846  137.1064  155.3681 O   0  0  0  0  0  0  0  0  0  0  0  0
  150.8627  136.5602  155.8560 C   0  0  0  0  0  0  0  0  0  0  0  0
  149.7020  136.9837  154.9396 C   0  0  0  0  0  0  0  0  0  0  0  0
  146.1339  135.3275  152.2332 N   0  0  0  0  0  0  0  0  0  0  0  0
  145.1984  134.4084  151.6856 C   0  0  0  0  0  0  0  0  0  0  0  0
  145.6646  133.4857  150.7266 C   0  0  0  0  0  0  0  0  0  0  0  0
  144.7573  132.5769  150.1500 C   0  0  0  0  0  0  0  0  0  0  0  0
  143.4087  132.6321  150.5512 C   0  0  0  0  0  0  0  0  0  0  0  0
  142.9421  133.5168  151.4571 N   0  0  0  0  0  0  0  0  0  0  0  0
  143.8181  134.3852  152.0074 C   0  0  0  0  0  0  0  0  0  0  0  0
  147.8677  136.7541  152.8339 H   0  0  0  0  0  0  0  0  0  0  0  0
  146.3003  138.7717  154.2131 H   0  0  0  0  0  0  0  0  0  0  0  0
  147.1463  137.6947  155.2946 H   0  0  0  0  0  0  0  0  0  0  0  0
  148.7198  138.8197  152.9943 H   0  0  0  0  0  0  0  0  0  0  0  0
  149.1921  140.9939  154.1304 H   0  0  0  0  0  0  0  0  0  0  0  0
  147.5857  141.2404  152.3281 H   0  0  0  0  0  0  0  0  0  0  0  0
  146.3243  140.4568  153.2872 H   0  0  0  0  0  0  0  0  0  0  0  0
  147.6555  143.1410  153.8334 H   0  0  0  0  0  0  0  0  0  0  0  0
  145.9228  142.7994  153.7617 H   0  0  0  0  0  0  0  0  0  0  0  0
  146.9816  140.1169  156.0100 H   0  0  0  0  0  0  0  0  0  0  0  0
  148.4499  141.0236  156.3810 H   0  0  0  0  0  0  0  0  0  0  0  0
  151.1287  138.6193  153.3448 H   0  0  0  0  0  0  0  0  0  0  0  0
  150.8731  140.0544  154.3144 H   0  0  0  0  0  0  0  0  0  0  0  0
  153.0132  138.8797  154.8910 H   0  0  0  0  0  0  0  0  0  0  0  0
  151.9381  138.9586  156.2757 H   0  0  0  0  0  0  0  0  0  0  0  0
  150.9439  135.4738  155.8878 H   0  0  0  0  0  0  0  0  0  0  0  0
  150.6884  136.8984  156.8786 H   0  0  0  0  0  0  0  0  0  0  0  0
  148.7712  136.5860  155.3422 H   0  0  0  0  0  0  0  0  0  0  0  0
  149.8419  136.5266  153.9594 H   0  0  0  0  0  0  0  0  0  0  0  0
  147.0777  135.2399  151.8859 H   0  0  0  0  0  0  0  0  0  0  0  0
  146.7049  133.4703  150.4357 H   0  0  0  0  0  0  0  0  0  0  0  0
  145.0866  131.8557  149.4166 H   0  0  0  0  0  0  0  0  0  0  0  0
  142.6845  131.9510  150.1293 H   0  0  0  0  0  0  0  0  0  0  0  0
  143.3795  135.0835  152.7025 H   0  0  0  0  0  0  0  0  0  0  0  0
  1  2  2  0  0  0  0
  2  3  1  0  0  0  0
  2 17  1  0  0  0  0
  3  4  1  0  0  0  0
  3 24  1  0  0  0  0
  4  5  1  0  0  0  0
  4 25  1  0  0  0  0
  4 26  1  0  0  0  0
  5  6  1  0  0  0  0
  5 11  1  0  0  0  0
  5 27  1  0  0  0  0
  6 10  1  0  0  0  0
  6  7  1  0  0  0  0
  6 28  1  0  0  0  0
  7  8  1  0  0  0  0
  7 29  1  0  0  0  0
  7 30  1  0  0  0  0
  8  9  1  0  0  0  0
  8 31  1  0  0  0  0
  8 32  1  0  0  0  0
  9 10  1  0  0  0  0
 10 33  1  0  0  0  0
 10 34  1  0  0  0  0
 11 16  1  0  0  0  0
 11 12  1  0  0  0  0
 12 13  1  0  0  0  0
 12 35  1  0  0  0  0
 12 36  1  0  0  0  0
 13 14  1  0  0  0  0
 13 37  1  0  0  0  0
 13 38  1  0  0  0  0
 14 15  1  0  0  0  0
 15 16  1  0  0  0  0
 15 39  1  0  0  0  0
 15 40  1  0  0  0  0
 16 41  1  0  0  0  0
 16 42  1  0  0  0  0
 17 18  1  0  0  0  0
 17 43  1  0  0  0  0
 18 23  1  0  0  0  0
 18 19  2  0  0  0  0
 19 20  1  0  0  0  0
 19 44  1  0  0  0  0
 20 21  2  0  0  0  0
 20 45  1  0  0  0  0
 21 22  1  0  0  0  0
 21 46  1  0  0  0  0
 22 23  2  0  0  0  0
 23 47  1  0  0  0  0
M  END
> <s_m_source_file>
AV-unprocessed.smi

> <i_m_source_file_index>
2119

> <i_lp_mmshare_version>
43012

> <i_f3d_flags>
0

> <s_epik_input>
W2NIXTFuW2NIXVtjSF1bY0hdYzFbTkhdQyg9TylbTkhdW0NIMl1bQ0BIXShbQ0BASF0yW0NIMl1bQ0gyXU9bQ0gyXTIpTjNbQ0gyXVtDSDJdT1tDSDJdW0NIMl0z

> <s_epik_cmdline>
J2VwaWtfcHl0aG9uJywgJy1waCcsICc3LjAnLCAnLXRuJywgJzgnLCAnLW1hJywgJzIwMCcsICctbWV0YWxfYmluZGluZycsICctaW1hZScsICc8aW5maWxlLm1hZT4nLCAnLW9tYWUnLCAnPG91dGZpbGUubWFlPic=

> <r_epik_Ionization_Penalty>
0.129787

> <r_epik_Ionization_Penalty_Charging>
0

> <r_epik_Ionization_Penalty_Neutral>
0.129787

> <r_epik_State_Penalty>
0.121311

> <r_epik_Charging_Adjusted_Penalty>
0.121311

> <i_epik_Tot_Q>
0

> <i_epik_Tot_abs_Q>
0

> <r_epik_Metal_State_Penalty>
0.117931

> <b_epik_Metal_Only>
0

> <s_lp_Force_Field>
OPLS_2005

> <r_lp_Energy>
52.557

> <b_lp_Chiralities_Consistent>
1

> <s_lp_Variant>
AV-unprocessed.smi:2119-4

> <Gold.Version>
5.8.1

> <Gold.Id.Protein>
6NUR|6NUR_protein|mol2

> <Gold.PLP.Fitness>
45.2136

> <Gold.PLP.PLP>
-35.8548

> <Gold.PLP.part.hbond>
-3.0000

> <Gold.PLP.part.metal>
0.0000

> <Gold.PLP.part.buried>
-7.6563

> <Gold.PLP.part.nonpolar>
-27.1367

> <Gold.PLP.part.repulsive>
0.7661

> <Gold.PLP.ligand.clash>
0.0000

> <Gold.PLP.ligand.torsion>
0.8175

> <Gold.PLP.Chemscore.Hbond>
2.5790

> <Gold.PLP.Chemscore.CHOScore>
1.0000

> <Gold.PLP.Chemscore.Metal>
0.0000

> <Gold.Chemscore.Hbonds>
donor molecule, donor type, donor heavy atom, donor atom, acceptor molecule, acceptor atom, score
      L1  H     3    24       P1  7948  1.00
      L1  H    17    43       P1  7948  0.76
      P1  H 10752 10764       L1    14  0.90
      L1  C    21    46       P1 10952  1.00

> <Gold.PLP.Chemscore.Internal.Correction>
0.2569

> <Gold.Rescore>
     Score         DG    S(hbond)    S(metal)    S(lipo)     H(rot)  DE(clash)    DE(int)     intcor
     17.60     -19.82       2.52        0.00      86.72       1.65       0.01       2.22       ----

> <Gold.Chemscore.Fitness>
17.5982

> <Gold.Chemscore.DG>
-19.8215

> <Gold.Chemscore.ZeroCoef>
-5.4800

> <Gold.Chemscore.Hbond>
2.5214

> <Gold.Chemscore.Metal>
0.0000

> <Gold.Chemscore.Lipo>
86.7196

> <Gold.Chemscore.Internal_Hbond>
0.0000

> <Gold.Chemscore.DEClash>
0.0073

> <Gold.Chemscore.DEInternal>
2.2160

> <Gold.Chemscore.Rot>
1.6508

> <Gold.Chemscore.Internal.Correction>
   9.000000E+99

> <Gold.Chemscore.Hbonds>
donor molecule, donor type, donor heavy atom, donor atom, acceptor molecule, acceptor atom, score
      L1  H     3    24       P1  7948  0.95
      L1  H    17    43       P1  7948  0.72
      P1  H 10752 10764       L1    14  0.31

> <Gold.Chemscore.Hbond.Weighted>
-8.4214

> <Gold.Chemscore.Metal.Weighted>
-0.0000

> <Gold.Chemscore.Lipo.Weighted>
-10.1462

> <Gold.Chemscore.Internal_Hbond.Weighted>
0.0000

> <Gold.Chemscore.DEClash.Weighted>
0.0073

> <Gold.Chemscore.DEInternal.Weighted>
2.2160

> <Gold.Chemscore.Rot.Weighted>
4.2262

> <Gold.Chemscore.Internal.Correction.Weighted>
   9.000000E+99

> <Gold.Protein.RotatedTorsions>
[ 6907 6896 6895 6894 ] final  -96.39 input  -60.11 | X-H torsion
[ 7974 7965 7964 7962 ] final -155.02 input  175.53 | X-H torsion
[ 8008 7997 7996 7995 ] final  -93.17 input   59.86 | X-H torsion
[ 10167 10162 10161 10158 ] final   87.31 input  -65.29 | X-H torsion
[ 10718 10713 10712 10709 ] final   58.38 input   66.30 | X-H torsion
[ 10763 10752 10751 10750 ] final  -45.28 input  -60.55 | X-H torsion
[ 11005 11000 10999 10996 ] final   58.37 input  -57.11 | X-H torsion

> <Gold.Protein.ActiveResidues>
 VAL166  LYS551  ARG553  GLY616  TRP617  ASP618  TYR619  PRO620  LYS621  CYS622 
 ASP623  PHE694  ASN695  SER759  ASP760  ASP761  ALA762  ILE779  LEU786  VAL792 
 PHE793  MET794  SER795  GLU796  ALA797  LYS798  CYS799  TRP800  GLU811  SER814 

> <Gold.Protein.RotatedAtoms>
  150.6987  134.1510  159.4140 H   0  0  0  0  0  0  0  0  0  0  0  0  # atno 6907 bound_to 6896
  151.9493  135.0174  160.0550 H   0  0  0  0  0  0  0  0  0  0  0  0  # atno 6908 bound_to 6896
  152.2025  133.4816  159.5103 H   0  0  0  0  0  0  0  0  0  0  0  0  # atno 6909 bound_to 6896
  144.7660  140.4307  143.5941 H   0  0  0  0  0  0  0  0  0  0  0  0  # atno 7974 bound_to 7965
  154.7323  140.0501  157.0737 H   0  0  0  0  0  0  0  0  0  0  0  0  # atno 8008 bound_to 7997
  155.0286  140.3155  155.4747 H   0  0  0  0  0  0  0  0  0  0  0  0  # atno 8009 bound_to 7997
  156.2844  140.2154  156.5406 H   0  0  0  0  0  0  0  0  0  0  0  0  # atno 8010 bound_to 7997
  139.8787  144.6452  150.8867 H   0  0  0  0  0  0  0  0  0  0  0  0  # atno 10167 bound_to 10162
  157.5591  130.8822  149.9083 H   0  0  0  0  0  0  0  0  0  0  0  0  # atno 10718 bound_to 10713
  154.0259  135.6663  153.4776 H   0  0  0  0  0  0  0  0  0  0  0  0  # atno 10763 bound_to 10752
  153.0560  135.5055  154.7978 H   0  0  0  0  0  0  0  0  0  0  0  0  # atno 10764 bound_to 10752
  154.6908  135.3061  154.9447 H   0  0  0  0  0  0  0  0  0  0  0  0  # atno 10765 bound_to 10752
  140.0383  134.5911  155.9415 H   0  0  0  0  0  0  0  0  0  0  0  0  # atno 11005 bound_to 11000
  145.6468  139.1558  143.2884 LP  0  0  0  0  0  0  0  0  0  0  0  0  # atno 17320 bound_to 7965
  146.1768  140.6560  142.9208 LP  0  0  0  0  0  0  0  0  0  0  0  0  # atno 17321 bound_to 7965
  140.7748  143.3604  151.1840 LP  0  0  0  0  0  0  0  0  0  0  0  0  # atno 17342 bound_to 10162
  139.7216  143.9214  152.2987 LP  0  0  0  0  0  0  0  0  0  0  0  0  # atno 17343 bound_to 10162
  156.0646  130.3694  150.0907 LP  0  0  0  0  0  0  0  0  0  0  0  0  # atno 17370 bound_to 10713
  156.9072  130.9640  151.3568 LP  0  0  0  0  0  0  0  0  0  0  0  0  # atno 17371 bound_to 10713
  141.1869  133.6558  156.5259 LP  0  0  0  0  0  0  0  0  0  0  0  0  # atno 17394 bound_to 11000
  140.4112  134.7271  157.4836 LP  0  0  0  0  0  0  0  0  0  0  0  0  # atno 17395 bound_to 11000

$$$$
