AV-unprocessed.smi:3188|AV-procd|sdf|12184|dock8
  -GOLD-   2272018 23D 1   1.00000     0.00000
 Structure written by MMmdl.
 40 41  0  0  0  0  0  0  0  0  2 V2000
  151.9552  144.9438  158.6105 C   0  0  0  0  0  0  0  0  0  0  0  0
  152.1951  143.5436  159.1508 C   0  0  0  0  0  0  0  0  0  0  0  0
  152.9190  143.3767  160.2742 C   0  0  0  0  0  0  0  0  0  0  0  0
  153.2826  142.0332  160.8631 C   0  0  0  0  0  0  0  0  0  0  0  0
  153.1754  140.9252  159.8131 C   0  0  0  0  0  0  0  0  0  0  0  0
  151.8315  140.9844  159.0684 C   0  0  2  0  0  0  0  0  0  0  0  0
  151.7351  139.7935  158.0948 C   0  0  0  0  0  0  0  0  0  0  0  0
  151.6071  142.3564  158.3601 C   0  0  1  0  0  0  0  0  0  0  0  0
  150.1037  142.5453  158.0243 C   0  0  0  0  0  0  0  0  0  0  0  0
  149.7973  142.3006  156.5996 N   0  3  0  0  0  0  0  0  0  0  0  0
  149.0053  141.0803  156.3541 C   0  0  0  0  0  0  0  0  0  0  0  0
  149.0792  140.6641  154.8778 C   0  0  0  0  0  0  0  0  0  0  0  0
  150.1229  139.6845  154.6463 N   0  0  0  0  0  0  0  0  0  0  0  0
  150.0221  138.4425  154.0539 C   0  0  0  0  0  0  0  0  0  0  0  0
  151.3007  137.9645  154.1008 C   0  0  0  0  0  0  0  0  0  0  0  0
  152.1131  138.9206  154.7082 N   0  0  0  0  0  0  0  0  0  0  0  0
  151.3951  139.9508  155.0278 N   0  0  0  0  0  0  0  0  0  0  0  0
  152.2306  145.0000  157.5571 H   0  0  0  0  0  0  0  0  0  0  0  0
  152.5525  145.6824  159.1465 H   0  0  0  0  0  0  0  0  0  0  0  0
  150.9099  145.2315  158.7216 H   0  0  0  0  0  0  0  0  0  0  0  0
  153.2924  144.2384  160.8084 H   0  0  0  0  0  0  0  0  0  0  0  0
  154.3009  142.0761  161.2511 H   0  0  0  0  0  0  0  0  0  0  0  0
  152.6250  141.8328  161.7093 H   0  0  0  0  0  0  0  0  0  0  0  0
  153.9938  141.0216  159.0979 H   0  0  0  0  0  0  0  0  0  0  0  0
  153.3026  139.9561  160.2973 H   0  0  0  0  0  0  0  0  0  0  0  0
  151.0500  140.8610  159.8203 H   0  0  0  0  0  0  0  0  0  0  0  0
  152.4849  139.8664  157.3065 H   0  0  0  0  0  0  0  0  0  0  0  0
  150.7592  139.7211  157.6173 H   0  0  0  0  0  0  0  0  0  0  0  0
  151.9001  138.8502  158.6164 H   0  0  0  0  0  0  0  0  0  0  0  0
  152.1652  142.3282  157.4227 H   0  0  0  0  0  0  0  0  0  0  0  0
  149.4823  141.8632  158.6023 H   0  0  0  0  0  0  0  0  0  0  0  0
  149.7893  143.5530  158.3006 H   0  0  0  0  0  0  0  0  0  0  0  0
  149.2804  143.0931  156.2460 H   0  0  0  0  0  0  0  0  0  0  0  0
  149.3781  140.2781  156.9928 H   0  0  0  0  0  0  0  0  0  0  0  0
  147.9681  141.2642  156.6374 H   0  0  0  0  0  0  0  0  0  0  0  0
  148.1280  140.2379  154.5561 H   0  0  0  0  0  0  0  0  0  0  0  0
  149.2695  141.5308  154.2430 H   0  0  0  0  0  0  0  0  0  0  0  0
  149.1008  138.0285  153.6710 H   0  0  0  0  0  0  0  0  0  0  0  0
  151.6999  137.0232  153.7521 H   0  0  0  0  0  0  0  0  0  0  0  0
  150.6675  142.2300  156.0916 H   0  0  0  0  0  0  0  0  0  0  0  0
  1  2  1  0  0  0  0
  1 18  1  0  0  0  0
  1 19  1  0  0  0  0
  1 20  1  0  0  0  0
  2  8  1  0  0  0  0
  2  3  2  0  0  0  0
  3  4  1  0  0  0  0
  3 21  1  0  0  0  0
  4  5  1  0  0  0  0
  4 22  1  0  0  0  0
  4 23  1  0  0  0  0
  5  6  1  0  0  0  0
  5 24  1  0  0  0  0
  5 25  1  0  0  0  0
  6  7  1  0  0  0  0
  6  8  1  0  0  0  0
  6 26  1  0  0  0  0
  7 27  1  0  0  0  0
  7 28  1  0  0  0  0
  7 29  1  0  0  0  0
  8  9  1  0  0  0  0
  8 30  1  0  0  0  0
  9 10  1  0  0  0  0
  9 31  1  0  0  0  0
  9 32  1  0  0  0  0
 10 11  1  0  0  0  0
 10 33  1  0  0  0  0
 10 40  1  0  0  0  0
 11 12  1  0  0  0  0
 11 34  1  0  0  0  0
 11 35  1  0  0  0  0
 12 13  1  0  0  0  0
 12 36  1  0  0  0  0
 12 37  1  0  0  0  0
 13 17  1  0  0  0  0
 13 14  1  0  0  0  0
 14 15  2  0  0  0  0
 14 38  1  0  0  0  0
 15 16  1  0  0  0  0
 15 39  1  0  0  0  0
 16 17  2  0  0  0  0
M  CHG  1  10   1
M  END
> <s_m_source_file>
AV-unprocessed.smi

> <i_m_source_file_index>
3188

> <i_lp_mmshare_version>
43012

> <i_f3d_flags>
0

> <s_epik_input>
W0NIM11DMT1bQ0hdW0NIMl1bQ0gyXVtDQEBIXShbQ0gzXSlbQ0BIXTFbQ0gyXVtOSF1bQ0gyXVtDSDJdbjJbY0hdW2NIXW5uMg==

> <s_epik_cmdline>
J2VwaWtfcHl0aG9uJywgJy1waCcsICc3LjAnLCAnLXRuJywgJzgnLCAnLW1hJywgJzIwMCcsICctbWV0YWxfYmluZGluZycsICctaW1hZScsICc8aW5maWxlLm1hZT4nLCAnLW9tYWUnLCAnPG91dGZpbGUubWFlPic=

> <r_lp_tautomer_probability>
1

> <r_epik_Ionization_Penalty>
0.007268

> <r_epik_Ionization_Penalty_Charging>
0.00726786

> <r_epik_Ionization_Penalty_Neutral>
1.34882e-07

> <r_epik_State_Penalty>
0.00542069

> <r_epik_Charging_Adjusted_Penalty>
0.0126886

> <i_epik_Tot_Q>
1

> <i_epik_Tot_abs_Q>
1

> <r_epik_Metal_State_Penalty>
-0

> <b_epik_Metal_Only>
0

> <s_lp_Force_Field>
OPLS_2005

> <r_lp_Energy>
15.008

> <b_lp_Chiralities_Consistent>
1

> <s_lp_Variant>
AV-unprocessed.smi:3188-2

> <Gold.Version>
5.8.1

> <Gold.Id.Protein>
6NUR|6NUR_protein|mol2

> <Gold.PLP.Fitness>
51.2018

> <Gold.PLP.PLP>
-41.2024

> <Gold.PLP.part.hbond>
-2.5356

> <Gold.PLP.part.metal>
0.0000

> <Gold.PLP.part.buried>
-5.0983

> <Gold.PLP.part.nonpolar>
-34.1901

> <Gold.PLP.part.repulsive>
0.1458

> <Gold.PLP.ligand.clash>
0.0000

> <Gold.PLP.ligand.torsion>
1.3288

> <Gold.PLP.Chemscore.Hbond>
2.4250

> <Gold.PLP.Chemscore.CHOScore>
1.7738

> <Gold.PLP.Chemscore.Metal>
0.0000

> <Gold.Chemscore.Hbonds>
donor molecule, donor type, donor heavy atom, donor atom, acceptor molecule, acceptor atom, score
      L1  H    10    33       P1  8028  2.00
      P1  H  7989  7998       L1    17  0.42
      L1  C    14    38       P1  7948  0.87
      L1  C    15    39       P1  7949  0.87

> <Gold.PLP.Chemscore.Internal.Correction>
0.0605

> <Gold.Rescore>
     Score         DG    S(hbond)    S(metal)    S(lipo)     H(rot)  DE(clash)    DE(int)     intcor
     16.25     -17.54       1.00        0.00     113.51       1.78       0.01       1.27       ----

> <Gold.Chemscore.Fitness>
16.2515

> <Gold.Chemscore.DG>
-17.5359

> <Gold.Chemscore.ZeroCoef>
-5.4800

> <Gold.Chemscore.Hbond>
0.9982

> <Gold.Chemscore.Metal>
0.0000

> <Gold.Chemscore.Lipo>
113.5111

> <Gold.Chemscore.Internal_Hbond>
0.0000

> <Gold.Chemscore.DEClash>
0.0106

> <Gold.Chemscore.DEInternal>
1.2738

> <Gold.Chemscore.Rot>
1.7809

> <Gold.Chemscore.Internal.Correction>
   9.000000E+99

> <Gold.Chemscore.Hbonds>
donor molecule, donor type, donor heavy atom, donor atom, acceptor molecule, acceptor atom, score
      L1  H    10    33       P1  8028  1.00

> <Gold.Chemscore.Hbond.Weighted>
-3.3341

> <Gold.Chemscore.Metal.Weighted>
-0.0000

> <Gold.Chemscore.Lipo.Weighted>
-13.2808

> <Gold.Chemscore.Internal_Hbond.Weighted>
0.0000

> <Gold.Chemscore.DEClash.Weighted>
0.0106

> <Gold.Chemscore.DEInternal.Weighted>
1.2738

> <Gold.Chemscore.Rot.Weighted>
4.5590

> <Gold.Chemscore.Internal.Correction.Weighted>
   9.000000E+99

> <Gold.Protein.RotatedTorsions>
[ 6907 6896 6895 6894 ] final   91.14 input  -60.11 | X-H torsion
[ 7974 7965 7964 7962 ] final   -2.21 input  175.53 | X-H torsion
[ 8008 7997 7996 7995 ] final   97.06 input   59.86 | X-H torsion
[ 10167 10162 10161 10158 ] final  -56.85 input  -65.29 | X-H torsion
[ 10718 10713 10712 10709 ] final -178.60 input   66.30 | X-H torsion
[ 10763 10752 10751 10750 ] final  -16.58 input  -60.55 | X-H torsion
[ 11005 11000 10999 10996 ] final  160.87 input  -57.11 | X-H torsion

> <Gold.Protein.ActiveResidues>
 VAL166  LYS551  ARG553  GLY616  TRP617  ASP618  TYR619  PRO620  LYS621  CYS622 
 ASP623  PHE694  ASN695  SER759  ASP760  ASP761  ALA762  ILE779  LEU786  VAL792 
 PHE793  MET794  SER795  GLU796  ALA797  LYS798  CYS799  TRP800  GLU811  SER814 

> <Gold.Protein.RotatedAtoms>
  152.5448  134.1702  159.8593 H   0  0  0  0  0  0  0  0  0  0  0  0  # atno 6907 bound_to 6896
  151.1713  133.4775  159.2601 H   0  0  0  0  0  0  0  0  0  0  0  0  # atno 6908 bound_to 6896
  151.1272  135.0122  159.8621 H   0  0  0  0  0  0  0  0  0  0  0  0  # atno 6909 bound_to 6896
  146.2407  140.1536  142.8333 H   0  0  0  0  0  0  0  0  0  0  0  0  # atno 7974 bound_to 7965
  156.0862  140.3264  155.7757 H   0  0  0  0  0  0  0  0  0  0  0  0  # atno 8008 bound_to 7997
  155.5072  140.0574  157.2947 H   0  0  0  0  0  0  0  0  0  0  0  0  # atno 8009 bound_to 7997
  154.4611  140.1967  156.0260 H   0  0  0  0  0  0  0  0  0  0  0  0  # atno 8010 bound_to 7997
  140.6293  143.2452  151.5284 H   0  0  0  0  0  0  0  0  0  0  0  0  # atno 10167 bound_to 10162
  156.8467  130.9705  151.3096 H   0  0  0  0  0  0  0  0  0  0  0  0  # atno 10718 bound_to 10713
  153.5607  135.7010  153.5548 H   0  0  0  0  0  0  0  0  0  0  0  0  # atno 10763 bound_to 10752
  153.3432  135.4015  155.1588 H   0  0  0  0  0  0  0  0  0  0  0  0  # atno 10764 bound_to 10752
  154.8648  135.3747  154.5124 H   0  0  0  0  0  0  0  0  0  0  0  0  # atno 10765 bound_to 10752
  140.2102  134.8273  157.3112 H   0  0  0  0  0  0  0  0  0  0  0  0  # atno 11005 bound_to 11000
  145.0147  140.8743  143.5203 LP  0  0  0  0  0  0  0  0  0  0  0  0  # atno 17320 bound_to 7965
  145.1575  139.2478  143.5408 LP  0  0  0  0  0  0  0  0  0  0  0  0  # atno 17321 bound_to 7965
  139.5509  144.2399  152.1528 LP  0  0  0  0  0  0  0  0  0  0  0  0  # atno 17342 bound_to 10162
  140.1638  144.5000  150.6617 LP  0  0  0  0  0  0  0  0  0  0  0  0  # atno 17343 bound_to 10162
  157.6326  130.8741  149.9301 LP  0  0  0  0  0  0  0  0  0  0  0  0  # atno 17370 bound_to 10713
  156.0851  130.3669  150.0504 LP  0  0  0  0  0  0  0  0  0  0  0  0  # atno 17371 bound_to 10713
  140.1959  134.4314  155.7689 LP  0  0  0  0  0  0  0  0  0  0  0  0  # atno 17394 bound_to 11000
  141.2226  133.7049  156.8104 LP  0  0  0  0  0  0  0  0  0  0  0  0  # atno 17395 bound_to 11000

$$$$
