AV-unprocessed.smi:20|AV-procd|sdf|113|dock6
  -GOLD-   2262015273D 1   1.00000     0.00000
 Structure written by MMmdl.
 57 61  0  0  0  0  0  0  0  0  1 V2000
  146.0490  131.2084  154.4162 O   0  0  0  0  0  0  0  0  0  0  0  0
  147.0248  131.9039  154.1448 C   0  0  0  0  0  0  0  0  0  0  0  0
  147.8197  132.6831  155.1785 C   0  0  0  0  0  0  0  0  0  0  0  0
  149.1157  133.0647  154.4228 C   0  0  2  0  0  0  0  0  0  0  0  0
  150.2513  132.0376  154.6781 C   0  0  0  0  0  0  0  0  0  0  0  0
  150.8409  132.1633  156.0938 C   0  0  0  0  0  0  0  0  0  0  0  0
  151.2730  133.6070  156.3853 C   0  0  0  0  0  0  0  0  0  0  0  0
  150.1725  134.5352  156.1350 N   0  0  0  0  0  0  0  0  0  0  0  0
  150.3115  135.7540  156.7165 C   0  0  0  0  0  0  0  0  0  0  0  0
  149.8655  135.9561  157.9857 N   0  0  0  0  0  0  0  0  0  0  0  0
  149.9918  137.1542  158.5636 C   0  0  0  0  0  0  0  0  0  0  0  0
  150.5240  138.2702  158.0627 N   0  0  0  0  0  0  0  0  0  0  0  0
  150.9775  138.0743  156.7916 C   0  0  0  0  0  0  0  0  0  0  0  0
  150.9135  136.8598  156.0516 C   0  0  0  0  0  0  0  0  0  0  0  0
  151.4911  137.0388  154.8001 N   0  0  0  0  0  0  0  0  0  0  0  0
  151.8635  138.2894  154.7962 C   0  0  0  0  0  0  0  0  0  0  0  0
  151.5752  138.9921  155.9445 N   0  0  0  0  0  0  0  0  0  0  0  0
  151.8899  140.3862  156.2121 C   0  0  0  0  0  0  0  0  0  0  0  0
  150.8285  141.1250  157.0725 C   0  0  2  0  0  0  0  0  0  0  0  0
  149.5058  141.2388  156.2782 C   0  0  0  0  0  0  0  0  0  0  0  0
  149.7056  141.9010  155.0459 O   0  0  0  0  0  0  0  0  0  0  0  0
  151.3018  142.5270  157.5538 C   0  0  2  0  0  0  0  0  0  0  0  0
  152.3685  142.5436  158.6368 C   0  0  0  0  0  0  0  0  0  0  0  0
  152.2423  143.9519  159.2016 C   0  0  0  0  0  0  0  0  0  0  0  0
  150.8569  144.2564  159.1352 O   0  0  0  0  0  0  0  0  0  0  0  0
  150.2082  143.3632  158.2357 C   0  0  0  0  0  0  0  0  0  0  0  0
  149.6165  134.4827  154.7813 C   0  0  0  0  0  0  0  0  0  0  0  0
  148.6742  132.9929  152.9414 C   0  0  0  0  0  0  0  0  0  0  0  0
  147.5394  132.0907  152.9320 N   0  0  0  0  0  0  0  0  0  0  0  0
  147.2437  133.5642  155.4634 H   0  0  0  0  0  0  0  0  0  0  0  0
  147.9923  132.0885  156.0749 H   0  0  0  0  0  0  0  0  0  0  0  0
  149.8981  131.0190  154.5118 H   0  0  0  0  0  0  0  0  0  0  0  0
  151.0552  132.2004  153.9588 H   0  0  0  0  0  0  0  0  0  0  0  0
  150.1110  131.8449  156.8381 H   0  0  0  0  0  0  0  0  0  0  0  0
  151.6941  131.4932  156.2012 H   0  0  0  0  0  0  0  0  0  0  0  0
  151.6344  133.6752  157.4108 H   0  0  0  0  0  0  0  0  0  0  0  0
  152.1110  133.8790  155.7419 H   0  0  0  0  0  0  0  0  0  0  0  0
  149.6089  137.2305  159.5705 H   0  0  0  0  0  0  0  0  0  0  0  0
  152.3602  138.7376  153.9478 H   0  0  0  0  0  0  0  0  0  0  0  0
  152.8686  140.4498  156.6890 H   0  0  0  0  0  0  0  0  0  0  0  0
  151.9990  140.8664  155.2396 H   0  0  0  0  0  0  0  0  0  0  0  0
  150.6165  140.5248  157.9584 H   0  0  0  0  0  0  0  0  0  0  0  0
  149.0956  140.2578  156.0423 H   0  0  0  0  0  0  0  0  0  0  0  0
  148.7496  141.7695  156.8575 H   0  0  0  0  0  0  0  0  0  0  0  0
  149.3367  142.7692  155.1072 H   0  0  0  0  0  0  0  0  0  0  0  0
  151.6802  143.0896  156.6986 H   0  0  0  0  0  0  0  0  0  0  0  0
  152.1470  141.8060  159.4093 H   0  0  0  0  0  0  0  0  0  0  0  0
  153.3725  142.3597  158.2580 H   0  0  0  0  0  0  0  0  0  0  0  0
  152.6231  144.0318  160.2199 H   0  0  0  0  0  0  0  0  0  0  0  0
  152.7865  144.6616  158.5772 H   0  0  0  0  0  0  0  0  0  0  0  0
  149.6042  143.9173  157.5170 H   0  0  0  0  0  0  0  0  0  0  0  0
  149.5392  142.7281  158.8179 H   0  0  0  0  0  0  0  0  0  0  0  0
  150.3885  134.7915  154.0748 H   0  0  0  0  0  0  0  0  0  0  0  0
  148.7960  135.1955  154.6843 H   0  0  0  0  0  0  0  0  0  0  0  0
  148.3392  133.9649  152.5761 H   0  0  0  0  0  0  0  0  0  0  0  0
  149.4634  132.6427  152.2751 H   0  0  0  0  0  0  0  0  0  0  0  0
  147.1771  131.6725  152.0873 H   0  0  0  0  0  0  0  0  0  0  0  0
  1  2  2  0  0  0  0
  2 29  1  0  0  0  0
  2  3  1  0  0  0  0
  3  4  1  0  0  0  0
  3 30  1  0  0  0  0
  3 31  1  0  0  0  0
  4 27  1  0  0  0  0
  4  5  1  0  0  0  0
  4 28  1  0  0  0  0
  5  6  1  0  0  0  0
  5 32  1  0  0  0  0
  5 33  1  0  0  0  0
  6  7  1  0  0  0  0
  6 34  1  0  0  0  0
  6 35  1  0  0  0  0
  7  8  1  0  0  0  0
  7 36  1  0  0  0  0
  7 37  1  0  0  0  0
  8  9  1  0  0  0  0
  8 27  1  0  0  0  0
  9 14  1  0  0  0  0
  9 10  2  0  0  0  0
 10 11  1  0  0  0  0
 11 12  2  0  0  0  0
 11 38  1  0  0  0  0
 12 13  1  0  0  0  0
 13 17  1  0  0  0  0
 13 14  2  0  0  0  0
 14 15  1  0  0  0  0
 15 16  2  0  0  0  0
 16 17  1  0  0  0  0
 16 39  1  0  0  0  0
 17 18  1  0  0  0  0
 18 19  1  0  0  0  0
 18 40  1  0  0  0  0
 18 41  1  0  0  0  0
 19 20  1  0  0  0  0
 19 22  1  0  0  0  0
 19 42  1  0  0  0  0
 20 21  1  0  0  0  0
 20 43  1  0  0  0  0
 20 44  1  0  0  0  0
 21 45  1  0  0  0  0
 22 26  1  0  0  0  0
 22 23  1  0  0  0  0
 22 46  1  0  0  0  0
 23 24  1  0  0  0  0
 23 47  1  0  0  0  0
 23 48  1  0  0  0  0
 24 25  1  0  0  0  0
 24 49  1  0  0  0  0
 24 50  1  0  0  0  0
 25 26  1  0  0  0  0
 26 51  1  0  0  0  0
 26 52  1  0  0  0  0
 27 53  1  0  0  0  0
 27 54  1  0  0  0  0
 28 29  1  0  0  0  0
 28 55  1  0  0  0  0
 28 56  1  0  0  0  0
 29 57  1  0  0  0  0
M  END
> <s_m_source_file>
AV-unprocessed.smi

> <i_m_source_file_index>
20

> <i_lp_mmshare_version>
43012

> <i_f3d_flags>
0

> <s_epik_input>
W0NIMl0xW05IXUMoPU8pW0NIMl1bQ0BAXTEyW0NIMl1bQ0gyXVtDSDJdTihbQ0gyXTIpYyhuW2NIXW4zKWMoYzM0KW5bY0hdbjRbQ0gyXVtDQEhdKFtDSDJdW09IXSlbQ0BASF01W0NIMl1bQ0gyXU9bQ0gyXTU=

> <s_epik_cmdline>
J2VwaWtfcHl0aG9uJywgJy1waCcsICc3LjAnLCAnLXRuJywgJzgnLCAnLW1hJywgJzIwMCcsICctbWV0YWxfYmluZGluZycsICctaW1hZScsICc8aW5maWxlLm1hZT4nLCAnLW9tYWUnLCAnPG91dGZpbGUubWFlPic=

> <r_lp_tautomer_probability>
1

> <r_epik_Ionization_Penalty>
0.0019697

> <r_epik_Ionization_Penalty_Charging>
0

> <r_epik_Ionization_Penalty_Neutral>
0.0019697

> <r_epik_State_Penalty>
0.00113613

> <r_epik_Charging_Adjusted_Penalty>
0.00113613

> <i_epik_Tot_Q>
0

> <i_epik_Tot_abs_Q>
0

> <r_epik_Metal_State_Penalty>
-0

> <b_epik_Metal_Only>
0

> <s_lp_Force_Field>
OPLS_2005

> <r_lp_Energy>
60.2496

> <b_lp_Chiralities_Consistent>
1

> <s_lp_Variant>
AV-unprocessed.smi:20-1

> <Gold.Version>
5.8.1

> <Gold.Id.Protein>
6NUR|6NUR_protein|mol2

> <Gold.PLP.Fitness>
48.5818

> <Gold.PLP.PLP>
-42.5250

> <Gold.PLP.part.hbond>
-2.9886

> <Gold.PLP.part.metal>
0.0000

> <Gold.PLP.part.buried>
-7.9190

> <Gold.PLP.part.nonpolar>
-31.6345

> <Gold.PLP.part.repulsive>
0.4153

> <Gold.PLP.ligand.clash>
0.0000

> <Gold.PLP.ligand.torsion>
1.0368

> <Gold.PLP.Chemscore.Hbond>
2.5653

> <Gold.PLP.Chemscore.CHOScore>
0.0000

> <Gold.PLP.Chemscore.Metal>
0.0000

> <Gold.Chemscore.Hbonds>
donor molecule, donor type, donor heavy atom, donor atom, acceptor molecule, acceptor atom, score
      L1  H    21    45       P1  8028  0.91
      P1  H  6896  6908       L1    10  0.47
      P1  H 10752 10765       L1    15  0.75

> <Gold.PLP.Chemscore.Internal.Correction>
0.4346

> <Gold.Rescore>
     Score         DG    S(hbond)    S(metal)    S(lipo)     H(rot)  DE(clash)    DE(int)     intcor
     14.65     -17.18       2.09        0.00     100.34       2.74       0.86       1.67       ----

> <Gold.Chemscore.Fitness>
14.6493

> <Gold.Chemscore.DG>
-17.1846

> <Gold.Chemscore.ZeroCoef>
-5.4800

> <Gold.Chemscore.Hbond>
2.0909

> <Gold.Chemscore.Metal>
0.0000

> <Gold.Chemscore.Lipo>
100.3365

> <Gold.Chemscore.Internal_Hbond>
0.0000

> <Gold.Chemscore.DEClash>
0.8622

> <Gold.Chemscore.DEInternal>
1.6731

> <Gold.Chemscore.Rot>
2.7415

> <Gold.Chemscore.Internal.Correction>
   9.000000E+99

> <Gold.Chemscore.Hbonds>
donor molecule, donor type, donor heavy atom, donor atom, acceptor molecule, acceptor atom, score
      L1  H    21    45       P1  8028  0.87
      P1  H  6896  6908       L1    10  0.09
      P1  H 10752 10765       L1    15  0.61

> <Gold.Chemscore.Hbond.Weighted>
-6.9834

> <Gold.Chemscore.Metal.Weighted>
-0.0000

> <Gold.Chemscore.Lipo.Weighted>
-11.7394

> <Gold.Chemscore.Internal_Hbond.Weighted>
0.0000

> <Gold.Chemscore.DEClash.Weighted>
0.8622

> <Gold.Chemscore.DEInternal.Weighted>
1.6731

> <Gold.Chemscore.Rot.Weighted>
7.0182

> <Gold.Chemscore.Internal.Correction.Weighted>
   9.000000E+99

> <Gold.Protein.RotatedTorsions>
[ 6907 6896 6895 6894 ] final -178.75 input  -60.11 | X-H torsion
[ 7974 7965 7964 7962 ] final  -77.79 input  175.53 | X-H torsion
[ 8008 7997 7996 7995 ] final -173.02 input   59.86 | X-H torsion
[ 10167 10162 10161 10158 ] final   -7.74 input  -65.29 | X-H torsion
[ 10718 10713 10712 10709 ] final -149.73 input   66.30 | X-H torsion
[ 10763 10752 10751 10750 ] final  151.87 input  -60.55 | X-H torsion
[ 11005 11000 10999 10996 ] final   -3.53 input  -57.11 | X-H torsion

> <Gold.Protein.ActiveResidues>
 VAL166  LYS551  ARG553  GLY616  TRP617  ASP618  TYR619  PRO620  LYS621  CYS622 
 ASP623  PHE694  ASN695  SER759  ASP760  ASP761  ALA762  ILE779  LEU786  VAL792 
 PHE793  MET794  SER795  GLU796  ALA797  LYS798  CYS799  TRP800  GLU811  SER814 

> <Gold.Protein.RotatedAtoms>
  151.6423  133.3325  159.3132 H   0  0  0  0  0  0  0  0  0  0  0  0  # atno 6907 bound_to 6896
  150.8002  134.7094  159.6604 H   0  0  0  0  0  0  0  0  0  0  0  0  # atno 6908 bound_to 6896
  152.4093  134.6156  160.0089 H   0  0  0  0  0  0  0  0  0  0  0  0  # atno 6909 bound_to 6896
  145.5950  140.9421  143.1271 H   0  0  0  0  0  0  0  0  0  0  0  0  # atno 7974 bound_to 7965
  155.9521  140.1128  157.0968 H   0  0  0  0  0  0  0  0  0  0  0  0  # atno 8008 bound_to 7997
  154.4112  140.1198  156.5133 H   0  0  0  0  0  0  0  0  0  0  0  0  # atno 8009 bound_to 7997
  155.6829  140.3473  155.4864 H   0  0  0  0  0  0  0  0  0  0  0  0  # atno 8010 bound_to 7997
  140.7038  143.6047  150.8763 H   0  0  0  0  0  0  0  0  0  0  0  0  # atno 10167 bound_to 10162
  156.4369  130.8103  151.2331 H   0  0  0  0  0  0  0  0  0  0  0  0  # atno 10718 bound_to 10713
  154.1107  135.2839  155.3231 H   0  0  0  0  0  0  0  0  0  0  0  0  # atno 10763 bound_to 10752
  154.6491  135.5375  153.7884 H   0  0  0  0  0  0  0  0  0  0  0  0  # atno 10764 bound_to 10752
  153.0346  135.6505  154.1266 H   0  0  0  0  0  0  0  0  0  0  0  0  # atno 10765 bound_to 10752
  140.6703  133.9242  155.8490 H   0  0  0  0  0  0  0  0  0  0  0  0  # atno 11005 bound_to 11000
  144.7334  139.7656  143.7338 LP  0  0  0  0  0  0  0  0  0  0  0  0  # atno 17320 bound_to 7965
  146.1618  139.4735  142.9983 LP  0  0  0  0  0  0  0  0  0  0  0  0  # atno 17321 bound_to 7965
  139.9771  143.5992  152.2955 LP  0  0  0  0  0  0  0  0  0  0  0  0  # atno 17342 bound_to 10162
  139.6600  144.7662  151.1981 LP  0  0  0  0  0  0  0  0  0  0  0  0  # atno 17343 bound_to 10162
  157.7507  131.0180  150.3610 LP  0  0  0  0  0  0  0  0  0  0  0  0  # atno 17370 bound_to 10713
  156.3959  130.3906  149.6995 LP  0  0  0  0  0  0  0  0  0  0  0  0  # atno 17371 bound_to 10713
  141.0397  134.0639  157.3917 LP  0  0  0  0  0  0  0  0  0  0  0  0  # atno 17394 bound_to 11000
  139.8984  135.0154  156.7145 LP  0  0  0  0  0  0  0  0  0  0  0  0  # atno 17395 bound_to 11000

$$$$
