AV-unprocessed.smi:2171|AV-procd|sdf|8832|dock7
  -GOLD-   2272012 23D 1   1.00000     0.00000
 Structure written by MMmdl.
 39 41  0  0  0  0  0  0  0  0  2 V2000
  150.0627  140.2710  154.5640 O   0  0  0  0  0  0  0  0  0  0  0  0
  149.5118  141.3226  154.8914 C   0  0  0  0  0  0  0  0  0  0  0  0
  148.2631  141.8143  154.1523 C   0  0  0  0  0  0  0  0  0  0  0  0
  147.1349  141.9971  155.0496 N   0  0  0  0  0  0  0  0  0  0  0  0
  145.8693  142.4595  154.7531 C   0  0  0  0  0  0  0  0  0  0  0  0
  145.1519  142.4551  155.9148 C   0  0  0  0  0  0  0  0  0  0  0  0
  146.0762  141.9675  156.8806 C   0  0  0  0  0  0  0  0  0  0  0  0
  147.2612  141.6924  156.3599 N   0  0  0  0  0  0  0  0  0  0  0  0
  149.9615  142.1046  155.8848 N   0  0  0  0  0  0  0  0  0  0  0  0
  151.1358  141.8157  156.7040 C   0  0  2  0  0  0  0  0  0  0  0  0
  150.9420  140.6332  157.6445 C   0  0  0  0  0  0  0  0  0  0  0  0
  152.0585  140.8264  158.6763 C   0  0  0  0  0  0  0  0  0  0  0  0
  152.3615  142.2786  158.7157 N   0  3  2  0  0  0  0  0  0  0  0  0
  152.2641  142.8811  160.0725 C   0  0  0  0  0  0  0  0  0  0  0  0
  152.1827  144.4126  159.9900 C   0  0  0  0  0  0  0  0  0  0  0  0
  150.9238  144.8691  159.2285 C   0  0  0  0  0  0  0  0  0  0  0  0
  150.4042  143.7962  158.2521 C   0  0  0  0  0  0  0  0  0  0  0  0
  151.5578  142.9521  157.6559 C   0  0  2  0  0  0  0  0  0  0  0  0
  148.4631  142.7647  153.6554 H   0  0  0  0  0  0  0  0  0  0  0  0
  147.9982  141.0948  153.3761 H   0  0  0  0  0  0  0  0  0  0  0  0
  145.5882  142.7499  153.7514 H   0  0  0  0  0  0  0  0  0  0  0  0
  144.1236  142.7541  156.0538 H   0  0  0  0  0  0  0  0  0  0  0  0
  145.9220  141.8049  157.9372 H   0  0  0  0  0  0  0  0  0  0  0  0
  149.4547  142.9539  156.0892 H   0  0  0  0  0  0  0  0  0  0  0  0
  151.9747  141.5808  156.0452 H   0  0  0  0  0  0  0  0  0  0  0  0
  149.9701  140.6952  158.1366 H   0  0  0  0  0  0  0  0  0  0  0  0
  151.0006  139.6704  157.1357 H   0  0  0  0  0  0  0  0  0  0  0  0
  151.7798  140.4182  159.6487 H   0  0  0  0  0  0  0  0  0  0  0  0
  152.9603  140.3055  158.3532 H   0  0  0  0  0  0  0  0  0  0  0  0
  151.3799  142.5045  160.5898 H   0  0  0  0  0  0  0  0  0  0  0  0
  153.1291  142.5727  160.6605 H   0  0  0  0  0  0  0  0  0  0  0  0
  152.1946  144.8521  160.9879 H   0  0  0  0  0  0  0  0  0  0  0  0
  153.0724  144.7871  159.4818 H   0  0  0  0  0  0  0  0  0  0  0  0
  150.1295  145.1196  159.9326 H   0  0  0  0  0  0  0  0  0  0  0  0
  151.1498  145.7897  158.6887 H   0  0  0  0  0  0  0  0  0  0  0  0
  149.7099  143.1376  158.7758 H   0  0  0  0  0  0  0  0  0  0  0  0
  149.8250  144.2840  157.4680 H   0  0  0  0  0  0  0  0  0  0  0  0
  152.2176  143.6340  157.1172 H   0  0  0  0  0  0  0  0  0  0  0  0
  153.3250  142.3735  158.4276 H   0  0  0  0  0  0  0  0  0  0  0  0
  1  2  2  0  0  0  0
  2  3  1  0  0  0  0
  2  9  1  0  0  0  0
  3  4  1  0  0  0  0
  3 19  1  0  0  0  0
  3 20  1  0  0  0  0
  4  8  1  0  0  0  0
  4  5  1  0  0  0  0
  5  6  2  0  0  0  0
  5 21  1  0  0  0  0
  6  7  1  0  0  0  0
  6 22  1  0  0  0  0
  7  8  2  0  0  0  0
  7 23  1  0  0  0  0
  9 10  1  0  0  0  0
  9 24  1  0  0  0  0
 10 18  1  0  0  0  0
 10 11  1  0  0  0  0
 10 25  1  0  0  0  0
 11 12  1  0  0  0  0
 11 26  1  0  0  0  0
 11 27  1  0  0  0  0
 12 13  1  0  0  0  0
 12 28  1  0  0  0  0
 12 29  1  0  0  0  0
 13 18  1  0  0  0  0
 13 14  1  0  0  0  0
 13 39  1  0  0  0  0
 14 15  1  0  0  0  0
 14 30  1  0  0  0  0
 14 31  1  0  0  0  0
 15 16  1  0  0  0  0
 15 32  1  0  0  0  0
 15 33  1  0  0  0  0
 16 17  1  0  0  0  0
 16 34  1  0  0  0  0
 16 35  1  0  0  0  0
 17 18  1  0  0  0  0
 17 36  1  0  0  0  0
 17 37  1  0  0  0  0
 18 38  1  0  0  0  0
M  CHG  1  13   1
M  END
> <s_m_source_file>
AV-unprocessed.smi

> <i_m_source_file_index>
2171

> <i_lp_mmshare_version>
43012

> <i_f3d_flags>
0

> <s_epik_input>
bjFbY0hdW2NIXVtjSF1uMVtDSDJdQyg9TylbTkhdW0NASF0oW0NIMl1bQ0gyXTIpW0NAQEhdKE4yMylbQ0gyXVtDSDJdW0NIMl1bQ0gyXTM=

> <s_epik_cmdline>
J2VwaWtfcHl0aG9uJywgJy1waCcsICc3LjAnLCAnLXRuJywgJzgnLCAnLW1hJywgJzIwMCcsICctbWV0YWxfYmluZGluZycsICctaW1hZScsICc8aW5maWxlLm1hZT4nLCAnLW9tYWUnLCAnPG91dGZpbGUubWFlPic=

> <r_lp_tautomer_probability>
1

> <r_epik_Ionization_Penalty>
0.00204179

> <r_epik_Ionization_Penalty_Charging>
0.00203239

> <r_epik_Ionization_Penalty_Neutral>
9.40205e-06

> <r_epik_State_Penalty>
0.00138983

> <r_epik_Charging_Adjusted_Penalty>
0.00342221

> <i_epik_Tot_Q>
1

> <i_epik_Tot_abs_Q>
1

> <r_epik_Metal_State_Penalty>
-0

> <b_epik_Metal_Only>
0

> <s_lp_Force_Field>
OPLS_2005

> <r_lp_Energy>
41.0306

> <b_lp_Chiralities_Consistent>
1

> <s_lp_Variant>
AV-unprocessed.smi:2171-7

> <Gold.Version>
5.8.1

> <Gold.Id.Protein>
6NUR|6NUR_protein|mol2

> <Gold.PLP.Fitness>
42.6857

> <Gold.PLP.PLP>
-36.8409

> <Gold.PLP.part.hbond>
-2.0000

> <Gold.PLP.part.metal>
0.0000

> <Gold.PLP.part.buried>
-4.2497

> <Gold.PLP.part.nonpolar>
-30.7425

> <Gold.PLP.part.repulsive>
0.4113

> <Gold.PLP.ligand.clash>
0.0000

> <Gold.PLP.ligand.torsion>
0.0791

> <Gold.PLP.Chemscore.Hbond>
2.0000

> <Gold.PLP.Chemscore.CHOScore>
0.0000

> <Gold.PLP.Chemscore.Metal>
0.0000

> <Gold.Chemscore.Hbonds>
donor molecule, donor type, donor heavy atom, donor atom, acceptor molecule, acceptor atom, score
      L1  H     9    24       P1  8028  1.00
      P1  H  7989  7998       L1     1  0.99

> <Gold.PLP.Chemscore.Internal.Correction>
0.0031

> <Gold.Rescore>
     Score         DG    S(hbond)    S(metal)    S(lipo)     H(rot)  DE(clash)    DE(int)     intcor
     17.67     -17.99       1.71        0.00      89.65       1.44       0.25       0.07       ----

> <Gold.Chemscore.Fitness>
17.6669

> <Gold.Chemscore.DG>
-17.9937

> <Gold.Chemscore.ZeroCoef>
-5.4800

> <Gold.Chemscore.Hbond>
1.7106

> <Gold.Chemscore.Metal>
0.0000

> <Gold.Chemscore.Lipo>
89.6519

> <Gold.Chemscore.Internal_Hbond>
0.0000

> <Gold.Chemscore.DEClash>
0.2533

> <Gold.Chemscore.DEInternal>
0.0735

> <Gold.Chemscore.Rot>
1.4410

> <Gold.Chemscore.Internal.Correction>
   9.000000E+99

> <Gold.Chemscore.Hbonds>
donor molecule, donor type, donor heavy atom, donor atom, acceptor molecule, acceptor atom, score
      L1  H     9    24       P1  8028  0.96
      P1  H  7989  7998       L1     1  0.36

> <Gold.Chemscore.Hbond.Weighted>
-5.7134

> <Gold.Chemscore.Metal.Weighted>
-0.0000

> <Gold.Chemscore.Lipo.Weighted>
-10.4893

> <Gold.Chemscore.Internal_Hbond.Weighted>
0.0000

> <Gold.Chemscore.DEClash.Weighted>
0.2533

> <Gold.Chemscore.DEInternal.Weighted>
0.0735

> <Gold.Chemscore.Rot.Weighted>
3.6889

> <Gold.Chemscore.Internal.Correction.Weighted>
   9.000000E+99

> <Gold.Protein.RotatedTorsions>
[ 6907 6896 6895 6894 ] final  -74.85 input  -60.11 | X-H torsion
[ 7974 7965 7964 7962 ] final  136.21 input  175.53 | X-H torsion
[ 8008 7997 7996 7995 ] final  157.58 input   59.86 | X-H torsion
[ 10167 10162 10161 10158 ] final  -40.12 input  -65.29 | X-H torsion
[ 10718 10713 10712 10709 ] final  -23.96 input   66.30 | X-H torsion
[ 10763 10752 10751 10750 ] final   25.66 input  -60.55 | X-H torsion
[ 11005 11000 10999 10996 ] final    4.18 input  -57.11 | X-H torsion

> <Gold.Protein.ActiveResidues>
 VAL166  LYS551  ARG553  GLY616  TRP617  ASP618  TYR619  PRO620  LYS621  CYS622 
 ASP623  PHE694  ASN695  SER759  ASP760  ASP761  ALA762  ILE779  LEU786  VAL792 
 PHE793  MET794  SER795  GLU796  ALA797  LYS798  CYS799  TRP800  GLU811  SER814 

> <Gold.Protein.RotatedAtoms>
  150.7079  134.4808  159.5468 H   0  0  0  0  0  0  0  0  0  0  0  0  # atno 6907 bound_to 6896
  152.2445  134.8192  160.0464 H   0  0  0  0  0  0  0  0  0  0  0  0  # atno 6908 bound_to 6896
  151.8962  133.3492  159.3852 H   0  0  0  0  0  0  0  0  0  0  0  0  # atno 6909 bound_to 6896
  144.9587  139.4735  143.5490 H   0  0  0  0  0  0  0  0  0  0  0  0  # atno 7974 bound_to 7965
  156.2355  140.1881  156.7131 H   0  0  0  0  0  0  0  0  0  0  0  0  # atno 8008 bound_to 7997
  154.6098  140.0623  156.9506 H   0  0  0  0  0  0  0  0  0  0  0  0  # atno 8009 bound_to 7997
  155.2034  140.3294  155.4342 H   0  0  0  0  0  0  0  0  0  0  0  0  # atno 8010 bound_to 7997
  140.7044  143.3172  151.2880 H   0  0  0  0  0  0  0  0  0  0  0  0  # atno 10167 bound_to 10162
  156.4840  130.4551  149.6794 H   0  0  0  0  0  0  0  0  0  0  0  0  # atno 10718 bound_to 10713
  153.0676  135.6578  154.0318 H   0  0  0  0  0  0  0  0  0  0  0  0  # atno 10763 bound_to 10752
  153.9971  135.2940  155.3408 H   0  0  0  0  0  0  0  0  0  0  0  0  # atno 10764 bound_to 10752
  154.7040  135.5233  153.8637 H   0  0  0  0  0  0  0  0  0  0  0  0  # atno 10765 bound_to 10752
  140.5848  133.9979  155.8063 H   0  0  0  0  0  0  0  0  0  0  0  0  # atno 11005 bound_to 11000
  146.3346  139.8722  142.8838 LP  0  0  0  0  0  0  0  0  0  0  0  0  # atno 17320 bound_to 7965
  145.2733  141.0115  143.3759 LP  0  0  0  0  0  0  0  0  0  0  0  0  # atno 17321 bound_to 7965
  139.6615  144.0181  152.2695 LP  0  0  0  0  0  0  0  0  0  0  0  0  # atno 17342 bound_to 10162
  139.9750  144.6468  150.7953 LP  0  0  0  0  0  0  0  0  0  0  0  0  # atno 17343 bound_to 10162
  156.3493  130.7423  151.2380 LP  0  0  0  0  0  0  0  0  0  0  0  0  # atno 17370 bound_to 10713
  157.7480  131.0381  150.4490 LP  0  0  0  0  0  0  0  0  0  0  0  0  # atno 17371 bound_to 10713
  141.0973  133.9823  157.3139 LP  0  0  0  0  0  0  0  0  0  0  0  0  # atno 17394 bound_to 11000
  139.9301  135.0200  156.8369 LP  0  0  0  0  0  0  0  0  0  0  0  0  # atno 17395 bound_to 11000

$$$$
