AV-unprocessed.smi:1098|AV-procd|sdf|4753|dock2
  -GOLD-   22720 3293D 1   1.00000     0.00000
 Structure written by MMmdl.
 43 44  0  0  0  0  0  0  0  0  2 V2000
  152.0269  143.1549  159.0385 C   0  0  0  0  0  0  0  0  0  0  0  0
  151.5762  141.8198  158.4397 C   0  0  0  0  0  0  0  0  0  0  0  0
  151.1084  141.9983  156.6955 S   0  0  0  0  0  0  0  0  0  0  0  0
  150.5382  140.4267  156.1190 C   0  0  0  0  0  0  0  0  0  0  0  0
  150.2882  139.3439  156.9879 C   0  0  0  0  0  0  0  0  0  0  0  0
  149.8407  138.1314  156.4287 C   0  0  0  0  0  0  0  0  0  0  0  0
  149.6529  138.0493  155.0270 C   0  0  0  0  0  0  0  0  0  0  0  0
  149.2264  136.8807  154.3385 N   0  0  0  0  0  0  0  0  0  0  0  0
  148.9118  135.6740  154.8403 C   0  0  0  0  0  0  0  0  0  0  0  0
  148.8971  135.3780  156.0347 O   0  0  0  0  0  0  0  0  0  0  0  0
  148.5885  134.8130  153.8645 N   0  0  0  0  0  0  0  0  0  0  0  0
  148.2054  133.4186  154.0684 C   0  0  2  0  0  0  0  0  0  0  0  0
  149.4604  132.5320  154.1172 C   0  0  0  0  0  0  0  0  0  0  0  0
  149.0854  131.0466  154.2541 C   0  0  0  0  0  0  0  0  0  0  0  0
  148.1832  130.6199  153.1555 N   0  3  1  0  0  0  0  0  0  0  0  0
  147.8981  129.1694  153.1930 C   0  0  0  0  0  0  0  0  0  0  0  0
  146.9454  131.4373  153.1029 C   0  0  0  0  0  0  0  0  0  0  0  0
  147.2737  132.9313  152.9426 C   0  0  0  0  0  0  0  0  0  0  0  0
  149.9453  139.1951  154.2569 C   0  0  0  0  0  0  0  0  0  0  0  0
  150.3751  140.3619  154.7817 N   0  0  0  0  0  0  0  0  0  0  0  0
  152.2930  143.0392  160.0892 H   0  0  0  0  0  0  0  0  0  0  0  0
  151.2347  143.9013  158.9757 H   0  0  0  0  0  0  0  0  0  0  0  0
  152.8995  143.5459  158.5150 H   0  0  0  0  0  0  0  0  0  0  0  0
  152.3808  141.0886  158.5206 H   0  0  0  0  0  0  0  0  0  0  0  0
  150.7236  141.4320  158.9976 H   0  0  0  0  0  0  0  0  0  0  0  0
  150.4360  139.4197  158.0538 H   0  0  0  0  0  0  0  0  0  0  0  0
  149.6674  137.2926  157.0841 H   0  0  0  0  0  0  0  0  0  0  0  0
  149.1147  136.9882  153.3410 H   0  0  0  0  0  0  0  0  0  0  0  0
  148.6207  135.1431  152.9109 H   0  0  0  0  0  0  0  0  0  0  0  0
  147.6866  133.3285  155.0251 H   0  0  0  0  0  0  0  0  0  0  0  0
  150.0519  132.6741  153.2112 H   0  0  0  0  0  0  0  0  0  0  0  0
  150.0965  132.8288  154.9519 H   0  0  0  0  0  0  0  0  0  0  0  0
  149.9917  130.4401  154.2391 H   0  0  0  0  0  0  0  0  0  0  0  0
  148.6003  130.8690  155.2155 H   0  0  0  0  0  0  0  0  0  0  0  0
  147.3569  128.9000  154.1011 H   0  0  0  0  0  0  0  0  0  0  0  0
  148.8239  128.5938  153.1626 H   0  0  0  0  0  0  0  0  0  0  0  0
  147.2948  128.8733  152.3342 H   0  0  0  0  0  0  0  0  0  0  0  0
  146.3263  131.1097  152.2666 H   0  0  0  0  0  0  0  0  0  0  0  0
  146.3624  131.2769  154.0115 H   0  0  0  0  0  0  0  0  0  0  0  0
  146.3488  133.5095  152.9393 H   0  0  0  0  0  0  0  0  0  0  0  0
  147.7447  133.0970  151.9724 H   0  0  0  0  0  0  0  0  0  0  0  0
  149.8290  139.1774  153.1830 H   0  0  0  0  0  0  0  0  0  0  0  0
  148.6789  130.7910  152.2922 H   0  0  0  0  0  0  0  0  0  0  0  0
  1  2  1  0  0  0  0
  1 21  1  0  0  0  0
  1 22  1  0  0  0  0
  1 23  1  0  0  0  0
  2  3  1  0  0  0  0
  2 24  1  0  0  0  0
  2 25  1  0  0  0  0
  3  4  1  0  0  0  0
  4 20  1  0  0  0  0
  4  5  2  0  0  0  0
  5  6  1  0  0  0  0
  5 26  1  0  0  0  0
  6  7  2  0  0  0  0
  6 27  1  0  0  0  0
  7  8  1  0  0  0  0
  7 19  1  0  0  0  0
  8  9  1  0  0  0  0
  8 28  1  0  0  0  0
  9 10  2  0  0  0  0
  9 11  1  0  0  0  0
 11 12  1  0  0  0  0
 11 29  1  0  0  0  0
 12 18  1  0  0  0  0
 12 13  1  0  0  0  0
 12 30  1  0  0  0  0
 13 14  1  0  0  0  0
 13 31  1  0  0  0  0
 13 32  1  0  0  0  0
 14 15  1  0  0  0  0
 14 33  1  0  0  0  0
 14 34  1  0  0  0  0
 15 16  1  0  0  0  0
 15 17  1  0  0  0  0
 15 43  1  0  0  0  0
 16 35  1  0  0  0  0
 16 36  1  0  0  0  0
 16 37  1  0  0  0  0
 17 18  1  0  0  0  0
 17 38  1  0  0  0  0
 17 39  1  0  0  0  0
 18 40  1  0  0  0  0
 18 41  1  0  0  0  0
 19 20  2  0  0  0  0
 19 42  1  0  0  0  0
M  CHG  1  15   1
M  END
> <s_m_source_file>
AV-unprocessed.smi

> <i_m_source_file_index>
1098

> <i_lp_mmshare_version>
43012

> <i_f3d_flags>
0

> <s_epik_input>
W0NIM11bQ0gyXVNjMVtjSF1bY0hdYyhbY0hdbjEpW05IXUMoPU8pW05IXVtDSF0yW0NIMl1bQ0gyXU4oW0NIM10pW0NIMl1bQ0gyXTI=

> <s_epik_cmdline>
J2VwaWtfcHl0aG9uJywgJy1waCcsICc3LjAnLCAnLXRuJywgJzgnLCAnLW1hJywgJzIwMCcsICctbWV0YWxfYmluZGluZycsICctaW1hZScsICc8aW5maWxlLm1hZT4nLCAnLW9tYWUnLCAnPG91dGZpbGUubWFlPic=

> <r_lp_tautomer_probability>
1

> <r_epik_Ionization_Penalty>
0.00403107

> <r_epik_Ionization_Penalty_Charging>
0.00366825

> <r_epik_Ionization_Penalty_Neutral>
0.000362818

> <r_epik_State_Penalty>
-0

> <r_epik_Charging_Adjusted_Penalty>
0.00366825

> <i_epik_Tot_Q>
1

> <i_epik_Tot_abs_Q>
1

> <r_epik_Metal_State_Penalty>
-0

> <b_epik_Metal_Only>
0

> <s_lp_Force_Field>
OPLS_2005

> <r_lp_Energy>
18.4607

> <b_lp_Chiralities_Consistent>
1

> <s_lp_Variant>
AV-unprocessed.smi:1098-1

> <Gold.Version>
5.8.1

> <Gold.Id.Protein>
6NUR|6NUR_protein|mol2

> <Gold.PLP.Fitness>
44.8832

> <Gold.PLP.PLP>
-30.8438

> <Gold.PLP.part.hbond>
-4.0000

> <Gold.PLP.part.metal>
0.0000

> <Gold.PLP.part.buried>
-2.9716

> <Gold.PLP.part.nonpolar>
-23.8170

> <Gold.PLP.part.repulsive>
0.1483

> <Gold.PLP.ligand.clash>
0.0000

> <Gold.PLP.ligand.torsion>
0.4728

> <Gold.PLP.Chemscore.Hbond>
3.9920

> <Gold.PLP.Chemscore.CHOScore>
1.0000

> <Gold.PLP.Chemscore.Metal>
0.0000

> <Gold.Chemscore.Hbonds>
donor molecule, donor type, donor heavy atom, donor atom, acceptor molecule, acceptor atom, score
      L1  H     8    28       P1  7948  0.94
      L1  H    11    29       P1  7948  0.96
      L1  H    15    43       P1 10747  1.00
      P1  H  7989  7998       L1    20  1.00
      L1  C    19    42       P1  7957  1.00

> <Gold.PLP.Chemscore.Internal.Correction>
0.0091

> <Gold.Rescore>
     Score         DG    S(hbond)    S(metal)    S(lipo)     H(rot)  DE(clash)    DE(int)     intcor
     19.71     -21.40       2.92        0.00      81.27       1.30       0.02       1.67       ----

> <Gold.Chemscore.Fitness>
19.7092

> <Gold.Chemscore.DG>
-21.3985

> <Gold.Chemscore.ZeroCoef>
-5.4800

> <Gold.Chemscore.Hbond>
2.9183

> <Gold.Chemscore.Metal>
0.0000

> <Gold.Chemscore.Lipo>
81.2744

> <Gold.Chemscore.Internal_Hbond>
0.0000

> <Gold.Chemscore.DEClash>
0.0179

> <Gold.Chemscore.DEInternal>
1.6714

> <Gold.Chemscore.Rot>
1.3038

> <Gold.Chemscore.Internal.Correction>
   9.000000E+99

> <Gold.Chemscore.Hbonds>
donor molecule, donor type, donor heavy atom, donor atom, acceptor molecule, acceptor atom, score
      L1  H     8    28       P1  7948  0.90
      L1  H    11    29       P1  7948  0.53
      L1  H    15    43       P1 10747  0.70
      P1  H  7989  7998       L1    20  0.29

> <Gold.Chemscore.Hbond.Weighted>
-9.7472

> <Gold.Chemscore.Metal.Weighted>
-0.0000

> <Gold.Chemscore.Lipo.Weighted>
-9.5091

> <Gold.Chemscore.Internal_Hbond.Weighted>
0.0000

> <Gold.Chemscore.DEClash.Weighted>
0.0179

> <Gold.Chemscore.DEInternal.Weighted>
1.6714

> <Gold.Chemscore.Rot.Weighted>
3.3378

> <Gold.Chemscore.Internal.Correction.Weighted>
   9.000000E+99

> <Gold.Protein.RotatedTorsions>
[ 6907 6896 6895 6894 ] final  121.07 input  -60.11 | X-H torsion
[ 7974 7965 7964 7962 ] final  -35.10 input  175.53 | X-H torsion
[ 8008 7997 7996 7995 ] final  -14.17 input   59.86 | X-H torsion
[ 10167 10162 10161 10158 ] final  111.95 input  -65.29 | X-H torsion
[ 10718 10713 10712 10709 ] final  -78.54 input   66.30 | X-H torsion
[ 10763 10752 10751 10750 ] final   81.42 input  -60.55 | X-H torsion
[ 11005 11000 10999 10996 ] final  153.81 input  -57.11 | X-H torsion

> <Gold.Protein.ActiveResidues>
 VAL166  LYS551  ARG553  GLY616  TRP617  ASP618  TYR619  PRO620  LYS621  CYS622 
 ASP623  PHE694  ASN695  SER759  ASP760  ASP761  ALA762  ILE779  LEU786  VAL792 
 PHE793  MET794  SER795  GLU796  ALA797  LYS798  CYS799  TRP800  GLU811  SER814 

> <Gold.Protein.RotatedAtoms>
  152.4350  133.7345  159.6605 H   0  0  0  0  0  0  0  0  0  0  0  0  # atno 6907 bound_to 6896
  150.8233  133.8205  159.3135 H   0  0  0  0  0  0  0  0  0  0  0  0  # atno 6908 bound_to 6896
  151.5881  135.1057  160.0084 H   0  0  0  0  0  0  0  0  0  0  0  0  # atno 6909 bound_to 6896
  146.0775  140.6118  142.8924 H   0  0  0  0  0  0  0  0  0  0  0  0  # atno 7974 bound_to 7965
  154.5232  140.2230  155.8937 H   0  0  0  0  0  0  0  0  0  0  0  0  # atno 8008 bound_to 7997
  156.1685  140.3127  155.8896 H   0  0  0  0  0  0  0  0  0  0  0  0  # atno 8009 bound_to 7997
  155.3607  140.0461  157.3037 H   0  0  0  0  0  0  0  0  0  0  0  0  # atno 8010 bound_to 7997
  139.6572  144.7129  151.1933 H   0  0  0  0  0  0  0  0  0  0  0  0  # atno 10167 bound_to 10162
  156.0115  130.4521  150.3511 H   0  0  0  0  0  0  0  0  0  0  0  0  # atno 10718 bound_to 10713
  153.1115  135.4766  154.9043 H   0  0  0  0  0  0  0  0  0  0  0  0  # atno 10763 bound_to 10752
  154.7486  135.3100  154.8602 H   0  0  0  0  0  0  0  0  0  0  0  0  # atno 10764 bound_to 10752
  153.9190  135.6857  153.4802 H   0  0  0  0  0  0  0  0  0  0  0  0  # atno 10765 bound_to 10752
  140.1431  134.8725  157.2357 H   0  0  0  0  0  0  0  0  0  0  0  0  # atno 11005 bound_to 11000
  144.7271  140.4558  143.6965 LP  0  0  0  0  0  0  0  0  0  0  0  0  # atno 17320 bound_to 7965
  145.6280  139.1532  143.2985 LP  0  0  0  0  0  0  0  0  0  0  0  0  # atno 17321 bound_to 7965
  140.7564  143.6052  150.8660 LP  0  0  0  0  0  0  0  0  0  0  0  0  # atno 17342 bound_to 10162
  139.9706  143.6061  152.2974 LP  0  0  0  0  0  0  0  0  0  0  0  0  # atno 17343 bound_to 10162
  157.1604  131.0343  151.2844 LP  0  0  0  0  0  0  0  0  0  0  0  0  # atno 17370 bound_to 10713
  157.4316  130.7494  149.6995 LP  0  0  0  0  0  0  0  0  0  0  0  0  # atno 17371 bound_to 10713
  140.2697  134.3475  155.7378 LP  0  0  0  0  0  0  0  0  0  0  0  0  # atno 17394 bound_to 11000
  141.2189  133.7416  156.9204 LP  0  0  0  0  0  0  0  0  0  0  0  0  # atno 17395 bound_to 11000

$$$$
