AV-unprocessed.smi:243|AV-procd|sdf|1859|dock5
  -GOLD-   2262020493D 1   1.00000     0.00000
 Structure written by MMmdl.
 58 61  0  0  0  0  0  0  0  0  2 V2000
  150.9794  144.3896  160.1963 C   0  0  0  0  0  0  0  0  0  0  0  0
  151.9832  144.1669  159.0560 C   0  0  0  0  0  0  0  0  0  0  0  0
  152.1291  142.7330  158.7004 N   0  3  1  0  0  0  0  0  0  0  0  0
  152.6255  141.9206  159.8403 C   0  0  0  0  0  0  0  0  0  0  0  0
  152.9127  140.4748  159.4079 C   0  0  0  0  0  0  0  0  0  0  0  0
  151.6628  139.8348  158.7735 C   0  0  2  0  0  0  0  0  0  0  0  0
  151.8324  138.4082  158.4523 N   0  0  0  0  0  0  0  0  0  0  0  0
  153.0216  137.9282  157.7439 C   0  0  0  0  0  0  0  0  0  0  0  0
  150.6890  137.6915  158.2758 C   0  0  0  0  0  0  0  0  0  0  0  0
  149.8830  137.4561  159.3464 N   0  0  0  0  0  0  0  0  0  0  0  0
  148.7641  136.7393  159.2100 C   0  0  0  0  0  0  0  0  0  0  0  0
  148.2673  136.1717  158.1104 N   0  0  0  0  0  0  0  0  0  0  0  0
  149.0635  136.4080  157.0292 C   0  0  0  0  0  0  0  0  0  0  0  0
  150.2812  137.1474  157.0226 C   0  0  0  0  0  0  0  0  0  0  0  0
  150.8032  137.1754  155.7339 N   0  0  0  0  0  0  0  0  0  0  0  0
  149.9528  136.4847  155.0257 C   0  0  0  0  0  0  0  0  0  0  0  0
  148.8719  135.9954  155.7222 N   0  0  0  0  0  0  0  0  0  0  0  0
  147.7710  135.2097  155.1862 C   0  0  0  0  0  0  0  0  0  0  0  0
  148.0767  134.5905  153.8020 C   0  0  1  0  0  0  0  0  0  0  0  0
  148.0986  135.6211  152.8295 O   0  0  0  0  0  0  0  0  0  0  0  0
  149.4006  133.8332  153.7348 C   0  0  0  0  0  0  0  0  0  0  0  0
  149.1104  132.7285  152.7286 C   0  0  0  0  0  0  0  0  0  0  0  0
  147.7860  132.3512  153.0628 O   0  0  0  0  0  0  0  0  0  0  0  0
  147.0459  133.5295  153.3669 C   0  0  0  0  0  0  0  0  0  0  0  0
  151.1253  140.7070  157.6069 C   0  0  2  0  0  0  0  0  0  0  0  0
  151.9797  140.6948  156.3250 C   0  0  0  0  0  0  0  0  0  0  0  0
  150.8952  142.1482  158.1089 C   0  0  0  0  0  0  0  0  0  0  0  0
  150.8278  145.4554  160.3691 H   0  0  0  0  0  0  0  0  0  0  0  0
  151.3204  143.9567  161.1362 H   0  0  0  0  0  0  0  0  0  0  0  0
  150.0088  143.9539  159.9568 H   0  0  0  0  0  0  0  0  0  0  0  0
  151.6212  144.7180  158.1871 H   0  0  0  0  0  0  0  0  0  0  0  0
  152.9556  144.5930  159.3072 H   0  0  0  0  0  0  0  0  0  0  0  0
  153.5413  142.3600  160.2379 H   0  0  0  0  0  0  0  0  0  0  0  0
  151.8910  141.9349  160.6472 H   0  0  0  0  0  0  0  0  0  0  0  0
  153.7479  140.4728  158.7071 H   0  0  0  0  0  0  0  0  0  0  0  0
  153.2313  139.8933  160.2739 H   0  0  0  0  0  0  0  0  0  0  0  0
  150.9110  139.8864  159.5580 H   0  0  0  0  0  0  0  0  0  0  0  0
  153.0603  136.8380  157.7461 H   0  0  0  0  0  0  0  0  0  0  0  0
  153.9336  138.2696  158.2322 H   0  0  0  0  0  0  0  0  0  0  0  0
  153.0442  138.2630  156.7084 H   0  0  0  0  0  0  0  0  0  0  0  0
  148.1845  136.6001  160.1109 H   0  0  0  0  0  0  0  0  0  0  0  0
  150.0881  136.3193  153.9669 H   0  0  0  0  0  0  0  0  0  0  0  0
  147.5330  134.4253  155.9056 H   0  0  0  0  0  0  0  0  0  0  0  0
  146.8876  135.8470  155.1271 H   0  0  0  0  0  0  0  0  0  0  0  0
  148.9789  135.7001  152.4953 H   0  0  0  0  0  0  0  0  0  0  0  0
  150.2531  134.4556  153.4587 H   0  0  0  0  0  0  0  0  0  0  0  0
  149.6227  133.3742  154.6990 H   0  0  0  0  0  0  0  0  0  0  0  0
  149.1412  133.1078  151.7059 H   0  0  0  0  0  0  0  0  0  0  0  0
  149.8016  131.8892  152.8095 H   0  0  0  0  0  0  0  0  0  0  0  0
  146.3233  133.3045  154.1522 H   0  0  0  0  0  0  0  0  0  0  0  0
  146.4823  133.8420  152.4862 H   0  0  0  0  0  0  0  0  0  0  0  0
  150.1453  140.3194  157.3245 H   0  0  0  0  0  0  0  0  0  0  0  0
  153.0170  140.9666  156.5185 H   0  0  0  0  0  0  0  0  0  0  0  0
  151.5884  141.3988  155.5902 H   0  0  0  0  0  0  0  0  0  0  0  0
  151.9658  139.7149  155.8502 H   0  0  0  0  0  0  0  0  0  0  0  0
  150.1039  142.1535  158.8606 H   0  0  0  0  0  0  0  0  0  0  0  0
  150.5361  142.7633  157.2844 H   0  0  0  0  0  0  0  0  0  0  0  0
  152.8461  142.6874  157.9904 H   0  0  0  0  0  0  0  0  0  0  0  0
  1  2  1  0  0  0  0
  1 28  1  0  0  0  0
  1 29  1  0  0  0  0
  1 30  1  0  0  0  0
  2  3  1  0  0  0  0
  2 31  1  0  0  0  0
  2 32  1  0  0  0  0
  3 27  1  0  0  0  0
  3  4  1  0  0  0  0
  3 58  1  0  0  0  0
  4  5  1  0  0  0  0
  4 33  1  0  0  0  0
  4 34  1  0  0  0  0
  5  6  1  0  0  0  0
  5 35  1  0  0  0  0
  5 36  1  0  0  0  0
  6  7  1  0  0  0  0
  6 25  1  0  0  0  0
  6 37  1  0  0  0  0
  7  8  1  0  0  0  0
  7  9  1  0  0  0  0
  8 38  1  0  0  0  0
  8 39  1  0  0  0  0
  8 40  1  0  0  0  0
  9 14  1  0  0  0  0
  9 10  2  0  0  0  0
 10 11  1  0  0  0  0
 11 12  2  0  0  0  0
 11 41  1  0  0  0  0
 12 13  1  0  0  0  0
 13 17  1  0  0  0  0
 13 14  2  0  0  0  0
 14 15  1  0  0  0  0
 15 16  2  0  0  0  0
 16 17  1  0  0  0  0
 16 42  1  0  0  0  0
 17 18  1  0  0  0  0
 18 19  1  0  0  0  0
 18 43  1  0  0  0  0
 18 44  1  0  0  0  0
 19 24  1  0  0  0  0
 19 20  1  0  0  0  0
 19 21  1  0  0  0  0
 20 45  1  0  0  0  0
 21 22  1  0  0  0  0
 21 46  1  0  0  0  0
 21 47  1  0  0  0  0
 22 23  1  0  0  0  0
 22 48  1  0  0  0  0
 22 49  1  0  0  0  0
 23 24  1  0  0  0  0
 24 50  1  0  0  0  0
 24 51  1  0  0  0  0
 25 26  1  0  0  0  0
 25 27  1  0  0  0  0
 25 52  1  0  0  0  0
 26 53  1  0  0  0  0
 26 54  1  0  0  0  0
 26 55  1  0  0  0  0
 27 56  1  0  0  0  0
 27 57  1  0  0  0  0
M  CHG  1   3   1
M  END
> <s_m_source_file>
AV-unprocessed.smi

> <i_m_source_file_index>
243

> <i_lp_mmshare_version>
43012

> <i_f3d_flags>
0

> <s_epik_input>
W0NIM11bQ0gyXU4xW0NIMl1bQ0gyXVtDQEhdKFtDQEBIXShbQ0gzXSlbQ0gyXTEpTihbQ0gzXSljKG5bY0hdbjIpYyhjMjMpbltjSF1uM1tDSDJdW0NAQF00KFtPSF0pW0NIMl1bQ0gyXU9bQ0gyXTQ=

> <s_epik_cmdline>
J2VwaWtfcHl0aG9uJywgJy1waCcsICc3LjAnLCAnLXRuJywgJzgnLCAnLW1hJywgJzIwMCcsICctbWV0YWxfYmluZGluZycsICctaW1hZScsICc8aW5maWxlLm1hZT4nLCAnLW9tYWUnLCAnPG91dGZpbGUubWFlPic=

> <r_lp_tautomer_probability>
1

> <r_epik_Ionization_Penalty>
0.00253099

> <r_epik_Ionization_Penalty_Charging>
0.00137877

> <r_epik_Ionization_Penalty_Neutral>
0.00115221

> <r_epik_State_Penalty>
-0

> <r_epik_Charging_Adjusted_Penalty>
0.00137877

> <i_epik_Tot_Q>
1

> <i_epik_Tot_abs_Q>
1

> <r_epik_Metal_State_Penalty>
-0

> <b_epik_Metal_Only>
0

> <s_lp_Force_Field>
OPLS_2005

> <r_lp_Energy>
49.5807

> <b_lp_Chiralities_Consistent>
1

> <s_lp_Variant>
AV-unprocessed.smi:243-12

> <Gold.Version>
5.8.1

> <Gold.Id.Protein>
6NUR|6NUR_protein|mol2

> <Gold.PLP.Fitness>
41.8024

> <Gold.PLP.PLP>
-38.2493

> <Gold.PLP.part.hbond>
-1.5595

> <Gold.PLP.part.metal>
0.0000

> <Gold.PLP.part.buried>
-7.6344

> <Gold.PLP.part.nonpolar>
-29.5998

> <Gold.PLP.part.repulsive>
0.1577

> <Gold.PLP.ligand.clash>
0.0000

> <Gold.PLP.ligand.torsion>
1.6887

> <Gold.PLP.Chemscore.Hbond>
1.0000

> <Gold.PLP.Chemscore.CHOScore>
1.0000

> <Gold.PLP.Chemscore.Metal>
0.0000

> <Gold.Chemscore.Hbonds>
donor molecule, donor type, donor heavy atom, donor atom, acceptor molecule, acceptor atom, score
      L1  C    16    42       P1  7948  0.87
      L1  C    16    42       P1  7949  0.02

> <Gold.PLP.Chemscore.Internal.Correction>
0.9304

> <Gold.Rescore>
     Score         DG    S(hbond)    S(metal)    S(lipo)     H(rot)  DE(clash)    DE(int)     intcor
     10.18     -13.36       0.96        0.00      88.84       2.24       0.20       2.97       ----

> <Gold.Chemscore.Fitness>
10.1844

> <Gold.Chemscore.DG>
-13.3588

> <Gold.Chemscore.ZeroCoef>
-5.4800

> <Gold.Chemscore.Hbond>
0.9621

> <Gold.Chemscore.Metal>
0.0000

> <Gold.Chemscore.Lipo>
88.8428

> <Gold.Chemscore.Internal_Hbond>
0.0000

> <Gold.Chemscore.DEClash>
0.2047

> <Gold.Chemscore.DEInternal>
2.9697

> <Gold.Chemscore.Rot>
2.2379

> <Gold.Chemscore.Internal.Correction>
   9.000000E+99

> <Gold.Chemscore.Hbond.Weighted>
-3.2133

> <Gold.Chemscore.Metal.Weighted>
-0.0000

> <Gold.Chemscore.Lipo.Weighted>
-10.3946

> <Gold.Chemscore.Internal_Hbond.Weighted>
0.0000

> <Gold.Chemscore.DEClash.Weighted>
0.2047

> <Gold.Chemscore.DEInternal.Weighted>
2.9697

> <Gold.Chemscore.Rot.Weighted>
5.7291

> <Gold.Chemscore.Internal.Correction.Weighted>
   9.000000E+99

> <Gold.Protein.RotatedTorsions>
[ 6907 6896 6895 6894 ] final -162.15 input  -60.11 | X-H torsion
[ 7974 7965 7964 7962 ] final   -9.79 input  175.53 | X-H torsion
[ 8008 7997 7996 7995 ] final  156.07 input   59.86 | X-H torsion
[ 10167 10162 10161 10158 ] final -171.52 input  -65.29 | X-H torsion
[ 10718 10713 10712 10709 ] final  141.38 input   66.30 | X-H torsion
[ 10763 10752 10751 10750 ] final   49.66 input  -60.55 | X-H torsion
[ 11005 11000 10999 10996 ] final -161.84 input  -57.11 | X-H torsion

> <Gold.Protein.ActiveResidues>
 VAL166  LYS551  ARG553  GLY616  TRP617  ASP618  TYR619  PRO620  LYS621  CYS622 
 ASP623  PHE694  ASN695  SER759  ASP760  ASP761  ALA762  ILE779  LEU786  VAL792 
 PHE793  MET794  SER795  GLU796  ALA797  LYS798  CYS799  TRP800  GLU811  SER814 

> <Gold.Protein.RotatedAtoms>
  151.3758  133.3838  159.2704 H   0  0  0  0  0  0  0  0  0  0  0  0  # atno 6907 bound_to 6896
  150.9615  134.9003  159.7744 H   0  0  0  0  0  0  0  0  0  0  0  0  # atno 6908 bound_to 6896
  152.5151  134.3718  159.9373 H   0  0  0  0  0  0  0  0  0  0  0  0  # atno 6909 bound_to 6896
  146.2241  140.2668  142.8354 H   0  0  0  0  0  0  0  0  0  0  0  0  # atno 7974 bound_to 7965
  156.2443  140.1922  156.6899 H   0  0  0  0  0  0  0  0  0  0  0  0  # atno 8008 bound_to 7997
  154.6259  140.0602  156.9699 H   0  0  0  0  0  0  0  0  0  0  0  0  # atno 8009 bound_to 7997
  155.1787  140.3274  155.4382 H   0  0  0  0  0  0  0  0  0  0  0  0  # atno 8010 bound_to 7997
  139.5797  144.1450  152.1499 H   0  0  0  0  0  0  0  0  0  0  0  0  # atno 10167 bound_to 10162
  157.3927  131.1007  151.0630 H   0  0  0  0  0  0  0  0  0  0  0  0  # atno 10718 bound_to 10713
  152.9786  135.5904  154.4125 H   0  0  0  0  0  0  0  0  0  0  0  0  # atno 10763 bound_to 10752
  154.3759  135.2767  155.2241 H   0  0  0  0  0  0  0  0  0  0  0  0  # atno 10764 bound_to 10752
  154.4176  135.6066  153.6045 H   0  0  0  0  0  0  0  0  0  0  0  0  # atno 10765 bound_to 10752
  140.6160  134.4800  157.5219 H   0  0  0  0  0  0  0  0  0  0  0  0  # atno 11005 bound_to 11000
  144.9298  140.7962  143.5696 LP  0  0  0  0  0  0  0  0  0  0  0  0  # atno 17320 bound_to 7965
  145.2611  139.1992  143.4892 LP  0  0  0  0  0  0  0  0  0  0  0  0  # atno 17321 bound_to 7965
  140.1001  144.5547  150.6995 LP  0  0  0  0  0  0  0  0  0  0  0  0  # atno 17342 bound_to 10162
  140.7077  143.2480  151.4677 LP  0  0  0  0  0  0  0  0  0  0  0  0  # atno 17343 bound_to 10162
  157.1658  130.6246  149.5625 LP  0  0  0  0  0  0  0  0  0  0  0  0  # atno 17370 bound_to 10713
  155.9802  130.4801  150.6761 LP  0  0  0  0  0  0  0  0  0  0  0  0  # atno 17371 bound_to 10713
  139.9173  134.8221  156.1325 LP  0  0  0  0  0  0  0  0  0  0  0  0  # atno 17394 bound_to 11000
  141.0775  133.6769  156.2268 LP  0  0  0  0  0  0  0  0  0  0  0  0  # atno 17395 bound_to 11000

$$$$
