AV-unprocessed.smi:2191|AV-procd|sdf|8894|dock10
  -GOLD-   2272012103D 1   1.00000     0.00000
 Structure written by MMmdl.
 37 39  0  0  0  0  0  0  0  0  2 V2000
  152.1909  138.0204  159.4790 O   0  0  0  0  0  0  0  0  0  0  0  0
  151.0361  138.6088  158.9130 C   0  0  2  0  0  0  0  0  0  0  0  0
  149.9166  137.5559  158.8867 C   0  0  0  0  0  0  0  0  0  0  0  0
  149.2839  137.5273  160.1595 O   0  0  0  0  0  0  0  0  0  0  0  0
  148.7416  136.3364  160.5929 C   0  0  0  0  0  0  0  0  0  0  0  0
  148.3624  136.2625  161.9495 C   0  0  0  0  0  0  0  0  0  0  0  0
  147.7984  135.0853  162.4779 C   0  0  0  0  0  0  0  0  0  0  0  0
  147.6092  133.9632  161.6502 C   0  0  0  0  0  0  0  0  0  0  0  0
  147.9845  134.0220  160.2952 C   0  0  0  0  0  0  0  0  0  0  0  0
  148.5468  135.2003  159.7665 C   0  0  0  0  0  0  0  0  0  0  0  0
  151.3683  139.1293  157.5004 C   0  0  0  0  0  0  0  0  0  0  0  0
  151.1743  140.5809  157.3673 N   0  0  0  0  0  0  0  0  0  0  0  0
  150.4153  141.2749  156.4765 C   0  0  0  0  0  0  0  0  0  0  0  0
  150.5587  142.5996  156.7569 N   0  3  0  0  0  0  0  0  0  0  0  0
  151.4217  142.7555  157.8435 C   0  0  0  0  0  0  0  0  0  0  0  0
  151.8703  143.9019  158.4923 C   0  0  0  0  0  0  0  0  0  0  0  0
  152.7494  143.7116  159.5785 C   0  0  0  0  0  0  0  0  0  0  0  0
  153.1489  142.4212  159.9823 C   0  0  0  0  0  0  0  0  0  0  0  0
  152.6883  141.2660  159.3171 C   0  0  0  0  0  0  0  0  0  0  0  0
  151.8208  141.4620  158.2425 C   0  0  0  0  0  0  0  0  0  0  0  0
  152.7525  137.7312  158.7755 H   0  0  0  0  0  0  0  0  0  0  0  0
  150.7313  139.4519  159.5346 H   0  0  0  0  0  0  0  0  0  0  0  0
  149.1718  137.8386  158.1407 H   0  0  0  0  0  0  0  0  0  0  0  0
  150.3122  136.5774  158.6082 H   0  0  0  0  0  0  0  0  0  0  0  0
  148.5041  137.1191  162.5921 H   0  0  0  0  0  0  0  0  0  0  0  0
  147.5113  135.0437  163.5183 H   0  0  0  0  0  0  0  0  0  0  0  0
  147.1770  133.0593  162.0537 H   0  0  0  0  0  0  0  0  0  0  0  0
  147.8404  133.1614  159.6587 H   0  0  0  0  0  0  0  0  0  0  0  0
  148.8211  135.2059  158.7228 H   0  0  0  0  0  0  0  0  0  0  0  0
  152.3864  138.8689  157.2108 H   0  0  0  0  0  0  0  0  0  0  0  0
  150.7139  138.6543  156.7685 H   0  0  0  0  0  0  0  0  0  0  0  0
  149.8077  140.8511  155.6902 H   0  0  0  0  0  0  0  0  0  0  0  0
  151.5649  144.8918  158.1861 H   0  0  0  0  0  0  0  0  0  0  0  0
  153.1234  144.5723  160.1139 H   0  0  0  0  0  0  0  0  0  0  0  0
  153.8218  142.3144  160.8207 H   0  0  0  0  0  0  0  0  0  0  0  0
  152.9969  140.2830  159.6405 H   0  0  0  0  0  0  0  0  0  0  0  0
  150.0986  143.3403  156.2434 H   0  0  0  0  0  0  0  0  0  0  0  0
  1  2  1  0  0  0  0
  1 21  1  0  0  0  0
  2  3  1  0  0  0  0
  2 11  1  0  0  0  0
  2 22  1  0  0  0  0
  3  4  1  0  0  0  0
  3 23  1  0  0  0  0
  3 24  1  0  0  0  0
  4  5  1  0  0  0  0
  5 10  1  0  0  0  0
  5  6  2  0  0  0  0
  6  7  1  0  0  0  0
  6 25  1  0  0  0  0
  7  8  2  0  0  0  0
  7 26  1  0  0  0  0
  8  9  1  0  0  0  0
  8 27  1  0  0  0  0
  9 10  2  0  0  0  0
  9 28  1  0  0  0  0
 10 29  1  0  0  0  0
 11 12  1  0  0  0  0
 11 30  1  0  0  0  0
 11 31  1  0  0  0  0
 12 20  1  0  0  0  0
 12 13  1  0  0  0  0
 13 14  2  0  0  0  0
 13 32  1  0  0  0  0
 14 15  1  0  0  0  0
 14 37  1  0  0  0  0
 15 20  2  0  0  0  0
 15 16  1  0  0  0  0
 16 17  2  0  0  0  0
 16 33  1  0  0  0  0
 17 18  1  0  0  0  0
 17 34  1  0  0  0  0
 18 19  2  0  0  0  0
 18 35  1  0  0  0  0
 19 20  1  0  0  0  0
 19 36  1  0  0  0  0
M  CHG  1  14   1
M  END
> <s_m_source_file>
AV-unprocessed.smi

> <i_m_source_file_index>
2191

> <i_lp_mmshare_version>
43012

> <i_f3d_flags>
0

> <s_epik_input>
W2NIXTFbY0hdW2NIXVtjSF1jKGMxMiluKFtjSF1uMilbQ0gyXVtDQEhdKFtPSF0pW0NIMl1PYzNbY0hdW2NIXVtjSF1bY0hdW2NIXTM=

> <s_epik_cmdline>
J2VwaWtfcHl0aG9uJywgJy1waCcsICc3LjAnLCAnLXRuJywgJzgnLCAnLW1hJywgJzIwMCcsICctbWV0YWxfYmluZGluZycsICctaW1hZScsICc8aW5maWxlLm1hZT4nLCAnLW9tYWUnLCAnPG91dGZpbGUubWFlPic=

> <r_lp_tautomer_probability>
1

> <r_epik_Ionization_Penalty>
1.35015

> <r_epik_Ionization_Penalty_Charging>
1.35015

> <r_epik_Ionization_Penalty_Neutral>
2.3993e-06

> <r_epik_State_Penalty>
1.42814

> <r_epik_Charging_Adjusted_Penalty>
2.77829

> <i_epik_Tot_Q>
1

> <i_epik_Tot_abs_Q>
1

> <r_epik_Metal_State_Penalty>
5.46522

> <b_epik_Metal_Only>
0

> <s_lp_Force_Field>
OPLS_2005

> <r_lp_Energy>
21.7284

> <b_lp_Chiralities_Consistent>
1

> <s_lp_Variant>
AV-unprocessed.smi:2191-3

> <Gold.Version>
5.8.1

> <Gold.Id.Protein>
6NUR|6NUR_protein|mol2

> <Gold.PLP.Fitness>
47.7150

> <Gold.PLP.PLP>
-43.7152

> <Gold.PLP.part.hbond>
-2.8910

> <Gold.PLP.part.metal>
0.0000

> <Gold.PLP.part.buried>
-4.6742

> <Gold.PLP.part.nonpolar>
-36.2174

> <Gold.PLP.part.repulsive>
0.0453

> <Gold.PLP.ligand.clash>
0.0000

> <Gold.PLP.ligand.torsion>
1.3495

> <Gold.PLP.Chemscore.Hbond>
2.2128

> <Gold.PLP.Chemscore.CHOScore>
0.0000

> <Gold.PLP.Chemscore.Metal>
0.0000

> <Gold.Chemscore.Hbonds>
donor molecule, donor type, donor heavy atom, donor atom, acceptor molecule, acceptor atom, score
      L1  H    14    37       P1  8028  2.00
      P1  H  6931  6943       L1     4  0.16

> <Gold.PLP.Chemscore.Internal.Correction>
0.0604

> <Gold.Rescore>
     Score         DG    S(hbond)    S(metal)    S(lipo)     H(rot)  DE(clash)    DE(int)     intcor
     15.13     -16.91       1.00        0.00     119.53       2.31       0.24       1.55       ----

> <Gold.Chemscore.Fitness>
15.1314

> <Gold.Chemscore.DG>
-16.9150

> <Gold.Chemscore.ZeroCoef>
-5.4800

> <Gold.Chemscore.Hbond>
1.0036

> <Gold.Chemscore.Metal>
0.0000

> <Gold.Chemscore.Lipo>
119.5256

> <Gold.Chemscore.Internal_Hbond>
0.0000

> <Gold.Chemscore.DEClash>
0.2383

> <Gold.Chemscore.DEInternal>
1.5452

> <Gold.Chemscore.Rot>
2.3053

> <Gold.Chemscore.Internal.Correction>
   9.000000E+99

> <Gold.Chemscore.Hbonds>
donor molecule, donor type, donor heavy atom, donor atom, acceptor molecule, acceptor atom, score
      L1  H    14    37       P1  8028  0.99
      P1  H  6931  6943       L1     4  0.01

> <Gold.Chemscore.Hbond.Weighted>
-3.3520

> <Gold.Chemscore.Metal.Weighted>
-0.0000

> <Gold.Chemscore.Lipo.Weighted>
-13.9845

> <Gold.Chemscore.Internal_Hbond.Weighted>
0.0000

> <Gold.Chemscore.DEClash.Weighted>
0.2383

> <Gold.Chemscore.DEInternal.Weighted>
1.5452

> <Gold.Chemscore.Rot.Weighted>
5.9015

> <Gold.Chemscore.Internal.Correction.Weighted>
   9.000000E+99

> <Gold.Protein.RotatedTorsions>
[ 6907 6896 6895 6894 ] final   24.06 input  -60.11 | X-H torsion
[ 7974 7965 7964 7962 ] final   91.03 input  175.53 | X-H torsion
[ 8008 7997 7996 7995 ] final  114.59 input   59.86 | X-H torsion
[ 10167 10162 10161 10158 ] final  -59.41 input  -65.29 | X-H torsion
[ 10718 10713 10712 10709 ] final  -99.70 input   66.30 | X-H torsion
[ 10763 10752 10751 10750 ] final   15.14 input  -60.55 | X-H torsion
[ 11005 11000 10999 10996 ] final -115.39 input  -57.11 | X-H torsion

> <Gold.Protein.ActiveResidues>
 VAL166  LYS551  ARG553  GLY616  TRP617  ASP618  TYR619  PRO620  LYS621  CYS622 
 ASP623  PHE694  ASN695  SER759  ASP760  ASP761  ALA762  ILE779  LEU786  VAL792 
 PHE793  MET794  SER795  GLU796  ALA797  LYS798  CYS799  TRP800  GLU811  SER814 

> <Gold.Protein.RotatedAtoms>
  151.9519  135.0165  160.0542 H   0  0  0  0  0  0  0  0  0  0  0  0  # atno 6907 bound_to 6896
  152.1946  133.4792  159.5034 H   0  0  0  0  0  0  0  0  0  0  0  0  # atno 6908 bound_to 6896
  150.6942  134.1586  159.4210 H   0  0  0  0  0  0  0  0  0  0  0  0  # atno 6909 bound_to 6896
  145.5111  139.2277  143.2724 H   0  0  0  0  0  0  0  0  0  0  0  0  # atno 7974 bound_to 7965
  156.2330  140.2956  156.0239 H   0  0  0  0  0  0  0  0  0  0  0  0  # atno 8008 bound_to 7997
  155.2170  140.0414  157.2959 H   0  0  0  0  0  0  0  0  0  0  0  0  # atno 8009 bound_to 7997
  154.6030  140.2432  155.7776 H   0  0  0  0  0  0  0  0  0  0  0  0  # atno 8010 bound_to 7997
  140.6137  143.2395  151.5649 H   0  0  0  0  0  0  0  0  0  0  0  0  # atno 10167 bound_to 10162
  156.0141  130.5294  150.6709 H   0  0  0  0  0  0  0  0  0  0  0  0  # atno 10718 bound_to 10713
  153.1553  135.6786  153.8821 H   0  0  0  0  0  0  0  0  0  0  0  0  # atno 10763 bound_to 10752
  153.8234  135.3127  155.3413 H   0  0  0  0  0  0  0  0  0  0  0  0  # atno 10764 bound_to 10752
  154.7893  135.4844  154.0104 H   0  0  0  0  0  0  0  0  0  0  0  0  # atno 10765 bound_to 10752
  141.0491  133.9716  157.2867 H   0  0  0  0  0  0  0  0  0  0  0  0  # atno 11005 bound_to 11000
  146.2166  140.5918  142.9036 LP  0  0  0  0  0  0  0  0  0  0  0  0  # atno 17320 bound_to 7965
  144.7727  140.5672  143.6659 LP  0  0  0  0  0  0  0  0  0  0  0  0  # atno 17321 bound_to 7965
  139.5381  144.2724  152.1294 LP  0  0  0  0  0  0  0  0  0  0  0  0  # atno 17342 bound_to 10162
  140.1928  144.4735  150.6470 LP  0  0  0  0  0  0  0  0  0  0  0  0  # atno 17343 bound_to 10162
  157.4432  131.0863  151.0922 LP  0  0  0  0  0  0  0  0  0  0  0  0  # atno 17370 bound_to 10713
  157.1460  130.6164  149.5569 LP  0  0  0  0  0  0  0  0  0  0  0  0  # atno 17371 bound_to 10713
  139.9335  135.0198  156.8481 LP  0  0  0  0  0  0  0  0  0  0  0  0  # atno 17394 bound_to 11000
  140.6090  134.0100  155.7569 LP  0  0  0  0  0  0  0  0  0  0  0  0  # atno 17395 bound_to 11000

$$$$
