AV-unprocessed.smi:1536|AV-procd|sdf|6186|dock4
  -GOLD-   22720 6343D 1   1.00000     0.00000
 Structure written by MMmdl.
 48 49  0  0  0  0  0  0  0  0  2 V2000
  144.4751  135.1339  149.6165 C   0  0  0  0  0  0  0  0  0  0  0  0
  144.8045  134.8730  151.0929 C   0  0  2  0  0  0  0  0  0  0  0  0
  144.8618  136.1793  151.9027 C   0  0  0  0  0  0  0  0  0  0  0  0
  145.2169  135.9035  153.3721 C   0  0  0  0  0  0  0  0  0  0  0  0
  146.5163  135.1822  153.4774 N   0  3  1  0  0  0  0  0  0  0  0  0
  147.0972  135.0608  154.8522 C   0  0  2  0  0  0  0  0  0  0  0  0
  148.6480  134.9663  154.8698 C   0  0  0  0  0  0  0  0  0  0  0  0
  149.2678  136.2224  154.4601 N   0  0  0  0  0  0  0  0  0  0  0  0
  149.1391  137.4023  155.0877 C   0  0  0  0  0  0  0  0  0  0  0  0
  148.5682  137.5443  156.1682 O   0  0  0  0  0  0  0  0  0  0  0  0
  149.7020  138.6192  154.3556 C   0  0  0  0  0  0  0  0  0  0  0  0
  151.1487  138.6392  154.4623 N   0  0  0  0  0  0  0  0  0  0  0  0
  152.0573  137.6871  154.2413 C   0  0  0  0  0  0  0  0  0  0  0  0
  153.2836  138.1126  154.5031 N   0  0  0  0  0  0  0  0  0  0  0  0
  153.0836  139.4213  154.9088 N   0  0  0  0  0  0  0  0  0  0  0  0
  151.8189  139.7396  154.8872 N   0  0  0  0  0  0  0  0  0  0  0  0
  146.3595  133.9677  155.6802 C   0  0  0  0  0  0  0  0  0  0  0  0
  144.8940  134.2953  156.0137 C   0  0  0  0  0  0  0  0  0  0  0  0
  147.1378  133.5905  156.9525 C   0  0  0  0  0  0  0  0  0  0  0  0
  146.4790  133.8926  152.7382 C   0  0  0  0  0  0  0  0  0  0  0  0
  146.1334  134.1158  151.2557 C   0  0  0  0  0  0  0  0  0  0  0  0
  145.2367  135.7538  149.1426 H   0  0  0  0  0  0  0  0  0  0  0  0
  143.5178  135.6454  149.5124 H   0  0  0  0  0  0  0  0  0  0  0  0
  144.4108  134.2000  149.0574 H   0  0  0  0  0  0  0  0  0  0  0  0
  144.0077  134.2518  151.5051 H   0  0  0  0  0  0  0  0  0  0  0  0
  145.6000  136.8560  151.4694 H   0  0  0  0  0  0  0  0  0  0  0  0
  143.9017  136.6938  151.8487 H   0  0  0  0  0  0  0  0  0  0  0  0
  145.2556  136.8486  153.9113 H   0  0  0  0  0  0  0  0  0  0  0  0
  144.4224  135.3114  153.8286 H   0  0  0  0  0  0  0  0  0  0  0  0
  146.8715  135.9910  155.3762 H   0  0  0  0  0  0  0  0  0  0  0  0
  149.0189  134.6631  155.8492 H   0  0  0  0  0  0  0  0  0  0  0  0
  148.9774  134.1985  154.1689 H   0  0  0  0  0  0  0  0  0  0  0  0
  149.7657  136.2143  153.5811 H   0  0  0  0  0  0  0  0  0  0  0  0
  149.4262  138.5858  153.3008 H   0  0  0  0  0  0  0  0  0  0  0  0
  149.2911  139.5401  154.7719 H   0  0  0  0  0  0  0  0  0  0  0  0
  151.8210  136.6885  153.9048 H   0  0  0  0  0  0  0  0  0  0  0  0
  146.3403  133.0584  155.0796 H   0  0  0  0  0  0  0  0  0  0  0  0
  144.8168  135.1191  156.7231 H   0  0  0  0  0  0  0  0  0  0  0  0
  144.4012  133.4346  156.4669 H   0  0  0  0  0  0  0  0  0  0  0  0
  144.3245  134.5591  155.1231 H   0  0  0  0  0  0  0  0  0  0  0  0
  147.1896  134.4220  157.6559 H   0  0  0  0  0  0  0  0  0  0  0  0
  148.1586  133.2887  156.7162 H   0  0  0  0  0  0  0  0  0  0  0  0
  146.6633  132.7543  157.4668 H   0  0  0  0  0  0  0  0  0  0  0  0
  147.4505  133.4002  152.7961 H   0  0  0  0  0  0  0  0  0  0  0  0
  145.7535  133.2241  153.2040 H   0  0  0  0  0  0  0  0  0  0  0  0
  146.0811  133.1546  150.7430 H   0  0  0  0  0  0  0  0  0  0  0  0
  146.9383  134.6762  150.7775 H   0  0  0  0  0  0  0  0  0  0  0  0
  147.1834  135.7473  152.9713 H   0  0  0  0  0  0  0  0  0  0  0  0
  1  2  1  0  0  0  0
  1 22  1  0  0  0  0
  1 23  1  0  0  0  0
  1 24  1  0  0  0  0
  2 21  1  0  0  0  0
  2  3  1  0  0  0  0
  2 25  1  0  0  0  0
  3  4  1  0  0  0  0
  3 26  1  0  0  0  0
  3 27  1  0  0  0  0
  4  5  1  0  0  0  0
  4 28  1  0  0  0  0
  4 29  1  0  0  0  0
  5  6  1  0  0  0  0
  5 20  1  0  0  0  0
  5 48  1  0  0  0  0
  6  7  1  0  0  0  0
  6 17  1  0  0  0  0
  6 30  1  0  0  0  0
  7  8  1  0  0  0  0
  7 31  1  0  0  0  0
  7 32  1  0  0  0  0
  8  9  1  0  0  0  0
  8 33  1  0  0  0  0
  9 10  2  0  0  0  0
  9 11  1  0  0  0  0
 11 12  1  0  0  0  0
 11 34  1  0  0  0  0
 11 35  1  0  0  0  0
 12 16  1  0  0  0  0
 12 13  1  0  0  0  0
 13 14  2  0  0  0  0
 13 36  1  0  0  0  0
 14 15  1  0  0  0  0
 15 16  2  0  0  0  0
 17 18  1  0  0  0  0
 17 19  1  0  0  0  0
 17 37  1  0  0  0  0
 18 38  1  0  0  0  0
 18 39  1  0  0  0  0
 18 40  1  0  0  0  0
 19 41  1  0  0  0  0
 19 42  1  0  0  0  0
 19 43  1  0  0  0  0
 20 21  1  0  0  0  0
 20 44  1  0  0  0  0
 20 45  1  0  0  0  0
 21 46  1  0  0  0  0
 21 47  1  0  0  0  0
M  CHG  1   5   1
M  END
> <s_m_source_file>
AV-unprocessed.smi

> <i_m_source_file_index>
1536

> <i_lp_mmshare_version>
43012

> <i_f3d_flags>
0

> <s_epik_input>
W0NIM11bQ0hdMVtDSDJdW0NIMl1OKFtDSDJdW0NIMl0xKVtDQEBIXShbQ0hdKFtDSDNdKVtDSDNdKVtDSDJdW05IXUMoPU8pW0NIMl1uMltjSF1ubm4y

> <s_epik_cmdline>
J2VwaWtfcHl0aG9uJywgJy1waCcsICc3LjAnLCAnLXRuJywgJzgnLCAnLW1hJywgJzIwMCcsICctbWV0YWxfYmluZGluZycsICctaW1hZScsICc8aW5maWxlLm1hZT4nLCAnLW9tYWUnLCAnPG91dGZpbGUubWFlPic=

> <r_lp_tautomer_probability>
1

> <r_epik_Ionization_Penalty>
0.00109671

> <r_epik_Ionization_Penalty_Charging>
0.00109273

> <r_epik_Ionization_Penalty_Neutral>
3.97951e-06

> <r_epik_State_Penalty>
0.000716588

> <r_epik_Charging_Adjusted_Penalty>
0.00180932

> <i_epik_Tot_Q>
1

> <i_epik_Tot_abs_Q>
1

> <r_epik_Metal_State_Penalty>
-0

> <b_epik_Metal_Only>
0

> <s_lp_Force_Field>
OPLS_2005

> <r_lp_Energy>
28.917

> <b_lp_Chiralities_Consistent>
1

> <s_lp_Variant>
AV-unprocessed.smi:1536-1

> <Gold.Version>
5.8.1

> <Gold.Id.Protein>
6NUR|6NUR_protein|mol2

> <Gold.PLP.Fitness>
41.4450

> <Gold.PLP.PLP>
-26.5642

> <Gold.PLP.part.hbond>
-5.7560

> <Gold.PLP.part.metal>
0.0000

> <Gold.PLP.part.buried>
0.2754

> <Gold.PLP.part.nonpolar>
-20.3981

> <Gold.PLP.part.repulsive>
0.1463

> <Gold.PLP.ligand.clash>
0.0000

> <Gold.PLP.ligand.torsion>
0.9704

> <Gold.PLP.Chemscore.Hbond>
4.4216

> <Gold.PLP.Chemscore.CHOScore>
0.9885

> <Gold.PLP.Chemscore.Metal>
0.0000

> <Gold.Chemscore.Hbonds>
donor molecule, donor type, donor heavy atom, donor atom, acceptor molecule, acceptor atom, score
      L1  H     5    48       P1  7948  1.50
      L1  H     8    33       P1  7948  0.54
      P1  H  7989  7998       L1    16  1.00
      P1  H  7997  8010       L1    15  1.00
      L1  C    13    36       P1  7949  0.79

> <Gold.PLP.Chemscore.Internal.Correction>
0.5911

> <Gold.Rescore>
     Score         DG    S(hbond)    S(metal)    S(lipo)     H(rot)  DE(clash)    DE(int)     intcor
      8.58     -11.11       2.16        0.00      47.12       2.77       1.47       1.06       ----

> <Gold.Chemscore.Fitness>
8.5805

> <Gold.Chemscore.DG>
-11.1063

> <Gold.Chemscore.ZeroCoef>
-5.4800

> <Gold.Chemscore.Hbond>
2.1578

> <Gold.Chemscore.Metal>
0.0000

> <Gold.Chemscore.Lipo>
47.1165

> <Gold.Chemscore.Internal_Hbond>
0.0000

> <Gold.Chemscore.DEClash>
1.4704

> <Gold.Chemscore.DEInternal>
1.0554

> <Gold.Chemscore.Rot>
2.7709

> <Gold.Chemscore.Internal.Correction>
   9.000000E+99

> <Gold.Chemscore.Hbonds>
donor molecule, donor type, donor heavy atom, donor atom, acceptor molecule, acceptor atom, score
      L1  H     5    48       P1  7948  0.72
      L1  H     8    33       P1  7948  0.14
      P1  H  7989  7998       L1    16  0.17
      P1  H  7997  8010       L1    15  0.91

> <Gold.Chemscore.Hbond.Weighted>
-7.2072

> <Gold.Chemscore.Metal.Weighted>
-0.0000

> <Gold.Chemscore.Lipo.Weighted>
-5.5126

> <Gold.Chemscore.Internal_Hbond.Weighted>
0.0000

> <Gold.Chemscore.DEClash.Weighted>
1.4704

> <Gold.Chemscore.DEInternal.Weighted>
1.0554

> <Gold.Chemscore.Rot.Weighted>
7.0935

> <Gold.Chemscore.Internal.Correction.Weighted>
   9.000000E+99

> <Gold.Protein.RotatedTorsions>
[ 6907 6896 6895 6894 ] final    2.11 input  -60.11 | X-H torsion
[ 7974 7965 7964 7962 ] final   77.24 input  175.53 | X-H torsion
[ 8008 7997 7996 7995 ] final  110.22 input   59.86 | X-H torsion
[ 10167 10162 10161 10158 ] final  -23.89 input  -65.29 | X-H torsion
[ 10718 10713 10712 10709 ] final  -37.79 input   66.30 | X-H torsion
[ 10763 10752 10751 10750 ] final -107.56 input  -60.55 | X-H torsion
[ 11005 11000 10999 10996 ] final   43.79 input  -57.11 | X-H torsion

> <Gold.Protein.ActiveResidues>
 VAL166  LYS551  ARG553  GLY616  TRP617  ASP618  TYR619  PRO620  LYS621  CYS622 
 ASP623  PHE694  ASN695  SER759  ASP760  ASP761  ALA762  ILE779  LEU786  VAL792 
 PHE793  MET794  SER795  GLU796  ALA797  LYS798  CYS799  TRP800  GLU811  SER814 

> <Gold.Protein.RotatedAtoms>
  151.6035  135.1045  160.0065 H   0  0  0  0  0  0  0  0  0  0  0  0  # atno 6907 bound_to 6896
  152.4245  133.7168  159.6521 H   0  0  0  0  0  0  0  0  0  0  0  0  # atno 6908 bound_to 6896
  150.8134  133.8309  159.3194 H   0  0  0  0  0  0  0  0  0  0  0  0  # atno 6909 bound_to 6896
  145.6925  139.2557  143.1751 H   0  0  0  0  0  0  0  0  0  0  0  0  # atno 7974 bound_to 7965
  156.2037  140.3043  155.9580 H   0  0  0  0  0  0  0  0  0  0  0  0  # atno 8008 bound_to 7997
  155.2894  140.0441  157.3039 H   0  0  0  0  0  0  0  0  0  0  0  0  # atno 8009 bound_to 7997
  154.5604  140.2318  155.8353 H   0  0  0  0  0  0  0  0  0  0  0  0  # atno 8010 bound_to 7997
  140.7288  143.4402  151.0668 H   0  0  0  0  0  0  0  0  0  0  0  0  # atno 10167 bound_to 10162
  156.3111  130.4253  149.8049 H   0  0  0  0  0  0  0  0  0  0  0  0  # atno 10718 bound_to 10713
  154.8083  135.4670  154.0449 H   0  0  0  0  0  0  0  0  0  0  0  0  # atno 10763 bound_to 10752
  153.1900  135.6853  153.8372 H   0  0  0  0  0  0  0  0  0  0  0  0  # atno 10764 bound_to 10752
  153.7893  135.3245  155.3353 H   0  0  0  0  0  0  0  0  0  0  0  0  # atno 10765 bound_to 10752
  140.1612  134.4339  155.8316 H   0  0  0  0  0  0  0  0  0  0  0  0  # atno 11005 bound_to 11000
  146.0869  140.7700  142.9614 LP  0  0  0  0  0  0  0  0  0  0  0  0  # atno 17320 bound_to 7965
  144.6992  140.3576  143.7170 LP  0  0  0  0  0  0  0  0  0  0  0  0  # atno 17321 bound_to 7965
  139.8068  143.8006  152.3168 LP  0  0  0  0  0  0  0  0  0  0  0  0  # atno 17342 bound_to 10162
  139.8042  144.7362  150.9784 LP  0  0  0  0  0  0  0  0  0  0  0  0  # atno 17343 bound_to 10162
  156.5392  130.8292  151.3263 LP  0  0  0  0  0  0  0  0  0  0  0  0  # atno 17370 bound_to 10713
  157.7391  130.9825  150.2294 LP  0  0  0  0  0  0  0  0  0  0  0  0  # atno 17371 bound_to 10713
  141.2209  133.6914  156.7597 LP  0  0  0  0  0  0  0  0  0  0  0  0  # atno 17394 bound_to 11000
  140.2487  134.8557  157.3646 LP  0  0  0  0  0  0  0  0  0  0  0  0  # atno 17395 bound_to 11000

$$$$
