AV-unprocessed.smi:54|AV-procd|sdf|548|dock9
  -GOLD-   2262016443D 1   1.00000     0.00000
 Structure written by MMmdl.
 43 45  0  0  0  0  0  0  0  0  2 V2000
  153.1916  142.5704  161.3705 C   0  0  0  0  0  0  0  0  0  0  0  0
  153.0171  142.5850  159.8427 C   0  0  0  0  0  0  0  0  0  0  0  0
  151.7479  143.3507  159.4332 C   0  0  0  0  0  0  0  0  0  0  0  0
  152.9943  141.1547  159.2852 C   0  0  0  0  0  0  0  0  0  0  0  0
  153.5773  140.2600  159.9025 O   0  0  0  0  0  0  0  0  0  0  0  0
  152.3156  140.9962  158.1267 N   0  0  0  0  0  0  0  0  0  0  0  0
  152.1163  139.8352  157.3705 C   0  0  0  0  0  0  0  0  0  0  0  0
  150.9543  139.6021  156.8020 N   0  0  0  0  0  0  0  0  0  0  0  0
  150.9388  138.4100  156.1045 C   0  0  0  0  0  0  0  0  0  0  0  0
  151.9591  137.5112  155.9584 C   0  0  0  0  0  0  0  0  0  0  0  0
  151.5708  136.4230  155.1872 N   0  0  0  0  0  0  0  0  0  0  0  0
  150.3059  136.7249  154.8982 C   0  0  0  0  0  0  0  0  0  0  0  0
  149.8519  137.8866  155.4140 N   0  0  0  0  0  0  0  0  0  0  0  0
  148.4904  138.5004  155.2704 C   0  0  1  0  0  0  0  0  0  0  0  0
  148.2639  139.2992  156.3951 O   0  0  0  0  0  0  0  0  0  0  0  0
  148.1230  140.6744  156.0334 C   0  0  1  0  0  0  0  0  0  0  0  0
  148.7441  141.5947  157.0992 C   0  0  0  0  0  0  0  0  0  0  0  0
  148.0630  141.4446  158.3261 O   0  0  0  0  0  0  0  0  0  0  0  0
  148.7247  140.7881  154.6242 C   0  0  1  0  0  0  0  0  0  0  0  0
  150.1188  141.0436  154.6652 O   0  0  0  0  0  0  0  0  0  0  0  0
  148.3974  139.4215  154.0412 C   0  0  1  0  0  0  0  0  0  0  0  0
  149.2160  139.0688  152.9400 O   0  0  0  0  0  0  0  0  0  0  0  0
  153.2423  137.8434  156.6210 C   0  0  0  0  0  0  0  0  0  0  0  0
  154.1893  137.0665  156.5154 O   0  0  0  0  0  0  0  0  0  0  0  0
  153.2588  139.0220  157.3141 N   0  5  0  0  0  0  0  0  0  0  0  0
  147.8090  137.6495  155.2376 H   0  0  0  0  0  0  0  0  0  0  0  0
  147.0541  140.8784  155.9469 H   0  0  0  0  0  0  0  0  0  0  0  0
  148.2546  141.5894  154.0532 H   0  0  0  0  0  0  0  0  0  0  0  0
  147.3565  139.4187  153.7153 H   0  0  0  0  0  0  0  0  0  0  0  0
  154.0843  142.0154  161.6618 H   0  0  0  0  0  0  0  0  0  0  0  0
  152.3362  142.1122  161.8687 H   0  0  0  0  0  0  0  0  0  0  0  0
  153.2960  143.5834  161.7600 H   0  0  0  0  0  0  0  0  0  0  0  0
  153.8741  143.1082  159.4146 H   0  0  0  0  0  0  0  0  0  0  0  0
  151.6210  143.3574  158.3497 H   0  0  0  0  0  0  0  0  0  0  0  0
  151.7974  144.3889  159.7622 H   0  0  0  0  0  0  0  0  0  0  0  0
  150.8522  142.9083  159.8715 H   0  0  0  0  0  0  0  0  0  0  0  0
  151.9052  141.8397  157.7540 H   0  0  0  0  0  0  0  0  0  0  0  0
  149.6915  136.0755  154.2933 H   0  0  0  0  0  0  0  0  0  0  0  0
  149.8070  141.3925  157.2314 H   0  0  0  0  0  0  0  0  0  0  0  0
  148.6454  142.6383  156.7989 H   0  0  0  0  0  0  0  0  0  0  0  0
  147.8661  142.3037  158.6668 H   0  0  0  0  0  0  0  0  0  0  0  0
  150.2992  141.5837  155.4196 H   0  0  0  0  0  0  0  0  0  0  0  0
  148.9972  138.1884  152.6745 H   0  0  0  0  0  0  0  0  0  0  0  0
  1  2  1  0  0  0  0
  1 30  1  0  0  0  0
  1 31  1  0  0  0  0
  1 32  1  0  0  0  0
  2  3  1  0  0  0  0
  2  4  1  0  0  0  0
  2 33  1  0  0  0  0
  3 34  1  0  0  0  0
  3 35  1  0  0  0  0
  3 36  1  0  0  0  0
  4  5  2  0  0  0  0
  4  6  1  0  0  0  0
  6 37  1  0  0  0  0
  6  7  1  0  0  0  0
  7 25  1  0  0  0  0
  7  8  2  0  0  0  0
  8  9  1  0  0  0  0
  9 13  1  0  0  0  0
  9 10  2  0  0  0  0
 10 11  1  0  0  0  0
 10 23  1  0  0  0  0
 11 12  2  0  0  0  0
 12 13  1  0  0  0  0
 12 38  1  0  0  0  0
 13 14  1  0  0  0  0
 14 26  1  0  0  0  0
 14 21  1  0  0  0  0
 14 15  1  0  0  0  0
 15 16  1  0  0  0  0
 16 27  1  0  0  0  0
 16 17  1  0  0  0  0
 16 19  1  0  0  0  0
 17 18  1  0  0  0  0
 17 39  1  0  0  0  0
 17 40  1  0  0  0  0
 18 41  1  0  0  0  0
 19 28  1  0  0  0  0
 19 20  1  0  0  0  0
 19 21  1  0  0  0  0
 20 42  1  0  0  0  0
 21 29  1  0  0  0  0
 21 22  1  0  0  0  0
 22 43  1  0  0  0  0
 23 24  2  0  0  0  0
 23 25  1  0  0  0  0
M  CHG  1  25  -1
M  END
> <s_m_source_file>
AV-unprocessed.smi

> <i_m_source_file_index>
54

> <i_lp_mmshare_version>
43012

> <i_f3d_flags>
0

> <s_epik_input>
W0NIM11bQ0hdKFtDSDNdKUMoPU8pW05IXWMobjEpW25IXWMoPU8pYyhjMTIpbltjSF1uMltDQEBIXTNPW0NASF0oW0NIMl1bT0hdKVtDQEBIXShbT0hdKVtDQEhdM1tPSF0=

> <s_epik_cmdline>
J2VwaWtfcHl0aG9uJywgJy1waCcsICc3LjAnLCAnLXRuJywgJzgnLCAnLW1hJywgJzIwMCcsICctbWV0YWxfYmluZGluZycsICctaW1hZScsICc8aW5maWxlLm1hZT4nLCAnLW9tYWUnLCAnPG91dGZpbGUubWFlPic=

> <r_lp_tautomer_probability>
0.85571

> <r_epik_Ionization_Penalty>
1.75936

> <r_epik_Ionization_Penalty_Charging>
4.55893e-11

> <r_epik_Ionization_Penalty_Neutral>
1.75936

> <r_epik_State_Penalty>
1.72072

> <r_epik_Charging_Adjusted_Penalty>
1.72072

> <i_epik_Tot_Q>
-1

> <i_epik_Tot_abs_Q>
1

> <r_epik_Metal_State_Penalty>
0.400338

> <b_epik_Metal_Only>
1

> <s_epik_Chemistry_Notes>
This compound contains an acetal/aminal-like group ( X-CH(R)-Y where X, Y are N, S, or O) that may be acid/base labile, releasing an aldehyde.

> <s_lp_Force_Field>
OPLS_2005

> <r_lp_Energy>
61.5499

> <b_lp_Chiralities_Consistent>
1

> <s_lp_Variant>
AV-unprocessed.smi:54-20

> <Gold.Version>
5.8.1

> <Gold.Id.Protein>
6NUR|6NUR_protein|mol2

> <Gold.PLP.Fitness>
45.4337

> <Gold.PLP.PLP>
-32.1339

> <Gold.PLP.part.hbond>
-5.2544

> <Gold.PLP.part.metal>
0.0000

> <Gold.PLP.part.buried>
-4.4542

> <Gold.PLP.part.nonpolar>
-21.5906

> <Gold.PLP.part.repulsive>
0.1883

> <Gold.PLP.ligand.clash>
0.0000

> <Gold.PLP.ligand.torsion>
1.7908

> <Gold.PLP.Chemscore.Hbond>
4.6880

> <Gold.PLP.Chemscore.CHOScore>
0.7766

> <Gold.PLP.Chemscore.Metal>
0.0000

> <Gold.Chemscore.Hbonds>
donor molecule, donor type, donor heavy atom, donor atom, acceptor molecule, acceptor atom, score
      L1  H    22    43       P1  7948  0.86
      P1  H  7989  7998       L1    20  0.62
      P1  H  7997  8010       L1    25  2.00
      P1  H 10752 10765       L1    11  0.94
      L1  C    12    38       P1  7948  1.00

> <Gold.PLP.Chemscore.Internal.Correction>
0.4875

> <Gold.Rescore>
     Score         DG    S(hbond)    S(metal)    S(lipo)     H(rot)  DE(clash)    DE(int)     intcor
      5.58     -11.90       3.06        0.00      55.32       4.02       0.04       6.28       ----

> <Gold.Chemscore.Fitness>
5.5829

> <Gold.Chemscore.DG>
-11.8973

> <Gold.Chemscore.ZeroCoef>
-5.4800

> <Gold.Chemscore.Hbond>
3.0641

> <Gold.Chemscore.Metal>
0.0000

> <Gold.Chemscore.Lipo>
55.3212

> <Gold.Chemscore.Internal_Hbond>
0.0000

> <Gold.Chemscore.DEClash>
0.0387

> <Gold.Chemscore.DEInternal>
6.2757

> <Gold.Chemscore.Rot>
4.0192

> <Gold.Chemscore.Internal.Correction>
   9.000000E+99

> <Gold.Chemscore.Hbonds>
donor molecule, donor type, donor heavy atom, donor atom, acceptor molecule, acceptor atom, score
      L1  H    22    43       P1  7948  0.83
      P1  H  7989  7998       L1    20  0.55
      P1  H  7997  8010       L1    25  0.49
      P1  H 10752 10765       L1    11  0.36

> <Gold.Chemscore.Hbond.Weighted>
-10.2340

> <Gold.Chemscore.Metal.Weighted>
-0.0000

> <Gold.Chemscore.Lipo.Weighted>
-6.4726

> <Gold.Chemscore.Internal_Hbond.Weighted>
0.0000

> <Gold.Chemscore.DEClash.Weighted>
0.0387

> <Gold.Chemscore.DEInternal.Weighted>
6.2757

> <Gold.Chemscore.Rot.Weighted>
10.2893

> <Gold.Chemscore.Internal.Correction.Weighted>
   9.000000E+99

> <Gold.Protein.RotatedTorsions>
[ 6907 6896 6895 6894 ] final  -41.91 input  -60.11 | X-H torsion
[ 7974 7965 7964 7962 ] final  -55.03 input  175.53 | X-H torsion
[ 8008 7997 7996 7995 ] final   43.53 input   59.86 | X-H torsion
[ 10167 10162 10161 10158 ] final  -76.48 input  -65.29 | X-H torsion
[ 10718 10713 10712 10709 ] final -129.80 input   66.30 | X-H torsion
[ 10763 10752 10751 10750 ] final -153.24 input  -60.55 | X-H torsion
[ 11005 11000 10999 10996 ] final  -16.46 input  -57.11 | X-H torsion

> <Gold.Protein.ActiveResidues>
 VAL166  LYS551  ARG553  GLY616  TRP617  ASP618  TYR619  PRO620  LYS621  CYS622 
 ASP623  PHE694  ASN695  SER759  ASP760  ASP761  ALA762  ILE779  LEU786  VAL792 
 PHE793  MET794  SER795  GLU796  ALA797  LYS798  CYS799  TRP800  GLU811  SER814 

> <Gold.Protein.RotatedAtoms>
  150.9612  134.9000  159.7731 H   0  0  0  0  0  0  0  0  0  0  0  0  # atno 6907 bound_to 6896
  152.5157  134.3670  159.9314 H   0  0  0  0  0  0  0  0  0  0  0  0  # atno 6908 bound_to 6896
  151.3682  133.3824  159.2731 H   0  0  0  0  0  0  0  0  0  0  0  0  # atno 6909 bound_to 6896
  145.8789  140.8160  142.9850 H   0  0  0  0  0  0  0  0  0  0  0  0  # atno 7974 bound_to 7965
  155.3043  140.3387  155.4246 H   0  0  0  0  0  0  0  0  0  0  0  0  # atno 8008 bound_to 7997
  156.1986  140.1724  156.7985 H   0  0  0  0  0  0  0  0  0  0  0  0  # atno 8009 bound_to 7997
  154.5530  140.0702  156.8682 H   0  0  0  0  0  0  0  0  0  0  0  0  # atno 8010 bound_to 7997
  140.4853  143.2392  151.7993 H   0  0  0  0  0  0  0  0  0  0  0  0  # atno 10167 bound_to 10162
  156.2082  130.6901  151.0619 H   0  0  0  0  0  0  0  0  0  0  0  0  # atno 10718 bound_to 10713
  154.7941  135.3217  154.7708 H   0  0  0  0  0  0  0  0  0  0  0  0  # atno 10763 bound_to 10752
  153.8390  135.6872  153.4809 H   0  0  0  0  0  0  0  0  0  0  0  0  # atno 10764 bound_to 10752
  153.1624  135.4655  154.9732 H   0  0  0  0  0  0  0  0  0  0  0  0  # atno 10765 bound_to 10752
  140.8070  133.8170  155.9525 H   0  0  0  0  0  0  0  0  0  0  0  0  # atno 11005 bound_to 11000
  144.6727  140.1353  143.7441 LP  0  0  0  0  0  0  0  0  0  0  0  0  # atno 17320 bound_to 7965
  145.9048  139.2451  143.1472 LP  0  0  0  0  0  0  0  0  0  0  0  0  # atno 17321 bound_to 7965
  139.4841  144.4720  151.9414 LP  0  0  0  0  0  0  0  0  0  0  0  0  # atno 17342 bound_to 10162
  140.3806  144.2741  150.5909 LP  0  0  0  0  0  0  0  0  0  0  0  0  # atno 17343 bound_to 10162
  157.7024  131.0770  150.6778 LP  0  0  0  0  0  0  0  0  0  0  0  0  # atno 17370 bound_to 10713
  156.6837  130.4574  149.5620 LP  0  0  0  0  0  0  0  0  0  0  0  0  # atno 17371 bound_to 10713
  140.9237  134.2110  157.4910 LP  0  0  0  0  0  0  0  0  0  0  0  0  # atno 17394 bound_to 11000
  139.8717  134.9803  156.5071 LP  0  0  0  0  0  0  0  0  0  0  0  0  # atno 17395 bound_to 11000

$$$$
