AV-unprocessed.smi:691|AV-procd|sdf|3364|dock2
  -GOLD-   22720 0343D 1   1.00000     0.00000
 Structure written by MMmdl.
 37 38  0  0  0  0  0  0  0  0  1 V2000
  148.2392  139.5232  156.2198 C   0  0  0  0  0  0  0  0  0  0  0  0
  148.7768  139.5111  154.7652 C   0  0  1  0  0  0  0  0  0  0  0  0
  150.0636  138.6545  154.6880 C   0  0  0  0  0  0  0  0  0  0  0  0
  150.3995  138.3271  153.3543 O   0  0  0  0  0  0  0  0  0  0  0  0
  147.6874  138.9821  153.8144 C   0  0  0  0  0  0  0  0  0  0  0  0
  146.7931  140.1813  153.5131 C   0  0  0  0  0  0  0  0  0  0  0  0
  147.7407  141.3815  153.4873 C   0  0  0  0  0  0  0  0  0  0  0  0
  149.0299  140.9460  154.2128 C   0  0  1  0  0  0  0  0  0  0  0  0
  149.3995  141.9221  155.2388 N   0  0  0  0  0  0  0  0  0  0  0  0
  150.3391  141.7435  156.1780 C   0  0  0  0  0  0  0  0  0  0  0  0
  151.0069  140.7153  156.2846 O   0  0  0  0  0  0  0  0  0  0  0  0
  150.4287  142.8164  156.9824 N   0  0  0  0  0  0  0  0  0  0  0  0
  151.3094  143.0369  158.0762 C   0  0  0  0  0  0  0  0  0  0  0  0
  151.6218  144.3113  158.6094 C   0  0  0  0  0  0  0  0  0  0  0  0
  152.4956  144.3916  159.7109 C   0  0  0  0  0  0  0  0  0  0  0  0
  153.0194  143.1977  160.2430 C   0  0  0  0  0  0  0  0  0  0  0  0
  152.7217  141.9762  159.7525 N   0  0  0  0  0  0  0  0  0  0  0  0
  151.8829  141.9069  158.6970 C   0  0  0  0  0  0  0  0  0  0  0  0
  147.9126  138.5309  156.5323 H   0  0  0  0  0  0  0  0  0  0  0  0
  147.3859  140.1921  156.3328 H   0  0  0  0  0  0  0  0  0  0  0  0
  149.0037  139.8441  156.9281 H   0  0  0  0  0  0  0  0  0  0  0  0
  150.9087  139.1830  155.1308 H   0  0  0  0  0  0  0  0  0  0  0  0
  149.9416  137.7288  155.2508 H   0  0  0  0  0  0  0  0  0  0  0  0
  149.8700  137.5926  153.0836 H   0  0  0  0  0  0  0  0  0  0  0  0
  148.1409  138.6388  152.8833 H   0  0  0  0  0  0  0  0  0  0  0  0
  147.1284  138.1421  154.2282 H   0  0  0  0  0  0  0  0  0  0  0  0
  146.2434  140.0645  152.5788 H   0  0  0  0  0  0  0  0  0  0  0  0
  146.0599  140.3059  154.3108 H   0  0  0  0  0  0  0  0  0  0  0  0
  147.9722  141.6583  152.4579 H   0  0  0  0  0  0  0  0  0  0  0  0
  147.2682  142.2489  153.9508 H   0  0  0  0  0  0  0  0  0  0  0  0
  149.8143  140.9063  153.4540 H   0  0  0  0  0  0  0  0  0  0  0  0
  148.8939  142.7958  155.2335 H   0  0  0  0  0  0  0  0  0  0  0  0
  149.7548  143.5500  156.8182 H   0  0  0  0  0  0  0  0  0  0  0  0
  151.2029  145.2220  158.2110 H   0  0  0  0  0  0  0  0  0  0  0  0
  152.7544  145.3476  160.1415 H   0  0  0  0  0  0  0  0  0  0  0  0
  153.6908  143.2242  161.0883 H   0  0  0  0  0  0  0  0  0  0  0  0
  151.6651  140.9131  158.3338 H   0  0  0  0  0  0  0  0  0  0  0  0
  1  2  1  0  0  0  0
  1 19  1  0  0  0  0
  1 20  1  0  0  0  0
  1 21  1  0  0  0  0
  2  8  1  0  0  0  0
  2  3  1  0  0  0  0
  2  5  1  0  0  0  0
  3  4  1  0  0  0  0
  3 22  1  0  0  0  0
  3 23  1  0  0  0  0
  4 24  1  0  0  0  0
  5  6  1  0  0  0  0
  5 25  1  0  0  0  0
  5 26  1  0  0  0  0
  6  7  1  0  0  0  0
  6 27  1  0  0  0  0
  6 28  1  0  0  0  0
  7  8  1  0  0  0  0
  7 29  1  0  0  0  0
  7 30  1  0  0  0  0
  8  9  1  0  0  0  0
  8 31  1  0  0  0  0
  9 10  1  0  0  0  0
  9 32  1  0  0  0  0
 10 11  2  0  0  0  0
 10 12  1  0  0  0  0
 12 13  1  0  0  0  0
 12 33  1  0  0  0  0
 13 18  1  0  0  0  0
 13 14  2  0  0  0  0
 14 15  1  0  0  0  0
 14 34  1  0  0  0  0
 15 16  2  0  0  0  0
 15 35  1  0  0  0  0
 16 17  1  0  0  0  0
 16 36  1  0  0  0  0
 17 18  2  0  0  0  0
 18 37  1  0  0  0  0
M  END
> <s_m_source_file>
AV-unprocessed.smi

> <i_m_source_file_index>
691

> <i_lp_mmshare_version>
43012

> <i_f3d_flags>
0

> <s_epik_input>
W09IXVtDSDJdW0NAXTEoW0NIM10pW0NIMl1bQ0gyXVtDSDJdW0NASF0xW05IXUMoPU8pW05IXWMyW2NIXVtjSF1bY0hdbltjSF0y

> <s_epik_cmdline>
J2VwaWtfcHl0aG9uJywgJy1waCcsICc3LjAnLCAnLXRuJywgJzgnLCAnLW1hJywgJzIwMCcsICctbWV0YWxfYmluZGluZycsICctaW1hZScsICc8aW5maWxlLm1hZT4nLCAnLW9tYWUnLCAnPG91dGZpbGUubWFlPic=

> <r_epik_Ionization_Penalty>
0.00496828

> <r_epik_Ionization_Penalty_Charging>
0

> <r_epik_Ionization_Penalty_Neutral>
0.00496828

> <r_epik_State_Penalty>
0.00358054

> <r_epik_Charging_Adjusted_Penalty>
0.00358054

> <i_epik_Tot_Q>
0

> <i_epik_Tot_abs_Q>
0

> <r_epik_Metal_State_Penalty>
-0

> <b_epik_Metal_Only>
0

> <s_lp_Force_Field>
OPLS_2005

> <r_lp_Energy>
28.9923

> <b_lp_Chiralities_Consistent>
1

> <s_lp_Variant>
AV-unprocessed.smi:691-1

> <Gold.Version>
5.8.1

> <Gold.Id.Protein>
6NUR|6NUR_protein|mol2

> <Gold.PLP.Fitness>
44.2310

> <Gold.PLP.PLP>
-36.0895

> <Gold.PLP.part.hbond>
-4.8499

> <Gold.PLP.part.metal>
0.0000

> <Gold.PLP.part.buried>
-3.9946

> <Gold.PLP.part.nonpolar>
-28.1570

> <Gold.PLP.part.repulsive>
0.2271

> <Gold.PLP.ligand.clash>
0.0000

> <Gold.PLP.ligand.torsion>
0.3645

> <Gold.PLP.Chemscore.Hbond>
2.9520

> <Gold.PLP.Chemscore.CHOScore>
0.0000

> <Gold.PLP.Chemscore.Metal>
0.0000

> <Gold.Chemscore.Hbonds>
donor molecule, donor type, donor heavy atom, donor atom, acceptor molecule, acceptor atom, score
      L1  H     4    24       P1  7948  1.00
      L1  H     9    32       P1  8028  0.98
      L1  H    12    33       P1  8028  1.00

> <Gold.PLP.Chemscore.Internal.Correction>
0.0145

> <Gold.Rescore>
     Score         DG    S(hbond)    S(metal)    S(lipo)     H(rot)  DE(clash)    DE(int)     intcor
     17.24     -21.52       2.76        0.00      97.21       1.78       0.46       3.82       ----

> <Gold.Chemscore.Fitness>
17.2391

> <Gold.Chemscore.DG>
-21.5154

> <Gold.Chemscore.ZeroCoef>
-5.4800

> <Gold.Chemscore.Hbond>
2.7631

> <Gold.Chemscore.Metal>
0.0000

> <Gold.Chemscore.Lipo>
97.2081

> <Gold.Chemscore.Internal_Hbond>
0.0000

> <Gold.Chemscore.DEClash>
0.4584

> <Gold.Chemscore.DEInternal>
3.8180

> <Gold.Chemscore.Rot>
1.7838

> <Gold.Chemscore.Internal.Correction>
   9.000000E+99

> <Gold.Chemscore.Hbonds>
donor molecule, donor type, donor heavy atom, donor atom, acceptor molecule, acceptor atom, score
      L1  H     4    24       P1  7948  0.43
      L1  H     9    32       P1  8028  0.92
      L1  H    12    33       P1  8028  0.95

> <Gold.Chemscore.Hbond.Weighted>
-9.2286

> <Gold.Chemscore.Metal.Weighted>
-0.0000

> <Gold.Chemscore.Lipo.Weighted>
-11.3733

> <Gold.Chemscore.Internal_Hbond.Weighted>
0.0000

> <Gold.Chemscore.DEClash.Weighted>
0.4584

> <Gold.Chemscore.DEInternal.Weighted>
3.8180

> <Gold.Chemscore.Rot.Weighted>
4.5666

> <Gold.Chemscore.Internal.Correction.Weighted>
   9.000000E+99

> <Gold.Protein.RotatedTorsions>
[ 6907 6896 6895 6894 ] final  -57.72 input  -60.11 | X-H torsion
[ 7974 7965 7964 7962 ] final -113.54 input  175.53 | X-H torsion
[ 8008 7997 7996 7995 ] final  -66.56 input   59.86 | X-H torsion
[ 10167 10162 10161 10158 ] final -103.06 input  -65.29 | X-H torsion
[ 10718 10713 10712 10709 ] final  101.15 input   66.30 | X-H torsion
[ 10763 10752 10751 10750 ] final   49.45 input  -60.55 | X-H torsion
[ 11005 11000 10999 10996 ] final  -97.74 input  -57.11 | X-H torsion

> <Gold.Protein.ActiveResidues>
 VAL166  LYS551  ARG553  GLY616  TRP617  ASP618  TYR619  PRO620  LYS621  CYS622 
 ASP623  PHE694  ASN695  SER759  ASP760  ASP761  ALA762  ILE779  LEU786  VAL792 
 PHE793  MET794  SER795  GLU796  ALA797  LYS798  CYS799  TRP800  GLU811  SER814 

> <Gold.Protein.RotatedAtoms>
  150.8063  134.7190  159.6646 H   0  0  0  0  0  0  0  0  0  0  0  0  # atno 6907 bound_to 6896
  152.4183  134.5999  160.0007 H   0  0  0  0  0  0  0  0  0  0  0  0  # atno 6908 bound_to 6896
  151.6222  133.3301  159.3126 H   0  0  0  0  0  0  0  0  0  0  0  0  # atno 6909 bound_to 6896
  145.1308  140.8723  143.3759 H   0  0  0  0  0  0  0  0  0  0  0  0  # atno 7974 bound_to 7965
  154.4742  140.0910  156.7221 H   0  0  0  0  0  0  0  0  0  0  0  0  # atno 8008 bound_to 7997
  155.4641  140.3462  155.4298 H   0  0  0  0  0  0  0  0  0  0  0  0  # atno 8009 bound_to 7997
  156.1089  140.1442  156.9354 H   0  0  0  0  0  0  0  0  0  0  0  0  # atno 8010 bound_to 7997
  140.2240  143.3655  152.0944 H   0  0  0  0  0  0  0  0  0  0  0  0  # atno 10167 bound_to 10162
  157.6836  131.0718  150.5209 H   0  0  0  0  0  0  0  0  0  0  0  0  # atno 10718 bound_to 10713
  152.9787  135.5911  154.4090 H   0  0  0  0  0  0  0  0  0  0  0  0  # atno 10763 bound_to 10752
  154.3728  135.2767  155.2258 H   0  0  0  0  0  0  0  0  0  0  0  0  # atno 10764 bound_to 10752
  154.4206  135.6060  153.6062 H   0  0  0  0  0  0  0  0  0  0  0  0  # atno 10765 bound_to 10752
  141.1368  133.8193  157.0747 H   0  0  0  0  0  0  0  0  0  0  0  0  # atno 11005 bound_to 11000
  145.0637  139.3085  143.5867 LP  0  0  0  0  0  0  0  0  0  0  0  0  # atno 17320 bound_to 7965
  146.3514  140.0088  142.8669 LP  0  0  0  0  0  0  0  0  0  0  0  0  # atno 17321 bound_to 7965
  139.5134  144.6931  151.5705 LP  0  0  0  0  0  0  0  0  0  0  0  0  # atno 17342 bound_to 10162
  140.6234  143.9215  150.6544 LP  0  0  0  0  0  0  0  0  0  0  0  0  # atno 17343 bound_to 10162
  156.5522  130.4234  149.6102 LP  0  0  0  0  0  0  0  0  0  0  0  0  # atno 17370 bound_to 10713
  156.2893  130.7115  151.1959 LP  0  0  0  0  0  0  0  0  0  0  0  0  # atno 17371 bound_to 10713
  140.0489  134.9816  157.1100 LP  0  0  0  0  0  0  0  0  0  0  0  0  # atno 17394 bound_to 11000
  140.4020  134.2072  155.7163 LP  0  0  0  0  0  0  0  0  0  0  0  0  # atno 17395 bound_to 11000

$$$$
