AV-unprocessed.smi:1533|AV-procd|sdf|6165|dock6
  -GOLD-   22720 6313D 1   1.00000     0.00000
 Structure written by MMmdl.
 37 39  0  0  0  0  0  0  0  0  1 V2000
  152.9446  130.7774  157.4343 C   0  0  0  0  0  0  0  0  0  0  0  0
  151.7612  131.4973  156.8834 C   0  0  0  0  0  0  0  0  0  0  0  0
  150.9613  132.2137  157.6640 N   0  0  0  0  0  0  0  0  0  0  0  0
  150.0036  132.7163  156.7711 O   0  0  0  0  0  0  0  0  0  0  0  0
  150.3382  132.2229  155.5546 C   0  0  0  0  0  0  0  0  0  0  0  0
  149.5266  132.6177  154.3667 C   0  0  0  0  0  0  0  0  0  0  0  0
  148.9570  131.4031  153.6164 C   0  0  0  0  0  0  0  0  0  0  0  0
  148.1300  131.8092  152.4857 N   0  0  0  0  0  0  0  0  0  0  0  0
  147.0626  132.6192  152.5653 C   0  0  0  0  0  0  0  0  0  0  0  0
  146.6707  133.1054  153.6267 O   0  0  0  0  0  0  0  0  0  0  0  0
  146.3367  132.9211  151.2422 C   0  0  1  0  0  0  0  0  0  0  0  0
  145.8715  131.6472  150.4938 C   0  0  0  0  0  0  0  0  0  0  0  0
  144.3610  131.8843  150.2969 C   0  0  2  0  0  0  0  0  0  0  0  0
  144.1485  133.0259  149.2843 C   0  0  0  0  0  0  0  0  0  0  0  0
  144.5623  134.2743  150.0880 C   0  0  0  0  0  0  0  0  0  0  0  0
  144.9966  133.6752  151.4395 C   0  0  1  0  0  0  0  0  0  0  0  0
  143.9713  132.5539  151.6073 C   0  0  0  0  0  0  0  0  0  0  0  0
  151.4369  131.4722  155.5619 N   0  0  0  0  0  0  0  0  0  0  0  0
  152.9055  130.7388  158.5235 H   0  0  0  0  0  0  0  0  0  0  0  0
  153.8634  131.2840  157.1383 H   0  0  0  0  0  0  0  0  0  0  0  0
  152.9746  129.7555  157.0555 H   0  0  0  0  0  0  0  0  0  0  0  0
  148.7199  133.2702  154.7033 H   0  0  0  0  0  0  0  0  0  0  0  0
  150.1519  133.2129  153.7003 H   0  0  0  0  0  0  0  0  0  0  0  0
  149.7715  130.7853  153.2369 H   0  0  0  0  0  0  0  0  0  0  0  0
  148.3791  130.7722  154.2944 H   0  0  0  0  0  0  0  0  0  0  0  0
  148.3862  131.4481  151.5780 H   0  0  0  0  0  0  0  0  0  0  0  0
  147.0027  133.5070  150.6059 H   0  0  0  0  0  0  0  0  0  0  0  0
  146.3905  131.5195  149.5432 H   0  0  0  0  0  0  0  0  0  0  0  0
  146.0382  130.7402  151.0775 H   0  0  0  0  0  0  0  0  0  0  0  0
  143.8037  130.9780  150.0585 H   0  0  0  0  0  0  0  0  0  0  0  0
  144.7466  132.8939  148.3819 H   0  0  0  0  0  0  0  0  0  0  0  0
  143.1013  133.0922  148.9858 H   0  0  0  0  0  0  0  0  0  0  0  0
  145.3589  134.8396  149.6031 H   0  0  0  0  0  0  0  0  0  0  0  0
  143.7112  134.9442  150.2181 H   0  0  0  0  0  0  0  0  0  0  0  0
  145.0090  134.4036  152.2516 H   0  0  0  0  0  0  0  0  0  0  0  0
  142.9396  132.9102  151.6199 H   0  0  0  0  0  0  0  0  0  0  0  0
  144.1335  131.9220  152.4807 H   0  0  0  0  0  0  0  0  0  0  0  0
  1  2  1  0  0  0  0
  1 19  1  0  0  0  0
  1 20  1  0  0  0  0
  1 21  1  0  0  0  0
  2 18  1  0  0  0  0
  2  3  2  0  0  0  0
  3  4  1  0  0  0  0
  4  5  1  0  0  0  0
  5  6  1  0  0  0  0
  5 18  2  0  0  0  0
  6  7  1  0  0  0  0
  6 22  1  0  0  0  0
  6 23  1  0  0  0  0
  7  8  1  0  0  0  0
  7 24  1  0  0  0  0
  7 25  1  0  0  0  0
  8  9  1  0  0  0  0
  8 26  1  0  0  0  0
  9 10  2  0  0  0  0
  9 11  1  0  0  0  0
 11 16  1  0  0  0  0
 11 12  1  0  0  0  0
 11 27  1  0  0  0  0
 12 13  1  0  0  0  0
 12 28  1  0  0  0  0
 12 29  1  0  0  0  0
 13 17  1  0  0  0  0
 13 14  1  0  0  0  0
 13 30  1  0  0  0  0
 14 15  1  0  0  0  0
 14 31  1  0  0  0  0
 14 32  1  0  0  0  0
 15 16  1  0  0  0  0
 15 33  1  0  0  0  0
 15 34  1  0  0  0  0
 16 17  1  0  0  0  0
 16 35  1  0  0  0  0
 17 36  1  0  0  0  0
 17 37  1  0  0  0  0
M  END
> <s_m_source_file>
AV-unprocessed.smi

> <i_m_source_file_index>
1533

> <i_lp_mmshare_version>
43012

> <i_f3d_flags>
0

> <s_epik_input>
W0NIM11jMW5vYyhuMSlbQ0gyXVtDSDJdW05IXUMoPU8pW0NASF0oW0NIMl1bQ0BASF0yMylbQ0BASF0oW0NIMl0zKVtDSDJdW0NIMl0y

> <s_epik_cmdline>
J2VwaWtfcHl0aG9uJywgJy1waCcsICc3LjAnLCAnLXRuJywgJzgnLCAnLW1hJywgJzIwMCcsICctbWV0YWxfYmluZGluZycsICctaW1hZScsICc8aW5maWxlLm1hZT4nLCAnLW9tYWUnLCAnPG91dGZpbGUubWFlPic=

> <r_lp_tautomer_probability>
1

> <r_epik_Ionization_Penalty>
1.90116e-08

> <r_epik_Ionization_Penalty_Charging>
0

> <r_epik_Ionization_Penalty_Neutral>
1.90116e-08

> <r_epik_State_Penalty>
-0

> <r_epik_Charging_Adjusted_Penalty>
0

> <i_epik_Tot_Q>
0

> <i_epik_Tot_abs_Q>
0

> <r_epik_Metal_State_Penalty>
-0

> <b_epik_Metal_Only>
0

> <s_lp_Force_Field>
OPLS_2005

> <r_lp_Energy>
42.7172

> <b_lp_Chiralities_Consistent>
1

> <s_lp_Variant>
AV-unprocessed.smi:1533-4

> <Gold.Version>
5.8.1

> <Gold.Id.Protein>
6NUR|6NUR_protein|mol2

> <Gold.PLP.Fitness>
38.7128

> <Gold.PLP.PLP>
-32.8972

> <Gold.PLP.part.hbond>
-2.0000

> <Gold.PLP.part.metal>
0.0000

> <Gold.PLP.part.buried>
-2.1619

> <Gold.PLP.part.nonpolar>
-28.4018

> <Gold.PLP.part.repulsive>
0.0916

> <Gold.PLP.ligand.clash>
0.0000

> <Gold.PLP.ligand.torsion>
0.1110

> <Gold.PLP.Chemscore.Hbond>
2.0000

> <Gold.PLP.Chemscore.CHOScore>
0.0000

> <Gold.PLP.Chemscore.Metal>
0.0000

> <Gold.Chemscore.Hbonds>
donor molecule, donor type, donor heavy atom, donor atom, acceptor molecule, acceptor atom, score
      L1  H     8    26       P1 10747  1.00
      P1  H  6896  6907       L1     3  1.00

> <Gold.PLP.Chemscore.Internal.Correction>
0.0376

> <Gold.Rescore>
     Score         DG    S(hbond)    S(metal)    S(lipo)     H(rot)  DE(clash)    DE(int)     intcor
     15.04     -16.28       1.96        0.00      76.73       1.85       0.05       1.20       ----

> <Gold.Chemscore.Fitness>
15.0382

> <Gold.Chemscore.DG>
-16.2847

> <Gold.Chemscore.ZeroCoef>
-5.4800

> <Gold.Chemscore.Hbond>
1.9641

> <Gold.Chemscore.Metal>
0.0000

> <Gold.Chemscore.Lipo>
76.7343

> <Gold.Chemscore.Internal_Hbond>
0.0000

> <Gold.Chemscore.DEClash>
0.0482

> <Gold.Chemscore.DEInternal>
1.1983

> <Gold.Chemscore.Rot>
1.8490

> <Gold.Chemscore.Internal.Correction>
   9.000000E+99

> <Gold.Chemscore.Hbonds>
donor molecule, donor type, donor heavy atom, donor atom, acceptor molecule, acceptor atom, score
      L1  H     8    26       P1 10747  0.94
      P1  H  6896  6907       L1     3  0.84

> <Gold.Chemscore.Hbond.Weighted>
-6.5601

> <Gold.Chemscore.Metal.Weighted>
-0.0000

> <Gold.Chemscore.Lipo.Weighted>
-8.9779

> <Gold.Chemscore.Internal_Hbond.Weighted>
0.0000

> <Gold.Chemscore.DEClash.Weighted>
0.0482

> <Gold.Chemscore.DEInternal.Weighted>
1.1983

> <Gold.Chemscore.Rot.Weighted>
4.7334

> <Gold.Chemscore.Internal.Correction.Weighted>
   9.000000E+99

> <Gold.Protein.RotatedTorsions>
[ 6907 6896 6895 6894 ] final -156.26 input  -60.11 | X-H torsion
[ 7974 7965 7964 7962 ] final   83.42 input  175.53 | X-H torsion
[ 8008 7997 7996 7995 ] final  148.20 input   59.86 | X-H torsion
[ 10167 10162 10161 10158 ] final  -32.36 input  -65.29 | X-H torsion
[ 10718 10713 10712 10709 ] final  -46.31 input   66.30 | X-H torsion
[ 10763 10752 10751 10750 ] final   97.82 input  -60.55 | X-H torsion
[ 11005 11000 10999 10996 ] final   68.47 input  -57.11 | X-H torsion

> <Gold.Protein.ActiveResidues>
 VAL166  LYS551  ARG553  GLY616  TRP617  ASP618  TYR619  PRO620  LYS621  CYS622 
 ASP623  PHE694  ASN695  SER759  ASP760  ASP761  ALA762  ILE779  LEU786  VAL792 
 PHE793  MET794  SER795  GLU796  ALA797  LYS798  CYS799  TRP800  GLU811  SER814 

> <Gold.Protein.RotatedAtoms>
  151.2849  133.4192  159.2629 H   0  0  0  0  0  0  0  0  0  0  0  0  # atno 6907 bound_to 6896
  151.0328  134.9552  159.8130 H   0  0  0  0  0  0  0  0  0  0  0  0  # atno 6908 bound_to 6896
  152.5349  134.2809  159.9059 H   0  0  0  0  0  0  0  0  0  0  0  0  # atno 6909 bound_to 6896
  145.6121  139.2370  143.2186 H   0  0  0  0  0  0  0  0  0  0  0  0  # atno 7974 bound_to 7965
  156.2799  140.2135  156.5661 H   0  0  0  0  0  0  0  0  0  0  0  0  # atno 8008 bound_to 7997
  154.7174  140.0506  157.0630 H   0  0  0  0  0  0  0  0  0  0  0  0  # atno 8009 bound_to 7997
  155.0524  140.3157  155.4690 H   0  0  0  0  0  0  0  0  0  0  0  0  # atno 8010 bound_to 7997
  140.7222  143.3701  151.1795 H   0  0  0  0  0  0  0  0  0  0  0  0  # atno 10167 bound_to 10162
  156.2196  130.4165  149.9010 H   0  0  0  0  0  0  0  0  0  0  0  0  # atno 10718 bound_to 10713
  153.2815  135.4170  155.1083 H   0  0  0  0  0  0  0  0  0  0  0  0  # atno 10763 bound_to 10752
  154.8491  135.3496  154.6105 H   0  0  0  0  0  0  0  0  0  0  0  0  # atno 10764 bound_to 10752
  153.6526  135.7052  153.5261 H   0  0  0  0  0  0  0  0  0  0  0  0  # atno 10765 bound_to 10752
  139.9709  134.6901  156.0448 H   0  0  0  0  0  0  0  0  0  0  0  0  # atno 11005 bound_to 11000
  146.1496  140.6944  142.9328 LP  0  0  0  0  0  0  0  0  0  0  0  0  # atno 17320 bound_to 7965
  144.7265  140.4542  143.6969 LP  0  0  0  0  0  0  0  0  0  0  0  0  # atno 17321 bound_to 7965
  139.7270  143.9132  152.3006 LP  0  0  0  0  0  0  0  0  0  0  0  0  # atno 17342 bound_to 10162
  139.8909  144.6966  150.8772 LP  0  0  0  0  0  0  0  0  0  0  0  0  # atno 17343 bound_to 10162
  156.6660  130.8801  151.3555 LP  0  0  0  0  0  0  0  0  0  0  0  0  # atno 17370 bound_to 10713
  157.7081  130.9408  150.0996 LP  0  0  0  0  0  0  0  0  0  0  0  0  # atno 17371 bound_to 10713
  141.1389  133.6569  156.3672 LP  0  0  0  0  0  0  0  0  0  0  0  0  # atno 17394 bound_to 11000
  140.5295  134.6227  157.5345 LP  0  0  0  0  0  0  0  0  0  0  0  0  # atno 17395 bound_to 11000

$$$$
