AV-unprocessed.smi:1900|AV-procd|sdf|7710|dock4
  -GOLD-   22720 9453D 1   1.00000     0.00000
 Structure written by MMmdl.
 44 45  0  0  0  0  0  0  0  0  2 V2000
  150.7259  134.0699  155.7425 C   0  0  0  0  0  0  0  0  0  0  0  0
  150.4109  135.2981  154.8812 C   0  0  1  0  0  0  0  0  0  0  0  0
  149.0048  135.8612  155.1629 C   0  0  0  0  0  0  0  0  0  0  0  0
  148.7652  137.0904  154.3695 N   0  3  1  0  0  0  0  0  0  0  0  0
  147.3985  137.6342  154.5716 C   0  0  0  0  0  0  0  0  0  0  0  0
  146.9477  138.5470  153.4180 C   0  0  0  0  0  0  0  0  0  0  0  0
  145.6190  138.0856  152.7968 C   0  0  0  0  0  0  0  0  0  0  0  0
  145.7379  136.7698  152.1783 N   0  0  0  0  0  0  0  0  0  0  0  0
  144.7064  135.9845  151.8371 C   0  0  0  0  0  0  0  0  0  0  0  0
  143.5286  136.2882  152.0289 O   0  0  0  0  0  0  0  0  0  0  0  0
  145.1277  134.8431  151.2679 N   0  0  0  0  0  0  0  0  0  0  0  0
  144.3286  133.7776  150.7816 C   0  0  0  0  0  0  0  0  0  0  0  0
  144.5021  133.1466  149.5199 C   0  0  0  0  0  0  0  0  0  0  0  0
  143.6122  132.1821  149.3348 N   0  0  0  0  0  0  0  0  0  0  0  0
  142.8731  132.1906  150.4669 N   0  0  0  0  0  0  0  0  0  0  0  0
  143.2728  133.1452  151.3758 C   0  0  0  0  0  0  0  0  0  0  0  0
  149.8411  138.0817  154.6182 C   0  0  0  0  0  0  0  0  0  0  0  0
  151.2244  137.4578  154.3528 C   0  0  1  0  0  0  0  0  0  0  0  0
  152.3668  138.4267  154.6772 C   0  0  0  0  0  0  0  0  0  0  0  0
  151.3782  136.3017  155.1684 O   0  0  0  0  0  0  0  0  0  0  0  0
  142.1072  131.5462  150.6028 H   0  0  0  0  0  0  0  0  0  0  0  0
  150.0195  133.2624  155.5486 H   0  0  0  0  0  0  0  0  0  0  0  0
  150.6776  134.3089  156.8053 H   0  0  0  0  0  0  0  0  0  0  0  0
  151.7269  133.6925  155.5320 H   0  0  0  0  0  0  0  0  0  0  0  0
  150.4898  135.0135  153.8303 H   0  0  0  0  0  0  0  0  0  0  0  0
  148.2534  135.1106  154.9135 H   0  0  0  0  0  0  0  0  0  0  0  0
  148.8934  136.0866  156.2249 H   0  0  0  0  0  0  0  0  0  0  0  0
  146.6956  136.8023  154.6369 H   0  0  0  0  0  0  0  0  0  0  0  0
  147.3442  138.1597  155.5262 H   0  0  0  0  0  0  0  0  0  0  0  0
  146.8332  139.5731  153.7669 H   0  0  0  0  0  0  0  0  0  0  0  0
  147.7240  138.5646  152.6519 H   0  0  0  0  0  0  0  0  0  0  0  0
  144.8275  138.0727  153.5481 H   0  0  0  0  0  0  0  0  0  0  0  0
  145.3048  138.7916  152.0277 H   0  0  0  0  0  0  0  0  0  0  0  0
  146.6721  136.4396  151.9836 H   0  0  0  0  0  0  0  0  0  0  0  0
  146.1250  134.7265  151.1631 H   0  0  0  0  0  0  0  0  0  0  0  0
  145.2286  133.3524  148.7477 H   0  0  0  0  0  0  0  0  0  0  0  0
  142.7829  133.2767  152.3290 H   0  0  0  0  0  0  0  0  0  0  0  0
  149.7117  138.9508  153.9744 H   0  0  0  0  0  0  0  0  0  0  0  0
  149.7790  138.4351  155.6489 H   0  0  0  0  0  0  0  0  0  0  0  0
  151.3026  137.1698  153.3028 H   0  0  0  0  0  0  0  0  0  0  0  0
  152.2998  139.3300  154.0705 H   0  0  0  0  0  0  0  0  0  0  0  0
  153.3357  137.9666  154.4812 H   0  0  0  0  0  0  0  0  0  0  0  0
  152.3465  138.7254  155.7257 H   0  0  0  0  0  0  0  0  0  0  0  0
  148.8293  136.8182  153.3989 H   0  0  0  0  0  0  0  0  0  0  0  0
  1  2  1  0  0  0  0
  1 22  1  0  0  0  0
  1 23  1  0  0  0  0
  1 24  1  0  0  0  0
  2 20  1  0  0  0  0
  2  3  1  0  0  0  0
  2 25  1  0  0  0  0
  3  4  1  0  0  0  0
  3 26  1  0  0  0  0
  3 27  1  0  0  0  0
  4  5  1  0  0  0  0
  4 17  1  0  0  0  0
  4 44  1  0  0  0  0
  5  6  1  0  0  0  0
  5 28  1  0  0  0  0
  5 29  1  0  0  0  0
  6  7  1  0  0  0  0
  6 30  1  0  0  0  0
  6 31  1  0  0  0  0
  7  8  1  0  0  0  0
  7 32  1  0  0  0  0
  7 33  1  0  0  0  0
  8  9  1  0  0  0  0
  8 34  1  0  0  0  0
  9 10  2  0  0  0  0
  9 11  1  0  0  0  0
 11 12  1  0  0  0  0
 11 35  1  0  0  0  0
 12 16  2  0  0  0  0
 12 13  1  0  0  0  0
 13 14  2  0  0  0  0
 13 36  1  0  0  0  0
 14 15  1  0  0  0  0
 15 21  1  0  0  0  0
 15 16  1  0  0  0  0
 16 37  1  0  0  0  0
 17 18  1  0  0  0  0
 17 38  1  0  0  0  0
 17 39  1  0  0  0  0
 18 19  1  0  0  0  0
 18 20  1  0  0  0  0
 18 40  1  0  0  0  0
 19 41  1  0  0  0  0
 19 42  1  0  0  0  0
 19 43  1  0  0  0  0
M  CHG  1   4   1
M  END
> <s_m_source_file>
AV-unprocessed.smi

> <i_m_source_file_index>
1900

> <i_lp_mmshare_version>
43012

> <i_f3d_flags>
0

> <s_epik_input>
W0NIM11bQ0BASF0xW0NIMl1OKFtDSDJdW0NASF0oTzEpW0NIM10pW0NIMl1bQ0gyXVtDSDJdW05IXUMoPU8pW05IXWMyW2NIXW5bbkhdW2NIXTI=

> <s_epik_cmdline>
J2VwaWtfcHl0aG9uJywgJy1waCcsICc3LjAnLCAnLXRuJywgJzgnLCAnLW1hJywgJzIwMCcsICctbWV0YWxfYmluZGluZycsICctaW1hZScsICc8aW5maWxlLm1hZT4nLCAnLW9tYWUnLCAnPG91dGZpbGUubWFlPic=

> <r_lp_tautomer_probability>
0.5

> <r_epik_Ionization_Penalty>
0.270543

> <r_epik_Ionization_Penalty_Charging>
0.270496

> <r_epik_Ionization_Penalty_Neutral>
4.67091e-05

> <r_epik_State_Penalty>
0.262618

> <r_epik_Charging_Adjusted_Penalty>
0.533114

> <i_epik_Tot_Q>
1

> <i_epik_Tot_abs_Q>
1

> <r_epik_Metal_State_Penalty>
0.262618

> <b_epik_Metal_Only>
0

> <s_lp_Force_Field>
OPLS_2005

> <r_lp_Energy>
18.2287

> <b_lp_Chiralities_Consistent>
1

> <s_lp_Variant>
AV-unprocessed.smi:1900-2

> <Gold.Version>
5.8.1

> <Gold.Id.Protein>
6NUR|6NUR_protein|mol2

> <Gold.PLP.Fitness>
47.7670

> <Gold.PLP.PLP>
-31.0957

> <Gold.PLP.part.hbond>
-4.8125

> <Gold.PLP.part.metal>
0.0000

> <Gold.PLP.part.buried>
-5.0512

> <Gold.PLP.part.nonpolar>
-23.3809

> <Gold.PLP.part.repulsive>
0.7165

> <Gold.PLP.ligand.clash>
0.0000

> <Gold.PLP.ligand.torsion>
1.0461

> <Gold.PLP.Chemscore.Hbond>
4.8821

> <Gold.PLP.Chemscore.CHOScore>
1.3585

> <Gold.PLP.Chemscore.Metal>
0.0000

> <Gold.Chemscore.Hbonds>
donor molecule, donor type, donor heavy atom, donor atom, acceptor molecule, acceptor atom, score
      L1  H     4    44       P1  7948  2.00
      L1  H     8    34       P1  7948  0.39
      L1  H    15    21       P1 10952  0.81
      P1  H 10752 10764       L1    20  1.00
      P1  H 10785 10796       L1    14  0.56
      L1  C    13    36       P1  7921  1.00
      L1  C    16    37       P1 10957  0.16

> <Gold.PLP.Chemscore.Internal.Correction>
0.0419

> <Gold.Rescore>
     Score         DG    S(hbond)    S(metal)    S(lipo)     H(rot)  DE(clash)    DE(int)     intcor
     16.64     -17.74       2.53        0.00      74.81       1.93       0.08       1.03       ----

> <Gold.Chemscore.Fitness>
16.6352

> <Gold.Chemscore.DG>
-17.7422

> <Gold.Chemscore.ZeroCoef>
-5.4800

> <Gold.Chemscore.Hbond>
2.5336

> <Gold.Chemscore.Metal>
0.0000

> <Gold.Chemscore.Lipo>
74.8110

> <Gold.Chemscore.Internal_Hbond>
0.0000

> <Gold.Chemscore.DEClash>
0.0791

> <Gold.Chemscore.DEInternal>
1.0279

> <Gold.Chemscore.Rot>
1.9347

> <Gold.Chemscore.Internal.Correction>
   9.000000E+99

> <Gold.Chemscore.Hbonds>
donor molecule, donor type, donor heavy atom, donor atom, acceptor molecule, acceptor atom, score
      L1  H     4    44       P1  7948  1.00
      L1  H     8    34       P1  7948  0.39
      L1  H    15    21       P1 10952  0.17
      P1  H 10752 10764       L1    20  0.18
      P1  H 10785 10796       L1    14  0.11

> <Gold.Chemscore.Hbond.Weighted>
-8.4621

> <Gold.Chemscore.Metal.Weighted>
-0.0000

> <Gold.Chemscore.Lipo.Weighted>
-8.7529

> <Gold.Chemscore.Internal_Hbond.Weighted>
0.0000

> <Gold.Chemscore.DEClash.Weighted>
0.0791

> <Gold.Chemscore.DEInternal.Weighted>
1.0279

> <Gold.Chemscore.Rot.Weighted>
4.9528

> <Gold.Chemscore.Internal.Correction.Weighted>
   9.000000E+99

> <Gold.Protein.RotatedTorsions>
[ 6907 6896 6895 6894 ] final   30.81 input  -60.11 | X-H torsion
[ 7974 7965 7964 7962 ] final  -57.03 input  175.53 | X-H torsion
[ 8008 7997 7996 7995 ] final  -42.68 input   59.86 | X-H torsion
[ 10167 10162 10161 10158 ] final   87.58 input  -65.29 | X-H torsion
[ 10718 10713 10712 10709 ] final    3.76 input   66.30 | X-H torsion
[ 10763 10752 10751 10750 ] final  -61.71 input  -60.55 | X-H torsion
[ 11005 11000 10999 10996 ] final  179.49 input  -57.11 | X-H torsion

> <Gold.Protein.ActiveResidues>
 VAL166  LYS551  ARG553  GLY616  TRP617  ASP618  TYR619  PRO620  LYS621  CYS622 
 ASP623  PHE694  ASN695  SER759  ASP760  ASP761  ALA762  ILE779  LEU786  VAL792 
 PHE793  MET794  SER795  GLU796  ALA797  LYS798  CYS799  TRP800  GLU811  SER814 

> <Gold.Protein.RotatedAtoms>
  152.0513  134.9652  160.0574 H   0  0  0  0  0  0  0  0  0  0  0  0  # atno 6907 bound_to 6896
  152.1051  133.4266  159.4613 H   0  0  0  0  0  0  0  0  0  0  0  0  # atno 6908 bound_to 6896
  150.6841  134.2633  159.4601 H   0  0  0  0  0  0  0  0  0  0  0  0  # atno 6909 bound_to 6896
  145.8558  140.8320  142.9962 H   0  0  0  0  0  0  0  0  0  0  0  0  # atno 7974 bound_to 7965
  154.3998  140.1467  156.3394 H   0  0  0  0  0  0  0  0  0  0  0  0  # atno 8008 bound_to 7997
  155.8370  140.3463  155.5586 H   0  0  0  0  0  0  0  0  0  0  0  0  # atno 8009 bound_to 7997
  155.8128  140.0886  157.1885 H   0  0  0  0  0  0  0  0  0  0  0  0  # atno 8010 bound_to 7997
  139.8759  144.6467  150.8896 H   0  0  0  0  0  0  0  0  0  0  0  0  # atno 10167 bound_to 10162
  156.8826  130.5659  149.5652 H   0  0  0  0  0  0  0  0  0  0  0  0  # atno 10718 bound_to 10713
  154.2887  135.6257  153.5376 H   0  0  0  0  0  0  0  0  0  0  0  0  # atno 10763 bound_to 10752
  152.9855  135.5650  154.5414 H   0  0  0  0  0  0  0  0  0  0  0  0  # atno 10764 bound_to 10752
  154.5020  135.2872  155.1388 H   0  0  0  0  0  0  0  0  0  0  0  0  # atno 10765 bound_to 10752
  140.4067  134.6728  157.4592 H   0  0  0  0  0  0  0  0  0  0  0  0  # atno 11005 bound_to 11000
  144.6728  140.1021  143.7460 LP  0  0  0  0  0  0  0  0  0  0  0  0  # atno 17320 bound_to 7965
  145.9305  139.2603  143.1328 LP  0  0  0  0  0  0  0  0  0  0  0  0  # atno 17321 bound_to 7965
  140.7753  143.3625  151.1801 LP  0  0  0  0  0  0  0  0  0  0  0  0  # atno 17342 bound_to 10162
  139.7240  143.9178  152.2996 LP  0  0  0  0  0  0  0  0  0  0  0  0  # atno 17343 bound_to 10162
  156.0669  130.5711  150.9307 LP  0  0  0  0  0  0  0  0  0  0  0  0  # atno 17370 bound_to 10713
  157.6131  131.0935  150.8758 LP  0  0  0  0  0  0  0  0  0  0  0  0  # atno 17371 bound_to 10713
  140.0297  134.6425  155.9124 LP  0  0  0  0  0  0  0  0  0  0  0  0  # atno 17394 bound_to 11000
  141.1836  133.6551  156.5124 LP  0  0  0  0  0  0  0  0  0  0  0  0  # atno 17395 bound_to 11000

$$$$
