AV-unprocessed.smi:299|AV-procd|sdf|2267|dock7
  -GOLD-   2262022153D 1   1.00000     0.00000
 Structure written by MMmdl.
 42 43  0  0  0  0  0  0  0  0  2 V2000
  145.2108  133.8626  151.8367 C   0  0  0  0  0  0  0  0  0  0  0  0
  146.1583  132.8602  151.1421 C   0  0  2  0  0  0  0  0  0  0  0  0
  145.3908  131.7408  150.4072 C   0  0  0  0  0  0  0  0  0  0  0  0
  144.7732  130.7274  151.3821 C   0  0  0  0  0  0  0  0  0  0  0  0
  145.8537  130.1760  152.3199 C   0  0  0  0  0  0  0  0  0  0  0  0
  146.6002  131.3121  153.0380 C   0  0  0  0  0  0  0  0  0  0  0  0
  147.1806  132.2741  152.0611 N   0  3  2  0  0  0  0  0  0  0  0  0
  148.0767  133.2860  152.6792 C   0  0  0  0  0  0  0  0  0  0  0  0
  149.1977  132.6449  153.5146 C   0  0  0  0  0  0  0  0  0  0  0  0
  149.5356  133.4711  154.7671 C   0  0  0  0  0  0  0  0  0  0  0  0
  149.7763  134.8712  154.4397 N   0  0  0  0  0  0  0  0  0  0  0  0
  150.2603  135.7919  155.2882 C   0  0  0  0  0  0  0  0  0  0  0  0
  150.5690  135.5439  156.4536 O   0  0  0  0  0  0  0  0  0  0  0  0
  150.4151  137.2115  154.7412 C   0  0  0  0  0  0  0  0  0  0  0  0
  151.8041  137.6297  154.7663 N   0  0  0  0  0  0  0  0  0  0  0  0
  152.3774  138.7878  154.4331 C   0  0  0  0  0  0  0  0  0  0  0  0
  153.6920  138.7446  154.5883 N   0  0  0  0  0  0  0  0  0  0  0  0
  153.9123  137.4587  155.0528 N   0  0  0  0  0  0  0  0  0  0  0  0
  152.7960  136.7920  155.1600 N   0  0  0  0  0  0  0  0  0  0  0  0
  144.5007  134.2781  151.1210 H   0  0  0  0  0  0  0  0  0  0  0  0
  145.7551  134.7037  152.2655 H   0  0  0  0  0  0  0  0  0  0  0  0
  144.6307  133.4020  152.6356 H   0  0  0  0  0  0  0  0  0  0  0  0
  146.7013  133.4175  150.3772 H   0  0  0  0  0  0  0  0  0  0  0  0
  144.6156  132.1676  149.7699 H   0  0  0  0  0  0  0  0  0  0  0  0
  146.0755  131.2168  149.7385 H   0  0  0  0  0  0  0  0  0  0  0  0
  143.9807  131.1988  151.9641 H   0  0  0  0  0  0  0  0  0  0  0  0
  144.3060  129.9122  150.8286 H   0  0  0  0  0  0  0  0  0  0  0  0
  145.4045  129.5040  153.0519 H   0  0  0  0  0  0  0  0  0  0  0  0
  146.5642  129.5782  151.7469 H   0  0  0  0  0  0  0  0  0  0  0  0
  145.9317  131.8307  153.7259 H   0  0  0  0  0  0  0  0  0  0  0  0
  147.3881  130.8739  153.6491 H   0  0  0  0  0  0  0  0  0  0  0  0
  148.5436  133.8771  151.8901 H   0  0  0  0  0  0  0  0  0  0  0  0
  147.4946  133.9816  153.2855 H   0  0  0  0  0  0  0  0  0  0  0  0
  148.9148  131.6388  153.8230 H   0  0  0  0  0  0  0  0  0  0  0  0
  150.0892  132.5388  152.8950 H   0  0  0  0  0  0  0  0  0  0  0  0
  148.7371  133.3942  155.5073 H   0  0  0  0  0  0  0  0  0  0  0  0
  150.4363  133.0778  155.2394 H   0  0  0  0  0  0  0  0  0  0  0  0
  149.5505  135.1659  153.5001 H   0  0  0  0  0  0  0  0  0  0  0  0
  150.0543  137.2588  153.7128 H   0  0  0  0  0  0  0  0  0  0  0  0
  149.8134  137.9083  155.3270 H   0  0  0  0  0  0  0  0  0  0  0  0
  151.8376  139.6517  154.0746 H   0  0  0  0  0  0  0  0  0  0  0  0
  147.7779  131.7239  151.4604 H   0  0  0  0  0  0  0  0  0  0  0  0
  1  2  1  0  0  0  0
  1 20  1  0  0  0  0
  1 21  1  0  0  0  0
  1 22  1  0  0  0  0
  2  7  1  0  0  0  0
  2  3  1  0  0  0  0
  2 23  1  0  0  0  0
  3  4  1  0  0  0  0
  3 24  1  0  0  0  0
  3 25  1  0  0  0  0
  4  5  1  0  0  0  0
  4 26  1  0  0  0  0
  4 27  1  0  0  0  0
  5  6  1  0  0  0  0
  5 28  1  0  0  0  0
  5 29  1  0  0  0  0
  6  7  1  0  0  0  0
  6 30  1  0  0  0  0
  6 31  1  0  0  0  0
  7  8  1  0  0  0  0
  7 42  1  0  0  0  0
  8  9  1  0  0  0  0
  8 32  1  0  0  0  0
  8 33  1  0  0  0  0
  9 10  1  0  0  0  0
  9 34  1  0  0  0  0
  9 35  1  0  0  0  0
 10 11  1  0  0  0  0
 10 36  1  0  0  0  0
 10 37  1  0  0  0  0
 11 12  1  0  0  0  0
 11 38  1  0  0  0  0
 12 13  2  0  0  0  0
 12 14  1  0  0  0  0
 14 15  1  0  0  0  0
 14 39  1  0  0  0  0
 14 40  1  0  0  0  0
 15 19  1  0  0  0  0
 15 16  1  0  0  0  0
 16 17  2  0  0  0  0
 16 41  1  0  0  0  0
 17 18  1  0  0  0  0
 18 19  2  0  0  0  0
M  CHG  1   7   1
M  END
> <s_m_source_file>
AV-unprocessed.smi

> <i_m_source_file_index>
299

> <i_lp_mmshare_version>
43012

> <i_f3d_flags>
0

> <s_epik_input>
W0NIM11bQ0BASF0xW0NIMl1bQ0gyXVtDSDJdW0NIMl1OMVtDSDJdW0NIMl1bQ0gyXVtOSF1DKD1PKVtDSDJdbjJbY0hdbm5uMg==

> <s_epik_cmdline>
J2VwaWtfcHl0aG9uJywgJy1waCcsICc3LjAnLCAnLXRuJywgJzgnLCAnLW1hJywgJzIwMCcsICctbWV0YWxfYmluZGluZycsICctaW1hZScsICc8aW5maWxlLm1hZT4nLCAnLW9tYWUnLCAnPG91dGZpbGUubWFlPic=

> <r_lp_tautomer_probability>
1

> <r_epik_Ionization_Penalty>
0.000544863

> <r_epik_Ionization_Penalty_Charging>
0.000543475

> <r_epik_Ionization_Penalty_Neutral>
1.38784e-06

> <r_epik_State_Penalty>
0.000340025

> <r_epik_Charging_Adjusted_Penalty>
0.0008835

> <i_epik_Tot_Q>
1

> <i_epik_Tot_abs_Q>
1

> <r_epik_Metal_State_Penalty>
-0

> <b_epik_Metal_Only>
0

> <s_lp_Force_Field>
OPLS_2005

> <r_lp_Energy>
22.352

> <b_lp_Chiralities_Consistent>
1

> <s_lp_Variant>
AV-unprocessed.smi:299-3

> <Gold.Version>
5.8.1

> <Gold.Id.Protein>
6NUR|6NUR_protein|mol2

> <Gold.PLP.Fitness>
47.5294

> <Gold.PLP.PLP>
-36.7173

> <Gold.PLP.part.hbond>
-5.0000

> <Gold.PLP.part.metal>
0.0000

> <Gold.PLP.part.buried>
-5.8666

> <Gold.PLP.part.nonpolar>
-26.0812

> <Gold.PLP.part.repulsive>
0.0882

> <Gold.PLP.ligand.clash>
0.0000

> <Gold.PLP.ligand.torsion>
0.3366

> <Gold.PLP.Chemscore.Hbond>
3.8000

> <Gold.PLP.Chemscore.CHOScore>
0.0000

> <Gold.PLP.Chemscore.Metal>
0.0000

> <Gold.Chemscore.Hbonds>
donor molecule, donor type, donor heavy atom, donor atom, acceptor molecule, acceptor atom, score
      L1  H     7    42       P1 10747  1.00
      L1  H    11    38       P1  7948  0.60
      P1  H  7997  8010       L1    17  0.65
      P1  H 10752 10765       L1    19  0.21

> <Gold.PLP.Chemscore.Internal.Correction>
0.0854

> <Gold.Rescore>
     Score         DG    S(hbond)    S(metal)    S(lipo)     H(rot)  DE(clash)    DE(int)     intcor
     12.92     -14.67       2.47        0.00      72.91       2.97       0.03       1.72       ----

> <Gold.Chemscore.Fitness>
12.9218

> <Gold.Chemscore.DG>
-14.6738

> <Gold.Chemscore.ZeroCoef>
-5.4800

> <Gold.Chemscore.Hbond>
2.4736

> <Gold.Chemscore.Metal>
0.0000

> <Gold.Chemscore.Lipo>
72.9066

> <Gold.Chemscore.Internal_Hbond>
0.0000

> <Gold.Chemscore.DEClash>
0.0280

> <Gold.Chemscore.DEInternal>
1.7241

> <Gold.Chemscore.Rot>
2.9680

> <Gold.Chemscore.Internal.Correction>
   9.000000E+99

> <Gold.Chemscore.Hbonds>
donor molecule, donor type, donor heavy atom, donor atom, acceptor molecule, acceptor atom, score
      L1  H     7    42       P1 10747  1.00
      L1  H    11    38       P1  7948  0.04
      P1  H  7997  8010       L1    17  0.42
      P1  H 10752 10765       L1    19  0.13

> <Gold.Chemscore.Hbond.Weighted>
-8.2617

> <Gold.Chemscore.Metal.Weighted>
-0.0000

> <Gold.Chemscore.Lipo.Weighted>
-8.5301

> <Gold.Chemscore.Internal_Hbond.Weighted>
0.0000

> <Gold.Chemscore.DEClash.Weighted>
0.0280

> <Gold.Chemscore.DEInternal.Weighted>
1.7241

> <Gold.Chemscore.Rot.Weighted>
7.5980

> <Gold.Chemscore.Internal.Correction.Weighted>
   9.000000E+99

> <Gold.Protein.RotatedTorsions>
[ 6907 6896 6895 6894 ] final  -14.70 input  -60.11 | X-H torsion
[ 7974 7965 7964 7962 ] final  106.17 input  175.53 | X-H torsion
[ 8008 7997 7996 7995 ] final   97.33 input   59.86 | X-H torsion
[ 10167 10162 10161 10158 ] final  129.33 input  -65.29 | X-H torsion
[ 10718 10713 10712 10709 ] final   35.04 input   66.30 | X-H torsion
[ 10763 10752 10751 10750 ] final -165.60 input  -60.55 | X-H torsion
[ 11005 11000 10999 10996 ] final  -71.42 input  -57.11 | X-H torsion

> <Gold.Protein.ActiveResidues>
 VAL166  LYS551  ARG553  GLY616  TRP617  ASP618  TYR619  PRO620  LYS621  CYS622 
 ASP623  PHE694  ASN695  SER759  ASP760  ASP761  ALA762  ILE779  LEU786  VAL792 
 PHE793  MET794  SER795  GLU796  ALA797  LYS798  CYS799  TRP800  GLU811  SER814 

> <Gold.Protein.RotatedAtoms>
  151.3353  135.0851  159.9352 H   0  0  0  0  0  0  0  0  0  0  0  0  # atno 6907 bound_to 6896
  152.5225  133.9501  159.7678 H   0  0  0  0  0  0  0  0  0  0  0  0  # atno 6908 bound_to 6896
  150.9848  133.6156  159.2747 H   0  0  0  0  0  0  0  0  0  0  0  0  # atno 6909 bound_to 6896
  145.3101  139.2543  143.3767 H   0  0  0  0  0  0  0  0  0  0  0  0  # atno 7974 bound_to 7965
  156.0890  140.3260  155.7790 H   0  0  0  0  0  0  0  0  0  0  0  0  # atno 8008 bound_to 7997
  155.5029  140.0570  157.2953 H   0  0  0  0  0  0  0  0  0  0  0  0  # atno 8009 bound_to 7997
  154.4626  140.1974  156.0220 H   0  0  0  0  0  0  0  0  0  0  0  0  # atno 8010 bound_to 7997
  139.5483  144.6792  151.4404 H   0  0  0  0  0  0  0  0  0  0  0  0  # atno 10167 bound_to 10162
  157.3178  130.7432  149.6766 H   0  0  0  0  0  0  0  0  0  0  0  0  # atno 10718 bound_to 10713
  154.6916  135.2972  154.9471 H   0  0  0  0  0  0  0  0  0  0  0  0  # atno 10763 bound_to 10752
  154.0432  135.6654  153.4796 H   0  0  0  0  0  0  0  0  0  0  0  0  # atno 10764 bound_to 10752
  153.0616  135.5112  154.8012 H   0  0  0  0  0  0  0  0  0  0  0  0  # atno 10765 bound_to 10752
  141.1592  133.6817  156.6904 H   0  0  0  0  0  0  0  0  0  0  0  0  # atno 11005 bound_to 11000
  146.3121  140.3636  142.8667 LP  0  0  0  0  0  0  0  0  0  0  0  0  # atno 17320 bound_to 7965
  144.9022  140.7657  143.5859 LP  0  0  0  0  0  0  0  0  0  0  0  0  # atno 17321 bound_to 7965
  140.6738  143.8236  150.7032 LP  0  0  0  0  0  0  0  0  0  0  0  0  # atno 17342 bound_to 10162
  140.1668  143.4228  152.2029 LP  0  0  0  0  0  0  0  0  0  0  0  0  # atno 17343 bound_to 10162
  155.9683  130.4232  150.4551 LP  0  0  0  0  0  0  0  0  0  0  0  0  # atno 17370 bound_to 10713
  157.2561  131.0557  151.2349 LP  0  0  0  0  0  0  0  0  0  0  0  0  # atno 17371 bound_to 10713
  140.3035  134.8144  157.4117 LP  0  0  0  0  0  0  0  0  0  0  0  0  # atno 17394 bound_to 11000
  140.1241  134.5181  155.8159 LP  0  0  0  0  0  0  0  0  0  0  0  0  # atno 17395 bound_to 11000

$$$$
