AV-unprocessed.smi:1434|AV-procd|sdf|5856|dock2
  -GOLD-   22720 5523D 1   1.00000     0.00000
 Structure written by MMmdl.
 44 45  0  0  0  0  0  0  0  0  3 V2000
  151.2368  138.2721  157.2263 C   0  0  0  0  0  0  0  0  0  0  0  0
  151.9556  138.3595  155.5311 S   0  0  0  0  0  0  0  0  0  0  0  0
  153.4116  138.4947  155.7072 O   0  0  0  0  0  0  0  0  0  0  0  0
  151.4810  137.1431  154.8545 O   0  0  0  0  0  0  0  0  0  0  0  0
  151.2351  139.6855  154.9231 N   0  5  0  0  0  0  0  0  0  0  0  0
  149.7986  139.9000  155.0497 C   0  0  1  0  0  0  0  0  0  0  0  0
  149.4486  141.3946  154.8269 C   0  0  0  0  0  0  0  0  0  0  0  0
  147.9253  141.6568  154.6888 C   0  0  0  0  0  0  0  0  0  0  0  0
  147.2547  140.7292  153.6494 C   0  0  0  0  0  0  0  0  0  0  0  0
  147.5815  139.3330  154.0216 N   0  0  0  0  0  0  0  0  0  0  0  0
  146.6866  138.3874  154.4165 C   0  0  0  0  0  0  0  0  0  0  0  0
  147.0114  137.3323  154.9629 O   0  0  0  0  0  0  0  0  0  0  0  0
  145.4019  138.6800  154.1565 N   0  0  0  0  0  0  0  0  0  0  0  0
  144.2726  137.8216  154.4853 C   0  0  0  0  0  0  0  0  0  0  0  0
  143.5713  137.3388  153.2083 C   0  0  0  0  0  0  0  0  0  0  0  0
  142.0630  137.3016  153.3608 C   0  0  0  0  0  0  0  0  0  0  0  0
  141.3692  136.1129  153.6759 C   0  0  0  0  0  0  0  0  0  0  0  0
  139.9658  136.1502  153.8135 C   0  0  0  0  0  0  0  0  0  0  0  0
  139.2864  137.3728  153.6327 C   0  0  0  0  0  0  0  0  0  0  0  0
  140.0292  138.5297  153.3215 C   0  0  0  0  0  0  0  0  0  0  0  0
  141.3730  138.4544  153.2003 N   0  3  0  0  0  0  0  0  0  0  0  0
  149.0382  139.0608  153.9866 C   0  0  0  0  0  0  0  0  0  0  0  0
  151.5818  137.3612  157.7142 H   0  0  0  0  0  0  0  0  0  0  0  0
  150.1493  138.2558  157.1590 H   0  0  0  0  0  0  0  0  0  0  0  0
  151.5539  139.1337  157.8127 H   0  0  0  0  0  0  0  0  0  0  0  0
  149.4306  139.6003  156.0318 H   0  0  0  0  0  0  0  0  0  0  0  0
  149.8520  142.0015  155.6379 H   0  0  0  0  0  0  0  0  0  0  0  0
  149.9373  141.7448  153.9161 H   0  0  0  0  0  0  0  0  0  0  0  0
  147.4370  141.5262  155.6566 H   0  0  0  0  0  0  0  0  0  0  0  0
  147.7610  142.6980  154.4102 H   0  0  0  0  0  0  0  0  0  0  0  0
  146.1900  140.9536  153.5923 H   0  0  0  0  0  0  0  0  0  0  0  0
  147.6534  140.9327  152.6545 H   0  0  0  0  0  0  0  0  0  0  0  0
  145.1995  139.5595  153.7039 H   0  0  0  0  0  0  0  0  0  0  0  0
  144.6200  136.9640  155.0643 H   0  0  0  0  0  0  0  0  0  0  0  0
  143.5759  138.3771  155.1149 H   0  0  0  0  0  0  0  0  0  0  0  0
  143.8262  137.9909  152.3714 H   0  0  0  0  0  0  0  0  0  0  0  0
  143.9265  136.3424  152.9412 H   0  0  0  0  0  0  0  0  0  0  0  0
  141.9036  135.1842  153.8142 H   0  0  0  0  0  0  0  0  0  0  0  0
  139.4171  135.2517  154.0559 H   0  0  0  0  0  0  0  0  0  0  0  0
  138.2118  137.4223  153.7331 H   0  0  0  0  0  0  0  0  0  0  0  0
  139.5925  139.5060  153.1680 H   0  0  0  0  0  0  0  0  0  0  0  0
  149.4056  139.3032  152.9879 H   0  0  0  0  0  0  0  0  0  0  0  0
  149.2651  138.0028  154.1274 H   0  0  0  0  0  0  0  0  0  0  0  0
  141.8899  139.3051  152.9765 H   0  0  0  0  0  0  0  0  0  0  0  0
  1  2  1  0  0  0  0
  1 23  1  0  0  0  0
  1 24  1  0  0  0  0
  1 25  1  0  0  0  0
  2  3  2  0  0  0  0
  2  4  2  0  0  0  0
  2  5  1  0  0  0  0
  5  6  1  0  0  0  0
  6 22  1  0  0  0  0
  6  7  1  0  0  0  0
  6 26  1  0  0  0  0
  7  8  1  0  0  0  0
  7 27  1  0  0  0  0
  7 28  1  0  0  0  0
  8  9  1  0  0  0  0
  8 29  1  0  0  0  0
  8 30  1  0  0  0  0
  9 10  1  0  0  0  0
  9 31  1  0  0  0  0
  9 32  1  0  0  0  0
 10 11  1  0  0  0  0
 10 22  1  0  0  0  0
 11 12  2  0  0  0  0
 11 13  1  0  0  0  0
 13 14  1  0  0  0  0
 13 33  1  0  0  0  0
 14 15  1  0  0  0  0
 14 34  1  0  0  0  0
 14 35  1  0  0  0  0
 15 16  1  0  0  0  0
 15 36  1  0  0  0  0
 15 37  1  0  0  0  0
 16 21  1  0  0  0  0
 16 17  2  0  0  0  0
 17 18  1  0  0  0  0
 17 38  1  0  0  0  0
 18 19  2  0  0  0  0
 18 39  1  0  0  0  0
 19 20  1  0  0  0  0
 19 40  1  0  0  0  0
 20 21  2  0  0  0  0
 20 41  1  0  0  0  0
 21 44  1  0  0  0  0
 22 42  1  0  0  0  0
 22 43  1  0  0  0  0
M  CHG  1   5  -1
M  CHG  1  21   1
M  END
> <s_m_source_file>
AV-unprocessed.smi

> <i_m_source_file_index>
1434

> <i_lp_mmshare_version>
43012

> <i_f3d_flags>
0

> <s_epik_input>
W0NIM11TKD1PKSg9TylbTkhdW0NAQEhdMVtDSDJdW0NIMl1bQ0gyXU4oW0NIMl0xKUMoPU8pW05IXVtDSDJdW0NIMl1jMltjSF1bY0hdW2NIXVtjSF1uMg==

> <s_epik_cmdline>
J2VwaWtfcHl0aG9uJywgJy1waCcsICc3LjAnLCAnLXRuJywgJzgnLCAnLW1hJywgJzIwMCcsICctbWV0YWxfYmluZGluZycsICctaW1hZScsICc8aW5maWxlLm1hZT4nLCAnLW9tYWUnLCAnPG91dGZpbGUubWFlPic=

> <r_epik_Ionization_Penalty>
8.07847

> <r_epik_Ionization_Penalty_Charging>
8.0784

> <r_epik_Ionization_Penalty_Neutral>
6.25603e-05

> <r_epik_State_Penalty>
8.17261

> <r_epik_Charging_Adjusted_Penalty>
16.251

> <i_epik_Tot_Q>
0

> <i_epik_Tot_abs_Q>
2

> <r_epik_Metal_State_Penalty>
4.14042

> <b_epik_Metal_Only>
1

> <s_lp_Force_Field>
OPLS_2005

> <r_lp_Energy>
28.6508

> <b_lp_Chiralities_Consistent>
1

> <s_lp_Variant>
AV-unprocessed.smi:1434-8

> <Gold.Version>
5.8.1

> <Gold.Id.Protein>
6NUR|6NUR_protein|mol2

> <Gold.PLP.Fitness>
51.6628

> <Gold.PLP.PLP>
-37.7218

> <Gold.PLP.part.hbond>
-5.5920

> <Gold.PLP.part.metal>
0.0000

> <Gold.PLP.part.buried>
-0.8418

> <Gold.PLP.part.nonpolar>
-31.3447

> <Gold.PLP.part.repulsive>
0.3309

> <Gold.PLP.ligand.clash>
0.0000

> <Gold.PLP.ligand.torsion>
1.4862

> <Gold.PLP.Chemscore.Hbond>
5.2816

> <Gold.PLP.Chemscore.CHOScore>
0.0000

> <Gold.PLP.Chemscore.Metal>
0.0000

> <Gold.Chemscore.Hbonds>
donor molecule, donor type, donor heavy atom, donor atom, acceptor molecule, acceptor atom, score
      L1  H    13    33       P1 10175  0.55
      L1  H    21    44       P1 10175  1.62
      P1  H  7989  7998       L1     5  1.00
      P1  H  7997  8008       L1     3  0.82
      P1  H 10752 10764       L1     4  0.71

> <Gold.PLP.Chemscore.Internal.Correction>
1.0685

> <Gold.Rescore>
     Score         DG    S(hbond)    S(metal)    S(lipo)     H(rot)  DE(clash)    DE(int)     intcor
     17.87     -20.02       2.93        0.00      79.31       1.77       0.67       1.48       ----

> <Gold.Chemscore.Fitness>
17.8699

> <Gold.Chemscore.DG>
-20.0164

> <Gold.Chemscore.ZeroCoef>
-5.4800

> <Gold.Chemscore.Hbond>
2.9277

> <Gold.Chemscore.Metal>
0.0000

> <Gold.Chemscore.Lipo>
79.3078

> <Gold.Chemscore.Internal_Hbond>
0.0000

> <Gold.Chemscore.DEClash>
0.6710

> <Gold.Chemscore.DEInternal>
1.4755

> <Gold.Chemscore.Rot>
1.7661

> <Gold.Chemscore.Internal.Correction>
   9.000000E+99

> <Gold.Chemscore.Hbonds>
donor molecule, donor type, donor heavy atom, donor atom, acceptor molecule, acceptor atom, score
      L1  H    13    33       P1 10175  0.55
      L1  H    21    44       P1 10175  0.65
      P1  H  7989  7998       L1     5  0.30
      P1  H  7997  8008       L1     3  0.78
      P1  H 10752 10764       L1     4  0.63

> <Gold.Chemscore.Hbond.Weighted>
-9.7785

> <Gold.Chemscore.Metal.Weighted>
-0.0000

> <Gold.Chemscore.Lipo.Weighted>
-9.2790

> <Gold.Chemscore.Internal_Hbond.Weighted>
0.0000

> <Gold.Chemscore.DEClash.Weighted>
0.6710

> <Gold.Chemscore.DEInternal.Weighted>
1.4755

> <Gold.Chemscore.Rot.Weighted>
4.5211

> <Gold.Chemscore.Internal.Correction.Weighted>
   9.000000E+99

> <Gold.Protein.RotatedTorsions>
[ 6907 6896 6895 6894 ] final  -50.00 input  -60.11 | X-H torsion
[ 7974 7965 7964 7962 ] final  165.40 input  175.53 | X-H torsion
[ 8008 7997 7996 7995 ] final  -21.02 input   59.86 | X-H torsion
[ 10167 10162 10161 10158 ] final    4.72 input  -65.29 | X-H torsion
[ 10718 10713 10712 10709 ] final -138.29 input   66.30 | X-H torsion
[ 10763 10752 10751 10750 ] final  -56.29 input  -60.55 | X-H torsion
[ 11005 11000 10999 10996 ] final  -18.36 input  -57.11 | X-H torsion

> <Gold.Protein.ActiveResidues>
 VAL166  LYS551  ARG553  GLY616  TRP617  ASP618  TYR619  PRO620  LYS621  CYS622 
 ASP623  PHE694  ASN695  SER759  ASP760  ASP761  ALA762  ILE779  LEU786  VAL792 
 PHE793  MET794  SER795  GLU796  ALA797  LYS798  CYS799  TRP800  GLU811  SER814 

> <Gold.Protein.RotatedAtoms>
  150.8749  134.8130  159.7182 H   0  0  0  0  0  0  0  0  0  0  0  0  # atno 6907 bound_to 6896
  152.4740  134.4887  159.9698 H   0  0  0  0  0  0  0  0  0  0  0  0  # atno 6908 bound_to 6896
  151.4970  133.3474  159.2898 H   0  0  0  0  0  0  0  0  0  0  0  0  # atno 6909 bound_to 6896
  144.7504  139.8465  143.6368 H   0  0  0  0  0  0  0  0  0  0  0  0  # atno 7974 bound_to 7965
  154.4732  140.2046  155.9942 H   0  0  0  0  0  0  0  0  0  0  0  0  # atno 8008 bound_to 7997
  156.1046  140.3238  155.7958 H   0  0  0  0  0  0  0  0  0  0  0  0  # atno 8009 bound_to 7997
  155.4740  140.0533  157.2966 H   0  0  0  0  0  0  0  0  0  0  0  0  # atno 8010 bound_to 7997
  140.6520  143.7521  150.7590 H   0  0  0  0  0  0  0  0  0  0  0  0  # atno 10167 bound_to 10162
  156.2977  130.7411  151.1454 H   0  0  0  0  0  0  0  0  0  0  0  0  # atno 10718 bound_to 10713
  154.2043  135.6405  153.5096 H   0  0  0  0  0  0  0  0  0  0  0  0  # atno 10763 bound_to 10752
  153.0004  135.5459  154.6282 H   0  0  0  0  0  0  0  0  0  0  0  0  # atno 10764 bound_to 10752
  154.5703  135.2916  155.0807 H   0  0  0  0  0  0  0  0  0  0  0  0  # atno 10765 bound_to 10752
  140.8260  133.8033  155.9708 H   0  0  0  0  0  0  0  0  0  0  0  0  # atno 11005 bound_to 11000
  146.1446  139.4512  143.0087 LP  0  0  0  0  0  0  0  0  0  0  0  0  # atno 17320 bound_to 7965
  145.6965  141.0149  143.1527 LP  0  0  0  0  0  0  0  0  0  0  0  0  # atno 17321 bound_to 7965
  140.1174  143.4643  152.2334 LP  0  0  0  0  0  0  0  0  0  0  0  0  # atno 17342 bound_to 10162
  139.5736  144.7476  151.3824 LP  0  0  0  0  0  0  0  0  0  0  0  0  # atno 17343 bound_to 10162
  157.7360  131.0567  150.5440 LP  0  0  0  0  0  0  0  0  0  0  0  0  # atno 17370 bound_to 10713
  156.5564  130.4244  149.6083 LP  0  0  0  0  0  0  0  0  0  0  0  0  # atno 17371 bound_to 10713
  140.9049  134.2333  157.5020 LP  0  0  0  0  0  0  0  0  0  0  0  0  # atno 17394 bound_to 11000
  139.8706  134.9723  156.4770 LP  0  0  0  0  0  0  0  0  0  0  0  0  # atno 17395 bound_to 11000

$$$$
