AV-unprocessed.smi:193|AV-procd|sdf|1517|dock2
  -GOLD-   2262019353D 1   1.00000     0.00000
 Structure written by MMmdl.
 61 65  0  0  0  0  0  0  0  0  1 V2000
  150.3460  141.3641  156.2055 C   0  0  0  0  0  0  0  0  0  0  0  0
  150.9882  140.4921  157.2948 C   0  0  1  0  0  0  0  0  0  0  0  0
  151.5382  139.1930  156.6680 C   0  0  0  0  0  0  0  0  0  0  0  0
  151.6285  138.0764  157.6132 N   0  0  0  0  0  0  0  0  0  0  0  0
  150.6403  137.1470  157.5701 C   0  0  0  0  0  0  0  0  0  0  0  0
  149.8160  136.9813  158.6395 N   0  0  0  0  0  0  0  0  0  0  0  0
  148.8632  136.0451  158.6179 C   0  0  0  0  0  0  0  0  0  0  0  0
  148.5656  135.1795  157.6470 N   0  0  0  0  0  0  0  0  0  0  0  0
  149.3840  135.3448  156.5688 C   0  0  0  0  0  0  0  0  0  0  0  0
  150.4387  136.2936  156.4491 C   0  0  0  0  0  0  0  0  0  0  0  0
  151.0521  136.1654  155.2084 N   0  0  0  0  0  0  0  0  0  0  0  0
  150.4026  135.1914  154.6315 C   0  0  0  0  0  0  0  0  0  0  0  0
  149.3802  134.6451  155.3745 N   0  0  0  0  0  0  0  0  0  0  0  0
  148.5032  133.5529  154.9793 C   0  0  0  0  0  0  0  0  0  0  0  0
  147.5124  133.9134  153.8441 C   0  0  0  0  0  0  0  0  0  0  0  0
  147.4141  135.3256  153.7835 O   0  0  0  0  0  0  0  0  0  0  0  0
  147.9759  133.3983  152.4637 C   0  0  0  0  0  0  0  0  0  0  0  0
  146.8895  133.5676  151.3863 C   0  0  0  0  0  0  0  0  0  0  0  0
  145.6837  132.9383  151.8020 O   0  0  0  0  0  0  0  0  0  0  0  0
  145.1376  133.5221  152.9783 C   0  0  0  0  0  0  0  0  0  0  0  0
  146.1134  133.3430  154.1547 C   0  0  0  0  0  0  0  0  0  0  0  0
  152.1093  138.3132  158.9737 C   0  0  0  0  0  0  0  0  0  0  0  0
  153.1760  139.4142  159.0808 C   0  0  0  0  0  0  0  0  0  0  0  0
  152.5363  140.7140  159.2766 N   0  0  0  0  0  0  0  0  0  0  0  0
  153.5022  141.6274  159.8730 C   0  0  2  0  0  0  0  0  0  0  0  0
  153.2849  142.0376  161.3125 C   0  0  0  0  0  0  0  0  0  0  0  0
  153.0638  143.0425  160.2069 C   0  0  2  0  0  0  0  0  0  0  0  0
  151.6684  143.5626  159.9174 C   0  0  0  0  0  0  0  0  0  0  0  0
  152.1045  141.2916  158.0033 C   0  0  0  0  0  0  0  0  0  0  0  0
  151.0747  141.6524  155.4471 H   0  0  0  0  0  0  0  0  0  0  0  0
  149.9254  142.2769  156.6282 H   0  0  0  0  0  0  0  0  0  0  0  0
  149.5348  140.8338  155.7055 H   0  0  0  0  0  0  0  0  0  0  0  0
  150.1999  140.2529  158.0106 H   0  0  0  0  0  0  0  0  0  0  0  0
  150.9231  138.8985  155.8162 H   0  0  0  0  0  0  0  0  0  0  0  0
  152.5268  139.3717  156.2444 H   0  0  0  0  0  0  0  0  0  0  0  0
  148.2549  135.9768  159.5076 H   0  0  0  0  0  0  0  0  0  0  0  0
  150.6494  134.8458  153.6382 H   0  0  0  0  0  0  0  0  0  0  0  0
  149.1318  132.7161  154.6720 H   0  0  0  0  0  0  0  0  0  0  0  0
  147.9606  133.2128  155.8626 H   0  0  0  0  0  0  0  0  0  0  0  0
  147.7819  135.6182  152.9636 H   0  0  0  0  0  0  0  0  0  0  0  0
  148.8863  133.9067  152.1444 H   0  0  0  0  0  0  0  0  0  0  0  0
  148.2257  132.3394  152.5411 H   0  0  0  0  0  0  0  0  0  0  0  0
  146.7075  134.6225  151.1748 H   0  0  0  0  0  0  0  0  0  0  0  0
  147.2183  133.1118  150.4522 H   0  0  0  0  0  0  0  0  0  0  0  0
  144.9156  134.5766  152.8065 H   0  0  0  0  0  0  0  0  0  0  0  0
  144.1889  133.0340  153.2035 H   0  0  0  0  0  0  0  0  0  0  0  0
  146.1985  132.2772  154.3705 H   0  0  0  0  0  0  0  0  0  0  0  0
  145.7035  133.8034  155.0547 H   0  0  0  0  0  0  0  0  0  0  0  0
  151.2708  138.5233  159.6403 H   0  0  0  0  0  0  0  0  0  0  0  0
  152.5574  137.3881  159.3358 H   0  0  0  0  0  0  0  0  0  0  0  0
  153.7670  139.1919  159.9705 H   0  0  0  0  0  0  0  0  0  0  0  0
  153.8744  139.4121  158.2427 H   0  0  0  0  0  0  0  0  0  0  0  0
  154.5467  141.5276  159.5813 H   0  0  0  0  0  0  0  0  0  0  0  0
  152.4076  141.6463  161.8247 H   0  0  0  0  0  0  0  0  0  0  0  0
  154.1674  142.1638  161.9362 H   0  0  0  0  0  0  0  0  0  0  0  0
  153.8336  143.8039  160.0958 H   0  0  0  0  0  0  0  0  0  0  0  0
  150.9165  142.7922  160.0902 H   0  0  0  0  0  0  0  0  0  0  0  0
  151.5986  143.8913  158.8806 H   0  0  0  0  0  0  0  0  0  0  0  0
  151.4455  144.4104  160.5652 H   0  0  0  0  0  0  0  0  0  0  0  0
  152.9597  141.4199  157.3375 H   0  0  0  0  0  0  0  0  0  0  0  0
  151.7283  142.2943  158.2089 H   0  0  0  0  0  0  0  0  0  0  0  0
  1  2  1  0  0  0  0
  1 30  1  0  0  0  0
  1 31  1  0  0  0  0
  1 32  1  0  0  0  0
  2 29  1  0  0  0  0
  2  3  1  0  0  0  0
  2 33  1  0  0  0  0
  3  4  1  0  0  0  0
  3 34  1  0  0  0  0
  3 35  1  0  0  0  0
  4  5  1  0  0  0  0
  4 22  1  0  0  0  0
  5 10  1  0  0  0  0
  5  6  2  0  0  0  0
  6  7  1  0  0  0  0
  7  8  2  0  0  0  0
  7 36  1  0  0  0  0
  8  9  1  0  0  0  0
  9 13  1  0  0  0  0
  9 10  2  0  0  0  0
 10 11  1  0  0  0  0
 11 12  2  0  0  0  0
 12 13  1  0  0  0  0
 12 37  1  0  0  0  0
 13 14  1  0  0  0  0
 14 15  1  0  0  0  0
 14 38  1  0  0  0  0
 14 39  1  0  0  0  0
 15 21  1  0  0  0  0
 15 16  1  0  0  0  0
 15 17  1  0  0  0  0
 16 40  1  0  0  0  0
 17 18  1  0  0  0  0
 17 41  1  0  0  0  0
 17 42  1  0  0  0  0
 18 19  1  0  0  0  0
 18 43  1  0  0  0  0
 18 44  1  0  0  0  0
 19 20  1  0  0  0  0
 20 21  1  0  0  0  0
 20 45  1  0  0  0  0
 20 46  1  0  0  0  0
 21 47  1  0  0  0  0
 21 48  1  0  0  0  0
 22 23  1  0  0  0  0
 22 49  1  0  0  0  0
 22 50  1  0  0  0  0
 23 24  1  0  0  0  0
 23 51  1  0  0  0  0
 23 52  1  0  0  0  0
 24 25  1  0  0  0  0
 24 29  1  0  0  0  0
 25 27  1  0  0  0  0
 25 26  1  0  0  0  0
 25 53  1  0  0  0  0
 26 27  1  0  0  0  0
 26 54  1  0  0  0  0
 26 55  1  0  0  0  0
 27 28  1  0  0  0  0
 27 56  1  0  0  0  0
 28 57  1  0  0  0  0
 28 58  1  0  0  0  0
 28 59  1  0  0  0  0
 29 60  1  0  0  0  0
 29 61  1  0  0  0  0
M  END
> <s_m_source_file>
AV-unprocessed.smi

> <i_m_source_file_index>
193

> <i_lp_mmshare_version>
43012

> <i_f3d_flags>
0

> <s_epik_input>
W0NIM11bQ0BASF0xW0NIMl1bQ0BIXTFOKFtDSDJdMilbQ0gyXVtDSDJdTihbQ0gyXVtDQEhdMltDSDNdKWMobltjSF1uMyljKGMzNCluW2NIXW40W0NIMl1DNShbT0hdKVtDSDJdW0NIMl1PW0NIMl1bQ0gyXTU=

> <s_epik_cmdline>
J2VwaWtfcHl0aG9uJywgJy1waCcsICc3LjAnLCAnLXRuJywgJzgnLCAnLW1hJywgJzIwMCcsICctbWV0YWxfYmluZGluZycsICctaW1hZScsICc8aW5maWxlLm1hZT4nLCAnLW9tYWUnLCAnPG91dGZpbGUubWFlPic=

> <r_lp_tautomer_probability>
1

> <r_epik_Ionization_Penalty>
1.45227

> <r_epik_Ionization_Penalty_Charging>
0

> <r_epik_Ionization_Penalty_Neutral>
1.45227

> <r_epik_State_Penalty>
2.02377

> <r_epik_Charging_Adjusted_Penalty>
2.02377

> <i_epik_Tot_Q>
0

> <i_epik_Tot_abs_Q>
0

> <r_epik_Metal_State_Penalty>
2.01937

> <b_epik_Metal_Only>
0

> <s_lp_Force_Field>
OPLS_2005

> <r_lp_Energy>
53.149

> <b_lp_Chiralities_Consistent>
1

> <s_lp_Variant>
AV-unprocessed.smi:193-22

> <Gold.Version>
5.8.1

> <Gold.Id.Protein>
6NUR|6NUR_protein|mol2

> <Gold.PLP.Fitness>
46.3720

> <Gold.PLP.PLP>
-42.1849

> <Gold.PLP.part.hbond>
-1.9881

> <Gold.PLP.part.metal>
0.0000

> <Gold.PLP.part.buried>
-6.5585

> <Gold.PLP.part.nonpolar>
-33.6974

> <Gold.PLP.part.repulsive>
0.2308

> <Gold.PLP.ligand.clash>
0.0000

> <Gold.PLP.ligand.torsion>
2.0565

> <Gold.PLP.Chemscore.Hbond>
1.9417

> <Gold.PLP.Chemscore.CHOScore>
0.2525

> <Gold.PLP.Chemscore.Metal>
0.0000

> <Gold.Chemscore.Hbonds>
donor molecule, donor type, donor heavy atom, donor atom, acceptor molecule, acceptor atom, score
      L1  H    16    40       P1  7948  1.00
      P1  H 10752 10765       L1    11  0.79
      L1  C    12    37       P1  7949  0.27

> <Gold.PLP.Chemscore.Internal.Correction>
1.7174

> <Gold.Rescore>
     Score         DG    S(hbond)    S(metal)    S(lipo)     H(rot)  DE(clash)    DE(int)     intcor
     16.25     -18.21       1.67        0.00     108.53       2.17       0.03       1.93       ----

> <Gold.Chemscore.Fitness>
16.2499

> <Gold.Chemscore.DG>
-18.2112

> <Gold.Chemscore.ZeroCoef>
-5.4800

> <Gold.Chemscore.Hbond>
1.6705

> <Gold.Chemscore.Metal>
0.0000

> <Gold.Chemscore.Lipo>
108.5273

> <Gold.Chemscore.Internal_Hbond>
0.0000

> <Gold.Chemscore.DEClash>
0.0348

> <Gold.Chemscore.DEInternal>
1.9266

> <Gold.Chemscore.Rot>
2.1664

> <Gold.Chemscore.Internal.Correction>
   9.000000E+99

> <Gold.Chemscore.Hbonds>
donor molecule, donor type, donor heavy atom, donor atom, acceptor molecule, acceptor atom, score
      L1  H    16    40       P1  7948  0.99
      P1  H 10752 10765       L1    11  0.13

> <Gold.Chemscore.Hbond.Weighted>
-5.5795

> <Gold.Chemscore.Metal.Weighted>
-0.0000

> <Gold.Chemscore.Lipo.Weighted>
-12.6977

> <Gold.Chemscore.Internal_Hbond.Weighted>
0.0000

> <Gold.Chemscore.DEClash.Weighted>
0.0348

> <Gold.Chemscore.DEInternal.Weighted>
1.9266

> <Gold.Chemscore.Rot.Weighted>
5.5459

> <Gold.Chemscore.Internal.Correction.Weighted>
   9.000000E+99

> <Gold.Protein.RotatedTorsions>
[ 6907 6896 6895 6894 ] final -120.96 input  -60.11 | X-H torsion
[ 7974 7965 7964 7962 ] final  -21.93 input  175.53 | X-H torsion
[ 8008 7997 7996 7995 ] final -173.85 input   59.86 | X-H torsion
[ 10167 10162 10161 10158 ] final -130.29 input  -65.29 | X-H torsion
[ 10718 10713 10712 10709 ] final  165.01 input   66.30 | X-H torsion
[ 10763 10752 10751 10750 ] final -174.05 input  -60.55 | X-H torsion
[ 11005 11000 10999 10996 ] final -116.66 input  -57.11 | X-H torsion

> <Gold.Protein.ActiveResidues>
 VAL166  LYS551  ARG553  GLY616  TRP617  ASP618  TYR619  PRO620  LYS621  CYS622 
 ASP623  PHE694  ASN695  SER759  ASP760  ASP761  ALA762  ILE779  LEU786  VAL792 
 PHE793  MET794  SER795  GLU796  ALA797  LYS798  CYS799  TRP800  GLU811  SER814 

> <Gold.Protein.RotatedAtoms>
  150.8440  133.7891  159.3049 H   0  0  0  0  0  0  0  0  0  0  0  0  # atno 6907 bound_to 6896
  151.5583  135.1064  159.9976 H   0  0  0  0  0  0  0  0  0  0  0  0  # atno 6908 bound_to 6896
  152.4498  133.7564  159.6778 H   0  0  0  0  0  0  0  0  0  0  0  0  # atno 6909 bound_to 6896
  146.1705  140.4409  142.8534 H   0  0  0  0  0  0  0  0  0  0  0  0  # atno 7974 bound_to 7965
  155.9626  140.1147  157.0882 H   0  0  0  0  0  0  0  0  0  0  0  0  # atno 8008 bound_to 7997
  154.4136  140.1179  156.5266 H   0  0  0  0  0  0  0  0  0  0  0  0  # atno 8009 bound_to 7997
  155.6700  140.3473  155.4817 H   0  0  0  0  0  0  0  0  0  0  0  0  # atno 8010 bound_to 7997
  139.9309  143.6273  152.2530 H   0  0  0  0  0  0  0  0  0  0  0  0  # atno 10167 bound_to 10162
  157.0863  131.0405  151.2555 H   0  0  0  0  0  0  0  0  0  0  0  0  # atno 10718 bound_to 10713
  154.6007  135.2854  155.0538 H   0  0  0  0  0  0  0  0  0  0  0  0  # atno 10763 bound_to 10752
  154.1804  135.6457  153.5036 H   0  0  0  0  0  0  0  0  0  0  0  0  # atno 10764 bound_to 10752
  153.0156  135.5422  154.6725 H   0  0  0  0  0  0  0  0  0  0  0  0  # atno 10765 bound_to 10752
  141.0407  133.9840  157.2999 H   0  0  0  0  0  0  0  0  0  0  0  0  # atno 11005 bound_to 11000
  144.8155  140.6461  143.6387 LP  0  0  0  0  0  0  0  0  0  0  0  0  # atno 17320 bound_to 7965
  145.4354  139.1543  143.4000 LP  0  0  0  0  0  0  0  0  0  0  0  0  # atno 17321 bound_to 7965
  139.6783  144.7657  151.1655 LP  0  0  0  0  0  0  0  0  0  0  0  0  # atno 17342 bound_to 10162
  140.7637  143.5762  150.8943 LP  0  0  0  0  0  0  0  0  0  0  0  0  # atno 17343 bound_to 10162
  157.4759  130.7736  149.7367 LP  0  0  0  0  0  0  0  0  0  0  0  0  # atno 17370 bound_to 10713
  155.9910  130.3941  150.3004 LP  0  0  0  0  0  0  0  0  0  0  0  0  # atno 17371 bound_to 10713
  139.9273  135.0201  156.8280 LP  0  0  0  0  0  0  0  0  0  0  0  0  # atno 17394 bound_to 11000
  140.6240  133.9967  155.7631 LP  0  0  0  0  0  0  0  0  0  0  0  0  # atno 17395 bound_to 11000

$$$$
