AV-unprocessed.smi:72|AV-procd|sdf|682|dock9
  -GOLD-   2262016593D 1   1.00000     0.00000
 Structure written by MMmdl.
 29 30  0  0  0  0  0  0  0  0  1 V2000
  146.9151  130.9114  148.2313 N   0  0  0  0  0  0  0  0  0  0  0  0
  146.1731  131.7131  148.9073 C   0  0  0  0  0  0  0  0  0  0  0  0
  144.8783  132.1176  148.5491 N   0  0  0  0  0  0  0  0  0  0  0  0
  144.2448  132.9345  149.3334 C   0  0  0  0  0  0  0  0  0  0  0  0
  144.8346  133.4469  150.5605 N   0  0  0  0  0  0  0  0  0  0  0  0
  144.0666  134.3949  151.4579 C   0  0  1  0  0  0  0  0  0  0  0  0
  144.1654  133.9478  152.7777 O   0  0  0  0  0  0  0  0  0  0  0  0
  144.3440  135.0643  153.6406 C   0  0  1  0  0  0  0  0  0  0  0  0
  144.9351  134.6269  154.9926 C   0  0  0  0  0  0  0  0  0  0  0  0
  145.0022  133.2185  155.0660 O   0  0  0  0  0  0  0  0  0  0  0  0
  145.1697  136.0529  152.8036 C   0  0  1  0  0  0  0  0  0  0  0  0
  146.5538  135.7544  152.8749 O   0  0  0  0  0  0  0  0  0  0  0  0
  144.5929  135.8463  151.4053 C   0  0  1  0  0  0  0  0  0  0  0  0
  145.5123  136.1348  150.3649 O   0  0  0  0  0  0  0  0  0  0  0  0
  146.1372  133.0398  150.9409 C   0  0  0  0  0  0  0  0  0  0  0  0
  146.6767  133.4233  151.9786 O   0  0  0  0  0  0  0  0  0  0  0  0
  146.7530  132.1918  150.0890 N   0  0  0  0  0  0  0  0  0  0  0  0
  143.0190  134.3243  151.1627 H   0  0  0  0  0  0  0  0  0  0  0  0
  143.3543  135.4938  153.8086 H   0  0  0  0  0  0  0  0  0  0  0  0
  145.0307  137.0793  153.1451 H   0  0  0  0  0  0  0  0  0  0  0  0
  143.7242  136.4946  151.2828 H   0  0  0  0  0  0  0  0  0  0  0  0
  147.7998  130.7796  148.7006 H   0  0  0  0  0  0  0  0  0  0  0  0
  143.2342  133.2875  149.1252 H   0  0  0  0  0  0  0  0  0  0  0  0
  145.9446  135.0242  155.1013 H   0  0  0  0  0  0  0  0  0  0  0  0
  144.3528  135.0127  155.8297 H   0  0  0  0  0  0  0  0  0  0  0  0
  144.1220  132.8747  155.0509 H   0  0  0  0  0  0  0  0  0  0  0  0
  146.9923  136.2029  152.1681 H   0  0  0  0  0  0  0  0  0  0  0  0
  146.3796  135.9012  150.6580 H   0  0  0  0  0  0  0  0  0  0  0  0
  147.6832  131.8807  150.3282 H   0  0  0  0  0  0  0  0  0  0  0  0
  1  2  2  0  0  0  0
  1 22  1  0  0  0  0
  2 17  1  0  0  0  0
  2  3  1  0  0  0  0
  3  4  2  0  0  0  0
  4  5  1  0  0  0  0
  4 23  1  0  0  0  0
  5  6  1  0  0  0  0
  5 15  1  0  0  0  0
  6 18  1  0  0  0  0
  6 13  1  0  0  0  0
  6  7  1  0  0  0  0
  7  8  1  0  0  0  0
  8 19  1  0  0  0  0
  8  9  1  0  0  0  0
  8 11  1  0  0  0  0
  9 10  1  0  0  0  0
  9 24  1  0  0  0  0
  9 25  1  0  0  0  0
 10 26  1  0  0  0  0
 11 20  1  0  0  0  0
 11 12  1  0  0  0  0
 11 13  1  0  0  0  0
 12 27  1  0  0  0  0
 13 21  1  0  0  0  0
 13 14  1  0  0  0  0
 14 28  1  0  0  0  0
 15 16  2  0  0  0  0
 15 17  1  0  0  0  0
 17 29  1  0  0  0  0
M  END
> <s_m_source_file>
AV-unprocessed.smi

> <i_m_source_file_index>
72

> <i_lp_mmshare_version>
43012

> <i_f3d_flags>
0

> <s_epik_input>
W05IMl1jMW5bY0hdbihjKD1PKW4xKVtDQEBIXTJPW0NASF0oW0NIMl1bT0hdKVtDQEBIXShbT0hdKVtDQEhdMltPSF0=

> <s_epik_cmdline>
J2VwaWtfcHl0aG9uJywgJy1waCcsICc3LjAnLCAnLXRuJywgJzgnLCAnLW1hJywgJzIwMCcsICctbWV0YWxfYmluZGluZycsICctaW1hZScsICc8aW5maWxlLm1hZT4nLCAnLW9tYWUnLCAnPG91dGZpbGUubWFlPic=

> <r_lp_tautomer_probability>
7.17554e-07

> <r_epik_Ionization_Penalty>
0.0066451

> <r_epik_Ionization_Penalty_Charging>
0.00663793

> <r_epik_Ionization_Penalty_Neutral>
7.17052e-06

> <r_epik_State_Penalty>
0.419231

> <r_epik_Charging_Adjusted_Penalty>
0.425868

> <i_epik_Tot_Q>
0

> <i_epik_Tot_abs_Q>
0

> <r_epik_Metal_State_Penalty>
1.44144

> <b_epik_Metal_Only>
0

> <s_epik_Chemistry_Notes>
This compound contains an acetal/aminal-like group ( X-CH(R)-Y where X, Y are N, S, or O) that may be acid/base labile, releasing an aldehyde.

> <s_lp_Force_Field>
OPLS_2005

> <r_lp_Energy>
48.5612

> <b_lp_Chiralities_Consistent>
1

> <s_lp_Variant>
AV-unprocessed.smi:72-20

> <Gold.Version>
5.8.1

> <Gold.Id.Protein>
6NUR|6NUR_protein|mol2

> <Gold.PLP.Fitness>
36.2852

> <Gold.PLP.PLP>
-24.0317

> <Gold.PLP.part.hbond>
-9.8510

> <Gold.PLP.part.metal>
0.0000

> <Gold.PLP.part.buried>
-0.1465

> <Gold.PLP.part.nonpolar>
-15.2502

> <Gold.PLP.part.repulsive>
0.8390

> <Gold.PLP.ligand.clash>
0.0000

> <Gold.PLP.ligand.torsion>
1.0276

> <Gold.PLP.Chemscore.Hbond>
3.7692

> <Gold.PLP.Chemscore.CHOScore>
0.9998

> <Gold.PLP.Chemscore.Metal>
0.0000

> <Gold.Chemscore.Hbonds>
donor molecule, donor type, donor heavy atom, donor atom, acceptor molecule, acceptor atom, score
      L1  H     1    22       P1 10747  1.00
      L1  H    10    26       P1 10957  1.00
      L1  H    12    27       P1  7948  0.53
      L1  H    17    29       P1 10747  1.00
      P1  H 10777 10791       L1     1  0.20
      L1  C     4    23       P1 10186  1.00

> <Gold.PLP.Chemscore.Internal.Correction>
0.0015

> <Gold.Rescore>
     Score         DG    S(hbond)    S(metal)    S(lipo)     H(rot)  DE(clash)    DE(int)     intcor
      5.47     -10.33       4.20        0.00      10.33       4.06       0.62       4.25       ----

> <Gold.Chemscore.Fitness>
5.4658

> <Gold.Chemscore.DG>
-10.3326

> <Gold.Chemscore.ZeroCoef>
-5.4800

> <Gold.Chemscore.Hbond>
4.2028

> <Gold.Chemscore.Metal>
0.0000

> <Gold.Chemscore.Lipo>
10.3308

> <Gold.Chemscore.Internal_Hbond>
0.0000

> <Gold.Chemscore.DEClash>
0.6213

> <Gold.Chemscore.DEInternal>
4.2455

> <Gold.Chemscore.Rot>
4.0600

> <Gold.Chemscore.Internal.Correction>
   9.000000E+99

> <Gold.Chemscore.Hbonds>
donor molecule, donor type, donor heavy atom, donor atom, acceptor molecule, acceptor atom, score
      L1  H     1    22       P1 10747  0.84
      L1  H    10    26       P1 10957  1.00
      L1  H    12    27       P1  7948  0.51
      L1  H    17    29       P1 10747  0.98

> <Gold.Chemscore.Hbond.Weighted>
-14.0375

> <Gold.Chemscore.Metal.Weighted>
-0.0000

> <Gold.Chemscore.Lipo.Weighted>
-1.2087

> <Gold.Chemscore.Internal_Hbond.Weighted>
0.0000

> <Gold.Chemscore.DEClash.Weighted>
0.6213

> <Gold.Chemscore.DEInternal.Weighted>
4.2455

> <Gold.Chemscore.Rot.Weighted>
10.3936

> <Gold.Chemscore.Internal.Correction.Weighted>
   9.000000E+99

> <Gold.Protein.RotatedTorsions>
[ 6907 6896 6895 6894 ] final  156.18 input  -60.11 | X-H torsion
[ 7974 7965 7964 7962 ] final  -65.67 input  175.53 | X-H torsion
[ 8008 7997 7996 7995 ] final  -14.63 input   59.86 | X-H torsion
[ 10167 10162 10161 10158 ] final    3.98 input  -65.29 | X-H torsion
[ 10718 10713 10712 10709 ] final  -25.67 input   66.30 | X-H torsion
[ 10763 10752 10751 10750 ] final   43.42 input  -60.55 | X-H torsion
[ 11005 11000 10999 10996 ] final   -2.70 input  -57.11 | X-H torsion

> <Gold.Protein.ActiveResidues>
 VAL166  LYS551  ARG553  GLY616  TRP617  ASP618  TYR619  PRO620  LYS621  CYS622 
 ASP623  PHE694  ASN695  SER759  ASP760  ASP761  ALA762  ILE779  LEU786  VAL792 
 PHE793  MET794  SER795  GLU796  ALA797  LYS798  CYS799  TRP800  GLU811  SER814 

> <Gold.Protein.RotatedAtoms>
  152.0335  133.3947  159.4306 H   0  0  0  0  0  0  0  0  0  0  0  0  # atno 6907 bound_to 6896
  150.6880  134.3495  159.4912 H   0  0  0  0  0  0  0  0  0  0  0  0  # atno 6908 bound_to 6896
  152.1284  134.9153  160.0610 H   0  0  0  0  0  0  0  0  0  0  0  0  # atno 6909 bound_to 6896
  145.7514  140.8906  143.0478 H   0  0  0  0  0  0  0  0  0  0  0  0  # atno 7974 bound_to 7965
  154.5195  140.2218  155.9003 H   0  0  0  0  0  0  0  0  0  0  0  0  # atno 8008 bound_to 7997
  156.1645  140.3135  155.8830 H   0  0  0  0  0  0  0  0  0  0  0  0  # atno 8009 bound_to 7997
  155.3684  140.0465  157.3036 H   0  0  0  0  0  0  0  0  0  0  0  0  # atno 8010 bound_to 7997
  140.6558  143.7430  150.7652 H   0  0  0  0  0  0  0  0  0  0  0  0  # atno 10167 bound_to 10162
  156.4613  130.4504  149.6927 H   0  0  0  0  0  0  0  0  0  0  0  0  # atno 10718 bound_to 10713
  152.9861  135.6102  154.3109 H   0  0  0  0  0  0  0  0  0  0  0  0  # atno 10763 bound_to 10752
  154.2825  135.2776  155.2693 H   0  0  0  0  0  0  0  0  0  0  0  0  # atno 10764 bound_to 10752
  154.5025  135.5863  153.6599 H   0  0  0  0  0  0  0  0  0  0  0  0  # atno 10765 bound_to 10752
  140.6612  133.9318  155.8437 H   0  0  0  0  0  0  0  0  0  0  0  0  # atno 11005 bound_to 11000
  144.6849  139.9597  143.7480 LP  0  0  0  0  0  0  0  0  0  0  0  0  # atno 17320 bound_to 7965
  146.0353  139.3371  143.0730 LP  0  0  0  0  0  0  0  0  0  0  0  0  # atno 17321 bound_to 7965
  140.1090  143.4717  152.2381 LP  0  0  0  0  0  0  0  0  0  0  0  0  # atno 17342 bound_to 10162
  139.5781  144.7497  151.3712 LP  0  0  0  0  0  0  0  0  0  0  0  0  # atno 17343 bound_to 10162
  156.3714  130.7532  151.2516 LP  0  0  0  0  0  0  0  0  0  0  0  0  # atno 17370 bound_to 10713
  157.7497  131.0322  150.4216 LP  0  0  0  0  0  0  0  0  0  0  0  0  # atno 17371 bound_to 10713
  141.0463  134.0549  157.3839 LP  0  0  0  0  0  0  0  0  0  0  0  0  # atno 17394 bound_to 11000
  139.9012  135.0165  156.7278 LP  0  0  0  0  0  0  0  0  0  0  0  0  # atno 17395 bound_to 11000

$$$$
