AV-unprocessed.smi:3105|AV-procd|sdf|11819|dock3
  -GOLD-   2272017193D 1   1.00000     0.00000
 Structure written by MMmdl.
 34 34  0  0  0  0  0  0  0  0  2 V2000
  152.2275  144.7274  157.5042 C   0  0  0  0  0  0  0  0  0  0  0  0
  151.6179  143.4322  158.0755 C   0  0  2  0  0  0  0  0  0  0  0  0
  150.4562  143.0174  157.2541 N   0  3  0  0  0  0  0  0  0  0  0  0
  150.7153  141.9273  156.2875 C   0  0  0  0  0  0  0  0  0  0  0  0
  149.4141  141.2265  155.8494 C   0  0  0  0  0  0  0  0  0  0  0  0
  149.5196  140.4518  154.5283 C   0  0  0  0  0  0  0  0  0  0  0  0
  148.5633  140.6800  153.6254 N   0  0  0  0  0  0  0  0  0  0  0  0
  150.4405  139.6640  154.3179 O   0  0  0  0  0  0  0  0  0  0  0  0
  151.1838  143.5873  159.5594 C   0  0  2  0  0  0  0  0  0  0  0  0
  150.8780  145.0436  159.9567 C   0  0  0  0  0  0  0  0  0  0  0  0
  152.1759  143.0345  160.4759 N   0  0  0  0  0  0  0  0  0  0  0  0
  153.3700  142.4161  160.1666 C   0  0  0  0  0  0  0  0  0  0  0  0
  153.9555  142.0445  161.3428 C   0  0  0  0  0  0  0  0  0  0  0  0
  153.0274  142.4715  162.3325 C   0  0  0  0  0  0  0  0  0  0  0  0
  151.9635  143.0603  161.8116 N   0  0  0  0  0  0  0  0  0  0  0  0
  153.1325  145.0156  158.0377 H   0  0  0  0  0  0  0  0  0  0  0  0
  151.5239  145.5579  157.5671 H   0  0  0  0  0  0  0  0  0  0  0  0
  152.5109  144.6149  156.4581 H   0  0  0  0  0  0  0  0  0  0  0  0
  152.3716  142.6450  158.0205 H   0  0  0  0  0  0  0  0  0  0  0  0
  149.7414  142.6877  157.8874 H   0  0  0  0  0  0  0  0  0  0  0  0
  151.2413  142.3116  155.4135 H   0  0  0  0  0  0  0  0  0  0  0  0
  151.3764  141.1963  156.7541 H   0  0  0  0  0  0  0  0  0  0  0  0
  149.1118  140.5237  156.6270 H   0  0  0  0  0  0  0  0  0  0  0  0
  148.6094  141.9585  155.7662 H   0  0  0  0  0  0  0  0  0  0  0  0
  148.5817  140.2042  152.7348 H   0  0  0  0  0  0  0  0  0  0  0  0
  147.8232  141.3353  153.8341 H   0  0  0  0  0  0  0  0  0  0  0  0
  150.2688  143.0105  159.7035 H   0  0  0  0  0  0  0  0  0  0  0  0
  150.0174  145.4390  159.4181 H   0  0  0  0  0  0  0  0  0  0  0  0
  151.7276  145.6980  159.7592 H   0  0  0  0  0  0  0  0  0  0  0  0
  150.6451  145.1164  161.0196 H   0  0  0  0  0  0  0  0  0  0  0  0
  153.7017  142.2928  159.1460 H   0  0  0  0  0  0  0  0  0  0  0  0
  154.9000  141.5382  161.4759 H   0  0  0  0  0  0  0  0  0  0  0  0
  153.0940  142.3702  163.4058 H   0  0  0  0  0  0  0  0  0  0  0  0
  150.1000  143.8233  156.7598 H   0  0  0  0  0  0  0  0  0  0  0  0
  1  2  1  0  0  0  0
  1 16  1  0  0  0  0
  1 17  1  0  0  0  0
  1 18  1  0  0  0  0
  2  3  1  0  0  0  0
  2  9  1  0  0  0  0
  2 19  1  0  0  0  0
  3  4  1  0  0  0  0
  3 20  1  0  0  0  0
  3 34  1  0  0  0  0
  4  5  1  0  0  0  0
  4 21  1  0  0  0  0
  4 22  1  0  0  0  0
  5  6  1  0  0  0  0
  5 23  1  0  0  0  0
  5 24  1  0  0  0  0
  6  7  1  0  0  0  0
  6  8  2  0  0  0  0
  7 25  1  0  0  0  0
  7 26  1  0  0  0  0
  9 10  1  0  0  0  0
  9 11  1  0  0  0  0
  9 27  1  0  0  0  0
 10 28  1  0  0  0  0
 10 29  1  0  0  0  0
 10 30  1  0  0  0  0
 11 15  1  0  0  0  0
 11 12  1  0  0  0  0
 12 13  2  0  0  0  0
 12 31  1  0  0  0  0
 13 14  1  0  0  0  0
 13 32  1  0  0  0  0
 14 15  2  0  0  0  0
 14 33  1  0  0  0  0
M  CHG  1   3   1
M  END
> <s_m_source_file>
AV-unprocessed.smi

> <i_m_source_file_index>
3105

> <i_lp_mmshare_version>
43012

> <i_f3d_flags>
0

> <s_epik_input>
W05IMl1DKD1PKVtDSDJdW0NIMl1bTkhdW0NAQEhdKFtDSDNdKVtDQEhdKFtDSDNdKW4xW2NIXVtjSF1bY0hdbjE=

> <s_epik_cmdline>
J2VwaWtfcHl0aG9uJywgJy1waCcsICc3LjAnLCAnLXRuJywgJzgnLCAnLW1hJywgJzIwMCcsICctbWV0YWxfYmluZGluZycsICctaW1hZScsICc8aW5maWxlLm1hZT4nLCAnLW9tYWUnLCAnPG91dGZpbGUubWFlPic=

> <r_lp_tautomer_probability>
1

> <r_epik_Ionization_Penalty>
0.00475669

> <r_epik_Ionization_Penalty_Charging>
0.00474654

> <r_epik_Ionization_Penalty_Neutral>
1.01546e-05

> <r_epik_State_Penalty>
-0

> <r_epik_Charging_Adjusted_Penalty>
0.00474654

> <i_epik_Tot_Q>
1

> <i_epik_Tot_abs_Q>
1

> <r_epik_Metal_State_Penalty>
-0

> <b_epik_Metal_Only>
0

> <s_lp_Force_Field>
OPLS_2005

> <r_lp_Energy>
5.41696

> <b_lp_Chiralities_Consistent>
1

> <s_lp_Variant>
AV-unprocessed.smi:3105-1

> <Gold.Version>
5.8.1

> <Gold.Id.Protein>
6NUR|6NUR_protein|mol2

> <Gold.PLP.Fitness>
49.1942

> <Gold.PLP.PLP>
-40.4015

> <Gold.PLP.part.hbond>
-3.9005

> <Gold.PLP.part.metal>
0.0000

> <Gold.PLP.part.buried>
-6.0250

> <Gold.PLP.part.nonpolar>
-31.7719

> <Gold.PLP.part.repulsive>
0.4959

> <Gold.PLP.ligand.clash>
0.0000

> <Gold.PLP.ligand.torsion>
2.0339

> <Gold.PLP.Chemscore.Hbond>
4.2268

> <Gold.PLP.Chemscore.CHOScore>
0.0000

> <Gold.PLP.Chemscore.Metal>
0.0000

> <Gold.Chemscore.Hbonds>
donor molecule, donor type, donor heavy atom, donor atom, acceptor molecule, acceptor atom, score
      L1  H     3    34       P1  8028  2.00
      L1  H     7    25       P1  7957  0.85
      P1  H  6933  6945       L1    15  0.15
      P1  H  7989  7998       L1     8  0.90

> <Gold.PLP.Chemscore.Internal.Correction>
0.1800

> <Gold.Rescore>
     Score         DG    S(hbond)    S(metal)    S(lipo)     H(rot)  DE(clash)    DE(int)     intcor
     17.32     -19.45       3.17        0.00      91.34       2.85       0.10       2.03       ----

> <Gold.Chemscore.Fitness>
17.3222

> <Gold.Chemscore.DG>
-19.4533

> <Gold.Chemscore.ZeroCoef>
-5.4800

> <Gold.Chemscore.Hbond>
3.1662

> <Gold.Chemscore.Metal>
0.0000

> <Gold.Chemscore.Lipo>
91.3440

> <Gold.Chemscore.Internal_Hbond>
0.0000

> <Gold.Chemscore.DEClash>
0.1015

> <Gold.Chemscore.DEInternal>
2.0296

> <Gold.Chemscore.Rot>
2.8473

> <Gold.Chemscore.Internal.Correction>
   9.000000E+99

> <Gold.Chemscore.Hbonds>
donor molecule, donor type, donor heavy atom, donor atom, acceptor molecule, acceptor atom, score
      L1  H     3    34       P1  8028  0.98
      L1  H     7    25       P1  7957  0.83
      P1  H  6933  6945       L1    15  0.07
      P1  H  7989  7998       L1     8  0.18

> <Gold.Chemscore.Hbond.Weighted>
-10.5752

> <Gold.Chemscore.Metal.Weighted>
-0.0000

> <Gold.Chemscore.Lipo.Weighted>
-10.6873

> <Gold.Chemscore.Internal_Hbond.Weighted>
0.0000

> <Gold.Chemscore.DEClash.Weighted>
0.1015

> <Gold.Chemscore.DEInternal.Weighted>
2.0296

> <Gold.Chemscore.Rot.Weighted>
7.2892

> <Gold.Chemscore.Internal.Correction.Weighted>
   9.000000E+99

> <Gold.Protein.RotatedTorsions>
[ 6907 6896 6895 6894 ] final  120.00 input  -60.11 | X-H torsion
[ 7974 7965 7964 7962 ] final -163.62 input  175.53 | X-H torsion
[ 8008 7997 7996 7995 ] final  -61.81 input   59.86 | X-H torsion
[ 10167 10162 10161 10158 ] final  124.53 input  -65.29 | X-H torsion
[ 10718 10713 10712 10709 ] final   13.72 input   66.30 | X-H torsion
[ 10763 10752 10751 10750 ] final  -73.15 input  -60.55 | X-H torsion
[ 11005 11000 10999 10996 ] final   -1.91 input  -57.11 | X-H torsion

> <Gold.Protein.ActiveResidues>
 VAL166  LYS551  ARG553  GLY616  TRP617  ASP618  TYR619  PRO620  LYS621  CYS622 
 ASP623  PHE694  ASN695  SER759  ASP760  ASP761  ALA762  ILE779  LEU786  VAL792 
 PHE793  MET794  SER795  GLU796  ALA797  LYS798  CYS799  TRP800  GLU811  SER814 

> <Gold.Protein.RotatedAtoms>
  152.4431  133.7485  159.6680 H   0  0  0  0  0  0  0  0  0  0  0  0  # atno 6907 bound_to 6896
  150.8325  133.8057  159.3099 H   0  0  0  0  0  0  0  0  0  0  0  0  # atno 6908 bound_to 6896
  151.5707  135.1065  160.0046 H   0  0  0  0  0  0  0  0  0  0  0  0  # atno 6909 bound_to 6896
  144.7320  140.3080  143.6193 H   0  0  0  0  0  0  0  0  0  0  0  0  # atno 7974 bound_to 7965
  154.4467  140.1010  156.6488 H   0  0  0  0  0  0  0  0  0  0  0  0  # atno 8008 bound_to 7997
  155.5420  140.3484  155.4430 H   0  0  0  0  0  0  0  0  0  0  0  0  # atno 8009 bound_to 7997
  156.0590  140.1322  156.9952 H   0  0  0  0  0  0  0  0  0  0  0  0  # atno 8010 bound_to 7997
  139.5736  144.6952  151.3712 H   0  0  0  0  0  0  0  0  0  0  0  0  # atno 10167 bound_to 10162
  157.0287  130.6184  149.5732 H   0  0  0  0  0  0  0  0  0  0  0  0  # atno 10718 bound_to 10713
  154.4555  135.5907  153.6220 H   0  0  0  0  0  0  0  0  0  0  0  0  # atno 10763 bound_to 10752
  152.9818  135.6031  154.3551 H   0  0  0  0  0  0  0  0  0  0  0  0  # atno 10764 bound_to 10752
  154.3417  135.2841  155.2398 H   0  0  0  0  0  0  0  0  0  0  0  0  # atno 10765 bound_to 10752
  140.6525  133.9391  155.8389 H   0  0  0  0  0  0  0  0  0  0  0  0  # atno 11005 bound_to 11000
  145.7693  139.1851  143.2221 LP  0  0  0  0  0  0  0  0  0  0  0  0  # atno 17320 bound_to 7965
  146.0923  140.7641  142.9589 LP  0  0  0  0  0  0  0  0  0  0  0  0  # atno 17321 bound_to 7965
  140.7020  143.7608  150.7418 LP  0  0  0  0  0  0  0  0  0  0  0  0  # atno 17342 bound_to 10162
  140.1122  143.4689  152.2363 LP  0  0  0  0  0  0  0  0  0  0  0  0  # atno 17343 bound_to 10162
  156.0077  130.5165  150.7885 LP  0  0  0  0  0  0  0  0  0  0  0  0  # atno 17370 bound_to 10713
  157.5194  131.0930  151.0098 LP  0  0  0  0  0  0  0  0  0  0  0  0  # atno 17371 bound_to 10713
  141.0526  134.0463  157.3764 LP  0  0  0  0  0  0  0  0  0  0  0  0  # atno 17394 bound_to 11000
  139.9041  135.0174  156.7404 LP  0  0  0  0  0  0  0  0  0  0  0  0  # atno 17395 bound_to 11000

$$$$
