AV-unprocessed.smi:99|AV-procd|sdf|893|dock3
  -GOLD-   2262017383D 1   1.00000     0.00000
 Structure written by MMmdl.
 52 55  0  0  0  0  0  0  0  0  2 V2000
  145.3766  134.3334  154.3385 O   0  0  0  0  0  0  0  0  0  0  0  0
  145.9944  133.6085  153.5557 C   0  0  0  0  0  0  0  0  0  0  0  0
  147.2276  133.1245  153.8031 O   0  0  0  0  0  0  0  0  0  0  0  0
  148.0783  133.7921  154.7204 C   0  0  0  0  0  0  0  0  0  0  0  0
  149.5397  133.4073  154.4314 C   0  0  2  0  0  0  0  0  0  0  0  0
  149.7294  132.0470  154.8227 O   0  0  0  0  0  0  0  0  0  0  0  0
  150.4181  131.9514  156.0410 C   0  0  1  0  0  0  0  0  0  0  0  0
  151.7366  131.2435  155.8144 N   0  0  0  0  0  0  0  0  0  0  0  0
  152.9036  131.7003  156.4045 C   0  0  0  0  0  0  0  0  0  0  0  0
  154.0794  131.0659  156.2190 C   0  0  0  0  0  0  0  0  0  0  0  0
  154.1250  129.8715  155.3811 C   0  0  0  0  0  0  0  0  0  0  0  0
  155.2031  129.3066  155.2079 O   0  0  0  0  0  0  0  0  0  0  0  0
  152.9593  129.4319  154.8255 N   0  5  0  0  0  0  0  0  0  0  0  0
  151.7666  130.0667  155.0175 C   0  0  0  0  0  0  0  0  0  0  0  0
  150.7059  129.6652  154.5384 O   0  0  0  0  0  0  0  0  0  0  0  0
  150.6693  133.3741  156.5580 C   0  0  2  0  0  0  0  0  0  0  0  0
  149.6862  133.7375  157.5089 O   0  0  0  0  0  0  0  0  0  0  0  0
  150.5726  134.1691  155.2642 C   0  0  2  0  0  0  0  0  0  0  0  0
  150.2907  135.5516  155.4507 O   0  0  0  0  0  0  0  0  0  0  0  0
  151.1892  136.3710  156.0366 C   0  0  0  0  0  0  0  0  0  0  0  0
  152.1827  135.9734  156.6480 O   0  0  0  0  0  0  0  0  0  0  0  0
  150.8507  137.8130  155.8649 C   0  0  0  0  0  0  0  0  0  0  0  0
  151.6459  138.7932  156.5034 C   0  0  0  0  0  0  0  0  0  0  0  0
  151.3514  140.1626  156.3567 C   0  0  0  0  0  0  0  0  0  0  0  0
  150.2580  140.5683  155.5696 C   0  0  0  0  0  0  0  0  0  0  0  0
  149.4584  139.6030  154.9305 C   0  0  0  0  0  0  0  0  0  0  0  0
  149.7511  138.2332  155.0762 C   0  0  0  0  0  0  0  0  0  0  0  0
  145.4515  133.1731  152.2362 C   0  0  0  0  0  0  0  0  0  0  0  0
  146.3436  132.7266  151.2332 C   0  0  0  0  0  0  0  0  0  0  0  0
  145.8614  132.3113  149.9766 C   0  0  0  0  0  0  0  0  0  0  0  0
  144.4806  132.3355  149.7082 C   0  0  0  0  0  0  0  0  0  0  0  0
  143.5826  132.7762  150.6977 C   0  0  0  0  0  0  0  0  0  0  0  0
  144.0632  133.1933  151.9545 C   0  0  0  0  0  0  0  0  0  0  0  0
  147.9390  134.8669  154.5976 H   0  0  0  0  0  0  0  0  0  0  0  0
  147.8052  133.5397  155.7455 H   0  0  0  0  0  0  0  0  0  0  0  0
  149.7498  133.5325  153.3688 H   0  0  0  0  0  0  0  0  0  0  0  0
  149.8519  131.3161  156.7242 H   0  0  0  0  0  0  0  0  0  0  0  0
  152.8865  132.5773  157.0336 H   0  0  0  0  0  0  0  0  0  0  0  0
  154.9792  131.4346  156.6890 H   0  0  0  0  0  0  0  0  0  0  0  0
  151.6518  133.4626  157.0235 H   0  0  0  0  0  0  0  0  0  0  0  0
  148.8538  133.3905  157.2276 H   0  0  0  0  0  0  0  0  0  0  0  0
  151.5246  134.0706  154.7395 H   0  0  0  0  0  0  0  0  0  0  0  0
  152.4907  138.5051  157.1124 H   0  0  0  0  0  0  0  0  0  0  0  0
  151.9663  140.9019  156.8487 H   0  0  0  0  0  0  0  0  0  0  0  0
  150.0321  141.6184  155.4562 H   0  0  0  0  0  0  0  0  0  0  0  0
  148.6182  139.9127  154.3267 H   0  0  0  0  0  0  0  0  0  0  0  0
  149.1166  137.5188  154.5724 H   0  0  0  0  0  0  0  0  0  0  0  0
  147.4084  132.6991  151.4159 H   0  0  0  0  0  0  0  0  0  0  0  0
  146.5523  131.9742  149.2179 H   0  0  0  0  0  0  0  0  0  0  0  0
  144.1109  132.0164  148.7448 H   0  0  0  0  0  0  0  0  0  0  0  0
  142.5223  132.7946  150.4930 H   0  0  0  0  0  0  0  0  0  0  0  0
  143.3466  133.5255  152.6916 H   0  0  0  0  0  0  0  0  0  0  0  0
  1  2  2  0  0  0  0
  2  3  1  0  0  0  0
  2 28  1  0  0  0  0
  3  4  1  0  0  0  0
  4  5  1  0  0  0  0
  4 34  1  0  0  0  0
  4 35  1  0  0  0  0
  5 18  1  0  0  0  0
  5  6  1  0  0  0  0
  5 36  1  0  0  0  0
  6  7  1  0  0  0  0
  7  8  1  0  0  0  0
  7 16  1  0  0  0  0
  7 37  1  0  0  0  0
  8 14  1  0  0  0  0
  8  9  1  0  0  0  0
  9 10  2  0  0  0  0
  9 38  1  0  0  0  0
 10 11  1  0  0  0  0
 10 39  1  0  0  0  0
 11 12  2  0  0  0  0
 11 13  1  0  0  0  0
 13 14  1  0  0  0  0
 14 15  2  0  0  0  0
 16 17  1  0  0  0  0
 16 18  1  0  0  0  0
 16 40  1  0  0  0  0
 17 41  1  0  0  0  0
 18 19  1  0  0  0  0
 18 42  1  0  0  0  0
 19 20  1  0  0  0  0
 20 21  2  0  0  0  0
 20 22  1  0  0  0  0
 22 27  1  0  0  0  0
 22 23  2  0  0  0  0
 23 24  1  0  0  0  0
 23 43  1  0  0  0  0
 24 25  2  0  0  0  0
 24 44  1  0  0  0  0
 25 26  1  0  0  0  0
 25 45  1  0  0  0  0
 26 27  2  0  0  0  0
 26 46  1  0  0  0  0
 27 47  1  0  0  0  0
 28 33  1  0  0  0  0
 28 29  2  0  0  0  0
 29 30  1  0  0  0  0
 29 48  1  0  0  0  0
 30 31  2  0  0  0  0
 30 49  1  0  0  0  0
 31 32  1  0  0  0  0
 31 50  1  0  0  0  0
 32 33  2  0  0  0  0
 32 51  1  0  0  0  0
 33 52  1  0  0  0  0
M  CHG  1  13  -1
M  END
> <s_m_source_file>
AV-unprocessed.smi

> <i_m_source_file_index>
99

> <i_lp_mmshare_version>
43012

> <i_f3d_flags>
0

> <s_epik_input>
W2NIXTFbY0hdW2NIXVtjSF1bY0hdYzFDKD1PKU9bQ0gyXVtDQEBIXTJPW0NAQEhdKG4zW2NIXVtjSF1jKD1PKVtuSF1jMz1PKVtDQEBIXShbT0hdKVtDQEhdMk9DKD1PKWM0W2NIXVtjSF1bY0hdW2NIXVtjSF00

> <s_epik_cmdline>
J2VwaWtfcHl0aG9uJywgJy1waCcsICc3LjAnLCAnLXRuJywgJzgnLCAnLW1hJywgJzIwMCcsICctbWV0YWxfYmluZGluZycsICctaW1hZScsICc8aW5maWxlLm1hZT4nLCAnLW9tYWUnLCAnPG91dGZpbGUubWFlPic=

> <r_lp_tautomer_probability>
1

> <r_epik_Ionization_Penalty>
2.89159

> <r_epik_Ionization_Penalty_Charging>
2.1077e-08

> <r_epik_Ionization_Penalty_Neutral>
2.89159

> <r_epik_State_Penalty>
2.88671

> <r_epik_Charging_Adjusted_Penalty>
2.88671

> <i_epik_Tot_Q>
-1

> <i_epik_Tot_abs_Q>
1

> <r_epik_Metal_State_Penalty>
0.0727308

> <b_epik_Metal_Only>
1

> <s_epik_Chemistry_Notes>
This compound has an ester and may undergo hydrolysis at high or low pH. This compound contains an acetal/aminal-like group ( X-CH(R)-Y where X, Y are N, S, or O) that may be acid/base labile, releasing an aldehyde.

> <s_lp_Force_Field>
OPLS_2005

> <r_lp_Energy>
46.9153

> <b_lp_Chiralities_Consistent>
1

> <s_lp_Variant>
AV-unprocessed.smi:99-29

> <Gold.Version>
5.8.1

> <Gold.Id.Protein>
6NUR|6NUR_protein|mol2

> <Gold.PLP.Fitness>
52.1342

> <Gold.PLP.PLP>
-48.9173

> <Gold.PLP.part.hbond>
-1.9549

> <Gold.PLP.part.metal>
0.0000

> <Gold.PLP.part.buried>
-7.0397

> <Gold.PLP.part.nonpolar>
-40.5081

> <Gold.PLP.part.repulsive>
0.4235

> <Gold.PLP.ligand.clash>
0.0000

> <Gold.PLP.ligand.torsion>
1.2868

> <Gold.PLP.Chemscore.Hbond>
1.8613

> <Gold.PLP.Chemscore.CHOScore>
0.0000

> <Gold.PLP.Chemscore.Metal>
0.0000

> <Gold.Chemscore.Hbonds>
donor molecule, donor type, donor heavy atom, donor atom, acceptor molecule, acceptor atom, score
      P1  H  6896  6907       L1    17  0.93
      P1  H 10752 10765       L1    21  1.00

> <Gold.PLP.Chemscore.Internal.Correction>
0.2066

> <Gold.Rescore>
     Score         DG    S(hbond)    S(metal)    S(lipo)     H(rot)  DE(clash)    DE(int)     intcor
     12.13     -14.64       1.08        0.00     116.14       3.13       0.24       2.28       ----

> <Gold.Chemscore.Fitness>
12.1255

> <Gold.Chemscore.DG>
-14.6437

> <Gold.Chemscore.ZeroCoef>
-5.4800

> <Gold.Chemscore.Hbond>
1.0777

> <Gold.Chemscore.Metal>
0.0000

> <Gold.Chemscore.Lipo>
116.1435

> <Gold.Chemscore.Internal_Hbond>
0.0000

> <Gold.Chemscore.DEClash>
0.2374

> <Gold.Chemscore.DEInternal>
2.2808

> <Gold.Chemscore.Rot>
3.1346

> <Gold.Chemscore.Internal.Correction>
   9.000000E+99

> <Gold.Chemscore.Hbonds>
donor molecule, donor type, donor heavy atom, donor atom, acceptor molecule, acceptor atom, score
      P1  H  6896  6907       L1    17  0.35
      P1  H 10752 10765       L1    21  0.59

> <Gold.Chemscore.Hbond.Weighted>
-3.5995

> <Gold.Chemscore.Metal.Weighted>
-0.0000

> <Gold.Chemscore.Lipo.Weighted>
-13.5888

> <Gold.Chemscore.Internal_Hbond.Weighted>
0.0000

> <Gold.Chemscore.DEClash.Weighted>
0.2374

> <Gold.Chemscore.DEInternal.Weighted>
2.2808

> <Gold.Chemscore.Rot.Weighted>
8.0246

> <Gold.Chemscore.Internal.Correction.Weighted>
   9.000000E+99

> <Gold.Protein.RotatedTorsions>
[ 6907 6896 6895 6894 ] final -116.03 input  -60.11 | X-H torsion
[ 7974 7965 7964 7962 ] final -129.70 input  175.53 | X-H torsion
[ 8008 7997 7996 7995 ] final  -31.09 input   59.86 | X-H torsion
[ 10167 10162 10161 10158 ] final  117.39 input  -65.29 | X-H torsion
[ 10718 10713 10712 10709 ] final -118.13 input   66.30 | X-H torsion
[ 10763 10752 10751 10750 ] final -123.48 input  -60.55 | X-H torsion
[ 11005 11000 10999 10996 ] final   93.64 input  -57.11 | X-H torsion

> <Gold.Protein.ActiveResidues>
 VAL166  LYS551  ARG553  GLY616  TRP617  ASP618  TYR619  PRO620  LYS621  CYS622 
 ASP623  PHE694  ASN695  SER759  ASP760  ASP761  ALA762  ILE779  LEU786  VAL792 
 PHE793  MET794  SER795  GLU796  ALA797  LYS798  CYS799  TRP800  GLU811  SER814 

> <Gold.Protein.RotatedAtoms>
  150.8023  133.8575  159.3222 H   0  0  0  0  0  0  0  0  0  0  0  0  # atno 6907 bound_to 6896
  151.6384  135.1014  160.0145 H   0  0  0  0  0  0  0  0  0  0  0  0  # atno 6908 bound_to 6896
  152.4112  133.6926  159.6434 H   0  0  0  0  0  0  0  0  0  0  0  0  # atno 6909 bound_to 6896
  144.9547  140.7382  143.4766 H   0  0  0  0  0  0  0  0  0  0  0  0  # atno 7974 bound_to 7965
  154.4226  140.1774  156.1510 H   0  0  0  0  0  0  0  0  0  0  0  0  # atno 8008 bound_to 7997
  155.9915  140.3368  155.6733 H   0  0  0  0  0  0  0  0  0  0  0  0  # atno 8009 bound_to 7997
  155.6366  140.0675  157.2622 H   0  0  0  0  0  0  0  0  0  0  0  0  # atno 8010 bound_to 7997
  139.6182  144.7096  151.2693 H   0  0  0  0  0  0  0  0  0  0  0  0  # atno 10167 bound_to 10162
  156.1084  130.6229  150.9252 H   0  0  0  0  0  0  0  0  0  0  0  0  # atno 10718 bound_to 10713
  154.8708  135.4097  154.2950 H   0  0  0  0  0  0  0  0  0  0  0  0  # atno 10763 bound_to 10752
  153.3820  135.7012  153.6564 H   0  0  0  0  0  0  0  0  0  0  0  0  # atno 10764 bound_to 10752
  153.5382  135.3653  155.2678 H   0  0  0  0  0  0  0  0  0  0  0  0  # atno 10765 bound_to 10752
  139.8807  134.8801  156.3748 H   0  0  0  0  0  0  0  0  0  0  0  0  # atno 11005 bound_to 11000
  145.2791  139.1925  143.4801 LP  0  0  0  0  0  0  0  0  0  0  0  0  # atno 17320 bound_to 7965
  146.3333  140.2750  142.8607 LP  0  0  0  0  0  0  0  0  0  0  0  0  # atno 17321 bound_to 7965
  140.7365  143.6707  150.8084 LP  0  0  0  0  0  0  0  0  0  0  0  0  # atno 17342 bound_to 10162
  140.0313  143.5441  152.2759 LP  0  0  0  0  0  0  0  0  0  0  0  0  # atno 17343 bound_to 10162
  157.6263  131.0925  150.8527 LP  0  0  0  0  0  0  0  0  0  0  0  0  # atno 17370 bound_to 10713
  156.8642  130.5123  149.5301 LP  0  0  0  0  0  0  0  0  0  0  0  0  # atno 17371 bound_to 10713
  140.9439  133.7496  156.0183 LP  0  0  0  0  0  0  0  0  0  0  0  0  # atno 17394 bound_to 11000
  140.8186  134.3315  157.5389 LP  0  0  0  0  0  0  0  0  0  0  0  0  # atno 17395 bound_to 11000

$$$$
