AV-unprocessed.smi:3080|AV-procd|sdf|11739|dock5
  -GOLD-   2272017133D 1   1.00000     0.00000
 Structure written by MMmdl.
 26 27  0  0  0  0  0  0  0  0  1 V2000
  150.8543  137.6618  154.8585 C   0  0  0  0  0  0  0  0  0  0  0  0
  151.0768  138.0108  156.2045 C   0  0  0  0  0  0  0  0  0  0  0  0
  150.9287  139.3573  156.5895 C   0  0  0  0  0  0  0  0  0  0  0  0
  150.5615  140.3013  155.6065 C   0  0  0  0  0  0  0  0  0  0  0  0
  150.3901  141.7655  155.9643 C   0  0  0  0  0  0  0  0  0  0  0  0
  150.1951  141.9751  157.4724 C   0  0  0  0  0  0  0  0  0  0  0  0
  150.4441  143.3667  157.8105 N   0  0  0  0  0  0  0  0  0  0  0  0
  151.8742  143.6014  157.8481 C   0  0  0  0  0  0  0  0  0  0  0  0
  152.5891  143.3681  159.1597 C   0  0  0  0  0  0  0  0  0  0  0  0
  152.3561  144.7754  158.6682 C   0  0  0  0  0  0  0  0  0  0  0  0
  150.3498  139.9739  154.3116 N   0  0  0  0  0  0  0  0  0  0  0  0
  150.4938  138.6796  153.9531 C   0  0  0  0  0  0  0  0  0  0  0  0
  150.9577  136.6390  154.5275 H   0  0  0  0  0  0  0  0  0  0  0  0
  151.3558  137.2594  156.9285 H   0  0  0  0  0  0  0  0  0  0  0  0
  151.0943  139.6560  157.6142 H   0  0  0  0  0  0  0  0  0  0  0  0
  151.2654  142.3173  155.6180 H   0  0  0  0  0  0  0  0  0  0  0  0
  149.5370  142.1690  155.4169 H   0  0  0  0  0  0  0  0  0  0  0  0
  149.1783  141.7038  157.7596 H   0  0  0  0  0  0  0  0  0  0  0  0
  150.8774  141.3344  158.0329 H   0  0  0  0  0  0  0  0  0  0  0  0
  150.0155  143.9592  157.1138 H   0  0  0  0  0  0  0  0  0  0  0  0
  152.4568  143.3968  156.9516 H   0  0  0  0  0  0  0  0  0  0  0  0
  151.9990  143.0293  160.0092 H   0  0  0  0  0  0  0  0  0  0  0  0
  153.6054  142.9823  159.1149 H   0  0  0  0  0  0  0  0  0  0  0  0
  153.2175  145.3267  158.2968 H   0  0  0  0  0  0  0  0  0  0  0  0
  151.6132  145.3724  159.1940 H   0  0  0  0  0  0  0  0  0  0  0  0
  150.3160  138.4483  152.9133 H   0  0  0  0  0  0  0  0  0  0  0  0
  1 12  1  0  0  0  0
  1  2  2  0  0  0  0
  1 13  1  0  0  0  0
  2  3  1  0  0  0  0
  2 14  1  0  0  0  0
  3  4  2  0  0  0  0
  3 15  1  0  0  0  0
  4  5  1  0  0  0  0
  4 11  1  0  0  0  0
  5  6  1  0  0  0  0
  5 16  1  0  0  0  0
  5 17  1  0  0  0  0
  6  7  1  0  0  0  0
  6 18  1  0  0  0  0
  6 19  1  0  0  0  0
  7  8  1  0  0  0  0
  7 20  1  0  0  0  0
  8 10  1  0  0  0  0
  8  9  1  0  0  0  0
  8 21  1  0  0  0  0
  9 10  1  0  0  0  0
  9 22  1  0  0  0  0
  9 23  1  0  0  0  0
 10 24  1  0  0  0  0
 10 25  1  0  0  0  0
 11 12  2  0  0  0  0
 12 26  1  0  0  0  0
M  END
> <s_m_source_file>
AV-unprocessed.smi

> <i_m_source_file_index>
3080

> <i_lp_mmshare_version>
43012

> <i_f3d_flags>
0

> <s_epik_input>
bjFbY0hdW2NIXVtjSF1bY0hdYzFbQ0gyXVtDSDJdW05IXVtDSF0yW0NIMl1bQ0gyXTI=

> <s_epik_cmdline>
J2VwaWtfcHl0aG9uJywgJy1waCcsICc3LjAnLCAnLXRuJywgJzgnLCAnLW1hJywgJzIwMCcsICctbWV0YWxfYmluZGluZycsICctaW1hZScsICc8aW5maWxlLm1hZT4nLCAnLW9tYWUnLCAnPG91dGZpbGUubWFlPic=

> <r_epik_Ionization_Penalty>
2.01082

> <r_epik_Ionization_Penalty_Charging>
0

> <r_epik_Ionization_Penalty_Neutral>
2.01082

> <r_epik_State_Penalty>
2.54051

> <r_epik_Charging_Adjusted_Penalty>
2.54051

> <i_epik_Tot_Q>
0

> <i_epik_Tot_abs_Q>
0

> <r_epik_Metal_State_Penalty>
2.42451

> <b_epik_Metal_Only>
0

> <s_lp_Force_Field>
OPLS_2005

> <r_lp_Energy>
10.6122

> <b_lp_Chiralities_Consistent>
1

> <s_lp_Variant>
AV-unprocessed.smi:3080-2

> <Gold.Version>
5.8.1

> <Gold.Id.Protein>
6NUR|6NUR_protein|mol2

> <Gold.PLP.Fitness>
37.7366

> <Gold.PLP.PLP>
-28.1924

> <Gold.PLP.part.hbond>
-2.0000

> <Gold.PLP.part.metal>
0.0000

> <Gold.PLP.part.buried>
-4.3257

> <Gold.PLP.part.nonpolar>
-23.2486

> <Gold.PLP.part.repulsive>
0.1219

> <Gold.PLP.ligand.clash>
0.0000

> <Gold.PLP.ligand.torsion>
0.7010

> <Gold.PLP.Chemscore.Hbond>
1.9000

> <Gold.PLP.Chemscore.CHOScore>
1.5511

> <Gold.PLP.Chemscore.Metal>
0.0000

> <Gold.Chemscore.Hbonds>
donor molecule, donor type, donor heavy atom, donor atom, acceptor molecule, acceptor atom, score
      L1  H     7    20       P1  8028  1.00
      P1  H  7989  7998       L1    11  1.00
      L1  C    12    26       P1  7948  0.38
      L1  C    12    26       P1  7957  0.95

> <Gold.PLP.Chemscore.Internal.Correction>
0.5930

> <Gold.Rescore>
     Score         DG    S(hbond)    S(metal)    S(lipo)     H(rot)  DE(clash)    DE(int)     intcor
     16.56     -17.34       1.74        0.00      80.70       1.33       0.30       0.48       ----

> <Gold.Chemscore.Fitness>
16.5564

> <Gold.Chemscore.DG>
-17.3372

> <Gold.Chemscore.ZeroCoef>
-5.4800

> <Gold.Chemscore.Hbond>
1.7441

> <Gold.Chemscore.Metal>
0.0000

> <Gold.Chemscore.Lipo>
80.6965

> <Gold.Chemscore.Internal_Hbond>
0.0000

> <Gold.Chemscore.DEClash>
0.2993

> <Gold.Chemscore.DEInternal>
0.4815

> <Gold.Chemscore.Rot>
1.3319

> <Gold.Chemscore.Internal.Correction>
   9.000000E+99

> <Gold.Chemscore.Hbonds>
donor molecule, donor type, donor heavy atom, donor atom, acceptor molecule, acceptor atom, score
      L1  H     7    20       P1  8028  0.89
      P1  H  7989  7998       L1    11  0.24

> <Gold.Chemscore.Hbond.Weighted>
-5.8253

> <Gold.Chemscore.Metal.Weighted>
-0.0000

> <Gold.Chemscore.Lipo.Weighted>
-9.4415

> <Gold.Chemscore.Internal_Hbond.Weighted>
0.0000

> <Gold.Chemscore.DEClash.Weighted>
0.2993

> <Gold.Chemscore.DEInternal.Weighted>
0.4815

> <Gold.Chemscore.Rot.Weighted>
3.4095

> <Gold.Chemscore.Internal.Correction.Weighted>
   9.000000E+99

> <Gold.Protein.RotatedTorsions>
[ 6907 6896 6895 6894 ] final  -55.85 input  -60.11 | X-H torsion
[ 7974 7965 7964 7962 ] final  113.92 input  175.53 | X-H torsion
[ 8008 7997 7996 7995 ] final   97.72 input   59.86 | X-H torsion
[ 10167 10162 10161 10158 ] final   98.27 input  -65.29 | X-H torsion
[ 10718 10713 10712 10709 ] final  -70.31 input   66.30 | X-H torsion
[ 10763 10752 10751 10750 ] final   51.46 input  -60.55 | X-H torsion
[ 11005 11000 10999 10996 ] final -127.26 input  -57.11 | X-H torsion

> <Gold.Protein.ActiveResidues>
 VAL166  LYS551  ARG553  GLY616  TRP617  ASP618  TYR619  PRO620  LYS621  CYS622 
 ASP623  PHE694  ASN695  SER759  ASP760  ASP761  ALA762  ILE779  LEU786  VAL792 
 PHE793  MET794  SER795  GLU796  ALA797  LYS798  CYS799  TRP800  GLU811  SER814 

> <Gold.Protein.RotatedAtoms>
  150.8217  134.7427  159.6777 H   0  0  0  0  0  0  0  0  0  0  0  0  # atno 6907 bound_to 6896
  152.4332  134.5735  159.9937 H   0  0  0  0  0  0  0  0  0  0  0  0  # atno 6908 bound_to 6896
  151.5917  133.3328  159.3065 H   0  0  0  0  0  0  0  0  0  0  0  0  # atno 6909 bound_to 6896
  145.2108  139.2907  143.4269 H   0  0  0  0  0  0  0  0  0  0  0  0  # atno 7974 bound_to 7965
  156.0930  140.3254  155.7841 H   0  0  0  0  0  0  0  0  0  0  0  0  # atno 8008 bound_to 7997
  155.4965  140.0565  157.2963 H   0  0  0  0  0  0  0  0  0  0  0  0  # atno 8009 bound_to 7997
  154.4649  140.1984  156.0160 H   0  0  0  0  0  0  0  0  0  0  0  0  # atno 8010 bound_to 7997
  139.7724  144.6918  151.0138 H   0  0  0  0  0  0  0  0  0  0  0  0  # atno 10167 bound_to 10162
  156.0414  130.4329  150.2276 H   0  0  0  0  0  0  0  0  0  0  0  0  # atno 10718 bound_to 10713
  152.9785  135.5845  154.4419 H   0  0  0  0  0  0  0  0  0  0  0  0  # atno 10763 bound_to 10752
  154.4019  135.2769  155.2093 H   0  0  0  0  0  0  0  0  0  0  0  0  # atno 10764 bound_to 10752
  154.3920  135.6123  153.5902 H   0  0  0  0  0  0  0  0  0  0  0  0  # atno 10765 bound_to 10752
  140.9614  134.0931  157.3964 H   0  0  0  0  0  0  0  0  0  0  0  0  # atno 11005 bound_to 11000
  146.3398  140.2384  142.8595 LP  0  0  0  0  0  0  0  0  0  0  0  0  # atno 17320 bound_to 7965
  144.9857  140.8501  143.5370 LP  0  0  0  0  0  0  0  0  0  0  0  0  # atno 17321 bound_to 7965
  140.7814  143.4574  151.0326 LP  0  0  0  0  0  0  0  0  0  0  0  0  # atno 17342 bound_to 10162
  139.8257  143.7759  152.3178 LP  0  0  0  0  0  0  0  0  0  0  0  0  # atno 17343 bound_to 10162
  157.0371  131.0024  151.3295 LP  0  0  0  0  0  0  0  0  0  0  0  0  # atno 17370 bound_to 10713
  157.5236  130.8014  149.7837 LP  0  0  0  0  0  0  0  0  0  0  0  0  # atno 17371 bound_to 10713
  139.8879  135.0094  156.6590 LP  0  0  0  0  0  0  0  0  0  0  0  0  # atno 17394 bound_to 11000
  140.7462  133.8936  155.8314 LP  0  0  0  0  0  0  0  0  0  0  0  0  # atno 17395 bound_to 11000

$$$$
