AV-unprocessed.smi:2252|AV-procd|sdf|9105|dock7
  -GOLD-   2272012303D 1   1.00000     0.00000
 Structure written by MMmdl.
 45 47  0  0  0  0  0  0  0  0  2 V2000
  151.9423  144.3119  157.3877 C   0  0  0  0  0  0  0  0  0  0  0  0
  152.0734  143.4178  158.5220 N   0  0  0  0  0  0  0  0  0  0  0  0
  152.3654  143.7930  159.8267 C   0  0  0  0  0  0  0  0  0  0  0  0
  152.3894  142.6394  160.5727 C   0  0  0  0  0  0  0  0  0  0  0  0
  152.1161  141.5524  159.7494 N   0  0  0  0  0  0  0  0  0  0  0  0
  151.9428  142.0772  158.5402 C   0  0  0  0  0  0  0  0  0  0  0  0
  151.6057  141.2674  157.3274 C   0  0  0  0  0  0  0  0  0  0  0  0
  150.2547  141.6695  156.7126 C   0  0  0  0  0  0  0  0  0  0  0  0
  149.9675  140.9177  155.4968 N   0  0  0  0  0  0  0  0  0  0  0  0
  148.7416  140.5591  155.0850 C   0  0  0  0  0  0  0  0  0  0  0  0
  147.7128  140.8392  155.7008 O   0  0  0  0  0  0  0  0  0  0  0  0
  148.6592  139.7731  153.7680 C   0  0  2  0  0  0  0  0  0  0  0  0
  147.1879  139.7432  153.3019 C   0  0  0  0  0  0  0  0  0  0  0  0
  146.4748  138.4351  153.0361 C   0  0  0  0  0  0  0  0  0  0  0  0
  146.8299  139.3425  151.8863 C   0  0  0  0  0  0  0  0  0  0  0  0
  149.2134  138.3970  153.9152 N   0  3  0  0  0  0  0  0  0  0  0  0
  150.6699  138.3248  154.1581 C   0  0  0  0  0  0  0  0  0  0  0  0
  150.9348  136.9398  154.7570 C   0  0  0  0  0  0  0  0  0  0  0  0
  149.5725  136.4318  155.2398 C   0  0  0  0  0  0  0  0  0  0  0  0
  148.5988  137.5837  154.9872 C   0  0  0  0  0  0  0  0  0  0  0  0
  151.9925  145.3496  157.7185 H   0  0  0  0  0  0  0  0  0  0  0  0
  150.9852  144.1468  156.8923 H   0  0  0  0  0  0  0  0  0  0  0  0
  152.7508  144.1285  156.6796 H   0  0  0  0  0  0  0  0  0  0  0  0
  152.5260  144.8228  160.1100 H   0  0  0  0  0  0  0  0  0  0  0  0
  152.5795  142.5085  161.6277 H   0  0  0  0  0  0  0  0  0  0  0  0
  152.4022  141.3623  156.5891 H   0  0  0  0  0  0  0  0  0  0  0  0
  151.5879  140.2163  157.6183 H   0  0  0  0  0  0  0  0  0  0  0  0
  149.4481  141.5314  157.4349 H   0  0  0  0  0  0  0  0  0  0  0  0
  150.2643  142.7296  156.4577 H   0  0  0  0  0  0  0  0  0  0  0  0
  150.7586  140.6577  154.9253 H   0  0  0  0  0  0  0  0  0  0  0  0
  149.2543  140.2957  153.0162 H   0  0  0  0  0  0  0  0  0  0  0  0
  146.5793  140.5412  153.7247 H   0  0  0  0  0  0  0  0  0  0  0  0
  147.0438  137.5132  153.1391 H   0  0  0  0  0  0  0  0  0  0  0  0
  145.4269  138.3698  153.3214 H   0  0  0  0  0  0  0  0  0  0  0  0
  146.0184  139.8813  151.4015 H   0  0  0  0  0  0  0  0  0  0  0  0
  147.6348  139.0223  151.2274 H   0  0  0  0  0  0  0  0  0  0  0  0
  151.2418  138.4926  153.2448 H   0  0  0  0  0  0  0  0  0  0  0  0
  150.9560  139.0909  154.8805 H   0  0  0  0  0  0  0  0  0  0  0  0
  151.3381  136.2650  154.0012 H   0  0  0  0  0  0  0  0  0  0  0  0
  151.6608  136.9944  155.5692 H   0  0  0  0  0  0  0  0  0  0  0  0
  149.2776  135.5590  154.6562 H   0  0  0  0  0  0  0  0  0  0  0  0
  149.5873  136.1360  156.2893 H   0  0  0  0  0  0  0  0  0  0  0  0
  148.5034  138.1856  155.8926 H   0  0  0  0  0  0  0  0  0  0  0  0
  147.6050  137.2256  154.7159 H   0  0  0  0  0  0  0  0  0  0  0  0
  149.0408  137.9082  153.0480 H   0  0  0  0  0  0  0  0  0  0  0  0
  1  2  1  0  0  0  0
  1 21  1  0  0  0  0
  1 22  1  0  0  0  0
  1 23  1  0  0  0  0
  2  6  1  0  0  0  0
  2  3  1  0  0  0  0
  3  4  2  0  0  0  0
  3 24  1  0  0  0  0
  4  5  1  0  0  0  0
  4 25  1  0  0  0  0
  5  6  2  0  0  0  0
  6  7  1  0  0  0  0
  7  8  1  0  0  0  0
  7 26  1  0  0  0  0
  7 27  1  0  0  0  0
  8  9  1  0  0  0  0
  8 28  1  0  0  0  0
  8 29  1  0  0  0  0
  9 10  1  0  0  0  0
  9 30  1  0  0  0  0
 10 11  2  0  0  0  0
 10 12  1  0  0  0  0
 12 13  1  0  0  0  0
 12 16  1  0  0  0  0
 12 31  1  0  0  0  0
 13 15  1  0  0  0  0
 13 14  1  0  0  0  0
 13 32  1  0  0  0  0
 14 15  1  0  0  0  0
 14 33  1  0  0  0  0
 14 34  1  0  0  0  0
 15 35  1  0  0  0  0
 15 36  1  0  0  0  0
 16 20  1  0  0  0  0
 16 17  1  0  0  0  0
 16 45  1  0  0  0  0
 17 18  1  0  0  0  0
 17 37  1  0  0  0  0
 17 38  1  0  0  0  0
 18 19  1  0  0  0  0
 18 39  1  0  0  0  0
 18 40  1  0  0  0  0
 19 20  1  0  0  0  0
 19 41  1  0  0  0  0
 19 42  1  0  0  0  0
 20 43  1  0  0  0  0
 20 44  1  0  0  0  0
M  CHG  1  16   1
M  END
> <s_m_source_file>
AV-unprocessed.smi

> <i_m_source_file_index>
2252

> <i_lp_mmshare_version>
43012

> <i_f3d_flags>
0

> <s_epik_input>
W0NIM11uMVtjSF1bY0hdbmMxW0NIMl1bQ0gyXVtOSF1DKD1PKVtDQEhdKFtDSF0yW0NIMl1bQ0gyXTIpTjNbQ0gyXVtDSDJdW0NIMl1bQ0gyXTM=

> <s_epik_cmdline>
J2VwaWtfcHl0aG9uJywgJy1waCcsICc3LjAnLCAnLXRuJywgJzgnLCAnLW1hJywgJzIwMCcsICctbWV0YWxfYmluZGluZycsICctaW1hZScsICc8aW5maWxlLm1hZT4nLCAnLW9tYWUnLCAnPG91dGZpbGUubWFlPic=

> <r_lp_tautomer_probability>
1

> <r_epik_Ionization_Penalty>
1.07437

> <r_epik_Ionization_Penalty_Charging>
1.07435

> <r_epik_Ionization_Penalty_Neutral>
2.35578e-05

> <r_epik_State_Penalty>
1.18204

> <r_epik_Charging_Adjusted_Penalty>
2.25639

> <i_epik_Tot_Q>
1

> <i_epik_Tot_abs_Q>
1

> <r_epik_Metal_State_Penalty>
0.433434

> <b_epik_Metal_Only>
0

> <s_lp_Force_Field>
OPLS_2005

> <r_lp_Energy>
33.5931

> <b_lp_Chiralities_Consistent>
1

> <s_lp_Variant>
AV-unprocessed.smi:2252-3

> <Gold.Version>
5.8.1

> <Gold.Id.Protein>
6NUR|6NUR_protein|mol2

> <Gold.PLP.Fitness>
43.5148

> <Gold.PLP.PLP>
-38.9846

> <Gold.PLP.part.hbond>
-1.3504

> <Gold.PLP.part.metal>
0.0000

> <Gold.PLP.part.buried>
-1.7186

> <Gold.PLP.part.nonpolar>
-36.6750

> <Gold.PLP.part.repulsive>
0.2097

> <Gold.PLP.ligand.clash>
0.0000

> <Gold.PLP.ligand.torsion>
1.2949

> <Gold.PLP.Chemscore.Hbond>
2.0000

> <Gold.PLP.Chemscore.CHOScore>
0.0000

> <Gold.PLP.Chemscore.Metal>
0.0000

> <Gold.Chemscore.Hbonds>
donor molecule, donor type, donor heavy atom, donor atom, acceptor molecule, acceptor atom, score
      L1  H    16    45       P1  7948  2.00

> <Gold.PLP.Chemscore.Internal.Correction>
1.1199

> <Gold.Rescore>
     Score         DG    S(hbond)    S(metal)    S(lipo)     H(rot)  DE(clash)    DE(int)     intcor
     13.61     -15.42       0.99        0.00      99.40       1.95       0.40       1.42       ----

> <Gold.Chemscore.Fitness>
13.6053

> <Gold.Chemscore.DG>
-15.4240

> <Gold.Chemscore.ZeroCoef>
-5.4800

> <Gold.Chemscore.Hbond>
0.9885

> <Gold.Chemscore.Metal>
0.0000

> <Gold.Chemscore.Lipo>
99.4047

> <Gold.Chemscore.Internal_Hbond>
0.0000

> <Gold.Chemscore.DEClash>
0.3951

> <Gold.Chemscore.DEInternal>
1.4235

> <Gold.Chemscore.Rot>
1.9485

> <Gold.Chemscore.Internal.Correction>
   9.000000E+99

> <Gold.Chemscore.Hbonds>
donor molecule, donor type, donor heavy atom, donor atom, acceptor molecule, acceptor atom, score
      L1  H    16    45       P1  7948  0.91

> <Gold.Chemscore.Hbond.Weighted>
-3.3017

> <Gold.Chemscore.Metal.Weighted>
-0.0000

> <Gold.Chemscore.Lipo.Weighted>
-11.6304

> <Gold.Chemscore.Internal_Hbond.Weighted>
0.0000

> <Gold.Chemscore.DEClash.Weighted>
0.3951

> <Gold.Chemscore.DEInternal.Weighted>
1.4235

> <Gold.Chemscore.Rot.Weighted>
4.9881

> <Gold.Chemscore.Internal.Correction.Weighted>
   9.000000E+99

> <Gold.Protein.RotatedTorsions>
[ 6907 6896 6895 6894 ] final  107.60 input  -60.11 | X-H torsion
[ 7974 7965 7964 7962 ] final  -70.40 input  175.53 | X-H torsion
[ 8008 7997 7996 7995 ] final   49.41 input   59.86 | X-H torsion
[ 10167 10162 10161 10158 ] final    6.63 input  -65.29 | X-H torsion
[ 10718 10713 10712 10709 ] final  -35.78 input   66.30 | X-H torsion
[ 10763 10752 10751 10750 ] final -147.43 input  -60.55 | X-H torsion
[ 11005 11000 10999 10996 ] final  -72.44 input  -57.11 | X-H torsion

> <Gold.Protein.ActiveResidues>
 VAL166  LYS551  ARG553  GLY616  TRP617  ASP618  TYR619  PRO620  LYS621  CYS622 
 ASP623  PHE694  ASN695  SER759  ASP760  ASP761  ALA762  ILE779  LEU786  VAL792 
 PHE793  MET794  SER795  GLU796  ALA797  LYS798  CYS799  TRP800  GLU811  SER814 

> <Gold.Protein.RotatedAtoms>
  152.5147  133.9210  159.7534 H   0  0  0  0  0  0  0  0  0  0  0  0  # atno 6907 bound_to 6896
  150.9582  133.6466  159.2766 H   0  0  0  0  0  0  0  0  0  0  0  0  # atno 6908 bound_to 6896
  151.3720  135.0929  159.9521 H   0  0  0  0  0  0  0  0  0  0  0  0  # atno 6909 bound_to 6896
  145.6915  140.9151  143.0779 H   0  0  0  0  0  0  0  0  0  0  0  0  # atno 7974 bound_to 7965
  155.4018  140.3438  155.4257 H   0  0  0  0  0  0  0  0  0  0  0  0  # atno 8008 bound_to 7997
  156.1499  140.1567  156.8819 H   0  0  0  0  0  0  0  0  0  0  0  0  # atno 8009 bound_to 7997
  154.5043  140.0806  156.7844 H   0  0  0  0  0  0  0  0  0  0  0  0  # atno 8010 bound_to 7997
  140.6417  143.7758  150.7438 H   0  0  0  0  0  0  0  0  0  0  0  0  # atno 10167 bound_to 10162
  156.3346  130.4284  149.7841 H   0  0  0  0  0  0  0  0  0  0  0  0  # atno 10718 bound_to 10713
  154.8286  135.3360  154.6817 H   0  0  0  0  0  0  0  0  0  0  0  0  # atno 10763 bound_to 10752
  153.7440  135.6944  153.4965 H   0  0  0  0  0  0  0  0  0  0  0  0  # atno 10764 bound_to 10752
  153.2223  135.4444  155.0454 H   0  0  0  0  0  0  0  0  0  0  0  0  # atno 10765 bound_to 10752
  141.1608  133.6847  156.7059 H   0  0  0  0  0  0  0  0  0  0  0  0  # atno 11005 bound_to 11000
  144.6995  139.8828  143.7448 LP  0  0  0  0  0  0  0  0  0  0  0  0  # atno 17320 bound_to 7965
  146.0878  139.3866  143.0425 LP  0  0  0  0  0  0  0  0  0  0  0  0  # atno 17321 bound_to 7965
  140.1391  143.4457  152.2205 LP  0  0  0  0  0  0  0  0  0  0  0  0  # atno 17342 bound_to 10162
  139.5626  144.7415  151.4111 LP  0  0  0  0  0  0  0  0  0  0  0  0  # atno 17343 bound_to 10162
  156.5101  130.8168  151.3165 LP  0  0  0  0  0  0  0  0  0  0  0  0  # atno 17370 bound_to 10713
  157.7436  130.9917  150.2609 LP  0  0  0  0  0  0  0  0  0  0  0  0  # atno 17371 bound_to 10713
  140.2923  134.8230  157.4027 LP  0  0  0  0  0  0  0  0  0  0  0  0  # atno 17394 bound_to 11000
  140.1335  134.5064  155.8086 LP  0  0  0  0  0  0  0  0  0  0  0  0  # atno 17395 bound_to 11000

$$$$
