AV-unprocessed.smi:1970|AV-procd|sdf|7961|dock1
  -GOLD-   2272010133D 1   1.00000     0.00000
 Structure written by MMmdl.
 34 35  0  0  0  0  0  0  0  0  2 V2000
  152.7767  139.9153  154.9491 O   0  0  0  0  0  0  0  0  0  0  0  0
  151.7817  139.2843  155.3084 C   0  0  0  0  0  0  0  0  0  0  0  0
  151.2832  138.0817  154.4970 C   0  0  0  0  0  0  0  0  0  0  0  0
  150.3915  137.2084  155.2649 N   0  0  0  0  0  0  0  0  0  0  0  0
  148.9508  137.3428  155.0796 C   0  0  0  0  0  0  0  0  0  0  0  0
  148.1808  135.9250  155.9021 S   0  0  0  0  0  0  0  0  0  0  0  0
  149.6834  135.5090  156.8034 C   0  0  0  0  0  0  0  0  0  0  0  0
  150.8122  136.2900  156.1527 C   0  0  0  0  0  0  0  0  0  0  0  0
  151.9897  136.0710  156.4361 O   0  0  0  0  0  0  0  0  0  0  0  0
  151.0678  139.6001  156.3994 N   0  0  0  0  0  0  0  0  0  0  0  0
  151.3841  140.6902  157.3144 C   0  0  0  0  0  0  0  0  0  0  0  0
  150.6696  141.9904  156.9082 C   0  0  0  0  0  0  0  0  0  0  0  0
  150.8656  143.0972  157.9255 C   0  0  0  0  0  0  0  0  0  0  0  0
  152.1399  143.6322  158.2142 C   0  0  0  0  0  0  0  0  0  0  0  0
  152.2537  144.6650  159.1679 C   0  0  0  0  0  0  0  0  0  0  0  0
  151.0923  145.1415  159.8111 C   0  0  0  0  0  0  0  0  0  0  0  0
  149.8448  144.5724  159.4832 C   0  0  0  0  0  0  0  0  0  0  0  0
  149.7769  143.5839  158.5643 N   0  3  0  0  0  0  0  0  0  0  0  0
  150.7688  138.4261  153.5977 H   0  0  0  0  0  0  0  0  0  0  0  0
  152.1496  137.5142  154.1551 H   0  0  0  0  0  0  0  0  0  0  0  0
  148.6035  138.2698  155.5367 H   0  0  0  0  0  0  0  0  0  0  0  0
  148.6849  137.3546  154.0221 H   0  0  0  0  0  0  0  0  0  0  0  0
  149.5854  135.8041  157.8482 H   0  0  0  0  0  0  0  0  0  0  0  0
  149.8710  134.4361  156.7586 H   0  0  0  0  0  0  0  0  0  0  0  0
  150.2585  139.0366  156.6175 H   0  0  0  0  0  0  0  0  0  0  0  0
  151.1160  140.4091  158.3344 H   0  0  0  0  0  0  0  0  0  0  0  0
  152.4644  140.8377  157.3069 H   0  0  0  0  0  0  0  0  0  0  0  0
  151.0352  142.3313  155.9384 H   0  0  0  0  0  0  0  0  0  0  0  0
  149.6002  141.8125  156.7863 H   0  0  0  0  0  0  0  0  0  0  0  0
  153.0200  143.2580  157.7112 H   0  0  0  0  0  0  0  0  0  0  0  0
  153.2201  145.0867  159.4027 H   0  0  0  0  0  0  0  0  0  0  0  0
  151.1581  145.9320  160.5446 H   0  0  0  0  0  0  0  0  0  0  0  0
  148.9066  144.8753  159.9246 H   0  0  0  0  0  0  0  0  0  0  0  0
  148.8636  143.1867  158.3430 H   0  0  0  0  0  0  0  0  0  0  0  0
  1  2  2  0  0  0  0
  2  3  1  0  0  0  0
  2 10  1  0  0  0  0
  3  4  1  0  0  0  0
  3 19  1  0  0  0  0
  3 20  1  0  0  0  0
  4  8  1  0  0  0  0
  4  5  1  0  0  0  0
  5  6  1  0  0  0  0
  5 21  1  0  0  0  0
  5 22  1  0  0  0  0
  6  7  1  0  0  0  0
  7  8  1  0  0  0  0
  7 23  1  0  0  0  0
  7 24  1  0  0  0  0
  8  9  2  0  0  0  0
 10 11  1  0  0  0  0
 10 25  1  0  0  0  0
 11 12  1  0  0  0  0
 11 26  1  0  0  0  0
 11 27  1  0  0  0  0
 12 13  1  0  0  0  0
 12 28  1  0  0  0  0
 12 29  1  0  0  0  0
 13 18  1  0  0  0  0
 13 14  2  0  0  0  0
 14 15  1  0  0  0  0
 14 30  1  0  0  0  0
 15 16  2  0  0  0  0
 15 31  1  0  0  0  0
 16 17  1  0  0  0  0
 16 32  1  0  0  0  0
 17 18  2  0  0  0  0
 17 33  1  0  0  0  0
 18 34  1  0  0  0  0
M  CHG  1  18   1
M  END
> <s_m_source_file>
AV-unprocessed.smi

> <i_m_source_file_index>
1970

> <i_lp_mmshare_version>
43012

> <i_f3d_flags>
0

> <s_epik_input>
Tz1DMVtDSDJdU1tDSDJdTjFbQ0gyXUMoPU8pW05IXVtDSDJdW0NIMl1jMltjSF1bY0hdW2NIXVtjSF1uMg==

> <s_epik_cmdline>
J2VwaWtfcHl0aG9uJywgJy1waCcsICc3LjAnLCAnLXRuJywgJzgnLCAnLW1hJywgJzIwMCcsICctbWV0YWxfYmluZGluZycsICctaW1hZScsICc8aW5maWxlLm1hZT4nLCAnLW9tYWUnLCAnPG91dGZpbGUubWFlPic=

> <r_epik_Ionization_Penalty>
1.87519

> <r_epik_Ionization_Penalty_Charging>
1.87519

> <r_epik_Ionization_Penalty_Neutral>
8.746e-08

> <r_epik_State_Penalty>
1.99452

> <r_epik_Charging_Adjusted_Penalty>
3.86972

> <i_epik_Tot_Q>
1

> <i_epik_Tot_abs_Q>
1

> <r_epik_Metal_State_Penalty>
2.01927

> <b_epik_Metal_Only>
0

> <s_epik_Chemistry_Notes>
This compound contains an acetal/aminal-like group ( X-CH(R)-Y where X, Y are N, S, or O) that may be acid/base labile, releasing an aldehyde.

> <s_lp_Force_Field>
OPLS_2005

> <r_lp_Energy>
10.5607

> <b_lp_Chiralities_Consistent>
1

> <s_lp_Variant>
AV-unprocessed.smi:1970-2

> <Gold.Version>
5.8.1

> <Gold.Id.Protein>
6NUR|6NUR_protein|mol2

> <Gold.PLP.Fitness>
40.8439

> <Gold.PLP.PLP>
-35.3027

> <Gold.PLP.part.hbond>
-3.5237

> <Gold.PLP.part.metal>
0.0000

> <Gold.PLP.part.buried>
-4.4299

> <Gold.PLP.part.nonpolar>
-27.5259

> <Gold.PLP.part.repulsive>
0.1754

> <Gold.PLP.ligand.clash>
0.0000

> <Gold.PLP.ligand.torsion>
0.7535

> <Gold.PLP.Chemscore.Hbond>
2.3024

> <Gold.PLP.Chemscore.CHOScore>
0.0000

> <Gold.PLP.Chemscore.Metal>
0.0000

> <Gold.Chemscore.Hbonds>
donor molecule, donor type, donor heavy atom, donor atom, acceptor molecule, acceptor atom, score
      P1  H  7989  7998       L1     1  0.24
      P1  H  7997  8008       L1     1  1.00
      P1  H 10752 10763       L1     9  1.00

> <Gold.PLP.Chemscore.Internal.Correction>
0.1410

> <Gold.Rescore>
     Score         DG    S(hbond)    S(metal)    S(lipo)     H(rot)  DE(clash)    DE(int)     intcor
     15.64     -16.81       1.99        0.00      84.44       2.03       0.41       0.76       ----

> <Gold.Chemscore.Fitness>
15.6363

> <Gold.Chemscore.DG>
-16.8057

> <Gold.Chemscore.ZeroCoef>
-5.4800

> <Gold.Chemscore.Hbond>
1.9889

> <Gold.Chemscore.Metal>
0.0000

> <Gold.Chemscore.Lipo>
84.4402

> <Gold.Chemscore.Internal_Hbond>
0.0000

> <Gold.Chemscore.DEClash>
0.4140

> <Gold.Chemscore.DEInternal>
0.7554

> <Gold.Chemscore.Rot>
2.0300

> <Gold.Chemscore.Internal.Correction>
   9.000000E+99

> <Gold.Chemscore.Hbonds>
donor molecule, donor type, donor heavy atom, donor atom, acceptor molecule, acceptor atom, score
      P1  H  7989  7998       L1     1  0.01
      P1  H  7997  8008       L1     1  0.95
      P1  H 10752 10763       L1     9  0.90

> <Gold.Chemscore.Hbond.Weighted>
-6.6429

> <Gold.Chemscore.Metal.Weighted>
-0.0000

> <Gold.Chemscore.Lipo.Weighted>
-9.8795

> <Gold.Chemscore.Internal_Hbond.Weighted>
0.0000

> <Gold.Chemscore.DEClash.Weighted>
0.4140

> <Gold.Chemscore.DEInternal.Weighted>
0.7554

> <Gold.Chemscore.Rot.Weighted>
5.1967

> <Gold.Chemscore.Internal.Correction.Weighted>
   9.000000E+99

> <Gold.Protein.RotatedTorsions>
[ 6907 6896 6895 6894 ] final  175.67 input  -60.11 | X-H torsion
[ 7974 7965 7964 7962 ] final  144.07 input  175.53 | X-H torsion
[ 8008 7997 7996 7995 ] final    0.13 input   59.86 | X-H torsion
[ 10167 10162 10161 10158 ] final  -39.60 input  -65.29 | X-H torsion
[ 10718 10713 10712 10709 ] final  134.97 input   66.30 | X-H torsion
[ 10763 10752 10751 10750 ] final   81.67 input  -60.55 | X-H torsion
[ 11005 11000 10999 10996 ] final -131.81 input  -57.11 | X-H torsion

> <Gold.Protein.ActiveResidues>
 VAL166  LYS551  ARG553  GLY616  TRP617  ASP618  TYR619  PRO620  LYS621  CYS622 
 ASP623  PHE694  ASN695  SER759  ASP760  ASP761  ALA762  ILE779  LEU786  VAL792 
 PHE793  MET794  SER795  GLU796  ALA797  LYS798  CYS799  TRP800  GLU811  SER814 

> <Gold.Protein.RotatedAtoms>
  151.7324  133.3318  159.3343 H   0  0  0  0  0  0  0  0  0  0  0  0  # atno 6907 bound_to 6896
  150.7607  134.6351  159.6216 H   0  0  0  0  0  0  0  0  0  0  0  0  # atno 6908 bound_to 6896
  152.3583  134.6911  160.0267 H   0  0  0  0  0  0  0  0  0  0  0  0  # atno 6909 bound_to 6896
  144.8867  139.5619  143.5818 H   0  0  0  0  0  0  0  0  0  0  0  0  # atno 7974 bound_to 7965
  154.6646  140.2598  155.7072 H   0  0  0  0  0  0  0  0  0  0  0  0  # atno 8008 bound_to 7997
  156.2633  140.2842  156.1053 H   0  0  0  0  0  0  0  0  0  0  0  0  # atno 8009 bound_to 7997
  155.1258  140.0378  157.2752 H   0  0  0  0  0  0  0  0  0  0  0  0  # atno 8010 bound_to 7997
  140.7059  143.3204  151.2806 H   0  0  0  0  0  0  0  0  0  0  0  0  # atno 10167 bound_to 10162
  157.4619  131.1074  150.9910 H   0  0  0  0  0  0  0  0  0  0  0  0  # atno 10718 bound_to 10713
  153.1137  135.4757  154.9078 H   0  0  0  0  0  0  0  0  0  0  0  0  # atno 10763 bound_to 10752
  154.7506  135.3105  154.8566 H   0  0  0  0  0  0  0  0  0  0  0  0  # atno 10764 bound_to 10752
  153.9148  135.6861  153.4803 H   0  0  0  0  0  0  0  0  0  0  0  0  # atno 10765 bound_to 10752
  140.9225  134.1425  157.4302 H   0  0  0  0  0  0  0  0  0  0  0  0  # atno 11005 bound_to 11000
  146.3028  139.7483  142.9078 LP  0  0  0  0  0  0  0  0  0  0  0  0  # atno 17320 bound_to 7965
  145.3857  141.0365  143.3152 LP  0  0  0  0  0  0  0  0  0  0  0  0  # atno 17321 bound_to 7965
  139.6656  144.0111  152.2721 LP  0  0  0  0  0  0  0  0  0  0  0  0  # atno 17342 bound_to 10162
  139.9692  144.6505  150.8005 LP  0  0  0  0  0  0  0  0  0  0  0  0  # atno 17343 bound_to 10162
  157.0704  130.5862  149.5401 LP  0  0  0  0  0  0  0  0  0  0  0  0  # atno 17370 bound_to 10713
  156.0032  130.5115  150.7739 LP  0  0  0  0  0  0  0  0  0  0  0  0  # atno 17371 bound_to 10713
  139.8778  134.9976  156.5858 LP  0  0  0  0  0  0  0  0  0  0  0  0  # atno 17394 bound_to 11000
  140.7969  133.8537  155.8693 LP  0  0  0  0  0  0  0  0  0  0  0  0  # atno 17395 bound_to 11000

$$$$
