AV-unprocessed.smi:203|AV-procd|sdf|1597|dock10
  -GOLD-   2262019503D 1   1.00000     0.00000
 Structure written by MMmdl.
 57 61  0  0  0  0  0  0  0  0  1 V2000
  147.5525  141.4546  157.6395 O   0  0  0  0  0  0  0  0  0  0  0  0
  148.7373  141.5550  157.3299 C   0  0  0  0  0  0  0  0  0  0  0  0
  149.8674  140.9183  158.1201 C   0  0  0  0  0  0  0  0  0  0  0  0
  151.1386  141.5169  157.4838 C   0  0  2  0  0  0  0  0  0  0  0  0
  151.9215  142.5035  158.4076 C   0  0  1  0  0  0  0  0  0  0  0  0
  151.1726  143.8456  158.6241 C   0  0  0  0  0  0  0  0  0  0  0  0
  151.9596  144.7962  159.5358 C   0  0  0  0  0  0  0  0  0  0  0  0
  152.2680  144.1043  160.8675 C   0  0  0  0  0  0  0  0  0  0  0  0
  153.0151  142.7867  160.6232 C   0  0  0  0  0  0  0  0  0  0  0  0
  152.2736  141.9147  159.7126 N   0  0  0  0  0  0  0  0  0  0  0  0
  152.8266  140.6813  159.6918 C   0  0  0  0  0  0  0  0  0  0  0  0
  151.9995  139.6375  159.4391 N   0  0  0  0  0  0  0  0  0  0  0  0
  152.4882  138.3943  159.3970 C   0  0  0  0  0  0  0  0  0  0  0  0
  153.7458  137.9843  159.5780 N   0  0  0  0  0  0  0  0  0  0  0  0
  154.5770  139.0333  159.8402 C   0  0  0  0  0  0  0  0  0  0  0  0
  154.2044  140.4042  159.9190 C   0  0  0  0  0  0  0  0  0  0  0  0
  155.3182  141.1832  160.2095 N   0  0  0  0  0  0  0  0  0  0  0  0
  156.2952  140.3216  160.2936 C   0  0  0  0  0  0  0  0  0  0  0  0
  155.9383  139.0086  160.0860 N   0  0  0  0  0  0  0  0  0  0  0  0
  156.8215  137.8554  160.1186 C   0  0  0  0  0  0  0  0  0  0  0  0
  156.0890  136.5593  160.5268 C   0  0  1  0  0  0  0  0  0  0  0  0
  156.9102  135.4606  160.1799 O   0  0  0  0  0  0  0  0  0  0  0  0
  155.8082  136.4750  162.0408 C   0  0  1  0  0  0  0  0  0  0  0  0
  154.6953  137.3976  162.5425 C   0  0  0  0  0  0  0  0  0  0  0  0
  154.2163  136.7208  163.8158 C   0  0  0  0  0  0  0  0  0  0  0  0
  154.7218  135.2829  163.6778 C   0  0  0  0  0  0  0  0  0  0  0  0
  155.2643  135.2043  162.3667 O   0  0  0  0  0  0  0  0  0  0  0  0
  150.6577  142.1616  156.1658 C   0  0  0  0  0  0  0  0  0  0  0  0
  149.2132  142.2182  156.2782 N   0  0  0  0  0  0  0  0  0  0  0  0
  149.7761  141.1284  159.1860 H   0  0  0  0  0  0  0  0  0  0  0  0
  149.8342  139.8369  157.9858 H   0  0  0  0  0  0  0  0  0  0  0  0
  151.7998  140.6975  157.2005 H   0  0  0  0  0  0  0  0  0  0  0  0
  152.8591  142.7429  157.9049 H   0  0  0  0  0  0  0  0  0  0  0  0
  150.9856  144.3454  157.6745 H   0  0  0  0  0  0  0  0  0  0  0  0
  150.1946  143.6658  159.0705 H   0  0  0  0  0  0  0  0  0  0  0  0
  152.8890  145.0926  159.0478 H   0  0  0  0  0  0  0  0  0  0  0  0
  151.3899  145.7094  159.7092 H   0  0  0  0  0  0  0  0  0  0  0  0
  152.8627  144.7598  161.5039 H   0  0  0  0  0  0  0  0  0  0  0  0
  151.3392  143.9058  161.4041 H   0  0  0  0  0  0  0  0  0  0  0  0
  154.0002  142.9944  160.2031 H   0  0  0  0  0  0  0  0  0  0  0  0
  153.1768  142.2799  161.5761 H   0  0  0  0  0  0  0  0  0  0  0  0
  151.7686  137.6164  159.1878 H   0  0  0  0  0  0  0  0  0  0  0  0
  157.3098  140.6215  160.5127 H   0  0  0  0  0  0  0  0  0  0  0  0
  157.2858  137.7385  159.1383 H   0  0  0  0  0  0  0  0  0  0  0  0
  157.6273  138.0784  160.8182 H   0  0  0  0  0  0  0  0  0  0  0  0
  155.1513  136.4864  159.9744 H   0  0  0  0  0  0  0  0  0  0  0  0
  156.9820  134.8906  160.9301 H   0  0  0  0  0  0  0  0  0  0  0  0
  156.7181  136.6487  162.6198 H   0  0  0  0  0  0  0  0  0  0  0  0
  155.0356  138.4196  162.7116 H   0  0  0  0  0  0  0  0  0  0  0  0
  153.8792  137.4289  161.8191 H   0  0  0  0  0  0  0  0  0  0  0  0
  154.6476  137.1920  164.7000 H   0  0  0  0  0  0  0  0  0  0  0  0
  153.1303  136.7680  163.9047 H   0  0  0  0  0  0  0  0  0  0  0  0
  155.5076  135.0804  164.4065 H   0  0  0  0  0  0  0  0  0  0  0  0
  153.9305  134.5460  163.8156 H   0  0  0  0  0  0  0  0  0  0  0  0
  151.0825  143.1495  155.9867 H   0  0  0  0  0  0  0  0  0  0  0  0
  150.9160  141.5352  155.3112 H   0  0  0  0  0  0  0  0  0  0  0  0
  148.6356  142.7159  155.6159 H   0  0  0  0  0  0  0  0  0  0  0  0
  1  2  2  0  0  0  0
  2 29  1  0  0  0  0
  2  3  1  0  0  0  0
  3  4  1  0  0  0  0
  3 30  1  0  0  0  0
  3 31  1  0  0  0  0
  4  5  1  0  0  0  0
  4 28  1  0  0  0  0
  4 32  1  0  0  0  0
  5 10  1  0  0  0  0
  5  6  1  0  0  0  0
  5 33  1  0  0  0  0
  6  7  1  0  0  0  0
  6 34  1  0  0  0  0
  6 35  1  0  0  0  0
  7  8  1  0  0  0  0
  7 36  1  0  0  0  0
  7 37  1  0  0  0  0
  8  9  1  0  0  0  0
  8 38  1  0  0  0  0
  8 39  1  0  0  0  0
  9 10  1  0  0  0  0
  9 40  1  0  0  0  0
  9 41  1  0  0  0  0
 10 11  1  0  0  0  0
 11 16  1  0  0  0  0
 11 12  2  0  0  0  0
 12 13  1  0  0  0  0
 13 14  2  0  0  0  0
 13 42  1  0  0  0  0
 14 15  1  0  0  0  0
 15 19  1  0  0  0  0
 15 16  2  0  0  0  0
 16 17  1  0  0  0  0
 17 18  2  0  0  0  0
 18 19  1  0  0  0  0
 18 43  1  0  0  0  0
 19 20  1  0  0  0  0
 20 21  1  0  0  0  0
 20 44  1  0  0  0  0
 20 45  1  0  0  0  0
 21 22  1  0  0  0  0
 21 23  1  0  0  0  0
 21 46  1  0  0  0  0
 22 47  1  0  0  0  0
 23 27  1  0  0  0  0
 23 24  1  0  0  0  0
 23 48  1  0  0  0  0
 24 25  1  0  0  0  0
 24 49  1  0  0  0  0
 24 50  1  0  0  0  0
 25 26  1  0  0  0  0
 25 51  1  0  0  0  0
 25 52  1  0  0  0  0
 26 27  1  0  0  0  0
 26 53  1  0  0  0  0
 26 54  1  0  0  0  0
 28 29  1  0  0  0  0
 28 55  1  0  0  0  0
 28 56  1  0  0  0  0
 29 57  1  0  0  0  0
M  END
> <s_m_source_file>
AV-unprocessed.smi

> <i_m_source_file_index>
203

> <i_lp_mmshare_version>
43012

> <i_f3d_flags>
0

> <s_epik_input>
Tz1DMVtDSDJdW0NASF0oW0NIMl1bTkhdMSlbQ0BASF0yW0NIMl1bQ0gyXVtDSDJdW0NIMl1OMmMobltjSF1uMyljKGMzNCluW2NIXW40W0NIMl1bQ0BIXShbT0hdKVtDQEBIXTVbQ0gyXVtDSDJdW0NIMl1PNQ==

> <s_epik_cmdline>
J2VwaWtfcHl0aG9uJywgJy1waCcsICc3LjAnLCAnLXRuJywgJzgnLCAnLW1hJywgJzIwMCcsICctbWV0YWxfYmluZGluZycsICctaW1hZScsICc8aW5maWxlLm1hZT4nLCAnLW9tYWUnLCAnPG91dGZpbGUubWFlPic=

> <r_lp_tautomer_probability>
1

> <r_epik_Ionization_Penalty>
0.00175146

> <r_epik_Ionization_Penalty_Charging>
0

> <r_epik_Ionization_Penalty_Neutral>
0.00175146

> <r_epik_State_Penalty>
0.00109045

> <r_epik_Charging_Adjusted_Penalty>
0.00109045

> <i_epik_Tot_Q>
0

> <i_epik_Tot_abs_Q>
0

> <r_epik_Metal_State_Penalty>
-0

> <b_epik_Metal_Only>
0

> <s_lp_Force_Field>
OPLS_2005

> <r_lp_Energy>
57.64

> <b_lp_Chiralities_Consistent>
1

> <s_lp_Variant>
AV-unprocessed.smi:203-16

> <Gold.Version>
5.8.1

> <Gold.Id.Protein>
6NUR|6NUR_protein|mol2

> <Gold.PLP.Fitness>
45.4109

> <Gold.PLP.PLP>
-46.6388

> <Gold.PLP.part.hbond>
-1.8988

> <Gold.PLP.part.metal>
0.0000

> <Gold.PLP.part.buried>
-6.7347

> <Gold.PLP.part.nonpolar>
-38.5509

> <Gold.PLP.part.repulsive>
0.1621

> <Gold.PLP.ligand.clash>
0.0000

> <Gold.PLP.ligand.torsion>
1.2243

> <Gold.PLP.Chemscore.Hbond>
0.3040

> <Gold.PLP.Chemscore.CHOScore>
0.0000

> <Gold.PLP.Chemscore.Metal>
0.0000

> <Gold.Chemscore.Hbonds>
donor molecule, donor type, donor heavy atom, donor atom, acceptor molecule, acceptor atom, score
      L1  H    29    57       P1  8028  0.29

> <Gold.PLP.Chemscore.Internal.Correction>
0.3086

> <Gold.Rescore>
     Score         DG    S(hbond)    S(metal)    S(lipo)     H(rot)  DE(clash)    DE(int)     intcor
      6.15     -13.05       0.28        0.00     116.15       2.72       0.47       6.44       ----

> <Gold.Chemscore.Fitness>
6.1509

> <Gold.Chemscore.DG>
-13.0521

> <Gold.Chemscore.ZeroCoef>
-5.4800

> <Gold.Chemscore.Hbond>
0.2809

> <Gold.Chemscore.Metal>
0.0000

> <Gold.Chemscore.Lipo>
116.1501

> <Gold.Chemscore.Internal_Hbond>
0.0000

> <Gold.Chemscore.DEClash>
0.4651

> <Gold.Chemscore.DEInternal>
6.4361

> <Gold.Chemscore.Rot>
2.7171

> <Gold.Chemscore.Internal.Correction>
   9.000000E+99

> <Gold.Chemscore.Hbonds>
donor molecule, donor type, donor heavy atom, donor atom, acceptor molecule, acceptor atom, score
      L1  H    29    57       P1  8028  0.29

> <Gold.Chemscore.Hbond.Weighted>
-0.9382

> <Gold.Chemscore.Metal.Weighted>
-0.0000

> <Gold.Chemscore.Lipo.Weighted>
-13.5896

> <Gold.Chemscore.Internal_Hbond.Weighted>
0.0000

> <Gold.Chemscore.DEClash.Weighted>
0.4651

> <Gold.Chemscore.DEInternal.Weighted>
6.4361

> <Gold.Chemscore.Rot.Weighted>
6.9557

> <Gold.Chemscore.Internal.Correction.Weighted>
   9.000000E+99

> <Gold.Protein.RotatedTorsions>
[ 6907 6896 6895 6894 ] final  125.21 input  -60.11 | X-H torsion
[ 7974 7965 7964 7962 ] final  114.32 input  175.53 | X-H torsion
[ 8008 7997 7996 7995 ] final -162.19 input   59.86 | X-H torsion
[ 10167 10162 10161 10158 ] final   44.46 input  -65.29 | X-H torsion
[ 10718 10713 10712 10709 ] final  168.49 input   66.30 | X-H torsion
[ 10763 10752 10751 10750 ] final   45.18 input  -60.55 | X-H torsion
[ 11005 11000 10999 10996 ] final  163.48 input  -57.11 | X-H torsion

> <Gold.Protein.ActiveResidues>
 VAL166  LYS551  ARG553  GLY616  TRP617  ASP618  TYR619  PRO620  LYS621  CYS622 
 ASP623  PHE694  ASN695  SER759  ASP760  ASP761  ALA762  ILE779  LEU786  VAL792 
 PHE793  MET794  SER795  GLU796  ALA797  LYS798  CYS799  TRP800  GLU811  SER814 

> <Gold.Protein.RotatedAtoms>
  152.4011  133.6820  159.6317 H   0  0  0  0  0  0  0  0  0  0  0  0  # atno 6907 bound_to 6896
  150.7902  133.8789  159.3289 H   0  0  0  0  0  0  0  0  0  0  0  0  # atno 6908 bound_to 6896
  151.6554  135.0998  160.0220 H   0  0  0  0  0  0  0  0  0  0  0  0  # atno 6909 bound_to 6896
  145.2059  139.2929  143.4294 H   0  0  0  0  0  0  0  0  0  0  0  0  # atno 7974 bound_to 7965
  155.8032  140.0895  157.1945 H   0  0  0  0  0  0  0  0  0  0  0  0  # atno 8008 bound_to 7997
  154.3981  140.1468  156.3358 H   0  0  0  0  0  0  0  0  0  0  0  0  # atno 8009 bound_to 7997
  155.8441  140.3437  155.5653 H   0  0  0  0  0  0  0  0  0  0  0  0  # atno 8010 bound_to 7997
  140.3341  144.2552  150.6164 H   0  0  0  0  0  0  0  0  0  0  0  0  # atno 10167 bound_to 10162
  157.0364  131.0274  151.2728 H   0  0  0  0  0  0  0  0  0  0  0  0  # atno 10718 bound_to 10713
  152.9828  135.6047  154.3395 H   0  0  0  0  0  0  0  0  0  0  0  0  # atno 10763 bound_to 10752
  154.3092  135.2771  155.2576 H   0  0  0  0  0  0  0  0  0  0  0  0  # atno 10764 bound_to 10752
  154.4793  135.5921  153.6433 H   0  0  0  0  0  0  0  0  0  0  0  0  # atno 10765 bound_to 10752
  140.2362  134.8086  157.3366 H   0  0  0  0  0  0  0  0  0  0  0  0  # atno 11005 bound_to 11000
  146.3408  140.2319  142.8593 LP  0  0  0  0  0  0  0  0  0  0  0  0  # atno 17320 bound_to 7965
  144.9903  140.8540  143.5343 LP  0  0  0  0  0  0  0  0  0  0  0  0  # atno 17321 bound_to 7965
  140.5370  143.2231  151.8147 LP  0  0  0  0  0  0  0  0  0  0  0  0  # atno 17342 bound_to 10162
  139.4851  144.4649  151.9496 LP  0  0  0  0  0  0  0  0  0  0  0  0  # atno 17343 bound_to 10162
  157.5138  130.7955  149.7734 LP  0  0  0  0  0  0  0  0  0  0  0  0  # atno 17370 bound_to 10713
  156.0052  130.3859  150.2456 LP  0  0  0  0  0  0  0  0  0  0  0  0  # atno 17371 bound_to 10713
  140.1700  134.4621  155.7838 LP  0  0  0  0  0  0  0  0  0  0  0  0  # atno 17394 bound_to 11000
  141.2214  133.6937  156.7691 LP  0  0  0  0  0  0  0  0  0  0  0  0  # atno 17395 bound_to 11000

$$$$
