AV-unprocessed.smi:486|AV-procd|sdf|2698|dock6
  -GOLD-   2262023133D 1   1.00000     0.00000
 Structure written by MMmdl.
 44 46  0  0  0  0  0  0  0  0  2 V2000
  144.1440  140.8899  156.1135 C   0  0  0  0  0  0  0  0  0  0  0  0
  145.0097  141.6519  155.2848 O   0  0  0  0  0  0  0  0  0  0  0  0
  146.2868  141.1786  155.0717 C   0  0  0  0  0  0  0  0  0  0  0  0
  147.1281  141.9504  154.2466 C   0  0  0  0  0  0  0  0  0  0  0  0
  148.4478  141.5404  153.9785 C   0  0  0  0  0  0  0  0  0  0  0  0
  148.9593  140.3496  154.5300 C   0  0  0  0  0  0  0  0  0  0  0  0
  150.2619  140.0232  154.2184 O   0  0  0  0  0  0  0  0  0  0  0  0
  150.7994  138.8179  154.7468 C   0  0  0  0  0  0  0  0  0  0  0  0
  151.5586  139.1406  156.0433 C   0  0  1  0  0  0  0  0  0  0  0  0
  152.8827  139.5055  155.7074 O   0  0  0  0  0  0  0  0  0  0  0  0
  150.8962  140.2940  156.8230 C   0  0  0  0  0  0  0  0  0  0  0  0
  151.7584  140.8377  157.8851 N   0  0  0  0  0  0  0  0  0  0  0  0
  152.5621  140.1886  158.7752 C   0  0  0  0  0  0  0  0  0  0  0  0
  152.7639  138.7145  158.8821 C   0  0  0  0  0  0  0  0  0  0  0  0
  153.1498  141.1374  159.5570 N   0  3  0  0  0  0  0  0  0  0  0  0
  152.7212  142.4053  159.1629 C   0  0  0  0  0  0  0  0  0  0  0  0
  153.0412  143.6673  159.6540 C   0  0  0  0  0  0  0  0  0  0  0  0
  152.4284  144.7674  159.0193 C   0  0  0  0  0  0  0  0  0  0  0  0
  151.5376  144.5899  157.9409 C   0  0  0  0  0  0  0  0  0  0  0  0
  151.2192  143.3053  157.4530 C   0  0  0  0  0  0  0  0  0  0  0  0
  151.8280  142.2219  158.0870 C   0  0  0  0  0  0  0  0  0  0  0  0
  148.1167  139.5691  155.3595 C   0  0  0  0  0  0  0  0  0  0  0  0
  146.7956  139.9786  155.6265 C   0  0  0  0  0  0  0  0  0  0  0  0
  143.1820  141.3960  156.1898 H   0  0  0  0  0  0  0  0  0  0  0  0
  144.5440  140.7894  157.1232 H   0  0  0  0  0  0  0  0  0  0  0  0
  143.9629  139.8987  155.6956 H   0  0  0  0  0  0  0  0  0  0  0  0
  146.7585  142.8686  153.8141 H   0  0  0  0  0  0  0  0  0  0  0  0
  149.0746  142.1487  153.3431 H   0  0  0  0  0  0  0  0  0  0  0  0
  150.0217  138.0735  154.9285 H   0  0  0  0  0  0  0  0  0  0  0  0
  151.4951  138.4022  154.0159 H   0  0  0  0  0  0  0  0  0  0  0  0
  151.5877  138.2547  156.6788 H   0  0  0  0  0  0  0  0  0  0  0  0
  153.1743  138.9501  154.9999 H   0  0  0  0  0  0  0  0  0  0  0  0
  150.5897  141.0998  156.1558 H   0  0  0  0  0  0  0  0  0  0  0  0
  149.9839  139.9393  157.3041 H   0  0  0  0  0  0  0  0  0  0  0  0
  153.5159  138.4835  159.6369 H   0  0  0  0  0  0  0  0  0  0  0  0
  153.0967  138.3091  157.9266 H   0  0  0  0  0  0  0  0  0  0  0  0
  151.8295  138.2275  159.1617 H   0  0  0  0  0  0  0  0  0  0  0  0
  153.7251  143.8053  160.4787 H   0  0  0  0  0  0  0  0  0  0  0  0
  152.6478  145.7674  159.3649 H   0  0  0  0  0  0  0  0  0  0  0  0
  151.0901  145.4566  157.4765 H   0  0  0  0  0  0  0  0  0  0  0  0
  150.5407  143.1826  156.6220 H   0  0  0  0  0  0  0  0  0  0  0  0
  148.4594  138.6479  155.8053 H   0  0  0  0  0  0  0  0  0  0  0  0
  146.1909  139.3517  156.2637 H   0  0  0  0  0  0  0  0  0  0  0  0
  153.7980  140.9299  160.3058 H   0  0  0  0  0  0  0  0  0  0  0  0
  1  2  1  0  0  0  0
  1 24  1  0  0  0  0
  1 25  1  0  0  0  0
  1 26  1  0  0  0  0
  2  3  1  0  0  0  0
  3 23  1  0  0  0  0
  3  4  2  0  0  0  0
  4  5  1  0  0  0  0
  4 27  1  0  0  0  0
  5  6  2  0  0  0  0
  5 28  1  0  0  0  0
  6  7  1  0  0  0  0
  6 22  1  0  0  0  0
  7  8  1  0  0  0  0
  8  9  1  0  0  0  0
  8 29  1  0  0  0  0
  8 30  1  0  0  0  0
  9 10  1  0  0  0  0
  9 11  1  0  0  0  0
  9 31  1  0  0  0  0
 10 32  1  0  0  0  0
 11 12  1  0  0  0  0
 11 33  1  0  0  0  0
 11 34  1  0  0  0  0
 12 21  1  0  0  0  0
 12 13  1  0  0  0  0
 13 14  1  0  0  0  0
 13 15  2  0  0  0  0
 14 35  1  0  0  0  0
 14 36  1  0  0  0  0
 14 37  1  0  0  0  0
 15 16  1  0  0  0  0
 15 44  1  0  0  0  0
 16 21  2  0  0  0  0
 16 17  1  0  0  0  0
 17 18  2  0  0  0  0
 17 38  1  0  0  0  0
 18 19  1  0  0  0  0
 18 39  1  0  0  0  0
 19 20  2  0  0  0  0
 19 40  1  0  0  0  0
 20 21  1  0  0  0  0
 20 41  1  0  0  0  0
 22 23  2  0  0  0  0
 22 42  1  0  0  0  0
 23 43  1  0  0  0  0
M  CHG  1  15   1
M  END
> <s_m_source_file>
AV-unprocessed.smi

> <i_m_source_file_index>
486

> <i_lp_mmshare_version>
43012

> <i_f3d_flags>
0

> <s_epik_input>
W0NIM11PYzFbY0hdW2NIXWMoW2NIXVtjSF0xKU9bQ0gyXVtDQEhdKFtPSF0pW0NIMl1uKGMobjIpW0NIM10pYyhjMjMpW2NIXVtjSF1bY0hdW2NIXTM=

> <s_epik_cmdline>
J2VwaWtfcHl0aG9uJywgJy1waCcsICc3LjAnLCAnLXRuJywgJzgnLCAnLW1hJywgJzIwMCcsICctbWV0YWxfYmluZGluZycsICctaW1hZScsICc8aW5maWxlLm1hZT4nLCAnLW9tYWUnLCAnPG91dGZpbGUubWFlPic=

> <r_lp_tautomer_probability>
1

> <r_epik_Ionization_Penalty>
1.03234

> <r_epik_Ionization_Penalty_Charging>
1.03234

> <r_epik_Ionization_Penalty_Neutral>
2.3993e-06

> <r_epik_State_Penalty>
1.0836

> <r_epik_Charging_Adjusted_Penalty>
2.11594

> <i_epik_Tot_Q>
1

> <i_epik_Tot_abs_Q>
1

> <r_epik_Metal_State_Penalty>
5.07275

> <b_epik_Metal_Only>
0

> <s_lp_Force_Field>
OPLS_2005

> <r_lp_Energy>
23.3843

> <b_lp_Chiralities_Consistent>
1

> <s_lp_Variant>
AV-unprocessed.smi:486-4

> <Gold.Version>
5.8.1

> <Gold.Id.Protein>
6NUR|6NUR_protein|mol2

> <Gold.PLP.Fitness>
50.6413

> <Gold.PLP.PLP>
-46.2914

> <Gold.PLP.part.hbond>
-2.0000

> <Gold.PLP.part.metal>
0.0000

> <Gold.PLP.part.buried>
-5.2128

> <Gold.PLP.part.nonpolar>
-39.9226

> <Gold.PLP.part.repulsive>
0.4776

> <Gold.PLP.ligand.clash>
0.0000

> <Gold.PLP.ligand.torsion>
0.8820

> <Gold.PLP.Chemscore.Hbond>
2.0000

> <Gold.PLP.Chemscore.CHOScore>
0.0000

> <Gold.PLP.Chemscore.Metal>
0.0000

> <Gold.Chemscore.Hbonds>
donor molecule, donor type, donor heavy atom, donor atom, acceptor molecule, acceptor atom, score
      P1  H  7989  7998       L1     7  1.00
      P1  H  7997  8009       L1    10  1.00

> <Gold.PLP.Chemscore.Internal.Correction>
0.1139

> <Gold.Rescore>
     Score         DG    S(hbond)    S(metal)    S(lipo)     H(rot)  DE(clash)    DE(int)     intcor
     16.37     -18.71       1.50        0.00     122.57       2.40       0.08       2.26       ----

> <Gold.Chemscore.Fitness>
16.3694

> <Gold.Chemscore.DG>
-18.7107

> <Gold.Chemscore.ZeroCoef>
-5.4800

> <Gold.Chemscore.Hbond>
1.5037

> <Gold.Chemscore.Metal>
0.0000

> <Gold.Chemscore.Lipo>
122.5650

> <Gold.Chemscore.Internal_Hbond>
0.0000

> <Gold.Chemscore.DEClash>
0.0768

> <Gold.Chemscore.DEInternal>
2.2645

> <Gold.Chemscore.Rot>
2.3952

> <Gold.Chemscore.Internal.Correction>
   9.000000E+99

> <Gold.Chemscore.Hbonds>
donor molecule, donor type, donor heavy atom, donor atom, acceptor molecule, acceptor atom, score
      P1  H  7989  7998       L1     7  0.54
      P1  H  7997  8009       L1    10  0.48

> <Gold.Chemscore.Hbond.Weighted>
-5.0222

> <Gold.Chemscore.Metal.Weighted>
-0.0000

> <Gold.Chemscore.Lipo.Weighted>
-14.3401

> <Gold.Chemscore.Internal_Hbond.Weighted>
0.0000

> <Gold.Chemscore.DEClash.Weighted>
0.0768

> <Gold.Chemscore.DEInternal.Weighted>
2.2645

> <Gold.Chemscore.Rot.Weighted>
6.1316

> <Gold.Chemscore.Internal.Correction.Weighted>
   9.000000E+99

> <Gold.Protein.RotatedTorsions>
[ 6907 6896 6895 6894 ] final   45.96 input  -60.11 | X-H torsion
[ 7974 7965 7964 7962 ] final  123.55 input  175.53 | X-H torsion
[ 8008 7997 7996 7995 ] final -170.45 input   59.86 | X-H torsion
[ 10167 10162 10161 10158 ] final   -1.38 input  -65.29 | X-H torsion
[ 10718 10713 10712 10709 ] final -106.18 input   66.30 | X-H torsion
[ 10763 10752 10751 10750 ] final -137.52 input  -60.55 | X-H torsion
[ 11005 11000 10999 10996 ] final  -34.43 input  -57.11 | X-H torsion

> <Gold.Protein.ActiveResidues>
 VAL166  LYS551  ARG553  GLY616  TRP617  ASP618  TYR619  PRO620  LYS621  CYS622 
 ASP623  PHE694  ASN695  SER759  ASP760  ASP761  ALA762  ILE779  LEU786  VAL792 
 PHE793  MET794  SER795  GLU796  ALA797  LYS798  CYS799  TRP800  GLU811  SER814 

> <Gold.Protein.RotatedAtoms>
  152.2507  134.8135  160.0446 H   0  0  0  0  0  0  0  0  0  0  0  0  # atno 6907 bound_to 6896
  151.8817  133.3491  159.3776 H   0  0  0  0  0  0  0  0  0  0  0  0  # atno 6908 bound_to 6896
  150.7083  134.4939  159.5573 H   0  0  0  0  0  0  0  0  0  0  0  0  # atno 6909 bound_to 6896
  145.0946  139.3562  143.4843 H   0  0  0  0  0  0  0  0  0  0  0  0  # atno 7974 bound_to 7965
  155.9185  140.1070  157.1225 H   0  0  0  0  0  0  0  0  0  0  0  0  # atno 8008 bound_to 7997
  154.4050  140.1260  156.4713 H   0  0  0  0  0  0  0  0  0  0  0  0  # atno 8009 bound_to 7997
  155.7225  140.3469  155.5024 H   0  0  0  0  0  0  0  0  0  0  0  0  # atno 8010 bound_to 7997
  140.6807  143.6782  150.8127 H   0  0  0  0  0  0  0  0  0  0  0  0  # atno 10167 bound_to 10162
  156.0378  130.5600  150.7644 H   0  0  0  0  0  0  0  0  0  0  0  0  # atno 10718 bound_to 10713
  154.8660  135.3640  154.5236 H   0  0  0  0  0  0  0  0  0  0  0  0  # atno 10763 bound_to 10752
  153.5865  135.7017  153.5446 H   0  0  0  0  0  0  0  0  0  0  0  0  # atno 10764 bound_to 10752
  153.3411  135.4098  155.1534 H   0  0  0  0  0  0  0  0  0  0  0  0  # atno 10765 bound_to 10752
  140.9716  133.7106  156.1533 H   0  0  0  0  0  0  0  0  0  0  0  0  # atno 11005 bound_to 11000
  146.3531  140.0795  142.8618 LP  0  0  0  0  0  0  0  0  0  0  0  0  # atno 17320 bound_to 7965
  145.1026  140.9355  143.4703 LP  0  0  0  0  0  0  0  0  0  0  0  0  # atno 17321 bound_to 7965
  140.0482  143.5276  152.2686 LP  0  0  0  0  0  0  0  0  0  0  0  0  # atno 17342 bound_to 10162
  139.6128  144.7613  151.2912 LP  0  0  0  0  0  0  0  0  0  0  0  0  # atno 17343 bound_to 10162
  157.5155  131.0928  151.0145 LP  0  0  0  0  0  0  0  0  0  0  0  0  # atno 17370 bound_to 10713
  157.0489  130.5779  149.5367 LP  0  0  0  0  0  0  0  0  0  0  0  0  # atno 17371 bound_to 10713
  140.7321  134.4243  157.5565 LP  0  0  0  0  0  0  0  0  0  0  0  0  # atno 17394 bound_to 11000
  139.8914  134.8780  156.2320 LP  0  0  0  0  0  0  0  0  0  0  0  0  # atno 17395 bound_to 11000

$$$$
