AV-unprocessed.smi:2032|AV-procd|sdf|8243|dock7
  -GOLD-   2272010513D 1   1.00000     0.00000
 Structure written by MMmdl.
 43 44  0  0  0  0  0  0  0  0  2 V2000
  152.9068  138.8337  154.3067 C   0  0  0  0  0  0  0  0  0  0  0  0
  151.7018  137.9176  154.0650 C   0  0  2  0  0  0  0  0  0  0  0  0
  150.3656  138.6236  154.3613 C   0  0  0  0  0  0  0  0  0  0  0  0
  149.2056  137.7025  154.1962 N   0  3  2  0  0  0  0  0  0  0  0  0
  147.8791  138.3594  154.4565 C   0  0  1  0  0  0  0  0  0  0  0  0
  147.6572  139.5766  153.5246 C   0  0  0  0  0  0  0  0  0  0  0  0
  146.6944  137.3580  154.3464 C   0  0  0  0  0  0  0  0  0  0  0  0
  146.7744  136.4905  153.1728 N   0  0  0  0  0  0  0  0  0  0  0  0
  145.8847  135.5409  152.8466 C   0  0  0  0  0  0  0  0  0  0  0  0
  144.8947  135.2759  153.5293 O   0  0  0  0  0  0  0  0  0  0  0  0
  146.2253  134.9282  151.6996 N   0  0  0  0  0  0  0  0  0  0  0  0
  145.5487  133.8721  151.0345 C   0  0  0  0  0  0  0  0  0  0  0  0
  146.1155  133.0622  150.1324 N   0  0  0  0  0  0  0  0  0  0  0  0
  145.2159  132.1116  149.6429 C   0  0  0  0  0  0  0  0  0  0  0  0
  143.9592  132.2145  150.1858 C   0  0  0  0  0  0  0  0  0  0  0  0
  143.8550  133.5164  151.3407 S   0  0  0  0  0  0  0  0  0  0  0  0
  149.4379  136.4624  154.9898 C   0  0  0  0  0  0  0  0  0  0  0  0
  150.8087  135.8320  154.6789 C   0  0  2  0  0  0  0  0  0  0  0  0
  151.0926  134.6065  155.5547 C   0  0  0  0  0  0  0  0  0  0  0  0
  151.8290  136.7896  154.9172 O   0  0  0  0  0  0  0  0  0  0  0  0
  152.8675  139.7128  153.6630 H   0  0  0  0  0  0  0  0  0  0  0  0
  153.8407  138.3115  154.0974 H   0  0  0  0  0  0  0  0  0  0  0  0
  152.9427  139.1771  155.3409 H   0  0  0  0  0  0  0  0  0  0  0  0
  151.7227  137.5900  153.0237 H   0  0  0  0  0  0  0  0  0  0  0  0
  150.3683  139.0246  155.3763 H   0  0  0  0  0  0  0  0  0  0  0  0
  150.2927  139.4689  153.6800 H   0  0  0  0  0  0  0  0  0  0  0  0
  147.8964  138.7299  155.4828 H   0  0  0  0  0  0  0  0  0  0  0  0
  146.6859  140.0429  153.6832 H   0  0  0  0  0  0  0  0  0  0  0  0
  147.7141  139.2871  152.4750 H   0  0  0  0  0  0  0  0  0  0  0  0
  148.3762  140.3753  153.6973 H   0  0  0  0  0  0  0  0  0  0  0  0
  146.6072  136.7737  155.2641 H   0  0  0  0  0  0  0  0  0  0  0  0
  145.7504  137.8877  154.2263 H   0  0  0  0  0  0  0  0  0  0  0  0
  147.5599  136.6346  152.5549 H   0  0  0  0  0  0  0  0  0  0  0  0
  147.0673  135.2537  151.2481 H   0  0  0  0  0  0  0  0  0  0  0  0
  145.5557  131.3971  148.9077 H   0  0  0  0  0  0  0  0  0  0  0  0
  143.0923  131.6054  149.9771 H   0  0  0  0  0  0  0  0  0  0  0  0
  149.3589  136.6929  156.0537 H   0  0  0  0  0  0  0  0  0  0  0  0
  148.6860  135.7092  154.7610 H   0  0  0  0  0  0  0  0  0  0  0  0
  150.8426  135.5216  153.6330 H   0  0  0  0  0  0  0  0  0  0  0  0
  150.3451  133.8288  155.3962 H   0  0  0  0  0  0  0  0  0  0  0  0
  151.0856  134.8666  156.6137 H   0  0  0  0  0  0  0  0  0  0  0  0
  152.0688  134.1795  155.3233 H   0  0  0  0  0  0  0  0  0  0  0  0
  149.1993  137.4195  153.2263 H   0  0  0  0  0  0  0  0  0  0  0  0
  1  2  1  0  0  0  0
  1 21  1  0  0  0  0
  1 22  1  0  0  0  0
  1 23  1  0  0  0  0
  2 20  1  0  0  0  0
  2  3  1  0  0  0  0
  2 24  1  0  0  0  0
  3  4  1  0  0  0  0
  3 25  1  0  0  0  0
  3 26  1  0  0  0  0
  4  5  1  0  0  0  0
  4 17  1  0  0  0  0
  4 43  1  0  0  0  0
  5  6  1  0  0  0  0
  5  7  1  0  0  0  0
  5 27  1  0  0  0  0
  6 28  1  0  0  0  0
  6 29  1  0  0  0  0
  6 30  1  0  0  0  0
  7  8  1  0  0  0  0
  7 31  1  0  0  0  0
  7 32  1  0  0  0  0
  8  9  1  0  0  0  0
  8 33  1  0  0  0  0
  9 10  2  0  0  0  0
  9 11  1  0  0  0  0
 11 12  1  0  0  0  0
 11 34  1  0  0  0  0
 12 16  1  0  0  0  0
 12 13  2  0  0  0  0
 13 14  1  0  0  0  0
 14 15  2  0  0  0  0
 14 35  1  0  0  0  0
 15 16  1  0  0  0  0
 15 36  1  0  0  0  0
 17 18  1  0  0  0  0
 17 37  1  0  0  0  0
 17 38  1  0  0  0  0
 18 19  1  0  0  0  0
 18 20  1  0  0  0  0
 18 39  1  0  0  0  0
 19 40  1  0  0  0  0
 19 41  1  0  0  0  0
 19 42  1  0  0  0  0
M  CHG  1   4   1
M  END
> <s_m_source_file>
AV-unprocessed.smi

> <i_m_source_file_index>
2032

> <i_lp_mmshare_version>
43012

> <i_f3d_flags>
0

> <s_epik_input>
W0NIM11bQ0BASF0xW0NIMl1OKFtDSDJdW0NASF0oTzEpW0NIM10pW0NASF0oW0NIM10pW0NIMl1bTkhdQyg9TylbTkhdYzJuW2NIXVtjSF1zMg==

> <s_epik_cmdline>
J2VwaWtfcHl0aG9uJywgJy1waCcsICc3LjAnLCAnLXRuJywgJzgnLCAnLW1hJywgJzIwMCcsICctbWV0YWxfYmluZGluZycsICctaW1hZScsICc8aW5maWxlLm1hZT4nLCAnLW9tYWUnLCAnPG91dGZpbGUubWFlPic=

> <r_lp_tautomer_probability>
0.999

> <r_epik_Ionization_Penalty>
0.695838

> <r_epik_Ionization_Penalty_Charging>
0.695697

> <r_epik_Ionization_Penalty_Neutral>
0.000141198

> <r_epik_State_Penalty>
0.717972

> <r_epik_Charging_Adjusted_Penalty>
1.41367

> <i_epik_Tot_Q>
1

> <i_epik_Tot_abs_Q>
1

> <r_epik_Metal_State_Penalty>
0.756405

> <b_epik_Metal_Only>
0

> <s_lp_Force_Field>
OPLS_2005

> <r_lp_Energy>
18.3762

> <b_lp_Chiralities_Consistent>
1

> <s_lp_Variant>
AV-unprocessed.smi:2032-13

> <Gold.Version>
5.8.1

> <Gold.Id.Protein>
6NUR|6NUR_protein|mol2

> <Gold.PLP.Fitness>
49.2408

> <Gold.PLP.PLP>
-33.8681

> <Gold.PLP.part.hbond>
-4.0000

> <Gold.PLP.part.metal>
0.0000

> <Gold.PLP.part.buried>
-5.8863

> <Gold.PLP.part.nonpolar>
-26.1966

> <Gold.PLP.part.repulsive>
0.4842

> <Gold.PLP.ligand.clash>
0.0000

> <Gold.PLP.ligand.torsion>
0.2637

> <Gold.PLP.Chemscore.Hbond>
4.4897

> <Gold.PLP.Chemscore.CHOScore>
0.7952

> <Gold.PLP.Chemscore.Metal>
0.0000

> <Gold.Chemscore.Hbonds>
donor molecule, donor type, donor heavy atom, donor atom, acceptor molecule, acceptor atom, score
      L1  H     4    43       P1  7948  2.00
      L1  H     8    33       P1  7948  1.00
      L1  H    11    34       P1  7948  0.52
      P1  H 10752 10763       L1    20  0.45
      L1  C    15    36       P1 10952  0.75

> <Gold.PLP.Chemscore.Internal.Correction>
0.0455

> <Gold.Rescore>
     Score         DG    S(hbond)    S(metal)    S(lipo)     H(rot)  DE(clash)    DE(int)     intcor
     20.41     -21.09       3.17        0.00      78.06       1.61       0.15       0.53       ----

> <Gold.Chemscore.Fitness>
20.4142

> <Gold.Chemscore.DG>
-21.0939

> <Gold.Chemscore.ZeroCoef>
-5.4800

> <Gold.Chemscore.Hbond>
3.1750

> <Gold.Chemscore.Metal>
0.0000

> <Gold.Chemscore.Lipo>
78.0649

> <Gold.Chemscore.Internal_Hbond>
0.0000

> <Gold.Chemscore.DEClash>
0.1476

> <Gold.Chemscore.DEInternal>
0.5322

> <Gold.Chemscore.Rot>
1.6110

> <Gold.Chemscore.Internal.Correction>
   9.000000E+99

> <Gold.Chemscore.Hbonds>
donor molecule, donor type, donor heavy atom, donor atom, acceptor molecule, acceptor atom, score
      L1  H     4    43       P1  7948  0.97
      L1  H     8    33       P1  7948  0.97
      L1  H    11    34       P1  7948  0.44
      P1  H 10752 10763       L1    20  0.03

> <Gold.Chemscore.Hbond.Weighted>
-10.6044

> <Gold.Chemscore.Metal.Weighted>
-0.0000

> <Gold.Chemscore.Lipo.Weighted>
-9.1336

> <Gold.Chemscore.Internal_Hbond.Weighted>
0.0000

> <Gold.Chemscore.DEClash.Weighted>
0.1476

> <Gold.Chemscore.DEInternal.Weighted>
0.5322

> <Gold.Chemscore.Rot.Weighted>
4.1242

> <Gold.Chemscore.Internal.Correction.Weighted>
   9.000000E+99

> <Gold.Protein.RotatedTorsions>
[ 6907 6896 6895 6894 ] final   18.30 input  -60.11 | X-H torsion
[ 7974 7965 7964 7962 ] final  -95.32 input  175.53 | X-H torsion
[ 8008 7997 7996 7995 ] final -100.06 input   59.86 | X-H torsion
[ 10167 10162 10161 10158 ] final   79.53 input  -65.29 | X-H torsion
[ 10718 10713 10712 10709 ] final   97.09 input   66.30 | X-H torsion
[ 10763 10752 10751 10750 ] final   83.87 input  -60.55 | X-H torsion
[ 11005 11000 10999 10996 ] final  -94.57 input  -57.11 | X-H torsion

> <Gold.Protein.ActiveResidues>
 VAL166  LYS551  ARG553  GLY616  TRP617  ASP618  TYR619  PRO620  LYS621  CYS622 
 ASP623  PHE694  ASN695  SER759  ASP760  ASP761  ALA762  ILE779  LEU786  VAL792 
 PHE793  MET794  SER795  GLU796  ALA797  LYS798  CYS799  TRP800  GLU811  SER814 

> <Gold.Protein.RotatedAtoms>
  151.8631  135.0517  160.0471 H   0  0  0  0  0  0  0  0  0  0  0  0  # atno 6907 bound_to 6896
  152.2647  133.5324  159.5411 H   0  0  0  0  0  0  0  0  0  0  0  0  # atno 6908 bound_to 6896
  150.7129  134.0697  159.3902 H   0  0  0  0  0  0  0  0  0  0  0  0  # atno 6909 bound_to 6896
  145.3616  140.9492  143.2497 H   0  0  0  0  0  0  0  0  0  0  0  0  # atno 7974 bound_to 7965
  154.8234  140.0443  157.1426 H   0  0  0  0  0  0  0  0  0  0  0  0  # atno 8008 bound_to 7997
  154.9234  140.3030  155.5184 H   0  0  0  0  0  0  0  0  0  0  0  0  # atno 8009 bound_to 7997
  156.2982  140.2336  156.4286 H   0  0  0  0  0  0  0  0  0  0  0  0  # atno 8010 bound_to 7997
  139.9593  144.5972  150.8087 H   0  0  0  0  0  0  0  0  0  0  0  0  # atno 10167 bound_to 10162
  157.6917  131.0599  150.4591 H   0  0  0  0  0  0  0  0  0  0  0  0  # atno 10718 bound_to 10713
  153.1330  135.4675  154.9378 H   0  0  0  0  0  0  0  0  0  0  0  0  # atno 10763 bound_to 10752
  154.7681  135.3150  154.8248 H   0  0  0  0  0  0  0  0  0  0  0  0  # atno 10764 bound_to 10752
  153.8786  135.6896  153.4822 H   0  0  0  0  0  0  0  0  0  0  0  0  # atno 10765 bound_to 10752
  141.1466  133.7966  157.0317 H   0  0  0  0  0  0  0  0  0  0  0  0  # atno 11005 bound_to 11000
  144.8642  139.5132  143.6798 LP  0  0  0  0  0  0  0  0  0  0  0  0  # atno 17320 bound_to 7965
  146.2925  139.7180  142.9151 LP  0  0  0  0  0  0  0  0  0  0  0  0  # atno 17321 bound_to 7965
  140.7558  143.3053  151.2976 LP  0  0  0  0  0  0  0  0  0  0  0  0  # atno 17342 bound_to 10162
  139.6566  144.0264  152.2664 LP  0  0  0  0  0  0  0  0  0  0  0  0  # atno 17343 bound_to 10162
  156.4937  130.4101  149.6392 LP  0  0  0  0  0  0  0  0  0  0  0  0  # atno 17370 bound_to 10713
  156.3393  130.7373  151.2316 LP  0  0  0  0  0  0  0  0  0  0  0  0  # atno 17371 bound_to 10713
  140.0750  134.9681  157.1530 LP  0  0  0  0  0  0  0  0  0  0  0  0  # atno 17394 bound_to 11000
  140.3657  134.2445  155.7182 LP  0  0  0  0  0  0  0  0  0  0  0  0  # atno 17395 bound_to 11000

$$$$
