AV-unprocessed.smi:379|AV-procd|sdf|2458|dock9
  -GOLD-   2262022403D 1   1.00000     0.00000
 Structure written by MMmdl.
 39 40  0  0  0  0  0  0  0  0  1 V2000
  151.8883  146.1334  160.0972 C   0  0  0  0  0  0  0  0  0  0  0  0
  151.0056  145.4634  159.0337 C   0  0  0  0  0  0  0  0  0  0  0  0
  151.4169  144.0156  158.6999 C   0  0  2  0  0  0  0  0  0  0  0  0
  152.9283  143.8049  158.8627 C   0  0  0  0  0  0  0  0  0  0  0  0
  151.0310  143.6738  157.3318 N   0  0  0  0  0  0  0  0  0  0  0  0
  150.7247  142.4480  156.8791 C   0  0  0  0  0  0  0  0  0  0  0  0
  150.7549  141.4370  157.5824 O   0  0  0  0  0  0  0  0  0  0  0  0
  150.3223  142.3685  155.3990 C   0  0  0  0  0  0  0  0  0  0  0  0
  149.9214  141.0100  154.9716 N   0  0  0  0  0  0  0  0  0  0  0  0
  150.8157  139.9363  155.2152 C   0  0  0  0  0  0  0  0  0  0  0  0
  151.9026  140.1278  155.7640 O   0  0  0  0  0  0  0  0  0  0  0  0
  150.3546  138.6214  154.7761 C   0  0  0  0  0  0  0  0  0  0  0  0
  151.2083  137.5107  155.0388 C   0  0  0  0  0  0  0  0  0  0  0  0
  151.8836  136.5933  155.2438 N   0  0  0  0  0  0  0  0  0  0  0  0
  149.1665  138.4736  154.1547 C   0  0  0  0  0  0  0  0  0  0  0  0
  148.3353  139.5380  153.8814 N   0  0  0  0  0  0  0  0  0  0  0  0
  147.0102  139.3399  153.3652 C   0  0  0  0  0  0  0  0  0  0  0  0
  146.8364  138.6489  152.0302 C   0  0  0  0  0  0  0  0  0  0  0  0
  146.5353  140.1224  152.1564 C   0  0  0  0  0  0  0  0  0  0  0  0
  148.6752  140.8360  154.3215 C   0  0  0  0  0  0  0  0  0  0  0  0
  147.9092  141.7875  154.1505 O   0  0  0  0  0  0  0  0  0  0  0  0
  151.5861  147.1690  160.2542 H   0  0  0  0  0  0  0  0  0  0  0  0
  152.9354  146.1356  159.7935 H   0  0  0  0  0  0  0  0  0  0  0  0
  151.8192  145.6231  161.0581 H   0  0  0  0  0  0  0  0  0  0  0  0
  149.9661  145.4858  159.3632 H   0  0  0  0  0  0  0  0  0  0  0  0
  151.0463  146.0636  158.1243 H   0  0  0  0  0  0  0  0  0  0  0  0
  150.9204  143.3506  159.4086 H   0  0  0  0  0  0  0  0  0  0  0  0
  153.2483  144.0292  159.8806 H   0  0  0  0  0  0  0  0  0  0  0  0
  153.4956  144.4457  158.1867 H   0  0  0  0  0  0  0  0  0  0  0  0
  153.2048  142.7711  158.6529 H   0  0  0  0  0  0  0  0  0  0  0  0
  150.9794  144.4393  156.6756 H   0  0  0  0  0  0  0  0  0  0  0  0
  149.5127  143.0768  155.2141 H   0  0  0  0  0  0  0  0  0  0  0  0
  151.1497  142.7531  154.8013 H   0  0  0  0  0  0  0  0  0  0  0  0
  148.8555  137.4841  153.8518 H   0  0  0  0  0  0  0  0  0  0  0  0
  146.2506  139.1189  154.1130 H   0  0  0  0  0  0  0  0  0  0  0  0
  147.7303  138.3702  151.4754 H   0  0  0  0  0  0  0  0  0  0  0  0
  145.9928  137.9700  151.9250 H   0  0  0  0  0  0  0  0  0  0  0  0
  145.4909  140.4270  152.1361 H   0  0  0  0  0  0  0  0  0  0  0  0
  147.2308  140.8135  151.6839 H   0  0  0  0  0  0  0  0  0  0  0  0
  1  2  1  0  0  0  0
  1 22  1  0  0  0  0
  1 23  1  0  0  0  0
  1 24  1  0  0  0  0
  2  3  1  0  0  0  0
  2 25  1  0  0  0  0
  2 26  1  0  0  0  0
  3  4  1  0  0  0  0
  3  5  1  0  0  0  0
  3 27  1  0  0  0  0
  4 28  1  0  0  0  0
  4 29  1  0  0  0  0
  4 30  1  0  0  0  0
  5  6  1  0  0  0  0
  5 31  1  0  0  0  0
  6  7  2  0  0  0  0
  6  8  1  0  0  0  0
  8  9  1  0  0  0  0
  8 32  1  0  0  0  0
  8 33  1  0  0  0  0
  9 20  1  0  0  0  0
  9 10  1  0  0  0  0
 10 11  2  0  0  0  0
 10 12  1  0  0  0  0
 12 13  1  0  0  0  0
 12 15  2  0  0  0  0
 13 14  3  0  0  0  0
 15 16  1  0  0  0  0
 15 34  1  0  0  0  0
 16 17  1  0  0  0  0
 16 20  1  0  0  0  0
 17 19  1  0  0  0  0
 17 18  1  0  0  0  0
 17 35  1  0  0  0  0
 18 19  1  0  0  0  0
 18 36  1  0  0  0  0
 18 37  1  0  0  0  0
 19 38  1  0  0  0  0
 19 39  1  0  0  0  0
 20 21  2  0  0  0  0
M  END
> <s_m_source_file>
AV-unprocessed.smi

> <i_m_source_file_index>
379

> <i_lp_mmshare_version>
43012

> <i_f3d_flags>
0

> <s_epik_input>
W0NIM11bQ0gyXVtDQEhdKFtDSDNdKVtOSF1DKD1PKVtDSDJdbjFjKD1PKWMoQyNOKVtjSF1uKGMxPU8pW0NIXTJbQ0gyXVtDSDJdMg==

> <s_epik_cmdline>
J2VwaWtfcHl0aG9uJywgJy1waCcsICc3LjAnLCAnLXRuJywgJzgnLCAnLW1hJywgJzIwMCcsICctbWV0YWxfYmluZGluZycsICctaW1hZScsICc8aW5maWxlLm1hZT4nLCAnLW9tYWUnLCAnPG91dGZpbGUubWFlPic=

> <r_lp_tautomer_probability>
1

> <r_epik_Ionization_Penalty>
1.93863e-08

> <r_epik_Ionization_Penalty_Charging>
8.45512e-11

> <r_epik_Ionization_Penalty_Neutral>
1.93017e-08

> <r_epik_State_Penalty>
-0

> <r_epik_Charging_Adjusted_Penalty>
8.45512e-11

> <i_epik_Tot_Q>
0

> <i_epik_Tot_abs_Q>
0

> <r_epik_Metal_State_Penalty>
-0

> <b_epik_Metal_Only>
0

> <s_lp_Force_Field>
OPLS_2005

> <r_lp_Energy>
29.5524

> <b_lp_Chiralities_Consistent>
1

> <s_lp_Variant>
AV-unprocessed.smi:379-1

> <Gold.Version>
5.8.1

> <Gold.Id.Protein>
6NUR|6NUR_protein|mol2

> <Gold.PLP.Fitness>
45.0046

> <Gold.PLP.PLP>
-40.4000

> <Gold.PLP.part.hbond>
-2.1731

> <Gold.PLP.part.metal>
0.0000

> <Gold.PLP.part.buried>
5.4457

> <Gold.PLP.part.nonpolar>
-43.7352

> <Gold.PLP.part.repulsive>
0.2881

> <Gold.PLP.ligand.clash>
0.0000

> <Gold.PLP.ligand.torsion>
0.8705

> <Gold.PLP.Chemscore.Hbond>
1.0375

> <Gold.PLP.Chemscore.CHOScore>
1.0000

> <Gold.PLP.Chemscore.Metal>
0.0000

> <Gold.Chemscore.Hbonds>
donor molecule, donor type, donor heavy atom, donor atom, acceptor molecule, acceptor atom, score
      L1  H     5    31       P1  8028  0.09
      P1  H 10752 10765       L1    14  0.90
      L1  C    15    34       P1  7948  1.00

> <Gold.PLP.Chemscore.Internal.Correction>
0.2331

> <Gold.Rescore>
     Score         DG    S(hbond)    S(metal)    S(lipo)     H(rot)  DE(clash)    DE(int)     intcor
      6.83     -14.54       0.99        0.00      92.39       1.98       1.92       5.80       ----

> <Gold.Chemscore.Fitness>
6.8277

> <Gold.Chemscore.DG>
-14.5443

> <Gold.Chemscore.ZeroCoef>
-5.4800

> <Gold.Chemscore.Hbond>
0.9932

> <Gold.Chemscore.Metal>
0.0000

> <Gold.Chemscore.Lipo>
92.3858

> <Gold.Chemscore.Internal_Hbond>
0.0000

> <Gold.Chemscore.DEClash>
1.9202

> <Gold.Chemscore.DEInternal>
5.7963

> <Gold.Chemscore.Rot>
1.9774

> <Gold.Chemscore.Internal.Correction>
   9.000000E+99

> <Gold.Chemscore.Hbonds>
donor molecule, donor type, donor heavy atom, donor atom, acceptor molecule, acceptor atom, score
      L1  H     5    31       P1  8028  0.10
      P1  H  7997  8008       L1    11  0.01
      P1  H 10752 10765       L1    14  0.88

> <Gold.Chemscore.Hbond.Weighted>
-3.3174

> <Gold.Chemscore.Metal.Weighted>
-0.0000

> <Gold.Chemscore.Lipo.Weighted>
-10.8091

> <Gold.Chemscore.Internal_Hbond.Weighted>
0.0000

> <Gold.Chemscore.DEClash.Weighted>
1.9202

> <Gold.Chemscore.DEInternal.Weighted>
5.7963

> <Gold.Chemscore.Rot.Weighted>
5.0623

> <Gold.Chemscore.Internal.Correction.Weighted>
   9.000000E+99

> <Gold.Protein.RotatedTorsions>
[ 6907 6896 6895 6894 ] final   67.99 input  -60.11 | X-H torsion
[ 7974 7965 7964 7962 ] final  -67.72 input  175.53 | X-H torsion
[ 8008 7997 7996 7995 ] final  -23.36 input   59.86 | X-H torsion
[ 10167 10162 10161 10158 ] final   49.15 input  -65.29 | X-H torsion
[ 10718 10713 10712 10709 ] final    5.12 input   66.30 | X-H torsion
[ 10763 10752 10751 10750 ] final  164.95 input  -60.55 | X-H torsion
[ 11005 11000 10999 10996 ] final   42.09 input  -57.11 | X-H torsion

> <Gold.Protein.ActiveResidues>
 VAL166  LYS551  ARG553  GLY616  TRP617  ASP618  TYR619  PRO620  LYS621  CYS622 
 ASP623  PHE694  ASN695  SER759  ASP760  ASP761  ALA762  ILE779  LEU786  VAL792 
 PHE793  MET794  SER795  GLU796  ALA797  LYS798  CYS799  TRP800  GLU811  SER814 

> <Gold.Protein.RotatedAtoms>
  152.4590  134.5227  159.9787 H   0  0  0  0  0  0  0  0  0  0  0  0  # atno 6907 bound_to 6896
  151.5281  133.3448  159.2921 H   0  0  0  0  0  0  0  0  0  0  0  0  # atno 6908 bound_to 6896
  150.8545  134.7910  159.7097 H   0  0  0  0  0  0  0  0  0  0  0  0  # atno 6909 bound_to 6896
  145.7256  140.9019  143.0607 H   0  0  0  0  0  0  0  0  0  0  0  0  # atno 7974 bound_to 7965
  154.4590  140.1983  156.0298 H   0  0  0  0  0  0  0  0  0  0  0  0  # atno 8008 bound_to 7997
  156.0803  140.3272  155.7657 H   0  0  0  0  0  0  0  0  0  0  0  0  # atno 8009 bound_to 7997
  155.5123  140.0563  157.2912 H   0  0  0  0  0  0  0  0  0  0  0  0  # atno 8010 bound_to 7997
  140.2859  144.3103  150.6252 H   0  0  0  0  0  0  0  0  0  0  0  0  # atno 10167 bound_to 10162
  156.9027  130.5727  149.5648 H   0  0  0  0  0  0  0  0  0  0  0  0  # atno 10718 bound_to 10713
  154.3166  135.2756  155.2540 H   0  0  0  0  0  0  0  0  0  0  0  0  # atno 10763 bound_to 10752
  154.4911  135.5833  153.6464 H   0  0  0  0  0  0  0  0  0  0  0  0  # atno 10764 bound_to 10752
  152.9881  135.6135  154.3348 H   0  0  0  0  0  0  0  0  0  0  0  0  # atno 10765 bound_to 10752
  140.1772  134.4149  155.8221 H   0  0  0  0  0  0  0  0  0  0  0  0  # atno 11005 bound_to 11000
  144.6905  139.9261  143.7470 LP  0  0  0  0  0  0  0  0  0  0  0  0  # atno 17320 bound_to 7965
  146.0585  139.3580  143.0595 LP  0  0  0  0  0  0  0  0  0  0  0  0  # atno 17321 bound_to 7965
  140.5773  143.2175  151.7491 LP  0  0  0  0  0  0  0  0  0  0  0  0  # atno 17342 bound_to 10162
  139.4950  144.4131  152.0059 LP  0  0  0  0  0  0  0  0  0  0  0  0  # atno 17343 bound_to 10162
  156.0574  130.5633  150.9121 LP  0  0  0  0  0  0  0  0  0  0  0  0  # atno 17370 bound_to 10713
  157.6016  131.0941  150.8950 LP  0  0  0  0  0  0  0  0  0  0  0  0  # atno 17371 bound_to 10713
  141.2221  133.6983  156.7867 LP  0  0  0  0  0  0  0  0  0  0  0  0  # atno 17394 bound_to 11000
  140.2309  134.8686  157.3475 LP  0  0  0  0  0  0  0  0  0  0  0  0  # atno 17395 bound_to 11000

$$$$
