AV-unprocessed.smi:1501|AV-procd|sdf|6066|dock3
  -GOLD-   22720 6183D 1   1.00000     0.00000
 Structure written by MMmdl.
 48 49  0  0  0  0  0  0  0  0  2 V2000
  152.3340  137.6078  158.4486 C   0  0  0  0  0  0  0  0  0  0  0  0
  151.9456  138.8264  157.6304 C   0  0  0  0  0  0  0  0  0  0  0  0
  152.0443  140.0615  158.2873 N   0  0  0  0  0  0  0  0  0  0  0  0
  151.7276  141.1587  157.6682 C   0  0  0  0  0  0  0  0  0  0  0  0
  151.8126  142.4082  158.2885 N   0  0  0  0  0  0  0  0  0  0  0  0
  152.7532  142.6418  159.3869 C   0  0  0  0  0  0  0  0  0  0  0  0
  152.3156  143.8334  160.2548 C   0  0  0  0  0  0  0  0  0  0  0  0
  152.1573  144.9882  159.4414 O   0  0  0  0  0  0  0  0  0  0  0  0
  151.1511  144.7917  158.4575 C   0  0  0  0  0  0  0  0  0  0  0  0
  151.5514  143.6321  157.5302 C   0  0  0  0  0  0  0  0  0  0  0  0
  151.2948  141.1702  156.3513 N   0  5  0  0  0  0  0  0  0  0  0  0
  151.1822  140.0075  155.6482 C   0  0  0  0  0  0  0  0  0  0  0  0
  150.8104  139.9876  154.4753 O   0  0  0  0  0  0  0  0  0  0  0  0
  151.5286  138.7512  156.3353 C   0  0  0  0  0  0  0  0  0  0  0  0
  151.3863  137.4327  155.5781 C   0  0  0  0  0  0  0  0  0  0  0  0
  150.0156  136.7717  155.8194 C   0  0  0  0  0  0  0  0  0  0  0  0
  150.0124  135.2657  155.5399 C   0  0  0  0  0  0  0  0  0  0  0  0
  150.2039  134.4564  156.4482 O   0  0  0  0  0  0  0  0  0  0  0  0
  149.8026  134.9013  154.2658 N   0  0  0  0  0  0  0  0  0  0  0  0
  149.7761  133.5248  153.7813 C   0  0  0  0  0  0  0  0  0  0  0  0
  148.4514  132.8038  154.1098 C   0  0  0  0  0  0  0  0  0  0  0  0
  148.5986  131.2864  153.9258 C   0  0  0  0  0  0  0  0  0  0  0  0
  147.2732  133.3412  153.2795 C   0  0  0  0  0  0  0  0  0  0  0  0
  153.0681  137.0037  157.9151 H   0  0  0  0  0  0  0  0  0  0  0  0
  151.4577  136.9923  158.6522 H   0  0  0  0  0  0  0  0  0  0  0  0
  152.7713  137.8978  159.4048 H   0  0  0  0  0  0  0  0  0  0  0  0
  152.8551  141.7620  160.0227 H   0  0  0  0  0  0  0  0  0  0  0  0
  153.7390  142.8352  158.9627 H   0  0  0  0  0  0  0  0  0  0  0  0
  151.3843  143.6110  160.7780 H   0  0  0  0  0  0  0  0  0  0  0  0
  153.0678  144.0378  161.0168 H   0  0  0  0  0  0  0  0  0  0  0  0
  150.1907  144.5925  158.9359 H   0  0  0  0  0  0  0  0  0  0  0  0
  151.0345  145.7091  157.8807 H   0  0  0  0  0  0  0  0  0  0  0  0
  152.4463  143.8962  156.9658 H   0  0  0  0  0  0  0  0  0  0  0  0
  150.7535  143.4669  156.8049 H   0  0  0  0  0  0  0  0  0  0  0  0
  151.5348  137.6086  154.5128 H   0  0  0  0  0  0  0  0  0  0  0  0
  152.1899  136.7532  155.8671 H   0  0  0  0  0  0  0  0  0  0  0  0
  149.7030  136.9452  156.8503 H   0  0  0  0  0  0  0  0  0  0  0  0
  149.2619  137.2362  155.1830 H   0  0  0  0  0  0  0  0  0  0  0  0
  149.6527  135.6303  153.5832 H   0  0  0  0  0  0  0  0  0  0  0  0
  149.9307  133.5439  152.7021 H   0  0  0  0  0  0  0  0  0  0  0  0
  150.6215  132.9754  154.1994 H   0  0  0  0  0  0  0  0  0  0  0  0
  148.2203  132.9782  155.1617 H   0  0  0  0  0  0  0  0  0  0  0  0
  148.8339  131.0326  152.8916 H   0  0  0  0  0  0  0  0  0  0  0  0
  147.6792  130.7660  154.1960 H   0  0  0  0  0  0  0  0  0  0  0  0
  149.3958  130.8900  154.5552 H   0  0  0  0  0  0  0  0  0  0  0  0
  147.4523  133.2148  152.2113 H   0  0  0  0  0  0  0  0  0  0  0  0
  147.1021  134.4017  153.4660 H   0  0  0  0  0  0  0  0  0  0  0  0
  146.3491  132.8172  153.5254 H   0  0  0  0  0  0  0  0  0  0  0  0
  1  2  1  0  0  0  0
  1 24  1  0  0  0  0
  1 25  1  0  0  0  0
  1 26  1  0  0  0  0
  2 14  2  0  0  0  0
  2  3  1  0  0  0  0
  3  4  2  0  0  0  0
  4  5  1  0  0  0  0
  4 11  1  0  0  0  0
  5 10  1  0  0  0  0
  5  6  1  0  0  0  0
  6  7  1  0  0  0  0
  6 27  1  0  0  0  0
  6 28  1  0  0  0  0
  7  8  1  0  0  0  0
  7 29  1  0  0  0  0
  7 30  1  0  0  0  0
  8  9  1  0  0  0  0
  9 10  1  0  0  0  0
  9 31  1  0  0  0  0
  9 32  1  0  0  0  0
 10 33  1  0  0  0  0
 10 34  1  0  0  0  0
 11 12  1  0  0  0  0
 12 13  2  0  0  0  0
 12 14  1  0  0  0  0
 14 15  1  0  0  0  0
 15 16  1  0  0  0  0
 15 35  1  0  0  0  0
 15 36  1  0  0  0  0
 16 17  1  0  0  0  0
 16 37  1  0  0  0  0
 16 38  1  0  0  0  0
 17 18  2  0  0  0  0
 17 19  1  0  0  0  0
 19 20  1  0  0  0  0
 19 39  1  0  0  0  0
 20 21  1  0  0  0  0
 20 40  1  0  0  0  0
 20 41  1  0  0  0  0
 21 22  1  0  0  0  0
 21 23  1  0  0  0  0
 21 42  1  0  0  0  0
 22 43  1  0  0  0  0
 22 44  1  0  0  0  0
 22 45  1  0  0  0  0
 23 46  1  0  0  0  0
 23 47  1  0  0  0  0
 23 48  1  0  0  0  0
M  CHG  1  11  -1
M  END
> <s_m_source_file>
AV-unprocessed.smi

> <i_m_source_file_index>
1501

> <i_lp_mmshare_version>
43012

> <i_f3d_flags>
0

> <s_epik_input>
W0NIMl0xW0NIMl1PW0NIMl1bQ0gyXU4xYyhuYzJbQ0gzXSlbbkhdYyg9TyljMltDSDJdW0NIMl1DKD1PKVtOSF1bQ0gyXVtDSF0oW0NIM10pW0NIM10=

> <s_epik_cmdline>
J2VwaWtfcHl0aG9uJywgJy1waCcsICc3LjAnLCAnLXRuJywgJzgnLCAnLW1hJywgJzIwMCcsICctbWV0YWxfYmluZGluZycsICctaW1hZScsICc8aW5maWxlLm1hZT4nLCAnLW9tYWUnLCAnPG91dGZpbGUubWFlPic=

> <r_lp_tautomer_probability>
1

> <r_epik_Ionization_Penalty>
5.04715

> <r_epik_Ionization_Penalty_Charging>
9.89309e-08

> <r_epik_Ionization_Penalty_Neutral>
5.04715

> <r_epik_State_Penalty>
2.57778

> <r_epik_Charging_Adjusted_Penalty>
2.57778

> <i_epik_Tot_Q>
-1

> <i_epik_Tot_abs_Q>
1

> <r_epik_Metal_State_Penalty>
0.1232

> <b_epik_Metal_Only>
0

> <s_lp_Force_Field>
OPLS_2005

> <r_lp_Energy>
25.0321

> <b_lp_Chiralities_Consistent>
1

> <s_lp_Variant>
AV-unprocessed.smi:1501-3

> <Gold.Version>
5.8.1

> <Gold.Id.Protein>
6NUR|6NUR_protein|mol2

> <Gold.PLP.Fitness>
43.6540

> <Gold.PLP.PLP>
-40.0075

> <Gold.PLP.part.hbond>
-2.0000

> <Gold.PLP.part.metal>
0.0000

> <Gold.PLP.part.buried>
-6.7361

> <Gold.PLP.part.nonpolar>
-31.3832

> <Gold.PLP.part.repulsive>
0.2185

> <Gold.PLP.ligand.clash>
0.3052

> <Gold.PLP.ligand.torsion>
1.1802

> <Gold.PLP.Chemscore.Hbond>
1.9920

> <Gold.PLP.Chemscore.CHOScore>
0.0000

> <Gold.PLP.Chemscore.Metal>
0.0000

> <Gold.Chemscore.Hbonds>
donor molecule, donor type, donor heavy atom, donor atom, acceptor molecule, acceptor atom, score
      L1  H    19    39       P1  7948  0.80
      P1  H  7989  7998       L1    13  1.00

> <Gold.PLP.Chemscore.Internal.Correction>
0.3362

> <Gold.Rescore>
     Score         DG    S(hbond)    S(metal)    S(lipo)     H(rot)  DE(clash)    DE(int)     intcor
     15.40     -16.70       1.72        0.00      85.84       1.79       0.13       1.17       ----

> <Gold.Chemscore.Fitness>
15.4041

> <Gold.Chemscore.DG>
-16.6988

> <Gold.Chemscore.ZeroCoef>
-5.4800

> <Gold.Chemscore.Hbond>
1.7219

> <Gold.Chemscore.Metal>
0.0000

> <Gold.Chemscore.Lipo>
85.8424

> <Gold.Chemscore.Internal_Hbond>
0.0000

> <Gold.Chemscore.DEClash>
0.1292

> <Gold.Chemscore.DEInternal>
1.1655

> <Gold.Chemscore.Rot>
1.7875

> <Gold.Chemscore.Internal.Correction>
   9.000000E+99

> <Gold.Chemscore.Hbonds>
donor molecule, donor type, donor heavy atom, donor atom, acceptor molecule, acceptor atom, score
      L1  H    19    39       P1  7948  0.11
      P1  H  7989  7998       L1    13  0.88

> <Gold.Chemscore.Hbond.Weighted>
-5.7513

> <Gold.Chemscore.Metal.Weighted>
-0.0000

> <Gold.Chemscore.Lipo.Weighted>
-10.0436

> <Gold.Chemscore.Internal_Hbond.Weighted>
0.0000

> <Gold.Chemscore.DEClash.Weighted>
0.1292

> <Gold.Chemscore.DEInternal.Weighted>
1.1655

> <Gold.Chemscore.Rot.Weighted>
4.5760

> <Gold.Chemscore.Internal.Correction.Weighted>
   9.000000E+99

> <Gold.Protein.RotatedTorsions>
[ 6907 6896 6895 6894 ] final  166.99 input  -60.11 | X-H torsion
[ 7974 7965 7964 7962 ] final  153.97 input  175.53 | X-H torsion
[ 8008 7997 7996 7995 ] final   36.57 input   59.86 | X-H torsion
[ 10167 10162 10161 10158 ] final  -76.07 input  -65.29 | X-H torsion
[ 10718 10713 10712 10709 ] final   -8.30 input   66.30 | X-H torsion
[ 10763 10752 10751 10750 ] final   91.53 input  -60.55 | X-H torsion
[ 11005 11000 10999 10996 ] final  -95.45 input  -57.11 | X-H torsion

> <Gold.Protein.ActiveResidues>
 VAL166  LYS551  ARG553  GLY616  TRP617  ASP618  TYR619  PRO620  LYS621  CYS622 
 ASP623  PHE694  ASN695  SER759  ASP760  ASP761  ALA762  ILE779  LEU786  VAL792 
 PHE793  MET794  SER795  GLU796  ALA797  LYS798  CYS799  TRP800  GLU811  SER814 

> <Gold.Protein.RotatedAtoms>
  151.8702  133.3474  159.3732 H   0  0  0  0  0  0  0  0  0  0  0  0  # atno 6907 bound_to 6896
  150.7155  134.5120  159.5621 H   0  0  0  0  0  0  0  0  0  0  0  0  # atno 6908 bound_to 6896
  152.2651  134.7993  160.0475 H   0  0  0  0  0  0  0  0  0  0  0  0  # atno 6909 bound_to 6896
  144.8119  139.6872  143.6138 H   0  0  0  0  0  0  0  0  0  0  0  0  # atno 7974 bound_to 7965
  155.1896  140.3307  155.4361 H   0  0  0  0  0  0  0  0  0  0  0  0  # atno 8008 bound_to 7997
  156.2447  140.1912  156.6940 H   0  0  0  0  0  0  0  0  0  0  0  0  # atno 8009 bound_to 7997
  154.6215  140.0595  156.9606 H   0  0  0  0  0  0  0  0  0  0  0  0  # atno 8010 bound_to 7997
  140.4888  143.2385  151.7940 H   0  0  0  0  0  0  0  0  0  0  0  0  # atno 10167 bound_to 10162
  156.7047  130.5104  149.5908 H   0  0  0  0  0  0  0  0  0  0  0  0  # atno 10718 bound_to 10713
  153.2093  135.4394  155.0360 H   0  0  0  0  0  0  0  0  0  0  0  0  # atno 10763 bound_to 10752
  154.8191  135.3329  154.7093 H   0  0  0  0  0  0  0  0  0  0  0  0  # atno 10764 bound_to 10752
  153.7532  135.6997  153.4997 H   0  0  0  0  0  0  0  0  0  0  0  0  # atno 10765 bound_to 10752
  141.1441  133.8027  157.0436 H   0  0  0  0  0  0  0  0  0  0  0  0  # atno 11005 bound_to 11000
  146.2418  139.6018  142.9486 LP  0  0  0  0  0  0  0  0  0  0  0  0  # atno 17320 bound_to 7965
  145.5304  141.0427  143.2386 LP  0  0  0  0  0  0  0  0  0  0  0  0  # atno 17321 bound_to 7965
  139.4847  144.4676  151.9465 LP  0  0  0  0  0  0  0  0  0  0  0  0  # atno 17342 bound_to 10162
  140.3762  144.2793  150.5914 LP  0  0  0  0  0  0  0  0  0  0  0  0  # atno 17343 bound_to 10162
  156.1704  130.6433  151.0830 LP  0  0  0  0  0  0  0  0  0  0  0  0  # atno 17370 bound_to 10713
  157.6959  131.0794  150.6968 LP  0  0  0  0  0  0  0  0  0  0  0  0  # atno 17371 bound_to 10713
  140.0677  134.9720  157.1413 LP  0  0  0  0  0  0  0  0  0  0  0  0  # atno 17394 bound_to 11000
  140.3756  134.2342  155.7174 LP  0  0  0  0  0  0  0  0  0  0  0  0  # atno 17395 bound_to 11000

$$$$
