AV-unprocessed.smi:150|AV-procd|sdf|1242|dock10
  -GOLD-   2262018463D 1   1.00000     0.00000
 Structure written by MMmdl.
 55 57  0  0  0  0  0  0  0  0  1 V2000
  146.3830  132.7641  150.2113 C   0  0  0  0  0  0  0  0  0  0  0  0
  145.5578  131.6960  150.9501 C   0  0  0  0  0  0  0  0  0  0  0  0
  144.0606  131.8958  150.6676 C   0  0  0  0  0  0  0  0  0  0  0  0
  145.8236  131.6911  152.4733 C   0  0  0  0  0  0  0  0  0  0  0  0
  147.1039  130.9419  152.9315 C   0  0  2  0  0  0  0  0  0  0  0  0
  147.1154  129.4478  152.5219 C   0  0  0  0  0  0  0  0  0  0  0  0
  148.4210  128.9243  152.6452 O   0  0  0  0  0  0  0  0  0  0  0  0
  147.3759  131.1425  154.3650 N   0  0  0  0  0  0  0  0  0  0  0  0
  146.7680  130.2066  155.3062 C   0  0  0  0  0  0  0  0  0  0  0  0
  148.5140  131.7301  154.8246 C   0  0  0  0  0  0  0  0  0  0  0  0
  149.6276  130.9854  155.0530 N   0  0  0  0  0  0  0  0  0  0  0  0
  150.7422  131.5545  155.5204 C   0  0  0  0  0  0  0  0  0  0  0  0
  150.9587  132.8337  155.8297 N   0  0  0  0  0  0  0  0  0  0  0  0
  149.8451  133.5891  155.6107 C   0  0  0  0  0  0  0  0  0  0  0  0
  148.5945  133.1232  155.1132 C   0  0  0  0  0  0  0  0  0  0  0  0
  147.7046  134.1863  155.0091 N   0  0  0  0  0  0  0  0  0  0  0  0
  148.3869  135.2175  155.4249 C   0  0  0  0  0  0  0  0  0  0  0  0
  149.6788  134.9478  155.8158 N   0  0  0  0  0  0  0  0  0  0  0  0
  150.6533  135.9045  156.3183 C   0  0  0  0  0  0  0  0  0  0  0  0
  151.1126  136.9508  155.2718 C   0  0  0  0  0  0  0  0  0  0  0  0
  151.5961  136.2491  154.1397 O   0  0  0  0  0  0  0  0  0  0  0  0
  149.9198  137.8232  154.8307 C   0  0  0  0  0  0  0  0  0  0  0  0
  150.3544  138.9915  153.9281 C   0  0  0  0  0  0  0  0  0  0  0  0
  151.3491  139.7681  154.5840 O   0  0  0  0  0  0  0  0  0  0  0  0
  152.5385  139.0318  154.8399 C   0  0  0  0  0  0  0  0  0  0  0  0
  152.2429  137.8634  155.7970 C   0  0  0  0  0  0  0  0  0  0  0  0
  146.1960  133.7594  150.6155 H   0  0  0  0  0  0  0  0  0  0  0  0
  146.1331  132.7861  149.1502 H   0  0  0  0  0  0  0  0  0  0  0  0
  147.4529  132.5710  150.2802 H   0  0  0  0  0  0  0  0  0  0  0  0
  145.8262  130.7244  150.5375 H   0  0  0  0  0  0  0  0  0  0  0  0
  143.7108  132.8579  151.0433 H   0  0  0  0  0  0  0  0  0  0  0  0
  143.4621  131.1165  151.1404 H   0  0  0  0  0  0  0  0  0  0  0  0
  143.8538  131.8612  149.5976 H   0  0  0  0  0  0  0  0  0  0  0  0
  145.8638  132.7276  152.8107 H   0  0  0  0  0  0  0  0  0  0  0  0
  144.9589  131.2562  152.9745 H   0  0  0  0  0  0  0  0  0  0  0  0
  147.9452  131.4082  152.4200 H   0  0  0  0  0  0  0  0  0  0  0  0
  146.4166  128.8372  153.0909 H   0  0  0  0  0  0  0  0  0  0  0  0
  146.8348  129.3327  151.4764 H   0  0  0  0  0  0  0  0  0  0  0  0
  148.5908  128.7538  153.5590 H   0  0  0  0  0  0  0  0  0  0  0  0
  146.0976  130.7333  155.9852 H   0  0  0  0  0  0  0  0  0  0  0  0
  147.5249  129.6907  155.8989 H   0  0  0  0  0  0  0  0  0  0  0  0
  146.1816  129.4479  154.7874 H   0  0  0  0  0  0  0  0  0  0  0  0
  151.5796  130.8890  155.6693 H   0  0  0  0  0  0  0  0  0  0  0  0
  147.9614  136.2097  155.4642 H   0  0  0  0  0  0  0  0  0  0  0  0
  150.2281  136.4019  157.1916 H   0  0  0  0  0  0  0  0  0  0  0  0
  151.5139  135.3411  156.6816 H   0  0  0  0  0  0  0  0  0  0  0  0
  150.9581  136.3195  153.4462 H   0  0  0  0  0  0  0  0  0  0  0  0
  149.1687  137.2167  154.3229 H   0  0  0  0  0  0  0  0  0  0  0  0
  149.4304  138.2369  155.7136 H   0  0  0  0  0  0  0  0  0  0  0  0
  150.7304  138.6316  152.9692 H   0  0  0  0  0  0  0  0  0  0  0  0
  149.4990  139.6312  153.7107 H   0  0  0  0  0  0  0  0  0  0  0  0
  152.9672  138.6739  153.9026 H   0  0  0  0  0  0  0  0  0  0  0  0
  153.2745  139.7004  155.2864 H   0  0  0  0  0  0  0  0  0  0  0  0
  151.9520  138.2737  156.7650 H   0  0  0  0  0  0  0  0  0  0  0  0
  153.1568  137.2932  155.9668 H   0  0  0  0  0  0  0  0  0  0  0  0
  1  2  1  0  0  0  0
  1 27  1  0  0  0  0
  1 28  1  0  0  0  0
  1 29  1  0  0  0  0
  2  3  1  0  0  0  0
  2  4  1  0  0  0  0
  2 30  1  0  0  0  0
  3 31  1  0  0  0  0
  3 32  1  0  0  0  0
  3 33  1  0  0  0  0
  4  5  1  0  0  0  0
  4 34  1  0  0  0  0
  4 35  1  0  0  0  0
  5  6  1  0  0  0  0
  5  8  1  0  0  0  0
  5 36  1  0  0  0  0
  6  7  1  0  0  0  0
  6 37  1  0  0  0  0
  6 38  1  0  0  0  0
  7 39  1  0  0  0  0
  8  9  1  0  0  0  0
  8 10  1  0  0  0  0
  9 40  1  0  0  0  0
  9 41  1  0  0  0  0
  9 42  1  0  0  0  0
 10 15  1  0  0  0  0
 10 11  2  0  0  0  0
 11 12  1  0  0  0  0
 12 13  2  0  0  0  0
 12 43  1  0  0  0  0
 13 14  1  0  0  0  0
 14 18  1  0  0  0  0
 14 15  2  0  0  0  0
 15 16  1  0  0  0  0
 16 17  2  0  0  0  0
 17 18  1  0  0  0  0
 17 44  1  0  0  0  0
 18 19  1  0  0  0  0
 19 20  1  0  0  0  0
 19 45  1  0  0  0  0
 19 46  1  0  0  0  0
 20 26  1  0  0  0  0
 20 21  1  0  0  0  0
 20 22  1  0  0  0  0
 21 47  1  0  0  0  0
 22 23  1  0  0  0  0
 22 48  1  0  0  0  0
 22 49  1  0  0  0  0
 23 24  1  0  0  0  0
 23 50  1  0  0  0  0
 23 51  1  0  0  0  0
 24 25  1  0  0  0  0
 25 26  1  0  0  0  0
 25 52  1  0  0  0  0
 25 53  1  0  0  0  0
 26 54  1  0  0  0  0
 26 55  1  0  0  0  0
M  END
> <s_m_source_file>
AV-unprocessed.smi

> <i_m_source_file_index>
150

> <i_lp_mmshare_version>
43012

> <i_f3d_flags>
0

> <s_epik_input>
W0NIM11bQ0hdKFtDSDNdKVtDSDJdW0NASF0oW0NIMl1bT0hdKU4oW0NIM10pYyhuW2NIXW4xKWMoYzEyKW5bY0hdbjJbQ0gyXUMzKFtPSF0pW0NIMl1bQ0gyXU9bQ0gyXVtDSDJdMw==

> <s_epik_cmdline>
J2VwaWtfcHl0aG9uJywgJy1waCcsICc3LjAnLCAnLXRuJywgJzgnLCAnLW1hJywgJzIwMCcsICctbWV0YWxfYmluZGluZycsICctaW1hZScsICc8aW5maWxlLm1hZT4nLCAnLW9tYWUnLCAnPG91dGZpbGUubWFlPic=

> <r_lp_tautomer_probability>
1

> <r_epik_Ionization_Penalty>
0.00548416

> <r_epik_Ionization_Penalty_Charging>
0

> <r_epik_Ionization_Penalty_Neutral>
0.00548416

> <r_epik_State_Penalty>
0.0038135

> <r_epik_Charging_Adjusted_Penalty>
0.0038135

> <i_epik_Tot_Q>
0

> <i_epik_Tot_abs_Q>
0

> <r_epik_Metal_State_Penalty>
-0

> <b_epik_Metal_Only>
0

> <s_lp_Force_Field>
OPLS_2005

> <r_lp_Energy>
31.7552

> <b_lp_Chiralities_Consistent>
1

> <s_lp_Variant>
AV-unprocessed.smi:150-1

> <Gold.Version>
5.8.1

> <Gold.Id.Protein>
6NUR|6NUR_protein|mol2

> <Gold.PLP.Fitness>
42.2744

> <Gold.PLP.PLP>
-38.3087

> <Gold.PLP.part.hbond>
-4.0000

> <Gold.PLP.part.metal>
0.0000

> <Gold.PLP.part.buried>
-3.2837

> <Gold.PLP.part.nonpolar>
-30.8216

> <Gold.PLP.part.repulsive>
0.1374

> <Gold.PLP.ligand.clash>
0.0000

> <Gold.PLP.ligand.torsion>
2.1212

> <Gold.PLP.Chemscore.Hbond>
2.3594

> <Gold.PLP.Chemscore.CHOScore>
0.0000

> <Gold.PLP.Chemscore.Metal>
0.0000

> <Gold.Chemscore.Hbonds>
donor molecule, donor type, donor heavy atom, donor atom, acceptor molecule, acceptor atom, score
      L1  H    21    47       P1  7949  0.53
      P1  H  7989  7998       L1    24  1.00
      P1  H 10752 10765       L1    21  0.84

> <Gold.PLP.Chemscore.Internal.Correction>
1.1299

> <Gold.Rescore>
     Score         DG    S(hbond)    S(metal)    S(lipo)     H(rot)  DE(clash)    DE(int)     intcor
      9.08     -11.67       1.27        0.00      90.89       3.40       0.28       2.32       ----

> <Gold.Chemscore.Fitness>
9.0751

> <Gold.Chemscore.DG>
-11.6662

> <Gold.Chemscore.ZeroCoef>
-5.4800

> <Gold.Chemscore.Hbond>
1.2741

> <Gold.Chemscore.Metal>
0.0000

> <Gold.Chemscore.Lipo>
90.8854

> <Gold.Chemscore.Internal_Hbond>
0.0000

> <Gold.Chemscore.DEClash>
0.2751

> <Gold.Chemscore.DEInternal>
2.3160

> <Gold.Chemscore.Rot>
3.3995

> <Gold.Chemscore.Internal.Correction>
   9.000000E+99

> <Gold.Chemscore.Hbonds>
donor molecule, donor type, donor heavy atom, donor atom, acceptor molecule, acceptor atom, score
      L1  H    21    47       P1  7949  0.10
      P1  H  7989  7998       L1    24  0.20
      P1  H 10752 10765       L1    21  0.76

> <Gold.Chemscore.Hbond.Weighted>
-4.2554

> <Gold.Chemscore.Metal.Weighted>
-0.0000

> <Gold.Chemscore.Lipo.Weighted>
-10.6336

> <Gold.Chemscore.Internal_Hbond.Weighted>
0.0000

> <Gold.Chemscore.DEClash.Weighted>
0.2751

> <Gold.Chemscore.DEInternal.Weighted>
2.3160

> <Gold.Chemscore.Rot.Weighted>
8.7028

> <Gold.Chemscore.Internal.Correction.Weighted>
   9.000000E+99

> <Gold.Protein.RotatedTorsions>
[ 6907 6896 6895 6894 ] final  -83.35 input  -60.11 | X-H torsion
[ 7974 7965 7964 7962 ] final  145.97 input  175.53 | X-H torsion
[ 8008 7997 7996 7995 ] final  -68.12 input   59.86 | X-H torsion
[ 10167 10162 10161 10158 ] final  176.55 input  -65.29 | X-H torsion
[ 10718 10713 10712 10709 ] final  -53.76 input   66.30 | X-H torsion
[ 10763 10752 10751 10750 ] final  162.42 input  -60.55 | X-H torsion
[ 11005 11000 10999 10996 ] final -119.54 input  -57.11 | X-H torsion

> <Gold.Protein.ActiveResidues>
 VAL166  LYS551  ARG553  GLY616  TRP617  ASP618  TYR619  PRO620  LYS621  CYS622 
 ASP623  PHE694  ASN695  SER759  ASP760  ASP761  ALA762  ILE779  LEU786  VAL792 
 PHE793  MET794  SER795  GLU796  ALA797  LYS798  CYS799  TRP800  GLU811  SER814 

> <Gold.Protein.RotatedAtoms>
  150.6886  134.3526  159.4915 H   0  0  0  0  0  0  0  0  0  0  0  0  # atno 6907 bound_to 6896
  152.1365  134.9092  160.0565 H   0  0  0  0  0  0  0  0  0  0  0  0  # atno 6908 bound_to 6896
  152.0242  133.3876  159.4307 H   0  0  0  0  0  0  0  0  0  0  0  0  # atno 6909 bound_to 6896
  144.8709  139.5847  143.5887 H   0  0  0  0  0  0  0  0  0  0  0  0  # atno 7974 bound_to 7965
  154.4846  140.0879  156.7456 H   0  0  0  0  0  0  0  0  0  0  0  0  # atno 8008 bound_to 7997
  155.4383  140.3452  155.4269 H   0  0  0  0  0  0  0  0  0  0  0  0  # atno 8009 bound_to 7997
  156.1242  140.1483  156.9148 H   0  0  0  0  0  0  0  0  0  0  0  0  # atno 8010 bound_to 7997
  139.5218  144.2902  152.0470 H   0  0  0  0  0  0  0  0  0  0  0  0  # atno 10167 bound_to 10162
  156.1508  130.4151  149.9948 H   0  0  0  0  0  0  0  0  0  0  0  0  # atno 10718 bound_to 10713
  154.2781  135.2764  155.2709 H   0  0  0  0  0  0  0  0  0  0  0  0  # atno 10763 bound_to 10752
  154.5242  135.5748  153.6709 H   0  0  0  0  0  0  0  0  0  0  0  0  # atno 10764 bound_to 10752
  152.9933  135.6212  154.2939 H   0  0  0  0  0  0  0  0  0  0  0  0  # atno 10765 bound_to 10752
  141.0208  134.0127  157.3285 H   0  0  0  0  0  0  0  0  0  0  0  0  # atno 11005 bound_to 11000
  146.2929  139.7193  142.9147 LP  0  0  0  0  0  0  0  0  0  0  0  0  # atno 17320 bound_to 7965
  145.4132  141.0399  143.3005 LP  0  0  0  0  0  0  0  0  0  0  0  0  # atno 17321 bound_to 7965
  140.2354  144.4325  150.6282 LP  0  0  0  0  0  0  0  0  0  0  0  0  # atno 17342 bound_to 10162
  140.6327  143.2190  151.6461 LP  0  0  0  0  0  0  0  0  0  0  0  0  # atno 17343 bound_to 10162
  156.7806  130.9220  151.3646 LP  0  0  0  0  0  0  0  0  0  0  0  0  # atno 17370 bound_to 10713
  157.6655  130.9004  149.9923 LP  0  0  0  0  0  0  0  0  0  0  0  0  # atno 17371 bound_to 10713
  139.9145  135.0195  156.7825 LP  0  0  0  0  0  0  0  0  0  0  0  0  # atno 17394 bound_to 11000
  140.6576  133.9674  155.7788 LP  0  0  0  0  0  0  0  0  0  0  0  0  # atno 17395 bound_to 11000

$$$$
