AV-unprocessed.smi:1422|AV-procd|sdf|5792|dock10
  -GOLD-   22720 5443D 1   1.00000     0.00000
 Structure written by MMmdl.
 31 32  0  0  0  0  0  0  0  0  1 V2000
  143.6601  143.7417  162.4299 C   0  0  0  0  0  0  0  0  0  0  0  0
  144.8430  143.6436  161.5289 C   0  0  0  0  0  0  0  0  0  0  0  0
  145.7955  144.5443  161.1432 C   0  0  0  0  0  0  0  0  0  0  0  0
  146.6191  143.7845  160.2705 C   0  0  0  0  0  0  0  0  0  0  0  0
  147.7468  144.3706  159.6415 N   0  0  0  0  0  0  0  0  0  0  0  0
  148.9544  144.6093  160.1810 C   0  0  0  0  0  0  0  0  0  0  0  0
  149.2747  144.3550  161.3425 O   0  0  0  0  0  0  0  0  0  0  0  0
  149.7830  145.1713  159.2888 N   0  0  0  0  0  0  0  0  0  0  0  0
  151.1647  145.5653  159.5463 C   0  0  0  0  0  0  0  0  0  0  0  0
  152.1213  144.3593  159.4991 C   0  0  2  0  0  0  0  0  0  0  0  0
  151.9454  143.4849  158.2749 C   0  0  0  0  0  0  0  0  0  0  0  0
  152.6469  142.1997  158.7038 C   0  0  0  0  0  0  0  0  0  0  0  0
  152.4616  142.1084  160.1134 O   0  0  0  0  0  0  0  0  0  0  0  0
  151.9311  143.3310  160.6167 C   0  0  0  0  0  0  0  0  0  0  0  0
  146.2077  142.5329  160.1371 N   0  0  0  0  0  0  0  0  0  0  0  0
  145.0666  142.4364  160.9423 O   0  0  0  0  0  0  0  0  0  0  0  0
  143.7039  144.6490  163.0326 H   0  0  0  0  0  0  0  0  0  0  0  0
  143.6161  142.8886  163.1071 H   0  0  0  0  0  0  0  0  0  0  0  0
  142.7361  143.7636  161.8519 H   0  0  0  0  0  0  0  0  0  0  0  0
  145.8849  145.5790  161.4386 H   0  0  0  0  0  0  0  0  0  0  0  0
  147.6211  144.6339  158.6754 H   0  0  0  0  0  0  0  0  0  0  0  0
  149.4310  145.3426  158.3582 H   0  0  0  0  0  0  0  0  0  0  0  0
  151.4866  146.3416  158.8497 H   0  0  0  0  0  0  0  0  0  0  0  0
  151.1986  146.0159  160.5385 H   0  0  0  0  0  0  0  0  0  0  0  0
  153.1532  144.7143  159.5214 H   0  0  0  0  0  0  0  0  0  0  0  0
  150.8870  143.2901  158.0938 H   0  0  0  0  0  0  0  0  0  0  0  0
  152.3721  143.9199  157.3706 H   0  0  0  0  0  0  0  0  0  0  0  0
  152.2563  141.3202  158.1916 H   0  0  0  0  0  0  0  0  0  0  0  0
  153.7163  142.2640  158.4994 H   0  0  0  0  0  0  0  0  0  0  0  0
  152.4232  143.6252  161.5440 H   0  0  0  0  0  0  0  0  0  0  0  0
  150.8716  143.1822  160.8290 H   0  0  0  0  0  0  0  0  0  0  0  0
  1  2  1  0  0  0  0
  1 17  1  0  0  0  0
  1 18  1  0  0  0  0
  1 19  1  0  0  0  0
  2 16  1  0  0  0  0
  2  3  2  0  0  0  0
  3  4  1  0  0  0  0
  3 20  1  0  0  0  0
  4  5  1  0  0  0  0
  4 15  2  0  0  0  0
  5  6  1  0  0  0  0
  5 21  1  0  0  0  0
  6  7  2  0  0  0  0
  6  8  1  0  0  0  0
  8  9  1  0  0  0  0
  8 22  1  0  0  0  0
  9 10  1  0  0  0  0
  9 23  1  0  0  0  0
  9 24  1  0  0  0  0
 10 14  1  0  0  0  0
 10 11  1  0  0  0  0
 10 25  1  0  0  0  0
 11 12  1  0  0  0  0
 11 26  1  0  0  0  0
 11 27  1  0  0  0  0
 12 13  1  0  0  0  0
 12 28  1  0  0  0  0
 12 29  1  0  0  0  0
 13 14  1  0  0  0  0
 14 30  1  0  0  0  0
 14 31  1  0  0  0  0
 15 16  1  0  0  0  0
M  END
> <s_m_source_file>
AV-unprocessed.smi

> <i_m_source_file_index>
1422

> <i_lp_mmshare_version>
43012

> <i_f3d_flags>
0

> <s_epik_input>
W0NIM11jMVtjSF1jKG5vMSlbTkhdQyg9TylbTkhdW0NIMl1bQ0BASF0yW0NIMl1bQ0gyXU9bQ0gyXTI=

> <s_epik_cmdline>
J2VwaWtfcHl0aG9uJywgJy1waCcsICc3LjAnLCAnLXRuJywgJzgnLCAnLW1hJywgJzIwMCcsICctbWV0YWxfYmluZGluZycsICctaW1hZScsICc8aW5maWxlLm1hZT4nLCAnLW9tYWUnLCAnPG91dGZpbGUubWFlPic=

> <r_lp_tautomer_probability>
1

> <r_epik_Ionization_Penalty>
2.27275e-05

> <r_epik_Ionization_Penalty_Charging>
0

> <r_epik_Ionization_Penalty_Neutral>
2.27275e-05

> <r_epik_State_Penalty>
-0

> <r_epik_Charging_Adjusted_Penalty>
0

> <i_epik_Tot_Q>
0

> <i_epik_Tot_abs_Q>
0

> <r_epik_Metal_State_Penalty>
-0

> <b_epik_Metal_Only>
0

> <s_lp_Force_Field>
OPLS_2005

> <r_lp_Energy>
16.1313

> <b_lp_Chiralities_Consistent>
1

> <s_lp_Variant>
AV-unprocessed.smi:1422-1

> <Gold.Version>
5.8.1

> <Gold.Id.Protein>
6NUR|6NUR_protein|mol2

> <Gold.PLP.Fitness>
43.8394

> <Gold.PLP.PLP>
-36.5085

> <Gold.PLP.part.hbond>
-4.0471

> <Gold.PLP.part.metal>
0.0000

> <Gold.PLP.part.buried>
-6.0656

> <Gold.PLP.part.nonpolar>
-28.9363

> <Gold.PLP.part.repulsive>
1.0946

> <Gold.PLP.ligand.clash>
0.0000

> <Gold.PLP.ligand.torsion>
0.8993

> <Gold.PLP.Chemscore.Hbond>
3.0413

> <Gold.PLP.Chemscore.CHOScore>
0.0000

> <Gold.PLP.Chemscore.Metal>
0.0000

> <Gold.Chemscore.Hbonds>
donor molecule, donor type, donor heavy atom, donor atom, acceptor molecule, acceptor atom, score
      L1  H     5    21       P1  8029  0.98
      L1  H     8    22       P1  8029  0.93
      P1  H  6933  6944       L1     7  0.36
      P1  H  6934  6946       L1    15  0.70

> <Gold.PLP.Chemscore.Internal.Correction>
0.0055

> <Gold.Rescore>
     Score         DG    S(hbond)    S(metal)    S(lipo)     H(rot)  DE(clash)    DE(int)     intcor
     18.43     -19.71       2.63        0.00      74.90       1.30       0.30       0.98       ----

> <Gold.Chemscore.Fitness>
18.4291

> <Gold.Chemscore.DG>
-19.7091

> <Gold.Chemscore.ZeroCoef>
-5.4800

> <Gold.Chemscore.Hbond>
2.6302

> <Gold.Chemscore.Metal>
0.0000

> <Gold.Chemscore.Lipo>
74.9001

> <Gold.Chemscore.Internal_Hbond>
0.0000

> <Gold.Chemscore.DEClash>
0.2994

> <Gold.Chemscore.DEInternal>
0.9806

> <Gold.Chemscore.Rot>
1.2965

> <Gold.Chemscore.Internal.Correction>
   9.000000E+99

> <Gold.Chemscore.Hbonds>
donor molecule, donor type, donor heavy atom, donor atom, acceptor molecule, acceptor atom, score
      L1  H     5    21       P1  8029  0.92
      L1  H     8    22       P1  8029  0.67
      P1  H  6933  6944       L1     7  0.08
      P1  H  6934  6946       L1    15  0.07

> <Gold.Chemscore.Hbond.Weighted>
-8.7849

> <Gold.Chemscore.Metal.Weighted>
-0.0000

> <Gold.Chemscore.Lipo.Weighted>
-8.7633

> <Gold.Chemscore.Internal_Hbond.Weighted>
0.0000

> <Gold.Chemscore.DEClash.Weighted>
0.2994

> <Gold.Chemscore.DEInternal.Weighted>
0.9806

> <Gold.Chemscore.Rot.Weighted>
3.3192

> <Gold.Chemscore.Internal.Correction.Weighted>
   9.000000E+99

> <Gold.Protein.RotatedTorsions>
[ 6907 6896 6895 6894 ] final  168.40 input  -60.11 | X-H torsion
[ 7974 7965 7964 7962 ] final  -62.45 input  175.53 | X-H torsion
[ 8008 7997 7996 7995 ] final  -19.65 input   59.86 | X-H torsion
[ 10167 10162 10161 10158 ] final    9.77 input  -65.29 | X-H torsion
[ 10718 10713 10712 10709 ] final  -64.99 input   66.30 | X-H torsion
[ 10763 10752 10751 10750 ] final   62.37 input  -60.55 | X-H torsion
[ 11005 11000 10999 10996 ] final -157.25 input  -57.11 | X-H torsion

> <Gold.Protein.ActiveResidues>
 VAL166  LYS551  ARG553  GLY616  TRP617  ASP618  TYR619  PRO620  LYS621  CYS622 
 ASP623  PHE694  ASN695  SER759  ASP760  ASP761  ALA762  ILE779  LEU786  VAL792 
 PHE793  MET794  SER795  GLU796  ALA797  LYS798  CYS799  TRP800  GLU811  SER814 

> <Gold.Protein.RotatedAtoms>
  151.8482  133.3435  159.3664 H   0  0  0  0  0  0  0  0  0  0  0  0  # atno 6907 bound_to 6896
  150.7214  134.5325  159.5716 H   0  0  0  0  0  0  0  0  0  0  0  0  # atno 6908 bound_to 6896
  152.2813  134.7826  160.0447 H   0  0  0  0  0  0  0  0  0  0  0  0  # atno 6909 bound_to 6896
  145.7912  140.8709  143.0280 H   0  0  0  0  0  0  0  0  0  0  0  0  # atno 7974 bound_to 7965
  154.4822  140.2083  155.9736 H   0  0  0  0  0  0  0  0  0  0  0  0  # atno 8008 bound_to 7997
  156.1183  140.3217  155.8140 H   0  0  0  0  0  0  0  0  0  0  0  0  # atno 8009 bound_to 7997
  155.4514  140.0517  157.2991 H   0  0  0  0  0  0  0  0  0  0  0  0  # atno 8010 bound_to 7997
  140.6235  143.8152  150.7204 H   0  0  0  0  0  0  0  0  0  0  0  0  # atno 10167 bound_to 10162
  156.0696  130.4241  150.1499 H   0  0  0  0  0  0  0  0  0  0  0  0  # atno 10718 bound_to 10713
  152.9980  135.5467  154.6182 H   0  0  0  0  0  0  0  0  0  0  0  0  # atno 10763 bound_to 10752
  154.5487  135.2825  155.1030 H   0  0  0  0  0  0  0  0  0  0  0  0  # atno 10764 bound_to 10752
  154.2279  135.6439  153.5218 H   0  0  0  0  0  0  0  0  0  0  0  0  # atno 10765 bound_to 10752
  140.6666  134.4292  157.5233 H   0  0  0  0  0  0  0  0  0  0  0  0  # atno 11005 bound_to 11000
  144.6781  140.0125  143.7484 LP  0  0  0  0  0  0  0  0  0  0  0  0  # atno 17320 bound_to 7965
  145.9975  139.3064  143.0947 LP  0  0  0  0  0  0  0  0  0  0  0  0  # atno 17321 bound_to 7965
  140.1748  143.4164  152.1975 LP  0  0  0  0  0  0  0  0  0  0  0  0  # atno 17342 bound_to 10162
  139.5459  144.7298  151.4584 LP  0  0  0  0  0  0  0  0  0  0  0  0  # atno 17343 bound_to 10162
  156.9553  130.9787  151.3490 LP  0  0  0  0  0  0  0  0  0  0  0  0  # atno 17370 bound_to 10713
  157.5759  130.8342  149.8455 LP  0  0  0  0  0  0  0  0  0  0  0  0  # atno 17371 bound_to 10713
  139.8995  134.8589  156.1957 LP  0  0  0  0  0  0  0  0  0  0  0  0  # atno 17394 bound_to 11000
  141.0424  133.6931  156.1622 LP  0  0  0  0  0  0  0  0  0  0  0  0  # atno 17395 bound_to 11000

$$$$
