AV-unprocessed.smi:2749|AV-procd|sdf|10587|dock8
  -GOLD-   2272015 33D 1   1.00000     0.00000
 Structure written by MMmdl.
 32 34  0  0  0  0  0  0  0  0  1 V2000
  151.1582  140.8954  156.1710 O   0  0  0  0  0  0  0  0  0  0  0  0
  150.5554  141.9626  156.0704 C   0  0  0  0  0  0  0  0  0  0  0  0
  149.4466  142.0703  155.3077 N   0  0  0  0  0  0  0  0  0  0  0  0
  148.7630  141.1099  154.5054 C   0  0  0  0  0  0  0  0  0  0  0  0
  147.5803  141.5882  153.8961 C   0  0  0  0  0  0  0  0  0  0  0  0
  146.8127  140.7236  153.0915 C   0  0  0  0  0  0  0  0  0  0  0  0
  147.2460  139.3970  152.9214 C   0  0  0  0  0  0  0  0  0  0  0  0
  146.5414  138.5286  152.1580 F   0  0  0  0  0  0  0  0  0  0  0  0
  148.4300  138.9954  153.5661 C   0  0  0  0  0  0  0  0  0  0  0  0
  149.1666  139.8243  154.3360 N   0  0  0  0  0  0  0  0  0  0  0  0
  150.9425  143.0776  156.7094 N   0  0  0  0  0  0  0  0  0  0  0  0
  152.1275  143.1996  157.5520 C   0  0  2  0  0  0  0  0  0  0  0  0
  152.0330  142.3163  158.7994 C   0  0  0  0  0  0  0  0  0  0  0  0
  152.1643  143.3453  159.9301 C   0  0  2  0  0  0  0  0  0  0  0  0
  150.9018  144.2074  160.0727 C   0  0  0  0  0  0  0  0  0  0  0  0
  151.0117  145.1261  158.8571 C   0  0  0  0  0  0  0  0  0  0  0  0
  152.2893  144.5991  158.1813 C   0  0  1  0  0  0  0  0  0  0  0  0
  153.0523  144.2733  159.3311 O   0  0  0  0  0  0  0  0  0  0  0  0
  148.9924  142.9705  155.3569 H   0  0  0  0  0  0  0  0  0  0  0  0
  147.2603  142.6103  154.0397 H   0  0  0  0  0  0  0  0  0  0  0  0
  145.9084  141.0728  152.6154 H   0  0  0  0  0  0  0  0  0  0  0  0
  148.7963  137.9848  153.4626 H   0  0  0  0  0  0  0  0  0  0  0  0
  150.3910  143.9131  156.5735 H   0  0  0  0  0  0  0  0  0  0  0  0
  153.0240  142.9337  156.9887 H   0  0  0  0  0  0  0  0  0  0  0  0
  151.1046  141.7471  158.8677 H   0  0  0  0  0  0  0  0  0  0  0  0
  152.8635  141.6099  158.8253 H   0  0  0  0  0  0  0  0  0  0  0  0
  152.5204  142.9241  160.8706 H   0  0  0  0  0  0  0  0  0  0  0  0
  149.9902  143.6087  160.0692 H   0  0  0  0  0  0  0  0  0  0  0  0
  150.9271  144.7886  160.9949 H   0  0  0  0  0  0  0  0  0  0  0  0
  150.1316  145.0939  158.2144 H   0  0  0  0  0  0  0  0  0  0  0  0
  151.1513  146.1590  159.1777 H   0  0  0  0  0  0  0  0  0  0  0  0
  152.7674  145.3243  157.5224 H   0  0  0  0  0  0  0  0  0  0  0  0
  1  2  2  0  0  0  0
  2  3  1  0  0  0  0
  2 11  1  0  0  0  0
  3  4  1  0  0  0  0
  3 19  1  0  0  0  0
  4 10  1  0  0  0  0
  4  5  2  0  0  0  0
  5  6  1  0  0  0  0
  5 20  1  0  0  0  0
  6  7  2  0  0  0  0
  6 21  1  0  0  0  0
  7  8  1  0  0  0  0
  7  9  1  0  0  0  0
  9 10  2  0  0  0  0
  9 22  1  0  0  0  0
 11 12  1  0  0  0  0
 11 23  1  0  0  0  0
 12 17  1  0  0  0  0
 12 13  1  0  0  0  0
 12 24  1  0  0  0  0
 13 14  1  0  0  0  0
 13 25  1  0  0  0  0
 13 26  1  0  0  0  0
 14 18  1  0  0  0  0
 14 15  1  0  0  0  0
 14 27  1  0  0  0  0
 15 16  1  0  0  0  0
 15 28  1  0  0  0  0
 15 29  1  0  0  0  0
 16 17  1  0  0  0  0
 16 30  1  0  0  0  0
 16 31  1  0  0  0  0
 17 18  1  0  0  0  0
 17 32  1  0  0  0  0
M  END
> <s_m_source_file>
AV-unprocessed.smi

> <i_m_source_file_index>
2749

> <i_lp_mmshare_version>
43012

> <i_f3d_flags>
0

> <s_epik_input>
W0NIMl0xW0NIMl1bQ0BIXShPMilbQ0BASF0oW0NIMl1bQ0BASF0xMilbTkhdQyg9TylbTkhdYzNbY0hdW2NIXWMoRilbY0hdbjM=

> <s_epik_cmdline>
J2VwaWtfcHl0aG9uJywgJy1waCcsICc3LjAnLCAnLXRuJywgJzgnLCAnLW1hJywgJzIwMCcsICctbWV0YWxfYmluZGluZycsICctaW1hZScsICc8aW5maWxlLm1hZT4nLCAnLW9tYWUnLCAnPG91dGZpbGUubWFlPic=

> <r_lp_tautomer_probability>
1

> <r_epik_Ionization_Penalty>
3.37159e-05

> <r_epik_Ionization_Penalty_Charging>
0

> <r_epik_Ionization_Penalty_Neutral>
3.37159e-05

> <r_epik_State_Penalty>
-0

> <r_epik_Charging_Adjusted_Penalty>
0

> <i_epik_Tot_Q>
0

> <i_epik_Tot_abs_Q>
0

> <r_epik_Metal_State_Penalty>
-0

> <b_epik_Metal_Only>
0

> <s_lp_Force_Field>
OPLS_2005

> <r_lp_Energy>
40.3406

> <b_lp_Chiralities_Consistent>
1

> <s_lp_Variant>
AV-unprocessed.smi:2749-3

> <Gold.Version>
5.8.1

> <Gold.Id.Protein>
6NUR|6NUR_protein|mol2

> <Gold.PLP.Fitness>
46.6904

> <Gold.PLP.PLP>
-37.9141

> <Gold.PLP.part.hbond>
-2.0000

> <Gold.PLP.part.metal>
0.0000

> <Gold.PLP.part.buried>
-2.8987

> <Gold.PLP.part.nonpolar>
-33.5439

> <Gold.PLP.part.repulsive>
0.3572

> <Gold.PLP.ligand.clash>
0.0000

> <Gold.PLP.ligand.torsion>
0.0135

> <Gold.PLP.Chemscore.Hbond>
1.9280

> <Gold.PLP.Chemscore.CHOScore>
1.0000

> <Gold.PLP.Chemscore.Metal>
0.0000

> <Gold.Chemscore.Hbonds>
donor molecule, donor type, donor heavy atom, donor atom, acceptor molecule, acceptor atom, score
      L1  H     3    19       P1  8028  1.00
      L1  H    11    23       P1  8028  0.94
      L1  C     9    22       P1  7948  1.00

> <Gold.PLP.Chemscore.Internal.Correction>
0.0193

> <Gold.Rescore>
     Score         DG    S(hbond)    S(metal)    S(lipo)     H(rot)  DE(clash)    DE(int)     intcor
     18.03     -19.98       1.92        0.00      90.96       1.00       0.10       1.86       ----

> <Gold.Chemscore.Fitness>
18.0300

> <Gold.Chemscore.DG>
-19.9838

> <Gold.Chemscore.ZeroCoef>
-5.4800

> <Gold.Chemscore.Hbond>
1.9227

> <Gold.Chemscore.Metal>
0.0000

> <Gold.Chemscore.Lipo>
90.9572

> <Gold.Chemscore.Internal_Hbond>
0.0000

> <Gold.Chemscore.DEClash>
0.0969

> <Gold.Chemscore.DEInternal>
1.8568

> <Gold.Chemscore.Rot>
1.0000

> <Gold.Chemscore.Internal.Correction>
   9.000000E+99

> <Gold.Chemscore.Hbonds>
donor molecule, donor type, donor heavy atom, donor atom, acceptor molecule, acceptor atom, score
      L1  H     3    19       P1  8028  0.99
      L1  H    11    23       P1  8028  0.92

> <Gold.Chemscore.Hbond.Weighted>
-6.4218

> <Gold.Chemscore.Metal.Weighted>
-0.0000

> <Gold.Chemscore.Lipo.Weighted>
-10.6420

> <Gold.Chemscore.Internal_Hbond.Weighted>
0.0000

> <Gold.Chemscore.DEClash.Weighted>
0.0969

> <Gold.Chemscore.DEInternal.Weighted>
1.8568

> <Gold.Chemscore.Rot.Weighted>
2.5600

> <Gold.Chemscore.Internal.Correction.Weighted>
   9.000000E+99

> <Gold.Protein.RotatedTorsions>
[ 6907 6896 6895 6894 ] final   61.81 input  -60.11 | X-H torsion
[ 7974 7965 7964 7962 ] final  -13.51 input  175.53 | X-H torsion
[ 8008 7997 7996 7995 ] final -177.81 input   59.86 | X-H torsion
[ 10167 10162 10161 10158 ] final   44.49 input  -65.29 | X-H torsion
[ 10718 10713 10712 10709 ] final -157.47 input   66.30 | X-H torsion
[ 10763 10752 10751 10750 ] final   40.19 input  -60.55 | X-H torsion
[ 11005 11000 10999 10996 ] final  110.44 input  -57.11 | X-H torsion

> <Gold.Protein.ActiveResidues>
 VAL166  LYS551  ARG553  GLY616  TRP617  ASP618  TYR619  PRO620  LYS621  CYS622 
 ASP623  PHE694  ASN695  SER759  ASP760  ASP761  ALA762  ILE779  LEU786  VAL792 
 PHE793  MET794  SER795  GLU796  ALA797  LYS798  CYS799  TRP800  GLU811  SER814 

> <Gold.Protein.RotatedAtoms>
  152.4120  134.6108  160.0024 H   0  0  0  0  0  0  0  0  0  0  0  0  # atno 6907 bound_to 6896
  151.6282  133.3328  159.3111 H   0  0  0  0  0  0  0  0  0  0  0  0  # atno 6908 bound_to 6896
  150.8010  134.7144  159.6667 H   0  0  0  0  0  0  0  0  0  0  0  0  # atno 6909 bound_to 6896
  146.2111  140.3214  142.8391 H   0  0  0  0  0  0  0  0  0  0  0  0  # atno 7974 bound_to 7965
  156.0114  140.1241  157.0450 H   0  0  0  0  0  0  0  0  0  0  0  0  # atno 8008 bound_to 7997
  154.4277  140.1087  156.5905 H   0  0  0  0  0  0  0  0  0  0  0  0  # atno 8009 bound_to 7997
  155.6074  140.3471  155.4614 H   0  0  0  0  0  0  0  0  0  0  0  0  # atno 8010 bound_to 7997
  140.3338  144.2556  150.6164 H   0  0  0  0  0  0  0  0  0  0  0  0  # atno 10167 bound_to 10162
  156.5407  130.8562  151.2748 H   0  0  0  0  0  0  0  0  0  0  0  0  # atno 10718 bound_to 10713
  152.9944  135.6199  154.2586 H   0  0  0  0  0  0  0  0  0  0  0  0  # atno 10763 bound_to 10752
  154.2322  135.2791  155.2887 H   0  0  0  0  0  0  0  0  0  0  0  0  # atno 10764 bound_to 10752
  154.5439  135.5753  153.6921 H   0  0  0  0  0  0  0  0  0  0  0  0  # atno 10765 bound_to 10752
  139.8882  134.9484  156.6279 H   0  0  0  0  0  0  0  0  0  0  0  0  # atno 11005 bound_to 11000
  144.8917  140.7532  143.5922 LP  0  0  0  0  0  0  0  0  0  0  0  0  # atno 17320 bound_to 7965
  145.3137  139.1810  143.4625 LP  0  0  0  0  0  0  0  0  0  0  0  0  # atno 17321 bound_to 7965
  140.5373  143.2230  151.8142 LP  0  0  0  0  0  0  0  0  0  0  0  0  # atno 17342 bound_to 10162
  139.4852  144.4645  151.9500 LP  0  0  0  0  0  0  0  0  0  0  0  0  # atno 17343 bound_to 10162
  157.7406  130.9853  150.2386 LP  0  0  0  0  0  0  0  0  0  0  0  0  # atno 17370 bound_to 10713
  156.2974  130.3754  149.7783 LP  0  0  0  0  0  0  0  0  0  0  0  0  # atno 17371 bound_to 10713
  140.7689  133.8755  155.8476 LP  0  0  0  0  0  0  0  0  0  0  0  0  # atno 17394 bound_to 11000
  140.9859  134.1343  157.4452 LP  0  0  0  0  0  0  0  0  0  0  0  0  # atno 17395 bound_to 11000

$$$$
