AV-unprocessed.smi:2614|AV-procd|sdf|10214|dock9
  -GOLD-   2272014223D 1   1.00000     0.00000
 Structure written by MMmdl.
 24 25  0  0  0  0  0  0  0  0  2 V2000
  154.9910  140.0286  160.5519 C   0  0  0  0  0  0  0  0  0  0  0  0
  153.9514  140.7100  159.7292 C   0  0  0  0  0  0  0  0  0  0  0  0
  153.3233  140.1080  158.6776 N   0  0  0  0  0  0  0  0  0  0  0  0
  152.5210  141.0924  158.2878 C   0  0  0  0  0  0  0  0  0  0  0  0
  151.5743  141.0049  157.1359 C   0  0  0  0  0  0  0  0  0  0  0  0
  152.6443  142.1946  159.0403 N   0  0  0  0  0  0  0  0  0  0  0  0
  151.9813  143.4655  158.9488 C   0  0  0  0  0  0  0  0  0  0  0  0
  150.4606  143.5858  158.8236 C   0  0  0  0  0  0  0  0  0  0  0  0
  150.6847  144.7603  157.9909 N   0  3  0  0  0  0  0  0  0  0  0  0
  152.0111  144.2625  157.6466 C   0  0  0  0  0  0  0  0  0  0  0  0
  153.5840  141.9629  159.9871 N   0  0  0  0  0  0  0  0  0  0  0  0
  155.1028  138.9872  160.2483 H   0  0  0  0  0  0  0  0  0  0  0  0
  154.7149  140.0519  161.6064 H   0  0  0  0  0  0  0  0  0  0  0  0
  155.9527  140.5281  160.4331 H   0  0  0  0  0  0  0  0  0  0  0  0
  151.6345  140.0224  156.6667 H   0  0  0  0  0  0  0  0  0  0  0  0
  151.8195  141.7607  156.3895 H   0  0  0  0  0  0  0  0  0  0  0  0
  150.5512  141.1638  157.4766 H   0  0  0  0  0  0  0  0  0  0  0  0
  152.3458  144.0671  159.7847 H   0  0  0  0  0  0  0  0  0  0  0  0
  149.9902  142.7769  158.2608 H   0  0  0  0  0  0  0  0  0  0  0  0
  149.9373  143.7958  159.7568 H   0  0  0  0  0  0  0  0  0  0  0  0
  150.0550  144.8327  157.2043 H   0  0  0  0  0  0  0  0  0  0  0  0
  152.7780  145.0360  157.5972 H   0  0  0  0  0  0  0  0  0  0  0  0
  151.9978  143.6371  156.7517 H   0  0  0  0  0  0  0  0  0  0  0  0
  150.7370  145.6020  158.5467 H   0  0  0  0  0  0  0  0  0  0  0  0
  1  2  1  0  0  0  0
  1 12  1  0  0  0  0
  1 13  1  0  0  0  0
  1 14  1  0  0  0  0
  2 11  2  0  0  0  0
  2  3  1  0  0  0  0
  3  4  2  0  0  0  0
  4  5  1  0  0  0  0
  4  6  1  0  0  0  0
  5 15  1  0  0  0  0
  5 16  1  0  0  0  0
  5 17  1  0  0  0  0
  6  7  1  0  0  0  0
  6 11  1  0  0  0  0
  7 10  1  0  0  0  0
  7  8  1  0  0  0  0
  7 18  1  0  0  0  0
  8  9  1  0  0  0  0
  8 19  1  0  0  0  0
  8 20  1  0  0  0  0
  9 10  1  0  0  0  0
  9 21  1  0  0  0  0
  9 24  1  0  0  0  0
 10 22  1  0  0  0  0
 10 23  1  0  0  0  0
M  CHG  1   9   1
M  END
> <s_m_source_file>
AV-unprocessed.smi

> <i_m_source_file_index>
2614

> <i_lp_mmshare_version>
43012

> <i_f3d_flags>
0

> <s_epik_input>
W0NIM11jMW5jKFtDSDNdKW4objEpW0NIXTJbQ0gyXVtOSF1bQ0gyXTI=

> <s_epik_cmdline>
J2VwaWtfcHl0aG9uJywgJy1waCcsICc3LjAnLCAnLXRuJywgJzgnLCAnLW1hJywgJzIwMCcsICctbWV0YWxfYmluZGluZycsICctaW1hZScsICc8aW5maWxlLm1hZT4nLCAnLW9tYWUnLCAnPG91dGZpbGUubWFlPic=

> <r_lp_tautomer_probability>
1

> <r_epik_Ionization_Penalty>
0.00796611

> <r_epik_Ionization_Penalty_Charging>
0.00792139

> <r_epik_Ionization_Penalty_Neutral>
4.47227e-05

> <r_epik_State_Penalty>
0.00594323

> <r_epik_Charging_Adjusted_Penalty>
0.0138646

> <i_epik_Tot_Q>
1

> <i_epik_Tot_abs_Q>
1

> <r_epik_Metal_State_Penalty>
-0

> <b_epik_Metal_Only>
0

> <s_lp_Force_Field>
OPLS_2005

> <r_lp_Energy>
14.7939

> <b_lp_Chiralities_Consistent>
1

> <s_lp_Variant>
AV-unprocessed.smi:2614-1

> <Gold.Version>
5.8.1

> <Gold.Id.Protein>
6NUR|6NUR_protein|mol2

> <Gold.PLP.Fitness>
32.2903

> <Gold.PLP.PLP>
-24.1458

> <Gold.PLP.part.hbond>
-2.7463

> <Gold.PLP.part.metal>
0.0000

> <Gold.PLP.part.buried>
-3.5329

> <Gold.PLP.part.nonpolar>
-17.2256

> <Gold.PLP.part.repulsive>
0.1293

> <Gold.PLP.ligand.clash>
0.0000

> <Gold.PLP.ligand.torsion>
0.1387

> <Gold.PLP.Chemscore.Hbond>
2.7263

> <Gold.PLP.Chemscore.CHOScore>
0.0000

> <Gold.PLP.Chemscore.Metal>
0.0000

> <Gold.Chemscore.Hbonds>
donor molecule, donor type, donor heavy atom, donor atom, acceptor molecule, acceptor atom, score
      L1  H     9    21       P1  8028  1.70
      P1  H  7997  8008       L1     3  0.91

> <Gold.PLP.Chemscore.Internal.Correction>
0.2431

> <Gold.Rescore>
     Score         DG    S(hbond)    S(metal)    S(lipo)     H(rot)  DE(clash)    DE(int)     intcor
     10.85     -11.02       0.98        0.00      41.32       1.00       0.03       0.13       ----

> <Gold.Chemscore.Fitness>
10.8522

> <Gold.Chemscore.DG>
-11.0180

> <Gold.Chemscore.ZeroCoef>
-5.4800

> <Gold.Chemscore.Hbond>
0.9771

> <Gold.Chemscore.Metal>
0.0000

> <Gold.Chemscore.Lipo>
41.3215

> <Gold.Chemscore.Internal_Hbond>
0.0000

> <Gold.Chemscore.DEClash>
0.0339

> <Gold.Chemscore.DEInternal>
0.1319

> <Gold.Chemscore.Rot>
1.0000

> <Gold.Chemscore.Internal.Correction>
   9.000000E+99

> <Gold.Chemscore.Hbonds>
donor molecule, donor type, donor heavy atom, donor atom, acceptor molecule, acceptor atom, score
      L1  H     9    21       P1  8028  0.15
      P1  H  7997  8008       L1     3  0.16

> <Gold.Chemscore.Hbond.Weighted>
-3.2634

> <Gold.Chemscore.Metal.Weighted>
-0.0000

> <Gold.Chemscore.Lipo.Weighted>
-4.8346

> <Gold.Chemscore.Internal_Hbond.Weighted>
0.0000

> <Gold.Chemscore.DEClash.Weighted>
0.0339

> <Gold.Chemscore.DEInternal.Weighted>
0.1319

> <Gold.Chemscore.Rot.Weighted>
2.5600

> <Gold.Chemscore.Internal.Correction.Weighted>
   9.000000E+99

> <Gold.Protein.RotatedTorsions>
[ 6907 6896 6895 6894 ] final -141.93 input  -60.11 | X-H torsion
[ 7974 7965 7964 7962 ] final  -64.66 input  175.53 | X-H torsion
[ 8008 7997 7996 7995 ] final  -90.67 input   59.86 | X-H torsion
[ 10167 10162 10161 10158 ] final  115.90 input  -65.29 | X-H torsion
[ 10718 10713 10712 10709 ] final   38.40 input   66.30 | X-H torsion
[ 10763 10752 10751 10750 ] final -152.67 input  -60.55 | X-H torsion
[ 11005 11000 10999 10996 ] final   87.47 input  -57.11 | X-H torsion

> <Gold.Protein.ActiveResidues>
 VAL166  LYS551  ARG553  GLY616  TRP617  ASP618  TYR619  PRO620  LYS621  CYS622 
 ASP623  PHE694  ASN695  SER759  ASP760  ASP761  ALA762  ILE779  LEU786  VAL792 
 PHE793  MET794  SER795  GLU796  ALA797  LYS798  CYS799  TRP800  GLU811  SER814 

> <Gold.Protein.RotatedAtoms>
  151.0803  133.5395  159.2620 H   0  0  0  0  0  0  0  0  0  0  0  0  # atno 6907 bound_to 6896
  151.2301  135.0550  159.8994 H   0  0  0  0  0  0  0  0  0  0  0  0  # atno 6908 bound_to 6896
  152.5423  134.0593  159.8199 H   0  0  0  0  0  0  0  0  0  0  0  0  # atno 6909 bound_to 6896
  145.7639  140.8847  143.0415 H   0  0  0  0  0  0  0  0  0  0  0  0  # atno 7974 bound_to 7965
  154.7014  140.0528  157.0462 H   0  0  0  0  0  0  0  0  0  0  0  0  # atno 8008 bound_to 7997
  155.0679  140.3196  155.4621 H   0  0  0  0  0  0  0  0  0  0  0  0  # atno 8009 bound_to 7997
  156.2761  140.2087  156.5807 H   0  0  0  0  0  0  0  0  0  0  0  0  # atno 8010 bound_to 7997
  139.6285  144.7111  151.2483 H   0  0  0  0  0  0  0  0  0  0  0  0  # atno 10167 bound_to 10162
  157.3583  130.7636  149.7029 H   0  0  0  0  0  0  0  0  0  0  0  0  # atno 10718 bound_to 10713
  154.7979  135.3230  154.7623 H   0  0  0  0  0  0  0  0  0  0  0  0  # atno 10763 bound_to 10752
  153.8297  135.6880  153.4820 H   0  0  0  0  0  0  0  0  0  0  0  0  # atno 10764 bound_to 10752
  153.1679  135.4634  154.9805 H   0  0  0  0  0  0  0  0  0  0  0  0  # atno 10765 bound_to 10752
  139.8919  134.8424  156.2864 H   0  0  0  0  0  0  0  0  0  0  0  0  # atno 11005 bound_to 11000
  144.6825  139.9762  143.7483 LP  0  0  0  0  0  0  0  0  0  0  0  0  # atno 17320 bound_to 7965
  146.0236  139.3273  143.0798 LP  0  0  0  0  0  0  0  0  0  0  0  0  # atno 17321 bound_to 7965
  140.7425  143.6524  150.8237 LP  0  0  0  0  0  0  0  0  0  0  0  0  # atno 17342 bound_to 10162
  140.0145  143.5607  152.2825 LP  0  0  0  0  0  0  0  0  0  0  0  0  # atno 17343 bound_to 10162
  155.9733  130.4121  150.4014 LP  0  0  0  0  0  0  0  0  0  0  0  0  # atno 17370 bound_to 10713
  157.2087  131.0455  151.2611 LP  0  0  0  0  0  0  0  0  0  0  0  0  # atno 17371 bound_to 10713
  141.0005  133.7154  156.0953 LP  0  0  0  0  0  0  0  0  0  0  0  0  # atno 17394 bound_to 11000
  140.7504  134.4051  157.5542 LP  0  0  0  0  0  0  0  0  0  0  0  0  # atno 17395 bound_to 11000

$$$$
