AV-unprocessed.smi:2689|AV-procd|sdf|10387|dock5
  -GOLD-   2272014423D 1   1.00000     0.00000
 Structure written by MMmdl.
 32 32  0  0  0  0  0  0  0  0  2 V2000
  148.5111  141.3933  154.1900 C   0  0  0  0  0  0  0  0  0  0  0  0
  149.2252  140.0410  154.2972 C   0  0  0  0  0  0  0  0  0  0  0  0
  150.3297  140.0671  155.3184 C   0  0  0  0  0  0  0  0  0  0  0  0
  151.5646  139.7757  154.9438 N   0  0  0  0  0  0  0  0  0  0  0  0
  152.3543  139.9083  156.0892 O   0  0  0  0  0  0  0  0  0  0  0  0
  151.5556  140.2793  157.1221 C   0  0  0  0  0  0  0  0  0  0  0  0
  152.2264  140.4874  158.4404 C   0  0  0  0  0  0  0  0  0  0  0  0
  152.0490  141.9066  158.9892 C   0  0  0  0  0  0  0  0  0  0  0  0
  150.2566  140.3894  156.7050 C   0  0  0  0  0  0  0  0  0  0  0  0
  149.0397  140.7757  157.5076 C   0  0  0  0  0  0  0  0  0  0  0  0
  148.0614  139.6026  157.5476 C   0  0  0  0  0  0  0  0  0  0  0  0
  146.8815  139.7739  157.2426 O   0  0  0  0  0  0  0  0  0  0  0  0
  148.5706  138.4247  157.9374 N   0  0  0  0  0  0  0  0  0  0  0  0
  147.8222  137.1942  158.1584 C   0  0  0  0  0  0  0  0  0  0  0  0
  148.2969  136.5338  159.4514 C   0  0  0  0  0  0  0  0  0  0  0  0
  147.8213  136.9651  160.5241 O   0  0  0  0  0  0  0  0  0  0  0  0
  149.1351  135.6112  159.3443 O   0  5  0  0  0  0  0  0  0  0  0  0
  147.7098  141.3522  153.4522 H   0  0  0  0  0  0  0  0  0  0  0  0
  149.2014  142.1816  153.8886 H   0  0  0  0  0  0  0  0  0  0  0  0
  148.0703  141.6820  155.1444 H   0  0  0  0  0  0  0  0  0  0  0  0
  148.4975  139.2698  154.5486 H   0  0  0  0  0  0  0  0  0  0  0  0
  149.6260  139.7657  153.3211 H   0  0  0  0  0  0  0  0  0  0  0  0
  151.8330  139.7682  159.1595 H   0  0  0  0  0  0  0  0  0  0  0  0
  153.2903  140.2687  158.3503 H   0  0  0  0  0  0  0  0  0  0  0  0
  152.5555  142.0178  159.9482 H   0  0  0  0  0  0  0  0  0  0  0  0
  150.9950  142.1420  159.1399 H   0  0  0  0  0  0  0  0  0  0  0  0
  152.4641  142.6465  158.3044 H   0  0  0  0  0  0  0  0  0  0  0  0
  149.3030  141.0559  158.5277 H   0  0  0  0  0  0  0  0  0  0  0  0
  148.5397  141.6457  157.0800 H   0  0  0  0  0  0  0  0  0  0  0  0
  149.5517  138.3922  158.1728 H   0  0  0  0  0  0  0  0  0  0  0  0
  146.7459  137.3685  158.2038 H   0  0  0  0  0  0  0  0  0  0  0  0
  148.0000  136.5164  157.3233 H   0  0  0  0  0  0  0  0  0  0  0  0
  1  2  1  0  0  0  0
  1 18  1  0  0  0  0
  1 19  1  0  0  0  0
  1 20  1  0  0  0  0
  2  3  1  0  0  0  0
  2 21  1  0  0  0  0
  2 22  1  0  0  0  0
  3  9  1  0  0  0  0
  3  4  2  0  0  0  0
  4  5  1  0  0  0  0
  5  6  1  0  0  0  0
  6  7  1  0  0  0  0
  6  9  2  0  0  0  0
  7  8  1  0  0  0  0
  7 23  1  0  0  0  0
  7 24  1  0  0  0  0
  8 25  1  0  0  0  0
  8 26  1  0  0  0  0
  8 27  1  0  0  0  0
  9 10  1  0  0  0  0
 10 11  1  0  0  0  0
 10 28  1  0  0  0  0
 10 29  1  0  0  0  0
 11 12  2  0  0  0  0
 11 13  1  0  0  0  0
 13 14  1  0  0  0  0
 13 30  1  0  0  0  0
 14 15  1  0  0  0  0
 14 31  1  0  0  0  0
 14 32  1  0  0  0  0
 15 16  2  0  0  0  0
 15 17  1  0  0  0  0
M  CHG  1  17  -1
M  END
> <s_m_source_file>
AV-unprocessed.smi

> <i_m_source_file_index>
2689

> <i_lp_mmshare_version>
43012

> <i_f3d_flags>
0

> <s_epik_input>
W0NIM11bQ0gyXWMxbm9jKFtDSDJdW0NIM10pYzFbQ0gyXUMoPU8pW05IXVtDSDJdQyg9TylbT0hd

> <s_epik_cmdline>
J2VwaWtfcHl0aG9uJywgJy1waCcsICc3LjAnLCAnLXRuJywgJzgnLCAnLW1hJywgJzIwMCcsICctbWV0YWxfYmluZGluZycsICctaW1hZScsICc8aW5maWxlLm1hZT4nLCAnLW9tYWUnLCAnPG91dGZpbGUubWFlPic=

> <r_lp_tautomer_probability>
1

> <r_epik_Ionization_Penalty>
0.000217839

> <r_epik_Ionization_Penalty_Charging>
0.000217819

> <r_epik_Ionization_Penalty_Neutral>
1.99806e-08

> <r_epik_State_Penalty>
-0

> <r_epik_Charging_Adjusted_Penalty>
0.000217819

> <i_epik_Tot_Q>
-1

> <i_epik_Tot_abs_Q>
1

> <r_epik_Metal_State_Penalty>
-0

> <b_epik_Metal_Only>
0

> <s_lp_Force_Field>
OPLS_2005

> <r_lp_Energy>
-12.6879

> <b_lp_Chiralities_Consistent>
1

> <s_lp_Variant>
AV-unprocessed.smi:2689-1

> <Gold.Version>
5.8.1

> <Gold.Id.Protein>
6NUR|6NUR_protein|mol2

> <Gold.PLP.Fitness>
45.7943

> <Gold.PLP.PLP>
-25.0247

> <Gold.PLP.part.hbond>
-5.0000

> <Gold.PLP.part.metal>
0.0000

> <Gold.PLP.part.buried>
-3.5016

> <Gold.PLP.part.nonpolar>
-17.1257

> <Gold.PLP.part.repulsive>
0.1810

> <Gold.PLP.ligand.clash>
0.0000

> <Gold.PLP.ligand.torsion>
0.5054

> <Gold.PLP.Chemscore.Hbond>
7.2280

> <Gold.PLP.Chemscore.CHOScore>
0.0000

> <Gold.PLP.Chemscore.Metal>
0.0000

> <Gold.Chemscore.Hbonds>
donor molecule, donor type, donor heavy atom, donor atom, acceptor molecule, acceptor atom, score
      P1  H  6896  6907       L1    17  2.00
      P1  H  6931  6943       L1    16  0.83
      P1  H  6934  6947       L1    16  1.08
      P1  H  7989  7998       L1     4  0.90
      P1  H  7997  8008       L1     5  0.93

> <Gold.PLP.Chemscore.Internal.Correction>
0.0963

> <Gold.Rescore>
     Score         DG    S(hbond)    S(metal)    S(lipo)     H(rot)  DE(clash)    DE(int)     intcor
     16.98     -17.53       3.92        0.00      50.38       2.71       0.01       0.54       ----

> <Gold.Chemscore.Fitness>
16.9817

> <Gold.Chemscore.DG>
-17.5327

> <Gold.Chemscore.ZeroCoef>
-5.4800

> <Gold.Chemscore.Hbond>
3.9171

> <Gold.Chemscore.Metal>
0.0000

> <Gold.Chemscore.Lipo>
50.3805

> <Gold.Chemscore.Internal_Hbond>
0.0000

> <Gold.Chemscore.DEClash>
0.0089

> <Gold.Chemscore.DEInternal>
0.5421

> <Gold.Chemscore.Rot>
2.7051

> <Gold.Chemscore.Internal.Correction>
   9.000000E+99

> <Gold.Chemscore.Hbonds>
donor molecule, donor type, donor heavy atom, donor atom, acceptor molecule, acceptor atom, score
      P1  H  6896  6907       L1    17  1.00
      P1  H  6931  6943       L1    16  0.40
      P1  H  6934  6947       L1    16  0.53
      P1  H  7989  7998       L1     4  0.18
      P1  H  7997  8008       L1     5  0.70

> <Gold.Chemscore.Hbond.Weighted>
-13.0833

> <Gold.Chemscore.Metal.Weighted>
-0.0000

> <Gold.Chemscore.Lipo.Weighted>
-5.8945

> <Gold.Chemscore.Internal_Hbond.Weighted>
0.0000

> <Gold.Chemscore.DEClash.Weighted>
0.0089

> <Gold.Chemscore.DEInternal.Weighted>
0.5421

> <Gold.Chemscore.Rot.Weighted>
6.9251

> <Gold.Chemscore.Internal.Correction.Weighted>
   9.000000E+99

> <Gold.Protein.RotatedTorsions>
[ 6907 6896 6895 6894 ] final  -67.78 input  -60.11 | X-H torsion
[ 7974 7965 7964 7962 ] final  -75.55 input  175.53 | X-H torsion
[ 8008 7997 7996 7995 ] final  -55.63 input   59.86 | X-H torsion
[ 10167 10162 10161 10158 ] final  -76.46 input  -65.29 | X-H torsion
[ 10718 10713 10712 10709 ] final   30.16 input   66.30 | X-H torsion
[ 10763 10752 10751 10750 ] final -148.98 input  -60.55 | X-H torsion
[ 11005 11000 10999 10996 ] final  168.09 input  -57.11 | X-H torsion

> <Gold.Protein.ActiveResidues>
 VAL166  LYS551  ARG553  GLY616  TRP617  ASP618  TYR619  PRO620  LYS621  CYS622 
 ASP623  PHE694  ASN695  SER759  ASP760  ASP761  ALA762  ILE779  LEU786  VAL792 
 PHE793  MET794  SER795  GLU796  ALA797  LYS798  CYS799  TRP800  GLU811  SER814 

> <Gold.Protein.RotatedAtoms>
  150.7391  134.5832  159.5948 H   0  0  0  0  0  0  0  0  0  0  0  0  # atno 6907 bound_to 6896
  152.3240  134.7341  160.0315 H   0  0  0  0  0  0  0  0  0  0  0  0  # atno 6908 bound_to 6896
  151.7848  133.3317  159.3518 H   0  0  0  0  0  0  0  0  0  0  0  0  # atno 6909 bound_to 6896
  145.6245  140.9354  143.1120 H   0  0  0  0  0  0  0  0  0  0  0  0  # atno 7974 bound_to 7965
  154.4201  140.1148  156.5507 H   0  0  0  0  0  0  0  0  0  0  0  0  # atno 8008 bound_to 7997
  155.6413  140.3496  155.4697 H   0  0  0  0  0  0  0  0  0  0  0  0  # atno 8009 bound_to 7997
  155.9869  140.1171  157.0665 H   0  0  0  0  0  0  0  0  0  0  0  0  # atno 8010 bound_to 7997
  140.4855  143.2392  151.7991 H   0  0  0  0  0  0  0  0  0  0  0  0  # atno 10167 bound_to 10162
  157.2560  130.7138  149.6429 H   0  0  0  0  0  0  0  0  0  0  0  0  # atno 10718 bound_to 10713
  154.8203  135.3320  154.7059 H   0  0  0  0  0  0  0  0  0  0  0  0  # atno 10763 bound_to 10752
  153.7693  135.6927  153.4914 H   0  0  0  0  0  0  0  0  0  0  0  0  # atno 10764 bound_to 10752
  153.2056  135.4500  155.0267 H   0  0  0  0  0  0  0  0  0  0  0  0  # atno 10765 bound_to 10752
  140.2836  134.7731  157.3779 H   0  0  0  0  0  0  0  0  0  0  0  0  # atno 11005 bound_to 11000
  144.7218  139.8005  143.7379 LP  0  0  0  0  0  0  0  0  0  0  0  0  # atno 17320 bound_to 7965
  146.1405  139.4461  143.0111 LP  0  0  0  0  0  0  0  0  0  0  0  0  # atno 17321 bound_to 7965
  139.4841  144.4718  151.9416 LP  0  0  0  0  0  0  0  0  0  0  0  0  # atno 17342 bound_to 10162
  140.3803  144.2744  150.5909 LP  0  0  0  0  0  0  0  0  0  0  0  0  # atno 17343 bound_to 10162
  155.9665  130.4412  150.5333 LP  0  0  0  0  0  0  0  0  0  0  0  0  # atno 17370 bound_to 10713
  157.3227  131.0685  151.1920 LP  0  0  0  0  0  0  0  0  0  0  0  0  # atno 17371 bound_to 10713
  140.1261  134.5156  155.8144 LP  0  0  0  0  0  0  0  0  0  0  0  0  # atno 17394 bound_to 11000
  141.2158  133.6773  156.6954 LP  0  0  0  0  0  0  0  0  0  0  0  0  # atno 17395 bound_to 11000

$$$$
