AV-unprocessed.smi:34|AV-procd|sdf|243|dock1
  -GOLD-   2262015593D 1   1.00000     0.00000
 Structure written by MMmdl.
 54 58  0  0  0  0  0  0  0  0  2 V2000
  152.6302  139.6856  159.0774 O   0  0  0  0  0  0  0  0  0  0  0  0
  152.4663  140.5303  158.1943 C   0  0  0  0  0  0  0  0  0  0  0  0
  152.4185  140.3350  156.8521 N   0  5  0  0  0  0  0  0  0  0  0  0
  151.4300  139.6024  156.3169 C   0  0  0  0  0  0  0  0  0  0  0  0
  151.2451  139.5763  154.9724 N   0  0  0  0  0  0  0  0  0  0  0  0
  150.2642  138.8384  154.4399 C   0  0  0  0  0  0  0  0  0  0  0  0
  149.3715  138.0576  155.0555 N   0  0  0  0  0  0  0  0  0  0  0  0
  149.5496  138.0696  156.4085 C   0  0  0  0  0  0  0  0  0  0  0  0
  150.5520  138.8080  157.1037 C   0  0  0  0  0  0  0  0  0  0  0  0
  150.4640  138.5930  158.4711 N   0  0  0  0  0  0  0  0  0  0  0  0
  149.4335  137.7546  158.5446 C   0  0  0  0  0  0  0  0  0  0  0  0
  148.8363  137.3985  157.3899 N   0  0  0  0  0  0  0  0  0  0  0  0
  147.6658  136.4796  157.2275 C   0  0  2  0  0  0  0  0  0  0  0  0
  146.5903  136.9937  157.9540 O   0  0  0  0  0  0  0  0  0  0  0  0
  145.8802  135.9301  158.5834 C   0  0  1  0  0  0  0  0  0  0  0  0
  144.8351  135.3639  157.6078 C   0  0  0  0  0  0  0  0  0  0  0  0
  144.4669  134.0606  158.0283 O   0  0  0  0  0  0  0  0  0  0  0  0
  143.2414  133.8357  158.5412 C   0  0  0  0  0  0  0  0  0  0  0  0
  142.3505  134.6869  158.5796 O   0  0  0  0  0  0  0  0  0  0  0  0
  143.0770  132.4479  159.0621 C   0  0  0  0  0  0  0  0  0  0  0  0
  141.8194  132.0409  159.5658 C   0  0  0  0  0  0  0  0  0  0  0  0
  141.6341  130.7365  160.0640 C   0  0  0  0  0  0  0  0  0  0  0  0
  142.7040  129.8227  160.0629 C   0  0  0  0  0  0  0  0  0  0  0  0
  143.9598  130.2151  159.5642 C   0  0  0  0  0  0  0  0  0  0  0  0
  144.1473  131.5196  159.0669 C   0  0  0  0  0  0  0  0  0  0  0  0
  146.9853  134.9294  158.9258 C   0  0  2  0  0  0  0  0  0  0  0  0
  147.5649  135.3270  160.0601 F   0  0  0  0  0  0  0  0  0  0  0  0
  147.9363  135.0508  157.7421 C   0  0  2  0  0  0  0  0  0  0  0  0
  149.2780  134.7576  158.0897 O   0  0  0  0  0  0  0  0  0  0  0  0
  152.2226  141.9604  158.5952 C   0  0  0  0  0  0  0  0  0  0  0  0
  152.6804  142.4243  159.8497 C   0  0  0  0  0  0  0  0  0  0  0  0
  152.4846  143.7657  160.2324 C   0  0  0  0  0  0  0  0  0  0  0  0
  151.8371  144.6605  159.3600 C   0  0  0  0  0  0  0  0  0  0  0  0
  151.3900  144.2140  158.1025 C   0  0  0  0  0  0  0  0  0  0  0  0
  151.5848  142.8726  157.7192 C   0  0  0  0  0  0  0  0  0  0  0  0
  150.1840  138.8784  153.3638 H   0  0  0  0  0  0  0  0  0  0  0  0
  149.0892  137.3796  159.4971 H   0  0  0  0  0  0  0  0  0  0  0  0
  147.4448  136.5055  156.1595 H   0  0  0  0  0  0  0  0  0  0  0  0
  145.3832  136.2843  159.4877 H   0  0  0  0  0  0  0  0  0  0  0  0
  143.9627  136.0167  157.5538 H   0  0  0  0  0  0  0  0  0  0  0  0
  145.2568  135.2979  156.6041 H   0  0  0  0  0  0  0  0  0  0  0  0
  140.9831  132.7251  159.5770 H   0  0  0  0  0  0  0  0  0  0  0  0
  140.6697  130.4375  160.4472 H   0  0  0  0  0  0  0  0  0  0  0  0
  142.5618  128.8223  160.4441 H   0  0  0  0  0  0  0  0  0  0  0  0
  144.7818  129.5145  159.5621 H   0  0  0  0  0  0  0  0  0  0  0  0
  145.1238  131.7877  158.6909 H   0  0  0  0  0  0  0  0  0  0  0  0
  146.6225  133.9141  159.0880 H   0  0  0  0  0  0  0  0  0  0  0  0
  147.6246  134.3604  156.9574 H   0  0  0  0  0  0  0  0  0  0  0  0
  149.8056  134.7806  157.3062 H   0  0  0  0  0  0  0  0  0  0  0  0
  153.1811  141.7504  160.5299 H   0  0  0  0  0  0  0  0  0  0  0  0
  152.8331  144.1076  161.1955 H   0  0  0  0  0  0  0  0  0  0  0  0
  151.6876  145.6889  159.6534 H   0  0  0  0  0  0  0  0  0  0  0  0
  150.8994  144.9009  157.4285 H   0  0  0  0  0  0  0  0  0  0  0  0
  151.2435  142.5528  156.7452 H   0  0  0  0  0  0  0  0  0  0  0  0
  1  2  2  0  0  0  0
  2  3  1  0  0  0  0
  2 30  1  0  0  0  0
  3  4  1  0  0  0  0
  4  9  1  0  0  0  0
  4  5  2  0  0  0  0
  5  6  1  0  0  0  0
  6  7  2  0  0  0  0
  6 36  1  0  0  0  0
  7  8  1  0  0  0  0
  8 12  1  0  0  0  0
  8  9  2  0  0  0  0
  9 10  1  0  0  0  0
 10 11  2  0  0  0  0
 11 12  1  0  0  0  0
 11 37  1  0  0  0  0
 12 13  1  0  0  0  0
 13 28  1  0  0  0  0
 13 14  1  0  0  0  0
 13 38  1  0  0  0  0
 14 15  1  0  0  0  0
 15 16  1  0  0  0  0
 15 26  1  0  0  0  0
 15 39  1  0  0  0  0
 16 17  1  0  0  0  0
 16 40  1  0  0  0  0
 16 41  1  0  0  0  0
 17 18  1  0  0  0  0
 18 19  2  0  0  0  0
 18 20  1  0  0  0  0
 20 25  1  0  0  0  0
 20 21  2  0  0  0  0
 21 22  1  0  0  0  0
 21 42  1  0  0  0  0
 22 23  2  0  0  0  0
 22 43  1  0  0  0  0
 23 24  1  0  0  0  0
 23 44  1  0  0  0  0
 24 25  2  0  0  0  0
 24 45  1  0  0  0  0
 25 46  1  0  0  0  0
 26 27  1  0  0  0  0
 26 28  1  0  0  0  0
 26 47  1  0  0  0  0
 28 29  1  0  0  0  0
 28 48  1  0  0  0  0
 29 49  1  0  0  0  0
 30 35  1  0  0  0  0
 30 31  2  0  0  0  0
 31 32  1  0  0  0  0
 31 50  1  0  0  0  0
 32 33  2  0  0  0  0
 32 51  1  0  0  0  0
 33 34  1  0  0  0  0
 33 52  1  0  0  0  0
 34 35  2  0  0  0  0
 34 53  1  0  0  0  0
 35 54  1  0  0  0  0
M  CHG  1   3  -1
M  END
> <s_m_source_file>
AV-unprocessed.smi

> <i_m_source_file_index>
34

> <i_lp_mmshare_version>
43012

> <i_f3d_flags>
0

> <s_epik_input>
W2NIXTFbY0hdW2NIXVtjSF1bY0hdYzFDKD1PKVtOSF1jKG5bY0hdbjIpYyhjMjMpbltjSF1uM1tDQEBIXTRPW0NASF0oW0NAQEhdKEYpW0NASF00W09IXSlbQ0gyXU9DKD1PKWM1W2NIXVtjSF1bY0hdW2NIXVtjSF01

> <s_epik_cmdline>
J2VwaWtfcHl0aG9uJywgJy1waCcsICc3LjAnLCAnLXRuJywgJzgnLCAnLW1hJywgJzIwMCcsICctbWV0YWxfYmluZGluZycsICctaW1hZScsICc8aW5maWxlLm1hZT4nLCAnLW9tYWUnLCAnPG91dGZpbGUubWFlPic=

> <r_lp_tautomer_probability>
1

> <r_epik_Ionization_Penalty>
4.33227

> <r_epik_Ionization_Penalty_Charging>
3.41027

> <r_epik_Ionization_Penalty_Neutral>
0.922001

> <r_epik_State_Penalty>
3.41358

> <r_epik_Charging_Adjusted_Penalty>
6.82385

> <i_epik_Tot_Q>
-1

> <i_epik_Tot_abs_Q>
1

> <r_epik_Metal_State_Penalty>
0.496292

> <b_epik_Metal_Only>
1

> <s_epik_Chemistry_Notes>
This compound has an ester and may undergo hydrolysis at high or low pH. This compound contains an acetal/aminal-like group ( X-CH(R)-Y where X, Y are N, S, or O) that may be acid/base labile, releasing an aldehyde.

> <s_lp_Force_Field>
OPLS_2005

> <r_lp_Energy>
51.1701

> <b_lp_Chiralities_Consistent>
1

> <s_lp_Variant>
AV-unprocessed.smi:34-29

> <Gold.Version>
5.8.1

> <Gold.Id.Protein>
6NUR|6NUR_protein|mol2

> <Gold.PLP.Fitness>
61.4517

> <Gold.PLP.PLP>
-44.6036

> <Gold.PLP.part.hbond>
-4.0000

> <Gold.PLP.part.metal>
0.0000

> <Gold.PLP.part.buried>
-6.0397

> <Gold.PLP.part.nonpolar>
-33.8604

> <Gold.PLP.part.repulsive>
0.2060

> <Gold.PLP.ligand.clash>
0.0000

> <Gold.PLP.ligand.torsion>
1.3988

> <Gold.PLP.Chemscore.Hbond>
4.9840

> <Gold.PLP.Chemscore.CHOScore>
0.9990

> <Gold.PLP.Chemscore.Metal>
0.0000

> <Gold.Chemscore.Hbonds>
donor molecule, donor type, donor heavy atom, donor atom, acceptor molecule, acceptor atom, score
      P1  H  6896  6908       L1    29  1.00
      P1  H  7989  7998       L1     5  1.00
      P1  H  7997  8008       L1     3  1.98
      P1  H 11000 11005       L1    19  1.00
      L1  C     6    36       P1  7957  0.97

> <Gold.PLP.Chemscore.Internal.Correction>
1.6968

> <Gold.Rescore>
     Score         DG    S(hbond)    S(metal)    S(lipo)     H(rot)  DE(clash)    DE(int)     intcor
     12.70     -19.72       2.75        0.00     102.19       2.69       0.47       6.56       ----

> <Gold.Chemscore.Fitness>
12.6977

> <Gold.Chemscore.DG>
-19.7230

> <Gold.Chemscore.ZeroCoef>
-5.4800

> <Gold.Chemscore.Hbond>
2.7499

> <Gold.Chemscore.Metal>
0.0000

> <Gold.Chemscore.Lipo>
102.1855

> <Gold.Chemscore.Internal_Hbond>
0.0000

> <Gold.Chemscore.DEClash>
0.4672

> <Gold.Chemscore.DEInternal>
6.5581

> <Gold.Chemscore.Rot>
2.6944

> <Gold.Chemscore.Internal.Correction>
   9.000000E+99

> <Gold.Chemscore.Hbonds>
donor molecule, donor type, donor heavy atom, donor atom, acceptor molecule, acceptor atom, score
      P1  H  6896  6908       L1    29  0.25
      P1  H  7989  7998       L1     5  0.34
      P1  H  7997  8008       L1     3  0.24
      P1  H 11000 11005       L1    19  0.49

> <Gold.Chemscore.Hbond.Weighted>
-9.1848

> <Gold.Chemscore.Metal.Weighted>
-0.0000

> <Gold.Chemscore.Lipo.Weighted>
-11.9557

> <Gold.Chemscore.Internal_Hbond.Weighted>
0.0000

> <Gold.Chemscore.DEClash.Weighted>
0.4672

> <Gold.Chemscore.DEInternal.Weighted>
6.5581

> <Gold.Chemscore.Rot.Weighted>
6.8975

> <Gold.Chemscore.Internal.Correction.Weighted>
   9.000000E+99

> <Gold.Protein.RotatedTorsions>
[ 6907 6896 6895 6894 ] final  147.58 input  -60.11 | X-H torsion
[ 7974 7965 7964 7962 ] final   73.44 input  175.53 | X-H torsion
[ 8008 7997 7996 7995 ] final  -49.83 input   59.86 | X-H torsion
[ 10167 10162 10161 10158 ] final   30.65 input  -65.29 | X-H torsion
[ 10718 10713 10712 10709 ] final -123.17 input   66.30 | X-H torsion
[ 10763 10752 10751 10750 ] final  177.14 input  -60.55 | X-H torsion
[ 11005 11000 10999 10996 ] final -122.59 input  -57.11 | X-H torsion

> <Gold.Protein.ActiveResidues>
 VAL166  LYS551  ARG553  GLY616  TRP617  ASP618  TYR619  PRO620  LYS621  CYS622 
 ASP623  PHE694  ASN695  SER759  ASP760  ASP761  ALA762  ILE779  LEU786  VAL792 
 PHE793  MET794  SER795  GLU796  ALA797  LYS798  CYS799  TRP800  GLU811  SER814 

> <Gold.Protein.RotatedAtoms>
  152.1528  133.4533  159.4821 H   0  0  0  0  0  0  0  0  0  0  0  0  # atno 6907 bound_to 6896
  150.6897  134.2167  159.4390 H   0  0  0  0  0  0  0  0  0  0  0  0  # atno 6908 bound_to 6896
  152.0065  134.9899  160.0617 H   0  0  0  0  0  0  0  0  0  0  0  0  # atno 6909 bound_to 6896
  145.7408  139.2720  143.1487 H   0  0  0  0  0  0  0  0  0  0  0  0  # atno 7974 bound_to 7965
  154.4051  140.1287  156.4566 H   0  0  0  0  0  0  0  0  0  0  0  0  # atno 8008 bound_to 7997
  155.7314  140.3491  155.5041 H   0  0  0  0  0  0  0  0  0  0  0  0  # atno 8009 bound_to 7997
  155.9124  140.1038  157.1259 H   0  0  0  0  0  0  0  0  0  0  0  0  # atno 8010 bound_to 7997
  140.4659  144.0836  150.6224 H   0  0  0  0  0  0  0  0  0  0  0  0  # atno 10167 bound_to 10162
  156.1480  130.6514  150.9871 H   0  0  0  0  0  0  0  0  0  0  0  0  # atno 10718 bound_to 10713
  154.4905  135.2779  155.1500 H   0  0  0  0  0  0  0  0  0  0  0  0  # atno 10763 bound_to 10752
  154.3174  135.6217  153.5496 H   0  0  0  0  0  0  0  0  0  0  0  0  # atno 10764 bound_to 10752
  152.9887  135.5734  154.5326 H   0  0  0  0  0  0  0  0  0  0  0  0  # atno 10765 bound_to 10752
  140.9983  134.0439  157.3569 H   0  0  0  0  0  0  0  0  0  0  0  0  # atno 11005 bound_to 11000
  146.0449  140.8127  142.9810 LP  0  0  0  0  0  0  0  0  0  0  0  0  # atno 17320 bound_to 7965
  144.6871  140.2966  143.7270 LP  0  0  0  0  0  0  0  0  0  0  0  0  # atno 17321 bound_to 7965
  140.4036  143.2691  151.9917 LP  0  0  0  0  0  0  0  0  0  0  0  0  # atno 17342 bound_to 10162
  139.4812  144.5976  151.7663 LP  0  0  0  0  0  0  0  0  0  0  0  0  # atno 17343 bound_to 10162
  157.6633  131.0876  150.7788 LP  0  0  0  0  0  0  0  0  0  0  0  0  # atno 17370 bound_to 10713
  156.7858  130.4874  149.5393 LP  0  0  0  0  0  0  0  0  0  0  0  0  # atno 17371 bound_to 10713
  139.9026  135.0170  156.7339 LP  0  0  0  0  0  0  0  0  0  0  0  0  # atno 17394 bound_to 11000
  140.6929  133.9374  155.7977 LP  0  0  0  0  0  0  0  0  0  0  0  0  # atno 17395 bound_to 11000

$$$$
