AV-unprocessed.smi:3104|AV-procd|sdf|11818|dock9
  -GOLD-   2272017193D 1   1.00000     0.00000
 Structure written by MMmdl.
 37 38  0  0  0  0  0  0  0  0  2 V2000
  150.7212  143.0909  157.8529 C   0  0  0  0  0  0  0  0  0  0  0  0
  150.6888  141.8350  157.0311 C   0  0  0  0  0  0  0  0  0  0  0  0
  151.2297  140.5598  157.3595 C   0  0  0  0  0  0  0  0  0  0  0  0
  151.0295  139.6577  156.4129 N   0  0  0  0  0  0  0  0  0  0  0  0
  150.3532  140.3189  155.4493 N   0  0  0  0  0  0  0  0  0  0  0  0
  149.9659  139.6210  154.2297 C   0  0  1  0  0  0  0  0  0  0  0  0
  150.6480  138.2415  154.1806 C   0  0  0  0  0  0  0  0  0  0  0  0
  148.4237  139.5432  154.0746 C   0  0  1  0  0  0  0  0  0  0  0  0
  147.7370  140.9197  154.1374 C   0  0  0  0  0  0  0  0  0  0  0  0
  148.0670  138.8915  152.7945 N   0  3  0  0  0  0  0  0  0  0  0  0
  146.6245  138.8907  152.4796 C   0  0  0  0  0  0  0  0  0  0  0  0
  146.1237  137.4848  152.2248 C   0  0  0  0  0  0  0  0  0  0  0  0
  144.7234  137.0934  152.6368 C   0  0  0  0  0  0  0  0  0  0  0  0
  145.9111  136.5182  153.3675 C   0  0  0  0  0  0  0  0  0  0  0  0
  150.1375  141.6375  155.7972 C   0  0  0  0  0  0  0  0  0  0  0  0
  151.2247  142.9382  158.8078 H   0  0  0  0  0  0  0  0  0  0  0  0
  149.7165  143.4518  158.0742 H   0  0  0  0  0  0  0  0  0  0  0  0
  151.2467  143.8953  157.3381 H   0  0  0  0  0  0  0  0  0  0  0  0
  151.7595  140.2649  158.2535 H   0  0  0  0  0  0  0  0  0  0  0  0
  150.3543  140.2015  153.3903 H   0  0  0  0  0  0  0  0  0  0  0  0
  150.4985  137.7546  153.2169 H   0  0  0  0  0  0  0  0  0  0  0  0
  150.2619  137.5758  154.9531 H   0  0  0  0  0  0  0  0  0  0  0  0
  151.7246  138.3329  154.3290 H   0  0  0  0  0  0  0  0  0  0  0  0
  148.0222  138.9521  154.8999 H   0  0  0  0  0  0  0  0  0  0  0  0
  147.8762  141.3996  155.1064 H   0  0  0  0  0  0  0  0  0  0  0  0
  146.6617  140.8274  153.9805 H   0  0  0  0  0  0  0  0  0  0  0  0
  148.1279  141.5928  153.3734 H   0  0  0  0  0  0  0  0  0  0  0  0
  148.5489  139.3728  152.0484 H   0  0  0  0  0  0  0  0  0  0  0  0
  146.0574  139.3389  153.2964 H   0  0  0  0  0  0  0  0  0  0  0  0
  146.4501  139.4957  151.5892 H   0  0  0  0  0  0  0  0  0  0  0  0
  146.4645  137.0578  151.2832 H   0  0  0  0  0  0  0  0  0  0  0  0
  144.1222  137.8345  153.1603 H   0  0  0  0  0  0  0  0  0  0  0  0
  144.1714  136.4287  151.9752 H   0  0  0  0  0  0  0  0  0  0  0  0
  146.1505  135.4713  153.1918 H   0  0  0  0  0  0  0  0  0  0  0  0
  146.0990  136.8752  154.3783 H   0  0  0  0  0  0  0  0  0  0  0  0
  149.6141  142.3209  155.1448 H   0  0  0  0  0  0  0  0  0  0  0  0
  148.3948  137.9364  152.8222 H   0  0  0  0  0  0  0  0  0  0  0  0
  1  2  1  0  0  0  0
  1 16  1  0  0  0  0
  1 17  1  0  0  0  0
  1 18  1  0  0  0  0
  2 15  2  0  0  0  0
  2  3  1  0  0  0  0
  3  4  2  0  0  0  0
  3 19  1  0  0  0  0
  4  5  1  0  0  0  0
  5  6  1  0  0  0  0
  5 15  1  0  0  0  0
  6  7  1  0  0  0  0
  6  8  1  0  0  0  0
  6 20  1  0  0  0  0
  7 21  1  0  0  0  0
  7 22  1  0  0  0  0
  7 23  1  0  0  0  0
  8  9  1  0  0  0  0
  8 10  1  0  0  0  0
  8 24  1  0  0  0  0
  9 25  1  0  0  0  0
  9 26  1  0  0  0  0
  9 27  1  0  0  0  0
 10 11  1  0  0  0  0
 10 28  1  0  0  0  0
 10 37  1  0  0  0  0
 11 12  1  0  0  0  0
 11 29  1  0  0  0  0
 11 30  1  0  0  0  0
 12 14  1  0  0  0  0
 12 13  1  0  0  0  0
 12 31  1  0  0  0  0
 13 14  1  0  0  0  0
 13 32  1  0  0  0  0
 13 33  1  0  0  0  0
 14 34  1  0  0  0  0
 14 35  1  0  0  0  0
 15 36  1  0  0  0  0
M  CHG  1  10   1
M  END
> <s_m_source_file>
AV-unprocessed.smi

> <i_m_source_file_index>
3104

> <i_lp_mmshare_version>
43012

> <i_f3d_flags>
0

> <s_epik_input>
W0NIM11jMVtjSF1ubihbY0hdMSlbQ0BIXShbQ0gzXSlbQ0BIXShbQ0gzXSlbTkhdW0NIMl1bQ0hdMltDSDJdW0NIMl0y

> <s_epik_cmdline>
J2VwaWtfcHl0aG9uJywgJy1waCcsICc3LjAnLCAnLXRuJywgJzgnLCAnLW1hJywgJzIwMCcsICctbWV0YWxfYmluZGluZycsICctaW1hZScsICc8aW5maWxlLm1hZT4nLCAnLW9tYWUnLCAnPG91dGZpbGUubWFlPic=

> <r_lp_tautomer_probability>
1

> <r_epik_Ionization_Penalty>
0.00120445

> <r_epik_Ionization_Penalty_Charging>
0.00118273

> <r_epik_Ionization_Penalty_Neutral>
2.17265e-05

> <r_epik_State_Penalty>
-0

> <r_epik_Charging_Adjusted_Penalty>
0.00118273

> <i_epik_Tot_Q>
1

> <i_epik_Tot_abs_Q>
1

> <r_epik_Metal_State_Penalty>
-0

> <b_epik_Metal_Only>
0

> <s_lp_Force_Field>
OPLS_2005

> <r_lp_Energy>
22.3414

> <b_lp_Chiralities_Consistent>
1

> <s_lp_Variant>
AV-unprocessed.smi:3104-4

> <Gold.Version>
5.8.1

> <Gold.Id.Protein>
6NUR|6NUR_protein|mol2

> <Gold.PLP.Fitness>
39.7400

> <Gold.PLP.PLP>
-29.0137

> <Gold.PLP.part.hbond>
-1.9531

> <Gold.PLP.part.metal>
0.0000

> <Gold.PLP.part.buried>
-1.0932

> <Gold.PLP.part.nonpolar>
-27.3080

> <Gold.PLP.part.repulsive>
0.0681

> <Gold.PLP.ligand.clash>
0.0000

> <Gold.PLP.ligand.torsion>
0.8111

> <Gold.PLP.Chemscore.Hbond>
2.9913

> <Gold.PLP.Chemscore.CHOScore>
0.9148

> <Gold.PLP.Chemscore.Metal>
0.0000

> <Gold.Chemscore.Hbonds>
donor molecule, donor type, donor heavy atom, donor atom, acceptor molecule, acceptor atom, score
      L1  H    10    28       P1  7957  0.96
      L1  H    10    37       P1  7948  1.98
      L1  C    15    36       P1  8028  0.91

> <Gold.PLP.Chemscore.Internal.Correction>
0.6304

> <Gold.Rescore>
     Score         DG    S(hbond)    S(metal)    S(lipo)     H(rot)  DE(clash)    DE(int)     intcor
     16.30     -17.51       1.93        0.00      80.24       1.49       0.14       1.07       ----

> <Gold.Chemscore.Fitness>
16.2975

> <Gold.Chemscore.DG>
-17.5095

> <Gold.Chemscore.ZeroCoef>
-5.4800

> <Gold.Chemscore.Hbond>
1.9348

> <Gold.Chemscore.Metal>
0.0000

> <Gold.Chemscore.Lipo>
80.2366

> <Gold.Chemscore.Internal_Hbond>
0.0000

> <Gold.Chemscore.DEClash>
0.1387

> <Gold.Chemscore.DEInternal>
1.0733

> <Gold.Chemscore.Rot>
1.4923

> <Gold.Chemscore.Internal.Correction>
   9.000000E+99

> <Gold.Chemscore.Hbonds>
donor molecule, donor type, donor heavy atom, donor atom, acceptor molecule, acceptor atom, score
      L1  H    10    28       P1  7957  0.91
      L1  H    10    37       P1  7948  0.88

> <Gold.Chemscore.Hbond.Weighted>
-6.4622

> <Gold.Chemscore.Metal.Weighted>
-0.0000

> <Gold.Chemscore.Lipo.Weighted>
-9.3877

> <Gold.Chemscore.Internal_Hbond.Weighted>
0.0000

> <Gold.Chemscore.DEClash.Weighted>
0.1387

> <Gold.Chemscore.DEInternal.Weighted>
1.0733

> <Gold.Chemscore.Rot.Weighted>
3.8204

> <Gold.Chemscore.Internal.Correction.Weighted>
   9.000000E+99

> <Gold.Protein.RotatedTorsions>
[ 6907 6896 6895 6894 ] final  173.89 input  -60.11 | X-H torsion
[ 7974 7965 7964 7962 ] final  -58.54 input  175.53 | X-H torsion
[ 8008 7997 7996 7995 ] final -114.68 input   59.86 | X-H torsion
[ 10167 10162 10161 10158 ] final   84.74 input  -65.29 | X-H torsion
[ 10718 10713 10712 10709 ] final  114.42 input   66.30 | X-H torsion
[ 10763 10752 10751 10750 ] final  -98.68 input  -60.55 | X-H torsion
[ 11005 11000 10999 10996 ] final -142.87 input  -57.11 | X-H torsion

> <Gold.Protein.ActiveResidues>
 VAL166  LYS551  ARG553  GLY616  TRP617  ASP618  TYR619  PRO620  LYS621  CYS622 
 ASP623  PHE694  ASN695  SER759  ASP760  ASP761  ALA762  ILE779  LEU786  VAL792 
 PHE793  MET794  SER795  GLU796  ALA797  LYS798  CYS799  TRP800  GLU811  SER814 

> <Gold.Protein.RotatedAtoms>
  151.7611  133.3334  159.3417 H   0  0  0  0  0  0  0  0  0  0  0  0  # atno 6907 bound_to 6896
  150.7497  134.6104  159.6093 H   0  0  0  0  0  0  0  0  0  0  0  0  # atno 6908 bound_to 6896
  152.3404  134.7143  160.0316 H   0  0  0  0  0  0  0  0  0  0  0  0  # atno 6909 bound_to 6896
  145.8381  140.8435  143.0049 H   0  0  0  0  0  0  0  0  0  0  0  0  # atno 7974 bound_to 7965
  155.0402  140.0392  157.2506 H   0  0  0  0  0  0  0  0  0  0  0  0  # atno 8008 bound_to 7997
  154.7223  140.2714  155.6506 H   0  0  0  0  0  0  0  0  0  0  0  0  # atno 8009 bound_to 7997
  156.2820  140.2700  156.1898 H   0  0  0  0  0  0  0  0  0  0  0  0  # atno 8010 bound_to 7997
  139.9049  144.6307  150.8598 H   0  0  0  0  0  0  0  0  0  0  0  0  # atno 10167 bound_to 10162
  157.6282  131.0998  150.7183 H   0  0  0  0  0  0  0  0  0  0  0  0  # atno 10718 bound_to 10713
  154.7434  135.5000  153.9162 H   0  0  0  0  0  0  0  0  0  0  0  0  # atno 10763 bound_to 10752
  153.1067  135.6699  153.9582 H   0  0  0  0  0  0  0  0  0  0  0  0  # atno 10764 bound_to 10752
  153.9353  135.3073  155.3423 H   0  0  0  0  0  0  0  0  0  0  0  0  # atno 10765 bound_to 10752
  140.8182  134.2663  157.4912 H   0  0  0  0  0  0  0  0  0  0  0  0  # atno 11005 bound_to 11000
  144.6735  140.0771  143.7471 LP  0  0  0  0  0  0  0  0  0  0  0  0  # atno 17320 bound_to 7965
  145.9496  139.2724  143.1220 LP  0  0  0  0  0  0  0  0  0  0  0  0  # atno 17321 bound_to 7965
  140.7698  143.3409  151.2211 LP  0  0  0  0  0  0  0  0  0  0  0  0  # atno 17342 bound_to 10162
  139.6993  143.9560  152.2897 LP  0  0  0  0  0  0  0  0  0  0  0  0  # atno 17343 bound_to 10162
  156.7527  130.4774  149.5453 LP  0  0  0  0  0  0  0  0  0  0  0  0  # atno 17370 bound_to 10713
  156.1468  130.6282  151.0542 LP  0  0  0  0  0  0  0  0  0  0  0  0  # atno 17371 bound_to 10713
  139.8710  134.9521  156.4104 LP  0  0  0  0  0  0  0  0  0  0  0  0  # atno 17394 bound_to 11000
  140.9127  133.7701  155.9810 LP  0  0  0  0  0  0  0  0  0  0  0  0  # atno 17395 bound_to 11000

$$$$
