AV-unprocessed.smi:949|AV-procd|sdf|4249|dock8
  -GOLD-   22720 2153D 1   1.00000     0.00000
 Structure written by MMmdl.
 32 33  0  0  0  0  0  0  0  0  1 V2000
  149.2170  140.7426  157.9454 C   0  0  0  0  0  0  0  0  0  0  0  0
  150.1654  141.5744  157.0618 C   0  0  1  0  0  0  0  0  0  0  0  0
  149.4758  142.0118  155.8536 N   0  0  0  0  0  0  0  0  0  0  0  0
  148.8317  141.1227  154.9749 C   0  0  0  0  0  0  0  0  0  0  0  0
  149.2207  139.7694  154.8319 C   0  0  0  0  0  0  0  0  0  0  0  0
  148.5195  138.9509  153.9249 C   0  0  0  0  0  0  0  0  0  0  0  0
  147.4869  139.3865  153.1751 N   0  0  0  0  0  0  0  0  0  0  0  0
  147.1150  140.6759  153.3100 C   0  0  0  0  0  0  0  0  0  0  0  0
  147.7464  141.5821  154.1881 C   0  0  0  0  0  0  0  0  0  0  0  0
  147.2899  142.9007  154.2602 N   0  0  0  0  0  0  0  0  0  0  0  0
  150.7113  142.8024  157.8160 C   0  0  1  0  0  0  0  0  0  0  0  0
  151.6603  142.4786  158.9714 C   0  0  0  0  0  0  0  0  0  0  0  0
  152.5120  143.7317  159.1008 C   0  0  0  0  0  0  0  0  0  0  0  0
  152.2775  144.4777  157.7849 C   0  0  0  0  0  0  0  0  0  0  0  0
  151.5529  143.5694  156.9677 O   0  0  0  0  0  0  0  0  0  0  0  0
  149.7302  140.3554  158.8254 H   0  0  0  0  0  0  0  0  0  0  0  0
  148.8133  139.8843  157.4085 H   0  0  0  0  0  0  0  0  0  0  0  0
  148.3727  141.3409  158.2896 H   0  0  0  0  0  0  0  0  0  0  0  0
  151.0193  140.9586  156.7785 H   0  0  0  0  0  0  0  0  0  0  0  0
  149.5664  142.9802  155.5827 H   0  0  0  0  0  0  0  0  0  0  0  0
  150.0357  139.3436  155.3962 H   0  0  0  0  0  0  0  0  0  0  0  0
  148.7974  137.9149  153.7988 H   0  0  0  0  0  0  0  0  0  0  0  0
  146.2850  140.9942  152.6959 H   0  0  0  0  0  0  0  0  0  0  0  0
  147.7201  143.5740  154.8783 H   0  0  0  0  0  0  0  0  0  0  0  0
  146.4768  143.2060  153.7453 H   0  0  0  0  0  0  0  0  0  0  0  0
  149.8934  143.4326  158.1723 H   0  0  0  0  0  0  0  0  0  0  0  0
  151.1340  142.2305  159.8936 H   0  0  0  0  0  0  0  0  0  0  0  0
  152.2967  141.6323  158.7092 H   0  0  0  0  0  0  0  0  0  0  0  0
  152.1969  144.3419  159.9480 H   0  0  0  0  0  0  0  0  0  0  0  0
  153.5630  143.4775  159.2417 H   0  0  0  0  0  0  0  0  0  0  0  0
  151.6738  145.3707  157.9524 H   0  0  0  0  0  0  0  0  0  0  0  0
  153.2071  144.7808  157.3031 H   0  0  0  0  0  0  0  0  0  0  0  0
  1  2  1  0  0  0  0
  1 16  1  0  0  0  0
  1 17  1  0  0  0  0
  1 18  1  0  0  0  0
  2  3  1  0  0  0  0
  2 11  1  0  0  0  0
  2 19  1  0  0  0  0
  3  4  1  0  0  0  0
  3 20  1  0  0  0  0
  4  9  1  0  0  0  0
  4  5  2  0  0  0  0
  5  6  1  0  0  0  0
  5 21  1  0  0  0  0
  6  7  2  0  0  0  0
  6 22  1  0  0  0  0
  7  8  1  0  0  0  0
  8  9  2  0  0  0  0
  8 23  1  0  0  0  0
  9 10  1  0  0  0  0
 10 24  1  0  0  0  0
 10 25  1  0  0  0  0
 11 15  1  0  0  0  0
 11 12  1  0  0  0  0
 11 26  1  0  0  0  0
 12 13  1  0  0  0  0
 12 27  1  0  0  0  0
 12 28  1  0  0  0  0
 13 14  1  0  0  0  0
 13 29  1  0  0  0  0
 13 30  1  0  0  0  0
 14 15  1  0  0  0  0
 14 31  1  0  0  0  0
 14 32  1  0  0  0  0
M  END
> <s_m_source_file>
AV-unprocessed.smi

> <i_m_source_file_index>
949

> <i_lp_mmshare_version>
43012

> <i_f3d_flags>
0

> <s_epik_input>
TzFbQ0gyXVtDSDJdW0NIMl1bQ0BIXTFbQ0BIXShbQ0gzXSlbTkhdYzJbY0hdW2NIXW5bY0hdYzJbTkgyXQ==

> <s_epik_cmdline>
J2VwaWtfcHl0aG9uJywgJy1waCcsICc3LjAnLCAnLXRuJywgJzgnLCAnLW1hJywgJzIwMCcsICctbWV0YWxfYmluZGluZycsICctaW1hZScsICc8aW5maWxlLm1hZT4nLCAnLW9tYWUnLCAnPG91dGZpbGUubWFlPic=

> <r_epik_Ionization_Penalty>
3.88091

> <r_epik_Ionization_Penalty_Charging>
0

> <r_epik_Ionization_Penalty_Neutral>
3.88091

> <r_epik_State_Penalty>
3.88049

> <r_epik_Charging_Adjusted_Penalty>
3.88049

> <i_epik_Tot_Q>
0

> <i_epik_Tot_abs_Q>
0

> <r_epik_Metal_State_Penalty>
0.313783

> <b_epik_Metal_Only>
1

> <s_lp_Force_Field>
OPLS_2005

> <r_lp_Energy>
24.4145

> <b_lp_Chiralities_Consistent>
1

> <s_lp_Variant>
AV-unprocessed.smi:949-8

> <Gold.Version>
5.8.1

> <Gold.Id.Protein>
6NUR|6NUR_protein|mol2

> <Gold.PLP.Fitness>
39.4313

> <Gold.PLP.PLP>
-28.4244

> <Gold.PLP.part.hbond>
-2.0000

> <Gold.PLP.part.metal>
0.0000

> <Gold.PLP.part.buried>
-3.7362

> <Gold.PLP.part.nonpolar>
-25.2043

> <Gold.PLP.part.repulsive>
1.5396

> <Gold.PLP.ligand.clash>
0.0000

> <Gold.PLP.ligand.torsion>
0.2137

> <Gold.PLP.Chemscore.Hbond>
1.9000

> <Gold.PLP.Chemscore.CHOScore>
1.9024

> <Gold.PLP.Chemscore.Metal>
0.0000

> <Gold.Chemscore.Hbonds>
donor molecule, donor type, donor heavy atom, donor atom, acceptor molecule, acceptor atom, score
      L1  H     3    20       P1  8028  0.98
      L1  H    10    24       P1  8028  1.00
      L1  C     6    22       P1  7948  0.94
      L1  C     8    23       P1 10175  0.65

> <Gold.PLP.Chemscore.Internal.Correction>
0.0271

> <Gold.Rescore>
     Score         DG    S(hbond)    S(metal)    S(lipo)     H(rot)  DE(clash)    DE(int)     intcor
     15.69     -16.50       1.22        0.00      85.84       1.22       0.58       0.22       ----

> <Gold.Chemscore.Fitness>
15.6936

> <Gold.Chemscore.DG>
-16.4994

> <Gold.Chemscore.ZeroCoef>
-5.4800

> <Gold.Chemscore.Hbond>
1.2249

> <Gold.Chemscore.Metal>
0.0000

> <Gold.Chemscore.Lipo>
85.8420

> <Gold.Chemscore.Internal_Hbond>
0.0000

> <Gold.Chemscore.DEClash>
0.5814

> <Gold.Chemscore.DEInternal>
0.2244

> <Gold.Chemscore.Rot>
1.2169

> <Gold.Chemscore.Internal.Correction>
   9.000000E+99

> <Gold.Chemscore.Hbonds>
donor molecule, donor type, donor heavy atom, donor atom, acceptor molecule, acceptor atom, score
      L1  H     3    20       P1  8028  0.92
      L1  H    10    24       P1  8028  0.30

> <Gold.Chemscore.Hbond.Weighted>
-4.0911

> <Gold.Chemscore.Metal.Weighted>
-0.0000

> <Gold.Chemscore.Lipo.Weighted>
-10.0435

> <Gold.Chemscore.Internal_Hbond.Weighted>
0.0000

> <Gold.Chemscore.DEClash.Weighted>
0.5814

> <Gold.Chemscore.DEInternal.Weighted>
0.2244

> <Gold.Chemscore.Rot.Weighted>
3.1152

> <Gold.Chemscore.Internal.Correction.Weighted>
   9.000000E+99

> <Gold.Protein.RotatedTorsions>
[ 6907 6896 6895 6894 ] final -127.92 input  -60.11 | X-H torsion
[ 7974 7965 7964 7962 ] final  -31.88 input  175.53 | X-H torsion
[ 8008 7997 7996 7995 ] final   44.32 input   59.86 | X-H torsion
[ 10167 10162 10161 10158 ] final -113.67 input  -65.29 | X-H torsion
[ 10718 10713 10712 10709 ] final  167.78 input   66.30 | X-H torsion
[ 10763 10752 10751 10750 ] final  -27.00 input  -60.55 | X-H torsion
[ 11005 11000 10999 10996 ] final -101.55 input  -57.11 | X-H torsion

> <Gold.Protein.ActiveResidues>
 VAL166  LYS551  ARG553  GLY616  TRP617  ASP618  TYR619  PRO620  LYS621  CYS622 
 ASP623  PHE694  ASN695  SER759  ASP760  ASP761  ALA762  ILE779  LEU786  VAL792 
 PHE793  MET794  SER795  GLU796  ALA797  LYS798  CYS799  TRP800  GLU811  SER814 

> <Gold.Protein.RotatedAtoms>
  150.9124  133.6981  159.2851 H   0  0  0  0  0  0  0  0  0  0  0  0  # atno 6907 bound_to 6896
  151.4463  135.1024  159.9694 H   0  0  0  0  0  0  0  0  0  0  0  0  # atno 6908 bound_to 6896
  152.4937  133.8521  159.7262 H   0  0  0  0  0  0  0  0  0  0  0  0  # atno 6909 bound_to 6896
  146.1034  140.5722  142.8811 H   0  0  0  0  0  0  0  0  0  0  0  0  # atno 7974 bound_to 7965
  155.3174  140.3395  155.4242 H   0  0  0  0  0  0  0  0  0  0  0  0  # atno 8008 bound_to 7997
  156.1926  140.1703  156.8100 H   0  0  0  0  0  0  0  0  0  0  0  0  # atno 8009 bound_to 7997
  154.5460  140.0715  156.8573 H   0  0  0  0  0  0  0  0  0  0  0  0  # atno 8010 bound_to 7997
  140.1093  143.4542  152.1763 H   0  0  0  0  0  0  0  0  0  0  0  0  # atno 10167 bound_to 10162
  157.0466  131.0301  151.2695 H   0  0  0  0  0  0  0  0  0  0  0  0  # atno 10718 bound_to 10713
  153.7251  135.6942  153.5003 H   0  0  0  0  0  0  0  0  0  0  0  0  # atno 10763 bound_to 10752
  153.2176  135.4381  155.0451 H   0  0  0  0  0  0  0  0  0  0  0  0  # atno 10764 bound_to 10752
  154.8271  135.3452  154.6783 H   0  0  0  0  0  0  0  0  0  0  0  0  # atno 10765 bound_to 10752
  141.1226  133.8487  157.1246 H   0  0  0  0  0  0  0  0  0  0  0  0  # atno 11005 bound_to 11000
  144.7451  140.5045  143.6842 LP  0  0  0  0  0  0  0  0  0  0  0  0  # atno 17320 bound_to 7965
  145.5810  139.1489  143.3235 LP  0  0  0  0  0  0  0  0  0  0  0  0  # atno 17321 bound_to 7965
  139.5628  144.7416  151.4107 LP  0  0  0  0  0  0  0  0  0  0  0  0  # atno 17342 bound_to 10162
  140.6935  143.7806  150.7290 LP  0  0  0  0  0  0  0  0  0  0  0  0  # atno 17343 bound_to 10162
  157.5063  130.7911  149.7658 LP  0  0  0  0  0  0  0  0  0  0  0  0  # atno 17370 bound_to 10713
  156.0021  130.3874  150.2567 LP  0  0  0  0  0  0  0  0  0  0  0  0  # atno 17371 bound_to 10713
  140.0196  134.9952  157.0565 LP  0  0  0  0  0  0  0  0  0  0  0  0  # atno 17394 bound_to 11000
  140.4461  134.1630  155.7177 LP  0  0  0  0  0  0  0  0  0  0  0  0  # atno 17395 bound_to 11000

$$$$
