AV-unprocessed.smi:243|AV-procd|sdf|1856|dock1
  -GOLD-   2262020483D 1   1.00000     0.00000
 Structure written by MMmdl.
 58 61  0  0  0  0  0  0  0  0  2 V2000
  152.5181  144.8750  158.6079 C   0  0  0  0  0  0  0  0  0  0  0  0
  151.7861  143.8585  159.4967 C   0  0  0  0  0  0  0  0  0  0  0  0
  151.5818  142.5506  158.8234 N   0  3  2  0  0  0  0  0  0  0  0  0
  152.8155  141.7256  158.8216 C   0  0  0  0  0  0  0  0  0  0  0  0
  152.5323  140.3169  158.2829 C   0  0  0  0  0  0  0  0  0  0  0  0
  151.9143  140.3734  156.8687 C   0  0  1  0  0  0  0  0  0  0  0  0
  151.6898  139.0397  156.2891 N   0  0  0  0  0  0  0  0  0  0  0  0
  152.6421  138.5477  155.3003 C   0  0  0  0  0  0  0  0  0  0  0  0
  151.0599  138.0494  156.9732 C   0  0  0  0  0  0  0  0  0  0  0  0
  150.6209  138.2613  158.2412 N   0  0  0  0  0  0  0  0  0  0  0  0
  150.0104  137.2835  158.9170 C   0  0  0  0  0  0  0  0  0  0  0  0
  149.7397  136.0387  158.5208 N   0  0  0  0  0  0  0  0  0  0  0  0
  150.1816  135.8173  157.2498 C   0  0  0  0  0  0  0  0  0  0  0  0
  150.8459  136.7586  156.4140 C   0  0  0  0  0  0  0  0  0  0  0  0
  151.1292  136.1804  155.1829 N   0  0  0  0  0  0  0  0  0  0  0  0
  150.6624  134.9661  155.2859 C   0  0  0  0  0  0  0  0  0  0  0  0
  150.0844  134.6594  156.4975 N   0  0  0  0  0  0  0  0  0  0  0  0
  149.4844  133.3914  156.8846 C   0  0  0  0  0  0  0  0  0  0  0  0
  150.4517  132.1882  156.7806 C   0  0  1  0  0  0  0  0  0  0  0  0
  151.6427  132.4855  157.4890 O   0  0  0  0  0  0  0  0  0  0  0  0
  149.8615  130.9059  157.3539 C   0  0  0  0  0  0  0  0  0  0  0  0
  150.5577  129.8225  156.5417 C   0  0  0  0  0  0  0  0  0  0  0  0
  150.5926  130.3790  155.2387 O   0  0  0  0  0  0  0  0  0  0  0  0
  150.8279  131.7808  155.3407 C   0  0  0  0  0  0  0  0  0  0  0  0
  150.6683  141.2996  156.8494 C   0  0  2  0  0  0  0  0  0  0  0  0
  150.0989  141.4810  155.4308 C   0  0  0  0  0  0  0  0  0  0  0  0
  151.0185  142.6757  157.4533 C   0  0  0  0  0  0  0  0  0  0  0  0
  152.5530  145.8509  159.0928 H   0  0  0  0  0  0  0  0  0  0  0  0
  152.0104  145.0010  157.6512 H   0  0  0  0  0  0  0  0  0  0  0  0
  153.5477  144.5805  158.4079 H   0  0  0  0  0  0  0  0  0  0  0  0
  152.3177  143.7166  160.4388 H   0  0  0  0  0  0  0  0  0  0  0  0
  150.8149  144.2844  159.7520 H   0  0  0  0  0  0  0  0  0  0  0  0
  153.5838  142.2145  158.2202 H   0  0  0  0  0  0  0  0  0  0  0  0
  153.2098  141.6444  159.8354 H   0  0  0  0  0  0  0  0  0  0  0  0
  153.4605  139.7448  158.2663 H   0  0  0  0  0  0  0  0  0  0  0  0
  151.8707  139.8050  158.9802 H   0  0  0  0  0  0  0  0  0  0  0  0
  152.6556  140.8457  156.2222 H   0  0  0  0  0  0  0  0  0  0  0  0
  153.2548  137.7456  155.7143 H   0  0  0  0  0  0  0  0  0  0  0  0
  153.3111  139.3418  154.9686 H   0  0  0  0  0  0  0  0  0  0  0  0
  152.1234  138.1658  154.4212 H   0  0  0  0  0  0  0  0  0  0  0  0
  149.6940  137.5332  159.9189 H   0  0  0  0  0  0  0  0  0  0  0  0
  150.7261  134.2579  154.4727 H   0  0  0  0  0  0  0  0  0  0  0  0
  149.1122  133.4868  157.9056 H   0  0  0  0  0  0  0  0  0  0  0  0
  148.6085  133.2252  156.2561 H   0  0  0  0  0  0  0  0  0  0  0  0
  152.2964  132.7726  156.8701 H   0  0  0  0  0  0  0  0  0  0  0  0
  150.0066  130.7975  158.4296 H   0  0  0  0  0  0  0  0  0  0  0  0
  148.7893  130.8624  157.1576 H   0  0  0  0  0  0  0  0  0  0  0  0
  151.5756  129.6573  156.8984 H   0  0  0  0  0  0  0  0  0  0  0  0
  150.0259  128.8711  156.5600 H   0  0  0  0  0  0  0  0  0  0  0  0
  150.2094  132.2781  154.5945 H   0  0  0  0  0  0  0  0  0  0  0  0
  151.8692  132.0060  155.1047 H   0  0  0  0  0  0  0  0  0  0  0  0
  149.8824  140.8707  157.4706 H   0  0  0  0  0  0  0  0  0  0  0  0
  150.8443  141.9025  154.7557 H   0  0  0  0  0  0  0  0  0  0  0  0
  149.2392  142.1516  155.4365 H   0  0  0  0  0  0  0  0  0  0  0  0
  149.7643  140.5351  155.0052 H   0  0  0  0  0  0  0  0  0  0  0  0
  150.1163  143.2859  157.4759 H   0  0  0  0  0  0  0  0  0  0  0  0
  151.7333  143.1984  156.8153 H   0  0  0  0  0  0  0  0  0  0  0  0
  150.9045  142.0461  159.3776 H   0  0  0  0  0  0  0  0  0  0  0  0
  1  2  1  0  0  0  0
  1 28  1  0  0  0  0
  1 29  1  0  0  0  0
  1 30  1  0  0  0  0
  2  3  1  0  0  0  0
  2 31  1  0  0  0  0
  2 32  1  0  0  0  0
  3 27  1  0  0  0  0
  3  4  1  0  0  0  0
  3 58  1  0  0  0  0
  4  5  1  0  0  0  0
  4 33  1  0  0  0  0
  4 34  1  0  0  0  0
  5  6  1  0  0  0  0
  5 35  1  0  0  0  0
  5 36  1  0  0  0  0
  6  7  1  0  0  0  0
  6 25  1  0  0  0  0
  6 37  1  0  0  0  0
  7  8  1  0  0  0  0
  7  9  1  0  0  0  0
  8 38  1  0  0  0  0
  8 39  1  0  0  0  0
  8 40  1  0  0  0  0
  9 14  1  0  0  0  0
  9 10  2  0  0  0  0
 10 11  1  0  0  0  0
 11 12  2  0  0  0  0
 11 41  1  0  0  0  0
 12 13  1  0  0  0  0
 13 17  1  0  0  0  0
 13 14  2  0  0  0  0
 14 15  1  0  0  0  0
 15 16  2  0  0  0  0
 16 17  1  0  0  0  0
 16 42  1  0  0  0  0
 17 18  1  0  0  0  0
 18 19  1  0  0  0  0
 18 43  1  0  0  0  0
 18 44  1  0  0  0  0
 19 24  1  0  0  0  0
 19 20  1  0  0  0  0
 19 21  1  0  0  0  0
 20 45  1  0  0  0  0
 21 22  1  0  0  0  0
 21 46  1  0  0  0  0
 21 47  1  0  0  0  0
 22 23  1  0  0  0  0
 22 48  1  0  0  0  0
 22 49  1  0  0  0  0
 23 24  1  0  0  0  0
 24 50  1  0  0  0  0
 24 51  1  0  0  0  0
 25 26  1  0  0  0  0
 25 27  1  0  0  0  0
 25 52  1  0  0  0  0
 26 53  1  0  0  0  0
 26 54  1  0  0  0  0
 26 55  1  0  0  0  0
 27 56  1  0  0  0  0
 27 57  1  0  0  0  0
M  CHG  1   3   1
M  END
> <s_m_source_file>
AV-unprocessed.smi

> <i_m_source_file_index>
243

> <i_lp_mmshare_version>
43012

> <i_f3d_flags>
0

> <s_epik_input>
W0NIM11bQ0gyXU4xW0NIMl1bQ0gyXVtDQEhdKFtDQEBIXShbQ0gzXSlbQ0gyXTEpTihbQ0gzXSljKG5bY0hdbjIpYyhjMjMpbltjSF1uM1tDSDJdW0NAQF00KFtPSF0pW0NIMl1bQ0gyXU9bQ0gyXTQ=

> <s_epik_cmdline>
J2VwaWtfcHl0aG9uJywgJy1waCcsICc3LjAnLCAnLXRuJywgJzgnLCAnLW1hJywgJzIwMCcsICctbWV0YWxfYmluZGluZycsICctaW1hZScsICc8aW5maWxlLm1hZT4nLCAnLW9tYWUnLCAnPG91dGZpbGUubWFlPic=

> <r_lp_tautomer_probability>
1

> <r_epik_Ionization_Penalty>
0.00253099

> <r_epik_Ionization_Penalty_Charging>
0.00137877

> <r_epik_Ionization_Penalty_Neutral>
0.00115221

> <r_epik_State_Penalty>
-0

> <r_epik_Charging_Adjusted_Penalty>
0.00137877

> <i_epik_Tot_Q>
1

> <i_epik_Tot_abs_Q>
1

> <r_epik_Metal_State_Penalty>
-0

> <b_epik_Metal_Only>
0

> <s_lp_Force_Field>
OPLS_2005

> <r_lp_Energy>
45.5206

> <b_lp_Chiralities_Consistent>
1

> <s_lp_Variant>
AV-unprocessed.smi:243-9

> <Gold.Version>
5.8.1

> <Gold.Id.Protein>
6NUR|6NUR_protein|mol2

> <Gold.PLP.Fitness>
47.8868

> <Gold.PLP.PLP>
-39.9975

> <Gold.PLP.part.hbond>
-3.0000

> <Gold.PLP.part.metal>
0.0000

> <Gold.PLP.part.buried>
-5.8032

> <Gold.PLP.part.nonpolar>
-31.3771

> <Gold.PLP.part.repulsive>
0.2046

> <Gold.PLP.ligand.clash>
0.0000

> <Gold.PLP.ligand.torsion>
0.7004

> <Gold.PLP.Chemscore.Hbond>
2.7420

> <Gold.PLP.Chemscore.CHOScore>
0.0000

> <Gold.PLP.Chemscore.Metal>
0.0000

> <Gold.Chemscore.Hbonds>
donor molecule, donor type, donor heavy atom, donor atom, acceptor molecule, acceptor atom, score
      P1  H  6896  6908       L1    20  0.99
      P1  H  6896  6909       L1    12  1.00
      P1  H 10752 10763       L1    15  0.70

> <Gold.PLP.Chemscore.Internal.Correction>
1.0641

> <Gold.Rescore>
     Score         DG    S(hbond)    S(metal)    S(lipo)     H(rot)  DE(clash)    DE(int)     intcor
     13.21     -16.62       1.45        0.00     102.79       2.24       0.03       3.38       ----

> <Gold.Chemscore.Fitness>
13.2086

> <Gold.Chemscore.DG>
-16.6154

> <Gold.Chemscore.ZeroCoef>
-5.4800

> <Gold.Chemscore.Hbond>
1.4486

> <Gold.Chemscore.Metal>
0.0000

> <Gold.Chemscore.Lipo>
102.7882

> <Gold.Chemscore.Internal_Hbond>
0.0000

> <Gold.Chemscore.DEClash>
0.0301

> <Gold.Chemscore.DEInternal>
3.3767

> <Gold.Chemscore.Rot>
2.2379

> <Gold.Chemscore.Internal.Correction>
   9.000000E+99

> <Gold.Chemscore.Hbonds>
donor molecule, donor type, donor heavy atom, donor atom, acceptor molecule, acceptor atom, score
      P1  H  6896  6908       L1    20  0.83
      P1  H  6896  6909       L1    12  0.32
      P1  H 10752 10763       L1    15  0.07

> <Gold.Chemscore.Hbond.Weighted>
-4.8383

> <Gold.Chemscore.Metal.Weighted>
-0.0000

> <Gold.Chemscore.Lipo.Weighted>
-12.0262

> <Gold.Chemscore.Internal_Hbond.Weighted>
0.0000

> <Gold.Chemscore.DEClash.Weighted>
0.0301

> <Gold.Chemscore.DEInternal.Weighted>
3.3767

> <Gold.Chemscore.Rot.Weighted>
5.7291

> <Gold.Chemscore.Internal.Correction.Weighted>
   9.000000E+99

> <Gold.Protein.RotatedTorsions>
[ 6907 6896 6895 6894 ] final   53.45 input  -60.11 | X-H torsion
[ 7974 7965 7964 7962 ] final    1.66 input  175.53 | X-H torsion
[ 8008 7997 7996 7995 ] final  144.57 input   59.86 | X-H torsion
[ 10167 10162 10161 10158 ] final -114.87 input  -65.29 | X-H torsion
[ 10718 10713 10712 10709 ] final  -92.61 input   66.30 | X-H torsion
[ 10763 10752 10751 10750 ] final   53.17 input  -60.55 | X-H torsion
[ 11005 11000 10999 10996 ] final  -67.21 input  -57.11 | X-H torsion

> <Gold.Protein.ActiveResidues>
 VAL166  LYS551  ARG553  GLY616  TRP617  ASP618  TYR619  PRO620  LYS621  CYS622 
 ASP623  PHE694  ASN695  SER759  ASP760  ASP761  ALA762  ILE779  LEU786  VAL792 
 PHE793  MET794  SER795  GLU796  ALA797  LYS798  CYS799  TRP800  GLU811  SER814 

> <Gold.Protein.RotatedAtoms>
  152.3338  134.7224  160.0282 H   0  0  0  0  0  0  0  0  0  0  0  0  # atno 6907 bound_to 6896
  151.7632  133.3330  159.3431 H   0  0  0  0  0  0  0  0  0  0  0  0  # atno 6908 bound_to 6896
  150.7439  134.6018  159.6085 H   0  0  0  0  0  0  0  0  0  0  0  0  # atno 6909 bound_to 6896
  146.2441  140.0953  142.8350 H   0  0  0  0  0  0  0  0  0  0  0  0  # atno 7974 bound_to 7965
  156.2905  140.2232  156.5074 H   0  0  0  0  0  0  0  0  0  0  0  0  # atno 8008 bound_to 7997
  154.7637  140.0471  157.1016 H   0  0  0  0  0  0  0  0  0  0  0  0  # atno 8009 bound_to 7997
  154.9959  140.3096  155.4890 H   0  0  0  0  0  0  0  0  0  0  0  0  # atno 8010 bound_to 7997
  140.0962  143.4654  152.1840 H   0  0  0  0  0  0  0  0  0  0  0  0  # atno 10167 bound_to 10162
  156.0004  130.4994  150.5651 H   0  0  0  0  0  0  0  0  0  0  0  0  # atno 10718 bound_to 10713
  152.9793  135.5788  154.4698 H   0  0  0  0  0  0  0  0  0  0  0  0  # atno 10763 bound_to 10752
  154.4263  135.2772  155.1944 H   0  0  0  0  0  0  0  0  0  0  0  0  # atno 10764 bound_to 10752
  154.3672  135.6176  153.5775 H   0  0  0  0  0  0  0  0  0  0  0  0  # atno 10765 bound_to 10752
  141.1502  133.6714  156.6258 H   0  0  0  0  0  0  0  0  0  0  0  0  # atno 11005 bound_to 11000
  145.0615  140.9091  143.4936 LP  0  0  0  0  0  0  0  0  0  0  0  0  # atno 17320 bound_to 7965
  145.1070  139.2783  143.5657 LP  0  0  0  0  0  0  0  0  0  0  0  0  # atno 17321 bound_to 7965
  139.5696  144.7455  151.3926 LP  0  0  0  0  0  0  0  0  0  0  0  0  # atno 17342 bound_to 10162
  140.7002  143.7650  150.7391 LP  0  0  0  0  0  0  0  0  0  0  0  0  # atno 17343 bound_to 10162
  157.3555  131.0741  151.1679 LP  0  0  0  0  0  0  0  0  0  0  0  0  # atno 17370 bound_to 10713
  157.2481  130.6601  149.5919 LP  0  0  0  0  0  0  0  0  0  0  0  0  # atno 17371 bound_to 10713
  140.3505  134.7772  157.4463 LP  0  0  0  0  0  0  0  0  0  0  0  0  # atno 17394 bound_to 11000
  140.0864  134.5660  155.8488 LP  0  0  0  0  0  0  0  0  0  0  0  0  # atno 17395 bound_to 11000

$$$$
