AV-unprocessed.smi:625|AV-procd|sdf|3108|dock8
  -GOLD-   22720 0 33D 1   1.00000     0.00000
 Structure written by MMmdl.
 49 51  0  0  0  0  0  0  0  0  1 V2000
  146.2592  134.9336  153.4571 C   0  0  0  0  0  0  0  0  0  0  0  0
  146.9057  136.2212  153.6610 N   0  0  0  0  0  0  0  0  0  0  0  0
  146.3665  137.2447  154.3435 C   0  0  0  0  0  0  0  0  0  0  0  0
  145.2519  137.1608  154.8620 O   0  0  0  0  0  0  0  0  0  0  0  0
  147.2215  138.4331  154.4018 C   0  0  0  0  0  0  0  0  0  0  0  0
  146.7013  139.7912  154.3443 C   0  0  0  0  0  0  0  0  0  0  0  0
  147.5365  140.8478  154.3857 C   0  0  0  0  0  0  0  0  0  0  0  0
  148.9884  140.6802  154.4902 C   0  0  0  0  0  0  0  0  0  0  0  0
  149.7567  141.6417  154.5105 O   0  0  0  0  0  0  0  0  0  0  0  0
  149.4348  139.3887  154.5544 N   0  0  0  0  0  0  0  0  0  0  0  0
  150.8774  139.0947  154.6446 C   0  0  0  0  0  0  0  0  0  0  0  0
  151.5849  139.7420  155.8475 C   0  0  0  0  0  0  0  0  0  0  0  0
  152.8093  139.8626  155.8318 O   0  0  0  0  0  0  0  0  0  0  0  0
  150.8248  140.1363  156.8830 N   0  0  0  0  0  0  0  0  0  0  0  0
  151.3049  140.6840  158.1474 C   0  0  1  0  0  0  0  0  0  0  0  0
  152.2592  139.6860  158.8260 C   0  0  0  0  0  0  0  0  0  0  0  0
  151.9812  142.0472  157.8703 C   0  0  1  0  0  0  0  0  0  0  0  0
  151.0131  143.2501  157.7785 C   0  0  0  0  0  0  0  0  0  0  0  0
  151.6744  144.2963  158.6947 C   0  0  1  0  0  0  0  0  0  0  0  0
  151.4603  143.8828  160.1618 C   0  0  0  0  0  0  0  0  0  0  0  0
  152.4121  142.6825  160.3161 C   0  0  0  0  0  0  0  0  0  0  0  0
  153.0211  142.5427  158.9054 C   0  0  2  0  0  0  0  0  0  0  0  0
  153.1589  144.0072  158.5001 C   0  0  0  0  0  0  0  0  0  0  0  0
  148.5572  138.2877  154.5057 C   0  0  0  0  0  0  0  0  0  0  0  0
  146.9017  134.2857  152.8612 H   0  0  0  0  0  0  0  0  0  0  0  0
  145.3122  135.0528  152.9293 H   0  0  0  0  0  0  0  0  0  0  0  0
  146.0673  134.4401  154.4107 H   0  0  0  0  0  0  0  0  0  0  0  0
  147.8228  136.3453  153.2573 H   0  0  0  0  0  0  0  0  0  0  0  0
  145.6417  139.9852  154.2675 H   0  0  0  0  0  0  0  0  0  0  0  0
  147.1269  141.8462  154.3407 H   0  0  0  0  0  0  0  0  0  0  0  0
  151.0409  138.0162  154.6814 H   0  0  0  0  0  0  0  0  0  0  0  0
  151.3875  139.4243  153.7385 H   0  0  0  0  0  0  0  0  0  0  0  0
  149.8266  140.0065  156.8030 H   0  0  0  0  0  0  0  0  0  0  0  0
  150.4391  140.8373  158.7921 H   0  0  0  0  0  0  0  0  0  0  0  0
  152.5967  140.0574  159.7935 H   0  0  0  0  0  0  0  0  0  0  0  0
  153.1421  139.5014  158.2131 H   0  0  0  0  0  0  0  0  0  0  0  0
  151.7710  138.7273  159.0028 H   0  0  0  0  0  0  0  0  0  0  0  0
  152.4962  141.9648  156.9109 H   0  0  0  0  0  0  0  0  0  0  0  0
  150.9482  143.6104  156.7511 H   0  0  0  0  0  0  0  0  0  0  0  0
  150.0004  143.0117  158.1073 H   0  0  0  0  0  0  0  0  0  0  0  0
  151.3698  145.3210  158.4803 H   0  0  0  0  0  0  0  0  0  0  0  0
  151.7457  144.6880  160.8400 H   0  0  0  0  0  0  0  0  0  0  0  0
  150.4225  143.6211  160.3714 H   0  0  0  0  0  0  0  0  0  0  0  0
  153.1917  142.9137  161.0432 H   0  0  0  0  0  0  0  0  0  0  0  0
  151.9069  141.7829  160.6644 H   0  0  0  0  0  0  0  0  0  0  0  0
  153.9566  141.9828  158.8877 H   0  0  0  0  0  0  0  0  0  0  0  0
  153.4959  144.1449  157.4711 H   0  0  0  0  0  0  0  0  0  0  0  0
  153.8034  144.5834  159.1667 H   0  0  0  0  0  0  0  0  0  0  0  0
  149.0490  137.3257  154.5475 H   0  0  0  0  0  0  0  0  0  0  0  0
  1  2  1  0  0  0  0
  1 25  1  0  0  0  0
  1 26  1  0  0  0  0
  1 27  1  0  0  0  0
  2  3  1  0  0  0  0
  2 28  1  0  0  0  0
  3  4  2  0  0  0  0
  3  5  1  0  0  0  0
  5 24  2  0  0  0  0
  5  6  1  0  0  0  0
  6  7  2  0  0  0  0
  6 29  1  0  0  0  0
  7  8  1  0  0  0  0
  7 30  1  0  0  0  0
  8  9  2  0  0  0  0
  8 10  1  0  0  0  0
 10 11  1  0  0  0  0
 10 24  1  0  0  0  0
 11 12  1  0  0  0  0
 11 31  1  0  0  0  0
 11 32  1  0  0  0  0
 12 13  2  0  0  0  0
 12 14  1  0  0  0  0
 14 15  1  0  0  0  0
 14 33  1  0  0  0  0
 15 16  1  0  0  0  0
 15 17  1  0  0  0  0
 15 34  1  0  0  0  0
 16 35  1  0  0  0  0
 16 36  1  0  0  0  0
 16 37  1  0  0  0  0
 17 22  1  0  0  0  0
 17 18  1  0  0  0  0
 17 38  1  0  0  0  0
 18 19  1  0  0  0  0
 18 39  1  0  0  0  0
 18 40  1  0  0  0  0
 19 23  1  0  0  0  0
 19 20  1  0  0  0  0
 19 41  1  0  0  0  0
 20 21  1  0  0  0  0
 20 42  1  0  0  0  0
 20 43  1  0  0  0  0
 21 22  1  0  0  0  0
 21 44  1  0  0  0  0
 21 45  1  0  0  0  0
 22 23  1  0  0  0  0
 22 46  1  0  0  0  0
 23 47  1  0  0  0  0
 23 48  1  0  0  0  0
 24 49  1  0  0  0  0
M  END
> <s_m_source_file>
AV-unprocessed.smi

> <i_m_source_file_index>
625

> <i_lp_mmshare_version>
43012

> <i_f3d_flags>
0

> <s_epik_input>
W0NIM11bTkhdQyg9TyljMVtjSF1bY0hdYyg9TyluKFtjSF0xKVtDSDJdQyg9TylbTkhdW0NASF0oW0NIM10pW0NASF0oW0NIMl1bQ0BIXTIzKVtDQEhdKFtDSDJdMylbQ0gyXVtDSDJdMg==

> <s_epik_cmdline>
J2VwaWtfcHl0aG9uJywgJy1waCcsICc3LjAnLCAnLXRuJywgJzgnLCAnLW1hJywgJzIwMCcsICctbWV0YWxfYmluZGluZycsICctaW1hZScsICc8aW5maWxlLm1hZT4nLCAnLW9tYWUnLCAnPG91dGZpbGUubWFlPic=

> <r_lp_tautomer_probability>
1

> <r_epik_Ionization_Penalty>
3.7129e-07

> <r_epik_Ionization_Penalty_Charging>
5.04114e-08

> <r_epik_Ionization_Penalty_Neutral>
3.20879e-07

> <r_epik_State_Penalty>
-0

> <r_epik_Charging_Adjusted_Penalty>
5.04114e-08

> <i_epik_Tot_Q>
0

> <i_epik_Tot_abs_Q>
0

> <r_epik_Metal_State_Penalty>
-0

> <b_epik_Metal_Only>
0

> <s_lp_Force_Field>
OPLS_2005

> <r_lp_Energy>
63.411

> <b_lp_Chiralities_Consistent>
1

> <s_lp_Variant>
AV-unprocessed.smi:625-8

> <Gold.Version>
5.8.1

> <Gold.Id.Protein>
6NUR|6NUR_protein|mol2

> <Gold.PLP.Fitness>
48.7488

> <Gold.PLP.PLP>
-43.3725

> <Gold.PLP.part.hbond>
-4.0000

> <Gold.PLP.part.metal>
0.0000

> <Gold.PLP.part.buried>
0.0054

> <Gold.PLP.part.nonpolar>
-38.0255

> <Gold.PLP.part.repulsive>
0.3194

> <Gold.PLP.ligand.clash>
0.0000

> <Gold.PLP.ligand.torsion>
1.3625

> <Gold.PLP.Chemscore.Hbond>
2.4789

> <Gold.PLP.Chemscore.CHOScore>
0.1987

> <Gold.PLP.Chemscore.Metal>
0.0000

> <Gold.Chemscore.Hbonds>
donor molecule, donor type, donor heavy atom, donor atom, acceptor molecule, acceptor atom, score
      L1  H     2    28       P1  7948  1.00
      P1  H  7989  7998       L1     9  0.14
      P1  H  7997  8008       L1    13  1.00
      P1  H  8011  8017       L1     9  0.15
      L1  C    24    49       P1  7948  0.06

> <Gold.PLP.Chemscore.Internal.Correction>
0.0684

> <Gold.Rescore>
     Score         DG    S(hbond)    S(metal)    S(lipo)     H(rot)  DE(clash)    DE(int)     intcor
     19.04     -23.62       2.72        0.00     113.85       1.67       1.29       3.29       ----

> <Gold.Chemscore.Fitness>
19.0411

> <Gold.Chemscore.DG>
-23.6237

> <Gold.Chemscore.ZeroCoef>
-5.4800

> <Gold.Chemscore.Hbond>
2.7247

> <Gold.Chemscore.Metal>
0.0000

> <Gold.Chemscore.Lipo>
113.8502

> <Gold.Chemscore.Internal_Hbond>
0.0000

> <Gold.Chemscore.DEClash>
1.2946

> <Gold.Chemscore.DEInternal>
3.2879

> <Gold.Chemscore.Rot>
1.6709

> <Gold.Chemscore.Internal.Correction>
   9.000000E+99

> <Gold.Chemscore.Hbonds>
donor molecule, donor type, donor heavy atom, donor atom, acceptor molecule, acceptor atom, score
      L1  H     2    28       P1  7948  0.95
      P1  H  7989  7998       L1     9  0.07
      P1  H  7997  8008       L1    13  0.99
      P1  H  8011  8017       L1     9  0.08

> <Gold.Chemscore.Hbond.Weighted>
-9.1006

> <Gold.Chemscore.Metal.Weighted>
-0.0000

> <Gold.Chemscore.Lipo.Weighted>
-13.3205

> <Gold.Chemscore.Internal_Hbond.Weighted>
0.0000

> <Gold.Chemscore.DEClash.Weighted>
1.2946

> <Gold.Chemscore.DEInternal.Weighted>
3.2879

> <Gold.Chemscore.Rot.Weighted>
4.2774

> <Gold.Chemscore.Internal.Correction.Weighted>
   9.000000E+99

> <Gold.Protein.RotatedTorsions>
[ 6907 6896 6895 6894 ] final  -89.09 input  -60.11 | X-H torsion
[ 7974 7965 7964 7962 ] final -135.75 input  175.53 | X-H torsion
[ 8008 7997 7996 7995 ] final  -46.73 input   59.86 | X-H torsion
[ 10167 10162 10161 10158 ] final -151.20 input  -65.29 | X-H torsion
[ 10718 10713 10712 10709 ] final   -6.58 input   66.30 | X-H torsion
[ 10763 10752 10751 10750 ] final  -59.64 input  -60.55 | X-H torsion
[ 11005 11000 10999 10996 ] final -155.33 input  -57.11 | X-H torsion

> <Gold.Protein.ActiveResidues>
 VAL166  LYS551  ARG553  GLY616  TRP617  ASP618  TYR619  PRO620  LYS621  CYS622 
 ASP623  PHE694  ASN695  SER759  ASP760  ASP761  ALA762  ILE779  LEU786  VAL792 
 PHE793  MET794  SER795  GLU796  ALA797  LYS798  CYS799  TRP800  GLU811  SER814 

> <Gold.Protein.RotatedAtoms>
  150.6872  134.2641  159.4561 H   0  0  0  0  0  0  0  0  0  0  0  0  # atno 6907 bound_to 6896
  152.0569  134.9616  160.0584 H   0  0  0  0  0  0  0  0  0  0  0  0  # atno 6908 bound_to 6896
  152.1059  133.4239  159.4645 H   0  0  0  0  0  0  0  0  0  0  0  0  # atno 6909 bound_to 6896
  144.8987  140.6741  143.5099 H   0  0  0  0  0  0  0  0  0  0  0  0  # atno 7974 bound_to 7965
  154.4010  140.1364  156.4060 H   0  0  0  0  0  0  0  0  0  0  0  0  # atno 8008 bound_to 7997
  155.7779  140.3482  155.5261 H   0  0  0  0  0  0  0  0  0  0  0  0  # atno 8009 bound_to 7997
  155.8703  140.0970  157.1545 H   0  0  0  0  0  0  0  0  0  0  0  0  # atno 8010 bound_to 7997
  139.7288  143.8841  152.2528 H   0  0  0  0  0  0  0  0  0  0  0  0  # atno 10167 bound_to 10162
  156.7298  130.5176  149.5848 H   0  0  0  0  0  0  0  0  0  0  0  0  # atno 10718 bound_to 10713
  154.2568  135.6315  153.5260 H   0  0  0  0  0  0  0  0  0  0  0  0  # atno 10763 bound_to 10752
  152.9902  135.5578  154.5747 H   0  0  0  0  0  0  0  0  0  0  0  0  # atno 10764 bound_to 10752
  154.5287  135.2887  155.1174 H   0  0  0  0  0  0  0  0  0  0  0  0  # atno 10765 bound_to 10752
  140.6876  134.4076  157.5222 H   0  0  0  0  0  0  0  0  0  0  0  0  # atno 11005 bound_to 11000
  145.3655  139.1671  143.4360 LP  0  0  0  0  0  0  0  0  0  0  0  0  # atno 17320 bound_to 7965
  146.3096  140.3722  142.8675 LP  0  0  0  0  0  0  0  0  0  0  0  0  # atno 17321 bound_to 7965
  139.8758  144.7044  150.8934 LP  0  0  0  0  0  0  0  0  0  0  0  0  # atno 17342 bound_to 10162
  140.7767  143.3701  151.1666 LP  0  0  0  0  0  0  0  0  0  0  0  0  # atno 17343 bound_to 10162
  156.1537  130.6327  151.0629 LP  0  0  0  0  0  0  0  0  0  0  0  0  # atno 17370 bound_to 10713
  157.6864  131.0823  150.7232 LP  0  0  0  0  0  0  0  0  0  0  0  0  # atno 17371 bound_to 10713
  139.8933  134.8734  156.2231 LP  0  0  0  0  0  0  0  0  0  0  0  0  # atno 17394 bound_to 11000
  141.0267  133.7011  156.1360 LP  0  0  0  0  0  0  0  0  0  0  0  0  # atno 17395 bound_to 11000

$$$$
