AV-unprocessed.smi:2943|AV-procd|sdf|11270|dock2
  -GOLD-   2272016163D 1   1.00000     0.00000
 Structure written by MMmdl.
 37 39  0  0  0  0  0  0  0  0  2 V2000
  150.4602  137.6441  154.4439 C   0  0  0  0  0  0  0  0  0  0  0  0
  150.1976  139.0837  154.7748 C   0  0  0  0  0  0  0  0  0  0  0  0
  151.0234  139.9202  155.4920 C   0  0  0  0  0  0  0  0  0  0  0  0
  152.3594  139.6088  156.0942 C   0  0  0  0  0  0  0  0  0  0  0  0
  150.4340  141.1810  155.6111 N   0  0  0  0  0  0  0  0  0  0  0  0
  150.9944  142.3281  156.3120 C   0  0  0  0  0  0  0  0  0  0  0  0
  151.0629  142.0986  157.8304 C   0  0  2  0  0  0  0  0  0  0  0  0
  151.1162  143.3862  158.6493 C   0  0  0  0  0  0  0  0  0  0  0  0
  151.7511  142.9004  159.9320 C   0  0  0  0  0  0  0  0  0  0  0  0
  152.7721  141.8907  159.4143 C   0  0  0  0  0  0  0  0  0  0  0  0
  152.2419  141.3831  158.1919 O   0  0  0  0  0  0  0  0  0  0  0  0
  149.2219  141.1643  154.9401 C   0  0  0  0  0  0  0  0  0  0  0  0
  148.3244  142.1760  154.7892 N   0  3  0  0  0  0  0  0  0  0  0  0
  147.2186  141.9122  154.0851 C   0  0  0  0  0  0  0  0  0  0  0  0
  146.9755  140.7114  153.5402 N   0  0  0  0  0  0  0  0  0  0  0  0
  147.8469  139.6811  153.6723 C   0  0  0  0  0  0  0  0  0  0  0  0
  147.5025  138.4764  153.0636 N   0  0  0  0  0  0  0  0  0  0  0  0
  149.0496  139.8654  154.4031 C   0  0  0  0  0  0  0  0  0  0  0  0
  151.0316  137.1489  155.2291 H   0  0  0  0  0  0  0  0  0  0  0  0
  151.0229  137.5513  153.5149 H   0  0  0  0  0  0  0  0  0  0  0  0
  149.5334  137.0832  154.3282 H   0  0  0  0  0  0  0  0  0  0  0  0
  152.7775  138.6897  155.6844 H   0  0  0  0  0  0  0  0  0  0  0  0
  152.2778  139.4870  157.1745 H   0  0  0  0  0  0  0  0  0  0  0  0
  153.0781  140.4039  155.8957 H   0  0  0  0  0  0  0  0  0  0  0  0
  151.9910  142.5252  155.9154 H   0  0  0  0  0  0  0  0  0  0  0  0
  150.3997  143.2134  156.0868 H   0  0  0  0  0  0  0  0  0  0  0  0
  150.2080  141.5059  158.1592 H   0  0  0  0  0  0  0  0  0  0  0  0
  151.7614  144.1241  158.1702 H   0  0  0  0  0  0  0  0  0  0  0  0
  150.1343  143.8356  158.8005 H   0  0  0  0  0  0  0  0  0  0  0  0
  152.2016  143.7008  160.5197 H   0  0  0  0  0  0  0  0  0  0  0  0
  151.0062  142.3987  160.5513 H   0  0  0  0  0  0  0  0  0  0  0  0
  153.7210  142.3836  159.1999 H   0  0  0  0  0  0  0  0  0  0  0  0
  152.9606  141.0896  160.1295 H   0  0  0  0  0  0  0  0  0  0  0  0
  146.5117  142.7200  153.9658 H   0  0  0  0  0  0  0  0  0  0  0  0
  146.6415  138.3732  152.5460 H   0  0  0  0  0  0  0  0  0  0  0  0
  148.0945  137.6612  153.1365 H   0  0  0  0  0  0  0  0  0  0  0  0
  148.5012  143.0956  155.1935 H   0  0  0  0  0  0  0  0  0  0  0  0
  1  2  1  0  0  0  0
  1 19  1  0  0  0  0
  1 20  1  0  0  0  0
  1 21  1  0  0  0  0
  2 18  1  0  0  0  0
  2  3  2  0  0  0  0
  3  4  1  0  0  0  0
  3  5  1  0  0  0  0
  4 22  1  0  0  0  0
  4 23  1  0  0  0  0
  4 24  1  0  0  0  0
  5  6  1  0  0  0  0
  5 12  1  0  0  0  0
  6  7  1  0  0  0  0
  6 25  1  0  0  0  0
  6 26  1  0  0  0  0
  7 11  1  0  0  0  0
  7  8  1  0  0  0  0
  7 27  1  0  0  0  0
  8  9  1  0  0  0  0
  8 28  1  0  0  0  0
  8 29  1  0  0  0  0
  9 10  1  0  0  0  0
  9 30  1  0  0  0  0
  9 31  1  0  0  0  0
 10 11  1  0  0  0  0
 10 32  1  0  0  0  0
 10 33  1  0  0  0  0
 12 18  1  0  0  0  0
 12 13  2  0  0  0  0
 13 14  1  0  0  0  0
 13 37  1  0  0  0  0
 14 15  2  0  0  0  0
 14 34  1  0  0  0  0
 15 16  1  0  0  0  0
 16 17  1  0  0  0  0
 16 18  2  0  0  0  0
 17 35  1  0  0  0  0
 17 36  1  0  0  0  0
M  CHG  1  13   1
M  END
> <s_m_source_file>
AV-unprocessed.smi

> <i_m_source_file_index>
2943

> <i_lp_mmshare_version>
43012

> <i_f3d_flags>
0

> <s_epik_input>
bjFbY0hdbmMoW05IMl0pYyhjMTIpYyhbQ0gzXSljKFtDSDNdKW4yW0NIMl1bQ0BASF0zW0NIMl1bQ0gyXVtDSDJdTzM=

> <s_epik_cmdline>
J2VwaWtfcHl0aG9uJywgJy1waCcsICc3LjAnLCAnLXRuJywgJzgnLCAnLW1hJywgJzIwMCcsICctbWV0YWxfYmluZGluZycsICctaW1hZScsICc8aW5maWxlLm1hZT4nLCAnLW9tYWUnLCAnPG91dGZpbGUubWFlPic=

> <r_epik_Ionization_Penalty>
2.35523

> <r_epik_Ionization_Penalty_Charging>
2.35518

> <r_epik_Ionization_Penalty_Neutral>
5.21205e-05

> <r_epik_State_Penalty>
2.50981

> <r_epik_Charging_Adjusted_Penalty>
4.86499

> <i_epik_Tot_Q>
1

> <i_epik_Tot_abs_Q>
1

> <r_epik_Metal_State_Penalty>
2.52087

> <b_epik_Metal_Only>
0

> <s_lp_Force_Field>
OPLS_2005

> <r_lp_Energy>
21.0086

> <b_lp_Chiralities_Consistent>
1

> <s_lp_Variant>
AV-unprocessed.smi:2943-3

> <Gold.Version>
5.8.1

> <Gold.Id.Protein>
6NUR|6NUR_protein|mol2

> <Gold.PLP.Fitness>
43.9208

> <Gold.PLP.PLP>
-36.4072

> <Gold.PLP.part.hbond>
-2.4520

> <Gold.PLP.part.metal>
0.0000

> <Gold.PLP.part.buried>
-0.9434

> <Gold.PLP.part.nonpolar>
-32.9266

> <Gold.PLP.part.repulsive>
0.3935

> <Gold.PLP.ligand.clash>
0.0041

> <Gold.PLP.ligand.torsion>
0.2902

> <Gold.PLP.Chemscore.Hbond>
2.6989

> <Gold.PLP.Chemscore.CHOScore>
0.0000

> <Gold.PLP.Chemscore.Metal>
0.0000

> <Gold.Chemscore.Hbonds>
donor molecule, donor type, donor heavy atom, donor atom, acceptor molecule, acceptor atom, score
      L1  H    13    37       P1  8028  2.00
      L1  H    17    36       P1  7948  0.64

> <Gold.PLP.Chemscore.Internal.Correction>
0.0015

> <Gold.Rescore>
     Score         DG    S(hbond)    S(metal)    S(lipo)     H(rot)  DE(clash)    DE(int)     intcor
     15.05     -17.35       1.80        0.00      77.96       1.27       0.56       1.73       ----

> <Gold.Chemscore.Fitness>
15.0543

> <Gold.Chemscore.DG>
-17.3459

> <Gold.Chemscore.ZeroCoef>
-5.4800

> <Gold.Chemscore.Hbond>
1.7972

> <Gold.Chemscore.Metal>
0.0000

> <Gold.Chemscore.Lipo>
77.9551

> <Gold.Chemscore.Internal_Hbond>
0.0000

> <Gold.Chemscore.DEClash>
0.5649

> <Gold.Chemscore.DEInternal>
1.7267

> <Gold.Chemscore.Rot>
1.2725

> <Gold.Chemscore.Internal.Correction>
   9.000000E+99

> <Gold.Chemscore.Hbonds>
donor molecule, donor type, donor heavy atom, donor atom, acceptor molecule, acceptor atom, score
      L1  H    13    37       P1  8028  1.00
      L1  H    17    36       P1  7948  0.64

> <Gold.Chemscore.Hbond.Weighted>
-6.0027

> <Gold.Chemscore.Metal.Weighted>
-0.0000

> <Gold.Chemscore.Lipo.Weighted>
-9.1207

> <Gold.Chemscore.Internal_Hbond.Weighted>
0.0000

> <Gold.Chemscore.DEClash.Weighted>
0.5649

> <Gold.Chemscore.DEInternal.Weighted>
1.7267

> <Gold.Chemscore.Rot.Weighted>
3.2576

> <Gold.Chemscore.Internal.Correction.Weighted>
   9.000000E+99

> <Gold.Protein.RotatedTorsions>
[ 6907 6896 6895 6894 ] final   18.90 input  -60.11 | X-H torsion
[ 7974 7965 7964 7962 ] final   40.64 input  175.53 | X-H torsion
[ 8008 7997 7996 7995 ] final  -45.73 input   59.86 | X-H torsion
[ 10167 10162 10161 10158 ] final -177.01 input  -65.29 | X-H torsion
[ 10718 10713 10712 10709 ] final   50.82 input   66.30 | X-H torsion
[ 10763 10752 10751 10750 ] final  106.43 input  -60.55 | X-H torsion
[ 11005 11000 10999 10996 ] final   11.07 input  -57.11 | X-H torsion

> <Gold.Protein.ActiveResidues>
 VAL166  LYS551  ARG553  GLY616  TRP617  ASP618  TYR619  PRO620  LYS621  CYS622 
 ASP623  PHE694  ASN695  SER759  ASP760  ASP761  ALA762  ILE779  LEU786  VAL792 
 PHE793  MET794  SER795  GLU796  ALA797  LYS798  CYS799  TRP800  GLU811  SER814 

> <Gold.Protein.RotatedAtoms>
  151.8724  135.0484  160.0480 H   0  0  0  0  0  0  0  0  0  0  0  0  # atno 6907 bound_to 6896
  152.2577  133.5266  159.5371 H   0  0  0  0  0  0  0  0  0  0  0  0  # atno 6908 bound_to 6896
  150.7105  134.0788  159.3933 H   0  0  0  0  0  0  0  0  0  0  0  0  # atno 6909 bound_to 6896
  146.0888  139.5509  142.9489 H   0  0  0  0  0  0  0  0  0  0  0  0  # atno 7974 bound_to 7965
  154.4002  140.1389  156.3895 H   0  0  0  0  0  0  0  0  0  0  0  0  # atno 8008 bound_to 7997
  155.7928  140.3478  155.5338 H   0  0  0  0  0  0  0  0  0  0  0  0  # atno 8009 bound_to 7997
  155.8562  140.0949  157.1633 H   0  0  0  0  0  0  0  0  0  0  0  0  # atno 8010 bound_to 7997
  139.5501  144.2132  152.1061 H   0  0  0  0  0  0  0  0  0  0  0  0  # atno 10167 bound_to 10162
  157.4922  130.8383  149.8216 H   0  0  0  0  0  0  0  0  0  0  0  0  # atno 10718 bound_to 10713
  153.3928  135.3877  155.1935 H   0  0  0  0  0  0  0  0  0  0  0  0  # atno 10763 bound_to 10752
  154.8721  135.3752  154.4716 H   0  0  0  0  0  0  0  0  0  0  0  0  # atno 10764 bound_to 10752
  153.5204  135.7087  153.5796 H   0  0  0  0  0  0  0  0  0  0  0  0  # atno 10765 bound_to 10752
  140.5073  134.0687  155.7809 H   0  0  0  0  0  0  0  0  0  0  0  0  # atno 11005 bound_to 11000
  145.6078  141.0345  143.1983 LP  0  0  0  0  0  0  0  0  0  0  0  0  # atno 17320 bound_to 7965
  144.7345  139.7626  143.7334 LP  0  0  0  0  0  0  0  0  0  0  0  0  # atno 17321 bound_to 7965
  140.1626  144.5012  150.6624 LP  0  0  0  0  0  0  0  0  0  0  0  0  # atno 17342 bound_to 10162
  140.6761  143.2306  151.5504 LP  0  0  0  0  0  0  0  0  0  0  0  0  # atno 17343 bound_to 10162
  156.0180  130.3806  150.2051 LP  0  0  0  0  0  0  0  0  0  0  0  0  # atno 17370 bound_to 10713
  157.0240  130.9987  151.3331 LP  0  0  0  0  0  0  0  0  0  0  0  0  # atno 17371 bound_to 10713
  141.1404  133.9148  157.2339 LP  0  0  0  0  0  0  0  0  0  0  0  0  # atno 17394 bound_to 11000
  139.9679  135.0137  156.9435 LP  0  0  0  0  0  0  0  0  0  0  0  0  # atno 17395 bound_to 11000

$$$$
