AV-unprocessed.smi:1429|AV-procd|sdf|5821|dock3
  -GOLD-   22720 5473D 1   1.00000     0.00000
 Structure written by MMmdl.
 29 30  0  0  0  0  0  0  0  0  2 V2000
  148.8298  141.2223  154.5913 C   0  0  0  0  0  0  0  0  0  0  0  0
  150.0801  140.6305  155.1458 C   0  0  0  0  0  0  0  0  0  0  0  0
  150.9127  139.8881  154.4124 N   0  0  0  0  0  0  0  0  0  0  0  0
  152.0060  139.4503  155.1457 N   0  0  0  0  0  0  0  0  0  0  0  0
  151.9805  139.8579  156.4226 C   0  0  0  0  0  0  0  0  0  0  0  0
  152.9505  139.5429  157.2970 N   0  5  0  0  0  0  0  0  0  0  0  0
  152.9111  140.0336  158.5567 C   0  0  0  0  0  0  0  0  0  0  0  0
  152.8410  139.3747  159.5969 O   0  0  0  0  0  0  0  0  0  0  0  0
  152.9549  141.3710  158.6163 N   0  0  0  0  0  0  0  0  0  0  0  0
  152.9338  142.1604  159.8415 C   0  0  0  0  0  0  0  0  0  0  0  0
  151.9141  143.3063  159.7386 C   0  0  1  0  0  0  0  0  0  0  0  0
  151.8352  144.1736  160.9779 C   0  0  0  0  0  0  0  0  0  0  0  0
  151.1551  145.4271  160.4376 C   0  0  0  0  0  0  0  0  0  0  0  0
  151.5977  145.5553  159.0897 O   0  0  0  0  0  0  0  0  0  0  0  0
  152.2317  144.3511  158.6660 C   0  0  0  0  0  0  0  0  0  0  0  0
  150.5786  140.8537  156.8143 S   0  0  0  0  0  0  0  0  0  0  0  0
  148.1254  140.4316  154.3330 H   0  0  0  0  0  0  0  0  0  0  0  0
  149.0548  141.8012  153.6953 H   0  0  0  0  0  0  0  0  0  0  0  0
  148.3635  141.8802  155.3246 H   0  0  0  0  0  0  0  0  0  0  0  0
  153.0118  141.8757  157.7439 H   0  0  0  0  0  0  0  0  0  0  0  0
  152.6788  141.5083  160.6779 H   0  0  0  0  0  0  0  0  0  0  0  0
  153.9299  142.5604  160.0383 H   0  0  0  0  0  0  0  0  0  0  0  0
  150.9224  142.8938  159.5436 H   0  0  0  0  0  0  0  0  0  0  0  0
  151.2812  143.7081  161.7936 H   0  0  0  0  0  0  0  0  0  0  0  0
  152.8356  144.4174  161.3384 H   0  0  0  0  0  0  0  0  0  0  0  0
  150.0717  145.3008  160.4363 H   0  0  0  0  0  0  0  0  0  0  0  0
  151.3923  146.3162  161.0223 H   0  0  0  0  0  0  0  0  0  0  0  0
  153.3060  144.5325  158.6082 H   0  0  0  0  0  0  0  0  0  0  0  0
  151.8880  144.0491  157.6763 H   0  0  0  0  0  0  0  0  0  0  0  0
  1  2  1  0  0  0  0
  1 17  1  0  0  0  0
  1 18  1  0  0  0  0
  1 19  1  0  0  0  0
  2 16  1  0  0  0  0
  2  3  2  0  0  0  0
  3  4  1  0  0  0  0
  4  5  2  0  0  0  0
  5  6  1  0  0  0  0
  5 16  1  0  0  0  0
  6  7  1  0  0  0  0
  7  8  2  0  0  0  0
  7  9  1  0  0  0  0
  9 10  1  0  0  0  0
  9 20  1  0  0  0  0
 10 11  1  0  0  0  0
 10 21  1  0  0  0  0
 10 22  1  0  0  0  0
 11 15  1  0  0  0  0
 11 12  1  0  0  0  0
 11 23  1  0  0  0  0
 12 13  1  0  0  0  0
 12 24  1  0  0  0  0
 12 25  1  0  0  0  0
 13 14  1  0  0  0  0
 13 26  1  0  0  0  0
 13 27  1  0  0  0  0
 14 15  1  0  0  0  0
 15 28  1  0  0  0  0
 15 29  1  0  0  0  0
M  CHG  1   6  -1
M  END
> <s_m_source_file>
AV-unprocessed.smi

> <i_m_source_file_index>
1429

> <i_lp_mmshare_version>
43012

> <i_f3d_flags>
0

> <s_epik_input>
W0NIM11jMW5uYyhzMSlbTkhdQyg9TylbTkhdW0NIMl1bQ0BASF0yW0NIMl1bQ0gyXU9bQ0gyXTI=

> <s_epik_cmdline>
J2VwaWtfcHl0aG9uJywgJy1waCcsICc3LjAnLCAnLXRuJywgJzgnLCAnLW1hJywgJzIwMCcsICctbWV0YWxfYmluZGluZycsICctaW1hZScsICc8aW5maWxlLm1hZT4nLCAnLW9tYWUnLCAnPG91dGZpbGUubWFlPic=

> <r_lp_tautomer_probability>
1

> <r_epik_Ionization_Penalty>
4.4122

> <r_epik_Ionization_Penalty_Charging>
4.26477

> <r_epik_Ionization_Penalty_Neutral>
0.147429

> <r_epik_State_Penalty>
4.26433

> <r_epik_Charging_Adjusted_Penalty>
8.5291

> <i_epik_Tot_Q>
-1

> <i_epik_Tot_abs_Q>
1

> <r_epik_Metal_State_Penalty>
0.713483

> <b_epik_Metal_Only>
1

> <s_lp_Force_Field>
OPLS_2005

> <r_lp_Energy>
16.2384

> <b_lp_Chiralities_Consistent>
1

> <s_lp_Variant>
AV-unprocessed.smi:1429-4

> <Gold.Version>
5.8.1

> <Gold.Id.Protein>
6NUR|6NUR_protein|mol2

> <Gold.PLP.Fitness>
43.2032

> <Gold.PLP.PLP>
-35.4690

> <Gold.PLP.part.hbond>
-3.5649

> <Gold.PLP.part.metal>
0.0000

> <Gold.PLP.part.buried>
-1.1445

> <Gold.PLP.part.nonpolar>
-30.9919

> <Gold.PLP.part.repulsive>
0.3182

> <Gold.PLP.ligand.clash>
0.0000

> <Gold.PLP.ligand.torsion>
0.6490

> <Gold.PLP.Chemscore.Hbond>
3.0000

> <Gold.PLP.Chemscore.CHOScore>
0.0000

> <Gold.PLP.Chemscore.Metal>
0.0000

> <Gold.Chemscore.Hbonds>
donor molecule, donor type, donor heavy atom, donor atom, acceptor molecule, acceptor atom, score
      P1  H  7989  7998       L1     3  0.93
      P1  H  7997  8009       L1     6  2.00

> <Gold.PLP.Chemscore.Internal.Correction>
0.0322

> <Gold.Rescore>
     Score         DG    S(hbond)    S(metal)    S(lipo)     H(rot)  DE(clash)    DE(int)     intcor
     13.19     -14.01       0.87        0.00      76.60       1.30       0.01       0.81       ----

> <Gold.Chemscore.Fitness>
13.1922

> <Gold.Chemscore.DG>
-14.0106

> <Gold.Chemscore.ZeroCoef>
-5.4800

> <Gold.Chemscore.Hbond>
0.8658

> <Gold.Chemscore.Metal>
0.0000

> <Gold.Chemscore.Lipo>
76.5971

> <Gold.Chemscore.Internal_Hbond>
0.0000

> <Gold.Chemscore.DEClash>
0.0076

> <Gold.Chemscore.DEInternal>
0.8108

> <Gold.Chemscore.Rot>
1.2980

> <Gold.Chemscore.Internal.Correction>
   9.000000E+99

> <Gold.Chemscore.Hbonds>
donor molecule, donor type, donor heavy atom, donor atom, acceptor molecule, acceptor atom, score
      P1  H  7989  7998       L1     3  0.11
      P1  H  7997  8009       L1     6  0.29

> <Gold.Chemscore.Hbond.Weighted>
-2.8916

> <Gold.Chemscore.Metal.Weighted>
-0.0000

> <Gold.Chemscore.Lipo.Weighted>
-8.9619

> <Gold.Chemscore.Internal_Hbond.Weighted>
0.0000

> <Gold.Chemscore.DEClash.Weighted>
0.0076

> <Gold.Chemscore.DEInternal.Weighted>
0.8108

> <Gold.Chemscore.Rot.Weighted>
3.3229

> <Gold.Chemscore.Internal.Correction.Weighted>
   9.000000E+99

> <Gold.Protein.RotatedTorsions>
[ 6907 6896 6895 6894 ] final  -51.83 input  -60.11 | X-H torsion
[ 7974 7965 7964 7962 ] final -172.54 input  175.53 | X-H torsion
[ 8008 7997 7996 7995 ] final  175.09 input   59.86 | X-H torsion
[ 10167 10162 10161 10158 ] final  152.17 input  -65.29 | X-H torsion
[ 10718 10713 10712 10709 ] final  172.71 input   66.30 | X-H torsion
[ 10763 10752 10751 10750 ] final  137.36 input  -60.55 | X-H torsion
[ 11005 11000 10999 10996 ] final  -83.05 input  -57.11 | X-H torsion

> <Gold.Protein.ActiveResidues>
 VAL166  LYS551  ARG553  GLY616  TRP617  ASP618  TYR619  PRO620  LYS621  CYS622 
 ASP623  PHE694  ASN695  SER759  ASP760  ASP761  ALA762  ILE779  LEU786  VAL792 
 PHE793  MET794  SER795  GLU796  ALA797  LYS798  CYS799  TRP800  GLU811  SER814 

> <Gold.Protein.RotatedAtoms>
  150.8574  134.7917  159.7056 H   0  0  0  0  0  0  0  0  0  0  0  0  # atno 6907 bound_to 6896
  152.4622  134.5155  159.9777 H   0  0  0  0  0  0  0  0  0  0  0  0  # atno 6908 bound_to 6896
  151.5265  133.3418  159.2946 H   0  0  0  0  0  0  0  0  0  0  0  0  # atno 6909 bound_to 6896
  144.7145  140.1756  143.6363 H   0  0  0  0  0  0  0  0  0  0  0  0  # atno 7974 bound_to 7965
  156.0907  140.1418  156.9596 H   0  0  0  0  0  0  0  0  0  0  0  0  # atno 8008 bound_to 7997
  154.4640  140.0933  156.7017 H   0  0  0  0  0  0  0  0  0  0  0  0  # atno 8009 bound_to 7997
  155.4924  140.3448  155.4359 H   0  0  0  0  0  0  0  0  0  0  0  0  # atno 8010 bound_to 7997
  139.4835  144.5380  151.7612 H   0  0  0  0  0  0  0  0  0  0  0  0  # atno 10167 bound_to 10162
  156.9750  131.0101  151.2896 H   0  0  0  0  0  0  0  0  0  0  0  0  # atno 10718 bound_to 10713
  153.8717  135.3055  155.3442 H   0  0  0  0  0  0  0  0  0  0  0  0  # atno 10763 bound_to 10752
  154.7802  135.4839  153.9832 H   0  0  0  0  0  0  0  0  0  0  0  0  # atno 10764 bound_to 10752
  153.1402  135.6822  153.9135 H   0  0  0  0  0  0  0  0  0  0  0  0  # atno 10765 bound_to 10752
  141.1660  133.7275  156.8662 H   0  0  0  0  0  0  0  0  0  0  0  0  # atno 11005 bound_to 11000
  145.8903  139.2372  143.1553 LP  0  0  0  0  0  0  0  0  0  0  0  0  # atno 17320 bound_to 7965
  145.9910  140.8603  143.0066 LP  0  0  0  0  0  0  0  0  0  0  0  0  # atno 17321 bound_to 7965
  140.4916  144.1302  150.5951 LP  0  0  0  0  0  0  0  0  0  0  0  0  # atno 17342 bound_to 10162
  140.4165  143.2632  151.9768 LP  0  0  0  0  0  0  0  0  0  0  0  0  # atno 17343 bound_to 10162
  157.5566  130.8218  149.8212 LP  0  0  0  0  0  0  0  0  0  0  0  0  # atno 17370 bound_to 10713
  156.0267  130.3777  150.1802 LP  0  0  0  0  0  0  0  0  0  0  0  0  # atno 17371 bound_to 10713
  140.1813  134.9031  157.2952 LP  0  0  0  0  0  0  0  0  0  0  0  0  # atno 17394 bound_to 11000
  140.2391  134.3817  155.7488 LP  0  0  0  0  0  0  0  0  0  0  0  0  # atno 17395 bound_to 11000

$$$$
