AV-unprocessed.smi:530|AV-procd|sdf|2842|dock3
  -GOLD-   2262023333D 1   1.00000     0.00000
 Structure written by MMmdl.
 35 37  0  0  0  0  0  0  0  0  1 V2000
  152.8263  139.8605  157.2945 C   0  0  0  0  0  0  0  0  0  0  0  0
  152.5703  141.0450  158.1712 C   0  0  0  0  0  0  0  0  0  0  0  0
  153.0939  141.1510  159.3931 N   0  0  0  0  0  0  0  0  0  0  0  0
  152.6118  142.3720  159.8244 C   0  0  0  0  0  0  0  0  0  0  0  0
  152.8057  143.0580  161.0448 C   0  0  0  0  0  0  0  0  0  0  0  0
  152.2046  144.3156  161.2601 C   0  0  0  0  0  0  0  0  0  0  0  0
  151.4034  144.9048  160.2605 C   0  0  0  0  0  0  0  0  0  0  0  0
  151.1957  144.2375  159.0381 C   0  0  0  0  0  0  0  0  0  0  0  0
  151.7966  142.9818  158.8292 C   0  0  0  0  0  0  0  0  0  0  0  0
  151.7913  142.0801  157.7704 N   0  0  0  0  0  0  0  0  0  0  0  0
  151.0848  142.2472  156.5075 C   0  0  0  0  0  0  0  0  0  0  0  0
  150.3205  140.9760  156.0873 C   0  0  2  0  0  0  0  0  0  0  0  0
  150.8560  140.4667  154.8811 O   0  0  0  0  0  0  0  0  0  0  0  0
  148.8253  141.2354  155.9899 C   0  0  0  0  0  0  0  0  0  0  0  0
  148.0552  141.3608  157.1661 C   0  0  0  0  0  0  0  0  0  0  0  0
  146.6708  141.6070  157.0861 C   0  0  0  0  0  0  0  0  0  0  0  0
  146.0486  141.7314  155.8293 C   0  0  0  0  0  0  0  0  0  0  0  0
  146.8122  141.6127  154.6525 C   0  0  0  0  0  0  0  0  0  0  0  0
  148.1968  141.3671  154.7320 C   0  0  0  0  0  0  0  0  0  0  0  0
  153.4186  139.1133  157.8236 H   0  0  0  0  0  0  0  0  0  0  0  0
  153.3745  140.1649  156.4029 H   0  0  0  0  0  0  0  0  0  0  0  0
  151.8856  139.4004  156.9923 H   0  0  0  0  0  0  0  0  0  0  0  0
  153.4184  142.6160  161.8163 H   0  0  0  0  0  0  0  0  0  0  0  0
  152.3595  144.8311  162.1964 H   0  0  0  0  0  0  0  0  0  0  0  0
  150.9477  145.8689  160.4327 H   0  0  0  0  0  0  0  0  0  0  0  0
  150.5817  144.6844  158.2703 H   0  0  0  0  0  0  0  0  0  0  0  0
  150.3865  143.0768  156.6249 H   0  0  0  0  0  0  0  0  0  0  0  0
  151.7858  142.5502  155.7297 H   0  0  0  0  0  0  0  0  0  0  0  0
  150.4796  140.2057  156.8430 H   0  0  0  0  0  0  0  0  0  0  0  0
  150.3179  139.7437  154.5967 H   0  0  0  0  0  0  0  0  0  0  0  0
  148.5236  141.2700  158.1352 H   0  0  0  0  0  0  0  0  0  0  0  0
  146.0859  141.7010  157.9893 H   0  0  0  0  0  0  0  0  0  0  0  0
  144.9867  141.9196  155.7678 H   0  0  0  0  0  0  0  0  0  0  0  0
  146.3358  141.7110  153.6882 H   0  0  0  0  0  0  0  0  0  0  0  0
  148.7752  141.2816  153.8236 H   0  0  0  0  0  0  0  0  0  0  0  0
  1  2  1  0  0  0  0
  1 20  1  0  0  0  0
  1 21  1  0  0  0  0
  1 22  1  0  0  0  0
  2 10  1  0  0  0  0
  2  3  2  0  0  0  0
  3  4  1  0  0  0  0
  4  9  2  0  0  0  0
  4  5  1  0  0  0  0
  5  6  2  0  0  0  0
  5 23  1  0  0  0  0
  6  7  1  0  0  0  0
  6 24  1  0  0  0  0
  7  8  2  0  0  0  0
  7 25  1  0  0  0  0
  8  9  1  0  0  0  0
  8 26  1  0  0  0  0
  9 10  1  0  0  0  0
 10 11  1  0  0  0  0
 11 12  1  0  0  0  0
 11 27  1  0  0  0  0
 11 28  1  0  0  0  0
 12 13  1  0  0  0  0
 12 14  1  0  0  0  0
 12 29  1  0  0  0  0
 13 30  1  0  0  0  0
 14 19  1  0  0  0  0
 14 15  2  0  0  0  0
 15 16  1  0  0  0  0
 15 31  1  0  0  0  0
 16 17  2  0  0  0  0
 16 32  1  0  0  0  0
 17 18  1  0  0  0  0
 17 33  1  0  0  0  0
 18 19  2  0  0  0  0
 18 34  1  0  0  0  0
 19 35  1  0  0  0  0
M  END
> <s_m_source_file>
AV-unprocessed.smi

> <i_m_source_file_index>
530

> <i_lp_mmshare_version>
43012

> <i_f3d_flags>
0

> <s_epik_input>
W2NIXTFbY0hdW2NIXVtjSF1jKGMxMiluKGMobjIpW0NIM10pW0NIMl1bQ0BIXShbT0hdKWMzW2NIXVtjSF1bY0hdW2NIXVtjSF0z

> <s_epik_cmdline>
J2VwaWtfcHl0aG9uJywgJy1waCcsICc3LjAnLCAnLXRuJywgJzgnLCAnLW1hJywgJzIwMCcsICctbWV0YWxfYmluZGluZycsICctaW1hZScsICc8aW5maWxlLm1hZT4nLCAnLW9tYWUnLCAnPG91dGZpbGUubWFlPic=

> <r_epik_Ionization_Penalty>
0.129663

> <r_epik_Ionization_Penalty_Charging>
0

> <r_epik_Ionization_Penalty_Neutral>
0.129663

> <r_epik_State_Penalty>
0.119073

> <r_epik_Charging_Adjusted_Penalty>
0.119073

> <i_epik_Tot_Q>
0

> <i_epik_Tot_abs_Q>
0

> <r_epik_Metal_State_Penalty>
0.000131867

> <b_epik_Metal_Only>
0

> <s_lp_Force_Field>
OPLS_2005

> <r_lp_Energy>
11.6946

> <b_lp_Chiralities_Consistent>
1

> <s_lp_Variant>
AV-unprocessed.smi:530-1

> <Gold.Version>
5.8.1

> <Gold.Id.Protein>
6NUR|6NUR_protein|mol2

> <Gold.PLP.Fitness>
44.6325

> <Gold.PLP.PLP>
-44.4491

> <Gold.PLP.part.hbond>
-1.0000

> <Gold.PLP.part.metal>
0.0000

> <Gold.PLP.part.buried>
-6.0136

> <Gold.PLP.part.nonpolar>
-36.6195

> <Gold.PLP.part.repulsive>
0.0000

> <Gold.PLP.ligand.clash>
0.1083

> <Gold.PLP.ligand.torsion>
1.3677

> <Gold.PLP.Chemscore.Hbond>
1.0000

> <Gold.PLP.Chemscore.CHOScore>
0.0000

> <Gold.PLP.Chemscore.Metal>
0.0000

> <Gold.Chemscore.Hbonds>
donor molecule, donor type, donor heavy atom, donor atom, acceptor molecule, acceptor atom, score
      P1  H  7989  7998       L1    13  1.00

> <Gold.PLP.Chemscore.Internal.Correction>
0.0271

> <Gold.Rescore>
     Score         DG    S(hbond)    S(metal)    S(lipo)     H(rot)  DE(clash)    DE(int)     intcor
     16.41     -17.34       0.98        0.00     110.59       1.70       0.16       0.77       ----

> <Gold.Chemscore.Fitness>
16.4109

> <Gold.Chemscore.DG>
-17.3378

> <Gold.Chemscore.ZeroCoef>
-5.4800

> <Gold.Chemscore.Hbond>
0.9803

> <Gold.Chemscore.Metal>
0.0000

> <Gold.Chemscore.Lipo>
110.5881

> <Gold.Chemscore.Internal_Hbond>
0.0000

> <Gold.Chemscore.DEClash>
0.1591

> <Gold.Chemscore.DEInternal>
0.7678

> <Gold.Chemscore.Rot>
1.7013

> <Gold.Chemscore.Internal.Correction>
   9.000000E+99

> <Gold.Chemscore.Hbonds>
donor molecule, donor type, donor heavy atom, donor atom, acceptor molecule, acceptor atom, score
      P1  H  7989  7998       L1    13  0.34

> <Gold.Chemscore.Hbond.Weighted>
-3.2743

> <Gold.Chemscore.Metal.Weighted>
-0.0000

> <Gold.Chemscore.Lipo.Weighted>
-12.9388

> <Gold.Chemscore.Internal_Hbond.Weighted>
0.0000

> <Gold.Chemscore.DEClash.Weighted>
0.1591

> <Gold.Chemscore.DEInternal.Weighted>
0.7678

> <Gold.Chemscore.Rot.Weighted>
4.3554

> <Gold.Chemscore.Internal.Correction.Weighted>
   9.000000E+99

> <Gold.Protein.RotatedTorsions>
[ 6907 6896 6895 6894 ] final  124.27 input  -60.11 | X-H torsion
[ 7974 7965 7964 7962 ] final -118.06 input  175.53 | X-H torsion
[ 8008 7997 7996 7995 ] final  134.77 input   59.86 | X-H torsion
[ 10167 10162 10161 10158 ] final -116.63 input  -65.29 | X-H torsion
[ 10718 10713 10712 10709 ] final   -9.70 input   66.30 | X-H torsion
[ 10763 10752 10751 10750 ] final  -33.66 input  -60.55 | X-H torsion
[ 11005 11000 10999 10996 ] final  109.74 input  -57.11 | X-H torsion

> <Gold.Protein.ActiveResidues>
 VAL166  LYS551  ARG553  GLY616  TRP617  ASP618  TYR619  PRO620  LYS621  CYS622 
 ASP623  PHE694  ASN695  SER759  ASP760  ASP761  ALA762  ILE779  LEU786  VAL792 
 PHE793  MET794  SER795  GLU796  ALA797  LYS798  CYS799  TRP800  GLU811  SER814 

> <Gold.Protein.RotatedAtoms>
  152.4092  133.6936  159.6382 H   0  0  0  0  0  0  0  0  0  0  0  0  # atno 6907 bound_to 6896
  150.7974  133.8655  159.3252 H   0  0  0  0  0  0  0  0  0  0  0  0  # atno 6908 bound_to 6896
  151.6401  135.1015  160.0191 H   0  0  0  0  0  0  0  0  0  0  0  0  # atno 6909 bound_to 6896
  145.0781  140.8406  143.4055 H   0  0  0  0  0  0  0  0  0  0  0  0  # atno 7974 bound_to 7965
  156.3000  140.2488  156.3471 H   0  0  0  0  0  0  0  0  0  0  0  0  # atno 8008 bound_to 7997
  154.9000  140.0406  157.1907 H   0  0  0  0  0  0  0  0  0  0  0  0  # atno 8009 bound_to 7997
  154.8510  140.2906  155.5602 H   0  0  0  0  0  0  0  0  0  0  0  0  # atno 8010 bound_to 7997
  140.0771  143.4822  152.1947 H   0  0  0  0  0  0  0  0  0  0  0  0  # atno 10167 bound_to 10162
  156.6841  130.5046  149.5962 H   0  0  0  0  0  0  0  0  0  0  0  0  # atno 10718 bound_to 10713
  153.8338  135.6863  153.4811 H   0  0  0  0  0  0  0  0  0  0  0  0  # atno 10763 bound_to 10752
  153.1495  135.4624  154.9613 H   0  0  0  0  0  0  0  0  0  0  0  0  # atno 10764 bound_to 10752
  154.7875  135.3290  154.7799 H   0  0  0  0  0  0  0  0  0  0  0  0  # atno 10765 bound_to 10752
  139.8868  134.9466  156.6171 H   0  0  0  0  0  0  0  0  0  0  0  0  # atno 11005 bound_to 11000
  145.1211  139.2693  143.5588 LP  0  0  0  0  0  0  0  0  0  0  0  0  # atno 17320 bound_to 7965
  146.3530  140.0835  142.8616 LP  0  0  0  0  0  0  0  0  0  0  0  0  # atno 17321 bound_to 7965
  139.5801  144.7506  151.3661 LP  0  0  0  0  0  0  0  0  0  0  0  0  # atno 17342 bound_to 10162
  140.7096  143.7424  150.7544 LP  0  0  0  0  0  0  0  0  0  0  0  0  # atno 17343 bound_to 10162
  156.1845  130.6520  151.0991 LP  0  0  0  0  0  0  0  0  0  0  0  0  # atno 17370 bound_to 10713
  157.7033  131.0767  150.6751 LP  0  0  0  0  0  0  0  0  0  0  0  0  # atno 17371 bound_to 10713
  140.7767  133.8693  155.8535 LP  0  0  0  0  0  0  0  0  0  0  0  0  # atno 17394 bound_to 11000
  140.9795  134.1424  157.4506 LP  0  0  0  0  0  0  0  0  0  0  0  0  # atno 17395 bound_to 11000

$$$$
