AV-unprocessed.smi:1401|AV-procd|sdf|5691|dock7
  -GOLD-   22720 5323D 1   1.00000     0.00000
 Structure written by MMmdl.
 48 50  0  0  0  0  0  0  0  0  1 V2000
  148.1457  142.0394  157.0967 C   0  0  0  0  0  0  0  0  0  0  0  0
  148.9010  141.0336  156.2704 C   0  0  0  0  0  0  0  0  0  0  0  0
  148.2886  140.5513  155.2392 N   0  0  0  0  0  0  0  0  0  0  0  0
  148.8901  139.6179  154.4174 N   0  0  0  0  0  0  0  0  0  0  0  0
  148.0442  139.1601  153.3058 C   0  0  0  0  0  0  0  0  0  0  0  0
  146.7676  138.4528  153.7812 C   0  0  0  0  0  0  0  0  0  0  0  0
  146.0721  138.9482  154.6688 O   0  0  0  0  0  0  0  0  0  0  0  0
  146.4691  137.2993  153.1647 N   0  0  0  0  0  0  0  0  0  0  0  0
  145.3299  136.4366  153.4729 C   0  0  1  0  0  0  0  0  0  0  0  0
  144.0388  137.1471  153.0306 C   0  0  0  0  0  0  0  0  0  0  0  0
  145.5273  135.0606  152.7901 C   0  0  1  0  0  0  0  0  0  0  0  0
  144.2604  134.1669  152.8097 C   0  0  0  0  0  0  0  0  0  0  0  0
  144.0694  133.7873  151.3311 C   0  0  2  0  0  0  0  0  0  0  0  0
  145.1970  132.8357  150.8919 C   0  0  0  0  0  0  0  0  0  0  0  0
  146.4192  133.7701  150.8236 C   0  0  0  0  0  0  0  0  0  0  0  0
  145.8382  135.1248  151.2730 C   0  0  1  0  0  0  0  0  0  0  0  0
  144.4537  135.0845  150.6332 C   0  0  0  0  0  0  0  0  0  0  0  0
  150.1533  139.1310  154.5888 C   0  0  0  0  0  0  0  0  0  0  0  0
  150.6544  138.3046  153.8241 O   0  0  0  0  0  0  0  0  0  0  0  0
  150.8405  139.6818  155.7587 C   0  0  0  0  0  0  0  0  0  0  0  0
  152.1634  139.1929  155.9786 C   0  0  0  0  0  0  0  0  0  0  0  0
  153.2407  138.7994  156.1366 N   0  0  0  0  0  0  0  0  0  0  0  0
  150.2581  140.5929  156.5776 C   0  0  0  0  0  0  0  0  0  0  0  0
  150.9284  141.1947  157.8050 C   0  0  0  0  0  0  0  0  0  0  0  0
  148.6805  142.9883  157.1352 H   0  0  0  0  0  0  0  0  0  0  0  0
  148.0170  141.6810  158.1180 H   0  0  0  0  0  0  0  0  0  0  0  0
  147.1529  142.2379  156.6905 H   0  0  0  0  0  0  0  0  0  0  0  0
  147.7485  140.0032  152.6787 H   0  0  0  0  0  0  0  0  0  0  0  0
  148.6175  138.4978  152.6539 H   0  0  0  0  0  0  0  0  0  0  0  0
  147.0965  136.9767  152.4424 H   0  0  0  0  0  0  0  0  0  0  0  0
  145.2793  136.2778  154.5514 H   0  0  0  0  0  0  0  0  0  0  0  0
  143.1491  136.5851  153.3117 H   0  0  0  0  0  0  0  0  0  0  0  0
  144.0148  137.2906  151.9500 H   0  0  0  0  0  0  0  0  0  0  0  0
  143.9537  138.1294  153.4967 H   0  0  0  0  0  0  0  0  0  0  0  0
  146.3399  134.5454  153.3052 H   0  0  0  0  0  0  0  0  0  0  0  0
  144.3793  133.2934  153.4514 H   0  0  0  0  0  0  0  0  0  0  0  0
  143.3854  134.7157  153.1617 H   0  0  0  0  0  0  0  0  0  0  0  0
  143.0693  133.4187  151.1010 H   0  0  0  0  0  0  0  0  0  0  0  0
  145.3395  132.0136  151.5941 H   0  0  0  0  0  0  0  0  0  0  0  0
  144.9867  132.4072  149.9111 H   0  0  0  0  0  0  0  0  0  0  0  0
  147.2393  133.4339  151.4592 H   0  0  0  0  0  0  0  0  0  0  0  0
  146.7953  133.8315  149.8015 H   0  0  0  0  0  0  0  0  0  0  0  0
  146.4548  135.9690  150.9671 H   0  0  0  0  0  0  0  0  0  0  0  0
  144.4816  134.9981  149.5455 H   0  0  0  0  0  0  0  0  0  0  0  0
  143.8194  135.9289  150.9072 H   0  0  0  0  0  0  0  0  0  0  0  0
  151.9342  140.8051  157.9597 H   0  0  0  0  0  0  0  0  0  0  0  0
  150.3508  140.9741  158.7032 H   0  0  0  0  0  0  0  0  0  0  0  0
  151.0090  142.2775  157.7046 H   0  0  0  0  0  0  0  0  0  0  0  0
  1  2  1  0  0  0  0
  1 25  1  0  0  0  0
  1 26  1  0  0  0  0
  1 27  1  0  0  0  0
  2 23  1  0  0  0  0
  2  3  2  0  0  0  0
  3  4  1  0  0  0  0
  4  5  1  0  0  0  0
  4 18  1  0  0  0  0
  5  6  1  0  0  0  0
  5 28  1  0  0  0  0
  5 29  1  0  0  0  0
  6  7  2  0  0  0  0
  6  8  1  0  0  0  0
  8  9  1  0  0  0  0
  8 30  1  0  0  0  0
  9 10  1  0  0  0  0
  9 11  1  0  0  0  0
  9 31  1  0  0  0  0
 10 32  1  0  0  0  0
 10 33  1  0  0  0  0
 10 34  1  0  0  0  0
 11 16  1  0  0  0  0
 11 12  1  0  0  0  0
 11 35  1  0  0  0  0
 12 13  1  0  0  0  0
 12 36  1  0  0  0  0
 12 37  1  0  0  0  0
 13 17  1  0  0  0  0
 13 14  1  0  0  0  0
 13 38  1  0  0  0  0
 14 15  1  0  0  0  0
 14 39  1  0  0  0  0
 14 40  1  0  0  0  0
 15 16  1  0  0  0  0
 15 41  1  0  0  0  0
 15 42  1  0  0  0  0
 16 17  1  0  0  0  0
 16 43  1  0  0  0  0
 17 44  1  0  0  0  0
 17 45  1  0  0  0  0
 18 19  2  0  0  0  0
 18 20  1  0  0  0  0
 20 21  1  0  0  0  0
 20 23  2  0  0  0  0
 21 22  3  0  0  0  0
 23 24  1  0  0  0  0
 24 46  1  0  0  0  0
 24 47  1  0  0  0  0
 24 48  1  0  0  0  0
M  END
> <s_m_source_file>
AV-unprocessed.smi

> <i_m_source_file_index>
1401

> <i_lp_mmshare_version>
43012

> <i_f3d_flags>
0

> <s_epik_input>
TiNDYyhjMVtDSDNdKWMoPU8pbihuYzFbQ0gzXSlbQ0gyXUMoPU8pW05IXVtDQEhdKFtDSDNdKVtDQEhdKFtDSDJdW0NASF0yMylbQ0BIXShbQ0gyXTMpW0NIMl1bQ0gyXTI=

> <s_epik_cmdline>
J2VwaWtfcHl0aG9uJywgJy1waCcsICc3LjAnLCAnLXRuJywgJzgnLCAnLW1hJywgJzIwMCcsICctbWV0YWxfYmluZGluZycsICctaW1hZScsICc8aW5maWxlLm1hZT4nLCAnLW9tYWUnLCAnPG91dGZpbGUubWFlPic=

> <r_lp_tautomer_probability>
1

> <r_epik_Ionization_Penalty>
2.16501e-08

> <r_epik_Ionization_Penalty_Charging>
2.29436e-11

> <r_epik_Ionization_Penalty_Neutral>
2.16271e-08

> <r_epik_State_Penalty>
-0

> <r_epik_Charging_Adjusted_Penalty>
2.29436e-11

> <i_epik_Tot_Q>
0

> <i_epik_Tot_abs_Q>
0

> <r_epik_Metal_State_Penalty>
-0

> <b_epik_Metal_Only>
0

> <s_lp_Force_Field>
OPLS_2005

> <r_lp_Energy>
65.5995

> <b_lp_Chiralities_Consistent>
1

> <s_lp_Variant>
AV-unprocessed.smi:1401-4

> <Gold.Version>
5.8.1

> <Gold.Id.Protein>
6NUR|6NUR_protein|mol2

> <Gold.PLP.Fitness>
38.8130

> <Gold.PLP.PLP>
-33.6053

> <Gold.PLP.part.hbond>
-2.0000

> <Gold.PLP.part.metal>
0.0000

> <Gold.PLP.part.buried>
-2.0427

> <Gold.PLP.part.nonpolar>
-29.5963

> <Gold.PLP.part.repulsive>
0.4356

> <Gold.PLP.ligand.clash>
0.0000

> <Gold.PLP.ligand.torsion>
0.3942

> <Gold.PLP.Chemscore.Hbond>
1.9913

> <Gold.PLP.Chemscore.CHOScore>
0.0000

> <Gold.PLP.Chemscore.Metal>
0.0000

> <Gold.Chemscore.Hbonds>
donor molecule, donor type, donor heavy atom, donor atom, acceptor molecule, acceptor atom, score
      L1  H     8    30       P1  7948  0.89
      P1  H  7997  8009       L1    22  0.99

> <Gold.PLP.Chemscore.Internal.Correction>
0.0224

> <Gold.Rescore>
     Score         DG    S(hbond)    S(metal)    S(lipo)     H(rot)  DE(clash)    DE(int)     intcor
     14.45     -16.26       1.97        0.00      71.59       1.63       0.10       1.71       ----

> <Gold.Chemscore.Fitness>
14.4483

> <Gold.Chemscore.DG>
-16.2559

> <Gold.Chemscore.ZeroCoef>
-5.4800

> <Gold.Chemscore.Hbond>
1.9664

> <Gold.Chemscore.Metal>
0.0000

> <Gold.Chemscore.Lipo>
71.5894

> <Gold.Chemscore.Internal_Hbond>
0.0000

> <Gold.Chemscore.DEClash>
0.1019

> <Gold.Chemscore.DEInternal>
1.7058

> <Gold.Chemscore.Rot>
1.6281

> <Gold.Chemscore.Internal.Correction>
   9.000000E+99

> <Gold.Chemscore.Hbonds>
donor molecule, donor type, donor heavy atom, donor atom, acceptor molecule, acceptor atom, score
      L1  H     8    30       P1  7948  0.83
      P1  H  7997  8009       L1    22  0.69

> <Gold.Chemscore.Hbond.Weighted>
-6.5678

> <Gold.Chemscore.Metal.Weighted>
-0.0000

> <Gold.Chemscore.Lipo.Weighted>
-8.3760

> <Gold.Chemscore.Internal_Hbond.Weighted>
0.0000

> <Gold.Chemscore.DEClash.Weighted>
0.1019

> <Gold.Chemscore.DEInternal.Weighted>
1.7058

> <Gold.Chemscore.Rot.Weighted>
4.1678

> <Gold.Chemscore.Internal.Correction.Weighted>
   9.000000E+99

> <Gold.Protein.RotatedTorsions>
[ 6907 6896 6895 6894 ] final  -29.80 input  -60.11 | X-H torsion
[ 7974 7965 7964 7962 ] final -106.74 input  175.53 | X-H torsion
[ 8008 7997 7996 7995 ] final -152.46 input   59.86 | X-H torsion
[ 10167 10162 10161 10158 ] final    3.25 input  -65.29 | X-H torsion
[ 10718 10713 10712 10709 ] final  122.51 input   66.30 | X-H torsion
[ 10763 10752 10751 10750 ] final  100.03 input  -60.55 | X-H torsion
[ 11005 11000 10999 10996 ] final   96.26 input  -57.11 | X-H torsion

> <Gold.Protein.ActiveResidues>
 VAL166  LYS551  ARG553  GLY616  TRP617  ASP618  TYR619  PRO620  LYS621  CYS622 
 ASP623  PHE694  ASN695  SER759  ASP760  ASP761  ALA762  ILE779  LEU786  VAL792 
 PHE793  MET794  SER795  GLU796  ALA797  LYS798  CYS799  TRP800  GLU811  SER814 

> <Gold.Protein.RotatedAtoms>
  151.1142  135.0043  159.8507 H   0  0  0  0  0  0  0  0  0  0  0  0  # atno 6907 bound_to 6896
  152.5445  134.1799  159.8641 H   0  0  0  0  0  0  0  0  0  0  0  0  # atno 6908 bound_to 6896
  151.1852  133.4656  159.2627 H   0  0  0  0  0  0  0  0  0  0  0  0  # atno 6909 bound_to 6896
  145.2141  140.9108  143.3297 H   0  0  0  0  0  0  0  0  0  0  0  0  # atno 7974 bound_to 7965
  155.6554  140.0716  157.2572 H   0  0  0  0  0  0  0  0  0  0  0  0  # atno 8008 bound_to 7997
  154.4153  140.1726  156.1770 H   0  0  0  0  0  0  0  0  0  0  0  0  # atno 8009 bound_to 7997
  155.9741  140.3359  155.6606 H   0  0  0  0  0  0  0  0  0  0  0  0  # atno 8010 bound_to 7997
  140.6595  143.7341  150.7713 H   0  0  0  0  0  0  0  0  0  0  0  0  # atno 10167 bound_to 10162
  157.5736  131.1081  150.8320 H   0  0  0  0  0  0  0  0  0  0  0  0  # atno 10718 bound_to 10713
  153.3088  135.4093  155.1318 H   0  0  0  0  0  0  0  0  0  0  0  0  # atno 10763 bound_to 10752
  154.8570  135.3559  154.5751 H   0  0  0  0  0  0  0  0  0  0  0  0  # atno 10764 bound_to 10752
  153.6179  135.7065  153.5380 H   0  0  0  0  0  0  0  0  0  0  0  0  # atno 10765 bound_to 10752
  139.8783  134.8941  156.4133 H   0  0  0  0  0  0  0  0  0  0  0  0  # atno 11005 bound_to 11000
  144.9828  139.3766  143.6253 LP  0  0  0  0  0  0  0  0  0  0  0  0  # atno 17320 bound_to 7965
  146.3391  139.8976  142.8799 LP  0  0  0  0  0  0  0  0  0  0  0  0  # atno 17321 bound_to 7965
  140.1007  143.4790  152.2427 LP  0  0  0  0  0  0  0  0  0  0  0  0  # atno 17342 bound_to 10162
  139.5825  144.7517  151.3603 LP  0  0  0  0  0  0  0  0  0  0  0  0  # atno 17343 bound_to 10162
  156.8785  130.5171  149.5292 LP  0  0  0  0  0  0  0  0  0  0  0  0  # atno 17370 bound_to 10713
  156.0781  130.5798  150.9512 LP  0  0  0  0  0  0  0  0  0  0  0  0  # atno 17371 bound_to 10713
  140.9185  133.7661  155.9878 LP  0  0  0  0  0  0  0  0  0  0  0  0  # atno 17394 bound_to 11000
  140.8466  134.3004  157.5292 LP  0  0  0  0  0  0  0  0  0  0  0  0  # atno 17395 bound_to 11000

$$$$
