AV-unprocessed.smi:113|AV-procd|sdf|1097|dock3
  -GOLD-   2262018203D 1   1.00000     0.00000
 Structure written by MMmdl.
 52 55  0  0  0  0  0  0  0  0  1 V2000
  151.3963  143.7752  157.9851 C   0  0  0  0  0  0  0  0  0  0  0  0
  151.9434  142.4592  158.4976 C   0  0  0  0  0  0  0  0  0  0  0  0
  151.6808  141.2569  157.8174 C   0  0  0  0  0  0  0  0  0  0  0  0
  152.2081  140.0494  158.3298 C   0  0  0  0  0  0  0  0  0  0  0  0
  151.9545  138.7115  157.6259 C   0  0  0  0  0  0  0  0  0  0  0  0
  150.5974  138.1862  157.6790 N   0  0  0  0  0  0  0  0  0  0  0  0
  149.7498  138.4350  156.5720 C   0  0  0  0  0  0  0  0  0  0  0  0
  150.1357  139.0819  155.5960 O   0  0  0  0  0  0  0  0  0  0  0  0
  148.4096  137.8522  156.6712 C   0  0  0  0  0  0  0  0  0  0  0  0
  147.4452  138.0737  155.5166 C   0  0  0  0  0  0  0  0  0  0  0  0
  148.0678  137.1337  157.7679 C   0  0  0  0  0  0  0  0  0  0  0  0
  148.9139  136.9101  158.8396 N   0  0  0  0  0  0  0  0  0  0  0  0
  148.4542  136.0367  159.9859 C   0  0  2  0  0  0  0  0  0  0  0  0
  147.0591  135.4220  159.7754 C   0  0  0  0  0  0  0  0  0  0  0  0
  146.3388  135.7254  161.0855 C   0  0  2  0  0  0  0  0  0  0  0  0
  145.3202  136.6855  160.8777 O   0  0  0  0  0  0  0  0  0  0  0  0
  147.4560  136.2290  162.0179 C   0  0  2  0  0  0  0  0  0  0  0  0
  147.0562  137.2176  163.1278 C   0  0  0  0  0  0  0  0  0  0  0  0
  146.2476  138.2487  162.6010 O   0  0  0  0  0  0  0  0  0  0  0  0
  148.4039  136.8137  161.1392 O   0  0  0  0  0  0  0  0  0  0  0  0
  150.2320  137.4164  158.8061 C   0  0  0  0  0  0  0  0  0  0  0  0
  151.0314  137.1771  159.7134 O   0  0  0  0  0  0  0  0  0  0  0  0
  152.9854  140.1144  159.5180 C   0  0  0  0  0  0  0  0  0  0  0  0
  153.5534  138.9527  160.0953 C   0  0  0  0  0  0  0  0  0  0  0  0
  154.3181  139.0383  161.2725 C   0  0  0  0  0  0  0  0  0  0  0  0
  154.5240  140.2855  161.8849 C   0  0  0  0  0  0  0  0  0  0  0  0
  153.9639  141.4442  161.3178 C   0  0  0  0  0  0  0  0  0  0  0  0
  153.1933  141.3825  160.1369 C   0  0  0  0  0  0  0  0  0  0  0  0
  152.6761  142.5217  159.6264 N   0  0  0  0  0  0  0  0  0  0  0  0
  151.1081  143.6988  156.9363 H   0  0  0  0  0  0  0  0  0  0  0  0
  152.1434  144.5650  158.0722 H   0  0  0  0  0  0  0  0  0  0  0  0
  150.5180  144.0671  158.5611 H   0  0  0  0  0  0  0  0  0  0  0  0
  151.0842  141.2768  156.9180 H   0  0  0  0  0  0  0  0  0  0  0  0
  152.2360  138.7824  156.5741 H   0  0  0  0  0  0  0  0  0  0  0  0
  152.6135  137.9410  158.0292 H   0  0  0  0  0  0  0  0  0  0  0  0
  146.4743  137.6143  155.7041 H   0  0  0  0  0  0  0  0  0  0  0  0
  147.8462  137.6437  154.5980 H   0  0  0  0  0  0  0  0  0  0  0  0
  147.2830  139.1399  155.3537 H   0  0  0  0  0  0  0  0  0  0  0  0
  147.0732  136.7126  157.8049 H   0  0  0  0  0  0  0  0  0  0  0  0
  149.2173  135.2681  160.1151 H   0  0  0  0  0  0  0  0  0  0  0  0
  146.5529  135.8342  158.9016 H   0  0  0  0  0  0  0  0  0  0  0  0
  147.1727  134.3486  159.6210 H   0  0  0  0  0  0  0  0  0  0  0  0
  145.8701  134.8300  161.4952 H   0  0  0  0  0  0  0  0  0  0  0  0
  145.4750  137.1191  160.0526 H   0  0  0  0  0  0  0  0  0  0  0  0
  147.9460  135.3653  162.4717 H   0  0  0  0  0  0  0  0  0  0  0  0
  146.4821  136.6970  163.8947 H   0  0  0  0  0  0  0  0  0  0  0  0
  147.9284  137.6435  163.6241 H   0  0  0  0  0  0  0  0  0  0  0  0
  145.3551  137.9417  162.5573 H   0  0  0  0  0  0  0  0  0  0  0  0
  153.4158  137.9792  159.6501 H   0  0  0  0  0  0  0  0  0  0  0  0
  154.7468  138.1460  161.7048 H   0  0  0  0  0  0  0  0  0  0  0  0
  155.1115  140.3545  162.7887 H   0  0  0  0  0  0  0  0  0  0  0  0
  154.1294  142.3978  161.7977 H   0  0  0  0  0  0  0  0  0  0  0  0
  1  2  1  0  0  0  0
  1 30  1  0  0  0  0
  1 31  1  0  0  0  0
  1 32  1  0  0  0  0
  2 29  1  0  0  0  0
  2  3  2  0  0  0  0
  3  4  1  0  0  0  0
  3 33  1  0  0  0  0
  4  5  1  0  0  0  0
  4 23  2  0  0  0  0
  5  6  1  0  0  0  0
  5 34  1  0  0  0  0
  5 35  1  0  0  0  0
  6 21  1  0  0  0  0
  6  7  1  0  0  0  0
  7  8  2  0  0  0  0
  7  9  1  0  0  0  0
  9 10  1  0  0  0  0
  9 11  2  0  0  0  0
 10 36  1  0  0  0  0
 10 37  1  0  0  0  0
 10 38  1  0  0  0  0
 11 12  1  0  0  0  0
 11 39  1  0  0  0  0
 12 13  1  0  0  0  0
 12 21  1  0  0  0  0
 13 20  1  0  0  0  0
 13 14  1  0  0  0  0
 13 40  1  0  0  0  0
 14 15  1  0  0  0  0
 14 41  1  0  0  0  0
 14 42  1  0  0  0  0
 15 16  1  0  0  0  0
 15 17  1  0  0  0  0
 15 43  1  0  0  0  0
 16 44  1  0  0  0  0
 17 18  1  0  0  0  0
 17 20  1  0  0  0  0
 17 45  1  0  0  0  0
 18 19  1  0  0  0  0
 18 46  1  0  0  0  0
 18 47  1  0  0  0  0
 19 48  1  0  0  0  0
 21 22  2  0  0  0  0
 23 28  1  0  0  0  0
 23 24  1  0  0  0  0
 24 25  2  0  0  0  0
 24 49  1  0  0  0  0
 25 26  1  0  0  0  0
 25 50  1  0  0  0  0
 26 27  2  0  0  0  0
 26 51  1  0  0  0  0
 27 28  1  0  0  0  0
 27 52  1  0  0  0  0
 28 29  2  0  0  0  0
M  END
> <s_m_source_file>
AV-unprocessed.smi

> <i_m_source_file_index>
113

> <i_lp_mmshare_version>
43012

> <i_f3d_flags>
0

> <s_epik_input>
W2NIXTFbY0hdW2NIXVtjSF1jKGMxMiluYyhbQ0gzXSlbY0hdYzJbQ0gyXW4zYyg9TyljKFtDSDNdKVtjSF1uKGMzPU8pW0NAQEhdNFtDSDJdW0NAQEhdKFtPSF0pW0NASF0oTzQpW0NIMl1bT0hd

> <s_epik_cmdline>
J2VwaWtfcHl0aG9uJywgJy1waCcsICc3LjAnLCAnLXRuJywgJzgnLCAnLW1hJywgJzIwMCcsICctbWV0YWxfYmluZGluZycsICctaW1hZScsICc8aW5maWxlLm1hZT4nLCAnLW9tYWUnLCAnPG91dGZpbGUubWFlPic=

> <r_lp_tautomer_probability>
1

> <r_epik_Ionization_Penalty>
0.214728

> <r_epik_Ionization_Penalty_Charging>
3.04883e-08

> <r_epik_Ionization_Penalty_Neutral>
0.214728

> <r_epik_State_Penalty>
0.204913

> <r_epik_Charging_Adjusted_Penalty>
0.204913

> <i_epik_Tot_Q>
0

> <i_epik_Tot_abs_Q>
0

> <r_epik_Metal_State_Penalty>
0.000244761

> <b_epik_Metal_Only>
0

> <s_epik_Chemistry_Notes>
This compound contains an acetal/aminal-like group ( X-CH(R)-Y where X, Y are N, S, or O) that may be acid/base labile, releasing an aldehyde.

> <s_lp_Force_Field>
OPLS_2005

> <r_lp_Energy>
37.3201

> <b_lp_Chiralities_Consistent>
1

> <s_lp_Variant>
AV-unprocessed.smi:113-7

> <Gold.Version>
5.8.1

> <Gold.Id.Protein>
6NUR|6NUR_protein|mol2

> <Gold.PLP.Fitness>
51.1160

> <Gold.PLP.PLP>
-45.4409

> <Gold.PLP.part.hbond>
-3.0341

> <Gold.PLP.part.metal>
0.0000

> <Gold.PLP.part.buried>
-6.7557

> <Gold.PLP.part.nonpolar>
-35.5990

> <Gold.PLP.part.repulsive>
0.0308

> <Gold.PLP.ligand.clash>
0.0000

> <Gold.PLP.ligand.torsion>
0.5732

> <Gold.PLP.Chemscore.Hbond>
2.2625

> <Gold.PLP.Chemscore.CHOScore>
0.0000

> <Gold.PLP.Chemscore.Metal>
0.0000

> <Gold.Chemscore.Hbonds>
donor molecule, donor type, donor heavy atom, donor atom, acceptor molecule, acceptor atom, score
      P1  H  6896  6907       L1    22  0.94
      P1  H  6931  6943       L1    20  1.00
      P1  H  6934  6947       L1    19  0.29

> <Gold.PLP.Chemscore.Internal.Correction>
0.0340

> <Gold.Rescore>
     Score         DG    S(hbond)    S(metal)    S(lipo)     H(rot)  DE(clash)    DE(int)     intcor
     18.12     -18.89       2.22        0.00     115.79       2.95       0.00       0.77       ----

> <Gold.Chemscore.Fitness>
18.1245

> <Gold.Chemscore.DG>
-18.8933

> <Gold.Chemscore.ZeroCoef>
-5.4800

> <Gold.Chemscore.Hbond>
2.2185

> <Gold.Chemscore.Metal>
0.0000

> <Gold.Chemscore.Lipo>
115.7911

> <Gold.Chemscore.Internal_Hbond>
0.0000

> <Gold.Chemscore.DEClash>
0.0000

> <Gold.Chemscore.DEInternal>
0.7688

> <Gold.Chemscore.Rot>
2.9469

> <Gold.Chemscore.Internal.Correction>
   9.000000E+99

> <Gold.Chemscore.Hbonds>
donor molecule, donor type, donor heavy atom, donor atom, acceptor molecule, acceptor atom, score
      P1  H  6896  6907       L1    22  0.71
      P1  H  6931  6943       L1    20  0.65
      P1  H  6934  6947       L1    19  0.19

> <Gold.Chemscore.Hbond.Weighted>
-7.4097

> <Gold.Chemscore.Metal.Weighted>
-0.0000

> <Gold.Chemscore.Lipo.Weighted>
-13.5476

> <Gold.Chemscore.Internal_Hbond.Weighted>
0.0000

> <Gold.Chemscore.DEClash.Weighted>
0.0000

> <Gold.Chemscore.DEInternal.Weighted>
0.7688

> <Gold.Chemscore.Rot.Weighted>
7.5439

> <Gold.Chemscore.Internal.Correction.Weighted>
   9.000000E+99

> <Gold.Protein.RotatedTorsions>
[ 6907 6896 6895 6894 ] final  -14.98 input  -60.11 | X-H torsion
[ 7974 7965 7964 7962 ] final  -80.21 input  175.53 | X-H torsion
[ 8008 7997 7996 7995 ] final   62.31 input   59.86 | X-H torsion
[ 10167 10162 10161 10158 ] final  150.34 input  -65.29 | X-H torsion
[ 10718 10713 10712 10709 ] final   64.54 input   66.30 | X-H torsion
[ 10763 10752 10751 10750 ] final   64.54 input  -60.55 | X-H torsion
[ 11005 11000 10999 10996 ] final -106.54 input  -57.11 | X-H torsion

> <Gold.Protein.ActiveResidues>
 VAL166  LYS551  ARG553  GLY616  TRP617  ASP618  TYR619  PRO620  LYS621  CYS622 
 ASP623  PHE694  ASN695  SER759  ASP760  ASP761  ALA762  ILE779  LEU786  VAL792 
 PHE793  MET794  SER795  GLU796  ALA797  LYS798  CYS799  TRP800  GLU811  SER814 

> <Gold.Protein.RotatedAtoms>
  151.3311  135.0842  159.9338 H   0  0  0  0  0  0  0  0  0  0  0  0  # atno 6907 bound_to 6896
  152.5234  133.9542  159.7697 H   0  0  0  0  0  0  0  0  0  0  0  0  # atno 6908 bound_to 6896
  150.9881  133.6124  159.2742 H   0  0  0  0  0  0  0  0  0  0  0  0  # atno 6909 bound_to 6896
  145.5629  140.9479  143.1437 H   0  0  0  0  0  0  0  0  0  0  0  0  # atno 7974 bound_to 7965
  155.6123  140.3495  155.4626 H   0  0  0  0  0  0  0  0  0  0  0  0  # atno 8008 bound_to 7997
  156.0145  140.1240  157.0445 H   0  0  0  0  0  0  0  0  0  0  0  0  # atno 8009 bound_to 7997
  154.4292  140.1075  156.5862 H   0  0  0  0  0  0  0  0  0  0  0  0  # atno 8010 bound_to 7997
  139.4851  144.5530  151.7368 H   0  0  0  0  0  0  0  0  0  0  0  0  # atno 10167 bound_to 10162
  157.6046  130.9165  149.9859 H   0  0  0  0  0  0  0  0  0  0  0  0  # atno 10718 bound_to 10713
  153.0060  135.5389  154.6526 H   0  0  0  0  0  0  0  0  0  0  0  0  # atno 10763 bound_to 10752
  154.5754  135.2845  155.0788 H   0  0  0  0  0  0  0  0  0  0  0  0  # atno 10764 bound_to 10752
  154.1937  135.6496  153.5120 H   0  0  0  0  0  0  0  0  0  0  0  0  # atno 10765 bound_to 10752
  141.0999  133.8903  157.1868 H   0  0  0  0  0  0  0  0  0  0  0  0  # atno 11005 bound_to 11000
  144.7474  139.7283  143.7287 LP  0  0  0  0  0  0  0  0  0  0  0  0  # atno 17320 bound_to 7965
  146.1838  139.5044  142.9849 LP  0  0  0  0  0  0  0  0  0  0  0  0  # atno 17321 bound_to 7965
  140.5087  144.1059  150.5989 LP  0  0  0  0  0  0  0  0  0  0  0  0  # atno 17342 bound_to 10162
  140.3977  143.2720  151.9985 LP  0  0  0  0  0  0  0  0  0  0  0  0  # atno 17343 bound_to 10162
  156.1129  130.3649  150.0018 LP  0  0  0  0  0  0  0  0  0  0  0  0  # atno 17370 bound_to 10713
  156.8113  130.9326  151.3644 LP  0  0  0  0  0  0  0  0  0  0  0  0  # atno 17371 bound_to 10713
  139.9847  135.0086  156.9835 LP  0  0  0  0  0  0  0  0  0  0  0  0  # atno 17394 bound_to 11000
  140.5047  134.1062  155.7258 LP  0  0  0  0  0  0  0  0  0  0  0  0  # atno 17395 bound_to 11000

$$$$
