AV-unprocessed.smi:2077|AV-procd|sdf|8462|dock10
  -GOLD-   2272011163D 1   1.00000     0.00000
 Structure written by MMmdl.
 38 40  0  0  0  0  0  0  0  0  1 V2000
  145.9991  142.7862  157.7410 C   0  0  0  0  0  0  0  0  0  0  0  0
  147.0744  142.2080  156.9132 N   0  0  0  0  0  0  0  0  0  0  0  0
  148.3435  142.1780  157.4292 C   0  0  0  0  0  0  0  0  0  0  0  0
  148.6626  142.5905  158.5453 O   0  0  0  0  0  0  0  0  0  0  0  0
  149.3371  141.5966  156.5230 C   0  0  0  0  0  0  0  0  0  0  0  0
  149.0267  141.1186  155.2943 C   0  0  0  0  0  0  0  0  0  0  0  0
  150.1520  140.6233  154.6446 N   0  0  0  0  0  0  0  0  0  0  0  0
  151.1108  140.8371  155.5475 C   0  0  0  0  0  0  0  0  0  0  0  0
  150.7073  141.4144  156.6978 N   0  0  0  0  0  0  0  0  0  0  0  0
  151.5427  141.7563  157.8381 C   0  0  0  0  0  0  0  0  0  0  0  0
  152.1326  140.5129  158.5315 C   0  0  1  0  0  0  0  0  0  0  0  0
  153.0117  139.8457  157.6460 O   0  0  0  0  0  0  0  0  0  0  0  0
  152.8021  140.8810  159.8459 C   0  0  0  0  0  0  0  0  0  0  0  0
  153.7032  139.9920  160.4730 C   0  0  0  0  0  0  0  0  0  0  0  0
  154.3256  140.3507  161.6847 C   0  0  0  0  0  0  0  0  0  0  0  0
  154.0533  141.6001  162.2744 C   0  0  0  0  0  0  0  0  0  0  0  0
  153.1595  142.4918  161.6510 C   0  0  0  0  0  0  0  0  0  0  0  0
  152.9005  143.6952  162.2147 F   0  0  0  0  0  0  0  0  0  0  0  0
  152.5364  142.1335  160.4399 C   0  0  0  0  0  0  0  0  0  0  0  0
  147.6790  141.1844  154.8614 N   0  0  0  0  0  0  0  0  0  0  0  0
  147.3779  140.6539  153.5285 C   0  0  0  0  0  0  0  0  0  0  0  0
  146.7082  141.7341  155.6642 C   0  0  0  0  0  0  0  0  0  0  0  0
  145.5377  141.8033  155.2796 O   0  0  0  0  0  0  0  0  0  0  0  0
  146.3209  143.1711  158.7093 H   0  0  0  0  0  0  0  0  0  0  0  0
  145.2319  142.0373  157.9439 H   0  0  0  0  0  0  0  0  0  0  0  0
  145.5249  143.6204  157.2212 H   0  0  0  0  0  0  0  0  0  0  0  0
  152.1403  140.5636  155.3675 H   0  0  0  0  0  0  0  0  0  0  0  0
  152.3416  142.4187  157.5011 H   0  0  0  0  0  0  0  0  0  0  0  0
  150.9438  142.3380  158.5390 H   0  0  0  0  0  0  0  0  0  0  0  0
  151.3265  139.8113  158.7499 H   0  0  0  0  0  0  0  0  0  0  0  0
  152.4962  139.3294  157.0452 H   0  0  0  0  0  0  0  0  0  0  0  0
  153.9228  139.0335  160.0256 H   0  0  0  0  0  0  0  0  0  0  0  0
  155.0138  139.6679  162.1607 H   0  0  0  0  0  0  0  0  0  0  0  0
  154.5316  141.8754  163.2029 H   0  0  0  0  0  0  0  0  0  0  0  0
  151.8553  142.8261  159.9668 H   0  0  0  0  0  0  0  0  0  0  0  0
  146.3191  140.6635  153.2682 H   0  0  0  0  0  0  0  0  0  0  0  0
  147.7162  139.6199  153.4546 H   0  0  0  0  0  0  0  0  0  0  0  0
  147.9062  141.2335  152.7709 H   0  0  0  0  0  0  0  0  0  0  0  0
  1  2  1  0  0  0  0
  1 24  1  0  0  0  0
  1 25  1  0  0  0  0
  1 26  1  0  0  0  0
  2 22  1  0  0  0  0
  2  3  1  0  0  0  0
  3  4  2  0  0  0  0
  3  5  1  0  0  0  0
  5  9  1  0  0  0  0
  5  6  2  0  0  0  0
  6  7  1  0  0  0  0
  6 20  1  0  0  0  0
  7  8  2  0  0  0  0
  8  9  1  0  0  0  0
  8 27  1  0  0  0  0
  9 10  1  0  0  0  0
 10 11  1  0  0  0  0
 10 28  1  0  0  0  0
 10 29  1  0  0  0  0
 11 12  1  0  0  0  0
 11 13  1  0  0  0  0
 11 30  1  0  0  0  0
 12 31  1  0  0  0  0
 13 19  1  0  0  0  0
 13 14  2  0  0  0  0
 14 15  1  0  0  0  0
 14 32  1  0  0  0  0
 15 16  2  0  0  0  0
 15 33  1  0  0  0  0
 16 17  1  0  0  0  0
 16 34  1  0  0  0  0
 17 18  1  0  0  0  0
 17 19  2  0  0  0  0
 19 35  1  0  0  0  0
 20 21  1  0  0  0  0
 20 22  1  0  0  0  0
 21 36  1  0  0  0  0
 21 37  1  0  0  0  0
 21 38  1  0  0  0  0
 22 23  2  0  0  0  0
M  END
> <s_m_source_file>
AV-unprocessed.smi

> <i_m_source_file_index>
2077

> <i_lp_mmshare_version>
43012

> <i_f3d_flags>
0

> <s_epik_input>
Tz1jMW4oW0NIM10pYyg9TyluKFtDSDNdKWMoYzEyKW5bY0hdbjJbQ0gyXVtDQEhdKFtPSF0pYzNbY0hdW2NIXVtjSF1jKEYpW2NIXTM=

> <s_epik_cmdline>
J2VwaWtfcHl0aG9uJywgJy1waCcsICc3LjAnLCAnLXRuJywgJzgnLCAnLW1hJywgJzIwMCcsICctbWV0YWxfYmluZGluZycsICctaW1hZScsICc8aW5maWxlLm1hZT4nLCAnLW9tYWUnLCAnPG91dGZpbGUubWFlPic=

> <r_lp_tautomer_probability>
1

> <r_epik_Ionization_Penalty>
1.5338e-06

> <r_epik_Ionization_Penalty_Charging>
3.74189e-09

> <r_epik_Ionization_Penalty_Neutral>
1.53006e-06

> <r_epik_State_Penalty>
-0

> <r_epik_Charging_Adjusted_Penalty>
3.74189e-09

> <i_epik_Tot_Q>
0

> <i_epik_Tot_abs_Q>
0

> <r_epik_Metal_State_Penalty>
-0

> <b_epik_Metal_Only>
0

> <s_lp_Force_Field>
OPLS_2005

> <r_lp_Energy>
35.2463

> <b_lp_Chiralities_Consistent>
1

> <s_lp_Variant>
AV-unprocessed.smi:2077-2

> <Gold.Version>
5.8.1

> <Gold.Id.Protein>
6NUR|6NUR_protein|mol2

> <Gold.PLP.Fitness>
45.0525

> <Gold.PLP.PLP>
-42.8703

> <Gold.PLP.part.hbond>
-2.0524

> <Gold.PLP.part.metal>
0.0000

> <Gold.PLP.part.buried>
-2.2664

> <Gold.PLP.part.nonpolar>
-36.8015

> <Gold.PLP.part.repulsive>
0.3736

> <Gold.PLP.ligand.clash>
0.0000

> <Gold.PLP.ligand.torsion>
0.5523

> <Gold.PLP.Chemscore.Hbond>
1.0880

> <Gold.PLP.Chemscore.CHOScore>
0.0000

> <Gold.PLP.Chemscore.Metal>
0.0000

> <Gold.Chemscore.Hbonds>
donor molecule, donor type, donor heavy atom, donor atom, acceptor molecule, acceptor atom, score
      P1  H  7989  7998       L1     7  0.04
      P1  H  7997  8010       L1    12  1.00

> <Gold.PLP.Chemscore.Internal.Correction>
0.0227

> <Gold.Rescore>
     Score         DG    S(hbond)    S(metal)    S(lipo)     H(rot)  DE(clash)    DE(int)     intcor
     10.46     -12.14       0.95        0.00      78.70       2.24       0.10       1.58       ----

> <Gold.Chemscore.Fitness>
10.4573

> <Gold.Chemscore.DG>
-12.1366

> <Gold.Chemscore.ZeroCoef>
-5.4800

> <Gold.Chemscore.Hbond>
0.9512

> <Gold.Chemscore.Metal>
0.0000

> <Gold.Chemscore.Lipo>
78.7017

> <Gold.Chemscore.Internal_Hbond>
0.0000

> <Gold.Chemscore.DEClash>
0.0954

> <Gold.Chemscore.DEInternal>
1.5840

> <Gold.Chemscore.Rot>
2.2377

> <Gold.Chemscore.Internal.Correction>
   9.000000E+99

> <Gold.Chemscore.Hbonds>
donor molecule, donor type, donor heavy atom, donor atom, acceptor molecule, acceptor atom, score
      P1  H  7997  8010       L1    12  0.60

> <Gold.Chemscore.Hbond.Weighted>
-3.1771

> <Gold.Chemscore.Metal.Weighted>
-0.0000

> <Gold.Chemscore.Lipo.Weighted>
-9.2081

> <Gold.Chemscore.Internal_Hbond.Weighted>
0.0000

> <Gold.Chemscore.DEClash.Weighted>
0.0954

> <Gold.Chemscore.DEInternal.Weighted>
1.5840

> <Gold.Chemscore.Rot.Weighted>
5.7286

> <Gold.Chemscore.Internal.Correction.Weighted>
   9.000000E+99

> <Gold.Protein.RotatedTorsions>
[ 6907 6896 6895 6894 ] final   63.39 input  -60.11 | X-H torsion
[ 7974 7965 7964 7962 ] final -123.89 input  175.53 | X-H torsion
[ 8008 7997 7996 7995 ] final   40.39 input   59.86 | X-H torsion
[ 10167 10162 10161 10158 ] final -135.09 input  -65.29 | X-H torsion
[ 10718 10713 10712 10709 ] final  -28.82 input   66.30 | X-H torsion
[ 10763 10752 10751 10750 ] final   14.23 input  -60.55 | X-H torsion
[ 11005 11000 10999 10996 ] final   93.03 input  -57.11 | X-H torsion

> <Gold.Protein.ActiveResidues>
 VAL166  LYS551  ARG553  GLY616  TRP617  ASP618  TYR619  PRO620  LYS621  CYS622 
 ASP623  PHE694  ASN695  SER759  ASP760  ASP761  ALA762  ILE779  LEU786  VAL792 
 PHE793  MET794  SER795  GLU796  ALA797  LYS798  CYS799  TRP800  GLU811  SER814 

> <Gold.Protein.RotatedAtoms>
  152.4249  134.5886  159.9967 H   0  0  0  0  0  0  0  0  0  0  0  0  # atno 6907 bound_to 6896
  151.6026  133.3349  159.3058 H   0  0  0  0  0  0  0  0  0  0  0  0  # atno 6908 bound_to 6896
  150.8138  134.7346  159.6777 H   0  0  0  0  0  0  0  0  0  0  0  0  # atno 6909 bound_to 6896
  145.0138  140.7929  143.4422 H   0  0  0  0  0  0  0  0  0  0  0  0  # atno 7974 bound_to 7965
  155.2524  140.3353  155.4281 H   0  0  0  0  0  0  0  0  0  0  0  0  # atno 8008 bound_to 7997
  156.2210  140.1809  156.7521 H   0  0  0  0  0  0  0  0  0  0  0  0  # atno 8009 bound_to 7997
  154.5825  140.0651  156.9109 H   0  0  0  0  0  0  0  0  0  0  0  0  # atno 8010 bound_to 7997
  139.8814  143.6834  152.2626 H   0  0  0  0  0  0  0  0  0  0  0  0  # atno 10167 bound_to 10162
  156.4204  130.4425  149.7188 H   0  0  0  0  0  0  0  0  0  0  0  0  # atno 10718 bound_to 10713
  153.1642  135.6801  153.8699 H   0  0  0  0  0  0  0  0  0  0  0  0  # atno 10763 bound_to 10752
  153.8084  135.3146  155.3399 H   0  0  0  0  0  0  0  0  0  0  0  0  # atno 10764 bound_to 10752
  154.7954  135.4810  154.0238 H   0  0  0  0  0  0  0  0  0  0  0  0  # atno 10765 bound_to 10752
  139.8815  134.8767  156.3659 H   0  0  0  0  0  0  0  0  0  0  0  0  # atno 11005 bound_to 11000
  145.1987  139.2263  143.5204 LP  0  0  0  0  0  0  0  0  0  0  0  0  # atno 17320 bound_to 7965
  146.3474  140.1799  142.8589 LP  0  0  0  0  0  0  0  0  0  0  0  0  # atno 17321 bound_to 7965
  139.7192  144.7606  151.0983 LP  0  0  0  0  0  0  0  0  0  0  0  0  # atno 17342 bound_to 10162
  140.7744  143.5229  150.9515 LP  0  0  0  0  0  0  0  0  0  0  0  0  # atno 17343 bound_to 10162
  156.4131  130.7732  151.2746 LP  0  0  0  0  0  0  0  0  0  0  0  0  # atno 17370 bound_to 10713
  157.7508  131.0205  150.3712 LP  0  0  0  0  0  0  0  0  0  0  0  0  # atno 17371 bound_to 10713
  140.9497  133.7459  156.0256 LP  0  0  0  0  0  0  0  0  0  0  0  0  # atno 17394 bound_to 11000
  140.8120  134.3388  157.5409 LP  0  0  0  0  0  0  0  0  0  0  0  0  # atno 17395 bound_to 11000

$$$$
