AV-unprocessed.smi:752|AV-procd|sdf|3597|dock2
  -GOLD-   22720 0593D 1   1.00000     0.00000
 Structure written by MMmdl.
 41 42  0  0  0  0  0  0  0  0  1 V2000
  152.2252  144.6296  160.9408 C   0  0  0  0  0  0  0  0  0  0  0  0
  152.7148  143.1826  160.8217 C   0  0  0  0  0  0  0  0  0  0  0  0
  152.1638  142.4880  159.6219 C   0  0  0  0  0  0  0  0  0  0  0  0
  152.3296  141.1842  159.3853 N   0  0  0  0  0  0  0  0  0  0  0  0
  151.7286  140.7712  158.1907 C   0  0  0  0  0  0  0  0  0  0  0  0
  151.7635  139.3233  157.7928 C   0  0  0  0  0  0  0  0  0  0  0  0
  151.9272  139.2252  156.2762 C   0  0  0  0  0  0  0  0  0  0  0  0
  152.9653  139.6140  155.7411 O   0  0  0  0  0  0  0  0  0  0  0  0
  150.8713  138.7480  155.5986 N   0  0  0  0  0  0  0  0  0  0  0  0
  150.7034  138.7819  154.1500 C   0  0  0  0  0  0  0  0  0  0  0  0
  149.4865  139.6430  153.7505 C   0  0  2  0  0  0  0  0  0  0  0  0
  149.4547  140.9598  154.5526 C   0  0  0  0  0  0  0  0  0  0  0  0
  148.2623  141.8441  154.1512 C   0  0  0  0  0  0  0  0  0  0  0  0
  146.9325  141.0897  154.3013 C   0  0  0  0  0  0  0  0  0  0  0  0
  146.9520  139.7798  153.4966 C   0  0  2  0  0  0  0  0  0  0  0  0
  145.7474  139.0751  153.7108 O   0  0  0  0  0  0  0  0  0  0  0  0
  148.1418  138.8952  153.9056 C   0  0  0  0  0  0  0  0  0  0  0  0
  151.1294  141.7992  157.5054 C   0  0  0  0  0  0  0  0  0  0  0  0
  151.2815  143.3176  158.3453 S   0  0  0  0  0  0  0  0  0  0  0  0
  152.6438  145.1099  161.8253 H   0  0  0  0  0  0  0  0  0  0  0  0
  151.1388  144.6718  161.0211 H   0  0  0  0  0  0  0  0  0  0  0  0
  152.5204  145.2171  160.0709 H   0  0  0  0  0  0  0  0  0  0  0  0
  153.8041  143.1599  160.7730 H   0  0  0  0  0  0  0  0  0  0  0  0
  152.4311  142.6200  161.7115 H   0  0  0  0  0  0  0  0  0  0  0  0
  152.5905  138.8071  158.2820 H   0  0  0  0  0  0  0  0  0  0  0  0
  150.8511  138.8092  158.0983 H   0  0  0  0  0  0  0  0  0  0  0  0
  150.0725  138.4444  156.1364 H   0  0  0  0  0  0  0  0  0  0  0  0
  151.6036  139.1445  153.6509 H   0  0  0  0  0  0  0  0  0  0  0  0
  150.5580  137.7563  153.8101 H   0  0  0  0  0  0  0  0  0  0  0  0
  149.6008  139.9022  152.6966 H   0  0  0  0  0  0  0  0  0  0  0  0
  149.3997  140.7397  155.6194 H   0  0  0  0  0  0  0  0  0  0  0  0
  150.3826  141.5120  154.3999 H   0  0  0  0  0  0  0  0  0  0  0  0
  148.2475  142.7470  154.7621 H   0  0  0  0  0  0  0  0  0  0  0  0
  148.3821  142.1723  153.1180 H   0  0  0  0  0  0  0  0  0  0  0  0
  146.7552  140.8747  155.3562 H   0  0  0  0  0  0  0  0  0  0  0  0
  146.1085  141.7228  153.9702 H   0  0  0  0  0  0  0  0  0  0  0  0
  147.0211  140.0087  152.4324 H   0  0  0  0  0  0  0  0  0  0  0  0
  145.0410  139.5602  153.3123 H   0  0  0  0  0  0  0  0  0  0  0  0
  148.1332  137.9929  153.2942 H   0  0  0  0  0  0  0  0  0  0  0  0
  148.0243  138.5682  154.9400 H   0  0  0  0  0  0  0  0  0  0  0  0
  150.5986  141.7520  156.5659 H   0  0  0  0  0  0  0  0  0  0  0  0
  1  2  1  0  0  0  0
  1 20  1  0  0  0  0
  1 21  1  0  0  0  0
  1 22  1  0  0  0  0
  2  3  1  0  0  0  0
  2 23  1  0  0  0  0
  2 24  1  0  0  0  0
  3 19  1  0  0  0  0
  3  4  2  0  0  0  0
  4  5  1  0  0  0  0
  5  6  1  0  0  0  0
  5 18  2  0  0  0  0
  6  7  1  0  0  0  0
  6 25  1  0  0  0  0
  6 26  1  0  0  0  0
  7  8  2  0  0  0  0
  7  9  1  0  0  0  0
  9 10  1  0  0  0  0
  9 27  1  0  0  0  0
 10 11  1  0  0  0  0
 10 28  1  0  0  0  0
 10 29  1  0  0  0  0
 11 17  1  0  0  0  0
 11 12  1  0  0  0  0
 11 30  1  0  0  0  0
 12 13  1  0  0  0  0
 12 31  1  0  0  0  0
 12 32  1  0  0  0  0
 13 14  1  0  0  0  0
 13 33  1  0  0  0  0
 13 34  1  0  0  0  0
 14 15  1  0  0  0  0
 14 35  1  0  0  0  0
 14 36  1  0  0  0  0
 15 16  1  0  0  0  0
 15 17  1  0  0  0  0
 15 37  1  0  0  0  0
 16 38  1  0  0  0  0
 17 39  1  0  0  0  0
 17 40  1  0  0  0  0
 18 19  1  0  0  0  0
 18 41  1  0  0  0  0
M  END
> <s_m_source_file>
AV-unprocessed.smi

> <i_m_source_file_index>
752

> <i_lp_mmshare_version>
43012

> <i_f3d_flags>
0

> <s_epik_input>
W0NIM11bQ0gyXWMxbmMoW2NIXXMxKVtDSDJdQyg9TylbTkhdW0NIMl1bQ0BASF0yW0NIMl1bQ0gyXVtDSDJdW0NAQEhdKFtPSF0pW0NIMl0y

> <s_epik_cmdline>
J2VwaWtfcHl0aG9uJywgJy1waCcsICc3LjAnLCAnLXRuJywgJzgnLCAnLW1hJywgJzIwMCcsICctbWV0YWxfYmluZGluZycsICctaW1hZScsICc8aW5maWxlLm1hZT4nLCAnLW9tYWUnLCAnPG91dGZpbGUubWFlPic=

> <r_lp_tautomer_probability>
1

> <r_epik_Ionization_Penalty>
5.44903e-05

> <r_epik_Ionization_Penalty_Charging>
0

> <r_epik_Ionization_Penalty_Neutral>
5.44903e-05

> <r_epik_State_Penalty>
-0

> <r_epik_Charging_Adjusted_Penalty>
0

> <i_epik_Tot_Q>
0

> <i_epik_Tot_abs_Q>
0

> <r_epik_Metal_State_Penalty>
-0

> <b_epik_Metal_Only>
0

> <s_lp_Force_Field>
OPLS_2005

> <r_lp_Energy>
2.70877

> <b_lp_Chiralities_Consistent>
1

> <s_lp_Variant>
AV-unprocessed.smi:752-3

> <Gold.Version>
5.8.1

> <Gold.Id.Protein>
6NUR|6NUR_protein|mol2

> <Gold.PLP.Fitness>
41.8563

> <Gold.PLP.PLP>
-37.0278

> <Gold.PLP.part.hbond>
-2.0000

> <Gold.PLP.part.metal>
0.0000

> <Gold.PLP.part.buried>
-1.4014

> <Gold.PLP.part.nonpolar>
-33.3393

> <Gold.PLP.part.repulsive>
0.0523

> <Gold.PLP.ligand.clash>
0.0000

> <Gold.PLP.ligand.torsion>
0.6056

> <Gold.PLP.Chemscore.Hbond>
2.0000

> <Gold.PLP.Chemscore.CHOScore>
0.0000

> <Gold.PLP.Chemscore.Metal>
0.0000

> <Gold.Chemscore.Hbonds>
donor molecule, donor type, donor heavy atom, donor atom, acceptor molecule, acceptor atom, score
      L1  H    16    38       P1 10175  1.00
      P1  H  7997  8008       L1     8  1.00

> <Gold.PLP.Chemscore.Internal.Correction>
0.0396

> <Gold.Rescore>
     Score         DG    S(hbond)    S(metal)    S(lipo)     H(rot)  DE(clash)    DE(int)     intcor
     18.46     -19.20       1.99        0.00     105.92       2.08       0.08       0.66       ----

> <Gold.Chemscore.Fitness>
18.4565

> <Gold.Chemscore.DG>
-19.1955

> <Gold.Chemscore.ZeroCoef>
-5.4800

> <Gold.Chemscore.Hbond>
1.9935

> <Gold.Chemscore.Metal>
0.0000

> <Gold.Chemscore.Lipo>
105.9171

> <Gold.Chemscore.Internal_Hbond>
0.0000

> <Gold.Chemscore.DEClash>
0.0818

> <Gold.Chemscore.DEInternal>
0.6572

> <Gold.Chemscore.Rot>
2.0840

> <Gold.Chemscore.Internal.Correction>
   9.000000E+99

> <Gold.Chemscore.Hbonds>
donor molecule, donor type, donor heavy atom, donor atom, acceptor molecule, acceptor atom, score
      L1  H    16    38       P1 10175  1.00
      P1  H  7997  8008       L1     8  0.97

> <Gold.Chemscore.Hbond.Weighted>
-6.6582

> <Gold.Chemscore.Metal.Weighted>
-0.0000

> <Gold.Chemscore.Lipo.Weighted>
-12.3923

> <Gold.Chemscore.Internal_Hbond.Weighted>
0.0000

> <Gold.Chemscore.DEClash.Weighted>
0.0818

> <Gold.Chemscore.DEInternal.Weighted>
0.6572

> <Gold.Chemscore.Rot.Weighted>
5.3350

> <Gold.Chemscore.Internal.Correction.Weighted>
   9.000000E+99

> <Gold.Protein.RotatedTorsions>
[ 6907 6896 6895 6894 ] final  -35.65 input  -60.11 | X-H torsion
[ 7974 7965 7964 7962 ] final  -73.62 input  175.53 | X-H torsion
[ 8008 7997 7996 7995 ] final  -42.67 input   59.86 | X-H torsion
[ 10167 10162 10161 10158 ] final  -55.80 input  -65.29 | X-H torsion
[ 10718 10713 10712 10709 ] final  128.42 input   66.30 | X-H torsion
[ 10763 10752 10751 10750 ] final  -34.42 input  -60.55 | X-H torsion
[ 11005 11000 10999 10996 ] final   42.18 input  -57.11 | X-H torsion

> <Gold.Protein.ActiveResidues>
 VAL166  LYS551  ARG553  GLY616  TRP617  ASP618  TYR619  PRO620  LYS621  CYS622 
 ASP623  PHE694  ASN695  SER759  ASP760  ASP761  ALA762  ILE779  LEU786  VAL792 
 PHE793  MET794  SER795  GLU796  ALA797  LYS798  CYS799  TRP800  GLU811  SER814 

> <Gold.Protein.RotatedAtoms>
  151.0372  134.9581  159.8141 H   0  0  0  0  0  0  0  0  0  0  0  0  # atno 6907 bound_to 6896
  152.5357  134.2705  159.8979 H   0  0  0  0  0  0  0  0  0  0  0  0  # atno 6908 bound_to 6896
  151.2716  133.4210  159.2655 H   0  0  0  0  0  0  0  0  0  0  0  0  # atno 6909 bound_to 6896
  145.6498  140.9286  143.0991 H   0  0  0  0  0  0  0  0  0  0  0  0  # atno 7974 bound_to 7965
  154.3998  140.1467  156.3394 H   0  0  0  0  0  0  0  0  0  0  0  0  # atno 8008 bound_to 7997
  155.8370  140.3463  155.5587 H   0  0  0  0  0  0  0  0  0  0  0  0  # atno 8009 bound_to 7997
  155.8127  140.0886  157.1885 H   0  0  0  0  0  0  0  0  0  0  0  0  # atno 8010 bound_to 7997
  140.6354  143.2479  151.5132 H   0  0  0  0  0  0  0  0  0  0  0  0  # atno 10167 bound_to 10162
  157.5246  131.1098  150.9103 H   0  0  0  0  0  0  0  0  0  0  0  0  # atno 10718 bound_to 10713
  153.8464  135.6853  153.4797 H   0  0  0  0  0  0  0  0  0  0  0  0  # atno 10763 bound_to 10752
  153.1423  135.4652  154.9512 H   0  0  0  0  0  0  0  0  0  0  0  0  # atno 10764 bound_to 10752
  154.7822  135.3272  154.7912 H   0  0  0  0  0  0  0  0  0  0  0  0  # atno 10765 bound_to 10752
  140.1764  134.4158  155.8226 H   0  0  0  0  0  0  0  0  0  0  0  0  # atno 11005 bound_to 11000
  144.7127  139.8311  143.7409 LP  0  0  0  0  0  0  0  0  0  0  0  0  # atno 17320 bound_to 7965
  146.1213  139.4232  143.0226 LP  0  0  0  0  0  0  0  0  0  0  0  0  # atno 17321 bound_to 7965
  139.5565  144.2263  152.1620 LP  0  0  0  0  0  0  0  0  0  0  0  0  # atno 17342 bound_to 10162
  140.1518  144.5107  150.6683 LP  0  0  0  0  0  0  0  0  0  0  0  0  # atno 17343 bound_to 10162
  156.9703  130.5488  149.5290 LP  0  0  0  0  0  0  0  0  0  0  0  0  # atno 17370 bound_to 10713
  156.0377  130.5463  150.8695 LP  0  0  0  0  0  0  0  0  0  0  0  0  # atno 17371 bound_to 10713
  141.2220  133.6980  156.7854 LP  0  0  0  0  0  0  0  0  0  0  0  0  # atno 17394 bound_to 11000
  140.2318  134.8680  157.3484 LP  0  0  0  0  0  0  0  0  0  0  0  0  # atno 17395 bound_to 11000

$$$$
