AV-unprocessed.smi:1737|AV-procd|sdf|6996|dock5
  -GOLD-   22720 8213D 1   1.00000     0.00000
 Structure written by MMmdl.
 43 44  0  0  0  0  0  0  0  0  2 V2000
  147.9068  133.2270  152.5562 C   0  0  0  0  0  0  0  0  0  0  0  0
  146.5760  133.2386  151.8213 C   0  0  0  0  0  0  0  0  0  0  0  0
  146.0487  132.0254  151.3296 C   0  0  0  0  0  0  0  0  0  0  0  0
  144.8187  132.0380  150.6499 C   0  0  0  0  0  0  0  0  0  0  0  0
  144.1637  133.2711  150.4893 C   0  0  0  0  0  0  0  0  0  0  0  0
  144.6603  134.4347  150.9564 N   0  0  0  0  0  0  0  0  0  0  0  0
  145.8471  134.4404  151.6136 C   0  0  0  0  0  0  0  0  0  0  0  0
  146.4286  135.6301  152.1360 N   0  0  0  0  0  0  0  0  0  0  0  0
  145.8368  136.6092  152.8427 C   0  0  0  0  0  0  0  0  0  0  0  0
  144.6419  136.6578  153.1339 O   0  0  0  0  0  0  0  0  0  0  0  0
  146.7226  137.5489  153.2034 N   0  0  0  0  0  0  0  0  0  0  0  0
  146.4156  138.7516  153.9767 C   0  0  0  0  0  0  0  0  0  0  0  0
  147.3844  139.9322  153.6969 C   0  0  1  0  0  0  0  0  0  0  0  0
  146.6300  141.2745  153.8173 C   0  0  0  0  0  0  0  0  0  0  0  0
  148.6146  139.8808  154.5523 N   0  3  0  0  0  0  0  0  0  0  0  0
  149.6591  138.9662  154.0156 C   0  0  0  0  0  0  0  0  0  0  0  0
  150.8771  138.9049  154.9514 C   0  0  0  0  0  0  0  0  0  0  0  0
  151.4048  140.2105  155.1308 O   0  0  0  0  0  0  0  0  0  0  0  0
  150.4581  141.0733  155.7430 C   0  0  0  0  0  0  0  0  0  0  0  0
  149.2172  141.2106  154.8445 C   0  0  0  0  0  0  0  0  0  0  0  0
  148.3198  132.2193  152.6151 H   0  0  0  0  0  0  0  0  0  0  0  0
  147.7846  133.5989  153.5740 H   0  0  0  0  0  0  0  0  0  0  0  0
  148.6328  133.8563  152.0404 H   0  0  0  0  0  0  0  0  0  0  0  0
  146.5777  131.0942  151.4702 H   0  0  0  0  0  0  0  0  0  0  0  0
  144.3882  131.1267  150.2618 H   0  0  0  0  0  0  0  0  0  0  0  0
  143.2166  133.3255  149.9734 H   0  0  0  0  0  0  0  0  0  0  0  0
  147.4153  135.7405  151.9560 H   0  0  0  0  0  0  0  0  0  0  0  0
  147.6801  137.4338  152.9052 H   0  0  0  0  0  0  0  0  0  0  0  0
  145.3956  139.0437  153.7281 H   0  0  0  0  0  0  0  0  0  0  0  0
  146.3835  138.5234  155.0435 H   0  0  0  0  0  0  0  0  0  0  0  0
  147.7032  139.8495  152.6564 H   0  0  0  0  0  0  0  0  0  0  0  0
  145.6727  141.2364  153.2967 H   0  0  0  0  0  0  0  0  0  0  0  0
  147.1868  142.0964  153.3676 H   0  0  0  0  0  0  0  0  0  0  0  0
  146.4284  141.5323  154.8572 H   0  0  0  0  0  0  0  0  0  0  0  0
  149.2711  137.9555  153.8988 H   0  0  0  0  0  0  0  0  0  0  0  0
  149.9683  139.3058  153.0258 H   0  0  0  0  0  0  0  0  0  0  0  0
  150.6081  138.4680  155.9146 H   0  0  0  0  0  0  0  0  0  0  0  0
  151.6504  138.2695  154.5191 H   0  0  0  0  0  0  0  0  0  0  0  0
  150.1849  140.6939  156.7292 H   0  0  0  0  0  0  0  0  0  0  0  0
  150.9195  142.0491  155.8958 H   0  0  0  0  0  0  0  0  0  0  0  0
  149.4837  141.7048  153.9090 H   0  0  0  0  0  0  0  0  0  0  0  0
  148.5087  141.8557  155.3624 H   0  0  0  0  0  0  0  0  0  0  0  0
  148.3247  139.5021  155.4427 H   0  0  0  0  0  0  0  0  0  0  0  0
  1  2  1  0  0  0  0
  1 21  1  0  0  0  0
  1 22  1  0  0  0  0
  1 23  1  0  0  0  0
  2  7  1  0  0  0  0
  2  3  2  0  0  0  0
  3  4  1  0  0  0  0
  3 24  1  0  0  0  0
  4  5  2  0  0  0  0
  4 25  1  0  0  0  0
  5  6  1  0  0  0  0
  5 26  1  0  0  0  0
  6  7  2  0  0  0  0
  7  8  1  0  0  0  0
  8  9  1  0  0  0  0
  8 27  1  0  0  0  0
  9 10  2  0  0  0  0
  9 11  1  0  0  0  0
 11 12  1  0  0  0  0
 11 28  1  0  0  0  0
 12 13  1  0  0  0  0
 12 29  1  0  0  0  0
 12 30  1  0  0  0  0
 13 14  1  0  0  0  0
 13 15  1  0  0  0  0
 13 31  1  0  0  0  0
 14 32  1  0  0  0  0
 14 33  1  0  0  0  0
 14 34  1  0  0  0  0
 15 20  1  0  0  0  0
 15 16  1  0  0  0  0
 15 43  1  0  0  0  0
 16 17  1  0  0  0  0
 16 35  1  0  0  0  0
 16 36  1  0  0  0  0
 17 18  1  0  0  0  0
 17 37  1  0  0  0  0
 17 38  1  0  0  0  0
 18 19  1  0  0  0  0
 19 20  1  0  0  0  0
 19 39  1  0  0  0  0
 19 40  1  0  0  0  0
 20 41  1  0  0  0  0
 20 42  1  0  0  0  0
M  CHG  1  15   1
M  END
> <s_m_source_file>
AV-unprocessed.smi

> <i_m_source_file_index>
1737

> <i_lp_mmshare_version>
43012

> <i_f3d_flags>
0

> <s_epik_input>
W0NIM11jMVtjSF1bY0hdW2NIXW5jMVtOSF1DKD1PKVtOSF1bQ0gyXVtDQEhdKFtDSDNdKU4yW0NIMl1bQ0gyXU9bQ0gyXVtDSDJdMg==

> <s_epik_cmdline>
J2VwaWtfcHl0aG9uJywgJy1waCcsICc3LjAnLCAnLXRuJywgJzgnLCAnLW1hJywgJzIwMCcsICctbWV0YWxfYmluZGluZycsICctaW1hZScsICc8aW5maWxlLm1hZT4nLCAnLW9tYWUnLCAnPG91dGZpbGUubWFlPic=

> <r_epik_Ionization_Penalty>
0.602573

> <r_epik_Ionization_Penalty_Charging>
0.602531

> <r_epik_Ionization_Penalty_Neutral>
4.25912e-05

> <r_epik_State_Penalty>
0.617039

> <r_epik_Charging_Adjusted_Penalty>
1.21957

> <i_epik_Tot_Q>
1

> <i_epik_Tot_abs_Q>
1

> <r_epik_Metal_State_Penalty>
0.617042

> <b_epik_Metal_Only>
0

> <s_lp_Force_Field>
OPLS_2005

> <r_lp_Energy>
29.9094

> <b_lp_Chiralities_Consistent>
1

> <s_lp_Variant>
AV-unprocessed.smi:1737-4

> <Gold.Version>
5.8.1

> <Gold.Id.Protein>
6NUR|6NUR_protein|mol2

> <Gold.PLP.Fitness>
45.2889

> <Gold.PLP.PLP>
-36.8237

> <Gold.PLP.part.hbond>
-2.9964

> <Gold.PLP.part.metal>
0.0000

> <Gold.PLP.part.buried>
-3.8789

> <Gold.PLP.part.nonpolar>
-29.9074

> <Gold.PLP.part.repulsive>
0.5606

> <Gold.PLP.ligand.clash>
0.0000

> <Gold.PLP.ligand.torsion>
1.6120

> <Gold.PLP.Chemscore.Hbond>
2.8800

> <Gold.PLP.Chemscore.CHOScore>
1.0000

> <Gold.PLP.Chemscore.Metal>
0.0000

> <Gold.Chemscore.Hbonds>
donor molecule, donor type, donor heavy atom, donor atom, acceptor molecule, acceptor atom, score
      L1  H     8    27       P1  7948  1.00
      L1  H    11    28       P1  7948  0.89
      P1  H  7989  7998       L1    18  1.00
      L1  C     5    26       P1 10186  1.00

> <Gold.PLP.Chemscore.Internal.Correction>
0.0493

> <Gold.Rescore>
     Score         DG    S(hbond)    S(metal)    S(lipo)     H(rot)  DE(clash)    DE(int)     intcor
     16.92     -18.43       1.96        0.00      87.90       1.51       0.07       1.43       ----

> <Gold.Chemscore.Fitness>
16.9237

> <Gold.Chemscore.DG>
-18.4292

> <Gold.Chemscore.ZeroCoef>
-5.4800

> <Gold.Chemscore.Hbond>
1.9575

> <Gold.Chemscore.Metal>
0.0000

> <Gold.Chemscore.Lipo>
87.8967

> <Gold.Chemscore.Internal_Hbond>
0.0000

> <Gold.Chemscore.DEClash>
0.0746

> <Gold.Chemscore.DEInternal>
1.4309

> <Gold.Chemscore.Rot>
1.5128

> <Gold.Chemscore.Internal.Correction>
   9.000000E+99

> <Gold.Chemscore.Hbonds>
donor molecule, donor type, donor heavy atom, donor atom, acceptor molecule, acceptor atom, score
      L1  H     8    27       P1  7948  0.98
      L1  H    11    28       P1  7948  0.80
      P1  H  7989  7998       L1    18  0.27

> <Gold.Chemscore.Hbond.Weighted>
-6.5380

> <Gold.Chemscore.Metal.Weighted>
-0.0000

> <Gold.Chemscore.Lipo.Weighted>
-10.2839

> <Gold.Chemscore.Internal_Hbond.Weighted>
0.0000

> <Gold.Chemscore.DEClash.Weighted>
0.0746

> <Gold.Chemscore.DEInternal.Weighted>
1.4309

> <Gold.Chemscore.Rot.Weighted>
3.8726

> <Gold.Chemscore.Internal.Correction.Weighted>
   9.000000E+99

> <Gold.Protein.RotatedTorsions>
[ 6907 6896 6895 6894 ] final  111.72 input  -60.11 | X-H torsion
[ 7974 7965 7964 7962 ] final  133.41 input  175.53 | X-H torsion
[ 8008 7997 7996 7995 ] final   28.61 input   59.86 | X-H torsion
[ 10167 10162 10161 10158 ] final  -19.86 input  -65.29 | X-H torsion
[ 10718 10713 10712 10709 ] final  163.72 input   66.30 | X-H torsion
[ 10763 10752 10751 10750 ] final  176.43 input  -60.55 | X-H torsion
[ 11005 11000 10999 10996 ] final  175.71 input  -57.11 | X-H torsion

> <Gold.Protein.ActiveResidues>
 VAL166  LYS551  ARG553  GLY616  TRP617  ASP618  TYR619  PRO620  LYS621  CYS622 
 ASP623  PHE694  ASN695  SER759  ASP760  ASP761  ALA762  ILE779  LEU786  VAL792 
 PHE793  MET794  SER795  GLU796  ALA797  LYS798  CYS799  TRP800  GLU811  SER814 

> <Gold.Protein.RotatedAtoms>
  152.4954  133.8617  159.7253 H   0  0  0  0  0  0  0  0  0  0  0  0  # atno 6907 bound_to 6896
  150.9127  133.6968  159.2857 H   0  0  0  0  0  0  0  0  0  0  0  0  # atno 6908 bound_to 6896
  151.4372  135.1020  159.9712 H   0  0  0  0  0  0  0  0  0  0  0  0  # atno 6909 bound_to 6896
  144.9868  139.4447  143.5359 H   0  0  0  0  0  0  0  0  0  0  0  0  # atno 7974 bound_to 7965
  155.0613  140.3190  155.4659 H   0  0  0  0  0  0  0  0  0  0  0  0  # atno 8008 bound_to 7997
  156.2812  140.2128  156.5685 H   0  0  0  0  0  0  0  0  0  0  0  0  # atno 8009 bound_to 7997
  154.7130  140.0496  157.0555 H   0  0  0  0  0  0  0  0  0  0  0  0  # atno 8010 bound_to 7997
  140.7272  143.4778  151.0159 H   0  0  0  0  0  0  0  0  0  0  0  0  # atno 10167 bound_to 10162
  157.1044  131.0451  151.2484 H   0  0  0  0  0  0  0  0  0  0  0  0  # atno 10718 bound_to 10713
  154.4810  135.2775  155.1571 H   0  0  0  0  0  0  0  0  0  0  0  0  # atno 10763 bound_to 10752
  154.3281  135.6196  153.5542 H   0  0  0  0  0  0  0  0  0  0  0  0  # atno 10764 bound_to 10752
  152.9875  135.5759  154.5210 H   0  0  0  0  0  0  0  0  0  0  0  0  # atno 10765 bound_to 10752
  140.3652  134.7078  157.4357 H   0  0  0  0  0  0  0  0  0  0  0  0  # atno 11005 bound_to 11000
  146.3422  139.9175  142.8771 LP  0  0  0  0  0  0  0  0  0  0  0  0  # atno 17320 bound_to 7965
  145.2342  140.9984  143.3973 LP  0  0  0  0  0  0  0  0  0  0  0  0  # atno 17321 bound_to 7965
  139.8474  143.7483  152.3179 LP  0  0  0  0  0  0  0  0  0  0  0  0  # atno 17342 bound_to 10162
  139.7653  144.7494  151.0303 LP  0  0  0  0  0  0  0  0  0  0  0  0  # atno 17343 bound_to 10162
  157.4613  130.7655  149.7238 LP  0  0  0  0  0  0  0  0  0  0  0  0  # atno 17370 bound_to 10713
  155.9865  130.3974  150.3207 LP  0  0  0  0  0  0  0  0  0  0  0  0  # atno 17371 bound_to 10713
  140.0595  134.6016  155.8765 LP  0  0  0  0  0  0  0  0  0  0  0  0  # atno 17394 bound_to 11000
  141.1972  133.6595  156.5729 LP  0  0  0  0  0  0  0  0  0  0  0  0  # atno 17395 bound_to 11000

$$$$
