AV-unprocessed.smi:2837|AV-procd|sdf|10924|dock1
  -GOLD-   2272015373D 1   1.00000     0.00000
 Structure written by MMmdl.
 33 35  0  0  0  0  0  0  0  0  2 V2000
  153.3669  142.2822  162.3634 F   0  0  0  0  0  0  0  0  0  0  0  0
  152.4734  142.6398  161.4102 C   0  0  0  0  0  0  0  0  0  0  0  0
  152.1980  143.9561  161.5824 F   0  0  0  0  0  0  0  0  0  0  0  0
  153.0059  142.4232  160.1781 O   0  0  0  0  0  0  0  0  0  0  0  0
  152.1774  142.3859  159.0792 C   0  0  0  0  0  0  0  0  0  0  0  0
  152.0846  141.1800  158.3534 C   0  0  0  0  0  0  0  0  0  0  0  0
  151.2594  141.1066  157.2124 C   0  0  0  0  0  0  0  0  0  0  0  0
  150.5364  142.2521  156.8031 C   0  0  0  0  0  0  0  0  0  0  0  0
  149.6895  142.3000  155.6872 N   0  0  0  0  0  0  0  0  0  0  0  0
  149.4851  141.1329  154.8384 C   0  0  2  0  0  0  0  0  0  0  0  0
  148.3946  141.3399  153.7782 C   0  0  0  0  0  0  0  0  0  0  0  0
  147.4377  140.1788  154.0755 C   0  0  1  0  0  0  0  0  0  0  0  0
  148.0488  138.8158  153.7232 C   0  0  0  0  0  0  0  0  0  0  0  0
  149.0726  138.6335  154.8433 C   0  0  0  0  0  0  0  0  0  0  0  0
  148.9173  139.9422  155.6297 C   0  0  2  0  0  0  0  0  0  0  0  0
  147.5209  140.1481  155.4889 O   0  0  0  0  0  0  0  0  0  0  0  0
  150.6581  143.3910  157.5197 N   0  3  0  0  0  0  0  0  0  0  0  0
  151.4374  143.5014  158.6177 C   0  0  0  0  0  0  0  0  0  0  0  0
  151.5674  142.0536  161.5665 H   0  0  0  0  0  0  0  0  0  0  0  0
  152.6439  140.3125  158.6718 H   0  0  0  0  0  0  0  0  0  0  0  0
  151.1964  140.1755  156.6698 H   0  0  0  0  0  0  0  0  0  0  0  0
  149.3052  143.1846  155.3868 H   0  0  0  0  0  0  0  0  0  0  0  0
  150.4372  140.8502  154.3876 H   0  0  0  0  0  0  0  0  0  0  0  0
  147.8783  142.2921  153.9100 H   0  0  0  0  0  0  0  0  0  0  0  0
  148.7848  141.3056  152.7605 H   0  0  0  0  0  0  0  0  0  0  0  0
  146.4292  140.3264  153.6883 H   0  0  0  0  0  0  0  0  0  0  0  0
  147.2952  138.0284  153.7631 H   0  0  0  0  0  0  0  0  0  0  0  0
  148.4995  138.8083  152.7302 H   0  0  0  0  0  0  0  0  0  0  0  0
  148.8086  137.7769  155.4645 H   0  0  0  0  0  0  0  0  0  0  0  0
  150.0871  138.4851  154.4720 H   0  0  0  0  0  0  0  0  0  0  0  0
  149.2657  139.8743  156.6610 H   0  0  0  0  0  0  0  0  0  0  0  0
  151.4446  144.4778  159.0801 H   0  0  0  0  0  0  0  0  0  0  0  0
  150.1376  144.2140  157.2148 H   0  0  0  0  0  0  0  0  0  0  0  0
  1  2  1  0  0  0  0
  2  3  1  0  0  0  0
  2  4  1  0  0  0  0
  2 19  1  0  0  0  0
  4  5  1  0  0  0  0
  5 18  1  0  0  0  0
  5  6  2  0  0  0  0
  6  7  1  0  0  0  0
  6 20  1  0  0  0  0
  7  8  2  0  0  0  0
  7 21  1  0  0  0  0
  8  9  1  0  0  0  0
  8 17  1  0  0  0  0
  9 10  1  0  0  0  0
  9 22  1  0  0  0  0
 10 15  1  0  0  0  0
 10 11  1  0  0  0  0
 10 23  1  0  0  0  0
 11 12  1  0  0  0  0
 11 24  1  0  0  0  0
 11 25  1  0  0  0  0
 12 16  1  0  0  0  0
 12 13  1  0  0  0  0
 12 26  1  0  0  0  0
 13 14  1  0  0  0  0
 13 27  1  0  0  0  0
 13 28  1  0  0  0  0
 14 15  1  0  0  0  0
 14 29  1  0  0  0  0
 14 30  1  0  0  0  0
 15 16  1  0  0  0  0
 15 31  1  0  0  0  0
 17 18  2  0  0  0  0
 17 33  1  0  0  0  0
 18 32  1  0  0  0  0
M  CHG  1  17   1
M  END
> <s_m_source_file>
AV-unprocessed.smi

> <i_m_source_file_index>
2837

> <i_lp_mmshare_version>
43012

> <i_f3d_flags>
0

> <s_epik_input>
RltDSF0oRilPYzFbY0hdW2NIXWMobltjSF0xKVtOSF1bQ0BIXShbQ0gyXVtDQEBIXTIzKVtDQEBIXShPMylbQ0gyXVtDSDJdMg==

> <s_epik_cmdline>
J2VwaWtfcHl0aG9uJywgJy1waCcsICc3LjAnLCAnLXRuJywgJzgnLCAnLW1hJywgJzIwMCcsICctbWV0YWxfYmluZGluZycsICctaW1hZScsICc8aW5maWxlLm1hZT4nLCAnLW9tYWUnLCAnPG91dGZpbGUubWFlPic=

> <r_lp_tautomer_probability>
0.999429

> <r_epik_Ionization_Penalty>
2.29716

> <r_epik_Ionization_Penalty_Charging>
2.29716

> <r_epik_Ionization_Penalty_Neutral>
1.42285e-06

> <r_epik_State_Penalty>
2.44762

> <r_epik_Charging_Adjusted_Penalty>
4.74478

> <i_epik_Tot_Q>
1

> <i_epik_Tot_abs_Q>
1

> <r_epik_Metal_State_Penalty>
6.53078

> <b_epik_Metal_Only>
0

> <s_lp_Force_Field>
OPLS_2005

> <r_lp_Energy>
46.2914

> <b_lp_Chiralities_Consistent>
1

> <s_lp_Variant>
AV-unprocessed.smi:2837-5

> <Gold.Version>
5.8.1

> <Gold.Id.Protein>
6NUR|6NUR_protein|mol2

> <Gold.PLP.Fitness>
47.7927

> <Gold.PLP.PLP>
-37.4342

> <Gold.PLP.part.hbond>
-2.0000

> <Gold.PLP.part.metal>
0.0000

> <Gold.PLP.part.buried>
-3.8537

> <Gold.PLP.part.nonpolar>
-31.6276

> <Gold.PLP.part.repulsive>
0.1759

> <Gold.PLP.ligand.clash>
0.0000

> <Gold.PLP.ligand.torsion>
0.1890

> <Gold.PLP.Chemscore.Hbond>
3.5680

> <Gold.PLP.Chemscore.CHOScore>
0.0000

> <Gold.PLP.Chemscore.Metal>
0.0000

> <Gold.Chemscore.Hbonds>
donor molecule, donor type, donor heavy atom, donor atom, acceptor molecule, acceptor atom, score
      L1  H     9    22       P1  8028  2.00
      L1  H    17    33       P1  8028  1.52

> <Gold.PLP.Chemscore.Internal.Correction>
0.0324

> <Gold.Rescore>
     Score         DG    S(hbond)    S(metal)    S(lipo)     H(rot)  DE(clash)    DE(int)     intcor
     16.62     -16.98       1.64        0.00      80.65       1.34       0.11       0.25       ----

> <Gold.Chemscore.Fitness>
16.6245

> <Gold.Chemscore.DG>
-16.9816

> <Gold.Chemscore.ZeroCoef>
-5.4800

> <Gold.Chemscore.Hbond>
1.6429

> <Gold.Chemscore.Metal>
0.0000

> <Gold.Chemscore.Lipo>
80.6549

> <Gold.Chemscore.Internal_Hbond>
0.0000

> <Gold.Chemscore.DEClash>
0.1086

> <Gold.Chemscore.DEInternal>
0.2486

> <Gold.Chemscore.Rot>
1.3368

> <Gold.Chemscore.Internal.Correction>
   9.000000E+99

> <Gold.Chemscore.Hbonds>
donor molecule, donor type, donor heavy atom, donor atom, acceptor molecule, acceptor atom, score
      L1  H     9    22       P1  8028  0.96
      L1  H    17    33       P1  8028  0.53

> <Gold.Chemscore.Hbond.Weighted>
-5.4873

> <Gold.Chemscore.Metal.Weighted>
-0.0000

> <Gold.Chemscore.Lipo.Weighted>
-9.4366

> <Gold.Chemscore.Internal_Hbond.Weighted>
0.0000

> <Gold.Chemscore.DEClash.Weighted>
0.1086

> <Gold.Chemscore.DEInternal.Weighted>
0.2486

> <Gold.Chemscore.Rot.Weighted>
3.4223

> <Gold.Chemscore.Internal.Correction.Weighted>
   9.000000E+99

> <Gold.Protein.RotatedTorsions>
[ 6907 6896 6895 6894 ] final  132.34 input  -60.11 | X-H torsion
[ 7974 7965 7964 7962 ] final  132.81 input  175.53 | X-H torsion
[ 8008 7997 7996 7995 ] final  135.57 input   59.86 | X-H torsion
[ 10167 10162 10161 10158 ] final    4.60 input  -65.29 | X-H torsion
[ 10718 10713 10712 10709 ] final  -63.81 input   66.30 | X-H torsion
[ 10763 10752 10751 10750 ] final   51.18 input  -60.55 | X-H torsion
[ 11005 11000 10999 10996 ] final   39.82 input  -57.11 | X-H torsion

> <Gold.Protein.ActiveResidues>
 VAL166  LYS551  ARG553  GLY616  TRP617  ASP618  TYR619  PRO620  LYS621  CYS622 
 ASP623  PHE694  ASN695  SER759  ASP760  ASP761  ALA762  ILE779  LEU786  VAL792 
 PHE793  MET794  SER795  GLU796  ALA797  LYS798  CYS799  TRP800  GLU811  SER814 

> <Gold.Protein.RotatedAtoms>
  152.3334  133.5984  159.5825 H   0  0  0  0  0  0  0  0  0  0  0  0  # atno 6907 bound_to 6896
  150.7436  133.9833  159.3592 H   0  0  0  0  0  0  0  0  0  0  0  0  # atno 6908 bound_to 6896
  151.7705  135.0788  160.0410 H   0  0  0  0  0  0  0  0  0  0  0  0  # atno 6909 bound_to 6896
  144.9930  139.4387  143.5330 H   0  0  0  0  0  0  0  0  0  0  0  0  # atno 7974 bound_to 7965
  156.3003  140.2467  156.3603 H   0  0  0  0  0  0  0  0  0  0  0  0  # atno 8008 bound_to 7997
  154.8883  140.0410  157.1843 H   0  0  0  0  0  0  0  0  0  0  0  0  # atno 8009 bound_to 7997
  154.8624  140.2922  155.5535 H   0  0  0  0  0  0  0  0  0  0  0  0  # atno 8010 bound_to 7997
  140.6526  143.7506  150.7600 H   0  0  0  0  0  0  0  0  0  0  0  0  # atno 10167 bound_to 10162
  156.0768  130.4225  150.1330 H   0  0  0  0  0  0  0  0  0  0  0  0  # atno 10718 bound_to 10713
  152.9785  135.5854  154.4373 H   0  0  0  0  0  0  0  0  0  0  0  0  # atno 10763 bound_to 10752
  154.3978  135.2768  155.2117 H   0  0  0  0  0  0  0  0  0  0  0  0  # atno 10764 bound_to 10752
  154.3961  135.6114  153.5925 H   0  0  0  0  0  0  0  0  0  0  0  0  # atno 10765 bound_to 10752
  140.1990  134.3893  155.8106 H   0  0  0  0  0  0  0  0  0  0  0  0  # atno 11005 bound_to 11000
  146.3435  139.9273  142.8758 LP  0  0  0  0  0  0  0  0  0  0  0  0  # atno 17320 bound_to 7965
  145.2259  140.9953  143.4019 LP  0  0  0  0  0  0  0  0  0  0  0  0  # atno 17321 bound_to 7965
  140.1160  143.4655  152.2342 LP  0  0  0  0  0  0  0  0  0  0  0  0  # atno 17342 bound_to 10162
  139.5744  144.7479  151.3805 LP  0  0  0  0  0  0  0  0  0  0  0  0  # atno 17343 bound_to 10162
  156.9370  130.9732  151.3523 LP  0  0  0  0  0  0  0  0  0  0  0  0  # atno 17370 bound_to 10713
  157.5867  130.8414  149.8599 LP  0  0  0  0  0  0  0  0  0  0  0  0  # atno 17371 bound_to 10713
  141.2227  133.7084  156.8226 LP  0  0  0  0  0  0  0  0  0  0  0  0  # atno 17394 bound_to 11000
  140.2075  134.8852  157.3238 LP  0  0  0  0  0  0  0  0  0  0  0  0  # atno 17395 bound_to 11000

$$$$
