AV-unprocessed.smi:2935|AV-procd|sdf|11256|dock2
  -GOLD-   2272016153D 1   1.00000     0.00000
 Structure written by MMmdl.
 36 37  0  0  0  0  0  0  0  0  1 V2000
  152.8483  142.4694  159.6443 C   0  0  0  0  0  0  0  0  0  0  0  0
  151.7462  143.0946  158.7624 C   0  0  0  0  0  0  0  0  0  0  0  0
  151.3333  142.0662  157.6847 C   0  0  0  0  0  0  0  0  0  0  0  0
  151.9165  140.9820  157.6324 O   0  0  0  0  0  0  0  0  0  0  0  0
  150.3218  142.4112  156.8642 N   0  0  0  0  0  0  0  0  0  0  0  0
  149.7656  141.6549  155.8015 C   0  0  0  0  0  0  0  0  0  0  0  0
  150.5293  140.6458  155.1530 C   0  0  0  0  0  0  0  0  0  0  0  0
  149.6695  140.1579  154.2103 C   0  0  0  0  0  0  0  0  0  0  0  0
  148.4846  140.8578  154.3266 N   0  0  0  0  0  0  0  0  0  0  0  0
  147.2701  140.7103  153.5447 C   0  0  0  0  0  0  0  0  0  0  0  0
  147.0340  139.2495  153.1571 C   0  0  0  0  0  0  0  0  0  0  0  0
  147.8567  138.7189  152.2483 N   0  0  0  0  0  0  0  0  0  0  0  0
  146.1184  138.6095  153.6691 O   0  0  0  0  0  0  0  0  0  0  0  0
  148.5410  141.7827  155.3099 N   0  0  0  0  0  0  0  0  0  0  0  0
  150.5609  143.5954  159.6172 C   0  0  0  0  0  0  0  0  0  0  0  0
  150.9737  144.9734  160.1384 C   0  0  0  0  0  0  0  0  0  0  0  0
  151.9538  145.5384  159.1053 C   0  0  0  0  0  0  0  0  0  0  0  0
  152.2519  144.4031  158.1158 C   0  0  0  0  0  0  0  0  0  0  0  0
  153.2110  143.1720  160.3949 H   0  0  0  0  0  0  0  0  0  0  0  0
  153.7092  142.1605  159.0500 H   0  0  0  0  0  0  0  0  0  0  0  0
  152.4813  141.5889  160.1733 H   0  0  0  0  0  0  0  0  0  0  0  0
  149.9085  143.3191  157.0187 H   0  0  0  0  0  0  0  0  0  0  0  0
  151.5441  140.3308  155.3452 H   0  0  0  0  0  0  0  0  0  0  0  0
  149.7997  139.3804  153.4718 H   0  0  0  0  0  0  0  0  0  0  0  0
  146.4294  141.0810  154.1325 H   0  0  0  0  0  0  0  0  0  0  0  0
  147.3328  141.3299  152.6486 H   0  0  0  0  0  0  0  0  0  0  0  0
  147.7313  137.7602  151.9564 H   0  0  0  0  0  0  0  0  0  0  0  0
  148.5949  139.2809  151.8502 H   0  0  0  0  0  0  0  0  0  0  0  0
  149.6649  143.7151  159.0051 H   0  0  0  0  0  0  0  0  0  0  0  0
  150.3092  142.9153  160.4320 H   0  0  0  0  0  0  0  0  0  0  0  0
  150.1133  145.6255  160.2911 H   0  0  0  0  0  0  0  0  0  0  0  0
  151.4767  144.8689  161.1004 H   0  0  0  0  0  0  0  0  0  0  0  0
  151.5322  146.4002  158.5869 H   0  0  0  0  0  0  0  0  0  0  0  0
  152.8675  145.8718  159.5987 H   0  0  0  0  0  0  0  0  0  0  0  0
  153.3125  144.3604  157.8637 H   0  0  0  0  0  0  0  0  0  0  0  0
  151.7163  144.6055  157.1864 H   0  0  0  0  0  0  0  0  0  0  0  0
  1  2  1  0  0  0  0
  1 19  1  0  0  0  0
  1 20  1  0  0  0  0
  1 21  1  0  0  0  0
  2 18  1  0  0  0  0
  2  3  1  0  0  0  0
  2 15  1  0  0  0  0
  3  4  2  0  0  0  0
  3  5  1  0  0  0  0
  5  6  1  0  0  0  0
  5 22  1  0  0  0  0
  6 14  2  0  0  0  0
  6  7  1  0  0  0  0
  7  8  2  0  0  0  0
  7 23  1  0  0  0  0
  8  9  1  0  0  0  0
  8 24  1  0  0  0  0
  9 10  1  0  0  0  0
  9 14  1  0  0  0  0
 10 11  1  0  0  0  0
 10 25  1  0  0  0  0
 10 26  1  0  0  0  0
 11 12  1  0  0  0  0
 11 13  2  0  0  0  0
 12 27  1  0  0  0  0
 12 28  1  0  0  0  0
 15 16  1  0  0  0  0
 15 29  1  0  0  0  0
 15 30  1  0  0  0  0
 16 17  1  0  0  0  0
 16 31  1  0  0  0  0
 16 32  1  0  0  0  0
 17 18  1  0  0  0  0
 17 33  1  0  0  0  0
 17 34  1  0  0  0  0
 18 35  1  0  0  0  0
 18 36  1  0  0  0  0
M  END
> <s_m_source_file>
AV-unprocessed.smi

> <i_m_source_file_index>
2935

> <i_lp_mmshare_version>
43012

> <i_f3d_flags>
0

> <s_epik_input>
W0NIMl0xW0NIMl1bQ0gyXVtDSDJdQzEoW0NIM10pQyg9TylbTkhdYzJbY0hdW2NIXW4objIpW0NIMl1DKD1PKVtOSDJd

> <s_epik_cmdline>
J2VwaWtfcHl0aG9uJywgJy1waCcsICc3LjAnLCAnLXRuJywgJzgnLCAnLW1hJywgJzIwMCcsICctbWV0YWxfYmluZGluZycsICctaW1hZScsICc8aW5maWxlLm1hZT4nLCAnLW9tYWUnLCAnPG91dGZpbGUubWFlPic=

> <r_lp_tautomer_probability>
1

> <r_epik_Ionization_Penalty>
1.6611e-05

> <r_epik_Ionization_Penalty_Charging>
0

> <r_epik_Ionization_Penalty_Neutral>
1.6611e-05

> <r_epik_State_Penalty>
-0

> <r_epik_Charging_Adjusted_Penalty>
0

> <i_epik_Tot_Q>
0

> <i_epik_Tot_abs_Q>
0

> <r_epik_Metal_State_Penalty>
-0

> <b_epik_Metal_Only>
0

> <s_lp_Force_Field>
OPLS_2005

> <r_lp_Energy>
27.108

> <b_lp_Chiralities_Consistent>
1

> <s_lp_Variant>
AV-unprocessed.smi:2935-1

> <Gold.Version>
5.8.1

> <Gold.Id.Protein>
6NUR|6NUR_protein|mol2

> <Gold.PLP.Fitness>
46.7665

> <Gold.PLP.PLP>
-40.5897

> <Gold.PLP.part.hbond>
-3.0000

> <Gold.PLP.part.metal>
0.0000

> <Gold.PLP.part.buried>
-1.9773

> <Gold.PLP.part.nonpolar>
-35.0019

> <Gold.PLP.part.repulsive>
1.6516

> <Gold.PLP.ligand.clash>
0.0000

> <Gold.PLP.ligand.torsion>
0.6450

> <Gold.PLP.Chemscore.Hbond>
2.0366

> <Gold.PLP.Chemscore.CHOScore>
0.4334

> <Gold.PLP.Chemscore.Metal>
0.0000

> <Gold.Chemscore.Hbonds>
donor molecule, donor type, donor heavy atom, donor atom, acceptor molecule, acceptor atom, score
      L1  H     5    22       P1  8028  0.38
      L1  H    12    27       P1  7948  0.66
      L1  H    12    28       P1  7957  0.71
      L1  C     8    24       P1  7957  0.74

> <Gold.PLP.Chemscore.Internal.Correction>
0.0571

> <Gold.Rescore>
     Score         DG    S(hbond)    S(metal)    S(lipo)     H(rot)  DE(clash)    DE(int)     intcor
     13.86     -17.10       1.68        0.00      93.13       1.91       0.33       2.91       ----

> <Gold.Chemscore.Fitness>
13.8604

> <Gold.Chemscore.DG>
-17.1022

> <Gold.Chemscore.ZeroCoef>
-5.4800

> <Gold.Chemscore.Hbond>
1.6818

> <Gold.Chemscore.Metal>
0.0000

> <Gold.Chemscore.Lipo>
93.1323

> <Gold.Chemscore.Internal_Hbond>
0.0000

> <Gold.Chemscore.DEClash>
0.3298

> <Gold.Chemscore.DEInternal>
2.9120

> <Gold.Chemscore.Rot>
1.9108

> <Gold.Chemscore.Internal.Correction>
   9.000000E+99

> <Gold.Chemscore.Hbonds>
donor molecule, donor type, donor heavy atom, donor atom, acceptor molecule, acceptor atom, score
      L1  H     5    22       P1  8028  0.38
      L1  H    12    27       P1  7948  0.64
      L1  H    12    28       P1  7957  0.70

> <Gold.Chemscore.Hbond.Weighted>
-5.6173

> <Gold.Chemscore.Metal.Weighted>
-0.0000

> <Gold.Chemscore.Lipo.Weighted>
-10.8965

> <Gold.Chemscore.Internal_Hbond.Weighted>
0.0000

> <Gold.Chemscore.DEClash.Weighted>
0.3298

> <Gold.Chemscore.DEInternal.Weighted>
2.9120

> <Gold.Chemscore.Rot.Weighted>
4.8916

> <Gold.Chemscore.Internal.Correction.Weighted>
   9.000000E+99

> <Gold.Protein.RotatedTorsions>
[ 6907 6896 6895 6894 ] final -155.81 input  -60.11 | X-H torsion
[ 7974 7965 7964 7962 ] final  124.07 input  175.53 | X-H torsion
[ 8008 7997 7996 7995 ] final   51.79 input   59.86 | X-H torsion
[ 10167 10162 10161 10158 ] final   22.75 input  -65.29 | X-H torsion
[ 10718 10713 10712 10709 ] final  142.58 input   66.30 | X-H torsion
[ 10763 10752 10751 10750 ] final  105.62 input  -60.55 | X-H torsion
[ 11005 11000 10999 10996 ] final   99.98 input  -57.11 | X-H torsion

> <Gold.Protein.ActiveResidues>
 VAL166  LYS551  ARG553  GLY616  TRP617  ASP618  TYR619  PRO620  LYS621  CYS622 
 ASP623  PHE694  ASN695  SER759  ASP760  ASP761  ALA762  ILE779  LEU786  VAL792 
 PHE793  MET794  SER795  GLU796  ALA797  LYS798  CYS799  TRP800  GLU811  SER814 

> <Gold.Protein.RotatedAtoms>
  151.2782  133.4222  159.2625 H   0  0  0  0  0  0  0  0  0  0  0  0  # atno 6907 bound_to 6896
  151.0384  134.9590  159.8159 H   0  0  0  0  0  0  0  0  0  0  0  0  # atno 6908 bound_to 6896
  152.5360  134.2741  159.9035 H   0  0  0  0  0  0  0  0  0  0  0  0  # atno 6909 bound_to 6896
  145.0887  139.3603  143.4872 H   0  0  0  0  0  0  0  0  0  0  0  0  # atno 7974 bound_to 7965
  155.4412  140.3454  155.4290 H   0  0  0  0  0  0  0  0  0  0  0  0  # atno 8008 bound_to 7997
  156.1278  140.1505  156.9141 H   0  0  0  0  0  0  0  0  0  0  0  0  # atno 8009 bound_to 7997
  154.4871  140.0852  156.7491 H   0  0  0  0  0  0  0  0  0  0  0  0  # atno 8010 bound_to 7997
  140.5324  143.9819  150.6473 H   0  0  0  0  0  0  0  0  0  0  0  0  # atno 10167 bound_to 10162
  157.3789  131.0989  151.0758 H   0  0  0  0  0  0  0  0  0  0  0  0  # atno 10718 bound_to 10713
  153.3819  135.3904  155.1862 H   0  0  0  0  0  0  0  0  0  0  0  0  # atno 10763 bound_to 10752
  154.8708  135.3727  154.4847 H   0  0  0  0  0  0  0  0  0  0  0  0  # atno 10764 bound_to 10752
  153.5324  135.7085  153.5737 H   0  0  0  0  0  0  0  0  0  0  0  0  # atno 10765 bound_to 10752
  139.8771  134.9120  156.4688 H   0  0  0  0  0  0  0  0  0  0  0  0  # atno 11005 bound_to 11000
  146.3531  140.0711  142.8623 LP  0  0  0  0  0  0  0  0  0  0  0  0  # atno 17320 bound_to 7965
  145.1092  140.9394  143.4667 LP  0  0  0  0  0  0  0  0  0  0  0  0  # atno 17321 bound_to 7965
  140.3197  143.3145  152.0796 LP  0  0  0  0  0  0  0  0  0  0  0  0  # atno 17342 bound_to 10162
  139.4959  144.6581  151.6526 LP  0  0  0  0  0  0  0  0  0  0  0  0  # atno 17343 bound_to 10162
  157.1834  130.6319  149.5679 LP  0  0  0  0  0  0  0  0  0  0  0  0  # atno 17370 bound_to 10713
  155.9771  130.4746  150.6573 LP  0  0  0  0  0  0  0  0  0  0  0  0  # atno 17371 bound_to 10713
  140.8811  133.7917  155.9467 LP  0  0  0  0  0  0  0  0  0  0  0  0  # atno 17394 bound_to 11000
  140.8853  134.2561  157.5123 LP  0  0  0  0  0  0  0  0  0  0  0  0  # atno 17395 bound_to 11000

$$$$
