AV-unprocessed.smi:2498|AV-procd|sdf|9830|dock9
  -GOLD-   2272013463D 1   1.00000     0.00000
 Structure written by MMmdl.
 36 36  0  0  0  0  0  0  0  0  2 V2000
  150.4613  140.6851  156.8267 C   0  0  0  0  0  0  0  0  0  0  0  0
  151.3353  141.3802  157.8320 C   0  0  0  0  0  0  0  0  0  0  0  0
  151.4863  142.6906  157.7438 N   0  0  0  0  0  0  0  0  0  0  0  0
  152.2713  143.0216  158.7899 N   0  0  0  0  0  0  0  0  0  0  0  0
  152.6608  144.4074  158.9857 C   0  0  0  0  0  0  0  0  0  0  0  0
  152.8318  144.9996  157.8041 F   0  0  0  0  0  0  0  0  0  0  0  0
  151.7380  145.0627  159.6921 F   0  0  0  0  0  0  0  0  0  0  0  0
  152.6503  141.9089  159.5158 C   0  0  0  0  0  0  0  0  0  0  0  0
  153.5391  142.0060  160.7132 C   0  0  0  0  0  0  0  0  0  0  0  0
  152.0580  140.8223  158.9291 C   0  0  0  0  0  0  0  0  0  0  0  0
  152.1331  139.3742  159.3484 C   0  0  0  0  0  0  0  0  0  0  0  0
  153.5419  138.8390  159.0926 C   0  0  0  0  0  0  0  0  0  0  0  0
  154.5021  139.6041  159.1706 O   0  0  0  0  0  0  0  0  0  0  0  0
  153.6154  137.5286  158.7940 N   0  0  0  0  0  0  0  0  0  0  0  0
  154.7592  136.6241  158.6113 C   0  0  0  0  0  0  0  0  0  0  0  0
  155.6505  137.2114  157.4952 C   0  0  0  0  0  0  0  0  0  0  0  0
  155.6230  136.4029  159.8813 C   0  0  0  0  0  0  0  0  0  0  0  0
  154.1517  135.2753  158.1595 C   0  0  0  0  0  0  0  0  0  0  0  0
  154.3372  134.2734  158.8862 O   0  0  0  0  0  0  0  0  0  0  0  0
  153.4650  135.2678  157.1128 O   0  5  0  0  0  0  0  0  0  0  0  0
  150.5039  139.6018  156.9343 H   0  0  0  0  0  0  0  0  0  0  0  0
  150.7636  140.9270  155.8075 H   0  0  0  0  0  0  0  0  0  0  0  0
  149.4195  140.9843  156.9456 H   0  0  0  0  0  0  0  0  0  0  0  0
  153.5993  144.4644  159.5373 H   0  0  0  0  0  0  0  0  0  0  0  0
  153.8279  141.0197  161.0751 H   0  0  0  0  0  0  0  0  0  0  0  0
  153.0319  142.5228  161.5279 H   0  0  0  0  0  0  0  0  0  0  0  0
  154.4509  142.5550  160.4775 H   0  0  0  0  0  0  0  0  0  0  0  0
  151.8905  139.2461  160.4035 H   0  0  0  0  0  0  0  0  0  0  0  0
  151.4124  138.7635  158.8041 H   0  0  0  0  0  0  0  0  0  0  0  0
  152.7252  137.0532  158.7638 H   0  0  0  0  0  0  0  0  0  0  0  0
  156.4612  136.5303  157.2328 H   0  0  0  0  0  0  0  0  0  0  0  0
  156.1045  138.1503  157.8132 H   0  0  0  0  0  0  0  0  0  0  0  0
  155.0867  137.4225  156.5851 H   0  0  0  0  0  0  0  0  0  0  0  0
  156.3969  135.6548  159.7043 H   0  0  0  0  0  0  0  0  0  0  0  0
  155.0320  136.0613  160.7323 H   0  0  0  0  0  0  0  0  0  0  0  0
  156.1347  137.3182  160.1799 H   0  0  0  0  0  0  0  0  0  0  0  0
  1  2  1  0  0  0  0
  1 21  1  0  0  0  0
  1 22  1  0  0  0  0
  1 23  1  0  0  0  0
  2 10  1  0  0  0  0
  2  3  2  0  0  0  0
  3  4  1  0  0  0  0
  4  5  1  0  0  0  0
  4  8  1  0  0  0  0
  5  6  1  0  0  0  0
  5  7  1  0  0  0  0
  5 24  1  0  0  0  0
  8  9  1  0  0  0  0
  8 10  2  0  0  0  0
  9 25  1  0  0  0  0
  9 26  1  0  0  0  0
  9 27  1  0  0  0  0
 10 11  1  0  0  0  0
 11 12  1  0  0  0  0
 11 28  1  0  0  0  0
 11 29  1  0  0  0  0
 12 13  2  0  0  0  0
 12 14  1  0  0  0  0
 14 15  1  0  0  0  0
 14 30  1  0  0  0  0
 15 16  1  0  0  0  0
 15 17  1  0  0  0  0
 15 18  1  0  0  0  0
 16 31  1  0  0  0  0
 16 32  1  0  0  0  0
 16 33  1  0  0  0  0
 17 34  1  0  0  0  0
 17 35  1  0  0  0  0
 17 36  1  0  0  0  0
 18 19  2  0  0  0  0
 18 20  1  0  0  0  0
M  CHG  1  20  -1
M  END
> <s_m_source_file>
AV-unprocessed.smi

> <i_m_source_file_index>
2498

> <i_lp_mmshare_version>
43012

> <i_f3d_flags>
0

> <s_epik_input>
W0NIM11jMW5uKFtDSF0oRilGKWMoW0NIM10pYzFbQ0gyXUMoPU8pW05IXUMoW0NIM10pKFtDSDNdKUMoPU8pW09IXQ==

> <s_epik_cmdline>
J2VwaWtfcHl0aG9uJywgJy1waCcsICc3LjAnLCAnLXRuJywgJzgnLCAnLW1hJywgJzIwMCcsICctbWV0YWxfYmluZGluZycsICctaW1hZScsICc8aW5maWxlLm1hZT4nLCAnLW9tYWUnLCAnPG91dGZpbGUubWFlPic=

> <r_lp_tautomer_probability>
1

> <r_epik_Ionization_Penalty>
0.000275972

> <r_epik_Ionization_Penalty_Charging>
0.000275542

> <r_epik_Ionization_Penalty_Neutral>
4.29922e-07

> <r_epik_State_Penalty>
-0

> <r_epik_Charging_Adjusted_Penalty>
0.000275542

> <i_epik_Tot_Q>
-1

> <i_epik_Tot_abs_Q>
1

> <r_epik_Metal_State_Penalty>
-0

> <b_epik_Metal_Only>
0

> <s_lp_Force_Field>
OPLS_2005

> <r_lp_Energy>
1.362

> <b_lp_Chiralities_Consistent>
1

> <s_lp_Variant>
AV-unprocessed.smi:2498-1

> <Gold.Version>
5.8.1

> <Gold.Id.Protein>
6NUR|6NUR_protein|mol2

> <Gold.PLP.Fitness>
48.4351

> <Gold.PLP.PLP>
-35.7439

> <Gold.PLP.part.hbond>
-3.0000

> <Gold.PLP.part.metal>
0.0000

> <Gold.PLP.part.buried>
-5.3205

> <Gold.PLP.part.nonpolar>
-28.3778

> <Gold.PLP.part.repulsive>
0.1532

> <Gold.PLP.ligand.clash>
0.0000

> <Gold.PLP.ligand.torsion>
1.1881

> <Gold.PLP.Chemscore.Hbond>
5.0000

> <Gold.PLP.Chemscore.CHOScore>
0.0000

> <Gold.PLP.Chemscore.Metal>
0.0000

> <Gold.Chemscore.Hbonds>
donor molecule, donor type, donor heavy atom, donor atom, acceptor molecule, acceptor atom, score
      P1  H  6896  6908       L1    19  2.00
      P1  H  7997  8010       L1    13  1.00
      P1  H 10752 10764       L1    20  2.00

> <Gold.PLP.Chemscore.Internal.Correction>
0.0675

> <Gold.Rescore>
     Score         DG    S(hbond)    S(metal)    S(lipo)     H(rot)  DE(clash)    DE(int)     intcor
     15.52     -17.23       2.77        0.00      68.51       2.15       0.38       1.33       ----

> <Gold.Chemscore.Fitness>
15.5197

> <Gold.Chemscore.DG>
-17.2286

> <Gold.Chemscore.ZeroCoef>
-5.4800

> <Gold.Chemscore.Hbond>
2.7655

> <Gold.Chemscore.Metal>
0.0000

> <Gold.Chemscore.Lipo>
68.5137

> <Gold.Chemscore.Internal_Hbond>
0.0000

> <Gold.Chemscore.DEClash>
0.3807

> <Gold.Chemscore.DEInternal>
1.3282

> <Gold.Chemscore.Rot>
2.1501

> <Gold.Chemscore.Internal.Correction>
   9.000000E+99

> <Gold.Chemscore.Hbonds>
donor molecule, donor type, donor heavy atom, donor atom, acceptor molecule, acceptor atom, score
      P1  H  6896  6908       L1    19  0.39
      P1  H  7997  8010       L1    13  0.68
      P1  H 10752 10764       L1    20  0.99

> <Gold.Chemscore.Hbond.Weighted>
-9.2368

> <Gold.Chemscore.Metal.Weighted>
-0.0000

> <Gold.Chemscore.Lipo.Weighted>
-8.0161

> <Gold.Chemscore.Internal_Hbond.Weighted>
0.0000

> <Gold.Chemscore.DEClash.Weighted>
0.3807

> <Gold.Chemscore.DEInternal.Weighted>
1.3282

> <Gold.Chemscore.Rot.Weighted>
5.5043

> <Gold.Chemscore.Internal.Correction.Weighted>
   9.000000E+99

> <Gold.Protein.RotatedTorsions>
[ 6907 6896 6895 6894 ] final  -21.36 input  -60.11 | X-H torsion
[ 7974 7965 7964 7962 ] final  178.26 input  175.53 | X-H torsion
[ 8008 7997 7996 7995 ] final   -0.92 input   59.86 | X-H torsion
[ 10167 10162 10161 10158 ] final   -8.14 input  -65.29 | X-H torsion
[ 10718 10713 10712 10709 ] final  -44.83 input   66.30 | X-H torsion
[ 10763 10752 10751 10750 ] final   24.51 input  -60.55 | X-H torsion
[ 11005 11000 10999 10996 ] final   33.05 input  -57.11 | X-H torsion

> <Gold.Protein.ActiveResidues>
 VAL166  LYS551  ARG553  GLY616  TRP617  ASP618  TYR619  PRO620  LYS621  CYS622 
 ASP623  PHE694  ASN695  SER759  ASP760  ASP761  ALA762  ILE779  LEU786  VAL792 
 PHE793  MET794  SER795  GLU796  ALA797  LYS798  CYS799  TRP800  GLU811  SER814 

> <Gold.Protein.RotatedAtoms>
  151.2345  135.0566  159.9000 H   0  0  0  0  0  0  0  0  0  0  0  0  # atno 6907 bound_to 6896
  152.5401  134.0501  159.8116 H   0  0  0  0  0  0  0  0  0  0  0  0  # atno 6908 bound_to 6896
  151.0686  133.5436  159.2660 H   0  0  0  0  0  0  0  0  0  0  0  0  # atno 6909 bound_to 6896
  144.7158  140.0371  143.6438 H   0  0  0  0  0  0  0  0  0  0  0  0  # atno 7974 bound_to 7965
  154.6526  140.2572  155.7197 H   0  0  0  0  0  0  0  0  0  0  0  0  # atno 8008 bound_to 7997
  156.2582  140.2865  156.0887 H   0  0  0  0  0  0  0  0  0  0  0  0  # atno 8009 bound_to 7997
  155.1428  140.0380  157.2793 H   0  0  0  0  0  0  0  0  0  0  0  0  # atno 8010 bound_to 7997
  140.7050  143.6002  150.8806 H   0  0  0  0  0  0  0  0  0  0  0  0  # atno 10167 bound_to 10162
  156.2345  130.4175  149.8834 H   0  0  0  0  0  0  0  0  0  0  0  0  # atno 10718 bound_to 10713
  153.0759  135.6604  154.0147 H   0  0  0  0  0  0  0  0  0  0  0  0  # atno 10763 bound_to 10752
  153.9781  135.2958  155.3423 H   0  0  0  0  0  0  0  0  0  0  0  0  # atno 10764 bound_to 10752
  154.7147  135.5190  153.8789 H   0  0  0  0  0  0  0  0  0  0  0  0  # atno 10765 bound_to 10752
  140.2671  134.3125  155.7839 H   0  0  0  0  0  0  0  0  0  0  0  0  # atno 11005 bound_to 11000
  146.0054  139.3126  143.0902 LP  0  0  0  0  0  0  0  0  0  0  0  0  # atno 17320 bound_to 7965
  145.8744  140.9401  143.0634 LP  0  0  0  0  0  0  0  0  0  0  0  0  # atno 17321 bound_to 7965
  139.9726  143.6040  152.2969 LP  0  0  0  0  0  0  0  0  0  0  0  0  # atno 17342 bound_to 10162
  139.6632  144.7662  151.1923 LP  0  0  0  0  0  0  0  0  0  0  0  0  # atno 17343 bound_to 10162
  156.6437  130.8715  151.3518 LP  0  0  0  0  0  0  0  0  0  0  0  0  # atno 17370 bound_to 10713
  157.7148  130.9484  150.1216 LP  0  0  0  0  0  0  0  0  0  0  0  0  # atno 17371 bound_to 10713
  141.2182  133.7444  156.9277 LP  0  0  0  0  0  0  0  0  0  0  0  0  # atno 17394 bound_to 11000
  140.1408  134.9294  157.2465 LP  0  0  0  0  0  0  0  0  0  0  0  0  # atno 17395 bound_to 11000

$$$$
