AV-unprocessed.smi:458|AV-procd|sdf|2622|dock5
  -GOLD-   2262023 23D 1   1.00000     0.00000
 Structure written by MMmdl.
 37 39  0  0  0  0  0  0  0  0  2 V2000
  146.9707  138.2451  151.1207 O   0  0  0  0  0  0  0  0  0  0  0  0
  146.5386  139.0902  152.1639 C   0  0  0  0  0  0  0  0  0  0  0  0
  147.6531  139.4690  153.0827 C   0  0  0  0  0  0  0  0  0  0  0  0
  148.6634  138.6472  153.4834 N   0  3  0  0  0  0  0  0  0  0  0  0
  149.5087  139.3285  154.3588 C   0  0  0  0  0  0  0  0  0  0  0  0
  150.6562  138.9091  155.0246 C   0  0  0  0  0  0  0  0  0  0  0  0
  151.2855  139.8559  155.8588 C   0  0  0  0  0  0  0  0  0  0  0  0
  150.7721  141.1605  156.0053 C   0  0  0  0  0  0  0  0  0  0  0  0
  149.6099  141.5747  155.3224 C   0  0  0  0  0  0  0  0  0  0  0  0
  148.9916  140.6330  154.4989 C   0  0  0  0  0  0  0  0  0  0  0  0
  147.8449  140.6744  153.6939 N   0  0  0  0  0  0  0  0  0  0  0  0
  147.0426  141.9080  153.6281 C   0  0  0  0  0  0  0  0  0  0  0  0
  145.9009  141.9249  154.6644 C   0  0  2  0  0  0  0  0  0  0  0  0
  145.2167  140.6915  154.5866 O   0  0  0  0  0  0  0  0  0  0  0  0
  144.9706  143.1162  154.4821 C   0  0  0  0  0  0  0  0  0  0  0  0
  143.9970  143.4030  155.4634 C   0  0  0  0  0  0  0  0  0  0  0  0
  143.1534  144.5216  155.3214 C   0  0  0  0  0  0  0  0  0  0  0  0
  143.2769  145.3591  154.1965 C   0  0  0  0  0  0  0  0  0  0  0  0
  142.4682  146.4365  154.0618 F   0  0  0  0  0  0  0  0  0  0  0  0
  144.2442  145.0771  153.2130 C   0  0  0  0  0  0  0  0  0  0  0  0
  145.0891  143.9593  153.3549 C   0  0  0  0  0  0  0  0  0  0  0  0
  147.6325  137.6617  151.4605 H   0  0  0  0  0  0  0  0  0  0  0  0
  146.1042  139.9925  151.7330 H   0  0  0  0  0  0  0  0  0  0  0  0
  145.7476  138.5923  152.7239 H   0  0  0  0  0  0  0  0  0  0  0  0
  151.0501  137.9094  154.9154 H   0  0  0  0  0  0  0  0  0  0  0  0
  152.1790  139.5755  156.3978 H   0  0  0  0  0  0  0  0  0  0  0  0
  151.2793  141.8586  156.6556 H   0  0  0  0  0  0  0  0  0  0  0  0
  149.2275  142.5764  155.4493 H   0  0  0  0  0  0  0  0  0  0  0  0
  147.6903  142.7778  153.7352 H   0  0  0  0  0  0  0  0  0  0  0  0
  146.6320  141.9667  152.6197 H   0  0  0  0  0  0  0  0  0  0  0  0
  146.3309  141.9719  155.6653 H   0  0  0  0  0  0  0  0  0  0  0  0
  144.6884  140.6903  153.8028 H   0  0  0  0  0  0  0  0  0  0  0  0
  143.9016  142.7708  156.3343 H   0  0  0  0  0  0  0  0  0  0  0  0
  142.4128  144.7381  156.0772 H   0  0  0  0  0  0  0  0  0  0  0  0
  144.3406  145.7202  152.3506 H   0  0  0  0  0  0  0  0  0  0  0  0
  145.8353  143.7575  152.6003 H   0  0  0  0  0  0  0  0  0  0  0  0
  148.7596  137.6857  153.1831 H   0  0  0  0  0  0  0  0  0  0  0  0
  1  2  1  0  0  0  0
  1 22  1  0  0  0  0
  2  3  1  0  0  0  0
  2 23  1  0  0  0  0
  2 24  1  0  0  0  0
  3 11  1  0  0  0  0
  3  4  2  0  0  0  0
  4  5  1  0  0  0  0
  4 37  1  0  0  0  0
  5 10  2  0  0  0  0
  5  6  1  0  0  0  0
  6  7  2  0  0  0  0
  6 25  1  0  0  0  0
  7  8  1  0  0  0  0
  7 26  1  0  0  0  0
  8  9  2  0  0  0  0
  8 27  1  0  0  0  0
  9 10  1  0  0  0  0
  9 28  1  0  0  0  0
 10 11  1  0  0  0  0
 11 12  1  0  0  0  0
 12 13  1  0  0  0  0
 12 29  1  0  0  0  0
 12 30  1  0  0  0  0
 13 14  1  0  0  0  0
 13 15  1  0  0  0  0
 13 31  1  0  0  0  0
 14 32  1  0  0  0  0
 15 21  1  0  0  0  0
 15 16  2  0  0  0  0
 16 17  1  0  0  0  0
 16 33  1  0  0  0  0
 17 18  2  0  0  0  0
 17 34  1  0  0  0  0
 18 19  1  0  0  0  0
 18 20  1  0  0  0  0
 20 21  2  0  0  0  0
 20 35  1  0  0  0  0
 21 36  1  0  0  0  0
M  CHG  1   4   1
M  END
> <s_m_source_file>
AV-unprocessed.smi

> <i_m_source_file_index>
458

> <i_lp_mmshare_version>
43012

> <i_f3d_flags>
0

> <s_epik_input>
W2NIXTFbY0hdW2NIXVtjSF1jKGMxMiluKGMobjIpW0NIMl1bT0hdKVtDSDJdW0NASF0oW09IXSljM1tjSF1bY0hdYyhGKVtjSF1bY0hdMw==

> <s_epik_cmdline>
J2VwaWtfcHl0aG9uJywgJy1waCcsICc3LjAnLCAnLXRuJywgJzgnLCAnLW1hJywgJzIwMCcsICctbWV0YWxfYmluZGluZycsICctaW1hZScsICc8aW5maWxlLm1hZT4nLCAnLW9tYWUnLCAnPG91dGZpbGUubWFlPic=

> <r_epik_Ionization_Penalty>
1.35643

> <r_epik_Ionization_Penalty_Charging>
1.35557

> <r_epik_Ionization_Penalty_Neutral>
0.00085758

> <r_epik_State_Penalty>
1.43401

> <r_epik_Charging_Adjusted_Penalty>
2.78958

> <i_epik_Tot_Q>
1

> <i_epik_Tot_abs_Q>
1

> <r_epik_Metal_State_Penalty>
5.47166

> <b_epik_Metal_Only>
0

> <s_lp_Force_Field>
OPLS_2005

> <r_lp_Energy>
15.2314

> <b_lp_Chiralities_Consistent>
1

> <s_lp_Variant>
AV-unprocessed.smi:458-3

> <Gold.Version>
5.8.1

> <Gold.Id.Protein>
6NUR|6NUR_protein|mol2

> <Gold.PLP.Fitness>
61.8666

> <Gold.PLP.PLP>
-51.5400

> <Gold.PLP.part.hbond>
-6.0000

> <Gold.PLP.part.metal>
0.0000

> <Gold.PLP.part.buried>
-1.6719

> <Gold.PLP.part.nonpolar>
-44.9249

> <Gold.PLP.part.repulsive>
0.0640

> <Gold.PLP.ligand.clash>
0.0000

> <Gold.PLP.ligand.torsion>
0.8526

> <Gold.PLP.Chemscore.Hbond>
4.0000

> <Gold.PLP.Chemscore.CHOScore>
0.0000

> <Gold.PLP.Chemscore.Metal>
0.0000

> <Gold.Chemscore.Hbonds>
donor molecule, donor type, donor heavy atom, donor atom, acceptor molecule, acceptor atom, score
      L1  H     1    22       P1  7948  1.00
      L1  H     4    37       P1  7948  2.00
      L1  H    14    32       P1 10175  1.00

> <Gold.PLP.Chemscore.Internal.Correction>
0.0317

> <Gold.Rescore>
     Score         DG    S(hbond)    S(metal)    S(lipo)     H(rot)  DE(clash)    DE(int)     intcor
     17.59     -19.63       2.93        0.00      98.93       2.82       1.24       0.80       ----

> <Gold.Chemscore.Fitness>
17.5885

> <Gold.Chemscore.DG>
-19.6310

> <Gold.Chemscore.ZeroCoef>
-5.4800

> <Gold.Chemscore.Hbond>
2.9343

> <Gold.Chemscore.Metal>
0.0000

> <Gold.Chemscore.Lipo>
98.9282

> <Gold.Chemscore.Internal_Hbond>
0.0000

> <Gold.Chemscore.DEClash>
1.2395

> <Gold.Chemscore.DEInternal>
0.8029

> <Gold.Chemscore.Rot>
2.8219

> <Gold.Chemscore.Internal.Correction>
   9.000000E+99

> <Gold.Chemscore.Hbonds>
donor molecule, donor type, donor heavy atom, donor atom, acceptor molecule, acceptor atom, score
      L1  H     1    22       P1  7948  0.99
      L1  H     4    37       P1  7948  0.96
      L1  H    14    32       P1 10175  0.98

> <Gold.Chemscore.Hbond.Weighted>
-9.8004

> <Gold.Chemscore.Metal.Weighted>
-0.0000

> <Gold.Chemscore.Lipo.Weighted>
-11.5746

> <Gold.Chemscore.Internal_Hbond.Weighted>
0.0000

> <Gold.Chemscore.DEClash.Weighted>
1.2395

> <Gold.Chemscore.DEInternal.Weighted>
0.8029

> <Gold.Chemscore.Rot.Weighted>
7.2240

> <Gold.Chemscore.Internal.Correction.Weighted>
   9.000000E+99

> <Gold.Protein.RotatedTorsions>
[ 6907 6896 6895 6894 ] final   74.04 input  -60.11 | X-H torsion
[ 7974 7965 7964 7962 ] final   73.56 input  175.53 | X-H torsion
[ 8008 7997 7996 7995 ] final  114.59 input   59.86 | X-H torsion
[ 10167 10162 10161 10158 ] final  109.46 input  -65.29 | X-H torsion
[ 10718 10713 10712 10709 ] final   -0.47 input   66.30 | X-H torsion
[ 10763 10752 10751 10750 ] final  -78.36 input  -60.55 | X-H torsion
[ 11005 11000 10999 10996 ] final   85.28 input  -57.11 | X-H torsion

> <Gold.Protein.ActiveResidues>
 VAL166  LYS551  ARG553  GLY616  TRP617  ASP618  TYR619  PRO620  LYS621  CYS622 
 ASP623  PHE694  ASN695  SER759  ASP760  ASP761  ALA762  ILE779  LEU786  VAL792 
 PHE793  MET794  SER795  GLU796  ALA797  LYS798  CYS799  TRP800  GLU811  SER814 

> <Gold.Protein.RotatedAtoms>
  152.4955  134.4330  159.9518 H   0  0  0  0  0  0  0  0  0  0  0  0  # atno 6907 bound_to 6896
  151.4310  133.3664  159.2776 H   0  0  0  0  0  0  0  0  0  0  0  0  # atno 6908 bound_to 6896
  150.9155  134.8595  159.7513 H   0  0  0  0  0  0  0  0  0  0  0  0  # atno 6909 bound_to 6896
  145.7393  139.2714  143.1496 H   0  0  0  0  0  0  0  0  0  0  0  0  # atno 7974 bound_to 7965
  156.2330  140.2956  156.0239 H   0  0  0  0  0  0  0  0  0  0  0  0  # atno 8008 bound_to 7997
  155.2170  140.0414  157.2959 H   0  0  0  0  0  0  0  0  0  0  0  0  # atno 8009 bound_to 7997
  154.6030  140.2432  155.7775 H   0  0  0  0  0  0  0  0  0  0  0  0  # atno 8010 bound_to 7997
  139.6764  144.7122  151.1594 H   0  0  0  0  0  0  0  0  0  0  0  0  # atno 10167 bound_to 10162
  156.8200  130.5453  149.5698 H   0  0  0  0  0  0  0  0  0  0  0  0  # atno 10718 bound_to 10713
  154.5249  135.5732  153.6711 H   0  0  0  0  0  0  0  0  0  0  0  0  # atno 10763 bound_to 10752
  152.9925  135.6190  154.2706 H   0  0  0  0  0  0  0  0  0  0  0  0  # atno 10764 bound_to 10752
  154.2629  135.2855  155.2750 H   0  0  0  0  0  0  0  0  0  0  0  0  # atno 10765 bound_to 10752
  139.8976  134.8275  156.2560 H   0  0  0  0  0  0  0  0  0  0  0  0  # atno 11005 bound_to 11000
  146.0463  140.8114  142.9803 LP  0  0  0  0  0  0  0  0  0  0  0  0  # atno 17320 bound_to 7965
  144.6874  140.2986  143.7267 LP  0  0  0  0  0  0  0  0  0  0  0  0  # atno 17321 bound_to 7965
  140.7637  143.5765  150.8940 LP  0  0  0  0  0  0  0  0  0  0  0  0  # atno 17342 bound_to 10162
  139.9434  143.6356  152.3048 LP  0  0  0  0  0  0  0  0  0  0  0  0  # atno 17343 bound_to 10162
  156.0994  130.5957  150.9869 LP  0  0  0  0  0  0  0  0  0  0  0  0  # atno 17370 bound_to 10713
  157.6462  131.0903  150.8149 LP  0  0  0  0  0  0  0  0  0  0  0  0  # atno 17371 bound_to 10713
  141.0193  133.7050  156.1241 LP  0  0  0  0  0  0  0  0  0  0  0  0  # atno 17394 bound_to 11000
  140.7256  134.4310  157.5571 LP  0  0  0  0  0  0  0  0  0  0  0  0  # atno 17395 bound_to 11000

$$$$
