AV-unprocessed.smi:82|AV-procd|sdf|794|dock7
  -GOLD-   2262017173D 1   1.00000     0.00000
 Structure written by MMmdl.
 59 62  0  0  0  0  0  0  0  0  2 V2000
  152.3606  138.8125  154.6164 C   0  0  0  0  0  0  0  0  0  0  0  0
  151.4116  139.8255  154.9016 O   0  0  0  0  0  0  0  0  0  0  0  0
  150.9609  139.7863  156.2456 C   0  0  0  0  0  0  0  0  0  0  0  0
  150.0422  140.9924  156.4937 C   0  0  0  0  0  0  0  0  0  0  0  0
  148.5995  140.6364  156.3775 N   0  3  2  0  0  0  0  0  0  0  0  0
  148.2550  139.4936  157.2712 C   0  0  0  0  0  0  0  0  0  0  0  0
  146.7624  139.1414  157.2127 C   0  0  0  0  0  0  0  0  0  0  0  0
  146.3637  138.8731  155.8386 N   0  0  0  0  0  0  0  0  0  0  0  0
  146.5210  137.5948  155.4023 C   0  0  0  0  0  0  0  0  0  0  0  0
  147.0702  136.6613  156.2246 N   0  0  0  0  0  0  0  0  0  0  0  0
  147.2196  135.3992  155.8131 C   0  0  0  0  0  0  0  0  0  0  0  0
  146.8967  134.8632  154.6354 N   0  0  0  0  0  0  0  0  0  0  0  0
  146.3563  135.7940  153.7978 C   0  0  0  0  0  0  0  0  0  0  0  0
  146.1356  137.1687  154.0985 C   0  0  0  0  0  0  0  0  0  0  0  0
  145.5850  137.8094  152.9948 N   0  0  0  0  0  0  0  0  0  0  0  0
  145.4802  136.8683  152.0970 C   0  0  0  0  0  0  0  0  0  0  0  0
  145.9139  135.6239  152.4962 N   0  0  0  0  0  0  0  0  0  0  0  0
  145.9262  134.4253  151.7056 C   0  0  0  0  0  0  0  0  0  0  0  0
  144.9746  134.2672  150.5174 C   0  0  0  0  0  0  0  0  0  0  0  0
  144.7893  132.7689  150.8495 C   0  0  0  0  0  0  0  0  0  0  0  0
  143.3278  132.2942  150.8362 C   0  0  0  0  0  0  0  0  0  0  0  0
  142.8519  132.1220  149.5167 O   0  0  0  0  0  0  0  0  0  0  0  0
  145.5991  131.7748  149.9878 C   0  0  0  0  0  0  0  0  0  0  0  0
  146.9245  132.1995  149.7429 O   0  0  0  0  0  0  0  0  0  0  0  0
  145.3545  133.1120  152.2465 C   0  0  0  0  0  0  0  0  0  0  0  0
  146.6452  139.9808  154.9309 C   0  0  0  0  0  0  0  0  0  0  0  0
  148.1282  140.4279  154.9700 C   0  0  1  0  0  0  0  0  0  0  0  0
  148.2654  141.6941  154.0999 C   0  0  0  0  0  0  0  0  0  0  0  0
  152.6809  138.8921  153.5775 H   0  0  0  0  0  0  0  0  0  0  0  0
  151.9333  137.8193  154.7611 H   0  0  0  0  0  0  0  0  0  0  0  0
  153.2438  138.9100  155.2489 H   0  0  0  0  0  0  0  0  0  0  0  0
  150.3981  138.8665  156.4123 H   0  0  0  0  0  0  0  0  0  0  0  0
  151.8047  139.7707  156.9354 H   0  0  0  0  0  0  0  0  0  0  0  0
  150.2895  141.3808  157.4779 H   0  0  0  0  0  0  0  0  0  0  0  0
  150.2775  141.7980  155.7964 H   0  0  0  0  0  0  0  0  0  0  0  0
  148.8449  138.6212  156.9846 H   0  0  0  0  0  0  0  0  0  0  0  0
  148.5180  139.7232  158.3028 H   0  0  0  0  0  0  0  0  0  0  0  0
  146.5583  138.2969  157.8697 H   0  0  0  0  0  0  0  0  0  0  0  0
  146.1677  139.9735  157.5912 H   0  0  0  0  0  0  0  0  0  0  0  0
  147.6600  134.7217  156.5300 H   0  0  0  0  0  0  0  0  0  0  0  0
  145.0843  137.0600  151.1102 H   0  0  0  0  0  0  0  0  0  0  0  0
  146.9568  134.2732  151.3833 H   0  0  0  0  0  0  0  0  0  0  0  0
  144.0588  134.8477  150.6384 H   0  0  0  0  0  0  0  0  0  0  0  0
  145.4329  134.4694  149.5486 H   0  0  0  0  0  0  0  0  0  0  0  0
  143.2244  131.3381  151.3509 H   0  0  0  0  0  0  0  0  0  0  0  0
  142.6780  132.9970  151.3588 H   0  0  0  0  0  0  0  0  0  0  0  0
  142.2240  132.8035  149.3312 H   0  0  0  0  0  0  0  0  0  0  0  0
  145.6556  130.7973  150.4670 H   0  0  0  0  0  0  0  0  0  0  0  0
  145.1177  131.6214  149.0214 H   0  0  0  0  0  0  0  0  0  0  0  0
  147.5081  131.4725  149.8982 H   0  0  0  0  0  0  0  0  0  0  0  0
  146.1080  132.4154  152.6158 H   0  0  0  0  0  0  0  0  0  0  0  0
  144.5720  133.2636  152.9914 H   0  0  0  0  0  0  0  0  0  0  0  0
  146.3444  139.7259  153.9136 H   0  0  0  0  0  0  0  0  0  0  0  0
  146.0069  140.8141  155.2276 H   0  0  0  0  0  0  0  0  0  0  0  0
  148.7415  139.6407  154.5300 H   0  0  0  0  0  0  0  0  0  0  0  0
  147.7667  141.5575  153.1399 H   0  0  0  0  0  0  0  0  0  0  0  0
  149.2993  141.9411  153.8664 H   0  0  0  0  0  0  0  0  0  0  0  0
  147.8107  142.5592  154.5838 H   0  0  0  0  0  0  0  0  0  0  0  0
  148.0825  141.4348  156.7178 H   0  0  0  0  0  0  0  0  0  0  0  0
  1  2  1  0  0  0  0
  1 29  1  0  0  0  0
  1 30  1  0  0  0  0
  1 31  1  0  0  0  0
  2  3  1  0  0  0  0
  3  4  1  0  0  0  0
  3 32  1  0  0  0  0
  3 33  1  0  0  0  0
  4  5  1  0  0  0  0
  4 34  1  0  0  0  0
  4 35  1  0  0  0  0
  5 27  1  0  0  0  0
  5  6  1  0  0  0  0
  5 59  1  0  0  0  0
  6  7  1  0  0  0  0
  6 36  1  0  0  0  0
  6 37  1  0  0  0  0
  7  8  1  0  0  0  0
  7 38  1  0  0  0  0
  7 39  1  0  0  0  0
  8  9  1  0  0  0  0
  8 26  1  0  0  0  0
  9 14  1  0  0  0  0
  9 10  2  0  0  0  0
 10 11  1  0  0  0  0
 11 12  2  0  0  0  0
 11 40  1  0  0  0  0
 12 13  1  0  0  0  0
 13 17  1  0  0  0  0
 13 14  2  0  0  0  0
 14 15  1  0  0  0  0
 15 16  2  0  0  0  0
 16 17  1  0  0  0  0
 16 41  1  0  0  0  0
 17 18  1  0  0  0  0
 18 25  1  0  0  0  0
 18 19  1  0  0  0  0
 18 42  1  0  0  0  0
 19 20  1  0  0  0  0
 19 43  1  0  0  0  0
 19 44  1  0  0  0  0
 20 21  1  0  0  0  0
 20 23  1  0  0  0  0
 20 25  1  0  0  0  0
 21 22  1  0  0  0  0
 21 45  1  0  0  0  0
 21 46  1  0  0  0  0
 22 47  1  0  0  0  0
 23 24  1  0  0  0  0
 23 48  1  0  0  0  0
 23 49  1  0  0  0  0
 24 50  1  0  0  0  0
 25 51  1  0  0  0  0
 25 52  1  0  0  0  0
 26 27  1  0  0  0  0
 26 53  1  0  0  0  0
 26 54  1  0  0  0  0
 27 28  1  0  0  0  0
 27 55  1  0  0  0  0
 28 56  1  0  0  0  0
 28 57  1  0  0  0  0
 28 58  1  0  0  0  0
M  CHG  1   5   1
M  END
> <s_m_source_file>
AV-unprocessed.smi

> <i_m_source_file_index>
82

> <i_lp_mmshare_version>
43012

> <i_f3d_flags>
0

> <s_epik_input>
W0NIM11PW0NIMl1bQ0gyXU4xW0NIMl1bQ0gyXU4oW0NIMl1bQ0BIXTFbQ0gzXSljKG5bY0hdbjIpYyhjMjMpbltjSF1uM1tDSF0oW0NIMl00KVtDSDJdQzQoW0NIMl1bT0hdKVtDSDJdW09IXQ==

> <s_epik_cmdline>
J2VwaWtfcHl0aG9uJywgJy1waCcsICc3LjAnLCAnLXRuJywgJzgnLCAnLW1hJywgJzIwMCcsICctbWV0YWxfYmluZGluZycsICctaW1hZScsICc8aW5maWxlLm1hZT4nLCAnLW9tYWUnLCAnPG91dGZpbGUubWFlPic=

> <r_lp_tautomer_probability>
1

> <r_epik_Ionization_Penalty>
0.304275

> <r_epik_Ionization_Penalty_Charging>
0.304214

> <r_epik_Ionization_Penalty_Neutral>
6.13137e-05

> <r_epik_State_Penalty>
0.300354

> <r_epik_Charging_Adjusted_Penalty>
0.604567

> <i_epik_Tot_Q>
1

> <i_epik_Tot_abs_Q>
1

> <r_epik_Metal_State_Penalty>
0.301147

> <b_epik_Metal_Only>
0

> <s_lp_Force_Field>
OPLS_2005

> <r_lp_Energy>
58.1086

> <b_lp_Chiralities_Consistent>
1

> <s_lp_Variant>
AV-unprocessed.smi:82-1

> <Gold.Version>
5.8.1

> <Gold.Id.Protein>
6NUR|6NUR_protein|mol2

> <Gold.PLP.Fitness>
49.8956

> <Gold.PLP.PLP>
-37.3308

> <Gold.PLP.part.hbond>
-4.5477

> <Gold.PLP.part.metal>
0.0000

> <Gold.PLP.part.buried>
-4.8396

> <Gold.PLP.part.nonpolar>
-28.3249

> <Gold.PLP.part.repulsive>
0.3723

> <Gold.PLP.ligand.clash>
0.0000

> <Gold.PLP.ligand.torsion>
1.2222

> <Gold.PLP.Chemscore.Hbond>
3.6825

> <Gold.PLP.Chemscore.CHOScore>
1.0000

> <Gold.PLP.Chemscore.Metal>
0.0000

> <Gold.Chemscore.Hbonds>
donor molecule, donor type, donor heavy atom, donor atom, acceptor molecule, acceptor atom, score
      L1  H    22    47       P1 10186  1.00
      L1  H    24    50       P1 10747  1.00
      P1  H  7989  7998       L1     2  1.00
      P1  H 10785 10796       L1    22  0.70
      L1  C    16    41       P1 10171  1.00

> <Gold.PLP.Chemscore.Internal.Correction>
0.9617

> <Gold.Rescore>
     Score         DG    S(hbond)    S(metal)    S(lipo)     H(rot)  DE(clash)    DE(int)     intcor
     14.98     -16.56       3.44        0.00      81.87       3.91       0.34       1.25       ----

> <Gold.Chemscore.Fitness>
14.9770

> <Gold.Chemscore.DG>
-16.5579

> <Gold.Chemscore.ZeroCoef>
-5.4800

> <Gold.Chemscore.Hbond>
3.4421

> <Gold.Chemscore.Metal>
0.0000

> <Gold.Chemscore.Lipo>
81.8749

> <Gold.Chemscore.Internal_Hbond>
0.0000

> <Gold.Chemscore.DEClash>
0.3354

> <Gold.Chemscore.DEInternal>
1.2455

> <Gold.Chemscore.Rot>
3.9055

> <Gold.Chemscore.Internal.Correction>
   9.000000E+99

> <Gold.Chemscore.Hbonds>
donor molecule, donor type, donor heavy atom, donor atom, acceptor molecule, acceptor atom, score
      L1  H    22    47       P1 10186  0.93
      L1  H    24    50       P1 10747  0.95
      P1  H  7989  7998       L1     2  0.26
      P1  H 10785 10796       L1    22  0.59

> <Gold.Chemscore.Hbond.Weighted>
-11.4966

> <Gold.Chemscore.Metal.Weighted>
-0.0000

> <Gold.Chemscore.Lipo.Weighted>
-9.5794

> <Gold.Chemscore.Internal_Hbond.Weighted>
0.0000

> <Gold.Chemscore.DEClash.Weighted>
0.3354

> <Gold.Chemscore.DEInternal.Weighted>
1.2455

> <Gold.Chemscore.Rot.Weighted>
9.9980

> <Gold.Chemscore.Internal.Correction.Weighted>
   9.000000E+99

> <Gold.Protein.RotatedTorsions>
[ 6907 6896 6895 6894 ] final   47.32 input  -60.11 | X-H torsion
[ 7974 7965 7964 7962 ] final  -82.83 input  175.53 | X-H torsion
[ 8008 7997 7996 7995 ] final  113.32 input   59.86 | X-H torsion
[ 10167 10162 10161 10158 ] final   93.64 input  -65.29 | X-H torsion
[ 10718 10713 10712 10709 ] final   87.64 input   66.30 | X-H torsion
[ 10763 10752 10751 10750 ] final -155.02 input  -60.55 | X-H torsion
[ 11005 11000 10999 10996 ] final -152.87 input  -57.11 | X-H torsion

> <Gold.Protein.ActiveResidues>
 VAL166  LYS551  ARG553  GLY616  TRP617  ASP618  TYR619  PRO620  LYS621  CYS622 
 ASP623  PHE694  ASN695  SER759  ASP760  ASP761  ALA762  ILE779  LEU786  VAL792 
 PHE793  MET794  SER795  GLU796  ALA797  LYS798  CYS799  TRP800  GLU811  SER814 

> <Gold.Protein.RotatedAtoms>
  152.2667  134.7977  160.0421 H   0  0  0  0  0  0  0  0  0  0  0  0  # atno 6907 bound_to 6896
  151.8604  133.3451  159.3710 H   0  0  0  0  0  0  0  0  0  0  0  0  # atno 6908 bound_to 6896
  150.7136  134.5139  159.5665 H   0  0  0  0  0  0  0  0  0  0  0  0  # atno 6909 bound_to 6896
  145.5281  140.9524  143.1618 H   0  0  0  0  0  0  0  0  0  0  0  0  # atno 7974 bound_to 7965
  156.2250  140.2982  156.0045 H   0  0  0  0  0  0  0  0  0  0  0  0  # atno 8008 bound_to 7997
  155.2380  140.0421  157.2988 H   0  0  0  0  0  0  0  0  0  0  0  0  # atno 8009 bound_to 7997
  154.5901  140.2399  155.7940 H   0  0  0  0  0  0  0  0  0  0  0  0  # atno 8010 bound_to 7997
  139.8160  144.6752  150.9579 H   0  0  0  0  0  0  0  0  0  0  0  0  # atno 10167 bound_to 10162
  157.6942  131.0263  150.3153 H   0  0  0  0  0  0  0  0  0  0  0  0  # atno 10718 bound_to 10713
  154.7817  135.3177  154.7975 H   0  0  0  0  0  0  0  0  0  0  0  0  # atno 10763 bound_to 10752
  153.8685  135.6846  153.4781 H   0  0  0  0  0  0  0  0  0  0  0  0  # atno 10764 bound_to 10752
  153.1456  135.4721  154.9498 H   0  0  0  0  0  0  0  0  0  0  0  0  # atno 10765 bound_to 10752
  140.7142  134.3798  157.5193 H   0  0  0  0  0  0  0  0  0  0  0  0  # atno 11005 bound_to 11000
  144.7640  139.6888  143.7222 LP  0  0  0  0  0  0  0  0  0  0  0  0  # atno 17320 bound_to 7965
  146.2062  139.5388  142.9711 LP  0  0  0  0  0  0  0  0  0  0  0  0  # atno 17321 bound_to 7965
  140.7816  143.4138  151.0950 LP  0  0  0  0  0  0  0  0  0  0  0  0  # atno 17342 bound_to 10162
  139.7802  143.8367  152.3136 LP  0  0  0  0  0  0  0  0  0  0  0  0  # atno 17343 bound_to 10162
  156.3649  130.3853  149.7222 LP  0  0  0  0  0  0  0  0  0  0  0  0  # atno 17370 bound_to 10713
  156.4656  130.7972  151.2991 LP  0  0  0  0  0  0  0  0  0  0  0  0  # atno 17371 bound_to 10713
  139.8864  134.8911  156.2588 LP  0  0  0  0  0  0  0  0  0  0  0  0  # atno 17394 bound_to 11000
  141.0058  133.7124  156.1033 LP  0  0  0  0  0  0  0  0  0  0  0  0  # atno 17395 bound_to 11000

$$$$
