AV-unprocessed.smi:3250|AV-procd|sdf|12430|dock6
  -GOLD-   2272018313D 1   1.00000     0.00000
 Structure written by MMmdl.
 38 39  0  0  0  0  0  0  0  0  1 V2000
  153.0204  142.6366  162.7559 C   0  0  0  0  0  0  0  0  0  0  0  0
  152.3982  143.7966  161.9655 C   0  0  0  0  0  0  0  0  0  0  0  0
  152.5633  143.7129  160.5155 N   0  0  0  0  0  0  0  0  0  0  0  0
  151.8879  144.7998  159.8107 C   0  0  0  0  0  0  0  0  0  0  0  0
  152.0409  144.6751  158.2855 C   0  0  0  0  0  0  0  0  0  0  0  0
  151.5554  143.4061  157.8613 O   0  0  0  0  0  0  0  0  0  0  0  0
  152.2349  142.3155  158.4792 C   0  0  2  0  0  0  0  0  0  0  0  0
  151.6364  141.0068  157.9474 C   0  0  0  0  0  0  0  0  0  0  0  0
  151.7656  140.9056  156.5016 N   0  0  0  0  0  0  0  0  0  0  0  0
  151.6749  139.7196  155.7981 C   0  0  0  0  0  0  0  0  0  0  0  0
  151.0997  139.8053  154.5967 N   0  0  0  0  0  0  0  0  0  0  0  0
  150.9917  138.6621  153.8855 C   0  0  0  0  0  0  0  0  0  0  0  0
  151.4633  137.4306  154.3820 C   0  0  0  0  0  0  0  0  0  0  0  0
  152.0567  137.4543  155.6604 C   0  0  0  0  0  0  0  0  0  0  0  0
  152.5433  136.2839  156.2044 O   0  0  0  0  0  0  0  0  0  0  0  0
  153.1835  136.3502  157.4739 C   0  0  0  0  0  0  0  0  0  0  0  0
  152.1588  138.6087  156.3657 N   0  0  0  0  0  0  0  0  0  0  0  0
  152.0670  142.4385  160.0065 C   0  0  0  0  0  0  0  0  0  0  0  0
  152.7700  142.7175  163.8137 H   0  0  0  0  0  0  0  0  0  0  0  0
  154.1074  142.6292  162.6815 H   0  0  0  0  0  0  0  0  0  0  0  0
  152.6491  141.6749  162.4009 H   0  0  0  0  0  0  0  0  0  0  0  0
  151.3326  143.8139  162.1972 H   0  0  0  0  0  0  0  0  0  0  0  0
  152.7992  144.7430  162.3309 H   0  0  0  0  0  0  0  0  0  0  0  0
  150.8276  144.8055  160.0674 H   0  0  0  0  0  0  0  0  0  0  0  0
  152.2912  145.7624  160.1231 H   0  0  0  0  0  0  0  0  0  0  0  0
  151.4762  145.4600  157.7820 H   0  0  0  0  0  0  0  0  0  0  0  0
  153.0850  144.7905  157.9903 H   0  0  0  0  0  0  0  0  0  0  0  0
  153.2968  142.3578  158.2282 H   0  0  0  0  0  0  0  0  0  0  0  0
  152.1525  140.1586  158.3984 H   0  0  0  0  0  0  0  0  0  0  0  0
  150.5850  140.9300  158.2271 H   0  0  0  0  0  0  0  0  0  0  0  0
  151.8309  141.7591  155.9660 H   0  0  0  0  0  0  0  0  0  0  0  0
  150.5261  138.7299  152.9136 H   0  0  0  0  0  0  0  0  0  0  0  0
  151.3755  136.5175  153.8121 H   0  0  0  0  0  0  0  0  0  0  0  0
  153.5162  135.3536  157.7632 H   0  0  0  0  0  0  0  0  0  0  0  0
  152.5021  136.7093  158.2466 H   0  0  0  0  0  0  0  0  0  0  0  0
  154.0621  136.9965  157.4440 H   0  0  0  0  0  0  0  0  0  0  0  0
  152.5969  141.6182  160.4922 H   0  0  0  0  0  0  0  0  0  0  0  0
  151.0129  142.3241  160.2653 H   0  0  0  0  0  0  0  0  0  0  0  0
  1  2  1  0  0  0  0
  1 19  1  0  0  0  0
  1 20  1  0  0  0  0
  1 21  1  0  0  0  0
  2  3  1  0  0  0  0
  2 22  1  0  0  0  0
  2 23  1  0  0  0  0
  3 18  1  0  0  0  0
  3  4  1  0  0  0  0
  4  5  1  0  0  0  0
  4 24  1  0  0  0  0
  4 25  1  0  0  0  0
  5  6  1  0  0  0  0
  5 26  1  0  0  0  0
  5 27  1  0  0  0  0
  6  7  1  0  0  0  0
  7  8  1  0  0  0  0
  7 18  1  0  0  0  0
  7 28  1  0  0  0  0
  8  9  1  0  0  0  0
  8 29  1  0  0  0  0
  8 30  1  0  0  0  0
  9 10  1  0  0  0  0
  9 31  1  0  0  0  0
 10 17  1  0  0  0  0
 10 11  2  0  0  0  0
 11 12  1  0  0  0  0
 12 13  2  0  0  0  0
 12 32  1  0  0  0  0
 13 14  1  0  0  0  0
 13 33  1  0  0  0  0
 14 15  1  0  0  0  0
 14 17  2  0  0  0  0
 15 16  1  0  0  0  0
 16 34  1  0  0  0  0
 16 35  1  0  0  0  0
 16 36  1  0  0  0  0
 18 37  1  0  0  0  0
 18 38  1  0  0  0  0
M  END
> <s_m_source_file>
AV-unprocessed.smi

> <i_m_source_file_index>
3250

> <i_lp_mmshare_version>
43012

> <i_f3d_flags>
0

> <s_epik_input>
W0NIM11bQ0gyXU4xW0NIMl1bQ0gyXU9bQ0BIXShbQ0gyXTEpW0NIMl1bTkhdYzJuW2NIXVtjSF1jKG4yKU9bQ0gzXQ==

> <s_epik_cmdline>
J2VwaWtfcHl0aG9uJywgJy1waCcsICc3LjAnLCAnLXRuJywgJzgnLCAnLW1hJywgJzIwMCcsICctbWV0YWxfYmluZGluZycsICctaW1hZScsICc8aW5maWxlLm1hZT4nLCAnLW9tYWUnLCAnPG91dGZpbGUubWFlPic=

> <r_lp_tautomer_probability>
1

> <r_epik_Ionization_Penalty>
0.832605

> <r_epik_Ionization_Penalty_Charging>
0

> <r_epik_Ionization_Penalty_Neutral>
0.832605

> <r_epik_State_Penalty>
0.927194

> <r_epik_Charging_Adjusted_Penalty>
0.927194

> <i_epik_Tot_Q>
0

> <i_epik_Tot_abs_Q>
0

> <r_epik_Metal_State_Penalty>
0.908632

> <b_epik_Metal_Only>
0

> <s_lp_Force_Field>
OPLS_2005

> <r_lp_Energy>
15.3414

> <b_lp_Chiralities_Consistent>
1

> <s_lp_Variant>
AV-unprocessed.smi:3250-6

> <Gold.Version>
5.8.1

> <Gold.Id.Protein>
6NUR|6NUR_protein|mol2

> <Gold.PLP.Fitness>
47.3116

> <Gold.PLP.PLP>
-39.0900

> <Gold.PLP.part.hbond>
-2.0000

> <Gold.PLP.part.metal>
0.0000

> <Gold.PLP.part.buried>
-5.4674

> <Gold.PLP.part.nonpolar>
-31.5972

> <Gold.PLP.part.repulsive>
0.3685

> <Gold.PLP.ligand.clash>
0.0000

> <Gold.PLP.ligand.torsion>
0.4019

> <Gold.PLP.Chemscore.Hbond>
2.0000

> <Gold.PLP.Chemscore.CHOScore>
1.0000

> <Gold.PLP.Chemscore.Metal>
0.0000

> <Gold.Chemscore.Hbonds>
donor molecule, donor type, donor heavy atom, donor atom, acceptor molecule, acceptor atom, score
      P1  H  7989  7998       L1    11  1.00
      P1  H 10752 10763       L1    15  0.96
      L1  C    12    32       P1  7957  1.00

> <Gold.PLP.Chemscore.Internal.Correction>
0.0254

> <Gold.Rescore>
     Score         DG    S(hbond)    S(metal)    S(lipo)     H(rot)  DE(clash)    DE(int)     intcor
     15.65     -16.39       1.07        0.00      99.26       1.67       0.29       0.44       ----

> <Gold.Chemscore.Fitness>
15.6548

> <Gold.Chemscore.DG>
-16.3882

> <Gold.Chemscore.ZeroCoef>
-5.4800

> <Gold.Chemscore.Hbond>
1.0657

> <Gold.Chemscore.Metal>
0.0000

> <Gold.Chemscore.Lipo>
99.2554

> <Gold.Chemscore.Internal_Hbond>
0.0000

> <Gold.Chemscore.DEClash>
0.2947

> <Gold.Chemscore.DEInternal>
0.4388

> <Gold.Chemscore.Rot>
1.6657

> <Gold.Chemscore.Internal.Correction>
   9.000000E+99

> <Gold.Chemscore.Hbonds>
donor molecule, donor type, donor heavy atom, donor atom, acceptor molecule, acceptor atom, score
      P1  H  7989  7998       L1    11  0.39
      P1  H 10752 10763       L1    15  0.65

> <Gold.Chemscore.Hbond.Weighted>
-3.5596

> <Gold.Chemscore.Metal.Weighted>
-0.0000

> <Gold.Chemscore.Lipo.Weighted>
-11.6129

> <Gold.Chemscore.Internal_Hbond.Weighted>
0.0000

> <Gold.Chemscore.DEClash.Weighted>
0.2947

> <Gold.Chemscore.DEInternal.Weighted>
0.4388

> <Gold.Chemscore.Rot.Weighted>
4.2642

> <Gold.Chemscore.Internal.Correction.Weighted>
   9.000000E+99

> <Gold.Protein.RotatedTorsions>
[ 6907 6896 6895 6894 ] final   39.98 input  -60.11 | X-H torsion
[ 7974 7965 7964 7962 ] final   85.75 input  175.53 | X-H torsion
[ 8008 7997 7996 7995 ] final -139.42 input   59.86 | X-H torsion
[ 10167 10162 10161 10158 ] final  -49.71 input  -65.29 | X-H torsion
[ 10718 10713 10712 10709 ] final   95.42 input   66.30 | X-H torsion
[ 10763 10752 10751 10750 ] final  100.07 input  -60.55 | X-H torsion
[ 11005 11000 10999 10996 ] final -122.01 input  -57.11 | X-H torsion

> <Gold.Protein.ActiveResidues>
 VAL166  LYS551  ARG553  GLY616  TRP617  ASP618  TYR619  PRO620  LYS621  CYS622 
 ASP623  PHE694  ASN695  SER759  ASP760  ASP761  ALA762  ILE779  LEU786  VAL792 
 PHE793  MET794  SER795  GLU796  ALA797  LYS798  CYS799  TRP800  GLU811  SER814 

> <Gold.Protein.RotatedAtoms>
  152.1766  134.8790  160.0529 H   0  0  0  0  0  0  0  0  0  0  0  0  # atno 6907 bound_to 6896
  151.9730  133.3727  159.4086 H   0  0  0  0  0  0  0  0  0  0  0  0  # atno 6908 bound_to 6896
  150.6910  134.4043  159.5177 H   0  0  0  0  0  0  0  0  0  0  0  0  # atno 6909 bound_to 6896
  145.5814  139.2325  143.2351 H   0  0  0  0  0  0  0  0  0  0  0  0  # atno 7974 bound_to 7965
  155.4445  140.0534  157.3007 H   0  0  0  0  0  0  0  0  0  0  0  0  # atno 8008 bound_to 7997
  154.4803  140.2079  155.9735 H   0  0  0  0  0  0  0  0  0  0  0  0  # atno 8009 bound_to 7997
  156.1196  140.3190  155.8194 H   0  0  0  0  0  0  0  0  0  0  0  0  # atno 8010 bound_to 7997
  140.6672  143.2687  151.4254 H   0  0  0  0  0  0  0  0  0  0  0  0  # atno 10167 bound_to 10162
  157.6939  131.0545  150.4337 H   0  0  0  0  0  0  0  0  0  0  0  0  # atno 10718 bound_to 10713
  153.3093  135.4091  155.1322 H   0  0  0  0  0  0  0  0  0  0  0  0  # atno 10763 bound_to 10752
  154.8571  135.3560  154.5745 H   0  0  0  0  0  0  0  0  0  0  0  0  # atno 10764 bound_to 10752
  153.6173  135.7065  153.5382 H   0  0  0  0  0  0  0  0  0  0  0  0  # atno 10765 bound_to 10752
  141.0027  134.0379  157.3516 H   0  0  0  0  0  0  0  0  0  0  0  0  # atno 11005 bound_to 11000
  146.1713  140.6640  142.9232 LP  0  0  0  0  0  0  0  0  0  0  0  0  # atno 17320 bound_to 7965
  144.7392  140.4895  143.6881 LP  0  0  0  0  0  0  0  0  0  0  0  0  # atno 17321 bound_to 7965
  139.5926  144.1467  152.2106 LP  0  0  0  0  0  0  0  0  0  0  0  0  # atno 17342 bound_to 10162
  140.0826  144.5688  150.7111 LP  0  0  0  0  0  0  0  0  0  0  0  0  # atno 17343 bound_to 10162
  156.4701  130.4051  149.6523 LP  0  0  0  0  0  0  0  0  0  0  0  0  # atno 17370 bound_to 10713
  156.3607  130.7480  151.2451 LP  0  0  0  0  0  0  0  0  0  0  0  0  # atno 17371 bound_to 10713
  139.9047  135.0176  156.7432 LP  0  0  0  0  0  0  0  0  0  0  0  0  # atno 17394 bound_to 11000
  140.6862  133.9430  155.7939 LP  0  0  0  0  0  0  0  0  0  0  0  0  # atno 17395 bound_to 11000

$$$$
