AV-unprocessed.smi:103|AV-procd|sdf|979|dock1
  -GOLD-   2262017543D 1   1.00000     0.00000
 Structure written by MMmdl.
 53 55  0  0  0  0  0  0  0  0  1 V2000
  154.4476  136.5386  162.3533 C   0  0  0  0  0  0  0  0  0  0  0  0
  154.1023  136.5899  160.8708 C   0  0  0  0  0  0  0  0  0  0  0  0
  154.2538  135.6114  160.1393 O   0  0  0  0  0  0  0  0  0  0  0  0
  153.6352  137.7894  160.4973 O   0  0  0  0  0  0  0  0  0  0  0  0
  153.2143  137.9943  159.1587 C   0  0  0  0  0  0  0  0  0  0  0  0
  151.8838  138.7560  159.1622 C   0  0  2  0  0  0  0  0  0  0  0  0
  150.8372  137.8361  159.4743 O   0  0  0  0  0  0  0  0  0  0  0  0
  149.8570  137.8950  158.4896 C   0  0  2  0  0  0  0  0  0  0  0  0
  149.2565  136.5369  158.3233 N   0  0  0  0  0  0  0  0  0  0  0  0
  148.2768  135.9048  159.0627 C   0  0  0  0  0  0  0  0  0  0  0  0
  147.4611  136.5464  160.5202 S   0  0  0  0  0  0  0  0  0  0  0  0
  146.4587  135.1013  161.0552 C   0  0  0  0  0  0  0  0  0  0  0  0
  148.5020  136.8127  161.5246 O   0  0  0  0  0  0  0  0  0  0  0  0
  146.5637  137.6227  160.0721 O   0  0  0  0  0  0  0  0  0  0  0  0
  147.9838  134.6798  158.7194 N   0  0  0  0  0  0  0  0  0  0  0  0
  148.7847  134.4649  157.6067 C   0  0  0  0  0  0  0  0  0  0  0  0
  148.9655  133.3756  156.7177 C   0  0  0  0  0  0  0  0  0  0  0  0
  148.2932  132.2214  156.8288 N   0  0  0  0  0  0  0  0  0  0  0  0
  149.8584  133.5058  155.7087 N   0  0  0  0  0  0  0  0  0  0  0  0
  150.5425  134.6470  155.5770 C   0  0  0  0  0  0  0  0  0  0  0  0
  150.4836  135.7485  156.3302 N   0  0  0  0  0  0  0  0  0  0  0  0
  149.5811  135.6169  157.3468 C   0  0  0  0  0  0  0  0  0  0  0  0
  150.5618  138.3501  157.2163 C   0  0  1  0  0  0  0  0  0  0  0  0
  149.6621  138.9287  156.2776 O   0  0  0  0  0  0  0  0  0  0  0  0
  150.1230  139.7068  155.2833 C   0  0  0  0  0  0  0  0  0  0  0  0
  148.9992  140.3025  154.4466 C   0  0  0  0  0  0  0  0  0  0  0  0
  151.3055  139.9345  155.0273 O   0  0  0  0  0  0  0  0  0  0  0  0
  151.5410  139.3602  157.7866 C   0  0  1  0  0  0  0  0  0  0  0  0
  150.9182  140.6306  157.9595 O   0  0  0  0  0  0  0  0  0  0  0  0
  151.6180  141.6660  158.4553 C   0  0  0  0  0  0  0  0  0  0  0  0
  150.8327  142.9699  158.4132 C   0  0  0  0  0  0  0  0  0  0  0  0
  152.7609  141.6170  158.9099 O   0  0  0  0  0  0  0  0  0  0  0  0
  155.2308  137.2607  162.5845 H   0  0  0  0  0  0  0  0  0  0  0  0
  154.8001  135.5450  162.6310 H   0  0  0  0  0  0  0  0  0  0  0  0
  153.5697  136.7744  162.9548 H   0  0  0  0  0  0  0  0  0  0  0  0
  153.9701  138.5474  158.5992 H   0  0  0  0  0  0  0  0  0  0  0  0
  153.0878  137.0262  158.6725 H   0  0  0  0  0  0  0  0  0  0  0  0
  151.9118  139.5222  159.9384 H   0  0  0  0  0  0  0  0  0  0  0  0
  149.0620  138.5610  158.8190 H   0  0  0  0  0  0  0  0  0  0  0  0
  145.8978  135.3615  161.9523 H   0  0  0  0  0  0  0  0  0  0  0  0
  147.1154  134.2583  161.2680 H   0  0  0  0  0  0  0  0  0  0  0  0
  145.7651  134.8280  160.2601 H   0  0  0  0  0  0  0  0  0  0  0  0
  147.6215  132.1004  157.5732 H   0  0  0  0  0  0  0  0  0  0  0  0
  148.4559  131.4771  156.1662 H   0  0  0  0  0  0  0  0  0  0  0  0
  151.2376  134.6827  154.7509 H   0  0  0  0  0  0  0  0  0  0  0  0
  151.1219  137.5144  156.7945 H   0  0  0  0  0  0  0  0  0  0  0  0
  148.4603  139.5128  153.9228 H   0  0  0  0  0  0  0  0  0  0  0  0
  149.3985  140.9974  153.7076 H   0  0  0  0  0  0  0  0  0  0  0  0
  148.2960  140.8403  155.0826 H   0  0  0  0  0  0  0  0  0  0  0  0
  152.4144  139.4516  157.1386 H   0  0  0  0  0  0  0  0  0  0  0  0
  149.9812  142.9207  159.0920 H   0  0  0  0  0  0  0  0  0  0  0  0
  150.4632  143.1578  157.4050 H   0  0  0  0  0  0  0  0  0  0  0  0
  151.4646  143.8072  158.7106 H   0  0  0  0  0  0  0  0  0  0  0  0
  1  2  1  0  0  0  0
  1 33  1  0  0  0  0
  1 34  1  0  0  0  0
  1 35  1  0  0  0  0
  2  3  2  0  0  0  0
  2  4  1  0  0  0  0
  4  5  1  0  0  0  0
  5  6  1  0  0  0  0
  5 36  1  0  0  0  0
  5 37  1  0  0  0  0
  6 28  1  0  0  0  0
  6  7  1  0  0  0  0
  6 38  1  0  0  0  0
  7  8  1  0  0  0  0
  8  9  1  0  0  0  0
  8 23  1  0  0  0  0
  8 39  1  0  0  0  0
  9 22  1  0  0  0  0
  9 10  1  0  0  0  0
 10 11  1  0  0  0  0
 10 15  2  0  0  0  0
 11 12  1  0  0  0  0
 11 13  2  0  0  0  0
 11 14  2  0  0  0  0
 12 40  1  0  0  0  0
 12 41  1  0  0  0  0
 12 42  1  0  0  0  0
 15 16  1  0  0  0  0
 16 22  2  0  0  0  0
 16 17  1  0  0  0  0
 17 18  1  0  0  0  0
 17 19  2  0  0  0  0
 18 43  1  0  0  0  0
 18 44  1  0  0  0  0
 19 20  1  0  0  0  0
 20 21  2  0  0  0  0
 20 45  1  0  0  0  0
 21 22  1  0  0  0  0
 23 24  1  0  0  0  0
 23 28  1  0  0  0  0
 23 46  1  0  0  0  0
 24 25  1  0  0  0  0
 25 26  1  0  0  0  0
 25 27  2  0  0  0  0
 26 47  1  0  0  0  0
 26 48  1  0  0  0  0
 26 49  1  0  0  0  0
 28 29  1  0  0  0  0
 28 50  1  0  0  0  0
 29 30  1  0  0  0  0
 30 31  1  0  0  0  0
 30 32  2  0  0  0  0
 31 51  1  0  0  0  0
 31 52  1  0  0  0  0
 31 53  1  0  0  0  0
M  END
> <s_m_source_file>
AV-unprocessed.smi

> <i_m_source_file_index>
103

> <i_lp_mmshare_version>
43012

> <i_f3d_flags>
0

> <s_epik_input>
W0NIM11DKD1PKU9bQ0gyXVtDQEBIXTFPW0NASF0oW0NAQEhdKE9DKD1PKVtDSDNdKVtDQEhdMU9DKD1PKVtDSDNdKW4oYyhuMilTKD1PKSg9TylbQ0gzXSljKGMyMyluW2NIXW5jM1tOSDJd

> <s_epik_cmdline>
J2VwaWtfcHl0aG9uJywgJy1waCcsICc3LjAnLCAnLXRuJywgJzgnLCAnLW1hJywgJzIwMCcsICctbWV0YWxfYmluZGluZycsICctaW1hZScsICc8aW5maWxlLm1hZT4nLCAnLW9tYWUnLCAnPG91dGZpbGUubWFlPic=

> <r_lp_tautomer_probability>
1

> <r_epik_Ionization_Penalty>
1.51338e-05

> <r_epik_Ionization_Penalty_Charging>
0

> <r_epik_Ionization_Penalty_Neutral>
1.51338e-05

> <r_epik_State_Penalty>
-0

> <r_epik_Charging_Adjusted_Penalty>
0

> <i_epik_Tot_Q>
0

> <i_epik_Tot_abs_Q>
0

> <r_epik_Metal_State_Penalty>
-0

> <b_epik_Metal_Only>
0

> <s_epik_Chemistry_Notes>
This compound has an ester and may undergo hydrolysis at high or low pH. This compound contains an acetal/aminal-like group ( X-CH(R)-Y where X, Y are N, S, or O) that may be acid/base labile, releasing an aldehyde.

> <s_lp_Force_Field>
OPLS_2005

> <r_lp_Energy>
16.6357

> <b_lp_Chiralities_Consistent>
1

> <s_lp_Variant>
AV-unprocessed.smi:103-3

> <Gold.Version>
5.8.1

> <Gold.Id.Protein>
6NUR|6NUR_protein|mol2

> <Gold.PLP.Fitness>
45.4528

> <Gold.PLP.PLP>
-35.6464

> <Gold.PLP.part.hbond>
-5.1378

> <Gold.PLP.part.metal>
0.0000

> <Gold.PLP.part.buried>
-8.7270

> <Gold.PLP.part.nonpolar>
-22.9107

> <Gold.PLP.part.repulsive>
0.0616

> <Gold.PLP.ligand.clash>
0.0160

> <Gold.PLP.ligand.torsion>
2.4402

> <Gold.PLP.Chemscore.Hbond>
4.0000

> <Gold.PLP.Chemscore.CHOScore>
0.0000

> <Gold.PLP.Chemscore.Metal>
0.0000

> <Gold.Chemscore.Hbonds>
donor molecule, donor type, donor heavy atom, donor atom, acceptor molecule, acceptor atom, score
      P1  H  6896  6909       L1     3  0.99
      P1  H  6931  6943       L1    13  1.00
      P1  H  6934  6947       L1    14  1.00
      P1  H  7989  7998       L1    27  1.00

> <Gold.PLP.Chemscore.Internal.Correction>
2.7029

> <Gold.Rescore>
     Score         DG    S(hbond)    S(metal)    S(lipo)     H(rot)  DE(clash)    DE(int)     intcor
      8.43     -12.39       3.68        0.00      46.81       4.25       0.05       3.91       ----

> <Gold.Chemscore.Fitness>
8.4344

> <Gold.Chemscore.DG>
-12.3919

> <Gold.Chemscore.ZeroCoef>
-5.4800

> <Gold.Chemscore.Hbond>
3.6837

> <Gold.Chemscore.Metal>
0.0000

> <Gold.Chemscore.Lipo>
46.8116

> <Gold.Chemscore.Internal_Hbond>
0.0000

> <Gold.Chemscore.DEClash>
0.0494

> <Gold.Chemscore.DEInternal>
3.9081

> <Gold.Chemscore.Rot>
4.2456

> <Gold.Chemscore.Internal.Correction>
   9.000000E+99

> <Gold.Chemscore.Hbonds>
donor molecule, donor type, donor heavy atom, donor atom, acceptor molecule, acceptor atom, score
      P1  H  6896  6909       L1     3  0.56
      P1  H  6931  6943       L1    13  0.97
      P1  H  6934  6947       L1    14  0.45
      P1  H  7989  7998       L1    27  0.94

> <Gold.Chemscore.Hbond.Weighted>
-12.3036

> <Gold.Chemscore.Metal.Weighted>
-0.0000

> <Gold.Chemscore.Lipo.Weighted>
-5.4770

> <Gold.Chemscore.Internal_Hbond.Weighted>
0.0000

> <Gold.Chemscore.DEClash.Weighted>
0.0494

> <Gold.Chemscore.DEInternal.Weighted>
3.9081

> <Gold.Chemscore.Rot.Weighted>
10.8687

> <Gold.Chemscore.Internal.Correction.Weighted>
   9.000000E+99

> <Gold.Protein.RotatedTorsions>
[ 6907 6896 6895 6894 ] final -179.76 input  -60.11 | X-H torsion
[ 7974 7965 7964 7962 ] final   35.47 input  175.53 | X-H torsion
[ 8008 7997 7996 7995 ] final  -47.21 input   59.86 | X-H torsion
[ 10167 10162 10161 10158 ] final -165.46 input  -65.29 | X-H torsion
[ 10718 10713 10712 10709 ] final   20.42 input   66.30 | X-H torsion
[ 10763 10752 10751 10750 ] final  -19.64 input  -60.55 | X-H torsion
[ 11005 11000 10999 10996 ] final   58.43 input  -57.11 | X-H torsion

> <Gold.Protein.ActiveResidues>
 VAL166  LYS551  ARG553  GLY616  TRP617  ASP618  TYR619  PRO620  LYS621  CYS622 
 ASP623  PHE694  ASN695  SER759  ASP760  ASP761  ALA762  ILE779  LEU786  VAL792 
 PHE793  MET794  SER795  GLU796  ALA797  LYS798  CYS799  TRP800  GLU811  SER814 

> <Gold.Protein.RotatedAtoms>
  151.6586  133.3318  159.3168 H   0  0  0  0  0  0  0  0  0  0  0  0  # atno 6907 bound_to 6896
  150.7925  134.6963  159.6534 H   0  0  0  0  0  0  0  0  0  0  0  0  # atno 6908 bound_to 6896
  152.4007  134.6295  160.0123 H   0  0  0  0  0  0  0  0  0  0  0  0  # atno 6909 bound_to 6896
  146.1281  139.6139  142.9245 H   0  0  0  0  0  0  0  0  0  0  0  0  # atno 7974 bound_to 7965
  154.4014  140.1352  156.4138 H   0  0  0  0  0  0  0  0  0  0  0  0  # atno 8008 bound_to 7997
  155.7708  140.3484  155.5225 H   0  0  0  0  0  0  0  0  0  0  0  0  # atno 8009 bound_to 7997
  155.8769  140.0981  157.1502 H   0  0  0  0  0  0  0  0  0  0  0  0  # atno 8010 bound_to 7997
  139.6181  144.0680  152.1906 H   0  0  0  0  0  0  0  0  0  0  0  0  # atno 10167 bound_to 10162
  157.1243  130.6563  149.5933 H   0  0  0  0  0  0  0  0  0  0  0  0  # atno 10718 bound_to 10713
  153.6079  135.6997  153.5358 H   0  0  0  0  0  0  0  0  0  0  0  0  # atno 10763 bound_to 10752
  153.3041  135.4120  155.1278 H   0  0  0  0  0  0  0  0  0  0  0  0  # atno 10764 bound_to 10752
  154.8569  135.3656  154.5617 H   0  0  0  0  0  0  0  0  0  0  0  0  # atno 10765 bound_to 10752
  140.0378  134.5918  155.9421 H   0  0  0  0  0  0  0  0  0  0  0  0  # atno 11005 bound_to 11000
  145.5321  141.0426  143.2377 LP  0  0  0  0  0  0  0  0  0  0  0  0  # atno 17320 bound_to 7965
  144.7662  139.6839  143.7214 LP  0  0  0  0  0  0  0  0  0  0  0  0  # atno 17321 bound_to 7965
  140.0315  144.6077  150.7484 LP  0  0  0  0  0  0  0  0  0  0  0  0  # atno 17342 bound_to 10162
  140.7364  143.2752  151.3763 LP  0  0  0  0  0  0  0  0  0  0  0  0  # atno 17343 bound_to 10162
  155.9821  130.4833  150.6866 LP  0  0  0  0  0  0  0  0  0  0  0  0  # atno 17370 bound_to 10713
  157.4449  131.0865  151.0906 LP  0  0  0  0  0  0  0  0  0  0  0  0  # atno 17371 bound_to 10713
  141.1867  133.6558  156.5249 LP  0  0  0  0  0  0  0  0  0  0  0  0  # atno 17394 bound_to 11000
  140.4119  134.7265  157.4841 LP  0  0  0  0  0  0  0  0  0  0  0  0  # atno 17395 bound_to 11000

$$$$
