AV-unprocessed.smi:1246|AV-procd|sdf|5242|dock2
  -GOLD-   22720 4353D 1   1.00000     0.00000
 Structure written by MMmdl.
 35 36  0  0  0  0  0  0  0  0  1 V2000
  143.5319  132.4111  149.5084 C   0  0  0  0  0  0  0  0  0  0  0  0
  144.6045  133.1291  150.2732 C   0  0  0  0  0  0  0  0  0  0  0  0
  144.7287  134.5296  150.5082 C   0  0  0  0  0  0  0  0  0  0  0  0
  145.8757  134.6098  151.2497 C   0  0  0  0  0  0  0  0  0  0  0  0
  146.4914  135.7100  151.7585 N   0  0  0  0  0  0  0  0  0  0  0  0
  145.9460  136.7610  152.3945 C   0  0  0  0  0  0  0  0  0  0  0  0
  144.7490  136.9026  152.6461 O   0  0  0  0  0  0  0  0  0  0  0  0
  146.8821  137.6596  152.7311 N   0  0  0  0  0  0  0  0  0  0  0  0
  146.6254  138.9213  153.4162 C   0  0  0  0  0  0  0  0  0  0  0  0
  147.9095  139.7521  153.5735 C   0  0  1  0  0  0  0  0  0  0  0  0
  147.7252  141.0196  154.4020 C   0  0  0  0  0  0  0  0  0  0  0  0
  149.1488  141.3155  154.8186 C   0  0  0  0  0  0  0  0  0  0  0  0
  149.7312  139.9172  155.0244 C   0  0  0  0  0  0  0  0  0  0  0  0
  148.9004  139.0215  154.2883 O   0  0  0  0  0  0  0  0  0  0  0  0
  146.3790  133.3407  151.4293 N   0  0  0  0  0  0  0  0  0  0  0  0
  147.5702  132.9146  152.1371 C   0  0  0  0  0  0  0  0  0  0  0  0
  145.5893  132.4279  150.8235 N   0  0  0  0  0  0  0  0  0  0  0  0
  142.8306  133.1140  149.0584 H   0  0  0  0  0  0  0  0  0  0  0  0
  142.9636  131.7471  150.1600 H   0  0  0  0  0  0  0  0  0  0  0  0
  143.9570  131.8083  148.7054 H   0  0  0  0  0  0  0  0  0  0  0  0
  144.0762  135.3235  150.1776 H   0  0  0  0  0  0  0  0  0  0  0  0
  147.4930  135.7364  151.6373 H   0  0  0  0  0  0  0  0  0  0  0  0
  147.8412  137.4659  152.4828 H   0  0  0  0  0  0  0  0  0  0  0  0
  145.8714  139.4904  152.8699 H   0  0  0  0  0  0  0  0  0  0  0  0
  146.1982  138.7012  154.3950 H   0  0  0  0  0  0  0  0  0  0  0  0
  148.3175  140.0218  152.5976 H   0  0  0  0  0  0  0  0  0  0  0  0
  147.2660  141.8331  153.8396 H   0  0  0  0  0  0  0  0  0  0  0  0
  147.1115  140.8193  155.2815 H   0  0  0  0  0  0  0  0  0  0  0  0
  149.6737  141.8230  154.0082 H   0  0  0  0  0  0  0  0  0  0  0  0
  149.2137  141.9403  155.7098 H   0  0  0  0  0  0  0  0  0  0  0  0
  150.7661  139.8572  154.6874 H   0  0  0  0  0  0  0  0  0  0  0  0
  149.7020  139.6343  156.0770 H   0  0  0  0  0  0  0  0  0  0  0  0
  147.5754  133.3444  153.1390 H   0  0  0  0  0  0  0  0  0  0  0  0
  148.4556  133.2529  151.5982 H   0  0  0  0  0  0  0  0  0  0  0  0
  147.5990  131.8273  152.2210 H   0  0  0  0  0  0  0  0  0  0  0  0
  1  2  1  0  0  0  0
  1 18  1  0  0  0  0
  1 19  1  0  0  0  0
  1 20  1  0  0  0  0
  2 17  2  0  0  0  0
  2  3  1  0  0  0  0
  3  4  2  0  0  0  0
  3 21  1  0  0  0  0
  4  5  1  0  0  0  0
  4 15  1  0  0  0  0
  5  6  1  0  0  0  0
  5 22  1  0  0  0  0
  6  7  2  0  0  0  0
  6  8  1  0  0  0  0
  8  9  1  0  0  0  0
  8 23  1  0  0  0  0
  9 10  1  0  0  0  0
  9 24  1  0  0  0  0
  9 25  1  0  0  0  0
 10 14  1  0  0  0  0
 10 11  1  0  0  0  0
 10 26  1  0  0  0  0
 11 12  1  0  0  0  0
 11 27  1  0  0  0  0
 11 28  1  0  0  0  0
 12 13  1  0  0  0  0
 12 29  1  0  0  0  0
 12 30  1  0  0  0  0
 13 14  1  0  0  0  0
 13 31  1  0  0  0  0
 13 32  1  0  0  0  0
 15 16  1  0  0  0  0
 15 17  1  0  0  0  0
 16 33  1  0  0  0  0
 16 34  1  0  0  0  0
 16 35  1  0  0  0  0
M  END
> <s_m_source_file>
AV-unprocessed.smi

> <i_m_source_file_index>
1246

> <i_lp_mmshare_version>
43012

> <i_f3d_flags>
0

> <s_epik_input>
W0NIM11jMVtjSF1jKG4objEpW0NIM10pW05IXUMoPU8pW05IXVtDSDJdW0NAQEhdMltDSDJdW0NIMl1bQ0gyXU8y

> <s_epik_cmdline>
J2VwaWtfcHl0aG9uJywgJy1waCcsICc3LjAnLCAnLXRuJywgJzgnLCAnLW1hJywgJzIwMCcsICctbWV0YWxfYmluZGluZycsICctaW1hZScsICc8aW5maWxlLm1hZT4nLCAnLW9tYWUnLCAnPG91dGZpbGUubWFlPic=

> <r_lp_tautomer_probability>
1

> <r_epik_Ionization_Penalty>
9.6187e-05

> <r_epik_Ionization_Penalty_Charging>
0

> <r_epik_Ionization_Penalty_Neutral>
9.6187e-05

> <r_epik_State_Penalty>
-0

> <r_epik_Charging_Adjusted_Penalty>
0

> <i_epik_Tot_Q>
0

> <i_epik_Tot_abs_Q>
0

> <r_epik_Metal_State_Penalty>
-0

> <b_epik_Metal_Only>
0

> <s_lp_Force_Field>
OPLS_2005

> <r_lp_Energy>
18.0702

> <b_lp_Chiralities_Consistent>
1

> <s_lp_Variant>
AV-unprocessed.smi:1246-2

> <Gold.Version>
5.8.1

> <Gold.Id.Protein>
6NUR|6NUR_protein|mol2

> <Gold.PLP.Fitness>
35.0232

> <Gold.PLP.PLP>
-30.0383

> <Gold.PLP.part.hbond>
-1.9146

> <Gold.PLP.part.metal>
0.0000

> <Gold.PLP.part.buried>
-0.0397

> <Gold.PLP.part.nonpolar>
-29.2978

> <Gold.PLP.part.repulsive>
0.6252

> <Gold.PLP.ligand.clash>
0.0000

> <Gold.PLP.ligand.torsion>
0.3806

> <Gold.PLP.Chemscore.Hbond>
1.9120

> <Gold.PLP.Chemscore.CHOScore>
0.0000

> <Gold.PLP.Chemscore.Metal>
0.0000

> <Gold.Chemscore.Hbonds>
donor molecule, donor type, donor heavy atom, donor atom, acceptor molecule, acceptor atom, score
      L1  H     5    22       P1  7948  0.98
      L1  H     8    23       P1  7948  0.90

> <Gold.PLP.Chemscore.Internal.Correction>
0.0100

> <Gold.Rescore>
     Score         DG    S(hbond)    S(metal)    S(lipo)     H(rot)  DE(clash)    DE(int)     intcor
     15.79     -16.29       1.96        0.00      63.82       1.25       0.11       0.39       ----

> <Gold.Chemscore.Fitness>
15.7860

> <Gold.Chemscore.DG>
-16.2874

> <Gold.Chemscore.ZeroCoef>
-5.4800

> <Gold.Chemscore.Hbond>
1.9566

> <Gold.Chemscore.Metal>
0.0000

> <Gold.Chemscore.Lipo>
63.8186

> <Gold.Chemscore.Internal_Hbond>
0.0000

> <Gold.Chemscore.DEClash>
0.1120

> <Gold.Chemscore.DEInternal>
0.3893

> <Gold.Chemscore.Rot>
1.2478

> <Gold.Chemscore.Internal.Correction>
   9.000000E+99

> <Gold.Chemscore.Hbonds>
donor molecule, donor type, donor heavy atom, donor atom, acceptor molecule, acceptor atom, score
      L1  H     5    22       P1  7948  0.90
      L1  H     8    23       P1  7948  0.88

> <Gold.Chemscore.Hbond.Weighted>
-6.5350

> <Gold.Chemscore.Metal.Weighted>
-0.0000

> <Gold.Chemscore.Lipo.Weighted>
-7.4668

> <Gold.Chemscore.Internal_Hbond.Weighted>
0.0000

> <Gold.Chemscore.DEClash.Weighted>
0.1120

> <Gold.Chemscore.DEInternal.Weighted>
0.3893

> <Gold.Chemscore.Rot.Weighted>
3.1944

> <Gold.Chemscore.Internal.Correction.Weighted>
   9.000000E+99

> <Gold.Protein.RotatedTorsions>
[ 6907 6896 6895 6894 ] final  -50.74 input  -60.11 | X-H torsion
[ 7974 7965 7964 7962 ] final  122.59 input  175.53 | X-H torsion
[ 8008 7997 7996 7995 ] final  -80.38 input   59.86 | X-H torsion
[ 10167 10162 10161 10158 ] final  114.31 input  -65.29 | X-H torsion
[ 10718 10713 10712 10709 ] final -121.04 input   66.30 | X-H torsion
[ 10763 10752 10751 10750 ] final   14.73 input  -60.55 | X-H torsion
[ 11005 11000 10999 10996 ] final  -56.21 input  -57.11 | X-H torsion

> <Gold.Protein.ActiveResidues>
 VAL166  LYS551  ARG553  GLY616  TRP617  ASP618  TYR619  PRO620  LYS621  CYS622 
 ASP623  PHE694  ASN695  SER759  ASP760  ASP761  ALA762  ILE779  LEU786  VAL792 
 PHE793  MET794  SER795  GLU796  ALA797  LYS798  CYS799  TRP800  GLU811  SER814 

> <Gold.Protein.RotatedAtoms>
  150.8678  134.8045  159.7131 H   0  0  0  0  0  0  0  0  0  0  0  0  # atno 6907 bound_to 6896
  152.4693  134.4995  159.9730 H   0  0  0  0  0  0  0  0  0  0  0  0  # atno 6908 bound_to 6896
  151.5089  133.3450  159.2917 H   0  0  0  0  0  0  0  0  0  0  0  0  # atno 6909 bound_to 6896
  145.1058  139.3487  143.4788 H   0  0  0  0  0  0  0  0  0  0  0  0  # atno 7974 bound_to 7965
  154.5877  140.0664  156.9195 H   0  0  0  0  0  0  0  0  0  0  0  0  # atno 8008 bound_to 7997
  155.2350  140.3340  155.4280 H   0  0  0  0  0  0  0  0  0  0  0  0  # atno 8009 bound_to 7997
  156.2234  140.1809  156.7406 H   0  0  0  0  0  0  0  0  0  0  0  0  # atno 8010 bound_to 7997
  139.6398  144.7123  151.2260 H   0  0  0  0  0  0  0  0  0  0  0  0  # atno 10167 bound_to 10162
  156.1305  130.6392  150.9613 H   0  0  0  0  0  0  0  0  0  0  0  0  # atno 10718 bound_to 10713
  153.1593  135.6793  153.8766 H   0  0  0  0  0  0  0  0  0  0  0  0  # atno 10763 bound_to 10752
  153.8167  135.3135  155.3407 H   0  0  0  0  0  0  0  0  0  0  0  0  # atno 10764 bound_to 10752
  154.7921  135.4829  154.0164 H   0  0  0  0  0  0  0  0  0  0  0  0  # atno 10765 bound_to 10752
  141.1110  133.6610  156.4586 H   0  0  0  0  0  0  0  0  0  0  0  0  # atno 11005 bound_to 11000
  146.3528  140.0955  142.8610 LP  0  0  0  0  0  0  0  0  0  0  0  0  # atno 17320 bound_to 7965
  145.0903  140.9280  143.4773 LP  0  0  0  0  0  0  0  0  0  0  0  0  # atno 17321 bound_to 7965
  140.7485  143.6332  150.8404 LP  0  0  0  0  0  0  0  0  0  0  0  0  # atno 17342 bound_to 10162
  139.9968  143.5788  152.2890 LP  0  0  0  0  0  0  0  0  0  0  0  0  # atno 17343 bound_to 10162
  157.6483  131.0901  150.8105 LP  0  0  0  0  0  0  0  0  0  0  0  0  # atno 17370 bound_to 10713
  156.8190  130.4978  149.5345 LP  0  0  0  0  0  0  0  0  0  0  0  0  # atno 17371 bound_to 10713
  140.4775  134.6695  157.5157 LP  0  0  0  0  0  0  0  0  0  0  0  0  # atno 17394 bound_to 11000
  140.0004  134.6846  155.9540 LP  0  0  0  0  0  0  0  0  0  0  0  0  # atno 17395 bound_to 11000

$$$$
