AV-unprocessed.smi:845|AV-procd|sdf|3927|dock1
  -GOLD-   22720 1383D 1   1.00000     0.00000
 Structure written by MMmdl.
 43 44  0  0  0  0  0  0  0  0  2 V2000
  147.1008  140.0265  155.8177 C   0  0  0  0  0  0  0  0  0  0  0  0
  147.6483  140.4609  154.4470 C   0  0  0  0  0  0  0  0  0  0  0  0
  146.8410  141.6448  153.8866 C   0  0  0  0  0  0  0  0  0  0  0  0
  147.7993  139.2549  153.4755 C   0  0  2  0  0  0  0  0  0  0  0  0
  146.4732  138.5092  153.1580 C   0  0  0  0  0  0  0  0  0  0  0  0
  146.6808  137.2717  152.4122 N   0  0  0  0  0  0  0  0  0  0  0  0
  145.7045  136.4358  152.0305 C   0  0  0  0  0  0  0  0  0  0  0  0
  144.5131  136.6340  152.2714 O   0  0  0  0  0  0  0  0  0  0  0  0
  146.1995  135.3756  151.3686 N   0  0  0  0  0  0  0  0  0  0  0  0
  145.4914  134.2683  150.8319 C   0  0  0  0  0  0  0  0  0  0  0  0
  144.1573  134.1789  150.7810 N   0  0  0  0  0  0  0  0  0  0  0  0
  143.7338  132.9798  150.2020 C   0  0  0  0  0  0  0  0  0  0  0  0
  144.7666  132.1620  149.8159 C   0  0  0  0  0  0  0  0  0  0  0  0
  146.3212  132.8687  150.1676 S   0  0  0  0  0  0  0  0  0  0  0  0
  148.9124  138.3467  153.8956 N   0  3  0  0  0  0  0  0  0  0  0  0
  150.2304  138.9843  154.1542 C   0  0  0  0  0  0  0  0  0  0  0  0
  151.2962  137.9058  154.4056 C   0  0  0  0  0  0  0  0  0  0  0  0
  150.9012  137.1047  155.5127 O   0  0  0  0  0  0  0  0  0  0  0  0
  149.6737  136.4277  155.2714 C   0  0  0  0  0  0  0  0  0  0  0  0
  148.5509  137.4500  155.0210 C   0  0  0  0  0  0  0  0  0  0  0  0
  146.0766  139.6597  155.7450 H   0  0  0  0  0  0  0  0  0  0  0  0
  147.1019  140.8600  156.5207 H   0  0  0  0  0  0  0  0  0  0  0  0
  147.7091  139.2331  156.2532 H   0  0  0  0  0  0  0  0  0  0  0  0
  148.6507  140.8423  154.6434 H   0  0  0  0  0  0  0  0  0  0  0  0
  145.7861  141.3958  153.7740 H   0  0  0  0  0  0  0  0  0  0  0  0
  147.2196  141.9733  152.9192 H   0  0  0  0  0  0  0  0  0  0  0  0
  146.8970  142.5009  154.5599 H   0  0  0  0  0  0  0  0  0  0  0  0
  148.1123  139.7063  152.5328 H   0  0  0  0  0  0  0  0  0  0  0  0
  145.9370  138.2813  154.0809 H   0  0  0  0  0  0  0  0  0  0  0  0
  145.8055  139.1307  152.5622 H   0  0  0  0  0  0  0  0  0  0  0  0
  147.6330  137.0366  152.1714 H   0  0  0  0  0  0  0  0  0  0  0  0
  147.2003  135.3528  151.2389 H   0  0  0  0  0  0  0  0  0  0  0  0
  142.6752  132.7896  150.1033 H   0  0  0  0  0  0  0  0  0  0  0  0
  144.7070  131.1906  149.3479 H   0  0  0  0  0  0  0  0  0  0  0  0
  150.5331  139.6081  153.3149 H   0  0  0  0  0  0  0  0  0  0  0  0
  150.1715  139.6327  155.0294 H   0  0  0  0  0  0  0  0  0  0  0  0
  151.4418  137.2846  153.5203 H   0  0  0  0  0  0  0  0  0  0  0  0
  152.2558  138.3711  154.6314 H   0  0  0  0  0  0  0  0  0  0  0  0
  149.7804  135.7529  154.4204 H   0  0  0  0  0  0  0  0  0  0  0  0
  149.4342  135.8106  156.1376 H   0  0  0  0  0  0  0  0  0  0  0  0
  148.3699  138.0423  155.9192 H   0  0  0  0  0  0  0  0  0  0  0  0
  147.6270  136.9160  154.7951 H   0  0  0  0  0  0  0  0  0  0  0  0
  149.0519  137.7299  153.1080 H   0  0  0  0  0  0  0  0  0  0  0  0
  1  2  1  0  0  0  0
  1 21  1  0  0  0  0
  1 22  1  0  0  0  0
  1 23  1  0  0  0  0
  2  3  1  0  0  0  0
  2  4  1  0  0  0  0
  2 24  1  0  0  0  0
  3 25  1  0  0  0  0
  3 26  1  0  0  0  0
  3 27  1  0  0  0  0
  4  5  1  0  0  0  0
  4 15  1  0  0  0  0
  4 28  1  0  0  0  0
  5  6  1  0  0  0  0
  5 29  1  0  0  0  0
  5 30  1  0  0  0  0
  6  7  1  0  0  0  0
  6 31  1  0  0  0  0
  7  8  2  0  0  0  0
  7  9  1  0  0  0  0
  9 10  1  0  0  0  0
  9 32  1  0  0  0  0
 10 14  1  0  0  0  0
 10 11  2  0  0  0  0
 11 12  1  0  0  0  0
 12 13  2  0  0  0  0
 12 33  1  0  0  0  0
 13 14  1  0  0  0  0
 13 34  1  0  0  0  0
 15 20  1  0  0  0  0
 15 16  1  0  0  0  0
 15 43  1  0  0  0  0
 16 17  1  0  0  0  0
 16 35  1  0  0  0  0
 16 36  1  0  0  0  0
 17 18  1  0  0  0  0
 17 37  1  0  0  0  0
 17 38  1  0  0  0  0
 18 19  1  0  0  0  0
 19 20  1  0  0  0  0
 19 39  1  0  0  0  0
 19 40  1  0  0  0  0
 20 41  1  0  0  0  0
 20 42  1  0  0  0  0
M  CHG  1  15   1
M  END
> <s_m_source_file>
AV-unprocessed.smi

> <i_m_source_file_index>
845

> <i_lp_mmshare_version>
43012

> <i_f3d_flags>
0

> <s_epik_input>
W0NIMl0xW0NIMl1PW0NIMl1bQ0gyXU4xW0NASF0oW0NIXShbQ0gzXSlbQ0gzXSlbQ0gyXVtOSF1DKD1PKVtOSF1jMm5bY0hdW2NIXXMy

> <s_epik_cmdline>
J2VwaWtfcHl0aG9uJywgJy1waCcsICc3LjAnLCAnLXRuJywgJzgnLCAnLW1hJywgJzIwMCcsICctbWV0YWxfYmluZGluZycsICctaW1hZScsICc8aW5maWxlLm1hZT4nLCAnLW9tYWUnLCAnPG91dGZpbGUubWFlPic=

> <r_lp_tautomer_probability>
0.999

> <r_epik_Ionization_Penalty>
0.398341

> <r_epik_Ionization_Penalty_Charging>
0.398119

> <r_epik_Ionization_Penalty_Neutral>
0.000222117

> <r_epik_State_Penalty>
0.397286

> <r_epik_Charging_Adjusted_Penalty>
0.795404

> <i_epik_Tot_Q>
1

> <i_epik_Tot_abs_Q>
1

> <r_epik_Metal_State_Penalty>
0.407542

> <b_epik_Metal_Only>
0

> <s_lp_Force_Field>
OPLS_2005

> <r_lp_Energy>
23.5248

> <b_lp_Chiralities_Consistent>
1

> <s_lp_Variant>
AV-unprocessed.smi:845-1

> <Gold.Version>
5.8.1

> <Gold.Id.Protein>
6NUR|6NUR_protein|mol2

> <Gold.PLP.Fitness>
46.6063

> <Gold.PLP.PLP>
-32.4685

> <Gold.PLP.part.hbond>
-3.2303

> <Gold.PLP.part.metal>
0.0000

> <Gold.PLP.part.buried>
-3.8314

> <Gold.PLP.part.nonpolar>
-26.2213

> <Gold.PLP.part.repulsive>
0.5901

> <Gold.PLP.ligand.clash>
0.0000

> <Gold.PLP.ligand.torsion>
0.3356

> <Gold.PLP.Chemscore.Hbond>
3.8960

> <Gold.PLP.Chemscore.CHOScore>
0.9064

> <Gold.PLP.Chemscore.Metal>
0.0000

> <Gold.Chemscore.Hbonds>
donor molecule, donor type, donor heavy atom, donor atom, acceptor molecule, acceptor atom, score
      L1  H     6    31       P1  7948  1.00
      L1  H     9    32       P1  7948  0.90
      L1  H    15    43       P1  7948  2.00
      L1  C    12    33       P1 10186  0.92

> <Gold.PLP.Chemscore.Internal.Correction>
0.4019

> <Gold.Rescore>
     Score         DG    S(hbond)    S(metal)    S(lipo)     H(rot)  DE(clash)    DE(int)     intcor
     17.29     -19.09       2.76        0.00      77.02       1.80       0.07       1.72       ----

> <Gold.Chemscore.Fitness>
17.2908

> <Gold.Chemscore.DG>
-19.0861

> <Gold.Chemscore.ZeroCoef>
-5.4800

> <Gold.Chemscore.Hbond>
2.7588

> <Gold.Chemscore.Metal>
0.0000

> <Gold.Chemscore.Lipo>
77.0201

> <Gold.Chemscore.Internal_Hbond>
0.0000

> <Gold.Chemscore.DEClash>
0.0750

> <Gold.Chemscore.DEInternal>
1.7203

> <Gold.Chemscore.Rot>
1.8046

> <Gold.Chemscore.Internal.Correction>
   9.000000E+99

> <Gold.Chemscore.Hbonds>
donor molecule, donor type, donor heavy atom, donor atom, acceptor molecule, acceptor atom, score
      L1  H     6    31       P1  7948  0.96
      L1  H     9    32       P1  7948  0.69
      L1  H    15    43       P1  7948  0.99

> <Gold.Chemscore.Hbond.Weighted>
-9.2145

> <Gold.Chemscore.Metal.Weighted>
-0.0000

> <Gold.Chemscore.Lipo.Weighted>
-9.0114

> <Gold.Chemscore.Internal_Hbond.Weighted>
0.0000

> <Gold.Chemscore.DEClash.Weighted>
0.0750

> <Gold.Chemscore.DEInternal.Weighted>
1.7203

> <Gold.Chemscore.Rot.Weighted>
4.6197

> <Gold.Chemscore.Internal.Correction.Weighted>
   9.000000E+99

> <Gold.Protein.RotatedTorsions>
[ 6907 6896 6895 6894 ] final  -52.05 input  -60.11 | X-H torsion
[ 7974 7965 7964 7962 ] final   -3.15 input  175.53 | X-H torsion
[ 8008 7997 7996 7995 ] final  115.38 input   59.86 | X-H torsion
[ 10167 10162 10161 10158 ] final  -59.11 input  -65.29 | X-H torsion
[ 10718 10713 10712 10709 ] final  -12.49 input   66.30 | X-H torsion
[ 10763 10752 10751 10750 ] final  131.67 input  -60.55 | X-H torsion
[ 11005 11000 10999 10996 ] final  161.06 input  -57.11 | X-H torsion

> <Gold.Protein.ActiveResidues>
 VAL166  LYS551  ARG553  GLY616  TRP617  ASP618  TYR619  PRO620  LYS621  CYS622 
 ASP623  PHE694  ASN695  SER759  ASP760  ASP761  ALA762  ILE779  LEU786  VAL792 
 PHE793  MET794  SER795  GLU796  ALA797  LYS798  CYS799  TRP800  GLU811  SER814 

> <Gold.Protein.RotatedAtoms>
  150.8554  134.7891  159.7041 H   0  0  0  0  0  0  0  0  0  0  0  0  # atno 6907 bound_to 6896
  152.4607  134.5187  159.9786 H   0  0  0  0  0  0  0  0  0  0  0  0  # atno 6908 bound_to 6896
  151.5300  133.3412  159.2952 H   0  0  0  0  0  0  0  0  0  0  0  0  # atno 6909 bound_to 6896
  146.2394  140.1677  142.8332 H   0  0  0  0  0  0  0  0  0  0  0  0  # atno 7974 bound_to 7965
  156.2378  140.2939  156.0360 H   0  0  0  0  0  0  0  0  0  0  0  0  # atno 8008 bound_to 7997
  155.2040  140.0410  157.2939 H   0  0  0  0  0  0  0  0  0  0  0  0  # atno 8009 bound_to 7997
  154.6111  140.2452  155.7675 H   0  0  0  0  0  0  0  0  0  0  0  0  # atno 8010 bound_to 7997
  140.6156  143.2401  151.5606 H   0  0  0  0  0  0  0  0  0  0  0  0  # atno 10167 bound_to 10162
  156.6439  130.4935  149.6085 H   0  0  0  0  0  0  0  0  0  0  0  0  # atno 10718 bound_to 10713
  153.7781  135.3172  155.3362 H   0  0  0  0  0  0  0  0  0  0  0  0  # atno 10763 bound_to 10752
  154.8171  135.4628  154.0678 H   0  0  0  0  0  0  0  0  0  0  0  0  # atno 10764 bound_to 10752
  153.1958  135.6915  153.8379 H   0  0  0  0  0  0  0  0  0  0  0  0  # atno 10765 bound_to 10752
  140.2120  134.8260  157.3131 H   0  0  0  0  0  0  0  0  0  0  0  0  # atno 11005 bound_to 11000
  145.0037  140.8654  143.5266 LP  0  0  0  0  0  0  0  0  0  0  0  0  # atno 17320 bound_to 7965
  145.1701  139.2409  143.5347 LP  0  0  0  0  0  0  0  0  0  0  0  0  # atno 17321 bound_to 7965
  139.5396  144.2686  152.1322 LP  0  0  0  0  0  0  0  0  0  0  0  0  # atno 17342 bound_to 10162
  140.1894  144.4766  150.6487 LP  0  0  0  0  0  0  0  0  0  0  0  0  # atno 17343 bound_to 10162
  156.2137  130.6695  151.1297 LP  0  0  0  0  0  0  0  0  0  0  0  0  # atno 17370 bound_to 10713
  157.7162  131.0708  150.6316 LP  0  0  0  0  0  0  0  0  0  0  0  0  # atno 17371 bound_to 10713
  140.1940  134.4336  155.7699 LP  0  0  0  0  0  0  0  0  0  0  0  0  # atno 17394 bound_to 11000
  141.2226  133.7040  156.8075 LP  0  0  0  0  0  0  0  0  0  0  0  0  # atno 17395 bound_to 11000

$$$$
