AV-unprocessed.smi:244|AV-procd|sdf|1867|dock8
  -GOLD-   2262020503D 1   1.00000     0.00000
 Structure written by MMmdl.
 57 61  0  0  0  0  0  0  0  0  2 V2000
  146.6078  138.0032  152.9066 C   0  0  0  0  0  0  0  0  0  0  0  0
  147.2316  136.9684  153.7583 N   0  3  2  0  0  0  0  0  0  0  0  0
  146.4603  135.7009  153.7685 C   0  0  0  0  0  0  0  0  0  0  0  0
  147.2241  134.6058  154.5283 C   0  0  0  0  0  0  0  0  0  0  0  0
  147.5781  135.0659  155.9595 C   0  0  1  0  0  0  0  0  0  0  0  0
  148.3222  134.0851  156.6854 O   0  0  0  0  0  0  0  0  0  0  0  0
  149.6593  133.8907  156.2282 C   0  0  0  0  0  0  0  0  0  0  0  0
  150.4198  135.2244  156.2389 C   0  0  0  0  0  0  0  0  0  0  0  0
  149.6929  136.2270  155.4691 N   0  0  0  0  0  0  0  0  0  0  0  0
  150.4127  137.3539  155.2804 C   0  0  0  0  0  0  0  0  0  0  0  0
  151.4973  137.2599  154.4732 N   0  0  0  0  0  0  0  0  0  0  0  0
  152.2422  138.3428  154.2307 C   0  0  0  0  0  0  0  0  0  0  0  0
  152.0765  139.5880  154.6818 N   0  0  0  0  0  0  0  0  0  0  0  0
  150.9809  139.6843  155.4888 C   0  0  0  0  0  0  0  0  0  0  0  0
  150.0994  138.6244  155.8399 C   0  0  0  0  0  0  0  0  0  0  0  0
  149.0959  139.0975  156.6761 N   0  0  0  0  0  0  0  0  0  0  0  0
  149.3748  140.3643  156.8207 C   0  0  0  0  0  0  0  0  0  0  0  0
  150.4830  140.8039  156.1316 N   0  0  0  0  0  0  0  0  0  0  0  0
  151.0136  142.1583  156.1047 C   0  0  0  0  0  0  0  0  0  0  0  0
  151.1410  142.8142  157.5026 C   0  0  0  0  0  0  0  0  0  0  0  0
  149.8343  143.1019  157.9697 O   0  0  0  0  0  0  0  0  0  0  0  0
  151.8327  141.8919  158.5306 C   0  0  0  0  0  0  0  0  0  0  0  0
  152.1497  142.6250  159.8464 C   0  0  0  0  0  0  0  0  0  0  0  0
  152.9233  143.7894  159.5851 O   0  0  0  0  0  0  0  0  0  0  0  0
  152.2314  144.7400  158.7848 C   0  0  0  0  0  0  0  0  0  0  0  0
  151.9250  144.1383  157.4019 C   0  0  0  0  0  0  0  0  0  0  0  0
  148.3220  136.4219  155.9508 C   0  0  1  0  0  0  0  0  0  0  0  0
  147.5060  137.4556  155.1333 C   0  0  0  0  0  0  0  0  0  0  0  0
  145.6287  138.2902  153.2925 H   0  0  0  0  0  0  0  0  0  0  0  0
  146.4811  137.6376  151.8871 H   0  0  0  0  0  0  0  0  0  0  0  0
  147.2349  138.8943  152.8628 H   0  0  0  0  0  0  0  0  0  0  0  0
  145.4833  135.8681  154.2247 H   0  0  0  0  0  0  0  0  0  0  0  0
  146.2799  135.3729  152.7439 H   0  0  0  0  0  0  0  0  0  0  0  0
  146.6281  133.6937  154.5673 H   0  0  0  0  0  0  0  0  0  0  0  0
  148.1223  134.3632  153.9614 H   0  0  0  0  0  0  0  0  0  0  0  0
  146.6409  135.1982  156.5017 H   0  0  0  0  0  0  0  0  0  0  0  0
  150.1528  133.1776  156.8887 H   0  0  0  0  0  0  0  0  0  0  0  0
  149.6696  133.4438  155.2345 H   0  0  0  0  0  0  0  0  0  0  0  0
  150.5423  135.5635  157.2682 H   0  0  0  0  0  0  0  0  0  0  0  0
  151.4197  135.0856  155.8254 H   0  0  0  0  0  0  0  0  0  0  0  0
  153.0911  138.1920  153.5800 H   0  0  0  0  0  0  0  0  0  0  0  0
  148.7699  141.0205  157.4299 H   0  0  0  0  0  0  0  0  0  0  0  0
  151.9893  142.1255  155.6179 H   0  0  0  0  0  0  0  0  0  0  0  0
  150.3752  142.7636  155.4593 H   0  0  0  0  0  0  0  0  0  0  0  0
  149.4119  143.6747  157.3479 H   0  0  0  0  0  0  0  0  0  0  0  0
  151.2202  141.0148  158.7417 H   0  0  0  0  0  0  0  0  0  0  0  0
  152.7663  141.5193  158.1071 H   0  0  0  0  0  0  0  0  0  0  0  0
  151.2351  142.8937  160.3770 H   0  0  0  0  0  0  0  0  0  0  0  0
  152.7159  141.9703  160.5089 H   0  0  0  0  0  0  0  0  0  0  0  0
  151.3178  145.0613  159.2873 H   0  0  0  0  0  0  0  0  0  0  0  0
  152.8575  145.6255  158.6744 H   0  0  0  0  0  0  0  0  0  0  0  0
  152.8711  143.9579  156.8899 H   0  0  0  0  0  0  0  0  0  0  0  0
  151.3811  144.8603  156.7913 H   0  0  0  0  0  0  0  0  0  0  0  0
  148.3869  136.7793  156.9797 H   0  0  0  0  0  0  0  0  0  0  0  0
  148.0183  138.4177  155.0951 H   0  0  0  0  0  0  0  0  0  0  0  0
  146.5557  137.6465  155.6344 H   0  0  0  0  0  0  0  0  0  0  0  0
  148.1289  136.7607  153.3425 H   0  0  0  0  0  0  0  0  0  0  0  0
  1  2  1  0  0  0  0
  1 29  1  0  0  0  0
  1 30  1  0  0  0  0
  1 31  1  0  0  0  0
  2 28  1  0  0  0  0
  2  3  1  0  0  0  0
  2 57  1  0  0  0  0
  3  4  1  0  0  0  0
  3 32  1  0  0  0  0
  3 33  1  0  0  0  0
  4  5  1  0  0  0  0
  4 34  1  0  0  0  0
  4 35  1  0  0  0  0
  5 27  1  0  0  0  0
  5  6  1  0  0  0  0
  5 36  1  0  0  0  0
  6  7  1  0  0  0  0
  7  8  1  0  0  0  0
  7 37  1  0  0  0  0
  7 38  1  0  0  0  0
  8  9  1  0  0  0  0
  8 39  1  0  0  0  0
  8 40  1  0  0  0  0
  9 10  1  0  0  0  0
  9 27  1  0  0  0  0
 10 15  1  0  0  0  0
 10 11  2  0  0  0  0
 11 12  1  0  0  0  0
 12 13  2  0  0  0  0
 12 41  1  0  0  0  0
 13 14  1  0  0  0  0
 14 18  1  0  0  0  0
 14 15  2  0  0  0  0
 15 16  1  0  0  0  0
 16 17  2  0  0  0  0
 17 18  1  0  0  0  0
 17 42  1  0  0  0  0
 18 19  1  0  0  0  0
 19 20  1  0  0  0  0
 19 43  1  0  0  0  0
 19 44  1  0  0  0  0
 20 26  1  0  0  0  0
 20 21  1  0  0  0  0
 20 22  1  0  0  0  0
 21 45  1  0  0  0  0
 22 23  1  0  0  0  0
 22 46  1  0  0  0  0
 22 47  1  0  0  0  0
 23 24  1  0  0  0  0
 23 48  1  0  0  0  0
 23 49  1  0  0  0  0
 24 25  1  0  0  0  0
 25 26  1  0  0  0  0
 25 50  1  0  0  0  0
 25 51  1  0  0  0  0
 26 52  1  0  0  0  0
 26 53  1  0  0  0  0
 27 28  1  0  0  0  0
 27 54  1  0  0  0  0
 28 55  1  0  0  0  0
 28 56  1  0  0  0  0
M  CHG  1   2   1
M  END
> <s_m_source_file>
AV-unprocessed.smi

> <i_m_source_file_index>
244

> <i_lp_mmshare_version>
43012

> <i_f3d_flags>
0

> <s_epik_input>
W0NIMl0xW0NIMl1OKFtDSDNdKVtDSDJdW0NAQEhdKFtDQEhdMTIpTihbQ0gyXVtDSDJdTzIpYyhuW2NIXW4zKWMoYzM0KW5bY0hdbjRbQ0gyXUM1KFtPSF0pW0NIMl1bQ0gyXU9bQ0gyXVtDSDJdNQ==

> <s_epik_cmdline>
J2VwaWtfcHl0aG9uJywgJy1waCcsICc3LjAnLCAnLXRuJywgJzgnLCAnLW1hJywgJzIwMCcsICctbWV0YWxfYmluZGluZycsICctaW1hZScsICc8aW5maWxlLm1hZT4nLCAnLW9tYWUnLCAnPG91dGZpbGUubWFlPic=

> <r_lp_tautomer_probability>
1

> <r_epik_Ionization_Penalty>
0.0136215

> <r_epik_Ionization_Penalty_Charging>
0.0131385

> <r_epik_Ionization_Penalty_Neutral>
0.000483022

> <r_epik_State_Penalty>
0.0104001

> <r_epik_Charging_Adjusted_Penalty>
0.0235387

> <i_epik_Tot_Q>
1

> <i_epik_Tot_abs_Q>
1

> <r_epik_Metal_State_Penalty>
0.0104469

> <b_epik_Metal_Only>
0

> <s_lp_Force_Field>
OPLS_2005

> <r_lp_Energy>
48.7962

> <b_lp_Chiralities_Consistent>
1

> <s_lp_Variant>
AV-unprocessed.smi:244-4

> <Gold.Version>
5.8.1

> <Gold.Id.Protein>
6NUR|6NUR_protein|mol2

> <Gold.PLP.Fitness>
48.6026

> <Gold.PLP.PLP>
-38.8451

> <Gold.PLP.part.hbond>
-3.6605

> <Gold.PLP.part.metal>
0.0000

> <Gold.PLP.part.buried>
-6.2691

> <Gold.PLP.part.nonpolar>
-28.6213

> <Gold.PLP.part.repulsive>
0.3355

> <Gold.PLP.ligand.clash>
2.2731

> <Gold.PLP.ligand.torsion>
0.5464

> <Gold.PLP.Chemscore.Hbond>
4.3290

> <Gold.PLP.Chemscore.CHOScore>
0.0000

> <Gold.PLP.Chemscore.Metal>
0.0000

> <Gold.Chemscore.Hbonds>
donor molecule, donor type, donor heavy atom, donor atom, acceptor molecule, acceptor atom, score
      L1  H     2    57       P1  7948  1.79
      L1  H    21    45       P1  8028  0.98
      P1  H  7989  7998       L1    13  0.86
      P1  H 10752 10763       L1    11  0.67

> <Gold.PLP.Chemscore.Internal.Correction>
0.1363

> <Gold.Rescore>
     Score         DG    S(hbond)    S(metal)    S(lipo)     H(rot)  DE(clash)    DE(int)     intcor
     11.88     -17.66       2.08        0.00      90.35       2.09       0.10       5.67       ----

> <Gold.Chemscore.Fitness>
11.8814

> <Gold.Chemscore.DG>
-17.6571

> <Gold.Chemscore.ZeroCoef>
-5.4800

> <Gold.Chemscore.Hbond>
2.0835

> <Gold.Chemscore.Metal>
0.0000

> <Gold.Chemscore.Lipo>
90.3540

> <Gold.Chemscore.Internal_Hbond>
0.0000

> <Gold.Chemscore.DEClash>
0.1044

> <Gold.Chemscore.DEInternal>
5.6714

> <Gold.Chemscore.Rot>
2.0911

> <Gold.Chemscore.Internal.Correction>
   9.000000E+99

> <Gold.Chemscore.Hbonds>
donor molecule, donor type, donor heavy atom, donor atom, acceptor molecule, acceptor atom, score
      L1  H     2    57       P1  7948  0.88
      L1  H    21    45       P1  8028  0.56
      P1  H  7989  7998       L1    13  0.21
      P1  H 10752 10763       L1    11  0.26

> <Gold.Chemscore.Hbond.Weighted>
-6.9588

> <Gold.Chemscore.Metal.Weighted>
-0.0000

> <Gold.Chemscore.Lipo.Weighted>
-10.5714

> <Gold.Chemscore.Internal_Hbond.Weighted>
0.0000

> <Gold.Chemscore.DEClash.Weighted>
0.1044

> <Gold.Chemscore.DEInternal.Weighted>
5.6714

> <Gold.Chemscore.Rot.Weighted>
5.3531

> <Gold.Chemscore.Internal.Correction.Weighted>
   9.000000E+99

> <Gold.Protein.RotatedTorsions>
[ 6907 6896 6895 6894 ] final  -86.82 input  -60.11 | X-H torsion
[ 7974 7965 7964 7962 ] final -159.91 input  175.53 | X-H torsion
[ 8008 7997 7996 7995 ] final  115.18 input   59.86 | X-H torsion
[ 10167 10162 10161 10158 ] final  -35.80 input  -65.29 | X-H torsion
[ 10718 10713 10712 10709 ] final   24.84 input   66.30 | X-H torsion
[ 10763 10752 10751 10750 ] final   49.24 input  -60.55 | X-H torsion
[ 11005 11000 10999 10996 ] final   40.02 input  -57.11 | X-H torsion

> <Gold.Protein.ActiveResidues>
 VAL166  LYS551  ARG553  GLY616  TRP617  ASP618  TYR619  PRO620  LYS621  CYS622 
 ASP623  PHE694  ASN695  SER759  ASP760  ASP761  ALA762  ILE779  LEU786  VAL792 
 PHE793  MET794  SER795  GLU796  ALA797  LYS798  CYS799  TRP800  GLU811  SER814 

> <Gold.Protein.RotatedAtoms>
  150.6866  134.2991  159.4698 H   0  0  0  0  0  0  0  0  0  0  0  0  # atno 6907 bound_to 6896
  152.0888  134.9418  160.0581 H   0  0  0  0  0  0  0  0  0  0  0  0  # atno 6908 bound_to 6896
  152.0742  133.4087  159.4509 H   0  0  0  0  0  0  0  0  0  0  0  0  # atno 6909 bound_to 6896
  144.7447  140.3617  143.6095 H   0  0  0  0  0  0  0  0  0  0  0  0  # atno 7974 bound_to 7965
  156.2366  140.2944  156.0330 H   0  0  0  0  0  0  0  0  0  0  0  0  # atno 8008 bound_to 7997
  155.2073  140.0411  157.2945 H   0  0  0  0  0  0  0  0  0  0  0  0  # atno 8009 bound_to 7997
  154.6090  140.2447  155.7700 H   0  0  0  0  0  0  0  0  0  0  0  0  # atno 8010 bound_to 7997
  140.7157  143.3452  151.2271 H   0  0  0  0  0  0  0  0  0  0  0  0  # atno 10167 bound_to 10162
  157.1853  130.6821  149.6128 H   0  0  0  0  0  0  0  0  0  0  0  0  # atno 10718 bound_to 10713
  152.9788  135.5918  154.4056 H   0  0  0  0  0  0  0  0  0  0  0  0  # atno 10763 bound_to 10752
  154.3697  135.2767  155.2275 H   0  0  0  0  0  0  0  0  0  0  0  0  # atno 10764 bound_to 10752
  154.4236  135.6053  153.6080 H   0  0  0  0  0  0  0  0  0  0  0  0  # atno 10765 bound_to 10752
  140.1971  134.3915  155.8115 H   0  0  0  0  0  0  0  0  0  0  0  0  # atno 11005 bound_to 11000
  145.7170  139.1699  143.2506 LP  0  0  0  0  0  0  0  0  0  0  0  0  # atno 17320 bound_to 7965
  146.1305  140.7192  142.9414 LP  0  0  0  0  0  0  0  0  0  0  0  0  # atno 17321 bound_to 7965
  139.6970  143.9596  152.2887 LP  0  0  0  0  0  0  0  0  0  0  0  0  # atno 17342 bound_to 10162
  139.9277  144.6761  150.8396 LP  0  0  0  0  0  0  0  0  0  0  0  0  # atno 17343 bound_to 10162
  155.9719  130.4633  150.6177 LP  0  0  0  0  0  0  0  0  0  0  0  0  # atno 17370 bound_to 10713
  157.3913  131.0796  151.1391 LP  0  0  0  0  0  0  0  0  0  0  0  0  # atno 17371 bound_to 10713
  141.2227  133.7075  156.8195 LP  0  0  0  0  0  0  0  0  0  0  0  0  # atno 17394 bound_to 11000
  140.2095  134.8838  157.3258 LP  0  0  0  0  0  0  0  0  0  0  0  0  # atno 17395 bound_to 11000

$$$$
