AV-unprocessed.smi:3117|AV-procd|sdf|11878|dock7
  -GOLD-   2272017263D 1   1.00000     0.00000
 Structure written by MMmdl.
 37 37  0  0  0  0  0  0  0  0  2 V2000
  147.3642  141.8864  155.4992 C   0  0  0  0  0  0  0  0  0  0  0  0
  148.6955  141.1135  155.5524 C   0  0  2  0  0  0  0  0  0  0  0  0
  149.8135  142.0549  155.7940 N   0  3  0  0  0  0  0  0  0  0  0  0
  150.6743  141.7447  156.9558 C   0  0  0  0  0  0  0  0  0  0  0  0
  150.8757  142.9744  157.8663 C   0  0  0  0  0  0  0  0  0  0  0  0
  151.5291  142.5543  159.1933 C   0  0  0  0  0  0  0  0  0  0  0  0
  151.7107  144.0748  157.1839 C   0  0  0  0  0  0  0  0  0  0  0  0
  149.6046  143.5068  158.1850 O   0  0  0  0  0  0  0  0  0  0  0  0
  148.9708  140.2999  154.2611 C   0  0  2  0  0  0  0  0  0  0  0  0
  147.7761  139.4390  153.8086 C   0  0  0  0  0  0  0  0  0  0  0  0
  150.1543  139.4613  154.4252 N   0  0  0  0  0  0  0  0  0  0  0  0
  150.2687  138.0895  154.3110 C   0  0  0  0  0  0  0  0  0  0  0  0
  151.5619  137.7612  154.6006 C   0  0  0  0  0  0  0  0  0  0  0  0
  152.1706  139.0126  154.8950 C   0  0  0  0  0  0  0  0  0  0  0  0
  151.3243  140.0249  154.7993 N   0  0  0  0  0  0  0  0  0  0  0  0
  146.5117  141.2138  155.4101 H   0  0  0  0  0  0  0  0  0  0  0  0
  147.3382  142.5732  154.6525 H   0  0  0  0  0  0  0  0  0  0  0  0
  147.2035  142.4716  156.4042 H   0  0  0  0  0  0  0  0  0  0  0  0
  148.6545  140.4104  156.3860 H   0  0  0  0  0  0  0  0  0  0  0  0
  150.4063  142.0277  154.9762 H   0  0  0  0  0  0  0  0  0  0  0  0
  150.2352  140.9233  157.5228 H   0  0  0  0  0  0  0  0  0  0  0  0
  151.6447  141.3984  156.5974 H   0  0  0  0  0  0  0  0  0  0  0  0
  152.5194  142.1287  159.0273 H   0  0  0  0  0  0  0  0  0  0  0  0
  150.9321  141.8035  159.7123 H   0  0  0  0  0  0  0  0  0  0  0  0
  151.6466  143.4038  159.8674 H   0  0  0  0  0  0  0  0  0  0  0  0
  152.6956  143.7021  156.9006 H   0  0  0  0  0  0  0  0  0  0  0  0
  151.8615  144.9264  157.8485 H   0  0  0  0  0  0  0  0  0  0  0  0
  151.2299  144.4518  156.2806 H   0  0  0  0  0  0  0  0  0  0  0  0
  149.1655  143.7425  157.3815 H   0  0  0  0  0  0  0  0  0  0  0  0
  149.1790  141.0046  153.4534 H   0  0  0  0  0  0  0  0  0  0  0  0
  146.9296  140.0539  153.5041 H   0  0  0  0  0  0  0  0  0  0  0  0
  147.4356  138.7737  154.6025 H   0  0  0  0  0  0  0  0  0  0  0  0
  148.0428  138.8224  152.9495 H   0  0  0  0  0  0  0  0  0  0  0  0
  149.4298  137.4664  154.0383 H   0  0  0  0  0  0  0  0  0  0  0  0
  152.0051  136.7763  154.6049 H   0  0  0  0  0  0  0  0  0  0  0  0
  153.1931  139.2132  155.1795 H   0  0  0  0  0  0  0  0  0  0  0  0
  149.4499  142.9929  155.8873 H   0  0  0  0  0  0  0  0  0  0  0  0
  1  2  1  0  0  0  0
  1 16  1  0  0  0  0
  1 17  1  0  0  0  0
  1 18  1  0  0  0  0
  2  3  1  0  0  0  0
  2  9  1  0  0  0  0
  2 19  1  0  0  0  0
  3  4  1  0  0  0  0
  3 20  1  0  0  0  0
  3 37  1  0  0  0  0
  4  5  1  0  0  0  0
  4 21  1  0  0  0  0
  4 22  1  0  0  0  0
  5  6  1  0  0  0  0
  5  7  1  0  0  0  0
  5  8  1  0  0  0  0
  6 23  1  0  0  0  0
  6 24  1  0  0  0  0
  6 25  1  0  0  0  0
  7 26  1  0  0  0  0
  7 27  1  0  0  0  0
  7 28  1  0  0  0  0
  8 29  1  0  0  0  0
  9 10  1  0  0  0  0
  9 11  1  0  0  0  0
  9 30  1  0  0  0  0
 10 31  1  0  0  0  0
 10 32  1  0  0  0  0
 10 33  1  0  0  0  0
 11 15  1  0  0  0  0
 11 12  1  0  0  0  0
 12 13  2  0  0  0  0
 12 34  1  0  0  0  0
 13 14  1  0  0  0  0
 13 35  1  0  0  0  0
 14 15  2  0  0  0  0
 14 36  1  0  0  0  0
M  CHG  1   3   1
M  END
> <s_m_source_file>
AV-unprocessed.smi

> <i_m_source_file_index>
3117

> <i_lp_mmshare_version>
43012

> <i_f3d_flags>
0

> <s_epik_input>
W0NIM11DKFtDSDNdKShbT0hdKVtDSDJdW05IXVtDQEBIXShbQ0gzXSlbQ0BIXShbQ0gzXSluMVtjSF1bY0hdW2NIXW4x

> <s_epik_cmdline>
J2VwaWtfcHl0aG9uJywgJy1waCcsICc3LjAnLCAnLXRuJywgJzgnLCAnLW1hJywgJzIwMCcsICctbWV0YWxfYmluZGluZycsICctaW1hZScsICc8aW5maWxlLm1hZT4nLCAnLW9tYWUnLCAnPG91dGZpbGUubWFlPic=

> <r_lp_tautomer_probability>
1

> <r_epik_Ionization_Penalty>
0.0164263

> <r_epik_Ionization_Penalty_Charging>
0.0164138

> <r_epik_Ionization_Penalty_Neutral>
1.24697e-05

> <r_epik_State_Penalty>
0.0129543

> <r_epik_Charging_Adjusted_Penalty>
0.0293681

> <i_epik_Tot_Q>
1

> <i_epik_Tot_abs_Q>
1

> <r_epik_Metal_State_Penalty>
0.0129806

> <b_epik_Metal_Only>
0

> <s_lp_Force_Field>
OPLS_2005

> <r_lp_Energy>
12.2787

> <b_lp_Chiralities_Consistent>
1

> <s_lp_Variant>
AV-unprocessed.smi:3117-1

> <Gold.Version>
5.8.1

> <Gold.Id.Protein>
6NUR|6NUR_protein|mol2

> <Gold.PLP.Fitness>
44.5592

> <Gold.PLP.PLP>
-31.8874

> <Gold.PLP.part.hbond>
-3.8024

> <Gold.PLP.part.metal>
0.0000

> <Gold.PLP.part.buried>
-1.7015

> <Gold.PLP.part.nonpolar>
-27.4806

> <Gold.PLP.part.repulsive>
0.2044

> <Gold.PLP.ligand.clash>
0.0000

> <Gold.PLP.ligand.torsion>
1.2233

> <Gold.PLP.Chemscore.Hbond>
4.0000

> <Gold.PLP.Chemscore.CHOScore>
0.9989

> <Gold.PLP.Chemscore.Metal>
0.0000

> <Gold.Chemscore.Hbonds>
donor molecule, donor type, donor heavy atom, donor atom, acceptor molecule, acceptor atom, score
      L1  H     3    37       P1  8028  2.00
      L1  H     8    29       P1  8028  1.00
      P1  H  7989  7998       L1    15  1.00
      L1  C    12    34       P1  7948  0.97

> <Gold.PLP.Chemscore.Internal.Correction>
0.1218

> <Gold.Rescore>
     Score         DG    S(hbond)    S(metal)    S(lipo)     H(rot)  DE(clash)    DE(int)     intcor
     13.10     -16.37       2.15        0.00      81.34       2.27       0.44       2.82       ----

> <Gold.Chemscore.Fitness>
13.1045

> <Gold.Chemscore.DG>
-16.3703

> <Gold.Chemscore.ZeroCoef>
-5.4800

> <Gold.Chemscore.Hbond>
2.1530

> <Gold.Chemscore.Metal>
0.0000

> <Gold.Chemscore.Lipo>
81.3401

> <Gold.Chemscore.Internal_Hbond>
0.0000

> <Gold.Chemscore.DEClash>
0.4408

> <Gold.Chemscore.DEInternal>
2.8250

> <Gold.Chemscore.Rot>
2.2725

> <Gold.Chemscore.Internal.Correction>
   9.000000E+99

> <Gold.Chemscore.Hbonds>
donor molecule, donor type, donor heavy atom, donor atom, acceptor molecule, acceptor atom, score
      L1  H     3    37       P1  8028  1.00
      L1  H     8    29       P1  8028  0.29
      P1  H  7989  7998       L1    15  0.19

> <Gold.Chemscore.Hbond.Weighted>
-7.1911

> <Gold.Chemscore.Metal.Weighted>
-0.0000

> <Gold.Chemscore.Lipo.Weighted>
-9.5168

> <Gold.Chemscore.Internal_Hbond.Weighted>
0.0000

> <Gold.Chemscore.DEClash.Weighted>
0.4408

> <Gold.Chemscore.DEInternal.Weighted>
2.8250

> <Gold.Chemscore.Rot.Weighted>
5.8176

> <Gold.Chemscore.Internal.Correction.Weighted>
   9.000000E+99

> <Gold.Protein.RotatedTorsions>
[ 6907 6896 6895 6894 ] final  -55.20 input  -60.11 | X-H torsion
[ 7974 7965 7964 7962 ] final  167.85 input  175.53 | X-H torsion
[ 8008 7997 7996 7995 ] final -130.24 input   59.86 | X-H torsion
[ 10167 10162 10161 10158 ] final   92.58 input  -65.29 | X-H torsion
[ 10718 10713 10712 10709 ] final  156.29 input   66.30 | X-H torsion
[ 10763 10752 10751 10750 ] final   34.77 input  -60.55 | X-H torsion
[ 11005 11000 10999 10996 ] final  178.90 input  -57.11 | X-H torsion

> <Gold.Protein.ActiveResidues>
 VAL166  LYS551  ARG553  GLY616  TRP617  ASP618  TYR619  PRO620  LYS621  CYS622 
 ASP623  PHE694  ASN695  SER759  ASP760  ASP761  ALA762  ILE779  LEU786  VAL792 
 PHE793  MET794  SER795  GLU796  ALA797  LYS798  CYS799  TRP800  GLU811  SER814 

> <Gold.Protein.RotatedAtoms>
  150.8272  134.7508  159.6822 H   0  0  0  0  0  0  0  0  0  0  0  0  # atno 6907 bound_to 6896
  152.4381  134.5643  159.9913 H   0  0  0  0  0  0  0  0  0  0  0  0  # atno 6908 bound_to 6896
  151.5812  133.3340  159.3045 H   0  0  0  0  0  0  0  0  0  0  0  0  # atno 6909 bound_to 6896
  144.7409  139.8822  143.6397 H   0  0  0  0  0  0  0  0  0  0  0  0  # atno 7974 bound_to 7965
  155.2925  140.0449  157.3024 H   0  0  0  0  0  0  0  0  0  0  0  0  # atno 8008 bound_to 7997
  154.5533  140.2324  155.8418 H   0  0  0  0  0  0  0  0  0  0  0  0  # atno 8009 bound_to 7997
  156.1986  140.3032  155.9485 H   0  0  0  0  0  0  0  0  0  0  0  0  # atno 8010 bound_to 7997
  139.8263  144.6708  150.9456 H   0  0  0  0  0  0  0  0  0  0  0  0  # atno 10167 bound_to 10162
  157.2069  131.0689  151.1992 H   0  0  0  0  0  0  0  0  0  0  0  0  # atno 10718 bound_to 10713
  153.0149  135.6351  154.1721 H   0  0  0  0  0  0  0  0  0  0  0  0  # atno 10763 bound_to 10752
  154.1460  135.2832  155.3150 H   0  0  0  0  0  0  0  0  0  0  0  0  # atno 10764 bound_to 10752
  154.6089  135.5563  153.7513 H   0  0  0  0  0  0  0  0  0  0  0  0  # atno 10765 bound_to 10752
  140.4002  134.6784  157.4557 H   0  0  0  0  0  0  0  0  0  0  0  0  # atno 11005 bound_to 11000
  146.1203  139.4220  143.0232 LP  0  0  0  0  0  0  0  0  0  0  0  0  # atno 17320 bound_to 7965
  145.7314  141.0041  143.1350 LP  0  0  0  0  0  0  0  0  0  0  0  0  # atno 17321 bound_to 7965
  140.7810  143.4043  151.1096 LP  0  0  0  0  0  0  0  0  0  0  0  0  # atno 17342 bound_to 10162
  139.7700  143.8508  152.3118 LP  0  0  0  0  0  0  0  0  0  0  0  0  # atno 17343 bound_to 10162
  157.3711  130.7181  149.6565 LP  0  0  0  0  0  0  0  0  0  0  0  0  # atno 17370 bound_to 10713
  155.9694  130.4198  150.4394 LP  0  0  0  0  0  0  0  0  0  0  0  0  # atno 17371 bound_to 10713
  140.0342  134.6361  155.9066 LP  0  0  0  0  0  0  0  0  0  0  0  0  # atno 17394 bound_to 11000
  141.1859  133.6556  156.5219 LP  0  0  0  0  0  0  0  0  0  0  0  0  # atno 17395 bound_to 11000

$$$$
