AV-unprocessed.smi:2710|AV-procd|sdf|10469|dock1
  -GOLD-   2272014503D 1   1.00000     0.00000
 Structure written by MMmdl.
 53 54  0  0  0  0  0  0  0  0  2 V2000
  148.6392  142.5962  158.1650 C   0  0  0  0  0  0  0  0  0  0  0  0
  147.3005  142.3973  157.4350 C   0  0  0  0  0  0  0  0  0  0  0  0
  147.4422  142.2477  155.9567 N   0  3  1  0  0  0  0  0  0  0  0  0
  148.3890  141.1525  155.5981 C   0  0  0  0  0  0  0  0  0  0  0  0
  148.6423  141.0765  154.0844 C   0  0  0  0  0  0  0  0  0  0  0  0
  147.3382  140.9081  153.2975 C   0  0  1  0  0  0  0  0  0  0  0  0
  146.7618  139.5803  153.5164 N   0  0  0  0  0  0  0  0  0  0  0  0
  146.6661  138.6041  152.6017 C   0  0  0  0  0  0  0  0  0  0  0  0
  147.0513  138.7180  151.4388 O   0  0  0  0  0  0  0  0  0  0  0  0
  146.1205  137.4962  153.1313 N   0  0  0  0  0  0  0  0  0  0  0  0
  145.8420  136.2620  152.4856 C   0  0  0  0  0  0  0  0  0  0  0  0
  145.8553  135.0733  153.2425 C   0  0  0  0  0  0  0  0  0  0  0  0
  145.5838  133.8715  152.6922 N   0  0  0  0  0  0  0  0  0  0  0  0
  145.2886  133.8409  151.3860 C   0  0  0  0  0  0  0  0  0  0  0  0
  144.9690  132.4581  150.7898 C   0  0  0  0  0  0  0  0  0  0  0  0
  145.2029  131.3140  151.8070 C   0  0  0  0  0  0  0  0  0  0  0  0
  145.8826  132.1896  149.5769 C   0  0  0  0  0  0  0  0  0  0  0  0
  143.4848  132.3997  150.3730 C   0  0  0  0  0  0  0  0  0  0  0  0
  145.2300  134.9097  150.5806 N   0  0  0  0  0  0  0  0  0  0  0  0
  145.5043  136.1171  151.1185 C   0  0  0  0  0  0  0  0  0  0  0  0
  146.3534  142.0118  153.7061 C   0  0  0  0  0  0  0  0  0  0  0  0
  146.1353  142.1027  155.2346 C   0  0  2  0  0  0  0  0  0  0  0  0
  145.1516  143.2571  155.5183 C   0  0  0  0  0  0  0  0  0  0  0  0
  148.4659  142.8686  159.2064 H   0  0  0  0  0  0  0  0  0  0  0  0
  149.2240  143.3964  157.7105 H   0  0  0  0  0  0  0  0  0  0  0  0
  149.2463  141.6915  158.1755 H   0  0  0  0  0  0  0  0  0  0  0  0
  146.7662  141.5399  157.8469 H   0  0  0  0  0  0  0  0  0  0  0  0
  146.7045  143.2762  157.6699 H   0  0  0  0  0  0  0  0  0  0  0  0
  149.3528  141.3037  156.0807 H   0  0  0  0  0  0  0  0  0  0  0  0
  148.0021  140.2010  155.9663 H   0  0  0  0  0  0  0  0  0  0  0  0
  149.1431  141.9899  153.7602 H   0  0  0  0  0  0  0  0  0  0  0  0
  149.3277  140.2585  153.8585 H   0  0  0  0  0  0  0  0  0  0  0  0
  147.5655  141.0397  152.2383 H   0  0  0  0  0  0  0  0  0  0  0  0
  146.4174  139.3840  154.4447 H   0  0  0  0  0  0  0  0  0  0  0  0
  145.9293  137.5199  154.1224 H   0  0  0  0  0  0  0  0  0  0  0  0
  146.0887  135.0834  154.2972 H   0  0  0  0  0  0  0  0  0  0  0  0
  144.9674  130.3422  151.3719 H   0  0  0  0  0  0  0  0  0  0  0  0
  144.5774  131.4283  152.6933 H   0  0  0  0  0  0  0  0  0  0  0  0
  146.2424  131.2727  152.1355 H   0  0  0  0  0  0  0  0  0  0  0  0
  146.9352  132.2273  149.8596 H   0  0  0  0  0  0  0  0  0  0  0  0
  145.7285  132.9242  148.7861 H   0  0  0  0  0  0  0  0  0  0  0  0
  145.6924  131.2066  149.1449 H   0  0  0  0  0  0  0  0  0  0  0  0
  143.2234  131.4221  149.9667 H   0  0  0  0  0  0  0  0  0  0  0  0
  143.2510  133.1390  149.6062 H   0  0  0  0  0  0  0  0  0  0  0  0
  142.8284  132.5894  151.2232 H   0  0  0  0  0  0  0  0  0  0  0  0
  145.4261  136.9554  150.4439 H   0  0  0  0  0  0  0  0  0  0  0  0
  146.7309  142.9690  153.3429 H   0  0  0  0  0  0  0  0  0  0  0  0
  145.4010  141.8548  153.1975 H   0  0  0  0  0  0  0  0  0  0  0  0
  145.6681  141.1760  155.5717 H   0  0  0  0  0  0  0  0  0  0  0  0
  144.2876  143.2042  154.8551 H   0  0  0  0  0  0  0  0  0  0  0  0
  145.6223  144.2288  155.3647 H   0  0  0  0  0  0  0  0  0  0  0  0
  144.7525  143.2250  156.5314 H   0  0  0  0  0  0  0  0  0  0  0  0
  147.8544  143.1075  155.6231 H   0  0  0  0  0  0  0  0  0  0  0  0
  1  2  1  0  0  0  0
  1 24  1  0  0  0  0
  1 25  1  0  0  0  0
  1 26  1  0  0  0  0
  2  3  1  0  0  0  0
  2 27  1  0  0  0  0
  2 28  1  0  0  0  0
  3 22  1  0  0  0  0
  3  4  1  0  0  0  0
  3 53  1  0  0  0  0
  4  5  1  0  0  0  0
  4 29  1  0  0  0  0
  4 30  1  0  0  0  0
  5  6  1  0  0  0  0
  5 31  1  0  0  0  0
  5 32  1  0  0  0  0
  6  7  1  0  0  0  0
  6 21  1  0  0  0  0
  6 33  1  0  0  0  0
  7  8  1  0  0  0  0
  7 34  1  0  0  0  0
  8  9  2  0  0  0  0
  8 10  1  0  0  0  0
 10 11  1  0  0  0  0
 10 35  1  0  0  0  0
 11 20  1  0  0  0  0
 11 12  2  0  0  0  0
 12 13  1  0  0  0  0
 12 36  1  0  0  0  0
 13 14  2  0  0  0  0
 14 15  1  0  0  0  0
 14 19  1  0  0  0  0
 15 16  1  0  0  0  0
 15 17  1  0  0  0  0
 15 18  1  0  0  0  0
 16 37  1  0  0  0  0
 16 38  1  0  0  0  0
 16 39  1  0  0  0  0
 17 40  1  0  0  0  0
 17 41  1  0  0  0  0
 17 42  1  0  0  0  0
 18 43  1  0  0  0  0
 18 44  1  0  0  0  0
 18 45  1  0  0  0  0
 19 20  2  0  0  0  0
 20 46  1  0  0  0  0
 21 22  1  0  0  0  0
 21 47  1  0  0  0  0
 21 48  1  0  0  0  0
 22 23  1  0  0  0  0
 22 49  1  0  0  0  0
 23 50  1  0  0  0  0
 23 51  1  0  0  0  0
 23 52  1  0  0  0  0
M  CHG  1   3   1
M  END
> <s_m_source_file>
AV-unprocessed.smi

> <i_m_source_file_index>
2710

> <i_lp_mmshare_version>
43012

> <i_f3d_flags>
0

> <s_epik_input>
W0NIM11bQ0gyXU4xW0NIMl1bQ0gyXVtDQEhdKFtDSDJdW0NASF0xW0NIM10pW05IXUMoPU8pW05IXWMyW2NIXW5jKEMoW0NIM10pKFtDSDNdKVtDSDNdKW5bY0hdMg==

> <s_epik_cmdline>
J2VwaWtfcHl0aG9uJywgJy1waCcsICc3LjAnLCAnLXRuJywgJzgnLCAnLW1hJywgJzIwMCcsICctbWV0YWxfYmluZGluZycsICctaW1hZScsICc8aW5maWxlLm1hZT4nLCAnLW9tYWUnLCAnPG91dGZpbGUubWFlPic=

> <r_lp_tautomer_probability>
1

> <r_epik_Ionization_Penalty>
0.00396003

> <r_epik_Ionization_Penalty_Charging>
0.0039379

> <r_epik_Ionization_Penalty_Neutral>
2.21316e-05

> <r_epik_State_Penalty>
0.00281651

> <r_epik_Charging_Adjusted_Penalty>
0.00675441

> <i_epik_Tot_Q>
1

> <i_epik_Tot_abs_Q>
1

> <r_epik_Metal_State_Penalty>
-0

> <b_epik_Metal_Only>
0

> <s_lp_Force_Field>
OPLS_2005

> <r_lp_Energy>
19.7949

> <b_lp_Chiralities_Consistent>
1

> <s_lp_Variant>
AV-unprocessed.smi:2710-6

> <Gold.Version>
5.8.1

> <Gold.Id.Protein>
6NUR|6NUR_protein|mol2

> <Gold.PLP.Fitness>
50.0649

> <Gold.PLP.PLP>
-38.7495

> <Gold.PLP.part.hbond>
-2.0349

> <Gold.PLP.part.metal>
0.0000

> <Gold.PLP.part.buried>
-5.8303

> <Gold.PLP.part.nonpolar>
-33.6538

> <Gold.PLP.part.repulsive>
3.5209

> <Gold.PLP.ligand.clash>
0.0000

> <Gold.PLP.ligand.torsion>
0.3488

> <Gold.PLP.Chemscore.Hbond>
2.9913

> <Gold.PLP.Chemscore.CHOScore>
1.0000

> <Gold.PLP.Chemscore.Metal>
0.0000

> <Gold.Chemscore.Hbonds>
donor molecule, donor type, donor heavy atom, donor atom, acceptor molecule, acceptor atom, score
      L1  H     3    53       P1  8028  2.00
      P1  H  7954  7966       L1     9  0.88
      L1  C    20    46       P1 10171  1.00

> <Gold.PLP.Chemscore.Internal.Correction>
0.0392

> <Gold.Rescore>
     Score         DG    S(hbond)    S(metal)    S(lipo)     H(rot)  DE(clash)    DE(int)     intcor
     16.48     -19.27       1.85        0.00      93.76       1.31       1.70       1.09       ----

> <Gold.Chemscore.Fitness>
16.4818

> <Gold.Chemscore.DG>
-19.2709

> <Gold.Chemscore.ZeroCoef>
-5.4800

> <Gold.Chemscore.Hbond>
1.8472

> <Gold.Chemscore.Metal>
0.0000

> <Gold.Chemscore.Lipo>
93.7612

> <Gold.Chemscore.Internal_Hbond>
0.0000

> <Gold.Chemscore.DEClash>
1.6974

> <Gold.Chemscore.DEInternal>
1.0917

> <Gold.Chemscore.Rot>
1.3081

> <Gold.Chemscore.Internal.Correction>
   9.000000E+99

> <Gold.Chemscore.Hbonds>
donor molecule, donor type, donor heavy atom, donor atom, acceptor molecule, acceptor atom, score
      L1  H     3    53       P1  8028  0.55
      P1  H  7954  7966       L1     9  0.82

> <Gold.Chemscore.Hbond.Weighted>
-6.1696

> <Gold.Chemscore.Metal.Weighted>
-0.0000

> <Gold.Chemscore.Lipo.Weighted>
-10.9701

> <Gold.Chemscore.Internal_Hbond.Weighted>
0.0000

> <Gold.Chemscore.DEClash.Weighted>
1.6974

> <Gold.Chemscore.DEInternal.Weighted>
1.0917

> <Gold.Chemscore.Rot.Weighted>
3.3488

> <Gold.Chemscore.Internal.Correction.Weighted>
   9.000000E+99

> <Gold.Protein.RotatedTorsions>
[ 6907 6896 6895 6894 ] final  -70.05 input  -60.11 | X-H torsion
[ 7974 7965 7964 7962 ] final  -16.34 input  175.53 | X-H torsion
[ 8008 7997 7996 7995 ] final  -78.24 input   59.86 | X-H torsion
[ 10167 10162 10161 10158 ] final  -89.05 input  -65.29 | X-H torsion
[ 10718 10713 10712 10709 ] final  -45.67 input   66.30 | X-H torsion
[ 10763 10752 10751 10750 ] final -113.72 input  -60.55 | X-H torsion
[ 11005 11000 10999 10996 ] final   47.27 input  -57.11 | X-H torsion

> <Gold.Protein.ActiveResidues>
 VAL166  LYS551  ARG553  GLY616  TRP617  ASP618  TYR619  PRO620  LYS621  CYS622 
 ASP623  PHE694  ASN695  SER759  ASP760  ASP761  ALA762  ILE779  LEU786  VAL792 
 PHE793  MET794  SER795  GLU796  ALA797  LYS798  CYS799  TRP800  GLU811  SER814 

> <Gold.Protein.RotatedAtoms>
  150.7276  134.5509  159.5793 H   0  0  0  0  0  0  0  0  0  0  0  0  # atno 6907 bound_to 6896
  152.2996  134.7623  160.0369 H   0  0  0  0  0  0  0  0  0  0  0  0  # atno 6908 bound_to 6896
  151.8208  133.3359  159.3620 H   0  0  0  0  0  0  0  0  0  0  0  0  # atno 6909 bound_to 6896
  146.1992  140.3623  142.8429 H   0  0  0  0  0  0  0  0  0  0  0  0  # atno 7974 bound_to 7965
  154.5670  140.0697  156.8907 H   0  0  0  0  0  0  0  0  0  0  0  0  # atno 8008 bound_to 7997
  155.2704  140.3365  155.4247 H   0  0  0  0  0  0  0  0  0  0  0  0  # atno 8009 bound_to 7997
  156.2088  140.1751  156.7725 H   0  0  0  0  0  0  0  0  0  0  0  0  # atno 8010 bound_to 7997
  140.3686  143.2805  151.9527 H   0  0  0  0  0  0  0  0  0  0  0  0  # atno 10167 bound_to 10162
  156.2260  130.4169  149.8933 H   0  0  0  0  0  0  0  0  0  0  0  0  # atno 10718 bound_to 10713
  154.8409  135.4444  154.1394 H   0  0  0  0  0  0  0  0  0  0  0  0  # atno 10763 bound_to 10752
  153.2583  135.6933  153.7611 H   0  0  0  0  0  0  0  0  0  0  0  0  # atno 10764 bound_to 10752
  153.6898  135.3389  155.3174 H   0  0  0  0  0  0  0  0  0  0  0  0  # atno 10765 bound_to 10752
  140.1294  134.4725  155.8533 H   0  0  0  0  0  0  0  0  0  0  0  0  # atno 11005 bound_to 11000
  144.8645  140.7187  143.6086 LP  0  0  0  0  0  0  0  0  0  0  0  0  # atno 17320 bound_to 7965
  145.3542  139.1698  143.4418 LP  0  0  0  0  0  0  0  0  0  0  0  0  # atno 17321 bound_to 7965
  139.4806  144.5927  151.7743 LP  0  0  0  0  0  0  0  0  0  0  0  0  # atno 17342 bound_to 10162
  140.5055  144.1104  150.5981 LP  0  0  0  0  0  0  0  0  0  0  0  0  # atno 17343 bound_to 10162
  156.6563  130.8764  151.3540 LP  0  0  0  0  0  0  0  0  0  0  0  0  # atno 17370 bound_to 10713
  157.7111  130.9441  150.1092 LP  0  0  0  0  0  0  0  0  0  0  0  0  # atno 17371 bound_to 10713
  141.2167  133.6790  156.7040 LP  0  0  0  0  0  0  0  0  0  0  0  0  # atno 17394 bound_to 11000
  140.2862  134.8277  157.3976 LP  0  0  0  0  0  0  0  0  0  0  0  0  # atno 17395 bound_to 11000

$$$$
