AV-unprocessed.smi:3169|AV-procd|sdf|12103|dock5
  -GOLD-   2272017543D 1   1.00000     0.00000
 Structure written by MMmdl.
 36 37  0  0  0  0  0  0  0  0  2 V2000
  147.0058  137.2137  155.8830 O   0  0  0  0  0  0  0  0  0  0  0  0
  147.3730  136.9745  154.7323 C   0  0  0  0  0  0  0  0  0  0  0  0
  146.9782  135.9044  154.0288 N   0  0  0  0  0  0  0  0  0  0  0  0
  146.0690  134.8765  154.5208 C   0  0  0  0  0  0  0  0  0  0  0  0
  146.0015  133.6764  153.5614 C   0  0  0  0  0  0  0  0  0  0  0  0
  145.2543  133.9972  152.3449 N   0  0  0  0  0  0  0  0  0  0  0  0
  145.6224  134.8582  151.3435 C   0  0  0  0  0  0  0  0  0  0  0  0
  144.6104  134.8360  150.4185 C   0  0  0  0  0  0  0  0  0  0  0  0
  143.6683  133.9637  150.8949 N   0  3  0  0  0  0  0  0  0  0  0  0
  144.0621  133.4544  152.0668 C   0  0  0  0  0  0  0  0  0  0  0  0
  148.2211  137.7430  154.0356 N   0  0  0  0  0  0  0  0  0  0  0  0
  148.8454  138.9688  154.5230 C   0  0  0  0  0  0  0  0  0  0  0  0
  150.3730  138.9453  154.3420 C   0  0  2  0  0  0  0  0  0  0  0  0
  151.0817  137.7314  154.9448 C   0  0  0  0  0  0  0  0  0  0  0  0
  152.4785  138.2690  155.1525 C   0  0  0  0  0  0  0  0  0  0  0  0
  152.1975  139.7013  155.5984 C   0  0  0  0  0  0  0  0  0  0  0  0
  150.9618  140.0698  154.9898 O   0  0  0  0  0  0  0  0  0  0  0  0
  147.3316  135.7931  153.0896 H   0  0  0  0  0  0  0  0  0  0  0  0
  146.3780  134.5560  155.5175 H   0  0  0  0  0  0  0  0  0  0  0  0
  145.0799  135.3220  154.6307 H   0  0  0  0  0  0  0  0  0  0  0  0
  147.0034  133.3601  153.2676 H   0  0  0  0  0  0  0  0  0  0  0  0
  145.5202  132.8189  154.0346 H   0  0  0  0  0  0  0  0  0  0  0  0
  146.5523  135.4082  151.3630 H   0  0  0  0  0  0  0  0  0  0  0  0
  144.4930  135.3617  149.4821 H   0  0  0  0  0  0  0  0  0  0  0  0
  143.5230  132.7458  152.6705 H   0  0  0  0  0  0  0  0  0  0  0  0
  148.4593  137.4579  153.0970 H   0  0  0  0  0  0  0  0  0  0  0  0
  148.4274  139.7987  153.9528 H   0  0  0  0  0  0  0  0  0  0  0  0
  148.5847  139.1553  155.5662 H   0  0  0  0  0  0  0  0  0  0  0  0
  150.6230  139.0160  153.2820 H   0  0  0  0  0  0  0  0  0  0  0  0
  150.6400  137.4649  155.9061 H   0  0  0  0  0  0  0  0  0  0  0  0
  151.0522  136.8543  154.2980 H   0  0  0  0  0  0  0  0  0  0  0  0
  153.0557  137.7000  155.8817 H   0  0  0  0  0  0  0  0  0  0  0  0
  153.0236  138.2684  154.2075 H   0  0  0  0  0  0  0  0  0  0  0  0
  152.0748  139.7462  156.6808 H   0  0  0  0  0  0  0  0  0  0  0  0
  152.9982  140.3864  155.3196 H   0  0  0  0  0  0  0  0  0  0  0  0
  142.7987  133.7349  150.4297 H   0  0  0  0  0  0  0  0  0  0  0  0
  1  2  2  0  0  0  0
  2  3  1  0  0  0  0
  2 11  1  0  0  0  0
  3  4  1  0  0  0  0
  3 18  1  0  0  0  0
  4  5  1  0  0  0  0
  4 19  1  0  0  0  0
  4 20  1  0  0  0  0
  5  6  1  0  0  0  0
  5 21  1  0  0  0  0
  5 22  1  0  0  0  0
  6 10  1  0  0  0  0
  6  7  1  0  0  0  0
  7  8  2  0  0  0  0
  7 23  1  0  0  0  0
  8  9  1  0  0  0  0
  8 24  1  0  0  0  0
  9 10  2  0  0  0  0
  9 36  1  0  0  0  0
 10 25  1  0  0  0  0
 11 12  1  0  0  0  0
 11 26  1  0  0  0  0
 12 13  1  0  0  0  0
 12 27  1  0  0  0  0
 12 28  1  0  0  0  0
 13 17  1  0  0  0  0
 13 14  1  0  0  0  0
 13 29  1  0  0  0  0
 14 15  1  0  0  0  0
 14 30  1  0  0  0  0
 14 31  1  0  0  0  0
 15 16  1  0  0  0  0
 15 32  1  0  0  0  0
 15 33  1  0  0  0  0
 16 17  1  0  0  0  0
 16 34  1  0  0  0  0
 16 35  1  0  0  0  0
M  CHG  1   9   1
M  END
> <s_m_source_file>
AV-unprocessed.smi

> <i_m_source_file_index>
3169

> <i_lp_mmshare_version>
43012

> <i_f3d_flags>
0

> <s_epik_input>
TzFbQ0gyXVtDSDJdW0NIMl1bQ0BIXTFbQ0gyXVtOSF1DKD1PKVtOSF1bQ0gyXVtDSDJdbjJbY0hdW2NIXW5bY0hdMg==

> <s_epik_cmdline>
J2VwaWtfcHl0aG9uJywgJy1waCcsICc3LjAnLCAnLXRuJywgJzgnLCAnLW1hJywgJzIwMCcsICctbWV0YWxfYmluZGluZycsICctaW1hZScsICc8aW5maWxlLm1hZT4nLCAnLW9tYWUnLCAnPG91dGZpbGUubWFlPic=

> <r_lp_tautomer_probability>
1

> <r_epik_Ionization_Penalty>
0.256136

> <r_epik_Ionization_Penalty_Charging>
0

> <r_epik_Ionization_Penalty_Neutral>
0.256136

> <r_epik_State_Penalty>
0.247629

> <r_epik_Charging_Adjusted_Penalty>
0.247629

> <i_epik_Tot_Q>
1

> <i_epik_Tot_abs_Q>
1

> <r_epik_Metal_State_Penalty>
0.537113

> <b_epik_Metal_Only>
0

> <s_lp_Force_Field>
OPLS_2005

> <r_lp_Energy>
17.2765

> <b_lp_Chiralities_Consistent>
1

> <s_lp_Variant>
AV-unprocessed.smi:3169-1

> <Gold.Version>
5.8.1

> <Gold.Id.Protein>
6NUR|6NUR_protein|mol2

> <Gold.PLP.Fitness>
47.0952

> <Gold.PLP.PLP>
-26.9237

> <Gold.PLP.part.hbond>
-4.0000

> <Gold.PLP.part.metal>
0.0000

> <Gold.PLP.part.buried>
-2.3883

> <Gold.PLP.part.nonpolar>
-20.7758

> <Gold.PLP.part.repulsive>
0.0936

> <Gold.PLP.ligand.clash>
0.0000

> <Gold.PLP.ligand.torsion>
0.2077

> <Gold.PLP.Chemscore.Hbond>
4.8640

> <Gold.PLP.Chemscore.CHOScore>
1.9903

> <Gold.PLP.Chemscore.Metal>
0.0000

> <Gold.Chemscore.Hbonds>
donor molecule, donor type, donor heavy atom, donor atom, acceptor molecule, acceptor atom, score
      L1  H     3    18       P1  7948  0.79
      L1  H     9    36       P1 10186  1.56
      L1  H    11    26       P1  7948  1.00
      P1  H  7989  7998       L1    17  0.81
      L1  C     7    23       P1  7948  0.97
      L1  C    10    25       P1 10957  0.83

> <Gold.PLP.Chemscore.Internal.Correction>
0.0239

> <Gold.Rescore>
     Score         DG    S(hbond)    S(metal)    S(lipo)     H(rot)  DE(clash)    DE(int)     intcor
     16.51     -16.76       3.37        0.00      51.01       2.33       0.00       0.25       ----

> <Gold.Chemscore.Fitness>
16.5093

> <Gold.Chemscore.DG>
-16.7553

> <Gold.Chemscore.ZeroCoef>
-5.4800

> <Gold.Chemscore.Hbond>
3.3738

> <Gold.Chemscore.Metal>
0.0000

> <Gold.Chemscore.Lipo>
51.0130

> <Gold.Chemscore.Internal_Hbond>
0.0000

> <Gold.Chemscore.DEClash>
0.0009

> <Gold.Chemscore.DEInternal>
0.2451

> <Gold.Chemscore.Rot>
2.3288

> <Gold.Chemscore.Internal.Correction>
   9.000000E+99

> <Gold.Chemscore.Hbonds>
donor molecule, donor type, donor heavy atom, donor atom, acceptor molecule, acceptor atom, score
      L1  H     3    18       P1  7948  0.75
      L1  H     9    36       P1 10186  0.71
      L1  H    11    26       P1  7948  0.98
      P1  H  7989  7998       L1    17  0.03

> <Gold.Chemscore.Hbond.Weighted>
-11.2684

> <Gold.Chemscore.Metal.Weighted>
-0.0000

> <Gold.Chemscore.Lipo.Weighted>
-5.9685

> <Gold.Chemscore.Internal_Hbond.Weighted>
0.0000

> <Gold.Chemscore.DEClash.Weighted>
0.0009

> <Gold.Chemscore.DEInternal.Weighted>
0.2451

> <Gold.Chemscore.Rot.Weighted>
5.9617

> <Gold.Chemscore.Internal.Correction.Weighted>
   9.000000E+99

> <Gold.Protein.RotatedTorsions>
[ 6907 6896 6895 6894 ] final -166.93 input  -60.11 | X-H torsion
[ 7974 7965 7964 7962 ] final -157.87 input  175.53 | X-H torsion
[ 8008 7997 7996 7995 ] final    8.06 input   59.86 | X-H torsion
[ 10167 10162 10161 10158 ] final -137.68 input  -65.29 | X-H torsion
[ 10718 10713 10712 10709 ] final   15.98 input   66.30 | X-H torsion
[ 10763 10752 10751 10750 ] final  171.20 input  -60.55 | X-H torsion
[ 11005 11000 10999 10996 ] final  151.44 input  -57.11 | X-H torsion

> <Gold.Protein.ActiveResidues>
 VAL166  LYS551  ARG553  GLY616  TRP617  ASP618  TYR619  PRO620  LYS621  CYS622 
 ASP623  PHE694  ASN695  SER759  ASP760  ASP761  ALA762  ILE779  LEU786  VAL792 
 PHE793  MET794  SER795  GLU796  ALA797  LYS798  CYS799  TRP800  GLU811  SER814 

> <Gold.Protein.RotatedAtoms>
  151.4514  133.3616  159.2795 H   0  0  0  0  0  0  0  0  0  0  0  0  # atno 6907 bound_to 6896
  150.9088  134.8506  159.7422 H   0  0  0  0  0  0  0  0  0  0  0  0  # atno 6908 bound_to 6896
  152.4921  134.4441  159.9605 H   0  0  0  0  0  0  0  0  0  0  0  0  # atno 6909 bound_to 6896
  144.7530  140.3908  143.6034 H   0  0  0  0  0  0  0  0  0  0  0  0  # atno 7974 bound_to 7965
  154.7619  140.2786  155.6207 H   0  0  0  0  0  0  0  0  0  0  0  0  # atno 8008 bound_to 7997
  156.2917  140.2658  156.2326 H   0  0  0  0  0  0  0  0  0  0  0  0  # atno 8009 bound_to 7997
  155.0007  140.0373  157.2348 H   0  0  0  0  0  0  0  0  0  0  0  0  # atno 8010 bound_to 7997
  139.8553  143.7146  152.2654 H   0  0  0  0  0  0  0  0  0  0  0  0  # atno 10167 bound_to 10162
  157.0612  130.6310  149.5786 H   0  0  0  0  0  0  0  0  0  0  0  0  # atno 10718 bound_to 10713
  154.4086  135.2756  155.2051 H   0  0  0  0  0  0  0  0  0  0  0  0  # atno 10763 bound_to 10752
  154.4047  135.6036  153.5921 H   0  0  0  0  0  0  0  0  0  0  0  0  # atno 10764 bound_to 10752
  152.9831  135.5935  154.4364 H   0  0  0  0  0  0  0  0  0  0  0  0  # atno 10765 bound_to 10752
  140.1219  134.8858  157.2084 H   0  0  0  0  0  0  0  0  0  0  0  0  # atno 11005 bound_to 11000
  145.6878  139.1632  143.2664 LP  0  0  0  0  0  0  0  0  0  0  0  0  # atno 17320 bound_to 7965
  146.1504  140.6933  142.9324 LP  0  0  0  0  0  0  0  0  0  0  0  0  # atno 17321 bound_to 7965
  139.7425  144.7556  151.0630 LP  0  0  0  0  0  0  0  0  0  0  0  0  # atno 17342 bound_to 10162
  140.7782  143.4955  150.9838 LP  0  0  0  0  0  0  0  0  0  0  0  0  # atno 17343 bound_to 10162
  155.9978  130.5050  150.7546 LP  0  0  0  0  0  0  0  0  0  0  0  0  # atno 17370 bound_to 10713
  157.4953  131.0914  151.0379 LP  0  0  0  0  0  0  0  0  0  0  0  0  # atno 17371 bound_to 10713
  140.2954  134.3192  155.7304 LP  0  0  0  0  0  0  0  0  0  0  0  0  # atno 17394 bound_to 11000
  141.2153  133.7560  156.9564 LP  0  0  0  0  0  0  0  0  0  0  0  0  # atno 17395 bound_to 11000

$$$$
