AV-unprocessed.smi:1346|AV-procd|sdf|5515|dock5
  -GOLD-   22720 5103D 1   1.00000     0.00000
 Structure written by MMmdl.
 47 48  0  0  0  0  0  0  0  0  1 V2000
  150.0166  136.0452  155.3815 C   0  0  0  0  0  0  0  0  0  0  0  0
  150.9013  136.3783  156.5489 C   0  0  0  0  0  0  0  0  0  0  0  0
  150.7789  135.6854  157.6684 N   0  0  0  0  0  0  0  0  0  0  0  0
  151.7100  136.2275  158.5592 O   0  0  0  0  0  0  0  0  0  0  0  0
  152.3623  137.2404  157.9344 C   0  0  0  0  0  0  0  0  0  0  0  0
  153.4009  137.9586  158.7274 C   0  0  0  0  0  0  0  0  0  0  0  0
  151.9015  137.3891  156.6552 C   0  0  0  0  0  0  0  0  0  0  0  0
  152.3413  138.3872  155.6143 C   0  0  0  0  0  0  0  0  0  0  0  0
  151.2637  139.4578  155.4447 C   0  0  0  0  0  0  0  0  0  0  0  0
  150.6944  139.5971  154.3625 O   0  0  0  0  0  0  0  0  0  0  0  0
  151.0094  140.2174  156.5187 N   0  0  0  0  0  0  0  0  0  0  0  0
  150.0944  141.3490  156.5432 C   0  0  0  0  0  0  0  0  0  0  0  0
  150.4568  142.2914  157.6955 C   0  0  0  0  0  0  0  0  0  0  0  0
  151.8130  142.6862  157.5456 O   0  0  0  0  0  0  0  0  0  0  0  0
  152.3320  143.4633  158.6171 C   0  0  1  0  0  0  0  0  0  0  0  0
  151.4894  144.7472  158.7809 C   0  0  0  0  0  0  0  0  0  0  0  0
  151.9161  145.5508  160.0180 C   0  0  0  0  0  0  0  0  0  0  0  0
  151.8453  144.6882  161.2853 C   0  0  0  0  0  0  0  0  0  0  0  0
  152.6925  143.4162  161.1327 C   0  0  0  0  0  0  0  0  0  0  0  0
  152.2748  142.5959  159.8956 C   0  0  2  0  0  0  0  0  0  0  0  0
  153.1405  141.3319  159.7667 C   0  0  0  0  0  0  0  0  0  0  0  0
  150.4626  136.3650  154.4400 H   0  0  0  0  0  0  0  0  0  0  0  0
  149.0502  136.5401  155.4757 H   0  0  0  0  0  0  0  0  0  0  0  0
  149.8352  134.9725  155.3108 H   0  0  0  0  0  0  0  0  0  0  0  0
  153.3595  139.0313  158.5370 H   0  0  0  0  0  0  0  0  0  0  0  0
  154.3979  137.6063  158.4640 H   0  0  0  0  0  0  0  0  0  0  0  0
  153.2566  137.8016  159.7967 H   0  0  0  0  0  0  0  0  0  0  0  0
  153.2759  138.8725  155.8975 H   0  0  0  0  0  0  0  0  0  0  0  0
  152.5331  137.9044  154.6551 H   0  0  0  0  0  0  0  0  0  0  0  0
  151.5267  140.0322  157.3658 H   0  0  0  0  0  0  0  0  0  0  0  0
  150.1368  141.8867  155.5946 H   0  0  0  0  0  0  0  0  0  0  0  0
  149.0741  140.9832  156.6641 H   0  0  0  0  0  0  0  0  0  0  0  0
  149.8126  143.1714  157.6715 H   0  0  0  0  0  0  0  0  0  0  0  0
  150.2915  141.7910  158.6497 H   0  0  0  0  0  0  0  0  0  0  0  0
  153.3731  143.7271  158.4208 H   0  0  0  0  0  0  0  0  0  0  0  0
  151.5750  145.3810  157.8990 H   0  0  0  0  0  0  0  0  0  0  0  0
  150.4347  144.4838  158.8684 H   0  0  0  0  0  0  0  0  0  0  0  0
  152.9330  145.9208  159.8814 H   0  0  0  0  0  0  0  0  0  0  0  0
  151.2788  146.4284  160.1296 H   0  0  0  0  0  0  0  0  0  0  0  0
  152.1882  145.2629  162.1461 H   0  0  0  0  0  0  0  0  0  0  0  0
  150.8083  144.4164  161.4869 H   0  0  0  0  0  0  0  0  0  0  0  0
  153.7457  143.6899  161.0554 H   0  0  0  0  0  0  0  0  0  0  0  0
  152.5982  142.8076  162.0327 H   0  0  0  0  0  0  0  0  0  0  0  0
  151.2420  142.2755  160.0424 H   0  0  0  0  0  0  0  0  0  0  0  0
  154.1886  141.5846  159.6030 H   0  0  0  0  0  0  0  0  0  0  0  0
  152.8145  140.7096  158.9329 H   0  0  0  0  0  0  0  0  0  0  0  0
  153.0819  140.7228  160.6689 H   0  0  0  0  0  0  0  0  0  0  0  0
  1  2  1  0  0  0  0
  1 22  1  0  0  0  0
  1 23  1  0  0  0  0
  1 24  1  0  0  0  0
  2  7  1  0  0  0  0
  2  3  2  0  0  0  0
  3  4  1  0  0  0  0
  4  5  1  0  0  0  0
  5  6  1  0  0  0  0
  5  7  2  0  0  0  0
  6 25  1  0  0  0  0
  6 26  1  0  0  0  0
  6 27  1  0  0  0  0
  7  8  1  0  0  0  0
  8  9  1  0  0  0  0
  8 28  1  0  0  0  0
  8 29  1  0  0  0  0
  9 10  2  0  0  0  0
  9 11  1  0  0  0  0
 11 12  1  0  0  0  0
 11 30  1  0  0  0  0
 12 13  1  0  0  0  0
 12 31  1  0  0  0  0
 12 32  1  0  0  0  0
 13 14  1  0  0  0  0
 13 33  1  0  0  0  0
 13 34  1  0  0  0  0
 14 15  1  0  0  0  0
 15 20  1  0  0  0  0
 15 16  1  0  0  0  0
 15 35  1  0  0  0  0
 16 17  1  0  0  0  0
 16 36  1  0  0  0  0
 16 37  1  0  0  0  0
 17 18  1  0  0  0  0
 17 38  1  0  0  0  0
 17 39  1  0  0  0  0
 18 19  1  0  0  0  0
 18 40  1  0  0  0  0
 18 41  1  0  0  0  0
 19 20  1  0  0  0  0
 19 42  1  0  0  0  0
 19 43  1  0  0  0  0
 20 21  1  0  0  0  0
 20 44  1  0  0  0  0
 21 45  1  0  0  0  0
 21 46  1  0  0  0  0
 21 47  1  0  0  0  0
M  END
> <s_m_source_file>
AV-unprocessed.smi

> <i_m_source_file_index>
1346

> <i_lp_mmshare_version>
43012

> <i_f3d_flags>
0

> <s_epik_input>
W0NIM11jMW5vYyhbQ0gzXSljMVtDSDJdQyg9TylbTkhdW0NIMl1bQ0gyXU9bQ0BASF0yW0NIMl1bQ0gyXVtDSDJdW0NIMl1bQ0BIXTJbQ0gzXQ==

> <s_epik_cmdline>
J2VwaWtfcHl0aG9uJywgJy1waCcsICc3LjAnLCAnLXRuJywgJzgnLCAnLW1hJywgJzIwMCcsICctbWV0YWxfYmluZGluZycsICctaW1hZScsICc8aW5maWxlLm1hZT4nLCAnLW9tYWUnLCAnPG91dGZpbGUubWFlPic=

> <r_lp_tautomer_probability>
1

> <r_epik_Ionization_Penalty>
3.26154e-08

> <r_epik_Ionization_Penalty_Charging>
0

> <r_epik_Ionization_Penalty_Neutral>
3.26154e-08

> <r_epik_State_Penalty>
-0

> <r_epik_Charging_Adjusted_Penalty>
0

> <i_epik_Tot_Q>
0

> <i_epik_Tot_abs_Q>
0

> <r_epik_Metal_State_Penalty>
-0

> <b_epik_Metal_Only>
0

> <s_lp_Force_Field>
OPLS_2005

> <r_lp_Energy>
4.3429

> <b_lp_Chiralities_Consistent>
1

> <s_lp_Variant>
AV-unprocessed.smi:1346-4

> <Gold.Version>
5.8.1

> <Gold.Id.Protein>
6NUR|6NUR_protein|mol2

> <Gold.PLP.Fitness>
45.8280

> <Gold.PLP.PLP>
-42.2469

> <Gold.PLP.part.hbond>
-3.0000

> <Gold.PLP.part.metal>
0.0000

> <Gold.PLP.part.buried>
-2.8272

> <Gold.PLP.part.nonpolar>
-36.2382

> <Gold.PLP.part.repulsive>
0.2955

> <Gold.PLP.ligand.clash>
0.0000

> <Gold.PLP.ligand.torsion>
0.3379

> <Gold.PLP.Chemscore.Hbond>
1.3921

> <Gold.PLP.Chemscore.CHOScore>
0.0000

> <Gold.PLP.Chemscore.Metal>
0.0000

> <Gold.Chemscore.Hbonds>
donor molecule, donor type, donor heavy atom, donor atom, acceptor molecule, acceptor atom, score
      P1  H  6896  6909       L1     4  0.53
      P1  H  7989  7998       L1    10  1.00

> <Gold.PLP.Chemscore.Internal.Correction>
0.0807

> <Gold.Rescore>
     Score         DG    S(hbond)    S(metal)    S(lipo)     H(rot)  DE(clash)    DE(int)     intcor
     16.62     -18.44       0.96        0.00     121.42       1.74       1.53       0.29       ----

> <Gold.Chemscore.Fitness>
16.6197

> <Gold.Chemscore.DG>
-18.4366

> <Gold.Chemscore.ZeroCoef>
-5.4800

> <Gold.Chemscore.Hbond>
0.9560

> <Gold.Chemscore.Metal>
0.0000

> <Gold.Chemscore.Lipo>
121.4155

> <Gold.Chemscore.Internal_Hbond>
0.0000

> <Gold.Chemscore.DEClash>
1.5291

> <Gold.Chemscore.DEInternal>
0.2878

> <Gold.Chemscore.Rot>
1.7352

> <Gold.Chemscore.Internal.Correction>
   9.000000E+99

> <Gold.Chemscore.Hbonds>
donor molecule, donor type, donor heavy atom, donor atom, acceptor molecule, acceptor atom, score
      P1  H  6896  6909       L1     4  0.16
      P1  H  7989  7998       L1    10  0.55

> <Gold.Chemscore.Hbond.Weighted>
-3.1930

> <Gold.Chemscore.Metal.Weighted>
-0.0000

> <Gold.Chemscore.Lipo.Weighted>
-14.2056

> <Gold.Chemscore.Internal_Hbond.Weighted>
0.0000

> <Gold.Chemscore.DEClash.Weighted>
1.5291

> <Gold.Chemscore.DEInternal.Weighted>
0.2878

> <Gold.Chemscore.Rot.Weighted>
4.4420

> <Gold.Chemscore.Internal.Correction.Weighted>
   9.000000E+99

> <Gold.Protein.RotatedTorsions>
[ 6907 6896 6895 6894 ] final  116.99 input  -60.11 | X-H torsion
[ 7974 7965 7964 7962 ] final  -41.79 input  175.53 | X-H torsion
[ 8008 7997 7996 7995 ] final  124.68 input   59.86 | X-H torsion
[ 10167 10162 10161 10158 ] final  -75.67 input  -65.29 | X-H torsion
[ 10718 10713 10712 10709 ] final -126.34 input   66.30 | X-H torsion
[ 10763 10752 10751 10750 ] final  134.13 input  -60.55 | X-H torsion
[ 11005 11000 10999 10996 ] final  -89.05 input  -57.11 | X-H torsion

> <Gold.Protein.ActiveResidues>
 VAL166  LYS551  ARG553  GLY616  TRP617  ASP618  TYR619  PRO620  LYS621  CYS622 
 ASP623  PHE694  ASN695  SER759  ASP760  ASP761  ALA762  ILE779  LEU786  VAL792 
 PHE793  MET794  SER795  GLU796  ALA797  LYS798  CYS799  TRP800  GLU811  SER814 

> <Gold.Protein.RotatedAtoms>
  152.4642  133.7886  159.6889 H   0  0  0  0  0  0  0  0  0  0  0  0  # atno 6907 bound_to 6896
  150.8598  133.7650  159.3002 H   0  0  0  0  0  0  0  0  0  0  0  0  # atno 6908 bound_to 6896
  151.5219  135.1070  159.9932 H   0  0  0  0  0  0  0  0  0  0  0  0  # atno 6909 bound_to 6896
  146.0178  140.6887  142.9193 H   0  0  0  0  0  0  0  0  0  0  0  0  # atno 7974 bound_to 7965
  156.2809  140.2734  156.1827 H   0  0  0  0  0  0  0  0  0  0  0  0  # atno 8008 bound_to 7997
  155.0539  140.0386  157.2571 H   0  0  0  0  0  0  0  0  0  0  0  0  # atno 8009 bound_to 7997
  154.7172  140.2680  155.6580 H   0  0  0  0  0  0  0  0  0  0  0  0  # atno 8010 bound_to 7997
  140.4922  143.2378  151.7888 H   0  0  0  0  0  0  0  0  0  0  0  0  # atno 10167 bound_to 10162
  156.1756  130.6697  151.0238 H   0  0  0  0  0  0  0  0  0  0  0  0  # atno 10718 bound_to 10713
  153.8184  135.3119  155.3408 H   0  0  0  0  0  0  0  0  0  0  0  0  # atno 10763 bound_to 10752
  154.8023  135.4719  154.0308 H   0  0  0  0  0  0  0  0  0  0  0  0  # atno 10764 bound_to 10752
  153.1709  135.6877  153.8699 H   0  0  0  0  0  0  0  0  0  0  0  0  # atno 10765 bound_to 10752
  141.1591  133.7606  156.9539 H   0  0  0  0  0  0  0  0  0  0  0  0  # atno 11005 bound_to 11000
  144.6978  140.3512  143.7181 LP  0  0  0  0  0  0  0  0  0  0  0  0  # atno 17320 bound_to 7965
  145.7241  139.1718  143.2468 LP  0  0  0  0  0  0  0  0  0  0  0  0  # atno 17321 bound_to 7965
  139.4854  144.4633  151.9514 LP  0  0  0  0  0  0  0  0  0  0  0  0  # atno 17342 bound_to 10162
  140.3720  144.2843  150.5919 LP  0  0  0  0  0  0  0  0  0  0  0  0  # atno 17343 bound_to 10162
  157.6833  131.0832  150.7310 LP  0  0  0  0  0  0  0  0  0  0  0  0  # atno 17370 bound_to 10713
  156.7368  130.4727  149.5486 LP  0  0  0  0  0  0  0  0  0  0  0  0  # atno 17371 bound_to 10713
  140.1239  134.9399  157.2242 LP  0  0  0  0  0  0  0  0  0  0  0  0  # atno 17394 bound_to 11000
  140.3038  134.3102  155.7283 LP  0  0  0  0  0  0  0  0  0  0  0  0  # atno 17395 bound_to 11000

$$$$
