AV-unprocessed.smi:2858|AV-procd|sdf|11000|dock1
  -GOLD-   2272015453D 1   1.00000     0.00000
 Structure written by MMmdl.
 40 41  0  0  0  0  0  0  0  0  2 V2000
  143.5733  144.9184  155.3243 O   0  0  0  0  0  0  0  0  0  0  0  0
  143.6523  143.6946  155.3927 C   0  0  0  0  0  0  0  0  0  0  0  0
  145.0251  143.0149  155.2739 C   0  0  0  0  0  0  0  0  0  0  0  0
  144.9543  141.5569  154.9960 N   0  3  1  0  0  0  0  0  0  0  0  0
  146.2953  140.9209  154.9973 C   0  0  0  0  0  0  0  0  0  0  0  0
  147.1692  141.3919  153.8229 C   0  0  0  0  0  0  0  0  0  0  0  0
  148.6572  141.0668  154.0360 C   0  0  0  0  0  0  0  0  0  0  0  0
  149.2538  141.9159  155.0612 N   0  0  0  0  0  0  0  0  0  0  0  0
  150.0746  141.4839  156.0302 C   0  0  0  0  0  0  0  0  0  0  0  0
  150.4205  140.3078  156.1471 O   0  0  0  0  0  0  0  0  0  0  0  0
  150.4599  142.4929  156.8315 N   0  0  0  0  0  0  0  0  0  0  0  0
  151.3275  142.4382  157.9551 C   0  0  0  0  0  0  0  0  0  0  0  0
  151.5562  143.6767  158.5965 C   0  0  0  0  0  0  0  0  0  0  0  0
  152.4035  143.7287  159.7204 C   0  0  0  0  0  0  0  0  0  0  0  0
  152.9994  142.5392  160.1757 C   0  0  0  0  0  0  0  0  0  0  0  0
  152.7190  141.3487  159.4801 C   0  0  0  0  0  0  0  0  0  0  0  0
  151.9087  141.2966  158.4018 N   0  0  0  0  0  0  0  0  0  0  0  0
  143.9723  140.8767  155.8749 C   0  0  0  0  0  0  0  0  0  0  0  0
  142.5677  141.4664  155.6579 C   0  0  0  0  0  0  0  0  0  0  0  0
  142.5669  142.9250  155.5744 N   0  0  0  0  0  0  0  0  0  0  0  0
  145.5940  143.5069  154.4838 H   0  0  0  0  0  0  0  0  0  0  0  0
  145.5644  143.1805  156.2079 H   0  0  0  0  0  0  0  0  0  0  0  0
  146.8096  141.1785  155.9244 H   0  0  0  0  0  0  0  0  0  0  0  0
  146.1905  139.8348  154.9939 H   0  0  0  0  0  0  0  0  0  0  0  0
  146.8323  140.9266  152.8972 H   0  0  0  0  0  0  0  0  0  0  0  0
  147.0495  142.4678  153.6880 H   0  0  0  0  0  0  0  0  0  0  0  0
  148.7715  140.0281  154.3473 H   0  0  0  0  0  0  0  0  0  0  0  0
  149.2099  141.1734  153.1009 H   0  0  0  0  0  0  0  0  0  0  0  0
  149.0185  142.8974  155.0364 H   0  0  0  0  0  0  0  0  0  0  0  0
  150.0923  143.4069  156.6123 H   0  0  0  0  0  0  0  0  0  0  0  0
  151.0896  144.5813  158.2343 H   0  0  0  0  0  0  0  0  0  0  0  0
  152.5916  144.6652  160.2244 H   0  0  0  0  0  0  0  0  0  0  0  0
  153.6538  142.5386  161.0348 H   0  0  0  0  0  0  0  0  0  0  0  0
  153.1559  140.4134  159.7972 H   0  0  0  0  0  0  0  0  0  0  0  0
  143.9424  139.8045  155.6844 H   0  0  0  0  0  0  0  0  0  0  0  0
  144.2763  141.0033  156.9154 H   0  0  0  0  0  0  0  0  0  0  0  0
  142.1505  141.0838  154.7258 H   0  0  0  0  0  0  0  0  0  0  0  0
  141.8954  141.1491  156.4553 H   0  0  0  0  0  0  0  0  0  0  0  0
  141.6715  143.3859  155.6549 H   0  0  0  0  0  0  0  0  0  0  0  0
  144.5995  141.4738  154.0541 H   0  0  0  0  0  0  0  0  0  0  0  0
  1  2  2  0  0  0  0
  2 20  1  0  0  0  0
  2  3  1  0  0  0  0
  3  4  1  0  0  0  0
  3 21  1  0  0  0  0
  3 22  1  0  0  0  0
  4  5  1  0  0  0  0
  4 18  1  0  0  0  0
  4 40  1  0  0  0  0
  5  6  1  0  0  0  0
  5 23  1  0  0  0  0
  5 24  1  0  0  0  0
  6  7  1  0  0  0  0
  6 25  1  0  0  0  0
  6 26  1  0  0  0  0
  7  8  1  0  0  0  0
  7 27  1  0  0  0  0
  7 28  1  0  0  0  0
  8  9  1  0  0  0  0
  8 29  1  0  0  0  0
  9 10  2  0  0  0  0
  9 11  1  0  0  0  0
 11 12  1  0  0  0  0
 11 30  1  0  0  0  0
 12 17  1  0  0  0  0
 12 13  2  0  0  0  0
 13 14  1  0  0  0  0
 13 31  1  0  0  0  0
 14 15  2  0  0  0  0
 14 32  1  0  0  0  0
 15 16  1  0  0  0  0
 15 33  1  0  0  0  0
 16 17  2  0  0  0  0
 16 34  1  0  0  0  0
 18 19  1  0  0  0  0
 18 35  1  0  0  0  0
 18 36  1  0  0  0  0
 19 20  1  0  0  0  0
 19 37  1  0  0  0  0
 19 38  1  0  0  0  0
 20 39  1  0  0  0  0
M  CHG  1   4   1
M  END
> <s_m_source_file>
AV-unprocessed.smi

> <i_m_source_file_index>
2858

> <i_lp_mmshare_version>
43012

> <i_f3d_flags>
0

> <s_epik_input>
Tz1DMVtDSDJdTihbQ0gyXVtDSDJdW05IXTEpW0NIMl1bQ0gyXVtDSDJdW05IXUMoPU8pW05IXWMyW2NIXVtjSF1bY0hdW2NIXW4y

> <s_epik_cmdline>
J2VwaWtfcHl0aG9uJywgJy1waCcsICc3LjAnLCAnLXRuJywgJzgnLCAnLW1hJywgJzIwMCcsICctbWV0YWxfYmluZGluZycsICctaW1hZScsICc8aW5maWxlLm1hZT4nLCAnLW9tYWUnLCAnPG91dGZpbGUubWFlPic=

> <r_epik_Ionization_Penalty>
0.11034

> <r_epik_Ionization_Penalty_Charging>
0.110189

> <r_epik_Ionization_Penalty_Neutral>
0.000150894

> <r_epik_State_Penalty>
0.0999426

> <r_epik_Charging_Adjusted_Penalty>
0.210132

> <i_epik_Tot_Q>
1

> <i_epik_Tot_abs_Q>
1

> <r_epik_Metal_State_Penalty>
0.172915

> <b_epik_Metal_Only>
0

> <s_lp_Force_Field>
OPLS_2005

> <r_lp_Energy>
20.0709

> <b_lp_Chiralities_Consistent>
1

> <s_lp_Variant>
AV-unprocessed.smi:2858-2

> <Gold.Version>
5.8.1

> <Gold.Id.Protein>
6NUR|6NUR_protein|mol2

> <Gold.PLP.Fitness>
48.9406

> <Gold.PLP.PLP>
-37.8849

> <Gold.PLP.part.hbond>
-3.2398

> <Gold.PLP.part.metal>
0.0000

> <Gold.PLP.part.buried>
-6.1405

> <Gold.PLP.part.nonpolar>
-30.4306

> <Gold.PLP.part.repulsive>
0.3787

> <Gold.PLP.ligand.clash>
0.0000

> <Gold.PLP.ligand.torsion>
0.2758

> <Gold.PLP.Chemscore.Hbond>
3.8480

> <Gold.PLP.Chemscore.CHOScore>
0.0000

> <Gold.PLP.Chemscore.Metal>
0.0000

> <Gold.Chemscore.Hbonds>
donor molecule, donor type, donor heavy atom, donor atom, acceptor molecule, acceptor atom, score
      L1  H     4    40       P1 10175  1.89
      L1  H     8    29       P1  8028  1.00
      L1  H    11    30       P1  8028  1.00

> <Gold.PLP.Chemscore.Internal.Correction>
0.0633

> <Gold.Rescore>
     Score         DG    S(hbond)    S(metal)    S(lipo)     H(rot)  DE(clash)    DE(int)     intcor
     16.47     -18.15       2.87        0.00      71.84       2.08       0.07       1.61       ----

> <Gold.Chemscore.Fitness>
16.4654

> <Gold.Chemscore.DG>
-18.1494

> <Gold.Chemscore.ZeroCoef>
-5.4800

> <Gold.Chemscore.Hbond>
2.8690

> <Gold.Chemscore.Metal>
0.0000

> <Gold.Chemscore.Lipo>
71.8450

> <Gold.Chemscore.Internal_Hbond>
0.0000

> <Gold.Chemscore.DEClash>
0.0727

> <Gold.Chemscore.DEInternal>
1.6114

> <Gold.Chemscore.Rot>
2.0777

> <Gold.Chemscore.Internal.Correction>
   9.000000E+99

> <Gold.Chemscore.Hbonds>
donor molecule, donor type, donor heavy atom, donor atom, acceptor molecule, acceptor atom, score
      L1  H     4    40       P1 10175  0.26
      L1  H     8    29       P1  8028  0.99
      L1  H    11    30       P1  8028  0.93

> <Gold.Chemscore.Hbond.Weighted>
-9.5823

> <Gold.Chemscore.Metal.Weighted>
-0.0000

> <Gold.Chemscore.Lipo.Weighted>
-8.4059

> <Gold.Chemscore.Internal_Hbond.Weighted>
0.0000

> <Gold.Chemscore.DEClash.Weighted>
0.0727

> <Gold.Chemscore.DEInternal.Weighted>
1.6114

> <Gold.Chemscore.Rot.Weighted>
5.3188

> <Gold.Chemscore.Internal.Correction.Weighted>
   9.000000E+99

> <Gold.Protein.RotatedTorsions>
[ 6907 6896 6895 6894 ] final  134.13 input  -60.11 | X-H torsion
[ 7974 7965 7964 7962 ] final  139.06 input  175.53 | X-H torsion
[ 8008 7997 7996 7995 ] final  -55.43 input   59.86 | X-H torsion
[ 10167 10162 10161 10158 ] final -169.98 input  -65.29 | X-H torsion
[ 10718 10713 10712 10709 ] final  -94.88 input   66.30 | X-H torsion
[ 10763 10752 10751 10750 ] final  -84.99 input  -60.55 | X-H torsion
[ 11005 11000 10999 10996 ] final  -48.67 input  -57.11 | X-H torsion

> <Gold.Protein.ActiveResidues>
 VAL166  LYS551  ARG553  GLY616  TRP617  ASP618  TYR619  PRO620  LYS621  CYS622 
 ASP623  PHE694  ASN695  SER759  ASP760  ASP761  ALA762  ILE779  LEU786  VAL792 
 PHE793  MET794  SER795  GLU796  ALA797  LYS798  CYS799  TRP800  GLU811  SER814 

> <Gold.Protein.RotatedAtoms>
  152.3146  133.5789  159.5703 H   0  0  0  0  0  0  0  0  0  0  0  0  # atno 6907 bound_to 6896
  150.7340  134.0102  159.3676 H   0  0  0  0  0  0  0  0  0  0  0  0  # atno 6908 bound_to 6896
  151.7991  135.0714  160.0449 H   0  0  0  0  0  0  0  0  0  0  0  0  # atno 6909 bound_to 6896
  144.9314  139.5042  143.5616 H   0  0  0  0  0  0  0  0  0  0  0  0  # atno 7974 bound_to 7965
  154.4194  140.1153  156.5475 H   0  0  0  0  0  0  0  0  0  0  0  0  # atno 8008 bound_to 7997
  155.6445  140.3496  155.4707 H   0  0  0  0  0  0  0  0  0  0  0  0  # atno 8009 bound_to 7997
  155.9844  140.1166  157.0687 H   0  0  0  0  0  0  0  0  0  0  0  0  # atno 8010 bound_to 7997
  139.5889  144.1256  152.1610 H   0  0  0  0  0  0  0  0  0  0  0  0  # atno 10167 bound_to 10162
  156.0034  130.5086  150.5994 H   0  0  0  0  0  0  0  0  0  0  0  0  # atno 10718 bound_to 10713
  154.6059  135.5501  153.7422 H   0  0  0  0  0  0  0  0  0  0  0  0  # atno 10763 bound_to 10752
  153.0174  135.6377  154.1648 H   0  0  0  0  0  0  0  0  0  0  0  0  # atno 10764 bound_to 10752
  154.1587  135.2898  155.3095 H   0  0  0  0  0  0  0  0  0  0  0  0  # atno 10765 bound_to 10752
  141.0715  133.6678  156.3475 H   0  0  0  0  0  0  0  0  0  0  0  0  # atno 11005 bound_to 11000
  146.3248  139.8267  142.8916 LP  0  0  0  0  0  0  0  0  0  0  0  0  # atno 17320 bound_to 7965
  145.3136  141.0226  143.3540 LP  0  0  0  0  0  0  0  0  0  0  0  0  # atno 17321 bound_to 7965
  140.0826  144.5688  150.7111 LP  0  0  0  0  0  0  0  0  0  0  0  0  # atno 17342 bound_to 10162
  140.7156  143.2542  151.4445 LP  0  0  0  0  0  0  0  0  0  0  0  0  # atno 17343 bound_to 10162
  157.3845  131.0786  151.1448 LP  0  0  0  0  0  0  0  0  0  0  0  0  # atno 17370 bound_to 10713
  157.2159  130.6459  149.5792 LP  0  0  0  0  0  0  0  0  0  0  0  0  # atno 17371 bound_to 10713
  140.5664  134.5883  157.5447 LP  0  0  0  0  0  0  0  0  0  0  0  0  # atno 17394 bound_to 11000
  139.9528  134.7587  156.0410 LP  0  0  0  0  0  0  0  0  0  0  0  0  # atno 17395 bound_to 11000

$$$$
