AV-unprocessed.smi:2213|AV-procd|sdf|8956|dock5
  -GOLD-   2272012173D 1   1.00000     0.00000
 Structure written by MMmdl.
 38 39  0  0  0  0  0  0  0  0  1 V2000
  148.4749  133.8587  157.9602 C   0  0  0  0  0  0  0  0  0  0  0  0
  149.3858  134.9172  157.3639 C   0  0  0  0  0  0  0  0  0  0  0  0
  149.8103  135.9152  158.2459 N   0  0  0  0  0  0  0  0  0  0  0  0
  150.5823  136.8626  157.8244 C   0  0  0  0  0  0  0  0  0  0  0  0
  151.0160  136.9222  156.4900 N   0  0  0  0  0  0  0  0  0  0  0  0
  151.8865  138.0562  156.1374 C   0  0  0  0  0  0  0  0  0  0  0  0
  151.0983  139.3769  155.9868 C   0  0  2  0  0  0  0  0  0  0  0  0
  150.6877  139.5583  154.6464 O   0  0  0  0  0  0  0  0  0  0  0  0
  151.9148  140.6143  156.3975 C   0  0  0  0  0  0  0  0  0  0  0  0
  152.5755  140.3667  157.6326 O   0  0  0  0  0  0  0  0  0  0  0  0
  152.5905  141.3636  158.5854 C   0  0  0  0  0  0  0  0  0  0  0  0
  151.9500  142.6191  158.4272 C   0  0  0  0  0  0  0  0  0  0  0  0
  152.0137  143.5881  159.4478 C   0  0  0  0  0  0  0  0  0  0  0  0
  151.2302  145.1112  159.2399 Cl  0  0  0  0  0  0  0  0  0  0  0  0
  152.7153  143.3162  160.6367 C   0  0  0  0  0  0  0  0  0  0  0  0
  153.3525  142.0734  160.8042 C   0  0  0  0  0  0  0  0  0  0  0  0
  153.2899  141.1030  159.7850 C   0  0  0  0  0  0  0  0  0  0  0  0
  154.0793  139.5838  160.0167 Cl  0  0  0  0  0  0  0  0  0  0  0  0
  150.6613  135.9813  155.5677 C   0  0  0  0  0  0  0  0  0  0  0  0
  151.0644  136.0323  154.4041 O   0  0  0  0  0  0  0  0  0  0  0  0
  149.7754  134.9138  156.0598 C   0  0  0  0  0  0  0  0  0  0  0  0
  149.3446  133.8539  155.0537 C   0  0  0  0  0  0  0  0  0  0  0  0
  147.5056  133.8650  157.4612 H   0  0  0  0  0  0  0  0  0  0  0  0
  148.3041  134.0348  159.0231 H   0  0  0  0  0  0  0  0  0  0  0  0
  148.9174  132.8682  157.8531 H   0  0  0  0  0  0  0  0  0  0  0  0
  150.9436  137.6629  158.4726 H   0  0  0  0  0  0  0  0  0  0  0  0
  152.6337  138.1722  156.9250 H   0  0  0  0  0  0  0  0  0  0  0  0
  152.4750  137.8585  155.2387 H   0  0  0  0  0  0  0  0  0  0  0  0
  150.1978  139.3545  156.6016 H   0  0  0  0  0  0  0  0  0  0  0  0
  150.1780  138.8074  154.3830 H   0  0  0  0  0  0  0  0  0  0  0  0
  152.6268  140.8785  155.6135 H   0  0  0  0  0  0  0  0  0  0  0  0
  151.2331  141.4570  156.5240 H   0  0  0  0  0  0  0  0  0  0  0  0
  151.4017  142.8630  157.5302 H   0  0  0  0  0  0  0  0  0  0  0  0
  152.7653  144.0581  161.4201 H   0  0  0  0  0  0  0  0  0  0  0  0
  153.8904  141.8645  161.7172 H   0  0  0  0  0  0  0  0  0  0  0  0
  150.2176  133.3324  154.6605 H   0  0  0  0  0  0  0  0  0  0  0  0
  148.8224  134.3190  154.2170 H   0  0  0  0  0  0  0  0  0  0  0  0
  148.6791  133.1038  155.4777 H   0  0  0  0  0  0  0  0  0  0  0  0
  1  2  1  0  0  0  0
  1 23  1  0  0  0  0
  1 24  1  0  0  0  0
  1 25  1  0  0  0  0
  2 21  2  0  0  0  0
  2  3  1  0  0  0  0
  3  4  2  0  0  0  0
  4  5  1  0  0  0  0
  4 26  1  0  0  0  0
  5  6  1  0  0  0  0
  5 19  1  0  0  0  0
  6  7  1  0  0  0  0
  6 27  1  0  0  0  0
  6 28  1  0  0  0  0
  7  8  1  0  0  0  0
  7  9  1  0  0  0  0
  7 29  1  0  0  0  0
  8 30  1  0  0  0  0
  9 10  1  0  0  0  0
  9 31  1  0  0  0  0
  9 32  1  0  0  0  0
 10 11  1  0  0  0  0
 11 17  1  0  0  0  0
 11 12  2  0  0  0  0
 12 13  1  0  0  0  0
 12 33  1  0  0  0  0
 13 14  1  0  0  0  0
 13 15  2  0  0  0  0
 15 16  1  0  0  0  0
 15 34  1  0  0  0  0
 16 17  2  0  0  0  0
 16 35  1  0  0  0  0
 17 18  1  0  0  0  0
 19 20  2  0  0  0  0
 19 21  1  0  0  0  0
 21 22  1  0  0  0  0
 22 36  1  0  0  0  0
 22 37  1  0  0  0  0
 22 38  1  0  0  0  0
M  END
> <s_m_source_file>
AV-unprocessed.smi

> <i_m_source_file_index>
2213

> <i_lp_mmshare_version>
43012

> <i_f3d_flags>
0

> <s_epik_input>
W0NIM11jMW5bY0hdbihjKD1PKWMxW0NIM10pW0NIMl1bQ0BIXShbT0hdKVtDSDJdT2MyW2NIXWMoQ2wpW2NIXVtjSF1jMkNs

> <s_epik_cmdline>
J2VwaWtfcHl0aG9uJywgJy1waCcsICc3LjAnLCAnLXRuJywgJzgnLCAnLW1hJywgJzIwMCcsICctbWV0YWxfYmluZGluZycsICctaW1hZScsICc8aW5maWxlLm1hZT4nLCAnLW9tYWUnLCAnPG91dGZpbGUubWFlPic=

> <r_lp_tautomer_probability>
1

> <r_epik_Ionization_Penalty>
3.50205e-05

> <r_epik_Ionization_Penalty_Charging>
7.87908e-08

> <r_epik_Ionization_Penalty_Neutral>
3.49418e-05

> <r_epik_State_Penalty>
-0

> <r_epik_Charging_Adjusted_Penalty>
7.87908e-08

> <i_epik_Tot_Q>
0

> <i_epik_Tot_abs_Q>
0

> <r_epik_Metal_State_Penalty>
-0

> <b_epik_Metal_Only>
0

> <s_lp_Force_Field>
OPLS_2005

> <r_lp_Energy>
24.8727

> <b_lp_Chiralities_Consistent>
1

> <s_lp_Variant>
AV-unprocessed.smi:2213-1

> <Gold.Version>
5.8.1

> <Gold.Id.Protein>
6NUR|6NUR_protein|mol2

> <Gold.PLP.Fitness>
46.9323

> <Gold.PLP.PLP>
-37.4957

> <Gold.PLP.part.hbond>
-4.0000

> <Gold.PLP.part.metal>
0.0000

> <Gold.PLP.part.buried>
-5.3830

> <Gold.PLP.part.nonpolar>
-29.3239

> <Gold.PLP.part.repulsive>
1.5834

> <Gold.PLP.ligand.clash>
0.0000

> <Gold.PLP.ligand.torsion>
1.0011

> <Gold.PLP.Chemscore.Hbond>
3.7823

> <Gold.PLP.Chemscore.CHOScore>
0.0000

> <Gold.PLP.Chemscore.Metal>
0.0000

> <Gold.Chemscore.Hbonds>
donor molecule, donor type, donor heavy atom, donor atom, acceptor molecule, acceptor atom, score
      P1  H  6896  6907       L1     3  0.94
      P1  H  7989  7998       L1     8  1.00
      P1  H  7997  8008       L1    10  0.57
      P1  H 10752 10763       L1    20  1.00

> <Gold.PLP.Chemscore.Internal.Correction>
0.0917

> <Gold.Rescore>
     Score         DG    S(hbond)    S(metal)    S(lipo)     H(rot)  DE(clash)    DE(int)     intcor
     18.15     -19.45       2.11        0.00     111.23       2.38       0.26       1.04       ----

> <Gold.Chemscore.Fitness>
18.1541

> <Gold.Chemscore.DG>
-19.4493

> <Gold.Chemscore.ZeroCoef>
-5.4800

> <Gold.Chemscore.Hbond>
2.1124

> <Gold.Chemscore.Metal>
0.0000

> <Gold.Chemscore.Lipo>
111.2267

> <Gold.Chemscore.Internal_Hbond>
0.0000

> <Gold.Chemscore.DEClash>
0.2553

> <Gold.Chemscore.DEInternal>
1.0399

> <Gold.Chemscore.Rot>
2.3826

> <Gold.Chemscore.Internal.Correction>
   9.000000E+99

> <Gold.Chemscore.Hbonds>
donor molecule, donor type, donor heavy atom, donor atom, acceptor molecule, acceptor atom, score
      P1  H  6896  6907       L1     3  0.15
      P1  H  7989  7998       L1     8  0.95
      P1  H  7997  8008       L1    10  0.12
      P1  H 10752 10763       L1    20  0.55

> <Gold.Chemscore.Hbond.Weighted>
-7.0553

> <Gold.Chemscore.Metal.Weighted>
-0.0000

> <Gold.Chemscore.Lipo.Weighted>
-13.0135

> <Gold.Chemscore.Internal_Hbond.Weighted>
0.0000

> <Gold.Chemscore.DEClash.Weighted>
0.2553

> <Gold.Chemscore.DEInternal.Weighted>
1.0399

> <Gold.Chemscore.Rot.Weighted>
6.0996

> <Gold.Chemscore.Internal.Correction.Weighted>
   9.000000E+99

> <Gold.Protein.RotatedTorsions>
[ 6907 6896 6895 6894 ] final  -58.31 input  -60.11 | X-H torsion
[ 7974 7965 7964 7962 ] final -160.23 input  175.53 | X-H torsion
[ 8008 7997 7996 7995 ] final  -86.16 input   59.86 | X-H torsion
[ 10167 10162 10161 10158 ] final -157.55 input  -65.29 | X-H torsion
[ 10718 10713 10712 10709 ] final  160.26 input   66.30 | X-H torsion
[ 10763 10752 10751 10750 ] final   53.34 input  -60.55 | X-H torsion
[ 11005 11000 10999 10996 ] final  -82.10 input  -57.11 | X-H torsion

> <Gold.Protein.ActiveResidues>
 VAL166  LYS551  ARG553  GLY616  TRP617  ASP618  TYR619  PRO620  LYS621  CYS622 
 ASP623  PHE694  ASN695  SER759  ASP760  ASP761  ALA762  ILE779  LEU786  VAL792 
 PHE793  MET794  SER795  GLU796  ALA797  LYS798  CYS799  TRP800  GLU811  SER814 

> <Gold.Protein.RotatedAtoms>
  150.8017  134.7115  159.6605 H   0  0  0  0  0  0  0  0  0  0  0  0  # atno 6907 bound_to 6896
  152.4134  134.6081  160.0028 H   0  0  0  0  0  0  0  0  0  0  0  0  # atno 6908 bound_to 6896
  151.6317  133.3294  159.3146 H   0  0  0  0  0  0  0  0  0  0  0  0  # atno 6909 bound_to 6896
  144.7435  140.3572  143.6103 H   0  0  0  0  0  0  0  0  0  0  0  0  # atno 7974 bound_to 7965
  154.6488  140.0582  156.9932 H   0  0  0  0  0  0  0  0  0  0  0  0  # atno 8008 bound_to 7997
  155.1403  140.3265  155.4435 H   0  0  0  0  0  0  0  0  0  0  0  0  # atno 8009 bound_to 7997
  156.2566  140.1965  156.6519 H   0  0  0  0  0  0  0  0  0  0  0  0  # atno 8010 bound_to 7997
  139.6761  143.9660  152.2311 H   0  0  0  0  0  0  0  0  0  0  0  0  # atno 10167 bound_to 10162
  157.1528  131.0568  151.2271 H   0  0  0  0  0  0  0  0  0  0  0  0  # atno 10718 bound_to 10713
  152.9794  135.5782  154.4725 H   0  0  0  0  0  0  0  0  0  0  0  0  # atno 10763 bound_to 10752
  154.4285  135.2773  155.1930 H   0  0  0  0  0  0  0  0  0  0  0  0  # atno 10764 bound_to 10752
  154.3648  135.6181  153.5763 H   0  0  0  0  0  0  0  0  0  0  0  0  # atno 10765 bound_to 10752
  141.1664  133.7228  156.8522 H   0  0  0  0  0  0  0  0  0  0  0  0  # atno 11005 bound_to 11000
  145.7215  139.1711  143.2482 LP  0  0  0  0  0  0  0  0  0  0  0  0  # atno 17320 bound_to 7965
  146.1273  140.7231  142.9429 LP  0  0  0  0  0  0  0  0  0  0  0  0  # atno 17321 bound_to 7965
  139.9438  144.6664  150.8240 LP  0  0  0  0  0  0  0  0  0  0  0  0  # atno 17342 bound_to 10162
  140.7636  143.3227  151.2586 LP  0  0  0  0  0  0  0  0  0  0  0  0  # atno 17343 bound_to 10162
  157.4205  130.7435  149.6909 LP  0  0  0  0  0  0  0  0  0  0  0  0  # atno 17370 bound_to 10713
  155.9767  130.4072  150.3759 LP  0  0  0  0  0  0  0  0  0  0  0  0  # atno 17371 bound_to 10713
  140.1908  134.8967  157.3058 LP  0  0  0  0  0  0  0  0  0  0  0  0  # atno 17394 bound_to 11000
  140.2293  134.3929  155.7529 LP  0  0  0  0  0  0  0  0  0  0  0  0  # atno 17395 bound_to 11000

$$$$
