AV-unprocessed.smi:2712|AV-procd|sdf|10475|dock3
  -GOLD-   2272014513D 1   1.00000     0.00000
 Structure written by MMmdl.
 52 53  0  0  0  0  0  0  0  0  1 V2000
  152.0412  139.7732  157.8986 C   0  0  0  0  0  0  0  0  0  0  0  0
  151.2222  140.3173  156.7658 C   0  0  0  0  0  0  0  0  0  0  0  0
  150.9545  141.7324  156.5945 C   0  0  0  0  0  0  0  0  0  0  0  0
  150.2058  142.1424  155.5483 C   0  0  0  0  0  0  0  0  0  0  0  0
  149.6550  141.1963  154.5801 C   0  0  0  0  0  0  0  0  0  0  0  0
  148.9678  141.5382  153.6177 O   0  0  0  0  0  0  0  0  0  0  0  0
  149.9704  139.8934  154.8446 N   0  0  0  0  0  0  0  0  0  0  0  0
  149.4836  138.8000  153.9907 C   0  0  0  0  0  0  0  0  0  0  0  0
  147.9963  138.4737  154.1955 C   0  0  0  0  0  0  0  0  0  0  0  0
  147.2879  139.1612  154.9329 O   0  0  0  0  0  0  0  0  0  0  0  0
  147.5375  137.4019  153.5305 N   0  0  0  0  0  0  0  0  0  0  0  0
  146.1661  136.8975  153.5735 C   0  0  1  0  0  0  0  0  0  0  0  0
  145.4773  137.2152  152.2333 C   0  0  0  0  0  0  0  0  0  0  0  0
  144.1820  136.4298  151.9788 C   0  0  0  0  0  0  0  0  0  0  0  0
  144.4201  135.0809  151.2729 C   0  0  0  0  0  0  0  0  0  0  0  0
  145.0381  133.9460  152.1375 C   0  0  1  0  0  0  0  0  0  0  0  0
  145.1914  132.5857  151.3603 C   0  0  0  0  0  0  0  0  0  0  0  0
  145.6968  131.4516  152.2787 C   0  0  0  0  0  0  0  0  0  0  0  0
  146.1770  132.7275  150.1771 C   0  0  0  0  0  0  0  0  0  0  0  0
  143.8398  132.1529  150.7431 C   0  0  0  0  0  0  0  0  0  0  0  0
  146.3525  134.4046  152.8324 C   0  0  0  0  0  0  0  0  0  0  0  0
  146.1308  135.4072  153.9789 C   0  0  0  0  0  0  0  0  0  0  0  0
  150.7412  139.4710  155.9154 N   0  0  0  0  0  0  0  0  0  0  0  0
  152.4512  140.5762  158.5112 H   0  0  0  0  0  0  0  0  0  0  0  0
  152.8760  139.1790  157.5255 H   0  0  0  0  0  0  0  0  0  0  0  0
  151.4344  139.1368  158.5437 H   0  0  0  0  0  0  0  0  0  0  0  0
  151.3526  142.4444  157.3023 H   0  0  0  0  0  0  0  0  0  0  0  0
  150.0058  143.1964  155.4229 H   0  0  0  0  0  0  0  0  0  0  0  0
  149.6518  139.0328  152.9378 H   0  0  0  0  0  0  0  0  0  0  0  0
  150.0645  137.8961  154.1846 H   0  0  0  0  0  0  0  0  0  0  0  0
  148.1876  136.8960  152.9467 H   0  0  0  0  0  0  0  0  0  0  0  0
  145.6322  137.4506  154.3486 H   0  0  0  0  0  0  0  0  0  0  0  0
  145.2527  138.2825  152.2153 H   0  0  0  0  0  0  0  0  0  0  0  0
  146.1640  137.0528  151.4010 H   0  0  0  0  0  0  0  0  0  0  0  0
  143.6094  136.3005  152.8979 H   0  0  0  0  0  0  0  0  0  0  0  0
  143.5522  137.0334  151.3242 H   0  0  0  0  0  0  0  0  0  0  0  0
  143.4434  134.7637  150.9109 H   0  0  0  0  0  0  0  0  0  0  0  0
  145.0250  135.2495  150.3825 H   0  0  0  0  0  0  0  0  0  0  0  0
  144.3151  133.7490  152.9304 H   0  0  0  0  0  0  0  0  0  0  0  0
  145.8076  130.5191  151.7240 H   0  0  0  0  0  0  0  0  0  0  0  0
  145.0066  131.2522  153.0984 H   0  0  0  0  0  0  0  0  0  0  0  0
  146.6693  131.6808  152.7134 H   0  0  0  0  0  0  0  0  0  0  0  0
  147.2059  132.8616  150.5106 H   0  0  0  0  0  0  0  0  0  0  0  0
  145.9159  133.5728  149.5396 H   0  0  0  0  0  0  0  0  0  0  0  0
  146.1772  131.8359  149.5488 H   0  0  0  0  0  0  0  0  0  0  0  0
  143.9626  131.2912  150.0861 H   0  0  0  0  0  0  0  0  0  0  0  0
  143.3992  132.9524  150.1462 H   0  0  0  0  0  0  0  0  0  0  0  0
  143.1076  131.8541  151.4915 H   0  0  0  0  0  0  0  0  0  0  0  0
  146.8520  133.5503  153.2816 H   0  0  0  0  0  0  0  0  0  0  0  0
  147.0634  134.8019  152.1074 H   0  0  0  0  0  0  0  0  0  0  0  0
  146.8799  135.2294  154.7516 H   0  0  0  0  0  0  0  0  0  0  0  0
  145.1825  135.1897  154.4710 H   0  0  0  0  0  0  0  0  0  0  0  0
  1  2  1  0  0  0  0
  1 24  1  0  0  0  0
  1 25  1  0  0  0  0
  1 26  1  0  0  0  0
  2 23  2  0  0  0  0
  2  3  1  0  0  0  0
  3  4  2  0  0  0  0
  3 27  1  0  0  0  0
  4  5  1  0  0  0  0
  4 28  1  0  0  0  0
  5  6  2  0  0  0  0
  5  7  1  0  0  0  0
  7  8  1  0  0  0  0
  7 23  1  0  0  0  0
  8  9  1  0  0  0  0
  8 29  1  0  0  0  0
  8 30  1  0  0  0  0
  9 10  2  0  0  0  0
  9 11  1  0  0  0  0
 11 12  1  0  0  0  0
 11 31  1  0  0  0  0
 12 22  1  0  0  0  0
 12 13  1  0  0  0  0
 12 32  1  0  0  0  0
 13 14  1  0  0  0  0
 13 33  1  0  0  0  0
 13 34  1  0  0  0  0
 14 15  1  0  0  0  0
 14 35  1  0  0  0  0
 14 36  1  0  0  0  0
 15 16  1  0  0  0  0
 15 37  1  0  0  0  0
 15 38  1  0  0  0  0
 16 17  1  0  0  0  0
 16 21  1  0  0  0  0
 16 39  1  0  0  0  0
 17 18  1  0  0  0  0
 17 19  1  0  0  0  0
 17 20  1  0  0  0  0
 18 40  1  0  0  0  0
 18 41  1  0  0  0  0
 18 42  1  0  0  0  0
 19 43  1  0  0  0  0
 19 44  1  0  0  0  0
 19 45  1  0  0  0  0
 20 46  1  0  0  0  0
 20 47  1  0  0  0  0
 20 48  1  0  0  0  0
 21 22  1  0  0  0  0
 21 49  1  0  0  0  0
 21 50  1  0  0  0  0
 22 51  1  0  0  0  0
 22 52  1  0  0  0  0
M  END
> <s_m_source_file>
AV-unprocessed.smi

> <i_m_source_file_index>
2712

> <i_lp_mmshare_version>
43012

> <i_f3d_flags>
0

> <s_epik_input>
W0NIM11jMVtjSF1bY0hdYyg9TyluKG4xKVtDSDJdQyg9TylbTkhdW0NAQEhdMltDSDJdW0NIMl1bQ0gyXVtDQEBIXShDKFtDSDNdKShbQ0gzXSlbQ0gzXSlbQ0gyXVtDSDJdMg==

> <s_epik_cmdline>
J2VwaWtfcHl0aG9uJywgJy1waCcsICc3LjAnLCAnLXRuJywgJzgnLCAnLW1hJywgJzIwMCcsICctbWV0YWxfYmluZGluZycsICctaW1hZScsICc8aW5maWxlLm1hZT4nLCAnLW9tYWUnLCAnPG91dGZpbGUubWFlPic=

> <r_lp_tautomer_probability>
1

> <r_epik_Ionization_Penalty>
8.71758e-07

> <r_epik_Ionization_Penalty_Charging>
8.50442e-07

> <r_epik_Ionization_Penalty_Neutral>
2.13165e-08

> <r_epik_State_Penalty>
-0

> <r_epik_Charging_Adjusted_Penalty>
8.50442e-07

> <i_epik_Tot_Q>
0

> <i_epik_Tot_abs_Q>
0

> <r_epik_Metal_State_Penalty>
-0

> <b_epik_Metal_Only>
0

> <s_lp_Force_Field>
OPLS_2005

> <r_lp_Energy>
40.0092

> <b_lp_Chiralities_Consistent>
1

> <s_lp_Variant>
AV-unprocessed.smi:2712-2

> <Gold.Version>
5.8.1

> <Gold.Id.Protein>
6NUR|6NUR_protein|mol2

> <Gold.PLP.Fitness>
42.2553

> <Gold.PLP.PLP>
-37.4931

> <Gold.PLP.part.hbond>
-2.7807

> <Gold.PLP.part.metal>
0.0000

> <Gold.PLP.part.buried>
-4.0174

> <Gold.PLP.part.nonpolar>
-31.9962

> <Gold.PLP.part.repulsive>
0.4900

> <Gold.PLP.ligand.clash>
0.0000

> <Gold.PLP.ligand.torsion>
0.3376

> <Gold.PLP.Chemscore.Hbond>
1.7840

> <Gold.PLP.Chemscore.CHOScore>
0.0000

> <Gold.PLP.Chemscore.Metal>
0.0000

> <Gold.Chemscore.Hbonds>
donor molecule, donor type, donor heavy atom, donor atom, acceptor molecule, acceptor atom, score
      L1  H    11    31       P1  7948  0.88
      P1  H  8011  8017       L1     6  0.77

> <Gold.PLP.Chemscore.Internal.Correction>
0.0853

> <Gold.Rescore>
     Score         DG    S(hbond)    S(metal)    S(lipo)     H(rot)  DE(clash)    DE(int)     intcor
     16.74     -17.96       1.70        0.00      91.34       1.52       0.86       0.35       ----

> <Gold.Chemscore.Fitness>
16.7445

> <Gold.Chemscore.DG>
-17.9555

> <Gold.Chemscore.ZeroCoef>
-5.4800

> <Gold.Chemscore.Hbond>
1.6978

> <Gold.Chemscore.Metal>
0.0000

> <Gold.Chemscore.Lipo>
91.3352

> <Gold.Chemscore.Internal_Hbond>
0.0000

> <Gold.Chemscore.DEClash>
0.8574

> <Gold.Chemscore.DEInternal>
0.3536

> <Gold.Chemscore.Rot>
1.5162

> <Gold.Chemscore.Internal.Correction>
   9.000000E+99

> <Gold.Chemscore.Hbonds>
donor molecule, donor type, donor heavy atom, donor atom, acceptor molecule, acceptor atom, score
      L1  H    11    31       P1  7948  0.86
      P1  H  8011  8017       L1     6  0.72

> <Gold.Chemscore.Hbond.Weighted>
-5.6707

> <Gold.Chemscore.Metal.Weighted>
-0.0000

> <Gold.Chemscore.Lipo.Weighted>
-10.6862

> <Gold.Chemscore.Internal_Hbond.Weighted>
0.0000

> <Gold.Chemscore.DEClash.Weighted>
0.8574

> <Gold.Chemscore.DEInternal.Weighted>
0.3536

> <Gold.Chemscore.Rot.Weighted>
3.8814

> <Gold.Chemscore.Internal.Correction.Weighted>
   9.000000E+99

> <Gold.Protein.RotatedTorsions>
[ 6907 6896 6895 6894 ] final  -42.97 input  -60.11 | X-H torsion
[ 7974 7965 7964 7962 ] final   94.85 input  175.53 | X-H torsion
[ 8008 7997 7996 7995 ] final -171.75 input   59.86 | X-H torsion
[ 10167 10162 10161 10158 ] final -140.75 input  -65.29 | X-H torsion
[ 10718 10713 10712 10709 ] final   65.71 input   66.30 | X-H torsion
[ 10763 10752 10751 10750 ] final -160.88 input  -60.55 | X-H torsion
[ 11005 11000 10999 10996 ] final -171.17 input  -57.11 | X-H torsion

> <Gold.Protein.ActiveResidues>
 VAL166  LYS551  ARG553  GLY616  TRP617  ASP618  TYR619  PRO620  LYS621  CYS622 
 ASP623  PHE694  ASN695  SER759  ASP760  ASP761  ALA762  ILE779  LEU786  VAL792 
 PHE793  MET794  SER795  GLU796  ALA797  LYS798  CYS799  TRP800  GLU811  SER814 

> <Gold.Protein.RotatedAtoms>
  150.9492  134.8894  159.7660 H   0  0  0  0  0  0  0  0  0  0  0  0  # atno 6907 bound_to 6896
  152.5112  134.3831  159.9368 H   0  0  0  0  0  0  0  0  0  0  0  0  # atno 6908 bound_to 6896
  151.3848  133.3769  159.2749 H   0  0  0  0  0  0  0  0  0  0  0  0  # atno 6909 bound_to 6896
  145.4600  139.2287  143.2992 H   0  0  0  0  0  0  0  0  0  0  0  0  # atno 7974 bound_to 7965
  155.9357  140.1099  157.1097 H   0  0  0  0  0  0  0  0  0  0  0  0  # atno 8008 bound_to 7997
  154.4079  140.1229  156.4926 H   0  0  0  0  0  0  0  0  0  0  0  0  # atno 8009 bound_to 7997
  155.7025  140.3471  155.4941 H   0  0  0  0  0  0  0  0  0  0  0  0  # atno 8010 bound_to 7997
  139.8251  143.7522  152.2666 H   0  0  0  0  0  0  0  0  0  0  0  0  # atno 10167 bound_to 10162
  157.6123  130.9228  150.0012 H   0  0  0  0  0  0  0  0  0  0  0  0  # atno 10718 bound_to 10713
  154.7352  135.3055  154.8824 H   0  0  0  0  0  0  0  0  0  0  0  0  # atno 10763 bound_to 10752
  153.9655  135.6748  153.4750 H   0  0  0  0  0  0  0  0  0  0  0  0  # atno 10764 bound_to 10752
  153.0955  135.4937  154.8694 H   0  0  0  0  0  0  0  0  0  0  0  0  # atno 10765 bound_to 10752
  140.5112  134.5800  157.5019 H   0  0  0  0  0  0  0  0  0  0  0  0  # atno 11005 bound_to 11000
  146.2456  140.5368  142.8915 LP  0  0  0  0  0  0  0  0  0  0  0  0  # atno 17320 bound_to 7965
  144.8008  140.6210  143.6479 LP  0  0  0  0  0  0  0  0  0  0  0  0  # atno 17321 bound_to 7965
  139.7712  144.7476  151.0222 LP  0  0  0  0  0  0  0  0  0  0  0  0  # atno 17342 bound_to 10162
  140.7811  143.4643  151.0234 LP  0  0  0  0  0  0  0  0  0  0  0  0  # atno 17343 bound_to 10162
  156.1230  130.3645  149.9856 LP  0  0  0  0  0  0  0  0  0  0  0  0  # atno 17370 bound_to 10713
  156.7932  130.9263  151.3646 LP  0  0  0  0  0  0  0  0  0  0  0  0  # atno 17371 bound_to 10713
  139.9658  134.7376  156.0142 LP  0  0  0  0  0  0  0  0  0  0  0  0  # atno 17394 bound_to 11000
  141.1384  133.6570  156.3660 LP  0  0  0  0  0  0  0  0  0  0  0  0  # atno 17395 bound_to 11000

$$$$
