AV-unprocessed.smi:757|AV-procd|sdf|3614|dock7
  -GOLD-   22720 1 13D 1   1.00000     0.00000
 Structure written by MMmdl.
 45 46  0  0  0  0  0  0  0  0  2 V2000
  148.9806  126.5599  150.4812 C   0  0  0  0  0  0  0  0  0  0  0  0
  148.2061  127.3953  150.9206 C   0  0  0  0  0  0  0  0  0  0  0  0
  147.2829  128.4062  151.4615 C   0  0  0  0  0  0  0  0  0  0  0  0
  147.6634  128.8740  152.8782 C   0  0  0  0  0  0  0  0  0  0  0  0
  148.0772  130.2996  152.9140 N   0  3  2  0  0  0  0  0  0  0  0  0
  148.8449  130.6279  154.1434 C   0  0  0  0  0  0  0  0  0  0  0  0
  149.3811  132.0686  154.1007 C   0  0  0  0  0  0  0  0  0  0  0  0
  148.2409  133.0785  153.8972 C   0  0  1  0  0  0  0  0  0  0  0  0
  148.7839  134.4296  153.7870 N   0  0  0  0  0  0  0  0  0  0  0  0
  149.4253  135.0835  154.7666 C   0  0  0  0  0  0  0  0  0  0  0  0
  149.6069  134.6105  155.8883 O   0  0  0  0  0  0  0  0  0  0  0  0
  149.8130  136.3060  154.3640 N   0  0  0  0  0  0  0  0  0  0  0  0
  150.5440  137.2882  155.0867 C   0  0  0  0  0  0  0  0  0  0  0  0
  151.4018  138.2445  154.4921 C   0  0  0  0  0  0  0  0  0  0  0  0
  152.0559  139.1790  155.3176 C   0  0  0  0  0  0  0  0  0  0  0  0
  151.8285  139.1385  156.7074 C   0  0  0  0  0  0  0  0  0  0  0  0
  152.4723  140.0594  157.5083 O   0  0  0  0  0  0  0  0  0  0  0  0
  152.2304  140.0218  158.9104 C   0  0  0  0  0  0  0  0  0  0  0  0
  150.9990  138.2334  157.2830 N   0  0  0  0  0  0  0  0  0  0  0  0
  150.3760  137.3399  156.4861 C   0  0  0  0  0  0  0  0  0  0  0  0
  147.4415  132.6994  152.6374 C   0  0  0  0  0  0  0  0  0  0  0  0
  146.9470  131.2450  152.7103 C   0  0  0  0  0  0  0  0  0  0  0  0
  149.6587  125.8323  150.0947 H   0  0  0  0  0  0  0  0  0  0  0  0
  147.2800  129.2495  150.7703 H   0  0  0  0  0  0  0  0  0  0  0  0
  146.2856  127.9680  151.4408 H   0  0  0  0  0  0  0  0  0  0  0  0
  146.8428  128.7091  153.5788 H   0  0  0  0  0  0  0  0  0  0  0  0
  148.4947  128.2587  153.2273 H   0  0  0  0  0  0  0  0  0  0  0  0
  148.2090  130.4883  155.0194 H   0  0  0  0  0  0  0  0  0  0  0  0
  149.6849  129.9401  154.2495 H   0  0  0  0  0  0  0  0  0  0  0  0
  149.9160  132.2890  155.0254 H   0  0  0  0  0  0  0  0  0  0  0  0
  150.1087  132.1599  153.2926 H   0  0  0  0  0  0  0  0  0  0  0  0
  147.5817  133.0301  154.7665 H   0  0  0  0  0  0  0  0  0  0  0  0
  148.6742  134.8957  152.8981 H   0  0  0  0  0  0  0  0  0  0  0  0
  149.5162  136.5843  153.4400 H   0  0  0  0  0  0  0  0  0  0  0  0
  151.5614  138.2919  153.4263 H   0  0  0  0  0  0  0  0  0  0  0  0
  152.7168  139.9184  154.8903 H   0  0  0  0  0  0  0  0  0  0  0  0
  152.8107  140.8053  159.3974 H   0  0  0  0  0  0  0  0  0  0  0  0
  152.5351  139.0680  159.3432 H   0  0  0  0  0  0  0  0  0  0  0  0
  151.1784  140.1999  159.1382 H   0  0  0  0  0  0  0  0  0  0  0  0
  149.7228  136.6393  156.9860 H   0  0  0  0  0  0  0  0  0  0  0  0
  146.5884  133.3681  152.5156 H   0  0  0  0  0  0  0  0  0  0  0  0
  148.0630  132.8276  151.7499 H   0  0  0  0  0  0  0  0  0  0  0  0
  146.4163  131.0109  151.7883 H   0  0  0  0  0  0  0  0  0  0  0  0
  146.2285  131.1351  153.5241 H   0  0  0  0  0  0  0  0  0  0  0  0
  148.7145  130.4300  152.1412 H   0  0  0  0  0  0  0  0  0  0  0  0
  1  2  3  0  0  0  0
  1 23  1  0  0  0  0
  2  3  1  0  0  0  0
  3  4  1  0  0  0  0
  3 24  1  0  0  0  0
  3 25  1  0  0  0  0
  4  5  1  0  0  0  0
  4 26  1  0  0  0  0
  4 27  1  0  0  0  0
  5 22  1  0  0  0  0
  5  6  1  0  0  0  0
  5 45  1  0  0  0  0
  6  7  1  0  0  0  0
  6 28  1  0  0  0  0
  6 29  1  0  0  0  0
  7  8  1  0  0  0  0
  7 30  1  0  0  0  0
  7 31  1  0  0  0  0
  8  9  1  0  0  0  0
  8 21  1  0  0  0  0
  8 32  1  0  0  0  0
  9 10  1  0  0  0  0
  9 33  1  0  0  0  0
 10 11  2  0  0  0  0
 10 12  1  0  0  0  0
 12 13  1  0  0  0  0
 12 34  1  0  0  0  0
 13 20  1  0  0  0  0
 13 14  2  0  0  0  0
 14 15  1  0  0  0  0
 14 35  1  0  0  0  0
 15 16  2  0  0  0  0
 15 36  1  0  0  0  0
 16 17  1  0  0  0  0
 16 19  1  0  0  0  0
 17 18  1  0  0  0  0
 18 37  1  0  0  0  0
 18 38  1  0  0  0  0
 18 39  1  0  0  0  0
 19 20  2  0  0  0  0
 20 40  1  0  0  0  0
 21 22  1  0  0  0  0
 21 41  1  0  0  0  0
 21 42  1  0  0  0  0
 22 43  1  0  0  0  0
 22 44  1  0  0  0  0
M  CHG  1   5   1
M  END
> <s_m_source_file>
AV-unprocessed.smi

> <i_m_source_file_index>
757

> <i_lp_mmshare_version>
43012

> <i_f3d_flags>
0

> <s_epik_input>
W0NIXSNDW0NIMl1bQ0gyXU4xW0NIMl1bQ0gyXVtDSF0oW0NIMl1bQ0gyXTEpW05IXUMoPU8pW05IXWMyW2NIXVtjSF1jKE9bQ0gzXSluW2NIXTI=

> <s_epik_cmdline>
J2VwaWtfcHl0aG9uJywgJy1waCcsICc3LjAnLCAnLXRuJywgJzgnLCAnLW1hJywgJzIwMCcsICctbWV0YWxfYmluZGluZycsICctaW1hZScsICc8aW5maWxlLm1hZT4nLCAnLW9tYWUnLCAnPG91dGZpbGUubWFlPic=

> <r_lp_tautomer_probability>
1

> <r_epik_Ionization_Penalty>
0.0402573

> <r_epik_Ionization_Penalty_Charging>
0.0401786

> <r_epik_Ionization_Penalty_Neutral>
7.86509e-05

> <r_epik_State_Penalty>
0.0338029

> <r_epik_Charging_Adjusted_Penalty>
0.0739815

> <i_epik_Tot_Q>
1

> <i_epik_Tot_abs_Q>
1

> <r_epik_Metal_State_Penalty>
0.0338035

> <b_epik_Metal_Only>
0

> <s_lp_Force_Field>
OPLS_2005

> <r_lp_Energy>
20.3265

> <b_lp_Chiralities_Consistent>
1

> <s_lp_Variant>
AV-unprocessed.smi:757-1

> <Gold.Version>
5.8.1

> <Gold.Id.Protein>
6NUR|6NUR_protein|mol2

> <Gold.PLP.Fitness>
53.8430

> <Gold.PLP.PLP>
-43.2082

> <Gold.PLP.part.hbond>
-4.5950

> <Gold.PLP.part.metal>
0.0000

> <Gold.PLP.part.buried>
-2.8012

> <Gold.PLP.part.nonpolar>
-34.7357

> <Gold.PLP.part.repulsive>
0.1021

> <Gold.PLP.ligand.clash>
0.0000

> <Gold.PLP.ligand.torsion>
0.7002

> <Gold.PLP.Chemscore.Hbond>
4.0000

> <Gold.PLP.Chemscore.CHOScore>
0.0000

> <Gold.PLP.Chemscore.Metal>
0.0000

> <Gold.Chemscore.Hbonds>
donor molecule, donor type, donor heavy atom, donor atom, acceptor molecule, acceptor atom, score
      L1  H     5    45       P1 10747  1.00
      L1  H     9    33       P1  7948  1.00
      L1  H    12    34       P1  7948  1.00
      P1  H  7997  8008       L1    17  0.88

> <Gold.PLP.Chemscore.Internal.Correction>
0.0352

> <Gold.Rescore>
     Score         DG    S(hbond)    S(metal)    S(lipo)     H(rot)  DE(clash)    DE(int)     intcor
     21.29     -23.33       3.26        0.00      94.12       1.59       0.04       2.01       ----

> <Gold.Chemscore.Fitness>
21.2892

> <Gold.Chemscore.DG>
-23.3313

> <Gold.Chemscore.ZeroCoef>
-5.4800

> <Gold.Chemscore.Hbond>
3.2648

> <Gold.Chemscore.Metal>
0.0000

> <Gold.Chemscore.Lipo>
94.1183

> <Gold.Chemscore.Internal_Hbond>
0.0000

> <Gold.Chemscore.DEClash>
0.0360

> <Gold.Chemscore.DEInternal>
2.0061

> <Gold.Chemscore.Rot>
1.5879

> <Gold.Chemscore.Internal.Correction>
   9.000000E+99

> <Gold.Chemscore.Hbonds>
donor molecule, donor type, donor heavy atom, donor atom, acceptor molecule, acceptor atom, score
      L1  H     5    45       P1 10747  0.52
      L1  H     9    33       P1  7948  0.29
      L1  H    12    34       P1  7948  0.67
      P1  H  7997  8008       L1    17  0.33

> <Gold.Chemscore.Hbond.Weighted>
-10.9043

> <Gold.Chemscore.Metal.Weighted>
-0.0000

> <Gold.Chemscore.Lipo.Weighted>
-11.0118

> <Gold.Chemscore.Internal_Hbond.Weighted>
0.0000

> <Gold.Chemscore.DEClash.Weighted>
0.0360

> <Gold.Chemscore.DEInternal.Weighted>
2.0061

> <Gold.Chemscore.Rot.Weighted>
4.0649

> <Gold.Chemscore.Internal.Correction.Weighted>
   9.000000E+99

> <Gold.Protein.RotatedTorsions>
[ 6907 6896 6895 6894 ] final -119.35 input  -60.11 | X-H torsion
[ 7974 7965 7964 7962 ] final  177.49 input  175.53 | X-H torsion
[ 8008 7997 7996 7995 ] final  -65.88 input   59.86 | X-H torsion
[ 10167 10162 10161 10158 ] final   35.77 input  -65.29 | X-H torsion
[ 10718 10713 10712 10709 ] final -156.74 input   66.30 | X-H torsion
[ 10763 10752 10751 10750 ] final   49.90 input  -60.55 | X-H torsion
[ 11005 11000 10999 10996 ] final   69.03 input  -57.11 | X-H torsion

> <Gold.Protein.ActiveResidues>
 VAL166  LYS551  ARG553  GLY616  TRP617  ASP618  TYR619  PRO620  LYS621  CYS622 
 ASP623  PHE694  ASN695  SER759  ASP760  ASP761  ALA762  ILE779  LEU786  VAL792 
 PHE793  MET794  SER795  GLU796  ALA797  LYS798  CYS799  TRP800  GLU811  SER814 

> <Gold.Protein.RotatedAtoms>
  150.8297  133.8111  159.3103 H   0  0  0  0  0  0  0  0  0  0  0  0  # atno 6907 bound_to 6896
  151.5845  135.1055  160.0034 H   0  0  0  0  0  0  0  0  0  0  0  0  # atno 6908 bound_to 6896
  152.4378  133.7351  159.6666 H   0  0  0  0  0  0  0  0  0  0  0  0  # atno 6909 bound_to 6896
  144.7168  140.0256  143.6439 H   0  0  0  0  0  0  0  0  0  0  0  0  # atno 7974 bound_to 7965
  154.4699  140.0924  156.7118 H   0  0  0  0  0  0  0  0  0  0  0  0  # atno 8008 bound_to 7997
  155.4753  140.3466  155.4313 H   0  0  0  0  0  0  0  0  0  0  0  0  # atno 8009 bound_to 7997
  156.1021  140.1425  156.9442 H   0  0  0  0  0  0  0  0  0  0  0  0  # atno 8010 bound_to 7997
  140.4191  144.1486  150.6146 H   0  0  0  0  0  0  0  0  0  0  0  0  # atno 10167 bound_to 10162
  156.5307  130.8519  151.2715 H   0  0  0  0  0  0  0  0  0  0  0  0  # atno 10718 bound_to 10713
  152.9785  135.5896  154.4165 H   0  0  0  0  0  0  0  0  0  0  0  0  # atno 10763 bound_to 10752
  154.3794  135.2767  155.2222 H   0  0  0  0  0  0  0  0  0  0  0  0  # atno 10764 bound_to 10752
  154.4142  135.6074  153.6025 H   0  0  0  0  0  0  0  0  0  0  0  0  # atno 10765 bound_to 10752
  139.9677  134.6953  156.0512 H   0  0  0  0  0  0  0  0  0  0  0  0  # atno 11005 bound_to 11000
  146.0145  139.3198  143.0850 LP  0  0  0  0  0  0  0  0  0  0  0  0  # atno 17320 bound_to 7965
  145.8642  140.9457  143.0684 LP  0  0  0  0  0  0  0  0  0  0  0  0  # atno 17321 bound_to 7965
  140.4554  143.2470  151.9292 LP  0  0  0  0  0  0  0  0  0  0  0  0  # atno 17342 bound_to 10162
  139.4782  144.5521  151.8370 LP  0  0  0  0  0  0  0  0  0  0  0  0  # atno 17343 bound_to 10162
  157.7422  130.9886  150.2501 LP  0  0  0  0  0  0  0  0  0  0  0  0  # atno 17370 bound_to 10713
  156.3063  130.3765  149.7703 LP  0  0  0  0  0  0  0  0  0  0  0  0  # atno 17371 bound_to 10713
  141.1357  133.6576  156.3586 LP  0  0  0  0  0  0  0  0  0  0  0  0  # atno 17394 bound_to 11000
  140.5361  134.6165  157.5365 LP  0  0  0  0  0  0  0  0  0  0  0  0  # atno 17395 bound_to 11000

$$$$
