AV-unprocessed.smi:1740|AV-procd|sdf|7014|dock7
  -GOLD-   22720 8233D 1   1.00000     0.00000
 Structure written by MMmdl.
 52 54  0  0  0  0  0  0  0  0  4 V2000
  153.1279  134.9731  165.5865 N   0  5  0  0  0  0  0  0  0  0  0  0
  153.5505  134.0509  164.6981 C   0  0  0  0  0  0  0  0  0  0  0  0
  153.1730  132.8878  164.5794 O   0  0  0  0  0  0  0  0  0  0  0  0
  154.6307  134.5978  163.7584 C   0  0  0  0  0  0  0  0  0  0  0  0
  154.0511  135.5662  162.7929 N   0  3  2  0  0  0  0  0  0  0  0  0
  154.8016  135.6381  161.5101 C   0  0  0  0  0  0  0  0  0  0  0  0
  154.0923  136.5555  160.4997 C   0  0  0  0  0  0  0  0  0  0  0  0
  153.8775  137.9632  161.0843 C   0  0  1  0  0  0  0  0  0  0  0  0
  153.1255  138.8058  160.1586 N   0  0  0  0  0  0  0  0  0  0  0  0
  153.1768  140.1448  160.1179 C   0  0  0  0  0  0  0  0  0  0  0  0
  153.8935  140.8221  160.8546 O   0  0  0  0  0  0  0  0  0  0  0  0
  152.3655  140.6353  159.1659 N   0  0  0  0  0  0  0  0  0  0  0  0
  152.1649  141.9970  158.8005 C   0  0  0  0  0  0  0  0  0  0  0  0
  152.6589  143.0549  159.6072 C   0  0  0  0  0  0  0  0  0  0  0  0
  152.3827  144.3910  159.2616 C   0  0  0  0  0  0  0  0  0  0  0  0
  151.6019  144.6515  158.1227 C   0  0  0  0  0  0  0  0  0  0  0  0
  151.1363  143.6244  157.3828 N   0  3  0  0  0  0  0  0  0  0  0  0
  151.3802  142.3177  157.6544 C   0  0  0  0  0  0  0  0  0  0  0  0
  150.8346  141.3495  156.7808 N   0  0  0  0  0  0  0  0  0  0  0  0
  151.7062  140.5386  155.9382 C   0  0  0  0  0  0  0  0  0  0  0  0
  150.8222  139.4013  155.4334 C   0  0  0  0  0  0  0  0  0  0  0  0
  149.9015  139.1488  156.6234 C   0  0  0  0  0  0  0  0  0  0  0  0
  149.7061  140.5412  157.2322 C   0  0  0  0  0  0  0  0  0  0  0  0
  153.1245  137.8522  162.4193 C   0  0  0  0  0  0  0  0  0  0  0  0
  153.8545  136.9106  163.3916 C   0  0  0  0  0  0  0  0  0  0  0  0
  152.2803  135.5118  165.3704 H   0  0  0  0  0  0  0  0  0  0  0  0
  155.3923  135.0821  164.3722 H   0  0  0  0  0  0  0  0  0  0  0  0
  155.1296  133.7847  163.2287 H   0  0  0  0  0  0  0  0  0  0  0  0
  155.8126  136.0020  161.6994 H   0  0  0  0  0  0  0  0  0  0  0  0
  154.9022  134.6427  161.0765 H   0  0  0  0  0  0  0  0  0  0  0  0
  154.6807  136.6123  159.5831 H   0  0  0  0  0  0  0  0  0  0  0  0
  153.1322  136.1162  160.2244 H   0  0  0  0  0  0  0  0  0  0  0  0
  154.8496  138.4220  161.2772 H   0  0  0  0  0  0  0  0  0  0  0  0
  152.5137  138.3323  159.5100 H   0  0  0  0  0  0  0  0  0  0  0  0
  151.9121  139.9549  158.5739 H   0  0  0  0  0  0  0  0  0  0  0  0
  153.2279  142.8627  160.5041 H   0  0  0  0  0  0  0  0  0  0  0  0
  152.7535  145.2030  159.8701 H   0  0  0  0  0  0  0  0  0  0  0  0
  151.3327  145.6420  157.7855 H   0  0  0  0  0  0  0  0  0  0  0  0
  152.1234  141.1224  155.1170 H   0  0  0  0  0  0  0  0  0  0  0  0
  152.5305  140.1285  156.5235 H   0  0  0  0  0  0  0  0  0  0  0  0
  150.2374  139.7345  154.5747 H   0  0  0  0  0  0  0  0  0  0  0  0
  151.3905  138.5194  155.1367 H   0  0  0  0  0  0  0  0  0  0  0  0
  148.9616  138.6729  156.3425 H   0  0  0  0  0  0  0  0  0  0  0  0
  150.4039  138.5005  157.3427 H   0  0  0  0  0  0  0  0  0  0  0  0
  149.6408  140.4930  158.3200 H   0  0  0  0  0  0  0  0  0  0  0  0
  148.7849  140.9856  156.8552 H   0  0  0  0  0  0  0  0  0  0  0  0
  153.0177  138.8382  162.8731 H   0  0  0  0  0  0  0  0  0  0  0  0
  152.1133  137.4793  162.2472 H   0  0  0  0  0  0  0  0  0  0  0  0
  153.2703  136.8222  164.3084 H   0  0  0  0  0  0  0  0  0  0  0  0
  154.8223  137.3307  163.6699 H   0  0  0  0  0  0  0  0  0  0  0  0
  153.1301  135.2085  162.5794 H   0  0  0  0  0  0  0  0  0  0  0  0
  150.5710  143.8460  156.5630 H   0  0  0  0  0  0  0  0  0  0  0  0
  1  2  1  0  0  0  0
  1 26  1  0  0  0  0
  2  3  2  0  0  0  0
  2  4  1  0  0  0  0
  4  5  1  0  0  0  0
  4 27  1  0  0  0  0
  4 28  1  0  0  0  0
  5 25  1  0  0  0  0
  5  6  1  0  0  0  0
  5 51  1  0  0  0  0
  6  7  1  0  0  0  0
  6 29  1  0  0  0  0
  6 30  1  0  0  0  0
  7  8  1  0  0  0  0
  7 31  1  0  0  0  0
  7 32  1  0  0  0  0
  8  9  1  0  0  0  0
  8 24  1  0  0  0  0
  8 33  1  0  0  0  0
  9 10  1  0  0  0  0
  9 34  1  0  0  0  0
 10 11  2  0  0  0  0
 10 12  1  0  0  0  0
 12 13  1  0  0  0  0
 12 35  1  0  0  0  0
 13 18  1  0  0  0  0
 13 14  2  0  0  0  0
 14 15  1  0  0  0  0
 14 36  1  0  0  0  0
 15 16  2  0  0  0  0
 15 37  1  0  0  0  0
 16 17  1  0  0  0  0
 16 38  1  0  0  0  0
 17 18  2  0  0  0  0
 17 52  1  0  0  0  0
 18 19  1  0  0  0  0
 19 23  1  0  0  0  0
 19 20  1  0  0  0  0
 20 21  1  0  0  0  0
 20 39  1  0  0  0  0
 20 40  1  0  0  0  0
 21 22  1  0  0  0  0
 21 41  1  0  0  0  0
 21 42  1  0  0  0  0
 22 23  1  0  0  0  0
 22 43  1  0  0  0  0
 22 44  1  0  0  0  0
 23 45  1  0  0  0  0
 23 46  1  0  0  0  0
 24 25  1  0  0  0  0
 24 47  1  0  0  0  0
 24 48  1  0  0  0  0
 25 49  1  0  0  0  0
 25 50  1  0  0  0  0
M  CHG  1   1  -1
M  CHG  1   5   1
M  CHG  1  17   1
M  END
> <s_m_source_file>
AV-unprocessed.smi

> <i_m_source_file_index>
1740

> <i_lp_mmshare_version>
43012

> <i_f3d_flags>
0

> <s_epik_input>
W05IMl1DKD1PKVtDSDJdTjFbQ0gyXVtDSDJdW0NIXShbQ0gyXVtDSDJdMSlbTkhdQyg9TylbTkhdYzJbY0hdW2NIXVtjSF1uYzJOM1tDSDJdW0NIMl1bQ0gyXVtDSDJdMw==

> <s_epik_cmdline>
J2VwaWtfcHl0aG9uJywgJy1waCcsICc3LjAnLCAnLXRuJywgJzgnLCAnLW1hJywgJzIwMCcsICctbWV0YWxfYmluZGluZycsICctaW1hZScsICc8aW5maWxlLm1hZT4nLCAnLW9tYWUnLCAnPG91dGZpbGUubWFlPic=

> <r_lp_tautomer_probability>
0.999994

> <r_epik_Ionization_Penalty>
6.97817

> <r_epik_Ionization_Penalty_Charging>
6.97815

> <r_epik_Ionization_Penalty_Neutral>
1.88285e-05

> <r_epik_State_Penalty>
7.80985

> <r_epik_Charging_Adjusted_Penalty>
14.788

> <i_epik_Tot_Q>
1

> <i_epik_Tot_abs_Q>
3

> <r_epik_Metal_State_Penalty>
3.85728

> <b_epik_Metal_Only>
1

> <s_lp_Force_Field>
OPLS_2005

> <r_lp_Energy>
44.3343

> <b_lp_Chiralities_Consistent>
1

> <s_lp_Variant>
AV-unprocessed.smi:1740-9

> <Gold.Version>
5.8.1

> <Gold.Id.Protein>
6NUR|6NUR_protein|mol2

> <Gold.PLP.Fitness>
46.9459

> <Gold.PLP.PLP>
-42.3906

> <Gold.PLP.part.hbond>
-2.0000

> <Gold.PLP.part.metal>
0.0000

> <Gold.PLP.part.buried>
-7.9481

> <Gold.PLP.part.nonpolar>
-32.6128

> <Gold.PLP.part.repulsive>
0.3016

> <Gold.PLP.ligand.clash>
0.0000

> <Gold.PLP.ligand.torsion>
0.9432

> <Gold.PLP.Chemscore.Hbond>
2.0000

> <Gold.PLP.Chemscore.CHOScore>
0.0000

> <Gold.PLP.Chemscore.Metal>
0.0000

> <Gold.Chemscore.Hbonds>
donor molecule, donor type, donor heavy atom, donor atom, acceptor molecule, acceptor atom, score
      L1  H    17    52       P1  8028  1.72

> <Gold.PLP.Chemscore.Internal.Correction>
0.4417

> <Gold.Rescore>
     Score         DG    S(hbond)    S(metal)    S(lipo)     H(rot)  DE(clash)    DE(int)     intcor
     12.26     -14.86       0.99        0.00      99.59       2.18       0.01       2.59       ----

> <Gold.Chemscore.Fitness>
12.2625

> <Gold.Chemscore.DG>
-14.8637

> <Gold.Chemscore.ZeroCoef>
-5.4800

> <Gold.Chemscore.Hbond>
0.9941

> <Gold.Chemscore.Metal>
0.0000

> <Gold.Chemscore.Lipo>
99.5938

> <Gold.Chemscore.Internal_Hbond>
0.0000

> <Gold.Chemscore.DEClash>
0.0067

> <Gold.Chemscore.DEInternal>
2.5945

> <Gold.Chemscore.Rot>
2.1832

> <Gold.Chemscore.Internal.Correction>
   9.000000E+99

> <Gold.Chemscore.Hbonds>
donor molecule, donor type, donor heavy atom, donor atom, acceptor molecule, acceptor atom, score
      L1  H    17    52       P1  8028  0.80

> <Gold.Chemscore.Hbond.Weighted>
-3.3204

> <Gold.Chemscore.Metal.Weighted>
-0.0000

> <Gold.Chemscore.Lipo.Weighted>
-11.6525

> <Gold.Chemscore.Internal_Hbond.Weighted>
0.0000

> <Gold.Chemscore.DEClash.Weighted>
0.0067

> <Gold.Chemscore.DEInternal.Weighted>
2.5945

> <Gold.Chemscore.Rot.Weighted>
5.5891

> <Gold.Chemscore.Internal.Correction.Weighted>
   9.000000E+99

> <Gold.Protein.RotatedTorsions>
[ 6907 6896 6895 6894 ] final  -57.17 input  -60.11 | X-H torsion
[ 7974 7965 7964 7962 ] final  122.82 input  175.53 | X-H torsion
[ 8008 7997 7996 7995 ] final -105.32 input   59.86 | X-H torsion
[ 10167 10162 10161 10158 ] final   61.49 input  -65.29 | X-H torsion
[ 10718 10713 10712 10709 ] final    3.11 input   66.30 | X-H torsion
[ 10763 10752 10751 10750 ] final  -64.48 input  -60.55 | X-H torsion
[ 11005 11000 10999 10996 ] final  -11.45 input  -57.11 | X-H torsion

> <Gold.Protein.ActiveResidues>
 VAL166  LYS551  ARG553  GLY616  TRP617  ASP618  TYR619  PRO620  LYS621  CYS622 
 ASP623  PHE694  ASN695  SER759  ASP760  ASP761  ALA762  ILE779  LEU786  VAL792 
 PHE793  MET794  SER795  GLU796  ALA797  LYS798  CYS799  TRP800  GLU811  SER814 

> <Gold.Protein.RotatedAtoms>
  150.8107  134.7260  159.6685 H   0  0  0  0  0  0  0  0  0  0  0  0  # atno 6907 bound_to 6896
  152.4227  134.5922  159.9987 H   0  0  0  0  0  0  0  0  0  0  0  0  # atno 6908 bound_to 6896
  151.6132  133.3308  159.3108 H   0  0  0  0  0  0  0  0  0  0  0  0  # atno 6909 bound_to 6896
  145.1030  139.3505  143.4802 H   0  0  0  0  0  0  0  0  0  0  0  0  # atno 7974 bound_to 7965
  154.8981  140.0413  157.1877 H   0  0  0  0  0  0  0  0  0  0  0  0  # atno 8008 bound_to 7997
  154.8471  140.2923  155.5600 H   0  0  0  0  0  0  0  0  0  0  0  0  # atno 8009 bound_to 7997
  156.2994  140.2471  156.3424 H   0  0  0  0  0  0  0  0  0  0  0  0  # atno 8010 bound_to 7997
  140.1542  144.4433  150.6743 H   0  0  0  0  0  0  0  0  0  0  0  0  # atno 10167 bound_to 10162
  156.8729  130.5626  149.5656 H   0  0  0  0  0  0  0  0  0  0  0  0  # atno 10718 bound_to 10713
  154.3308  135.6177  153.5550 H   0  0  0  0  0  0  0  0  0  0  0  0  # atno 10763 bound_to 10752
  152.9811  135.5746  154.4964 H   0  0  0  0  0  0  0  0  0  0  0  0  # atno 10764 bound_to 10752
  154.4650  135.2857  155.1662 H   0  0  0  0  0  0  0  0  0  0  0  0  # atno 10765 bound_to 10752
  140.7554  133.8558  155.9080 H   0  0  0  0  0  0  0  0  0  0  0  0  # atno 11005 bound_to 11000
  146.3529  140.0916  142.8612 LP  0  0  0  0  0  0  0  0  0  0  0  0  # atno 17320 bound_to 7965
  145.0933  140.9299  143.4756 LP  0  0  0  0  0  0  0  0  0  0  0  0  # atno 17321 bound_to 7965
  140.6683  143.2276  151.5687 LP  0  0  0  0  0  0  0  0  0  0  0  0  # atno 17342 bound_to 10162
  139.5411  144.2645  152.1353 LP  0  0  0  0  0  0  0  0  0  0  0  0  # atno 17343 bound_to 10162
  156.0717  130.5748  150.9396 LP  0  0  0  0  0  0  0  0  0  0  0  0  # atno 17370 bound_to 10713
  157.6185  131.0931  150.8666 LP  0  0  0  0  0  0  0  0  0  0  0  0  # atno 17371 bound_to 10713
  140.9712  134.1528  157.4574 LP  0  0  0  0  0  0  0  0  0  0  0  0  # atno 17394 bound_to 11000
  139.8780  134.9979  156.5872 LP  0  0  0  0  0  0  0  0  0  0  0  0  # atno 17395 bound_to 11000

$$$$
