AV-unprocessed.smi:2510|AV-procd|sdf|9884|dock5
  -GOLD-   2272013523D 1   1.00000     0.00000
 Structure written by MMmdl.
 48 49  0  0  0  0  0  0  0  0  1 V2000
  147.4368  132.2234  161.2498 C   0  0  0  0  0  0  0  0  0  0  0  0
  147.6823  133.4047  162.2074 C   0  0  0  0  0  0  0  0  0  0  0  0
  146.6152  134.5368  162.2213 C   0  0  0  0  0  0  0  0  0  0  0  0
  146.8926  135.4838  163.4092 C   0  0  0  0  0  0  0  0  0  0  0  0
  148.0937  136.4238  163.2163 C   0  0  0  0  0  0  0  0  0  0  0  0
  146.2852  135.2466  160.8778 C   0  0  1  0  0  0  0  0  0  0  0  0
  147.3547  135.2502  159.8868 N   0  0  0  0  0  0  0  0  0  0  0  0
  148.2622  136.2289  159.7527 C   0  0  0  0  0  0  0  0  0  0  0  0
  148.3040  137.2209  160.4802 O   0  0  0  0  0  0  0  0  0  0  0  0
  149.2815  136.0619  158.6264 C   0  0  0  0  0  0  0  0  0  0  0  0
  150.3477  137.1053  158.7186 C   0  0  0  0  0  0  0  0  0  0  0  0
  151.3310  137.3104  159.6457 C   0  0  0  0  0  0  0  0  0  0  0  0
  152.0197  138.4684  159.1796 C   0  0  0  0  0  0  0  0  0  0  0  0
  153.1946  139.1615  159.8045 C   0  0  0  0  0  0  0  0  0  0  0  0
  151.5098  138.9407  158.0517 N   0  0  0  0  0  0  0  0  0  0  0  0
  150.4936  138.1014  157.7792 N   0  0  0  0  0  0  0  0  0  0  0  0
  145.2259  134.1790  160.5888 C   0  0  2  0  0  0  0  0  0  0  0  0
  143.9853  134.5483  159.7844 C   0  0  0  0  0  0  0  0  0  0  0  0
  145.1583  133.9995  162.1165 C   0  0  2  0  0  0  0  0  0  0  0  0
  144.2154  134.8759  162.7257 O   0  0  0  0  0  0  0  0  0  0  0  0
  142.9061  134.3351  162.7794 C   0  0  0  0  0  0  0  0  0  0  0  0
  149.9144  138.2210  156.9607 H   0  0  0  0  0  0  0  0  0  0  0  0
  148.1809  131.4439  161.4138 H   0  0  0  0  0  0  0  0  0  0  0  0
  147.5200  132.5217  160.2051 H   0  0  0  0  0  0  0  0  0  0  0  0
  146.4581  131.7703  161.3918 H   0  0  0  0  0  0  0  0  0  0  0  0
  147.7977  132.9891  163.2081 H   0  0  0  0  0  0  0  0  0  0  0  0
  148.6611  133.8265  161.9783 H   0  0  0  0  0  0  0  0  0  0  0  0
  146.0066  136.0680  163.6550 H   0  0  0  0  0  0  0  0  0  0  0  0
  147.0758  134.8974  164.3100 H   0  0  0  0  0  0  0  0  0  0  0  0
  148.2731  137.0057  164.1205 H   0  0  0  0  0  0  0  0  0  0  0  0
  147.9298  137.1311  162.4039 H   0  0  0  0  0  0  0  0  0  0  0  0
  149.0048  135.8667  162.9984 H   0  0  0  0  0  0  0  0  0  0  0  0
  145.8212  136.2251  161.0266 H   0  0  0  0  0  0  0  0  0  0  0  0
  147.3955  134.4673  159.2508 H   0  0  0  0  0  0  0  0  0  0  0  0
  149.7257  135.0681  158.6912 H   0  0  0  0  0  0  0  0  0  0  0  0
  148.7802  136.1148  157.6586 H   0  0  0  0  0  0  0  0  0  0  0  0
  151.5273  136.7220  160.5298 H   0  0  0  0  0  0  0  0  0  0  0  0
  153.4899  138.6760  160.7349 H   0  0  0  0  0  0  0  0  0  0  0  0
  152.9609  140.2014  160.0338 H   0  0  0  0  0  0  0  0  0  0  0  0
  154.0565  139.1511  159.1373 H   0  0  0  0  0  0  0  0  0  0  0  0
  145.6947  133.2946  160.1536 H   0  0  0  0  0  0  0  0  0  0  0  0
  143.4932  135.4334  160.1881 H   0  0  0  0  0  0  0  0  0  0  0  0
  143.2591  133.7356  159.7821 H   0  0  0  0  0  0  0  0  0  0  0  0
  144.2419  134.7629  158.7470 H   0  0  0  0  0  0  0  0  0  0  0  0
  145.0611  132.9624  162.4437 H   0  0  0  0  0  0  0  0  0  0  0  0
  142.2262  135.0653  163.2179 H   0  0  0  0  0  0  0  0  0  0  0  0
  142.8808  133.4386  163.4001 H   0  0  0  0  0  0  0  0  0  0  0  0
  142.5336  134.0812  161.7871 H   0  0  0  0  0  0  0  0  0  0  0  0
  1  2  1  0  0  0  0
  1 23  1  0  0  0  0
  1 24  1  0  0  0  0
  1 25  1  0  0  0  0
  2  3  1  0  0  0  0
  2 26  1  0  0  0  0
  2 27  1  0  0  0  0
  3 19  1  0  0  0  0
  3  4  1  0  0  0  0
  3  6  1  0  0  0  0
  4  5  1  0  0  0  0
  4 28  1  0  0  0  0
  4 29  1  0  0  0  0
  5 30  1  0  0  0  0
  5 31  1  0  0  0  0
  5 32  1  0  0  0  0
  6  7  1  0  0  0  0
  6 17  1  0  0  0  0
  6 33  1  0  0  0  0
  7  8  1  0  0  0  0
  7 34  1  0  0  0  0
  8  9  2  0  0  0  0
  8 10  1  0  0  0  0
 10 35  1  0  0  0  0
 10 36  1  0  0  0  0
 10 11  1  0  0  0  0
 11 16  1  0  0  0  0
 11 12  2  0  0  0  0
 12 13  1  0  0  0  0
 12 37  1  0  0  0  0
 13 14  1  0  0  0  0
 13 15  2  0  0  0  0
 14 38  1  0  0  0  0
 14 39  1  0  0  0  0
 14 40  1  0  0  0  0
 15 16  1  0  0  0  0
 16 22  1  0  0  0  0
 17 18  1  0  0  0  0
 17 19  1  0  0  0  0
 17 41  1  0  0  0  0
 18 42  1  0  0  0  0
 18 43  1  0  0  0  0
 18 44  1  0  0  0  0
 19 20  1  0  0  0  0
 19 45  1  0  0  0  0
 20 21  1  0  0  0  0
 21 46  1  0  0  0  0
 21 47  1  0  0  0  0
 21 48  1  0  0  0  0
M  END
> <s_m_source_file>
AV-unprocessed.smi

> <i_m_source_file_index>
2510

> <i_lp_mmshare_version>
43012

> <i_f3d_flags>
0

> <s_epik_input>
W0NIM11PW0NAQEhdMVtDQEhdKFtDSDNdKVtDQEBIXShDMShbQ0gyXVtDSDNdKVtDSDJdW0NIM10pW05IXUMoPU8pW0NIMl1jMltjSF1jKFtDSDNdKVtuSF1uMg==

> <s_epik_cmdline>
J2VwaWtfcHl0aG9uJywgJy1waCcsICc3LjAnLCAnLXRuJywgJzgnLCAnLW1hJywgJzIwMCcsICctbWV0YWxfYmluZGluZycsICctaW1hZScsICc8aW5maWxlLm1hZT4nLCAnLW9tYWUnLCAnPG91dGZpbGUubWFlPic=

> <r_lp_tautomer_probability>
0.5

> <r_epik_Ionization_Penalty>
0.000134763

> <r_epik_Ionization_Penalty_Charging>
0

> <r_epik_Ionization_Penalty_Neutral>
0.000134763

> <r_epik_State_Penalty>
0.41068

> <r_epik_Charging_Adjusted_Penalty>
0.41068

> <i_epik_Tot_Q>
0

> <i_epik_Tot_abs_Q>
0

> <r_epik_Metal_State_Penalty>
0.410661

> <b_epik_Metal_Only>
0

> <s_lp_Force_Field>
OPLS_2005

> <r_lp_Energy>
27.4462

> <b_lp_Chiralities_Consistent>
1

> <s_lp_Variant>
AV-unprocessed.smi:2510-15

> <Gold.Version>
5.8.1

> <Gold.Id.Protein>
6NUR|6NUR_protein|mol2

> <Gold.PLP.Fitness>
34.2022

> <Gold.PLP.PLP>
-31.3562

> <Gold.PLP.part.hbond>
-2.0000

> <Gold.PLP.part.metal>
0.0000

> <Gold.PLP.part.buried>
-3.2445

> <Gold.PLP.part.nonpolar>
-26.0455

> <Gold.PLP.part.repulsive>
0.1315

> <Gold.PLP.ligand.clash>
0.0000

> <Gold.PLP.ligand.torsion>
0.8615

> <Gold.PLP.Chemscore.Hbond>
1.2960

> <Gold.PLP.Chemscore.CHOScore>
0.0000

> <Gold.PLP.Chemscore.Metal>
0.0000

> <Gold.Chemscore.Hbonds>
donor molecule, donor type, donor heavy atom, donor atom, acceptor molecule, acceptor atom, score
      P1  H  6931  6943       L1     9  0.74
      P1  H  6934  6947       L1     9  0.41

> <Gold.PLP.Chemscore.Internal.Correction>
0.6809

> <Gold.Rescore>
     Score         DG    S(hbond)    S(metal)    S(lipo)     H(rot)  DE(clash)    DE(int)     intcor
     12.62     -15.33       1.20        0.00      89.41       1.81       0.95       1.76       ----

> <Gold.Chemscore.Fitness>
12.6182

> <Gold.Chemscore.DG>
-15.3318

> <Gold.Chemscore.ZeroCoef>
-5.4800

> <Gold.Chemscore.Hbond>
1.2049

> <Gold.Chemscore.Metal>
0.0000

> <Gold.Chemscore.Lipo>
89.4137

> <Gold.Chemscore.Internal_Hbond>
0.0000

> <Gold.Chemscore.DEClash>
0.9499

> <Gold.Chemscore.DEInternal>
1.7638

> <Gold.Chemscore.Rot>
1.8102

> <Gold.Chemscore.Internal.Correction>
   9.000000E+99

> <Gold.Chemscore.Hbonds>
donor molecule, donor type, donor heavy atom, donor atom, acceptor molecule, acceptor atom, score
      P1  H  6931  6943       L1     9  0.72
      P1  H  6934  6947       L1     9  0.43

> <Gold.Chemscore.Hbond.Weighted>
-4.0245

> <Gold.Chemscore.Metal.Weighted>
-0.0000

> <Gold.Chemscore.Lipo.Weighted>
-10.4614

> <Gold.Chemscore.Internal_Hbond.Weighted>
0.0000

> <Gold.Chemscore.DEClash.Weighted>
0.9499

> <Gold.Chemscore.DEInternal.Weighted>
1.7638

> <Gold.Chemscore.Rot.Weighted>
4.6341

> <Gold.Chemscore.Internal.Correction.Weighted>
   9.000000E+99

> <Gold.Protein.RotatedTorsions>
[ 6907 6896 6895 6894 ] final  -97.73 input  -60.11 | X-H torsion
[ 7974 7965 7964 7962 ] final  -81.43 input  175.53 | X-H torsion
[ 8008 7997 7996 7995 ] final -108.71 input   59.86 | X-H torsion
[ 10167 10162 10161 10158 ] final -179.97 input  -65.29 | X-H torsion
[ 10718 10713 10712 10709 ] final -176.19 input   66.30 | X-H torsion
[ 10763 10752 10751 10750 ] final  127.80 input  -60.55 | X-H torsion
[ 11005 11000 10999 10996 ] final  -61.95 input  -57.11 | X-H torsion

> <Gold.Protein.ActiveResidues>
 VAL166  LYS551  ARG553  GLY616  TRP617  ASP618  TYR619  PRO620  LYS621  CYS622 
 ASP623  PHE694  ASN695  SER759  ASP760  ASP761  ALA762  ILE779  LEU786  VAL792 
 PHE793  MET794  SER795  GLU796  ALA797  LYS798  CYS799  TRP800  GLU811  SER814 

> <Gold.Protein.RotatedAtoms>
  150.7025  134.1304  159.4067 H   0  0  0  0  0  0  0  0  0  0  0  0  # atno 6907 bound_to 6896
  151.9290  135.0262  160.0537 H   0  0  0  0  0  0  0  0  0  0  0  0  # atno 6908 bound_to 6896
  152.2192  133.4935  159.5189 H   0  0  0  0  0  0  0  0  0  0  0  0  # atno 6909 bound_to 6896
  145.5467  140.9502  143.1521 H   0  0  0  0  0  0  0  0  0  0  0  0  # atno 7974 bound_to 7965
  154.9483  140.0401  157.2131 H   0  0  0  0  0  0  0  0  0  0  0  0  # atno 8008 bound_to 7997
  154.8003  140.2850  155.5905 H   0  0  0  0  0  0  0  0  0  0  0  0  # atno 8009 bound_to 7997
  156.2960  140.2556  156.2869 H   0  0  0  0  0  0  0  0  0  0  0  0  # atno 8010 bound_to 7997
  139.5362  144.2490  152.0799 H   0  0  0  0  0  0  0  0  0  0  0  0  # atno 10167 bound_to 10162
  156.8110  130.9586  151.3116 H   0  0  0  0  0  0  0  0  0  0  0  0  # atno 10718 bound_to 10713
  153.7152  135.3262  155.3255 H   0  0  0  0  0  0  0  0  0  0  0  0  # atno 10763 bound_to 10752
  154.8373  135.4486  154.1273 H   0  0  0  0  0  0  0  0  0  0  0  0  # atno 10764 bound_to 10752
  153.2378  135.6967  153.7896 H   0  0  0  0  0  0  0  0  0  0  0  0  # atno 10765 bound_to 10752
  141.1343  133.6635  156.5454 H   0  0  0  0  0  0  0  0  0  0  0  0  # atno 11005 bound_to 11000
  144.7550  139.7098  143.7258 LP  0  0  0  0  0  0  0  0  0  0  0  0  # atno 17320 bound_to 7965
  146.1944  139.5203  142.9784 LP  0  0  0  0  0  0  0  0  0  0  0  0  # atno 17321 bound_to 7965
  140.1961  144.4703  150.6454 LP  0  0  0  0  0  0  0  0  0  0  0  0  # atno 17342 bound_to 10162
  140.6570  143.2240  151.5946 LP  0  0  0  0  0  0  0  0  0  0  0  0  # atno 17343 bound_to 10162
  157.6506  130.8881  149.9625 LP  0  0  0  0  0  0  0  0  0  0  0  0  # atno 17370 bound_to 10713
  156.1044  130.3653  150.0159 LP  0  0  0  0  0  0  0  0  0  0  0  0  # atno 17371 bound_to 10713
  140.4106  134.7275  157.4834 LP  0  0  0  0  0  0  0  0  0  0  0  0  # atno 17394 bound_to 11000
  140.0430  134.6240  155.8957 LP  0  0  0  0  0  0  0  0  0  0  0  0  # atno 17395 bound_to 11000

$$$$
