AV-unprocessed.smi:1881|AV-procd|sdf|7640|dock1
  -GOLD-   22720 9363D 1   1.00000     0.00000
 Structure written by MMmdl.
 51 52  0  0  0  0  0  0  0  0  2 V2000
  152.5512  138.9265  156.7477 C   0  0  0  0  0  0  0  0  0  0  0  0
  151.7768  138.4420  155.4960 C   0  0  0  0  0  0  0  0  0  0  0  0
  152.8024  138.4687  154.3304 C   0  0  0  0  0  0  0  0  0  0  0  0
  151.3122  136.9722  155.6167 C   0  0  0  0  0  0  0  0  0  0  0  0
  150.5774  139.3813  155.1419 C   0  0  0  0  0  0  0  0  0  0  0  0
  150.4823  139.7650  153.9737 O   0  0  0  0  0  0  0  0  0  0  0  0
  149.6559  139.7855  156.0623 N   0  0  0  0  0  0  0  0  0  0  0  0
  149.5905  139.4663  157.4949 C   0  0  0  0  0  0  0  0  0  0  0  0
  149.9476  140.7243  158.3079 C   0  0  0  0  0  0  0  0  0  0  0  0
  149.0002  141.8960  157.9605 C   0  0  0  0  0  0  0  0  0  0  0  0
  149.4526  143.1863  158.6550 C   0  0  0  0  0  0  0  0  0  0  0  0
  148.8917  143.5675  159.6830 O   0  0  0  0  0  0  0  0  0  0  0  0
  150.4531  143.8633  158.0687 N   0  0  0  0  0  0  0  0  0  0  0  0
  151.0189  145.1234  158.5447 C   0  0  0  0  0  0  0  0  0  0  0  0
  151.3216  145.1142  160.0571 C   0  0  0  0  0  0  0  0  0  0  0  0
  152.2047  143.9612  160.5036 C   0  0  0  0  0  0  0  0  0  0  0  0
  152.9578  143.1990  159.5848 C   0  0  0  0  0  0  0  0  0  0  0  0
  153.7303  142.1173  160.0562 C   0  0  0  0  0  0  0  0  0  0  0  0
  153.7334  141.8198  161.4346 C   0  0  0  0  0  0  0  0  0  0  0  0
  152.9634  142.6137  162.3085 C   0  0  0  0  0  0  0  0  0  0  0  0
  152.2377  143.6425  161.8186 N   0  3  0  0  0  0  0  0  0  0  0  0
  148.9019  142.0877  156.4294 C   0  0  0  0  0  0  0  0  0  0  0  0
  148.5982  140.7535  155.7242 C   0  0  0  0  0  0  0  0  0  0  0  0
  153.5779  138.5587  156.7452 H   0  0  0  0  0  0  0  0  0  0  0  0
  152.1261  138.5769  157.6852 H   0  0  0  0  0  0  0  0  0  0  0  0
  152.6076  140.0151  156.7892 H   0  0  0  0  0  0  0  0  0  0  0  0
  153.1992  139.4713  154.1625 H   0  0  0  0  0  0  0  0  0  0  0  0
  152.3659  138.1225  153.3920 H   0  0  0  0  0  0  0  0  0  0  0  0
  153.6552  137.8192  154.5328 H   0  0  0  0  0  0  0  0  0  0  0  0
  152.1656  136.3032  155.7320 H   0  0  0  0  0  0  0  0  0  0  0  0
  150.7749  136.6550  154.7218 H   0  0  0  0  0  0  0  0  0  0  0  0
  150.6571  136.7837  156.4630 H   0  0  0  0  0  0  0  0  0  0  0  0
  148.5773  139.1469  157.7429 H   0  0  0  0  0  0  0  0  0  0  0  0
  150.2131  138.6366  157.8012 H   0  0  0  0  0  0  0  0  0  0  0  0
  149.8883  140.5001  159.3737 H   0  0  0  0  0  0  0  0  0  0  0  0
  150.9842  141.0011  158.1096 H   0  0  0  0  0  0  0  0  0  0  0  0
  148.0044  141.6365  158.3248 H   0  0  0  0  0  0  0  0  0  0  0  0
  150.8582  143.4718  157.2304 H   0  0  0  0  0  0  0  0  0  0  0  0
  151.9202  145.3753  157.9830 H   0  0  0  0  0  0  0  0  0  0  0  0
  150.2993  145.9129  158.3269 H   0  0  0  0  0  0  0  0  0  0  0  0
  151.8070  146.0505  160.3347 H   0  0  0  0  0  0  0  0  0  0  0  0
  150.3867  145.0836  160.6187 H   0  0  0  0  0  0  0  0  0  0  0  0
  152.9372  143.4329  158.5303 H   0  0  0  0  0  0  0  0  0  0  0  0
  154.3101  141.5200  159.3678 H   0  0  0  0  0  0  0  0  0  0  0  0
  154.3160  140.9934  161.8146 H   0  0  0  0  0  0  0  0  0  0  0  0
  152.9035  142.4558  163.3754 H   0  0  0  0  0  0  0  0  0  0  0  0
  148.1232  142.8138  156.1929 H   0  0  0  0  0  0  0  0  0  0  0  0
  149.8343  142.4945  156.0335 H   0  0  0  0  0  0  0  0  0  0  0  0
  148.4883  140.9256  154.6532 H   0  0  0  0  0  0  0  0  0  0  0  0
  147.6305  140.3691  156.0501 H   0  0  0  0  0  0  0  0  0  0  0  0
  151.6817  144.1990  162.4680 H   0  0  0  0  0  0  0  0  0  0  0  0
  1  2  1  0  0  0  0
  1 24  1  0  0  0  0
  1 25  1  0  0  0  0
  1 26  1  0  0  0  0
  2  3  1  0  0  0  0
  2  4  1  0  0  0  0
  2  5  1  0  0  0  0
  3 27  1  0  0  0  0
  3 28  1  0  0  0  0
  3 29  1  0  0  0  0
  4 30  1  0  0  0  0
  4 31  1  0  0  0  0
  4 32  1  0  0  0  0
  5  6  2  0  0  0  0
  5  7  1  0  0  0  0
  7 23  1  0  0  0  0
  7  8  1  0  0  0  0
  8  9  1  0  0  0  0
  8 33  1  0  0  0  0
  8 34  1  0  0  0  0
  9 10  1  0  0  0  0
  9 35  1  0  0  0  0
  9 36  1  0  0  0  0
 10 11  1  0  0  0  0
 10 22  1  0  0  0  0
 10 37  1  0  0  0  0
 11 12  2  0  0  0  0
 11 13  1  0  0  0  0
 13 14  1  0  0  0  0
 13 38  1  0  0  0  0
 14 15  1  0  0  0  0
 14 39  1  0  0  0  0
 14 40  1  0  0  0  0
 15 16  1  0  0  0  0
 15 41  1  0  0  0  0
 15 42  1  0  0  0  0
 16 21  1  0  0  0  0
 16 17  2  0  0  0  0
 17 18  1  0  0  0  0
 17 43  1  0  0  0  0
 18 19  2  0  0  0  0
 18 44  1  0  0  0  0
 19 20  1  0  0  0  0
 19 45  1  0  0  0  0
 20 21  2  0  0  0  0
 20 46  1  0  0  0  0
 21 51  1  0  0  0  0
 22 23  1  0  0  0  0
 22 47  1  0  0  0  0
 22 48  1  0  0  0  0
 23 49  1  0  0  0  0
 23 50  1  0  0  0  0
M  CHG  1  21   1
M  END
> <s_m_source_file>
AV-unprocessed.smi

> <i_m_source_file_index>
1881

> <i_lp_mmshare_version>
43012

> <i_f3d_flags>
0

> <s_epik_input>
W0NIM11DKFtDSDNdKShbQ0gzXSlDKD1PKU4xW0NIMl1bQ0gyXVtDSF0oW0NIMl1bQ0gyXTEpQyg9TylbTkhdW0NIMl1bQ0gyXWMyW2NIXVtjSF1bY0hdW2NIXW4y

> <s_epik_cmdline>
J2VwaWtfcHl0aG9uJywgJy1waCcsICc3LjAnLCAnLXRuJywgJzgnLCAnLW1hJywgJzIwMCcsICctbWV0YWxfYmluZGluZycsICctaW1hZScsICc8aW5maWxlLm1hZT4nLCAnLW9tYWUnLCAnPG91dGZpbGUubWFlPic=

> <r_epik_Ionization_Penalty>
1.84673

> <r_epik_Ionization_Penalty_Charging>
1.84673

> <r_epik_Ionization_Penalty_Neutral>
1.24553e-07

> <r_epik_State_Penalty>
1.9639

> <r_epik_Charging_Adjusted_Penalty>
3.81063

> <i_epik_Tot_Q>
1

> <i_epik_Tot_abs_Q>
1

> <r_epik_Metal_State_Penalty>
1.98977

> <b_epik_Metal_Only>
0

> <s_lp_Force_Field>
OPLS_2005

> <r_lp_Energy>
43.8057

> <b_lp_Chiralities_Consistent>
1

> <s_lp_Variant>
AV-unprocessed.smi:1881-2

> <Gold.Version>
5.8.1

> <Gold.Id.Protein>
6NUR|6NUR_protein|mol2

> <Gold.PLP.Fitness>
46.5243

> <Gold.PLP.PLP>
-44.8197

> <Gold.PLP.part.hbond>
-3.2747

> <Gold.PLP.part.metal>
0.0000

> <Gold.PLP.part.buried>
-4.2822

> <Gold.PLP.part.nonpolar>
-38.4161

> <Gold.PLP.part.repulsive>
1.2430

> <Gold.PLP.ligand.clash>
0.0000

> <Gold.PLP.ligand.torsion>
1.3096

> <Gold.PLP.Chemscore.Hbond>
1.3822

> <Gold.PLP.Chemscore.CHOScore>
0.0000

> <Gold.PLP.Chemscore.Metal>
0.0000

> <Gold.Chemscore.Hbonds>
donor molecule, donor type, donor heavy atom, donor atom, acceptor molecule, acceptor atom, score
      P1  H  6933  6944       L1    12  0.38
      P1  H  7989  7998       L1     6  1.00

> <Gold.PLP.Chemscore.Internal.Correction>
0.1773

> <Gold.Rescore>
     Score         DG    S(hbond)    S(metal)    S(lipo)     H(rot)  DE(clash)    DE(int)     intcor
     17.23     -20.92       1.58        0.00     123.11       1.65       1.46       2.23       ----

> <Gold.Chemscore.Fitness>
17.2307

> <Gold.Chemscore.DG>
-20.9185

> <Gold.Chemscore.ZeroCoef>
-5.4800

> <Gold.Chemscore.Hbond>
1.5775

> <Gold.Chemscore.Metal>
0.0000

> <Gold.Chemscore.Lipo>
123.1107

> <Gold.Chemscore.Internal_Hbond>
0.0000

> <Gold.Chemscore.DEClash>
1.4558

> <Gold.Chemscore.DEInternal>
2.2320

> <Gold.Chemscore.Rot>
1.6540

> <Gold.Chemscore.Internal.Correction>
   9.000000E+99

> <Gold.Chemscore.Hbonds>
donor molecule, donor type, donor heavy atom, donor atom, acceptor molecule, acceptor atom, score
      P1  H  6933  6944       L1    12  0.38
      P1  H  7989  7998       L1     6  0.91

> <Gold.Chemscore.Hbond.Weighted>
-5.2688

> <Gold.Chemscore.Metal.Weighted>
-0.0000

> <Gold.Chemscore.Lipo.Weighted>
-14.4040

> <Gold.Chemscore.Internal_Hbond.Weighted>
0.0000

> <Gold.Chemscore.DEClash.Weighted>
1.4558

> <Gold.Chemscore.DEInternal.Weighted>
2.2320

> <Gold.Chemscore.Rot.Weighted>
4.2342

> <Gold.Chemscore.Internal.Correction.Weighted>
   9.000000E+99

> <Gold.Protein.RotatedTorsions>
[ 6907 6896 6895 6894 ] final  -54.00 input  -60.11 | X-H torsion
[ 7974 7965 7964 7962 ] final   47.79 input  175.53 | X-H torsion
[ 8008 7997 7996 7995 ] final -149.84 input   59.86 | X-H torsion
[ 10167 10162 10161 10158 ] final   66.68 input  -65.29 | X-H torsion
[ 10718 10713 10712 10709 ] final -134.54 input   66.30 | X-H torsion
[ 10763 10752 10751 10750 ] final  141.63 input  -60.55 | X-H torsion
[ 11005 11000 10999 10996 ] final   10.88 input  -57.11 | X-H torsion

> <Gold.Protein.ActiveResidues>
 VAL166  LYS551  ARG553  GLY616  TRP617  ASP618  TYR619  PRO620  LYS621  CYS622 
 ASP623  PHE694  ASN695  SER759  ASP760  ASP761  ALA762  ILE779  LEU786  VAL792 
 PHE793  MET794  SER795  GLU796  ALA797  LYS798  CYS799  TRP800  GLU811  SER814 

> <Gold.Protein.RotatedAtoms>
  150.8376  134.7656  159.6905 H   0  0  0  0  0  0  0  0  0  0  0  0  # atno 6907 bound_to 6896
  152.4470  134.5471  159.9866 H   0  0  0  0  0  0  0  0  0  0  0  0  # atno 6908 bound_to 6896
  151.5618  133.3364  159.3008 H   0  0  0  0  0  0  0  0  0  0  0  0  # atno 6909 bound_to 6896
  146.0264  139.4712  142.9865 H   0  0  0  0  0  0  0  0  0  0  0  0  # atno 7974 bound_to 7965
  155.6140  140.0674  157.2697 H   0  0  0  0  0  0  0  0  0  0  0  0  # atno 8008 bound_to 7997
  154.4246  140.1796  156.1350 H   0  0  0  0  0  0  0  0  0  0  0  0  # atno 8009 bound_to 7997
  156.0062  140.3331  155.6898 H   0  0  0  0  0  0  0  0  0  0  0  0  # atno 8010 bound_to 7997
  140.0978  144.4931  150.7057 H   0  0  0  0  0  0  0  0  0  0  0  0  # atno 10167 bound_to 10162
  156.2566  130.7185  151.1103 H   0  0  0  0  0  0  0  0  0  0  0  0  # atno 10718 bound_to 10713
  153.9425  135.2978  155.3442 H   0  0  0  0  0  0  0  0  0  0  0  0  # atno 10763 bound_to 10752
  154.7469  135.4998  153.9223 H   0  0  0  0  0  0  0  0  0  0  0  0  # atno 10764 bound_to 10752
  153.1035  135.6740  153.9736 H   0  0  0  0  0  0  0  0  0  0  0  0  # atno 10765 bound_to 10752
  140.5095  134.0666  155.7814 H   0  0  0  0  0  0  0  0  0  0  0  0  # atno 11005 bound_to 11000
  145.7110  141.0106  143.1453 LP  0  0  0  0  0  0  0  0  0  0  0  0  # atno 17320 bound_to 7965
  144.7011  139.8757  143.7444 LP  0  0  0  0  0  0  0  0  0  0  0  0  # atno 17321 bound_to 7965
  140.6994  143.2425  151.4908 LP  0  0  0  0  0  0  0  0  0  0  0  0  # atno 17342 bound_to 10162
  139.5688  144.1978  152.1805 LP  0  0  0  0  0  0  0  0  0  0  0  0  # atno 17343 bound_to 10162
  157.7235  131.0666  150.6035 LP  0  0  0  0  0  0  0  0  0  0  0  0  # atno 17370 bound_to 10713
  156.6120  130.4382  149.5855 LP  0  0  0  0  0  0  0  0  0  0  0  0  # atno 17371 bound_to 10713
  141.1393  133.9167  157.2363 LP  0  0  0  0  0  0  0  0  0  0  0  0  # atno 17394 bound_to 11000
  139.9667  135.0140  156.9405 LP  0  0  0  0  0  0  0  0  0  0  0  0  # atno 17395 bound_to 11000

$$$$
