AV-unprocessed.smi:2701|AV-procd|sdf|10428|dock6
  -GOLD-   2272014463D 1   1.00000     0.00000
 Structure written by MMmdl.
 31 32  0  0  0  0  0  0  0  0  2 V2000
  152.9078  144.5861  158.2778 C   0  0  0  0  0  0  0  0  0  0  0  0
  152.4262  143.3719  159.0978 C   0  0  1  0  0  0  0  0  0  0  0  0
  151.4559  142.4828  158.2814 C   0  0  0  0  0  0  0  0  0  0  0  0
  150.2701  142.8046  158.1928 O   0  0  0  0  0  0  0  0  0  0  0  0
  152.0754  141.4097  157.7317 N   0  5  0  0  0  0  0  0  0  0  0  0
  151.5535  140.6690  156.3866 S   0  0  0  0  0  0  0  0  0  0  0  0
  150.5550  141.4702  155.6611 O   0  0  0  0  0  0  0  0  0  0  0  0
  152.6796  140.1416  155.6004 O   0  0  0  0  0  0  0  0  0  0  0  0
  150.6467  139.1933  157.0481 C   0  0  0  0  0  0  0  0  0  0  0  0
  151.0113  137.9496  156.2853 C   0  0  0  0  0  0  0  0  0  0  0  0
  150.8286  137.6801  154.9006 C   0  0  0  0  0  0  0  0  0  0  0  0
  151.3387  136.4232  154.7495 C   0  0  0  0  0  0  0  0  0  0  0  0
  151.8114  135.9568  155.9326 O   0  0  0  0  0  0  0  0  0  0  0  0
  151.6044  136.9409  156.9058 N   0  0  0  0  0  0  0  0  0  0  0  0
  153.5941  142.5716  159.7113 C   0  0  0  0  0  0  0  0  0  0  0  0
  153.0448  142.1384  161.0524 C   0  0  0  0  0  0  0  0  0  0  0  0
  152.2428  143.3688  161.4502 C   0  0  0  0  0  0  0  0  0  0  0  0
  151.7131  143.8822  160.2314 O   0  0  0  0  0  0  0  0  0  0  0  0
  153.5869  144.2887  157.4778 H   0  0  0  0  0  0  0  0  0  0  0  0
  153.4411  145.2969  158.9096 H   0  0  0  0  0  0  0  0  0  0  0  0
  152.0702  145.1179  157.8248 H   0  0  0  0  0  0  0  0  0  0  0  0
  150.8547  139.0856  158.1114 H   0  0  0  0  0  0  0  0  0  0  0  0
  149.5807  139.3990  156.9532 H   0  0  0  0  0  0  0  0  0  0  0  0
  150.3881  138.3088  154.1421 H   0  0  0  0  0  0  0  0  0  0  0  0
  151.4380  135.7591  153.9038 H   0  0  0  0  0  0  0  0  0  0  0  0
  153.9285  141.7265  159.1089 H   0  0  0  0  0  0  0  0  0  0  0  0
  154.4590  143.2189  159.8631 H   0  0  0  0  0  0  0  0  0  0  0  0
  152.3857  141.2773  160.9351 H   0  0  0  0  0  0  0  0  0  0  0  0
  153.8219  141.8830  161.7729 H   0  0  0  0  0  0  0  0  0  0  0  0
  151.4524  143.1423  162.1659 H   0  0  0  0  0  0  0  0  0  0  0  0
  152.8964  144.1223  161.8915 H   0  0  0  0  0  0  0  0  0  0  0  0
  1  2  1  0  0  0  0
  1 19  1  0  0  0  0
  1 20  1  0  0  0  0
  1 21  1  0  0  0  0
  2 18  1  0  0  0  0
  2  3  1  0  0  0  0
  2 15  1  0  0  0  0
  3  4  2  0  0  0  0
  3  5  1  0  0  0  0
  5  6  1  0  0  0  0
  6  7  2  0  0  0  0
  6  8  2  0  0  0  0
  6  9  1  0  0  0  0
  9 10  1  0  0  0  0
  9 22  1  0  0  0  0
  9 23  1  0  0  0  0
 10 14  2  0  0  0  0
 10 11  1  0  0  0  0
 11 12  2  0  0  0  0
 11 24  1  0  0  0  0
 12 13  1  0  0  0  0
 12 25  1  0  0  0  0
 13 14  1  0  0  0  0
 15 16  1  0  0  0  0
 15 26  1  0  0  0  0
 15 27  1  0  0  0  0
 16 17  1  0  0  0  0
 16 28  1  0  0  0  0
 16 29  1  0  0  0  0
 17 18  1  0  0  0  0
 17 30  1  0  0  0  0
 17 31  1  0  0  0  0
M  CHG  1   5  -1
M  END
> <s_m_source_file>
AV-unprocessed.smi

> <i_m_source_file_index>
2701

> <i_lp_mmshare_version>
43012

> <i_f3d_flags>
0

> <s_epik_input>
TzFbQ0gyXVtDSDJdW0NIMl1bQ0BAXTEoW0NIM10pQyg9TylbTkhdUyg9TykoPU8pW0NIMl1jMltjSF1bY0hdb24y

> <s_epik_cmdline>
J2VwaWtfcHl0aG9uJywgJy1waCcsICc3LjAnLCAnLXRuJywgJzgnLCAnLW1hJywgJzIwMCcsICctbWV0YWxfYmluZGluZycsICctaW1hZScsICc8aW5maWxlLm1hZT4nLCAnLW9tYWUnLCAnPG91dGZpbGUubWFlPic=

> <r_lp_tautomer_probability>
1

> <r_epik_Ionization_Penalty>
0.000279175

> <r_epik_Ionization_Penalty_Charging>
0.000279174

> <r_epik_Ionization_Penalty_Neutral>
1.67252e-10

> <r_epik_State_Penalty>
-0

> <r_epik_Charging_Adjusted_Penalty>
0.000279174

> <i_epik_Tot_Q>
-1

> <i_epik_Tot_abs_Q>
1

> <r_epik_Metal_State_Penalty>
-0

> <b_epik_Metal_Only>
0

> <s_lp_Force_Field>
OPLS_2005

> <r_lp_Energy>
15.6344

> <b_lp_Chiralities_Consistent>
1

> <s_lp_Variant>
AV-unprocessed.smi:2701-1

> <Gold.Version>
5.8.1

> <Gold.Id.Protein>
6NUR|6NUR_protein|mol2

> <Gold.PLP.Fitness>
38.4500

> <Gold.PLP.PLP>
-31.8337

> <Gold.PLP.part.hbond>
-2.8535

> <Gold.PLP.part.metal>
0.0000

> <Gold.PLP.part.buried>
-0.8656

> <Gold.PLP.part.nonpolar>
-27.2544

> <Gold.PLP.part.repulsive>
0.3229

> <Gold.PLP.ligand.clash>
0.0000

> <Gold.PLP.ligand.torsion>
1.9479

> <Gold.PLP.Chemscore.Hbond>
2.1915

> <Gold.PLP.Chemscore.CHOScore>
0.9492

> <Gold.PLP.Chemscore.Metal>
0.0000

> <Gold.Chemscore.Hbonds>
donor molecule, donor type, donor heavy atom, donor atom, acceptor molecule, acceptor atom, score
      P1  H  7997  8008       L1     8  1.00
      P1  H 10752 10763       L1    13  0.20
      L1  C    12    25       P1  7949  1.00

> <Gold.PLP.Chemscore.Internal.Correction>
1.0903

> <Gold.Rescore>
     Score         DG    S(hbond)    S(metal)    S(lipo)     H(rot)  DE(clash)    DE(int)     intcor
     13.51     -16.88       1.75        0.00      81.69       1.56       0.19       3.18       ----

> <Gold.Chemscore.Fitness>
13.5072

> <Gold.Chemscore.DG>
-16.8770

> <Gold.Chemscore.ZeroCoef>
-5.4800

> <Gold.Chemscore.Hbond>
1.7457

> <Gold.Chemscore.Metal>
0.0000

> <Gold.Chemscore.Lipo>
81.6897

> <Gold.Chemscore.Internal_Hbond>
0.0000

> <Gold.Chemscore.DEClash>
0.1890

> <Gold.Chemscore.DEInternal>
3.1808

> <Gold.Chemscore.Rot>
1.5591

> <Gold.Chemscore.Internal.Correction>
   9.000000E+99

> <Gold.Chemscore.Hbonds>
donor molecule, donor type, donor heavy atom, donor atom, acceptor molecule, acceptor atom, score
      P1  H  7997  8008       L1     8  0.99

> <Gold.Chemscore.Hbond.Weighted>
-5.8307

> <Gold.Chemscore.Metal.Weighted>
-0.0000

> <Gold.Chemscore.Lipo.Weighted>
-9.5577

> <Gold.Chemscore.Internal_Hbond.Weighted>
0.0000

> <Gold.Chemscore.DEClash.Weighted>
0.1890

> <Gold.Chemscore.DEInternal.Weighted>
3.1808

> <Gold.Chemscore.Rot.Weighted>
3.9914

> <Gold.Chemscore.Internal.Correction.Weighted>
   9.000000E+99

> <Gold.Protein.RotatedTorsions>
[ 6907 6896 6895 6894 ] final  -51.02 input  -60.11 | X-H torsion
[ 7974 7965 7964 7962 ] final    5.62 input  175.53 | X-H torsion
[ 8008 7997 7996 7995 ] final  -30.91 input   59.86 | X-H torsion
[ 10167 10162 10161 10158 ] final  145.08 input  -65.29 | X-H torsion
[ 10718 10713 10712 10709 ] final -128.91 input   66.30 | X-H torsion
[ 10763 10752 10751 10750 ] final   87.69 input  -60.55 | X-H torsion
[ 11005 11000 10999 10996 ] final -130.04 input  -57.11 | X-H torsion

> <Gold.Protein.ActiveResidues>
 VAL166  LYS551  ARG553  GLY616  TRP617  ASP618  TYR619  PRO620  LYS621  CYS622 
 ASP623  PHE694  ASN695  SER759  ASP760  ASP761  ALA762  ILE779  LEU786  VAL792 
 PHE793  MET794  SER795  GLU796  ALA797  LYS798  CYS799  TRP800  GLU811  SER814 

> <Gold.Protein.RotatedAtoms>
  150.8651  134.8013  159.7112 H   0  0  0  0  0  0  0  0  0  0  0  0  # atno 6907 bound_to 6896
  152.4675  134.5036  159.9742 H   0  0  0  0  0  0  0  0  0  0  0  0  # atno 6908 bound_to 6896
  151.5134  133.3442  159.2924 H   0  0  0  0  0  0  0  0  0  0  0  0  # atno 6909 bound_to 6896
  146.2439  140.0356  142.8386 H   0  0  0  0  0  0  0  0  0  0  0  0  # atno 7974 bound_to 7965
  154.4233  140.1778  156.1482 H   0  0  0  0  0  0  0  0  0  0  0  0  # atno 8008 bound_to 7997
  155.9937  140.3366  155.6753 H   0  0  0  0  0  0  0  0  0  0  0  0  # atno 8009 bound_to 7997
  155.6338  140.0672  157.2631 H   0  0  0  0  0  0  0  0  0  0  0  0  # atno 8010 bound_to 7997
  139.4933  144.5927  151.6648 H   0  0  0  0  0  0  0  0  0  0  0  0  # atno 10167 bound_to 10162
  156.1996  130.6848  151.0523 H   0  0  0  0  0  0  0  0  0  0  0  0  # atno 10718 bound_to 10713
  153.1693  135.4534  154.9881 H   0  0  0  0  0  0  0  0  0  0  0  0  # atno 10763 bound_to 10752
  154.7954  135.3236  154.7680 H   0  0  0  0  0  0  0  0  0  0  0  0  # atno 10764 bound_to 10752
  153.8159  135.6951  153.4889 H   0  0  0  0  0  0  0  0  0  0  0  0  # atno 10765 bound_to 10752
  140.9380  134.1231  157.4176 H   0  0  0  0  0  0  0  0  0  0  0  0  # atno 11005 bound_to 11000
  145.1116  140.9408  143.4653 LP  0  0  0  0  0  0  0  0  0  0  0  0  # atno 17320 bound_to 7965
  145.0571  139.3135  143.5899 LP  0  0  0  0  0  0  0  0  0  0  0  0  # atno 17321 bound_to 7965
  140.5557  144.0352  150.6147 LP  0  0  0  0  0  0  0  0  0  0  0  0  # atno 17342 bound_to 10162
  140.3421  143.3013  152.0577 LP  0  0  0  0  0  0  0  0  0  0  0  0  # atno 17343 bound_to 10162
  157.6978  131.0787  150.6916 LP  0  0  0  0  0  0  0  0  0  0  0  0  # atno 17370 bound_to 10713
  156.6973  130.4613  149.5583 LP  0  0  0  0  0  0  0  0  0  0  0  0  # atno 17371 bound_to 10713
  139.8813  135.0027  156.6144 LP  0  0  0  0  0  0  0  0  0  0  0  0  # atno 17394 bound_to 11000
  140.7773  133.8689  155.8539 LP  0  0  0  0  0  0  0  0  0  0  0  0  # atno 17395 bound_to 11000

$$$$
