AV-unprocessed.smi:2775|AV-procd|sdf|10689|dock2
  -GOLD-   2272015133D 1   1.00000     0.00000
 Structure written by MMmdl.
 42 45  0  0  0  0  0  0  0  0  1 V2000
  143.5498  133.0223  150.9463 C   0  0  0  0  0  0  0  0  0  0  0  0
  143.6879  134.2584  151.8153 C   0  0  0  0  0  0  0  0  0  0  0  0
  142.5386  134.7364  152.3398 N   0  0  0  0  0  0  0  0  0  0  0  0
  142.6065  135.8319  153.1234 C   0  0  0  0  0  0  0  0  0  0  0  0
  143.8091  136.5034  153.4157 C   0  0  0  0  0  0  0  0  0  0  0  0
  145.0137  136.0135  152.8561 C   0  0  0  0  0  0  0  0  0  0  0  0
  146.2907  136.5953  153.0879 N   0  0  0  0  0  0  0  0  0  0  0  0
  146.7612  137.2423  154.1716 C   0  0  0  0  0  0  0  0  0  0  0  0
  146.1180  137.4709  155.1935 O   0  0  0  0  0  0  0  0  0  0  0  0
  148.0345  137.6539  154.0434 N   0  0  0  0  0  0  0  0  0  0  0  0
  148.8336  138.3796  155.0310 C   0  0  1  0  0  0  0  0  0  0  0  0
  150.3165  138.4377  154.6596 C   0  0  2  0  0  0  0  0  0  0  0  0
  151.5451  137.8077  155.2091 C   0  0  0  0  0  0  0  0  0  0  0  0
  152.4522  139.0642  155.1854 C   0  0  0  0  0  0  0  0  0  0  0  0
  151.5786  140.1759  154.8716 O   0  0  0  0  0  0  0  0  0  0  0  0
  150.3158  139.7812  155.3728 C   0  0  1  0  0  0  0  0  0  0  0  0
  148.9007  139.9273  154.7976 C   0  0  0  0  0  0  0  0  0  0  0  0
  147.8769  140.8818  155.4241 C   0  0  0  0  0  0  0  0  0  0  0  0
  147.3205  141.1426  154.0198 C   0  0  0  0  0  0  0  0  0  0  0  0
  148.6329  140.6044  153.4403 C   0  0  0  0  0  0  0  0  0  0  0  0
  144.9493  134.8552  152.0463 C   0  0  0  0  0  0  0  0  0  0  0  0
  146.3855  134.1828  151.3481 Cl  0  0  0  0  0  0  0  0  0  0  0  0
  143.9065  133.2278  149.9368 H   0  0  0  0  0  0  0  0  0  0  0  0
  142.5118  132.6946  150.8764 H   0  0  0  0  0  0  0  0  0  0  0  0
  144.1352  132.2003  151.3591 H   0  0  0  0  0  0  0  0  0  0  0  0
  141.6721  136.1829  153.5357 H   0  0  0  0  0  0  0  0  0  0  0  0
  143.7792  137.3639  154.0651 H   0  0  0  0  0  0  0  0  0  0  0  0
  146.9249  136.5486  152.3036 H   0  0  0  0  0  0  0  0  0  0  0  0
  148.4925  137.4491  153.1668 H   0  0  0  0  0  0  0  0  0  0  0  0
  148.6636  138.0844  156.0702 H   0  0  0  0  0  0  0  0  0  0  0  0
  150.4195  138.5501  153.5739 H   0  0  0  0  0  0  0  0  0  0  0  0
  151.3933  137.4311  156.2215 H   0  0  0  0  0  0  0  0  0  0  0  0
  151.9261  137.0027  154.5803 H   0  0  0  0  0  0  0  0  0  0  0  0
  152.9282  139.2170  156.1549 H   0  0  0  0  0  0  0  0  0  0  0  0
  153.2358  138.9890  154.4309 H   0  0  0  0  0  0  0  0  0  0  0  0
  150.3189  139.7040  156.4653 H   0  0  0  0  0  0  0  0  0  0  0  0
  147.1730  140.4141  156.1124 H   0  0  0  0  0  0  0  0  0  0  0  0
  148.3416  141.7660  155.8628 H   0  0  0  0  0  0  0  0  0  0  0  0
  146.4638  140.5112  153.7805 H   0  0  0  0  0  0  0  0  0  0  0  0
  147.1226  142.1914  153.7966 H   0  0  0  0  0  0  0  0  0  0  0  0
  149.3495  141.3969  153.2203 H   0  0  0  0  0  0  0  0  0  0  0  0
  148.5100  139.9295  152.5930 H   0  0  0  0  0  0  0  0  0  0  0  0
  1  2  1  0  0  0  0
  1 23  1  0  0  0  0
  1 24  1  0  0  0  0
  1 25  1  0  0  0  0
  2 21  1  0  0  0  0
  2  3  2  0  0  0  0
  3  4  1  0  0  0  0
  4  5  2  0  0  0  0
  4 26  1  0  0  0  0
  5  6  1  0  0  0  0
  5 27  1  0  0  0  0
  6  7  1  0  0  0  0
  6 21  2  0  0  0  0
  7  8  1  0  0  0  0
  7 28  1  0  0  0  0
  8  9  2  0  0  0  0
  8 10  1  0  0  0  0
 10 11  1  0  0  0  0
 10 29  1  0  0  0  0
 11 17  1  0  0  0  0
 11 12  1  0  0  0  0
 11 30  1  0  0  0  0
 12 16  1  0  0  0  0
 12 13  1  0  0  0  0
 12 31  1  0  0  0  0
 13 14  1  0  0  0  0
 13 32  1  0  0  0  0
 13 33  1  0  0  0  0
 14 15  1  0  0  0  0
 14 34  1  0  0  0  0
 14 35  1  0  0  0  0
 15 16  1  0  0  0  0
 16 17  1  0  0  0  0
 16 36  1  0  0  0  0
 17 20  1  0  0  0  0
 17 18  1  0  0  0  0
 18 19  1  0  0  0  0
 18 37  1  0  0  0  0
 18 38  1  0  0  0  0
 19 20  1  0  0  0  0
 19 39  1  0  0  0  0
 19 40  1  0  0  0  0
 20 41  1  0  0  0  0
 20 42  1  0  0  0  0
 21 22  1  0  0  0  0
M  END
> <s_m_source_file>
AV-unprocessed.smi

> <i_m_source_file_index>
2775

> <i_lp_mmshare_version>
43012

> <i_f3d_flags>
0

> <s_epik_input>
W0NIM11jMW5bY0hdW2NIXWMoYzFDbClbTkhdQyg9TylbTkhdW0NAQEhdMltDQEhdKFtDSDJdW0NIMl1PMylbQ0BASF0zQzI0W0NIMl1bQ0gyXVtDSDJdNA==

> <s_epik_cmdline>
J2VwaWtfcHl0aG9uJywgJy1waCcsICc3LjAnLCAnLXRuJywgJzgnLCAnLW1hJywgJzIwMCcsICctbWV0YWxfYmluZGluZycsICctaW1hZScsICc8aW5maWxlLm1hZT4nLCAnLW9tYWUnLCAnPG91dGZpbGUubWFlPic=

> <r_epik_Ionization_Penalty>
0.01026

> <r_epik_Ionization_Penalty_Charging>
0

> <r_epik_Ionization_Penalty_Neutral>
0.01026

> <r_epik_State_Penalty>
0.00780685

> <r_epik_Charging_Adjusted_Penalty>
0.00780685

> <i_epik_Tot_Q>
0

> <i_epik_Tot_abs_Q>
0

> <r_epik_Metal_State_Penalty>
0.00767411

> <b_epik_Metal_Only>
0

> <s_lp_Force_Field>
OPLS_2005

> <r_lp_Energy>
80.4779

> <b_lp_Chiralities_Consistent>
1

> <s_lp_Variant>
AV-unprocessed.smi:2775-2

> <Gold.Version>
5.8.1

> <Gold.Id.Protein>
6NUR|6NUR_protein|mol2

> <Gold.PLP.Fitness>
38.9526

> <Gold.PLP.PLP>
-30.8712

> <Gold.PLP.part.hbond>
-2.7758

> <Gold.PLP.part.metal>
0.0000

> <Gold.PLP.part.buried>
-2.2505

> <Gold.PLP.part.nonpolar>
-27.5894

> <Gold.PLP.part.repulsive>
0.3165

> <Gold.PLP.ligand.clash>
0.0000

> <Gold.PLP.ligand.torsion>
0.4250

> <Gold.PLP.Chemscore.Hbond>
2.8713

> <Gold.PLP.Chemscore.CHOScore>
0.0000

> <Gold.PLP.Chemscore.Metal>
0.0000

> <Gold.Chemscore.Hbonds>
donor molecule, donor type, donor heavy atom, donor atom, acceptor molecule, acceptor atom, score
      L1  H     7    28       P1  7948  0.73
      L1  H    10    29       P1  7948  1.00
      P1  H  7989  7998       L1    15  1.00

> <Gold.PLP.Chemscore.Internal.Correction>
0.3175

> <Gold.Rescore>
     Score         DG    S(hbond)    S(metal)    S(lipo)     H(rot)  DE(clash)    DE(int)     intcor
     20.34     -22.23       2.80        0.00      85.06       1.00       1.43       0.46       ----

> <Gold.Chemscore.Fitness>
20.3373

> <Gold.Chemscore.DG>
-22.2288

> <Gold.Chemscore.ZeroCoef>
-5.4800

> <Gold.Chemscore.Hbond>
2.8015

> <Gold.Chemscore.Metal>
0.0000

> <Gold.Chemscore.Lipo>
85.0568

> <Gold.Chemscore.Internal_Hbond>
0.0000

> <Gold.Chemscore.DEClash>
1.4318

> <Gold.Chemscore.DEInternal>
0.4597

> <Gold.Chemscore.Rot>
1.0000

> <Gold.Chemscore.Internal.Correction>
   9.000000E+99

> <Gold.Chemscore.Hbonds>
donor molecule, donor type, donor heavy atom, donor atom, acceptor molecule, acceptor atom, score
      L1  H     7    28       P1  7948  0.70
      L1  H    10    29       P1  7948  0.95
      P1  H  7989  7998       L1    15  0.86

> <Gold.Chemscore.Hbond.Weighted>
-9.3571

> <Gold.Chemscore.Metal.Weighted>
-0.0000

> <Gold.Chemscore.Lipo.Weighted>
-9.9517

> <Gold.Chemscore.Internal_Hbond.Weighted>
0.0000

> <Gold.Chemscore.DEClash.Weighted>
1.4318

> <Gold.Chemscore.DEInternal.Weighted>
0.4597

> <Gold.Chemscore.Rot.Weighted>
2.5600

> <Gold.Chemscore.Internal.Correction.Weighted>
   9.000000E+99

> <Gold.Protein.RotatedTorsions>
[ 6907 6896 6895 6894 ] final  -88.11 input  -60.11 | X-H torsion
[ 7974 7965 7964 7962 ] final  178.12 input  175.53 | X-H torsion
[ 8008 7997 7996 7995 ] final   20.26 input   59.86 | X-H torsion
[ 10167 10162 10161 10158 ] final   39.35 input  -65.29 | X-H torsion
[ 10718 10713 10712 10709 ] final   50.87 input   66.30 | X-H torsion
[ 10763 10752 10751 10750 ] final  -62.14 input  -60.55 | X-H torsion
[ 11005 11000 10999 10996 ] final   26.03 input  -57.11 | X-H torsion

> <Gold.Protein.ActiveResidues>
 VAL166  LYS551  ARG553  GLY616  TRP617  ASP618  TYR619  PRO620  LYS621  CYS622 
 ASP623  PHE694  ASN695  SER759  ASP760  ASP761  ALA762  ILE779  LEU786  VAL792 
 PHE793  MET794  SER795  GLU796  ALA797  LYS798  CYS799  TRP800  GLU811  SER814 

> <Gold.Protein.RotatedAtoms>
  150.6868  134.2792  159.4620 H   0  0  0  0  0  0  0  0  0  0  0  0  # atno 6907 bound_to 6896
  152.0708  134.9532  160.0583 H   0  0  0  0  0  0  0  0  0  0  0  0  # atno 6908 bound_to 6896
  152.0923  133.4172  159.4586 H   0  0  0  0  0  0  0  0  0  0  0  0  # atno 6909 bound_to 6896
  144.7160  140.0349  143.6438 H   0  0  0  0  0  0  0  0  0  0  0  0  # atno 7974 bound_to 7965
  154.9329  140.3043  155.5158 H   0  0  0  0  0  0  0  0  0  0  0  0  # atno 8008 bound_to 7997
  156.3002  140.2350  156.4328 H   0  0  0  0  0  0  0  0  0  0  0  0  # atno 8009 bound_to 7997
  154.8220  140.0423  157.1406 H   0  0  0  0  0  0  0  0  0  0  0  0  # atno 8010 bound_to 7997
  140.3848  144.1932  150.6130 H   0  0  0  0  0  0  0  0  0  0  0  0  # atno 10167 bound_to 10162
  157.4926  130.8386  149.8220 H   0  0  0  0  0  0  0  0  0  0  0  0  # atno 10718 bound_to 10713
  154.2954  135.6245  153.5402 H   0  0  0  0  0  0  0  0  0  0  0  0  # atno 10763 bound_to 10752
  152.9847  135.5665  154.5344 H   0  0  0  0  0  0  0  0  0  0  0  0  # atno 10764 bound_to 10752
  154.4963  135.2870  155.1432 H   0  0  0  0  0  0  0  0  0  0  0  0  # atno 10765 bound_to 10752
  140.3415  134.2328  155.7689 H   0  0  0  0  0  0  0  0  0  0  0  0  # atno 11005 bound_to 11000
  146.0071  139.3139  143.0892 LP  0  0  0  0  0  0  0  0  0  0  0  0  # atno 17320 bound_to 7965
  145.8725  140.9411  143.0643 LP  0  0  0  0  0  0  0  0  0  0  0  0  # atno 17321 bound_to 7965
  140.4901  143.2350  151.8831 LP  0  0  0  0  0  0  0  0  0  0  0  0  # atno 17342 bound_to 10162
  139.4793  144.5176  151.8847 LP  0  0  0  0  0  0  0  0  0  0  0  0  # atno 17343 bound_to 10162
  156.0182  130.3805  150.2044 LP  0  0  0  0  0  0  0  0  0  0  0  0  # atno 17370 bound_to 10713
  157.0233  130.9986  151.3333 LP  0  0  0  0  0  0  0  0  0  0  0  0  # atno 17371 bound_to 10713
  141.2037  133.7905  157.0325 LP  0  0  0  0  0  0  0  0  0  0  0  0  # atno 17394 bound_to 11000
  140.0777  134.9666  157.1573 LP  0  0  0  0  0  0  0  0  0  0  0  0  # atno 17395 bound_to 11000

$$$$
