AV-unprocessed.smi:1812|AV-procd|sdf|7336|dock5
  -GOLD-   22720 8593D 1   1.00000     0.00000
 Structure written by MMmdl.
 34 36  0  0  0  0  0  0  0  0  1 V2000
  146.6529  139.1691  154.2270 O   0  0  0  0  0  0  0  0  0  0  0  0
  147.4113  138.5461  153.4834 C   0  0  0  0  0  0  0  0  0  0  0  0
  146.9866  137.6662  152.5654 N   0  0  0  0  0  0  0  0  0  0  0  0
  145.5892  137.3385  152.3063 C   0  0  0  0  0  0  0  0  0  0  0  0
  145.4572  136.1170  151.3817 C   0  0  2  0  0  0  0  0  0  0  0  0
  144.0131  135.6762  151.1486 C   0  0  0  0  0  0  0  0  0  0  0  0
  144.1934  134.2159  150.8024 C   0  0  0  0  0  0  0  0  0  0  0  0
  145.3141  133.8097  151.7543 C   0  0  0  0  0  0  0  0  0  0  0  0
  146.1013  134.9809  151.9555 O   0  0  0  0  0  0  0  0  0  0  0  0
  148.7518  138.6512  153.4736 N   0  0  0  0  0  0  0  0  0  0  0  0
  149.5757  139.4746  154.2860 C   0  0  0  0  0  0  0  0  0  0  0  0
  150.8963  139.2974  154.4287 N   0  0  0  0  0  0  0  0  0  0  0  0
  151.4567  140.2414  155.2777 N   0  0  0  0  0  0  0  0  0  0  0  0
  150.5481  141.1030  155.7504 C   0  0  0  0  0  0  0  0  0  0  0  0
  150.9113  142.2105  156.6825 C   0  0  0  0  0  0  0  0  0  0  0  0
  151.6219  141.9448  157.9919 C   0  0  0  0  0  0  0  0  0  0  0  0
  150.1808  142.3872  157.9940 C   0  0  0  0  0  0  0  0  0  0  0  0
  148.9036  140.8226  155.1870 S   0  0  0  0  0  0  0  0  0  0  0  0
  147.6755  137.2011  151.9927 H   0  0  0  0  0  0  0  0  0  0  0  0
  145.0989  137.1415  153.2600 H   0  0  0  0  0  0  0  0  0  0  0  0
  145.0816  138.2002  151.8693 H   0  0  0  0  0  0  0  0  0  0  0  0
  145.9234  136.3146  150.4149 H   0  0  0  0  0  0  0  0  0  0  0  0
  143.4263  135.7722  152.0635 H   0  0  0  0  0  0  0  0  0  0  0  0
  143.5171  136.2451  150.3618 H   0  0  0  0  0  0  0  0  0  0  0  0
  143.2858  133.6260  150.9334 H   0  0  0  0  0  0  0  0  0  0  0  0
  144.5226  134.1147  149.7674 H   0  0  0  0  0  0  0  0  0  0  0  0
  144.9035  133.5014  152.7166 H   0  0  0  0  0  0  0  0  0  0  0  0
  145.9140  132.9876  151.3635 H   0  0  0  0  0  0  0  0  0  0  0  0
  149.2408  138.0765  152.8034 H   0  0  0  0  0  0  0  0  0  0  0  0
  151.1859  143.1053  156.1274 H   0  0  0  0  0  0  0  0  0  0  0  0
  151.8239  140.9124  158.2697 H   0  0  0  0  0  0  0  0  0  0  0  0
  152.3693  142.6678  158.3123 H   0  0  0  0  0  0  0  0  0  0  0  0
  149.9673  143.4045  158.3161 H   0  0  0  0  0  0  0  0  0  0  0  0
  149.4291  141.6462  158.2582 H   0  0  0  0  0  0  0  0  0  0  0  0
  1  2  2  0  0  0  0
  2  3  1  0  0  0  0
  2 10  1  0  0  0  0
  3  4  1  0  0  0  0
  3 19  1  0  0  0  0
  4  5  1  0  0  0  0
  4 20  1  0  0  0  0
  4 21  1  0  0  0  0
  5  9  1  0  0  0  0
  5  6  1  0  0  0  0
  5 22  1  0  0  0  0
  6  7  1  0  0  0  0
  6 23  1  0  0  0  0
  6 24  1  0  0  0  0
  7  8  1  0  0  0  0
  7 25  1  0  0  0  0
  7 26  1  0  0  0  0
  8  9  1  0  0  0  0
  8 27  1  0  0  0  0
  8 28  1  0  0  0  0
 10 11  1  0  0  0  0
 10 29  1  0  0  0  0
 11 18  1  0  0  0  0
 11 12  2  0  0  0  0
 12 13  1  0  0  0  0
 13 14  2  0  0  0  0
 14 15  1  0  0  0  0
 14 18  1  0  0  0  0
 15 17  1  0  0  0  0
 15 16  1  0  0  0  0
 15 30  1  0  0  0  0
 16 17  1  0  0  0  0
 16 31  1  0  0  0  0
 16 32  1  0  0  0  0
 17 33  1  0  0  0  0
 17 34  1  0  0  0  0
M  END
> <s_m_source_file>
AV-unprocessed.smi

> <i_m_source_file_index>
1812

> <i_lp_mmshare_version>
43012

> <i_f3d_flags>
0

> <s_epik_input>
TzFbQ0gyXVtDSDJdW0NIMl1bQ0BIXTFbQ0gyXVtOSF1DKD1PKVtOSF1jMm5uYyhzMilbQ0hdM1tDSDJdW0NIMl0z

> <s_epik_cmdline>
J2VwaWtfcHl0aG9uJywgJy1waCcsICc3LjAnLCAnLXRuJywgJzgnLCAnLW1hJywgJzIwMCcsICctbWV0YWxfYmluZGluZycsICctaW1hZScsICc8aW5maWxlLm1hZT4nLCAnLW9tYWUnLCAnPG91dGZpbGUubWFlPic=

> <r_lp_tautomer_probability>
1

> <r_epik_Ionization_Penalty>
0.000281817

> <r_epik_Ionization_Penalty_Charging>
0

> <r_epik_Ionization_Penalty_Neutral>
0.000281817

> <r_epik_State_Penalty>
-0

> <r_epik_Charging_Adjusted_Penalty>
0

> <i_epik_Tot_Q>
0

> <i_epik_Tot_abs_Q>
0

> <r_epik_Metal_State_Penalty>
0.157535

> <b_epik_Metal_Only>
0

> <s_lp_Force_Field>
OPLS_2005

> <r_lp_Energy>
14.57

> <b_lp_Chiralities_Consistent>
1

> <s_lp_Variant>
AV-unprocessed.smi:1812-1

> <Gold.Version>
5.8.1

> <Gold.Id.Protein>
6NUR|6NUR_protein|mol2

> <Gold.PLP.Fitness>
36.2247

> <Gold.PLP.PLP>
-31.4018

> <Gold.PLP.part.hbond>
-4.7639

> <Gold.PLP.part.metal>
0.0000

> <Gold.PLP.part.buried>
-4.8256

> <Gold.PLP.part.nonpolar>
-23.3880

> <Gold.PLP.part.repulsive>
1.3552

> <Gold.PLP.ligand.clash>
0.0000

> <Gold.PLP.ligand.torsion>
0.1787

> <Gold.PLP.Chemscore.Hbond>
1.6817

> <Gold.PLP.Chemscore.CHOScore>
0.0000

> <Gold.PLP.Chemscore.Metal>
0.0000

> <Gold.Chemscore.Hbonds>
donor molecule, donor type, donor heavy atom, donor atom, acceptor molecule, acceptor atom, score
      L1  H     3    19       P1  7948  1.00
      L1  H    10    29       P1  7948  0.74

> <Gold.PLP.Chemscore.Internal.Correction>
0.1352

> <Gold.Rescore>
     Score         DG    S(hbond)    S(metal)    S(lipo)     H(rot)  DE(clash)    DE(int)     intcor
     13.32     -14.70       1.73        0.00      61.52       1.47       0.01       1.38       ----

> <Gold.Chemscore.Fitness>
13.3205

> <Gold.Chemscore.DG>
-14.7024

> <Gold.Chemscore.ZeroCoef>
-5.4800

> <Gold.Chemscore.Hbond>
1.7349

> <Gold.Chemscore.Metal>
0.0000

> <Gold.Chemscore.Lipo>
61.5162

> <Gold.Chemscore.Internal_Hbond>
0.0000

> <Gold.Chemscore.DEClash>
0.0060

> <Gold.Chemscore.DEInternal>
1.3759

> <Gold.Chemscore.Rot>
1.4725

> <Gold.Chemscore.Internal.Correction>
   9.000000E+99

> <Gold.Chemscore.Hbonds>
donor molecule, donor type, donor heavy atom, donor atom, acceptor molecule, acceptor atom, score
      L1  H     3    19       P1  7948  0.94
      L1  H    10    29       P1  7948  0.67

> <Gold.Chemscore.Hbond.Weighted>
-5.7945

> <Gold.Chemscore.Metal.Weighted>
-0.0000

> <Gold.Chemscore.Lipo.Weighted>
-7.1974

> <Gold.Chemscore.Internal_Hbond.Weighted>
0.0000

> <Gold.Chemscore.DEClash.Weighted>
0.0060

> <Gold.Chemscore.DEInternal.Weighted>
1.3759

> <Gold.Chemscore.Rot.Weighted>
3.7695

> <Gold.Chemscore.Internal.Correction.Weighted>
   9.000000E+99

> <Gold.Protein.RotatedTorsions>
[ 6907 6896 6895 6894 ] final  -27.80 input  -60.11 | X-H torsion
[ 7974 7965 7964 7962 ] final -168.23 input  175.53 | X-H torsion
[ 8008 7997 7996 7995 ] final  109.84 input   59.86 | X-H torsion
[ 10167 10162 10161 10158 ] final    1.88 input  -65.29 | X-H torsion
[ 10718 10713 10712 10709 ] final  -87.59 input   66.30 | X-H torsion
[ 10763 10752 10751 10750 ] final  169.28 input  -60.55 | X-H torsion
[ 11005 11000 10999 10996 ] final  102.84 input  -57.11 | X-H torsion

> <Gold.Protein.ActiveResidues>
 VAL166  LYS551  ARG553  GLY616  TRP617  ASP618  TYR619  PRO620  LYS621  CYS622 
 ASP623  PHE694  ASN695  SER759  ASP760  ASP761  ALA762  ILE779  LEU786  VAL792 
 PHE793  MET794  SER795  GLU796  ALA797  LYS798  CYS799  TRP800  GLU811  SER814 

> <Gold.Protein.RotatedAtoms>
  151.1418  135.0183  159.8628 H   0  0  0  0  0  0  0  0  0  0  0  0  # atno 6907 bound_to 6896
  152.5452  134.1490  159.8520 H   0  0  0  0  0  0  0  0  0  0  0  0  # atno 6908 bound_to 6896
  151.1566  133.4826  159.2627 H   0  0  0  0  0  0  0  0  0  0  0  0  # atno 6909 bound_to 6896
  144.7207  140.2400  143.6293 H   0  0  0  0  0  0  0  0  0  0  0  0  # atno 7974 bound_to 7965
  156.2009  140.3050  155.9525 H   0  0  0  0  0  0  0  0  0  0  0  0  # atno 8008 bound_to 7997
  155.2955  140.0444  157.3043 H   0  0  0  0  0  0  0  0  0  0  0  0  # atno 8009 bound_to 7997
  154.5570  140.2309  155.8404 H   0  0  0  0  0  0  0  0  0  0  0  0  # atno 8010 bound_to 7997
  140.6662  143.7173  150.7832 H   0  0  0  0  0  0  0  0  0  0  0  0  # atno 10167 bound_to 10162
  155.9985  130.4805  150.4890 H   0  0  0  0  0  0  0  0  0  0  0  0  # atno 10718 bound_to 10713
  154.3808  135.2753  155.2212 H   0  0  0  0  0  0  0  0  0  0  0  0  # atno 10763 bound_to 10752
  154.4320  135.5975  153.6078 H   0  0  0  0  0  0  0  0  0  0  0  0  # atno 10764 bound_to 10752
  152.9834  135.5998  154.4050 H   0  0  0  0  0  0  0  0  0  0  0  0  # atno 10765 bound_to 10752
  139.8780  134.9240  156.5118 H   0  0  0  0  0  0  0  0  0  0  0  0  # atno 11005 bound_to 11000
  145.8328  139.2094  143.1872 LP  0  0  0  0  0  0  0  0  0  0  0  0  # atno 17320 bound_to 7965
  146.0415  140.8160  142.9826 LP  0  0  0  0  0  0  0  0  0  0  0  0  # atno 17321 bound_to 7965
  140.0851  143.4931  152.2509 LP  0  0  0  0  0  0  0  0  0  0  0  0  # atno 17342 bound_to 10162
  139.5912  144.7550  151.3397 LP  0  0  0  0  0  0  0  0  0  0  0  0  # atno 17343 bound_to 10162
  157.2887  131.0622  151.2148 LP  0  0  0  0  0  0  0  0  0  0  0  0  # atno 17370 bound_to 10713
  157.3168  130.6917  149.6247 LP  0  0  0  0  0  0  0  0  0  0  0  0  # atno 17371 bound_to 10713
  140.8514  133.8129  155.9173 LP  0  0  0  0  0  0  0  0  0  0  0  0  # atno 17394 bound_to 11000
  140.9140  134.2225  157.4968 LP  0  0  0  0  0  0  0  0  0  0  0  0  # atno 17395 bound_to 11000

$$$$
