AV-unprocessed.smi:3168|AV-procd|sdf|12100|dock2
  -GOLD-   2272017533D 1   1.00000     0.00000
 Structure written by MMmdl.
 33 34  0  0  0  0  0  0  0  0  1 V2000
  151.4934  137.7342  154.2156 C   0  0  0  0  0  0  0  0  0  0  0  0
  150.8089  138.6061  155.2883 C   0  0  1  0  0  0  0  0  0  0  0  0
  151.8190  139.3453  156.1776 C   0  0  0  0  0  0  0  0  0  0  0  0
  153.0240  139.3038  155.9262 O   0  0  0  0  0  0  0  0  0  0  0  0
  151.3041  140.0412  157.2035 N   0  0  0  0  0  0  0  0  0  0  0  0
  152.0596  140.8977  158.1107 C   0  0  0  0  0  0  0  0  0  0  0  0
  151.5492  142.3474  158.0621 C   0  0  2  0  0  0  0  0  0  0  0  0
  152.4860  143.3879  158.6741 C   0  0  0  0  0  0  0  0  0  0  0  0
  151.5496  144.5301  159.0289 C   0  0  0  0  0  0  0  0  0  0  0  0
  150.1611  143.8816  159.0530 C   0  0  0  0  0  0  0  0  0  0  0  0
  150.3825  142.4909  158.8546 O   0  0  0  0  0  0  0  0  0  0  0  0
  149.8619  139.5594  154.7195 N   0  0  0  0  0  0  0  0  0  0  0  0
  148.7226  139.2864  153.9892 C   0  0  0  0  0  0  0  0  0  0  0  0
  148.1163  140.4775  153.7104 C   0  0  0  0  0  0  0  0  0  0  0  0
  148.9595  141.4389  154.3327 C   0  0  0  0  0  0  0  0  0  0  0  0
  149.9945  140.8879  154.9444 N   0  0  0  0  0  0  0  0  0  0  0  0
  152.1598  137.0022  154.6731 H   0  0  0  0  0  0  0  0  0  0  0  0
  152.0866  138.3267  153.5177 H   0  0  0  0  0  0  0  0  0  0  0  0
  150.7536  137.1829  153.6347 H   0  0  0  0  0  0  0  0  0  0  0  0
  150.2361  137.9324  155.9281 H   0  0  0  0  0  0  0  0  0  0  0  0
  150.3041  140.0113  157.3380 H   0  0  0  0  0  0  0  0  0  0  0  0
  151.9391  140.5040  159.1200 H   0  0  0  0  0  0  0  0  0  0  0  0
  153.1286  140.8598  157.8944 H   0  0  0  0  0  0  0  0  0  0  0  0
  151.3068  142.6256  157.0346 H   0  0  0  0  0  0  0  0  0  0  0  0
  152.9428  142.9941  159.5830 H   0  0  0  0  0  0  0  0  0  0  0  0
  153.2874  143.6878  157.9977 H   0  0  0  0  0  0  0  0  0  0  0  0
  151.8123  144.9726  159.9903 H   0  0  0  0  0  0  0  0  0  0  0  0
  151.5877  145.3170  158.2746 H   0  0  0  0  0  0  0  0  0  0  0  0
  149.6350  144.0577  159.9916 H   0  0  0  0  0  0  0  0  0  0  0  0
  149.5440  144.2678  158.2406 H   0  0  0  0  0  0  0  0  0  0  0  0
  148.4401  138.2761  153.7325 H   0  0  0  0  0  0  0  0  0  0  0  0
  147.2056  140.6374  153.1528 H   0  0  0  0  0  0  0  0  0  0  0  0
  148.8480  142.5128  154.3631 H   0  0  0  0  0  0  0  0  0  0  0  0
  1  2  1  0  0  0  0
  1 17  1  0  0  0  0
  1 18  1  0  0  0  0
  1 19  1  0  0  0  0
  2  3  1  0  0  0  0
  2 12  1  0  0  0  0
  2 20  1  0  0  0  0
  3  4  2  0  0  0  0
  3  5  1  0  0  0  0
  5  6  1  0  0  0  0
  5 21  1  0  0  0  0
  6  7  1  0  0  0  0
  6 22  1  0  0  0  0
  6 23  1  0  0  0  0
  7 11  1  0  0  0  0
  7  8  1  0  0  0  0
  7 24  1  0  0  0  0
  8  9  1  0  0  0  0
  8 25  1  0  0  0  0
  8 26  1  0  0  0  0
  9 10  1  0  0  0  0
  9 27  1  0  0  0  0
  9 28  1  0  0  0  0
 10 11  1  0  0  0  0
 10 29  1  0  0  0  0
 10 30  1  0  0  0  0
 12 16  1  0  0  0  0
 12 13  1  0  0  0  0
 13 14  2  0  0  0  0
 13 31  1  0  0  0  0
 14 15  1  0  0  0  0
 14 32  1  0  0  0  0
 15 16  2  0  0  0  0
 15 33  1  0  0  0  0
M  END
> <s_m_source_file>
AV-unprocessed.smi

> <i_m_source_file_index>
3168

> <i_lp_mmshare_version>
43012

> <i_f3d_flags>
0

> <s_epik_input>
bjFbY0hdW2NIXVtjSF1uMVtDQEhdKFtDSDNdKUMoPU8pW05IXVtDSDJdW0NAQEhdMltDSDJdW0NIMl1bQ0gyXU8y

> <s_epik_cmdline>
J2VwaWtfcHl0aG9uJywgJy1waCcsICc3LjAnLCAnLXRuJywgJzgnLCAnLW1hJywgJzIwMCcsICctbWV0YWxfYmluZGluZycsICctaW1hZScsICc8aW5maWxlLm1hZT4nLCAnLW9tYWUnLCAnPG91dGZpbGUubWFlPic=

> <r_lp_tautomer_probability>
1

> <r_epik_Ionization_Penalty>
4.14877e-05

> <r_epik_Ionization_Penalty_Charging>
0

> <r_epik_Ionization_Penalty_Neutral>
4.14877e-05

> <r_epik_State_Penalty>
-0

> <r_epik_Charging_Adjusted_Penalty>
0

> <i_epik_Tot_Q>
0

> <i_epik_Tot_abs_Q>
0

> <r_epik_Metal_State_Penalty>
-0

> <b_epik_Metal_Only>
0

> <s_lp_Force_Field>
OPLS_2005

> <r_lp_Energy>
21.2446

> <b_lp_Chiralities_Consistent>
1

> <s_lp_Variant>
AV-unprocessed.smi:3168-2

> <Gold.Version>
5.8.1

> <Gold.Id.Protein>
6NUR|6NUR_protein|mol2

> <Gold.PLP.Fitness>
40.7093

> <Gold.PLP.PLP>
-33.5701

> <Gold.PLP.part.hbond>
-2.1095

> <Gold.PLP.part.metal>
0.0000

> <Gold.PLP.part.buried>
-2.5377

> <Gold.PLP.part.nonpolar>
-28.7102

> <Gold.PLP.part.repulsive>
0.2375

> <Gold.PLP.ligand.clash>
0.0000

> <Gold.PLP.ligand.torsion>
0.2278

> <Gold.PLP.Chemscore.Hbond>
1.1507

> <Gold.PLP.Chemscore.CHOScore>
1.3427

> <Gold.PLP.Chemscore.Metal>
0.0000

> <Gold.Chemscore.Hbonds>
donor molecule, donor type, donor heavy atom, donor atom, acceptor molecule, acceptor atom, score
      P1  H  7989  7998       L1    16  0.19
      P1  H  7997  8010       L1     4  1.00
      L1  C    13    31       P1  7948  0.32
      L1  C    15    33       P1  8028  0.98

> <Gold.PLP.Chemscore.Internal.Correction>
0.1147

> <Gold.Rescore>
     Score         DG    S(hbond)    S(metal)    S(lipo)     H(rot)  DE(clash)    DE(int)     intcor
     13.36     -15.02       1.00        0.00      88.18       1.61       0.07       1.59       ----

> <Gold.Chemscore.Fitness>
13.3639

> <Gold.Chemscore.DG>
-15.0243

> <Gold.Chemscore.ZeroCoef>
-5.4800

> <Gold.Chemscore.Hbond>
1.0022

> <Gold.Chemscore.Metal>
0.0000

> <Gold.Chemscore.Lipo>
88.1780

> <Gold.Chemscore.Internal_Hbond>
0.0000

> <Gold.Chemscore.DEClash>
0.0682

> <Gold.Chemscore.DEInternal>
1.5922

> <Gold.Chemscore.Rot>
1.6094

> <Gold.Chemscore.Internal.Correction>
   9.000000E+99

> <Gold.Chemscore.Hbonds>
donor molecule, donor type, donor heavy atom, donor atom, acceptor molecule, acceptor atom, score
      P1  H  7997  8010       L1     4  0.98

> <Gold.Chemscore.Hbond.Weighted>
-3.3475

> <Gold.Chemscore.Metal.Weighted>
-0.0000

> <Gold.Chemscore.Lipo.Weighted>
-10.3168

> <Gold.Chemscore.Internal_Hbond.Weighted>
0.0000

> <Gold.Chemscore.DEClash.Weighted>
0.0682

> <Gold.Chemscore.DEInternal.Weighted>
1.5922

> <Gold.Chemscore.Rot.Weighted>
4.1201

> <Gold.Chemscore.Internal.Correction.Weighted>
   9.000000E+99

> <Gold.Protein.RotatedTorsions>
[ 6907 6896 6895 6894 ] final  -30.67 input  -60.11 | X-H torsion
[ 7974 7965 7964 7962 ] final   68.69 input  175.53 | X-H torsion
[ 8008 7997 7996 7995 ] final   99.14 input   59.86 | X-H torsion
[ 10167 10162 10161 10158 ] final  -97.89 input  -65.29 | X-H torsion
[ 10718 10713 10712 10709 ] final  -45.62 input   66.30 | X-H torsion
[ 10763 10752 10751 10750 ] final  122.18 input  -60.55 | X-H torsion
[ 11005 11000 10999 10996 ] final  138.22 input  -57.11 | X-H torsion

> <Gold.Protein.ActiveResidues>
 VAL166  LYS551  ARG553  GLY616  TRP617  ASP618  TYR619  PRO620  LYS621  CYS622 
 ASP623  PHE694  ASN695  SER759  ASP760  ASP761  ALA762  ILE779  LEU786  VAL792 
 PHE793  MET794  SER795  GLU796  ALA797  LYS798  CYS799  TRP800  GLU811  SER814 

> <Gold.Protein.RotatedAtoms>
  151.1024  134.9980  159.8454 H   0  0  0  0  0  0  0  0  0  0  0  0  # atno 6907 bound_to 6896
  152.5438  134.1934  159.8693 H   0  0  0  0  0  0  0  0  0  0  0  0  # atno 6908 bound_to 6896
  151.1978  133.4584  159.2629 H   0  0  0  0  0  0  0  0  0  0  0  0  # atno 6909 bound_to 6896
  145.7996  139.2975  143.1163 H   0  0  0  0  0  0  0  0  0  0  0  0  # atno 7974 bound_to 7965
  156.1075  140.3233  155.8026 H   0  0  0  0  0  0  0  0  0  0  0  0  # atno 8008 bound_to 7997
  155.4730  140.0548  157.2994 H   0  0  0  0  0  0  0  0  0  0  0  0  # atno 8009 bound_to 7997
  154.4737  140.2023  155.9944 H   0  0  0  0  0  0  0  0  0  0  0  0  # atno 8010 bound_to 7997
  140.2787  143.3296  152.0463 H   0  0  0  0  0  0  0  0  0  0  0  0  # atno 10167 bound_to 10162
  156.2265  130.4169  149.8927 H   0  0  0  0  0  0  0  0  0  0  0  0  # atno 10718 bound_to 10713
  153.6257  135.3405  155.3025 H   0  0  0  0  0  0  0  0  0  0  0  0  # atno 10763 bound_to 10752
  154.8591  135.4283  154.2160 H   0  0  0  0  0  0  0  0  0  0  0  0  # atno 10764 bound_to 10752
  153.3043  135.7027  153.7247 H   0  0  0  0  0  0  0  0  0  0  0  0  # atno 10765 bound_to 10752
  140.0168  134.9414  157.0393 H   0  0  0  0  0  0  0  0  0  0  0  0  # atno 11005 bound_to 11000
  145.9892  140.8617  143.0075 LP  0  0  0  0  0  0  0  0  0  0  0  0  # atno 17320 bound_to 7965
  144.6770  140.2191  143.7368 LP  0  0  0  0  0  0  0  0  0  0  0  0  # atno 17321 bound_to 7965
  139.4968  144.6606  151.6472 LP  0  0  0  0  0  0  0  0  0  0  0  0  # atno 17342 bound_to 10162
  140.5830  143.9913  150.6279 LP  0  0  0  0  0  0  0  0  0  0  0  0  # atno 17343 bound_to 10162
  156.6556  130.8761  151.3539 LP  0  0  0  0  0  0  0  0  0  0  0  0  # atno 17370 bound_to 10713
  157.7113  130.9443  150.1099 LP  0  0  0  0  0  0  0  0  0  0  0  0  # atno 17371 bound_to 10713
  140.4456  134.1635  155.7177 LP  0  0  0  0  0  0  0  0  0  0  0  0  # atno 17394 bound_to 11000
  141.1748  133.8536  157.1456 LP  0  0  0  0  0  0  0  0  0  0  0  0  # atno 17395 bound_to 11000

$$$$
