AV-unprocessed.smi:686|AV-procd|sdf|3349|dock2
  -GOLD-   22720 0323D 1   1.00000     0.00000
 Structure written by MMmdl.
 40 41  0  0  0  0  0  0  0  0  3 V2000
  150.3349  135.6456  155.1215 C   0  0  0  0  0  0  0  0  0  0  0  0
  149.6187  134.3058  155.4200 C   0  0  2  0  0  0  0  0  0  0  0  0
  149.4814  133.4657  154.1440 C   0  0  0  0  0  0  0  0  0  0  0  0
  148.2282  133.9248  153.4980 N   0  3  1  0  0  0  0  0  0  0  0  0
  147.5859  132.9556  152.5649 C   0  0  0  0  0  0  0  0  0  0  0  0
  146.3026  133.5318  151.9352 C   0  0  0  0  0  0  0  0  0  0  0  0
  147.2529  131.6341  153.2830 C   0  0  0  0  0  0  0  0  0  0  0  0
  147.3478  134.4613  154.5688 C   0  0  0  0  0  0  0  0  0  0  0  0
  148.1482  134.4040  155.8775 C   0  0  2  0  0  0  0  0  0  0  0  0
  147.8684  135.5438  156.7447 N   0  5  0  0  0  0  0  0  0  0  0  0
  148.6672  135.7691  158.1455 S   0  0  0  0  0  0  0  0  0  0  0  0
  148.8887  134.5299  158.9098 O   0  0  0  0  0  0  0  0  0  0  0  0
  149.8390  136.6349  157.9463 O   0  0  0  0  0  0  0  0  0  0  0  0
  147.4681  136.7838  159.1249 C   0  0  0  0  0  0  0  0  0  0  0  0
  147.3741  136.2522  160.5272 C   0  0  0  0  0  0  0  0  0  0  0  0
  147.0574  134.9330  160.9550 C   0  0  0  0  0  0  0  0  0  0  0  0
  147.1191  135.0152  162.3159 C   0  0  0  0  0  0  0  0  0  0  0  0
  147.4543  136.2721  162.7014 O   0  0  0  0  0  0  0  0  0  0  0  0
  147.6183  137.0539  161.5523 N   0  0  0  0  0  0  0  0  0  0  0  0
  149.8039  136.2523  154.3857 H   0  0  0  0  0  0  0  0  0  0  0  0
  151.3343  135.4629  154.7259 H   0  0  0  0  0  0  0  0  0  0  0  0
  150.4643  136.2488  156.0217 H   0  0  0  0  0  0  0  0  0  0  0  0
  150.2096  133.7645  156.1597 H   0  0  0  0  0  0  0  0  0  0  0  0
  150.3367  133.5822  153.4772 H   0  0  0  0  0  0  0  0  0  0  0  0
  149.4099  132.4021  154.3893 H   0  0  0  0  0  0  0  0  0  0  0  0
  148.2911  132.7430  151.7599 H   0  0  0  0  0  0  0  0  0  0  0  0
  145.8169  132.7943  151.2949 H   0  0  0  0  0  0  0  0  0  0  0  0
  146.5058  134.4020  151.3112 H   0  0  0  0  0  0  0  0  0  0  0  0
  145.5839  133.8275  152.7002 H   0  0  0  0  0  0  0  0  0  0  0  0
  146.7664  130.9336  152.6036 H   0  0  0  0  0  0  0  0  0  0  0  0
  146.5775  131.8004  154.1230 H   0  0  0  0  0  0  0  0  0  0  0  0
  148.1427  131.1353  153.6665 H   0  0  0  0  0  0  0  0  0  0  0  0
  147.0747  135.4828  154.2999 H   0  0  0  0  0  0  0  0  0  0  0  0
  146.4246  133.8904  154.6759 H   0  0  0  0  0  0  0  0  0  0  0  0
  147.8943  133.4617  156.3649 H   0  0  0  0  0  0  0  0  0  0  0  0
  147.8145  137.8169  159.1248 H   0  0  0  0  0  0  0  0  0  0  0  0
  146.4963  136.7580  158.6328 H   0  0  0  0  0  0  0  0  0  0  0  0
  146.8156  134.0674  160.3565 H   0  0  0  0  0  0  0  0  0  0  0  0
  146.9607  134.3011  163.1105 H   0  0  0  0  0  0  0  0  0  0  0  0
  148.4927  134.7275  152.9453 H   0  0  0  0  0  0  0  0  0  0  0  0
  1  2  1  0  0  0  0
  1 20  1  0  0  0  0
  1 21  1  0  0  0  0
  1 22  1  0  0  0  0
  2  9  1  0  0  0  0
  2  3  1  0  0  0  0
  2 23  1  0  0  0  0
  3  4  1  0  0  0  0
  3 24  1  0  0  0  0
  3 25  1  0  0  0  0
  4  5  1  0  0  0  0
  4  8  1  0  0  0  0
  4 40  1  0  0  0  0
  5  6  1  0  0  0  0
  5  7  1  0  0  0  0
  5 26  1  0  0  0  0
  6 27  1  0  0  0  0
  6 28  1  0  0  0  0
  6 29  1  0  0  0  0
  7 30  1  0  0  0  0
  7 31  1  0  0  0  0
  7 32  1  0  0  0  0
  8  9  1  0  0  0  0
  8 33  1  0  0  0  0
  8 34  1  0  0  0  0
  9 10  1  0  0  0  0
  9 35  1  0  0  0  0
 10 11  1  0  0  0  0
 11 12  2  0  0  0  0
 11 13  2  0  0  0  0
 11 14  1  0  0  0  0
 14 15  1  0  0  0  0
 14 36  1  0  0  0  0
 14 37  1  0  0  0  0
 15 19  2  0  0  0  0
 15 16  1  0  0  0  0
 16 17  2  0  0  0  0
 16 38  1  0  0  0  0
 17 18  1  0  0  0  0
 17 39  1  0  0  0  0
 18 19  1  0  0  0  0
M  CHG  1   4   1
M  CHG  1  10  -1
M  END
> <s_m_source_file>
AV-unprocessed.smi

> <i_m_source_file_index>
686

> <i_lp_mmshare_version>
43012

> <i_f3d_flags>
0

> <s_epik_input>
W0NIM11bQ0BASF0xW0NIMl1OKFtDSF0oW0NIM10pW0NIM10pW0NIMl1bQ0BIXTFbTkhdUyg9TykoPU8pW0NIMl1jMltjSF1bY0hdb24y

> <s_epik_cmdline>
J2VwaWtfcHl0aG9uJywgJy1waCcsICc3LjAnLCAnLXRuJywgJzgnLCAnLW1hJywgJzIwMCcsICctbWV0YWxfYmluZGluZycsICctaW1hZScsICc8aW5maWxlLm1hZT4nLCAnLW9tYWUnLCAnPG91dGZpbGUubWFlPic=

> <r_epik_Ionization_Penalty>
3.62478

> <r_epik_Ionization_Penalty_Charging>
3.62478

> <r_epik_Ionization_Penalty_Neutral>
2.03645e-10

> <r_epik_State_Penalty>
3.6247

> <r_epik_Charging_Adjusted_Penalty>
7.24949

> <i_epik_Tot_Q>
0

> <i_epik_Tot_abs_Q>
2

> <r_epik_Metal_State_Penalty>
0.530836

> <b_epik_Metal_Only>
1

> <s_lp_Force_Field>
OPLS_2005

> <r_lp_Energy>
21.5589

> <b_lp_Chiralities_Consistent>
1

> <s_lp_Variant>
AV-unprocessed.smi:686-13

> <Gold.Version>
5.8.1

> <Gold.Id.Protein>
6NUR|6NUR_protein|mol2

> <Gold.PLP.Fitness>
42.4433

> <Gold.PLP.PLP>
-28.8638

> <Gold.PLP.part.hbond>
-4.0000

> <Gold.PLP.part.metal>
0.0000

> <Gold.PLP.part.buried>
-4.7537

> <Gold.PLP.part.nonpolar>
-19.8813

> <Gold.PLP.part.repulsive>
0.0000

> <Gold.PLP.ligand.clash>
0.0000

> <Gold.PLP.ligand.torsion>
0.9058

> <Gold.PLP.Chemscore.Hbond>
4.7840

> <Gold.PLP.Chemscore.CHOScore>
0.0000

> <Gold.PLP.Chemscore.Metal>
0.0000

> <Gold.Chemscore.Hbonds>
donor molecule, donor type, donor heavy atom, donor atom, acceptor molecule, acceptor atom, score
      L1  H     4    40       P1  7948  2.00
      P1  H  6896  6907       L1    12  1.00
      P1  H  6931  6943       L1    19  1.00
      P1  H  6934  6947       L1    19  0.66

> <Gold.PLP.Chemscore.Internal.Correction>
1.0390

> <Gold.Rescore>
     Score         DG    S(hbond)    S(metal)    S(lipo)     H(rot)  DE(clash)    DE(int)     intcor
     15.84     -18.05       2.94        0.00      58.94       1.61       0.00       2.21       ----

> <Gold.Chemscore.Fitness>
15.8426

> <Gold.Chemscore.DG>
-18.0528

> <Gold.Chemscore.ZeroCoef>
-5.4800

> <Gold.Chemscore.Hbond>
2.9375

> <Gold.Chemscore.Metal>
0.0000

> <Gold.Chemscore.Lipo>
58.9376

> <Gold.Chemscore.Internal_Hbond>
0.0000

> <Gold.Chemscore.DEClash>
0.0000

> <Gold.Chemscore.DEInternal>
2.2102

> <Gold.Chemscore.Rot>
1.6149

> <Gold.Chemscore.Internal.Correction>
   9.000000E+99

> <Gold.Chemscore.Hbonds>
donor molecule, donor type, donor heavy atom, donor atom, acceptor molecule, acceptor atom, score
      L1  H     4    40       P1  7948  0.40
      P1  H  6896  6907       L1    12  0.62
      P1  H  6931  6943       L1    19  0.58
      P1  H  6934  6947       L1    19  0.43

> <Gold.Chemscore.Hbond.Weighted>
-9.8112

> <Gold.Chemscore.Metal.Weighted>
-0.0000

> <Gold.Chemscore.Lipo.Weighted>
-6.8957

> <Gold.Chemscore.Internal_Hbond.Weighted>
0.0000

> <Gold.Chemscore.DEClash.Weighted>
0.0000

> <Gold.Chemscore.DEInternal.Weighted>
2.2102

> <Gold.Chemscore.Rot.Weighted>
4.1341

> <Gold.Chemscore.Internal.Correction.Weighted>
   9.000000E+99

> <Gold.Protein.RotatedTorsions>
[ 6907 6896 6895 6894 ] final  -68.67 input  -60.11 | X-H torsion
[ 7974 7965 7964 7962 ] final   82.32 input  175.53 | X-H torsion
[ 8008 7997 7996 7995 ] final  -43.86 input   59.86 | X-H torsion
[ 10167 10162 10161 10158 ] final   52.47 input  -65.29 | X-H torsion
[ 10718 10713 10712 10709 ] final -164.21 input   66.30 | X-H torsion
[ 10763 10752 10751 10750 ] final -117.53 input  -60.55 | X-H torsion
[ 11005 11000 10999 10996 ] final -110.57 input  -57.11 | X-H torsion

> <Gold.Protein.ActiveResidues>
 VAL166  LYS551  ARG553  GLY616  TRP617  ASP618  TYR619  PRO620  LYS621  CYS622 
 ASP623  PHE694  ASN695  SER759  ASP760  ASP761  ALA762  ILE779  LEU786  VAL792 
 PHE793  MET794  SER795  GLU796  ALA797  LYS798  CYS799  TRP800  GLU811  SER814 

> <Gold.Protein.RotatedAtoms>
  150.7344  134.5706  159.5887 H   0  0  0  0  0  0  0  0  0  0  0  0  # atno 6907 bound_to 6896
  152.3146  134.7453  160.0337 H   0  0  0  0  0  0  0  0  0  0  0  0  # atno 6908 bound_to 6896
  151.7989  133.3332  159.3558 H   0  0  0  0  0  0  0  0  0  0  0  0  # atno 6909 bound_to 6896
  145.6266  139.2396  143.2108 H   0  0  0  0  0  0  0  0  0  0  0  0  # atno 7974 bound_to 7965
  154.3997  140.1437  156.3588 H   0  0  0  0  0  0  0  0  0  0  0  0  # atno 8008 bound_to 7997
  155.8200  140.3470  155.5487 H   0  0  0  0  0  0  0  0  0  0  0  0  # atno 8009 bound_to 7997
  155.8298  140.0910  157.1790 H   0  0  0  0  0  0  0  0  0  0  0  0  # atno 8010 bound_to 7997
  140.2511  144.3478  150.6348 H   0  0  0  0  0  0  0  0  0  0  0  0  # atno 10167 bound_to 10162
  156.6358  130.8948  151.2986 H   0  0  0  0  0  0  0  0  0  0  0  0  # atno 10718 bound_to 10713
  154.8558  135.4306  154.1994 H   0  0  0  0  0  0  0  0  0  0  0  0  # atno 10763 bound_to 10752
  153.3044  135.6971  153.7179 H   0  0  0  0  0  0  0  0  0  0  0  0  # atno 10764 bound_to 10752
  153.6296  135.3487  155.3011 H   0  0  0  0  0  0  0  0  0  0  0  0  # atno 10765 bound_to 10752
  141.0784  133.9262  157.2341 H   0  0  0  0  0  0  0  0  0  0  0  0  # atno 11005 bound_to 11000
  146.1389  140.7085  142.9376 LP  0  0  0  0  0  0  0  0  0  0  0  0  # atno 17320 bound_to 7965
  144.7210  140.4372  143.7008 LP  0  0  0  0  0  0  0  0  0  0  0  0  # atno 17321 bound_to 7965
  140.6040  143.2167  151.7017 LP  0  0  0  0  0  0  0  0  0  0  0  0  # atno 17342 bound_to 10162
  139.5046  144.3748  152.0435 LP  0  0  0  0  0  0  0  0  0  0  0  0  # atno 17343 bound_to 10162
  157.7186  130.9529  150.1350 LP  0  0  0  0  0  0  0  0  0  0  0  0  # atno 17370 bound_to 10713
  156.2198  130.3673  149.8569 LP  0  0  0  0  0  0  0  0  0  0  0  0  # atno 17371 bound_to 10713
  139.9597  135.0157  156.9226 LP  0  0  0  0  0  0  0  0  0  0  0  0  # atno 17394 bound_to 11000
  140.5522  134.0616  155.7373 LP  0  0  0  0  0  0  0  0  0  0  0  0  # atno 17395 bound_to 11000

$$$$
