AV-unprocessed.smi:1695|AV-procd|sdf|6791|dock5
  -GOLD-   22720 7553D 1   1.00000     0.00000
 Structure written by MMmdl.
 51 53  0  0  0  0  0  0  0  0  2 V2000
  153.2452  142.5882  160.0299 C   0  0  0  0  0  0  0  0  0  0  0  0
  152.4584  142.1210  158.8179 C   0  0  0  0  0  0  0  0  0  0  0  0
  152.9766  141.0723  158.0252 C   0  0  0  0  0  0  0  0  0  0  0  0
  152.2752  140.6067  156.8918 C   0  0  0  0  0  0  0  0  0  0  0  0
  152.5886  139.6042  155.9903 N   0  0  0  0  0  0  0  0  0  0  0  0
  151.5438  139.6448  155.1692 C   0  0  0  0  0  0  0  0  0  0  0  0
  150.5842  140.5513  155.4369 N   0  0  0  0  0  0  0  0  0  0  0  0
  149.3556  140.7635  154.6938 C   0  0  0  0  0  0  0  0  0  0  0  0
  148.7552  139.4475  154.1613 C   0  0  2  0  0  0  0  0  0  0  0  0
  149.3846  139.1524  152.9308 O   0  0  0  0  0  0  0  0  0  0  0  0
  147.2279  139.5116  153.9370 C   0  0  0  0  0  0  0  0  0  0  0  0
  146.7445  138.4645  153.0012 N   0  3  1  0  0  0  0  0  0  0  0  0
  145.9945  137.3735  153.6788 C   0  0  0  0  0  0  0  0  0  0  0  0
  145.6314  136.2537  152.6901 C   0  0  0  0  0  0  0  0  0  0  0  0
  144.8169  136.8017  151.5027 C   0  0  2  0  0  0  0  0  0  0  0  0
  144.5032  135.6931  150.4889 C   0  0  0  0  0  0  0  0  0  0  0  0
  143.7297  136.0171  149.4498 N   0  0  0  0  0  0  0  0  0  0  0  0
  144.9511  134.5582  150.6418 O   0  0  0  0  0  0  0  0  0  0  0  0
  145.6032  137.9505  150.8432 C   0  0  0  0  0  0  0  0  0  0  0  0
  145.9691  139.0352  151.8700 C   0  0  0  0  0  0  0  0  0  0  0  0
  151.0304  141.2230  156.5707 C   0  0  0  0  0  0  0  0  0  0  0  0
  150.5059  142.2696  157.3499 C   0  0  0  0  0  0  0  0  0  0  0  0
  151.2206  142.7236  158.4783 C   0  0  0  0  0  0  0  0  0  0  0  0
  150.6468  143.8546  159.3131 C   0  0  0  0  0  0  0  0  0  0  0  0
  154.1419  141.9862  160.1791 H   0  0  0  0  0  0  0  0  0  0  0  0
  152.6392  142.5122  160.9329 H   0  0  0  0  0  0  0  0  0  0  0  0
  153.5547  143.6262  159.9062 H   0  0  0  0  0  0  0  0  0  0  0  0
  153.9203  140.6144  158.2829 H   0  0  0  0  0  0  0  0  0  0  0  0
  151.4667  138.9717  154.3279 H   0  0  0  0  0  0  0  0  0  0  0  0
  148.6423  141.2783  155.3387 H   0  0  0  0  0  0  0  0  0  0  0  0
  149.5728  141.4418  153.8672 H   0  0  0  0  0  0  0  0  0  0  0  0
  149.0039  138.6507  154.8615 H   0  0  0  0  0  0  0  0  0  0  0  0
  149.0103  138.3585  152.5797 H   0  0  0  0  0  0  0  0  0  0  0  0
  146.6851  139.4098  154.8773 H   0  0  0  0  0  0  0  0  0  0  0  0
  146.9791  140.5014  153.5509 H   0  0  0  0  0  0  0  0  0  0  0  0
  146.5874  136.9493  154.4881 H   0  0  0  0  0  0  0  0  0  0  0  0
  145.0888  137.7793  154.1328 H   0  0  0  0  0  0  0  0  0  0  0  0
  146.5479  135.7784  152.3356 H   0  0  0  0  0  0  0  0  0  0  0  0
  145.0636  135.4800  153.2091 H   0  0  0  0  0  0  0  0  0  0  0  0
  143.8757  137.2018  151.8850 H   0  0  0  0  0  0  0  0  0  0  0  0
  143.4954  135.3234  148.7547 H   0  0  0  0  0  0  0  0  0  0  0  0
  143.3808  136.9609  149.3622 H   0  0  0  0  0  0  0  0  0  0  0  0
  146.5169  137.5695  150.3834 H   0  0  0  0  0  0  0  0  0  0  0  0
  145.0154  138.3946  150.0388 H   0  0  0  0  0  0  0  0  0  0  0  0
  145.0667  139.5163  152.2510 H   0  0  0  0  0  0  0  0  0  0  0  0
  146.5566  139.8091  151.3740 H   0  0  0  0  0  0  0  0  0  0  0  0
  149.5612  142.7192  157.0826 H   0  0  0  0  0  0  0  0  0  0  0  0
  149.7251  144.2420  158.8787 H   0  0  0  0  0  0  0  0  0  0  0  0
  151.3557  144.6801  159.3802 H   0  0  0  0  0  0  0  0  0  0  0  0
  150.4225  143.5081  160.3220 H   0  0  0  0  0  0  0  0  0  0  0  0
  147.5702  138.0480  152.5941 H   0  0  0  0  0  0  0  0  0  0  0  0
  1  2  1  0  0  0  0
  1 25  1  0  0  0  0
  1 26  1  0  0  0  0
  1 27  1  0  0  0  0
  2 23  1  0  0  0  0
  2  3  2  0  0  0  0
  3  4  1  0  0  0  0
  3 28  1  0  0  0  0
  4 21  2  0  0  0  0
  4  5  1  0  0  0  0
  5  6  2  0  0  0  0
  6  7  1  0  0  0  0
  6 29  1  0  0  0  0
  7  8  1  0  0  0  0
  7 21  1  0  0  0  0
  8  9  1  0  0  0  0
  8 30  1  0  0  0  0
  8 31  1  0  0  0  0
  9 10  1  0  0  0  0
  9 11  1  0  0  0  0
  9 32  1  0  0  0  0
 10 33  1  0  0  0  0
 11 12  1  0  0  0  0
 11 34  1  0  0  0  0
 11 35  1  0  0  0  0
 12 20  1  0  0  0  0
 12 13  1  0  0  0  0
 12 51  1  0  0  0  0
 13 14  1  0  0  0  0
 13 36  1  0  0  0  0
 13 37  1  0  0  0  0
 14 15  1  0  0  0  0
 14 38  1  0  0  0  0
 14 39  1  0  0  0  0
 15 16  1  0  0  0  0
 15 19  1  0  0  0  0
 15 40  1  0  0  0  0
 16 17  1  0  0  0  0
 16 18  2  0  0  0  0
 17 41  1  0  0  0  0
 17 42  1  0  0  0  0
 19 20  1  0  0  0  0
 19 43  1  0  0  0  0
 19 44  1  0  0  0  0
 20 45  1  0  0  0  0
 20 46  1  0  0  0  0
 21 22  1  0  0  0  0
 22 23  2  0  0  0  0
 22 47  1  0  0  0  0
 23 24  1  0  0  0  0
 24 48  1  0  0  0  0
 24 49  1  0  0  0  0
 24 50  1  0  0  0  0
M  CHG  1  12   1
M  END
> <s_m_source_file>
AV-unprocessed.smi

> <i_m_source_file_index>
1695

> <i_lp_mmshare_version>
43012

> <i_f3d_flags>
0

> <s_epik_input>
W0NIM11jKFtjSF0xKWMoW0NIM10pW2NIXWMoYzEyKW4oW2NIXW4yKVtDSDJdW0NASF0oW09IXSlbQ0gyXU4zW0NIMl1bQ0gyXVtDSF0oQyg9TylbTkgyXSlbQ0gyXVtDSDJdMw==

> <s_epik_cmdline>
J2VwaWtfcHl0aG9uJywgJy1waCcsICc3LjAnLCAnLXRuJywgJzgnLCAnLW1hJywgJzIwMCcsICctbWV0YWxfYmluZGluZycsICctaW1hZScsICc8aW5maWxlLm1hZT4nLCAnLW9tYWUnLCAnPG91dGZpbGUubWFlPic=

> <r_epik_Ionization_Penalty>
0.113899

> <r_epik_Ionization_Penalty_Charging>
0.0258844

> <r_epik_Ionization_Penalty_Neutral>
0.0880147

> <r_epik_State_Penalty>
0.0974403

> <r_epik_Charging_Adjusted_Penalty>
0.123325

> <i_epik_Tot_Q>
1

> <i_epik_Tot_abs_Q>
1

> <r_epik_Metal_State_Penalty>
0.0851148

> <b_epik_Metal_Only>
0

> <s_lp_Force_Field>
OPLS_2005

> <r_lp_Energy>
21.0029

> <b_lp_Chiralities_Consistent>
1

> <s_lp_Variant>
AV-unprocessed.smi:1695-3

> <Gold.Version>
5.8.1

> <Gold.Id.Protein>
6NUR|6NUR_protein|mol2

> <Gold.PLP.Fitness>
55.3209

> <Gold.PLP.PLP>
-45.4901

> <Gold.PLP.part.hbond>
-5.8187

> <Gold.PLP.part.metal>
0.0000

> <Gold.PLP.part.buried>
2.0745

> <Gold.PLP.part.nonpolar>
-41.8234

> <Gold.PLP.part.repulsive>
0.3263

> <Gold.PLP.ligand.clash>
0.0000

> <Gold.PLP.ligand.torsion>
1.5335

> <Gold.PLP.Chemscore.Hbond>
4.2812

> <Gold.PLP.Chemscore.CHOScore>
0.0000

> <Gold.PLP.Chemscore.Metal>
0.0000

> <Gold.Chemscore.Hbonds>
donor molecule, donor type, donor heavy atom, donor atom, acceptor molecule, acceptor atom, score
      L1  H    10    33       P1  7948  0.55
      L1  H    12    51       P1  7948  0.26
      L1  H    17    42       P1 10171  0.80
      P1  H  7997  8010       L1     5  0.25

> <Gold.PLP.Chemscore.Internal.Correction>
0.0541

> <Gold.Rescore>
     Score         DG    S(hbond)    S(metal)    S(lipo)     H(rot)  DE(clash)    DE(int)     intcor
     17.39     -20.61       2.59        0.00     117.59       2.85       1.79       1.43       ----

> <Gold.Chemscore.Fitness>
17.3894

> <Gold.Chemscore.DG>
-20.6102

> <Gold.Chemscore.ZeroCoef>
-5.4800

> <Gold.Chemscore.Hbond>
2.5924

> <Gold.Chemscore.Metal>
0.0000

> <Gold.Chemscore.Lipo>
117.5914

> <Gold.Chemscore.Internal_Hbond>
0.0000

> <Gold.Chemscore.DEClash>
1.7935

> <Gold.Chemscore.DEInternal>
1.4273

> <Gold.Chemscore.Rot>
2.8464

> <Gold.Chemscore.Internal.Correction>
   9.000000E+99

> <Gold.Chemscore.Hbonds>
donor molecule, donor type, donor heavy atom, donor atom, acceptor molecule, acceptor atom, score
      L1  H    10    33       P1  7948  0.55
      L1  H    12    51       P1  7948  0.14
      L1  H    17    42       P1 10171  0.24

> <Gold.Chemscore.Hbond.Weighted>
-8.6587

> <Gold.Chemscore.Metal.Weighted>
-0.0000

> <Gold.Chemscore.Lipo.Weighted>
-13.7582

> <Gold.Chemscore.Internal_Hbond.Weighted>
0.0000

> <Gold.Chemscore.DEClash.Weighted>
1.7935

> <Gold.Chemscore.DEInternal.Weighted>
1.4273

> <Gold.Chemscore.Rot.Weighted>
7.2867

> <Gold.Chemscore.Internal.Correction.Weighted>
   9.000000E+99

> <Gold.Protein.RotatedTorsions>
[ 6907 6896 6895 6894 ] final   20.49 input  -60.11 | X-H torsion
[ 7974 7965 7964 7962 ] final -107.15 input  175.53 | X-H torsion
[ 8008 7997 7996 7995 ] final   80.82 input   59.86 | X-H torsion
[ 10167 10162 10161 10158 ] final  173.52 input  -65.29 | X-H torsion
[ 10718 10713 10712 10709 ] final -178.84 input   66.30 | X-H torsion
[ 10763 10752 10751 10750 ] final   91.97 input  -60.55 | X-H torsion
[ 11005 11000 10999 10996 ] final -102.86 input  -57.11 | X-H torsion

> <Gold.Protein.ActiveResidues>
 VAL166  LYS551  ARG553  GLY616  TRP617  ASP618  TYR619  PRO620  LYS621  CYS622 
 ASP623  PHE694  ASN695  SER759  ASP760  ASP761  ALA762  ILE779  LEU786  VAL792 
 PHE793  MET794  SER795  GLU796  ALA797  LYS798  CYS799  TRP800  GLU811  SER814 

> <Gold.Protein.RotatedAtoms>
  151.8972  135.0393  160.0502 H   0  0  0  0  0  0  0  0  0  0  0  0  # atno 6907 bound_to 6896
  152.2388  133.5114  159.5266 H   0  0  0  0  0  0  0  0  0  0  0  0  # atno 6908 bound_to 6896
  150.7047  134.1033  159.4016 H   0  0  0  0  0  0  0  0  0  0  0  0  # atno 6909 bound_to 6896
  145.2090  140.9088  143.3325 H   0  0  0  0  0  0  0  0  0  0  0  0  # atno 7974 bound_to 7965
  155.8887  140.3440  155.5940 H   0  0  0  0  0  0  0  0  0  0  0  0  # atno 8008 bound_to 7997
  155.7636  140.0836  157.2162 H   0  0  0  0  0  0  0  0  0  0  0  0  # atno 8009 bound_to 7997
  154.4031  140.1531  156.2848 H   0  0  0  0  0  0  0  0  0  0  0  0  # atno 8010 bound_to 7997
  139.5111  144.3252  152.0165 H   0  0  0  0  0  0  0  0  0  0  0  0  # atno 10167 bound_to 10162
  156.8502  130.9716  151.3093 H   0  0  0  0  0  0  0  0  0  0  0  0  # atno 10718 bound_to 10713
  153.2140  135.4378  155.0413 H   0  0  0  0  0  0  0  0  0  0  0  0  # atno 10763 bound_to 10752
  154.8215  135.3340  154.7026 H   0  0  0  0  0  0  0  0  0  0  0  0  # atno 10764 bound_to 10752
  153.7462  135.7001  153.5011 H   0  0  0  0  0  0  0  0  0  0  0  0  # atno 10765 bound_to 10752
  141.1171  133.8593  157.1413 H   0  0  0  0  0  0  0  0  0  0  0  0  # atno 11005 bound_to 11000
  144.9874  139.3723  143.6231 LP  0  0  0  0  0  0  0  0  0  0  0  0  # atno 17320 bound_to 7965
  146.3402  139.9042  142.8790 LP  0  0  0  0  0  0  0  0  0  0  0  0  # atno 17321 bound_to 7965
  140.2692  144.3982  150.6157 LP  0  0  0  0  0  0  0  0  0  0  0  0  # atno 17342 bound_to 10162
  140.6100  143.2169  151.6904 LP  0  0  0  0  0  0  0  0  0  0  0  0  # atno 17343 bound_to 10162
  157.6307  130.8727  149.9270 LP  0  0  0  0  0  0  0  0  0  0  0  0  # atno 17370 bound_to 10713
  156.0832  130.3671  150.0538 LP  0  0  0  0  0  0  0  0  0  0  0  0  # atno 17371 bound_to 10713
  140.0101  134.9992  157.0376 LP  0  0  0  0  0  0  0  0  0  0  0  0  # atno 17394 bound_to 11000
  140.4615  134.1479  155.7192 LP  0  0  0  0  0  0  0  0  0  0  0  0  # atno 17395 bound_to 11000

$$$$
