AV-unprocessed.smi:2801|AV-procd|sdf|10799|dock10
  -GOLD-   2272015233D 1   1.00000     0.00000
 Structure written by MMmdl.
 32 32  0  0  0  0  0  0  0  0  1 V2000
  153.7870  141.3961  161.1172 C   0  0  0  0  0  0  0  0  0  0  0  0
  152.8708  142.5580  161.5071 C   0  0  0  0  0  0  0  0  0  0  0  0
  151.7229  142.5338  160.6674 O   0  0  0  0  0  0  0  0  0  0  0  0
  151.9764  142.7339  159.2784 C   0  0  2  0  0  0  0  0  0  0  0  0
  152.5583  144.1494  159.1029 C   0  0  0  0  0  0  0  0  0  0  0  0
  151.6422  145.2428  159.6666 C   0  0  0  0  0  0  0  0  0  0  0  0
  150.6765  142.5643  158.4746 C   0  0  0  0  0  0  0  0  0  0  0  0
  149.6685  143.1825  158.8154 O   0  0  0  0  0  0  0  0  0  0  0  0
  150.7374  141.6985  157.4457 N   0  0  0  0  0  0  0  0  0  0  0  0
  149.7257  141.3241  156.5165 C   0  0  0  0  0  0  0  0  0  0  0  0
  148.3876  141.7847  156.5738 C   0  0  0  0  0  0  0  0  0  0  0  0
  147.4807  141.3568  155.5840 C   0  0  0  0  0  0  0  0  0  0  0  0
  147.8183  140.5317  154.5713 N   0  0  0  0  0  0  0  0  0  0  0  0
  149.0962  140.1041  154.5101 C   0  0  0  0  0  0  0  0  0  0  0  0
  150.0840  140.4700  155.4475 C   0  0  0  0  0  0  0  0  0  0  0  0
  151.3591  139.9970  155.3105 O   0  0  0  0  0  0  0  0  0  0  0  0
  154.6795  141.3770  161.7428 H   0  0  0  0  0  0  0  0  0  0  0  0
  154.1086  141.4827  160.0791 H   0  0  0  0  0  0  0  0  0  0  0  0
  153.2764  140.4397  161.2318 H   0  0  0  0  0  0  0  0  0  0  0  0
  152.5722  142.4586  162.5516 H   0  0  0  0  0  0  0  0  0  0  0  0
  153.4138  143.4984  161.4071 H   0  0  0  0  0  0  0  0  0  0  0  0
  152.7169  142.0090  158.9337 H   0  0  0  0  0  0  0  0  0  0  0  0
  153.5248  144.2151  159.6048 H   0  0  0  0  0  0  0  0  0  0  0  0
  152.7478  144.3478  158.0470 H   0  0  0  0  0  0  0  0  0  0  0  0
  152.0888  146.2286  159.5369 H   0  0  0  0  0  0  0  0  0  0  0  0
  151.4633  145.0968  160.7321 H   0  0  0  0  0  0  0  0  0  0  0  0
  150.6758  145.2476  159.1619 H   0  0  0  0  0  0  0  0  0  0  0  0
  151.6129  141.2067  157.3393 H   0  0  0  0  0  0  0  0  0  0  0  0
  148.0397  142.4604  157.3387 H   0  0  0  0  0  0  0  0  0  0  0  0
  146.4546  141.6928  155.6037 H   0  0  0  0  0  0  0  0  0  0  0  0
  149.3392  139.4512  153.6847 H   0  0  0  0  0  0  0  0  0  0  0  0
  151.3912  139.0673  155.1421 H   0  0  0  0  0  0  0  0  0  0  0  0
  1  2  1  0  0  0  0
  1 17  1  0  0  0  0
  1 18  1  0  0  0  0
  1 19  1  0  0  0  0
  2  3  1  0  0  0  0
  2 20  1  0  0  0  0
  2 21  1  0  0  0  0
  3  4  1  0  0  0  0
  4  5  1  0  0  0  0
  4  7  1  0  0  0  0
  4 22  1  0  0  0  0
  5  6  1  0  0  0  0
  5 23  1  0  0  0  0
  5 24  1  0  0  0  0
  6 25  1  0  0  0  0
  6 26  1  0  0  0  0
  6 27  1  0  0  0  0
  7  8  2  0  0  0  0
  7  9  1  0  0  0  0
  9 10  1  0  0  0  0
  9 28  1  0  0  0  0
 10 15  1  0  0  0  0
 10 11  2  0  0  0  0
 11 12  1  0  0  0  0
 11 29  1  0  0  0  0
 12 13  2  0  0  0  0
 12 30  1  0  0  0  0
 13 14  1  0  0  0  0
 14 15  2  0  0  0  0
 14 31  1  0  0  0  0
 15 16  1  0  0  0  0
 16 32  1  0  0  0  0
M  END
> <s_m_source_file>
AV-unprocessed.smi

> <i_m_source_file_index>
2801

> <i_lp_mmshare_version>
43012

> <i_f3d_flags>
0

> <s_epik_input>
W0NIM11bQ0gyXU9bQ0BIXShbQ0gyXVtDSDNdKUMoPU8pW05IXWMxW2NIXVtjSF1uW2NIXWMxW09IXQ==

> <s_epik_cmdline>
J2VwaWtfcHl0aG9uJywgJy1waCcsICc3LjAnLCAnLXRuJywgJzgnLCAnLW1hJywgJzIwMCcsICctbWV0YWxfYmluZGluZycsICctaW1hZScsICc8aW5maWxlLm1hZT4nLCAnLW9tYWUnLCAnPG91dGZpbGUubWFlPic=

> <r_lp_tautomer_probability>
0.43658

> <r_epik_Ionization_Penalty>
0.0250035

> <r_epik_Ionization_Penalty_Charging>
0

> <r_epik_Ionization_Penalty_Neutral>
0.0250035

> <r_epik_State_Penalty>
0.520524

> <r_epik_Charging_Adjusted_Penalty>
0.520524

> <i_epik_Tot_Q>
0

> <i_epik_Tot_abs_Q>
0

> <r_epik_Metal_State_Penalty>
0.772586

> <b_epik_Metal_Only>
0

> <s_lp_Force_Field>
OPLS_2005

> <r_lp_Energy>
11.8743

> <b_lp_Chiralities_Consistent>
1

> <s_lp_Variant>
AV-unprocessed.smi:2801-3

> <Gold.Version>
5.8.1

> <Gold.Id.Protein>
6NUR|6NUR_protein|mol2

> <Gold.PLP.Fitness>
39.7231

> <Gold.PLP.PLP>
-33.9999

> <Gold.PLP.part.hbond>
-1.6957

> <Gold.PLP.part.metal>
0.0000

> <Gold.PLP.part.buried>
-4.5755

> <Gold.PLP.part.nonpolar>
-27.6406

> <Gold.PLP.part.repulsive>
0.3195

> <Gold.PLP.ligand.clash>
0.0000

> <Gold.PLP.ligand.torsion>
0.1446

> <Gold.PLP.Chemscore.Hbond>
1.0000

> <Gold.PLP.Chemscore.CHOScore>
1.0000

> <Gold.PLP.Chemscore.Metal>
0.0000

> <Gold.Chemscore.Hbonds>
donor molecule, donor type, donor heavy atom, donor atom, acceptor molecule, acceptor atom, score
      P1  H  6933  6945       L1     3  0.01
      P1  H  7989  7998       L1    16  0.70
      L1  C    14    31       P1  7957  0.80

> <Gold.PLP.Chemscore.Internal.Correction>
0.0123

> <Gold.Rescore>
     Score         DG    S(hbond)    S(metal)    S(lipo)     H(rot)  DE(clash)    DE(int)     intcor
     11.20     -12.92       0.85        0.00      85.44       2.11       0.12       1.60       ----

> <Gold.Chemscore.Fitness>
11.2008

> <Gold.Chemscore.DG>
-12.9222

> <Gold.Chemscore.ZeroCoef>
-5.4800

> <Gold.Chemscore.Hbond>
0.8546

> <Gold.Chemscore.Metal>
0.0000

> <Gold.Chemscore.Lipo>
85.4440

> <Gold.Chemscore.Internal_Hbond>
0.0000

> <Gold.Chemscore.DEClash>
0.1202

> <Gold.Chemscore.DEInternal>
1.6012

> <Gold.Chemscore.Rot>
2.1129

> <Gold.Chemscore.Internal.Correction>
   9.000000E+99

> <Gold.Chemscore.Hbonds>
donor molecule, donor type, donor heavy atom, donor atom, acceptor molecule, acceptor atom, score
      P1  H  6933  6945       L1     3  0.01
      P1  H  7989  7998       L1    16  0.03

> <Gold.Chemscore.Hbond.Weighted>
-2.8542

> <Gold.Chemscore.Metal.Weighted>
-0.0000

> <Gold.Chemscore.Lipo.Weighted>
-9.9969

> <Gold.Chemscore.Internal_Hbond.Weighted>
0.0000

> <Gold.Chemscore.DEClash.Weighted>
0.1202

> <Gold.Chemscore.DEInternal.Weighted>
1.6012

> <Gold.Chemscore.Rot.Weighted>
5.4089

> <Gold.Chemscore.Internal.Correction.Weighted>
   9.000000E+99

> <Gold.Protein.RotatedTorsions>
[ 6907 6896 6895 6894 ] final   67.83 input  -60.11 | X-H torsion
[ 7974 7965 7964 7962 ] final -159.01 input  175.53 | X-H torsion
[ 8008 7997 7996 7995 ] final -153.59 input   59.86 | X-H torsion
[ 10167 10162 10161 10158 ] final   57.56 input  -65.29 | X-H torsion
[ 10718 10713 10712 10709 ] final  148.75 input   66.30 | X-H torsion
[ 10763 10752 10751 10750 ] final  115.77 input  -60.55 | X-H torsion
[ 11005 11000 10999 10996 ] final   -3.46 input  -57.11 | X-H torsion

> <Gold.Protein.ActiveResidues>
 VAL166  LYS551  ARG553  GLY616  TRP617  ASP618  TYR619  PRO620  LYS621  CYS622 
 ASP623  PHE694  ASN695  SER759  ASP760  ASP761  ALA762  ILE779  LEU786  VAL792 
 PHE793  MET794  SER795  GLU796  ALA797  LYS798  CYS799  TRP800  GLU811  SER814 

> <Gold.Protein.RotatedAtoms>
  152.4579  134.5251  159.9794 H   0  0  0  0  0  0  0  0  0  0  0  0  # atno 6907 bound_to 6896
  151.5307  133.3444  159.2925 H   0  0  0  0  0  0  0  0  0  0  0  0  # atno 6908 bound_to 6896
  150.8530  134.7890  159.7086 H   0  0  0  0  0  0  0  0  0  0  0  0  # atno 6909 bound_to 6896
  144.7482  140.3746  143.6068 H   0  0  0  0  0  0  0  0  0  0  0  0  # atno 7974 bound_to 7965
  155.6731  140.0735  157.2512 H   0  0  0  0  0  0  0  0  0  0  0  0  # atno 8008 bound_to 7997
  154.4119  140.1695  156.1952 H   0  0  0  0  0  0  0  0  0  0  0  0  # atno 8009 bound_to 7997
  155.9599  140.3370  155.6485 H   0  0  0  0  0  0  0  0  0  0  0  0  # atno 8010 bound_to 7997
  140.1967  144.4030  150.6547 H   0  0  0  0  0  0  0  0  0  0  0  0  # atno 10167 bound_to 10162
  157.3047  131.0877  151.1363 H   0  0  0  0  0  0  0  0  0  0  0  0  # atno 10718 bound_to 10713
  153.5271  135.3586  155.2659 H   0  0  0  0  0  0  0  0  0  0  0  0  # atno 10763 bound_to 10752
  154.8730  135.4059  154.3193 H   0  0  0  0  0  0  0  0  0  0  0  0  # atno 10764 bound_to 10752
  153.3875  135.7070  153.6587 H   0  0  0  0  0  0  0  0  0  0  0  0  # atno 10765 bound_to 10752
  140.6696  133.9248  155.8486 H   0  0  0  0  0  0  0  0  0  0  0  0  # atno 11005 bound_to 11000
  145.7042  139.1668  143.2575 LP  0  0  0  0  0  0  0  0  0  0  0  0  # atno 17320 bound_to 7965
  146.1394  140.7079  142.9374 LP  0  0  0  0  0  0  0  0  0  0  0  0  # atno 17321 bound_to 7965
  140.6419  143.2205  151.6272 LP  0  0  0  0  0  0  0  0  0  0  0  0  # atno 17342 bound_to 10162
  139.5234  144.3135  152.0972 LP  0  0  0  0  0  0  0  0  0  0  0  0  # atno 17343 bound_to 10162
  157.2708  130.6703  149.6018 LP  0  0  0  0  0  0  0  0  0  0  0  0  # atno 17370 bound_to 10713
  155.9674  130.4480  150.5601 LP  0  0  0  0  0  0  0  0  0  0  0  0  # atno 17371 bound_to 10713
  141.0403  134.0631  157.3910 LP  0  0  0  0  0  0  0  0  0  0  0  0  # atno 17394 bound_to 11000
  139.8986  135.0155  156.7156 LP  0  0  0  0  0  0  0  0  0  0  0  0  # atno 17395 bound_to 11000

$$$$
