AV-unprocessed.smi:1194|AV-procd|sdf|4990|dock6
  -GOLD-   22720 3593D 1   1.00000     0.00000
 Structure written by MMmdl.
 47 48  0  0  0  0  0  0  0  0  1 V2000
  150.2399  133.6639  153.9356 C   0  0  0  0  0  0  0  0  0  0  0  0
  151.0362  134.8452  154.4999 C   0  0  0  0  0  0  0  0  0  0  0  0
  150.1255  135.9977  154.9649 C   0  0  0  0  0  0  0  0  0  0  0  0
  150.7691  137.3918  154.8457 C   0  0  0  0  0  0  0  0  0  0  0  0
  151.9287  137.4671  154.4357 O   0  0  0  0  0  0  0  0  0  0  0  0
  150.0571  138.4915  155.2106 N   0  0  0  0  0  0  0  0  0  0  0  0
  148.6527  138.4507  155.6754 C   0  0  0  0  0  0  0  0  0  0  0  0
  147.7633  139.3285  154.7791 C   0  0  0  0  0  0  0  0  0  0  0  0
  148.3061  140.7613  154.6909 C   0  0  0  0  0  0  0  0  0  0  0  0
  149.7785  140.7450  154.2531 C   0  0  0  0  0  0  0  0  0  0  0  0
  150.6569  139.8506  155.1629 C   0  0  1  0  0  0  0  0  0  0  0  0
  150.9140  140.4558  156.5620 C   0  0  0  0  0  0  0  0  0  0  0  0
  150.4017  141.5278  156.8838 O   0  0  0  0  0  0  0  0  0  0  0  0
  151.7261  139.7669  157.3771 N   0  0  0  0  0  0  0  0  0  0  0  0
  152.1230  140.1500  158.7250 C   0  0  0  0  0  0  0  0  0  0  0  0
  152.7642  141.5494  158.7329 C   0  0  0  0  0  0  0  0  0  0  0  0
  152.6596  142.2556  160.0754 C   0  0  0  0  0  0  0  0  0  0  0  0
  151.8760  143.4186  160.2228 C   0  0  0  0  0  0  0  0  0  0  0  0
  151.8317  144.0521  161.4798 C   0  0  0  0  0  0  0  0  0  0  0  0
  152.5715  143.4916  162.5399 C   0  0  0  0  0  0  0  0  0  0  0  0
  153.3204  142.3755  162.4120 N   0  0  0  0  0  0  0  0  0  0  0  0
  153.3601  141.7759  161.2032 C   0  0  0  0  0  0  0  0  0  0  0  0
  150.9070  132.8649  153.6116 H   0  0  0  0  0  0  0  0  0  0  0  0
  149.6405  133.9672  153.0767 H   0  0  0  0  0  0  0  0  0  0  0  0
  149.5659  133.2501  154.6867 H   0  0  0  0  0  0  0  0  0  0  0  0
  151.6442  134.4916  155.3340 H   0  0  0  0  0  0  0  0  0  0  0  0
  151.7301  135.2035  153.7384 H   0  0  0  0  0  0  0  0  0  0  0  0
  149.2004  135.9862  154.3873 H   0  0  0  0  0  0  0  0  0  0  0  0
  149.8610  135.8212  156.0070 H   0  0  0  0  0  0  0  0  0  0  0  0
  148.2169  137.4545  155.6995 H   0  0  0  0  0  0  0  0  0  0  0  0
  148.6014  138.8070  156.7046 H   0  0  0  0  0  0  0  0  0  0  0  0
  147.7145  138.8939  153.7796 H   0  0  0  0  0  0  0  0  0  0  0  0
  146.7424  139.3404  155.1620 H   0  0  0  0  0  0  0  0  0  0  0  0
  147.7120  141.3448  153.9871 H   0  0  0  0  0  0  0  0  0  0  0  0
  148.2092  141.2530  155.6597 H   0  0  0  0  0  0  0  0  0  0  0  0
  149.8387  140.3720  153.2296 H   0  0  0  0  0  0  0  0  0  0  0  0
  150.1668  141.7635  154.2160 H   0  0  0  0  0  0  0  0  0  0  0  0
  151.6420  139.8341  154.6952 H   0  0  0  0  0  0  0  0  0  0  0  0
  152.1128  138.9023  157.0267 H   0  0  0  0  0  0  0  0  0  0  0  0
  151.2270  140.1514  159.3466 H   0  0  0  0  0  0  0  0  0  0  0  0
  152.8111  139.4230  159.1595 H   0  0  0  0  0  0  0  0  0  0  0  0
  153.8144  141.4785  158.4482 H   0  0  0  0  0  0  0  0  0  0  0  0
  152.2851  142.1684  157.9728 H   0  0  0  0  0  0  0  0  0  0  0  0
  151.3258  143.8237  159.3862 H   0  0  0  0  0  0  0  0  0  0  0  0
  151.2468  144.9478  161.6275 H   0  0  0  0  0  0  0  0  0  0  0  0
  152.5633  143.9523  163.5165 H   0  0  0  0  0  0  0  0  0  0  0  0
  153.9796  140.8938  161.1334 H   0  0  0  0  0  0  0  0  0  0  0  0
  1  2  1  0  0  0  0
  1 23  1  0  0  0  0
  1 24  1  0  0  0  0
  1 25  1  0  0  0  0
  2  3  1  0  0  0  0
  2 26  1  0  0  0  0
  2 27  1  0  0  0  0
  3  4  1  0  0  0  0
  3 28  1  0  0  0  0
  3 29  1  0  0  0  0
  4  5  2  0  0  0  0
  4  6  1  0  0  0  0
  6 11  1  0  0  0  0
  6  7  1  0  0  0  0
  7  8  1  0  0  0  0
  7 30  1  0  0  0  0
  7 31  1  0  0  0  0
  8  9  1  0  0  0  0
  8 32  1  0  0  0  0
  8 33  1  0  0  0  0
  9 10  1  0  0  0  0
  9 34  1  0  0  0  0
  9 35  1  0  0  0  0
 10 11  1  0  0  0  0
 10 36  1  0  0  0  0
 10 37  1  0  0  0  0
 11 12  1  0  0  0  0
 11 38  1  0  0  0  0
 12 13  2  0  0  0  0
 12 14  1  0  0  0  0
 14 15  1  0  0  0  0
 14 39  1  0  0  0  0
 15 16  1  0  0  0  0
 15 40  1  0  0  0  0
 15 41  1  0  0  0  0
 16 17  1  0  0  0  0
 16 42  1  0  0  0  0
 16 43  1  0  0  0  0
 17 22  1  0  0  0  0
 17 18  2  0  0  0  0
 18 19  1  0  0  0  0
 18 44  1  0  0  0  0
 19 20  2  0  0  0  0
 19 45  1  0  0  0  0
 20 21  1  0  0  0  0
 20 46  1  0  0  0  0
 21 22  2  0  0  0  0
 22 47  1  0  0  0  0
M  END
> <s_m_source_file>
AV-unprocessed.smi

> <i_m_source_file_index>
1194

> <i_lp_mmshare_version>
43012

> <i_f3d_flags>
0

> <s_epik_input>
W0NIM11bQ0gyXVtDSDJdQyg9TylOMVtDSDJdW0NIMl1bQ0gyXVtDSDJdW0NASF0xQyg9TylbTkhdW0NIMl1bQ0gyXWMyW2NIXVtjSF1bY0hdbltjSF0y

> <s_epik_cmdline>
J2VwaWtfcHl0aG9uJywgJy1waCcsICc3LjAnLCAnLXRuJywgJzgnLCAnLW1hJywgJzIwMCcsICctbWV0YWxfYmluZGluZycsICctaW1hZScsICc8aW5maWxlLm1hZT4nLCAnLW9tYWUnLCAnPG91dGZpbGUubWFlPic=

> <r_epik_Ionization_Penalty>
0.0130932

> <r_epik_Ionization_Penalty_Charging>
0

> <r_epik_Ionization_Penalty_Neutral>
0.0130932

> <r_epik_State_Penalty>
0.0101714

> <r_epik_Charging_Adjusted_Penalty>
0.0101714

> <i_epik_Tot_Q>
0

> <i_epik_Tot_abs_Q>
0

> <r_epik_Metal_State_Penalty>
0.00995056

> <b_epik_Metal_Only>
0

> <s_lp_Force_Field>
OPLS_2005

> <r_lp_Energy>
24.5515

> <b_lp_Chiralities_Consistent>
1

> <s_lp_Variant>
AV-unprocessed.smi:1194-1

> <Gold.Version>
5.8.1

> <Gold.Id.Protein>
6NUR|6NUR_protein|mol2

> <Gold.PLP.Fitness>
43.3633

> <Gold.PLP.PLP>
-41.0563

> <Gold.PLP.part.hbond>
-1.0000

> <Gold.PLP.part.metal>
0.0000

> <Gold.PLP.part.buried>
-4.7831

> <Gold.PLP.part.nonpolar>
-35.3321

> <Gold.PLP.part.repulsive>
0.3003

> <Gold.PLP.ligand.clash>
0.0000

> <Gold.PLP.ligand.torsion>
0.3957

> <Gold.PLP.Chemscore.Hbond>
1.0000

> <Gold.PLP.Chemscore.CHOScore>
0.0000

> <Gold.PLP.Chemscore.Metal>
0.0000

> <Gold.Chemscore.Hbonds>
donor molecule, donor type, donor heavy atom, donor atom, acceptor molecule, acceptor atom, score
      P1  H 10752 10764       L1     5  0.77

> <Gold.PLP.Chemscore.Internal.Correction>
0.0984

> <Gold.Rescore>
     Score         DG    S(hbond)    S(metal)    S(lipo)     H(rot)  DE(clash)    DE(int)     intcor
     15.08     -17.65       0.96        0.00     113.34       1.68       1.21       1.37       ----

> <Gold.Chemscore.Fitness>
15.0752

> <Gold.Chemscore.DG>
-17.6524

> <Gold.Chemscore.ZeroCoef>
-5.4800

> <Gold.Chemscore.Hbond>
0.9637

> <Gold.Chemscore.Metal>
0.0000

> <Gold.Chemscore.Lipo>
113.3359

> <Gold.Chemscore.Internal_Hbond>
0.0000

> <Gold.Chemscore.DEClash>
1.2062

> <Gold.Chemscore.DEInternal>
1.3710

> <Gold.Chemscore.Rot>
1.6823

> <Gold.Chemscore.Internal.Correction>
   9.000000E+99

> <Gold.Chemscore.Hbonds>
donor molecule, donor type, donor heavy atom, donor atom, acceptor molecule, acceptor atom, score
      P1  H 10752 10764       L1     5  0.65

> <Gold.Chemscore.Hbond.Weighted>
-3.2189

> <Gold.Chemscore.Metal.Weighted>
-0.0000

> <Gold.Chemscore.Lipo.Weighted>
-13.2603

> <Gold.Chemscore.Internal_Hbond.Weighted>
0.0000

> <Gold.Chemscore.DEClash.Weighted>
1.2062

> <Gold.Chemscore.DEInternal.Weighted>
1.3710

> <Gold.Chemscore.Rot.Weighted>
4.3068

> <Gold.Chemscore.Internal.Correction.Weighted>
   9.000000E+99

> <Gold.Protein.RotatedTorsions>
[ 6907 6896 6895 6894 ] final  -38.67 input  -60.11 | X-H torsion
[ 7974 7965 7964 7962 ] final  -96.43 input  175.53 | X-H torsion
[ 8008 7997 7996 7995 ] final   15.92 input   59.86 | X-H torsion
[ 10167 10162 10161 10158 ] final   99.55 input  -65.29 | X-H torsion
[ 10718 10713 10712 10709 ] final  152.82 input   66.30 | X-H torsion
[ 10763 10752 10751 10750 ] final  -69.75 input  -60.55 | X-H torsion
[ 11005 11000 10999 10996 ] final  148.24 input  -57.11 | X-H torsion

> <Gold.Protein.ActiveResidues>
 VAL166  LYS551  ARG553  GLY616  TRP617  ASP618  TYR619  PRO620  LYS621  CYS622 
 ASP623  PHE694  ASN695  SER759  ASP760  ASP761  ALA762  ILE779  LEU786  VAL792 
 PHE793  MET794  SER795  GLU796  ALA797  LYS798  CYS799  TRP800  GLU811  SER814 

> <Gold.Protein.RotatedAtoms>
  150.9996  134.9311  159.7945 H   0  0  0  0  0  0  0  0  0  0  0  0  # atno 6907 bound_to 6896
  152.5274  134.3172  159.9145 H   0  0  0  0  0  0  0  0  0  0  0  0  # atno 6908 bound_to 6896
  151.3178  133.4011  159.2686 H   0  0  0  0  0  0  0  0  0  0  0  0  # atno 6909 bound_to 6896
  145.3470  140.9470  143.2575 H   0  0  0  0  0  0  0  0  0  0  0  0  # atno 7974 bound_to 7965
  154.8696  140.2957  155.5489 H   0  0  0  0  0  0  0  0  0  0  0  0  # atno 8008 bound_to 7997
  156.3021  140.2462  156.3616 H   0  0  0  0  0  0  0  0  0  0  0  0  # atno 8009 bound_to 7997
  154.8831  140.0397  157.1783 H   0  0  0  0  0  0  0  0  0  0  0  0  # atno 8010 bound_to 7997
  139.7607  144.6955  151.0296 H   0  0  0  0  0  0  0  0  0  0  0  0  # atno 10167 bound_to 10162
  157.2528  131.0782  151.1718 H   0  0  0  0  0  0  0  0  0  0  0  0  # atno 10718 bound_to 10713
  154.4079  135.6016  153.5935 H   0  0  0  0  0  0  0  0  0  0  0  0  # atno 10763 bound_to 10752
  152.9789  135.5922  154.4106 H   0  0  0  0  0  0  0  0  0  0  0  0  # atno 10764 bound_to 10752
  154.3914  135.2842  155.2131 H   0  0  0  0  0  0  0  0  0  0  0  0  # atno 10765 bound_to 10752
  140.0943  134.9022  157.1699 H   0  0  0  0  0  0  0  0  0  0  0  0  # atno 11005 bound_to 11000
  144.8746  139.4989  143.6751 LP  0  0  0  0  0  0  0  0  0  0  0  0  # atno 17320 bound_to 7965
  146.2984  139.7348  142.9110 LP  0  0  0  0  0  0  0  0  0  0  0  0  # atno 17321 bound_to 7965
  140.7807  143.4700  151.0159 LP  0  0  0  0  0  0  0  0  0  0  0  0  # atno 17342 bound_to 10162
  139.8386  143.7594  152.3180 LP  0  0  0  0  0  0  0  0  0  0  0  0  # atno 17343 bound_to 10162
  157.3259  130.6960  149.6296 LP  0  0  0  0  0  0  0  0  0  0  0  0  # atno 17370 bound_to 10713
  155.9666  130.4321  150.4951 LP  0  0  0  0  0  0  0  0  0  0  0  0  # atno 17371 bound_to 10713
  140.3309  134.2811  155.7228 LP  0  0  0  0  0  0  0  0  0  0  0  0  # atno 17394 bound_to 11000
  141.2087  133.7769  157.0041 LP  0  0  0  0  0  0  0  0  0  0  0  0  # atno 17395 bound_to 11000

$$$$
