AV-unprocessed.smi:1459|AV-procd|sdf|5926|dock1
  -GOLD-   22720 6 13D 1   1.00000     0.00000
 Structure written by MMmdl.
 34 35  0  0  0  0  0  0  0  0  1 V2000
  153.0669  143.0709  161.5797 C   0  0  0  0  0  0  0  0  0  0  0  0
  152.2063  143.3907  160.4057 C   0  0  0  0  0  0  0  0  0  0  0  0
  152.0231  142.7864  159.1938 C   0  0  0  0  0  0  0  0  0  0  0  0
  151.0600  143.6186  158.5636 C   0  0  0  0  0  0  0  0  0  0  0  0
  150.5855  143.3239  157.2601 N   0  0  0  0  0  0  0  0  0  0  0  0
  150.2967  142.1160  156.7467 C   0  0  0  0  0  0  0  0  0  0  0  0
  150.3778  141.0496  157.3569 O   0  0  0  0  0  0  0  0  0  0  0  0
  149.8973  142.2149  155.4699 N   0  0  0  0  0  0  0  0  0  0  0  0
  149.4845  141.1014  154.6184 C   0  0  2  0  0  0  0  0  0  0  0  0
  148.0111  140.7794  154.9124 C   0  0  0  0  0  0  0  0  0  0  0  0
  150.4077  139.8903  154.8619 C   0  0  1  0  0  0  0  0  0  0  0  0
  150.2121  138.7286  153.8870 C   0  0  0  0  0  0  0  0  0  0  0  0
  151.5498  138.0065  153.9193 C   0  0  0  0  0  0  0  0  0  0  0  0
  152.5072  139.0231  154.5471 C   0  0  0  0  0  0  0  0  0  0  0  0
  151.7659  140.2319  154.6300 O   0  0  0  0  0  0  0  0  0  0  0  0
  150.6897  144.6394  159.3217 N   0  0  0  0  0  0  0  0  0  0  0  0
  151.4226  144.4986  160.5061 O   0  0  0  0  0  0  0  0  0  0  0  0
  153.6388  142.1591  161.4069 H   0  0  0  0  0  0  0  0  0  0  0  0
  152.4615  142.9259  162.4745 H   0  0  0  0  0  0  0  0  0  0  0  0
  153.7710  143.8799  161.7740 H   0  0  0  0  0  0  0  0  0  0  0  0
  152.5017  141.8927  158.8218 H   0  0  0  0  0  0  0  0  0  0  0  0
  150.4580  144.1178  156.6505 H   0  0  0  0  0  0  0  0  0  0  0  0
  149.8600  143.1348  155.0564 H   0  0  0  0  0  0  0  0  0  0  0  0
  149.5547  141.3917  153.5685 H   0  0  0  0  0  0  0  0  0  0  0  0
  147.6381  139.9919  154.2575 H   0  0  0  0  0  0  0  0  0  0  0  0
  147.3804  141.6554  154.7566 H   0  0  0  0  0  0  0  0  0  0  0  0
  147.8742  140.4485  155.9425 H   0  0  0  0  0  0  0  0  0  0  0  0
  150.3055  139.5335  155.8889 H   0  0  0  0  0  0  0  0  0  0  0  0
  149.3772  138.0828  154.1605 H   0  0  0  0  0  0  0  0  0  0  0  0
  150.0286  139.1087  152.8810 H   0  0  0  0  0  0  0  0  0  0  0  0
  151.4989  137.1032  154.5284 H   0  0  0  0  0  0  0  0  0  0  0  0
  151.8637  137.7182  152.9156 H   0  0  0  0  0  0  0  0  0  0  0  0
  152.7954  138.7095  155.5515 H   0  0  0  0  0  0  0  0  0  0  0  0
  153.4150  139.1618  153.9596 H   0  0  0  0  0  0  0  0  0  0  0  0
  1  2  1  0  0  0  0
  1 18  1  0  0  0  0
  1 19  1  0  0  0  0
  1 20  1  0  0  0  0
  2 17  1  0  0  0  0
  2  3  2  0  0  0  0
  3  4  1  0  0  0  0
  3 21  1  0  0  0  0
  4  5  1  0  0  0  0
  4 16  2  0  0  0  0
  5  6  1  0  0  0  0
  5 22  1  0  0  0  0
  6  7  2  0  0  0  0
  6  8  1  0  0  0  0
  8  9  1  0  0  0  0
  8 23  1  0  0  0  0
  9 10  1  0  0  0  0
  9 11  1  0  0  0  0
  9 24  1  0  0  0  0
 10 25  1  0  0  0  0
 10 26  1  0  0  0  0
 10 27  1  0  0  0  0
 11 15  1  0  0  0  0
 11 12  1  0  0  0  0
 11 28  1  0  0  0  0
 12 13  1  0  0  0  0
 12 29  1  0  0  0  0
 12 30  1  0  0  0  0
 13 14  1  0  0  0  0
 13 31  1  0  0  0  0
 13 32  1  0  0  0  0
 14 15  1  0  0  0  0
 14 33  1  0  0  0  0
 14 34  1  0  0  0  0
 16 17  1  0  0  0  0
M  END
> <s_m_source_file>
AV-unprocessed.smi

> <i_m_source_file_index>
1459

> <i_lp_mmshare_version>
43012

> <i_f3d_flags>
0

> <s_epik_input>
W0NIM11jMVtjSF1jKG5vMSlbTkhdQyg9TylbTkhdW0NASF0oW0NIM10pW0NAQEhdMltDSDJdW0NIMl1bQ0gyXU8y

> <s_epik_cmdline>
J2VwaWtfcHl0aG9uJywgJy1waCcsICc3LjAnLCAnLXRuJywgJzgnLCAnLW1hJywgJzIwMCcsICctbWV0YWxfYmluZGluZycsICctaW1hZScsICc8aW5maWxlLm1hZT4nLCAnLW9tYWUnLCAnPG91dGZpbGUubWFlPic=

> <r_lp_tautomer_probability>
1

> <r_epik_Ionization_Penalty>
2.20869e-05

> <r_epik_Ionization_Penalty_Charging>
0

> <r_epik_Ionization_Penalty_Neutral>
2.20869e-05

> <r_epik_State_Penalty>
-0

> <r_epik_Charging_Adjusted_Penalty>
0

> <i_epik_Tot_Q>
0

> <i_epik_Tot_abs_Q>
0

> <r_epik_Metal_State_Penalty>
-0

> <b_epik_Metal_Only>
0

> <s_lp_Force_Field>
OPLS_2005

> <r_lp_Energy>
16.1691

> <b_lp_Chiralities_Consistent>
1

> <s_lp_Variant>
AV-unprocessed.smi:1459-3

> <Gold.Version>
5.8.1

> <Gold.Id.Protein>
6NUR|6NUR_protein|mol2

> <Gold.PLP.Fitness>
41.1949

> <Gold.PLP.PLP>
-36.3267

> <Gold.PLP.part.hbond>
-3.0000

> <Gold.PLP.part.metal>
0.0000

> <Gold.PLP.part.buried>
-5.3943

> <Gold.PLP.part.nonpolar>
-29.1562

> <Gold.PLP.part.repulsive>
0.5581

> <Gold.PLP.ligand.clash>
0.0000

> <Gold.PLP.ligand.torsion>
0.6420

> <Gold.PLP.Chemscore.Hbond>
2.0434

> <Gold.PLP.Chemscore.CHOScore>
0.0000

> <Gold.PLP.Chemscore.Metal>
0.0000

> <Gold.Chemscore.Hbonds>
donor molecule, donor type, donor heavy atom, donor atom, acceptor molecule, acceptor atom, score
      L1  H     5    22       P1  8028  0.64
      L1  H     8    23       P1  8028  0.61
      P1  H  7989  7998       L1    15  0.38

> <Gold.PLP.Chemscore.Internal.Correction>
0.0220

> <Gold.Rescore>
     Score         DG    S(hbond)    S(metal)    S(lipo)     H(rot)  DE(clash)    DE(int)     intcor
     16.11     -18.05       2.15        0.00      74.00       1.28       0.01       1.93       ----

> <Gold.Chemscore.Fitness>
16.1065

> <Gold.Chemscore.DG>
-18.0510

> <Gold.Chemscore.ZeroCoef>
-5.4800

> <Gold.Chemscore.Hbond>
2.1508

> <Gold.Chemscore.Metal>
0.0000

> <Gold.Chemscore.Lipo>
74.0004

> <Gold.Chemscore.Internal_Hbond>
0.0000

> <Gold.Chemscore.DEClash>
0.0106

> <Gold.Chemscore.DEInternal>
1.9339

> <Gold.Chemscore.Rot>
1.2776

> <Gold.Chemscore.Internal.Correction>
   9.000000E+99

> <Gold.Chemscore.Hbonds>
donor molecule, donor type, donor heavy atom, donor atom, acceptor molecule, acceptor atom, score
      L1  H     5    22       P1  8028  0.63
      L1  H     8    23       P1  8028  0.60
      P1  H  7989  7998       L1    15  0.10

> <Gold.Chemscore.Hbond.Weighted>
-7.1837

> <Gold.Chemscore.Metal.Weighted>
-0.0000

> <Gold.Chemscore.Lipo.Weighted>
-8.6580

> <Gold.Chemscore.Internal_Hbond.Weighted>
0.0000

> <Gold.Chemscore.DEClash.Weighted>
0.0106

> <Gold.Chemscore.DEInternal.Weighted>
1.9339

> <Gold.Chemscore.Rot.Weighted>
3.2707

> <Gold.Chemscore.Internal.Correction.Weighted>
   9.000000E+99

> <Gold.Protein.RotatedTorsions>
[ 6907 6896 6895 6894 ] final -167.57 input  -60.11 | X-H torsion
[ 7974 7965 7964 7962 ] final   32.48 input  175.53 | X-H torsion
[ 8008 7997 7996 7995 ] final   31.59 input   59.86 | X-H torsion
[ 10167 10162 10161 10158 ] final  -14.73 input  -65.29 | X-H torsion
[ 10718 10713 10712 10709 ] final  137.93 input   66.30 | X-H torsion
[ 10763 10752 10751 10750 ] final  108.31 input  -60.55 | X-H torsion
[ 11005 11000 10999 10996 ] final  -47.92 input  -57.11 | X-H torsion

> <Gold.Protein.ActiveResidues>
 VAL166  LYS551  ARG553  GLY616  TRP617  ASP618  TYR619  PRO620  LYS621  CYS622 
 ASP623  PHE694  ASN695  SER759  ASP760  ASP761  ALA762  ILE779  LEU786  VAL792 
 PHE793  MET794  SER795  GLU796  ALA797  LYS798  CYS799  TRP800  GLU811  SER814 

> <Gold.Protein.RotatedAtoms>
  151.4617  133.3591  159.2809 H   0  0  0  0  0  0  0  0  0  0  0  0  # atno 6907 bound_to 6896
  150.9021  134.8436  159.7378 H   0  0  0  0  0  0  0  0  0  0  0  0  # atno 6908 bound_to 6896
  152.4885  134.4538  159.9635 H   0  0  0  0  0  0  0  0  0  0  0  0  # atno 6909 bound_to 6896
  146.1483  139.6520  142.9116 H   0  0  0  0  0  0  0  0  0  0  0  0  # atno 7974 bound_to 7965
  155.1089  140.3237  155.4527 H   0  0  0  0  0  0  0  0  0  0  0  0  # atno 8008 bound_to 7997
  156.2696  140.2047  156.6161 H   0  0  0  0  0  0  0  0  0  0  0  0  # atno 8009 bound_to 7997
  154.6771  140.0530  157.0214 H   0  0  0  0  0  0  0  0  0  0  0  0  # atno 8010 bound_to 7997
  140.7206  143.5291  150.9541 H   0  0  0  0  0  0  0  0  0  0  0  0  # atno 10167 bound_to 10162
  157.4308  131.1048  151.0252 H   0  0  0  0  0  0  0  0  0  0  0  0  # atno 10718 bound_to 10713
  153.4189  135.3816  155.2098 H   0  0  0  0  0  0  0  0  0  0  0  0  # atno 10763 bound_to 10752
  154.8743  135.3812  154.4408 H   0  0  0  0  0  0  0  0  0  0  0  0  # atno 10764 bound_to 10752
  153.4926  135.7088  153.5938 H   0  0  0  0  0  0  0  0  0  0  0  0  # atno 10765 bound_to 10752
  141.0669  133.6691  156.3366 H   0  0  0  0  0  0  0  0  0  0  0  0  # atno 11005 bound_to 11000
  145.4884  141.0438  143.2607 LP  0  0  0  0  0  0  0  0  0  0  0  0  # atno 17320 bound_to 7965
  144.7873  139.6400  143.7128 LP  0  0  0  0  0  0  0  0  0  0  0  0  # atno 17321 bound_to 7965
  139.9010  143.6835  152.3131 LP  0  0  0  0  0  0  0  0  0  0  0  0  # atno 17342 bound_to 10162
  139.7185  144.7607  151.0994 LP  0  0  0  0  0  0  0  0  0  0  0  0  # atno 17343 bound_to 10162
  157.1149  130.6037  149.5491 LP  0  0  0  0  0  0  0  0  0  0  0  0  # atno 17370 bound_to 10713
  155.9912  130.4967  150.7291 LP  0  0  0  0  0  0  0  0  0  0  0  0  # atno 17371 bound_to 10713
  140.5753  134.5799  157.5467 LP  0  0  0  0  0  0  0  0  0  0  0  0  # atno 17394 bound_to 11000
  139.9485  134.7658  156.0503 LP  0  0  0  0  0  0  0  0  0  0  0  0  # atno 17395 bound_to 11000

$$$$
