AV-unprocessed.smi:2240|AV-procd|sdf|9057|dock5
  -GOLD-   2272012263D 1   1.00000     0.00000
 Structure written by MMmdl.
 37 38  0  0  0  0  0  0  0  0  1 V2000
  147.0499  139.0082  153.3980 C   0  0  0  0  0  0  0  0  0  0  0  0
  146.8185  140.3987  153.2127 O   0  0  0  0  0  0  0  0  0  0  0  0
  147.3134  141.2588  154.2398 C   0  0  0  0  0  0  0  0  0  0  0  0
  148.8424  141.1658  154.3798 C   0  0  0  0  0  0  0  0  0  0  0  0
  149.3485  142.0981  155.3824 N   0  0  0  0  0  0  0  0  0  0  0  0
  150.0948  141.7723  156.4471 C   0  0  0  0  0  0  0  0  0  0  0  0
  150.4683  140.6248  156.6920 O   0  0  0  0  0  0  0  0  0  0  0  0
  150.3552  142.8528  157.2039 N   0  0  0  0  0  0  0  0  0  0  0  0
  151.0596  142.9192  158.4354 C   0  0  0  0  0  0  0  0  0  0  0  0
  151.1825  144.1474  159.1346 C   0  0  0  0  0  0  0  0  0  0  0  0
  151.8622  144.1759  160.3674 C   0  0  0  0  0  0  0  0  0  0  0  0
  152.3922  142.9771  160.8794 C   0  0  0  0  0  0  0  0  0  0  0  0
  153.1331  142.9575  162.2000 C   0  0  0  0  0  0  0  0  0  0  0  0
  152.2111  141.7999  160.1280 C   0  0  0  0  0  0  0  0  0  0  0  0
  151.5583  141.7701  158.9471 N   0  0  0  0  0  0  0  0  0  0  0  0
  146.6805  142.6505  154.0414 C   0  0  0  0  0  0  0  0  0  0  0  0
  146.3851  142.6866  155.5413 C   0  0  0  0  0  0  0  0  0  0  0  0
  146.4498  141.1593  155.5142 C   0  0  0  0  0  0  0  0  0  0  0  0
  146.5278  138.4524  152.6194 H   0  0  0  0  0  0  0  0  0  0  0  0
  146.6788  138.6559  154.3606 H   0  0  0  0  0  0  0  0  0  0  0  0
  148.1080  138.7610  153.3182 H   0  0  0  0  0  0  0  0  0  0  0  0
  149.1433  140.1450  154.6211 H   0  0  0  0  0  0  0  0  0  0  0  0
  149.3332  141.3875  153.4326 H   0  0  0  0  0  0  0  0  0  0  0  0
  149.0848  143.0659  155.2685 H   0  0  0  0  0  0  0  0  0  0  0  0
  149.8984  143.7081  156.9241 H   0  0  0  0  0  0  0  0  0  0  0  0
  150.7571  145.0635  158.7538 H   0  0  0  0  0  0  0  0  0  0  0  0
  151.9685  145.1030  160.9113 H   0  0  0  0  0  0  0  0  0  0  0  0
  153.2060  141.9436  162.5946 H   0  0  0  0  0  0  0  0  0  0  0  0
  152.6162  143.5722  162.9374 H   0  0  0  0  0  0  0  0  0  0  0  0
  154.1421  143.3494  162.0715 H   0  0  0  0  0  0  0  0  0  0  0  0
  152.5962  140.8546  160.4816 H   0  0  0  0  0  0  0  0  0  0  0  0
  147.3604  143.4306  153.7005 H   0  0  0  0  0  0  0  0  0  0  0  0
  145.7710  142.6278  153.4383 H   0  0  0  0  0  0  0  0  0  0  0  0
  147.1915  143.1366  156.1226 H   0  0  0  0  0  0  0  0  0  0  0  0
  145.4117  143.0995  155.8072 H   0  0  0  0  0  0  0  0  0  0  0  0
  145.4714  140.7073  155.3404 H   0  0  0  0  0  0  0  0  0  0  0  0
  146.9502  140.7124  156.3736 H   0  0  0  0  0  0  0  0  0  0  0  0
  1  2  1  0  0  0  0
  1 19  1  0  0  0  0
  1 20  1  0  0  0  0
  1 21  1  0  0  0  0
  2  3  1  0  0  0  0
  3 18  1  0  0  0  0
  3  4  1  0  0  0  0
  3 16  1  0  0  0  0
  4  5  1  0  0  0  0
  4 22  1  0  0  0  0
  4 23  1  0  0  0  0
  5  6  1  0  0  0  0
  5 24  1  0  0  0  0
  6  7  2  0  0  0  0
  6  8  1  0  0  0  0
  8  9  1  0  0  0  0
  8 25  1  0  0  0  0
  9 15  1  0  0  0  0
  9 10  2  0  0  0  0
 10 11  1  0  0  0  0
 10 26  1  0  0  0  0
 11 12  2  0  0  0  0
 11 27  1  0  0  0  0
 12 13  1  0  0  0  0
 12 14  1  0  0  0  0
 13 28  1  0  0  0  0
 13 29  1  0  0  0  0
 13 30  1  0  0  0  0
 14 15  2  0  0  0  0
 14 31  1  0  0  0  0
 16 17  1  0  0  0  0
 16 32  1  0  0  0  0
 16 33  1  0  0  0  0
 17 18  1  0  0  0  0
 17 34  1  0  0  0  0
 17 35  1  0  0  0  0
 18 36  1  0  0  0  0
 18 37  1  0  0  0  0
M  END
> <s_m_source_file>
AV-unprocessed.smi

> <i_m_source_file_index>
2240

> <i_lp_mmshare_version>
43012

> <i_f3d_flags>
0

> <s_epik_input>
W0NIMl0xW0NIMl1bQ0gyXUMxKE9bQ0gzXSlbQ0gyXVtOSF1DKD1PKVtOSF1jMltjSF1bY0hdYyhbQ0gzXSlbY0hdbjI=

> <s_epik_cmdline>
J2VwaWtfcHl0aG9uJywgJy1waCcsICc3LjAnLCAnLXRuJywgJzgnLCAnLW1hJywgJzIwMCcsICctbWV0YWxfYmluZGluZycsICctaW1hZScsICc8aW5maWxlLm1hZT4nLCAnLW9tYWUnLCAnPG91dGZpbGUubWFlPic=

> <r_lp_tautomer_probability>
1

> <r_epik_Ionization_Penalty>
5.83017e-05

> <r_epik_Ionization_Penalty_Charging>
0

> <r_epik_Ionization_Penalty_Neutral>
5.83017e-05

> <r_epik_State_Penalty>
-0

> <r_epik_Charging_Adjusted_Penalty>
0

> <i_epik_Tot_Q>
0

> <i_epik_Tot_abs_Q>
0

> <r_epik_Metal_State_Penalty>
-0

> <b_epik_Metal_Only>
0

> <s_lp_Force_Field>
OPLS_2005

> <r_lp_Energy>
21.5554

> <b_lp_Chiralities_Consistent>
1

> <s_lp_Variant>
AV-unprocessed.smi:2240-1

> <Gold.Version>
5.8.1

> <Gold.Id.Protein>
6NUR|6NUR_protein|mol2

> <Gold.PLP.Fitness>
45.0141

> <Gold.PLP.PLP>
-39.0362

> <Gold.PLP.part.hbond>
-2.0000

> <Gold.PLP.part.metal>
0.0000

> <Gold.PLP.part.buried>
-5.7557

> <Gold.PLP.part.nonpolar>
-31.4884

> <Gold.PLP.part.repulsive>
0.4259

> <Gold.PLP.ligand.clash>
0.0000

> <Gold.PLP.ligand.torsion>
0.1443

> <Gold.PLP.Chemscore.Hbond>
2.0000

> <Gold.PLP.Chemscore.CHOScore>
0.0000

> <Gold.PLP.Chemscore.Metal>
0.0000

> <Gold.Chemscore.Hbonds>
donor molecule, donor type, donor heavy atom, donor atom, acceptor molecule, acceptor atom, score
      L1  H     5    24       P1  8028  1.00
      L1  H     8    25       P1  8028  1.00

> <Gold.PLP.Chemscore.Internal.Correction>
0.2664

> <Gold.Rescore>
     Score         DG    S(hbond)    S(metal)    S(lipo)     H(rot)  DE(clash)    DE(int)     intcor
     16.39     -18.97       1.97        0.00      90.85       1.45       0.04       2.54       ----

> <Gold.Chemscore.Fitness>
16.3887

> <Gold.Chemscore.DG>
-18.9675

> <Gold.Chemscore.ZeroCoef>
-5.4800

> <Gold.Chemscore.Hbond>
1.9690

> <Gold.Chemscore.Metal>
0.0000

> <Gold.Chemscore.Lipo>
90.8459

> <Gold.Chemscore.Internal_Hbond>
0.0000

> <Gold.Chemscore.DEClash>
0.0381

> <Gold.Chemscore.DEInternal>
2.5407

> <Gold.Chemscore.Rot>
1.4523

> <Gold.Chemscore.Internal.Correction>
   9.000000E+99

> <Gold.Chemscore.Hbonds>
donor molecule, donor type, donor heavy atom, donor atom, acceptor molecule, acceptor atom, score
      L1  H     5    24       P1  8028  1.00
      L1  H     8    25       P1  8028  0.95

> <Gold.Chemscore.Hbond.Weighted>
-6.5764

> <Gold.Chemscore.Metal.Weighted>
-0.0000

> <Gold.Chemscore.Lipo.Weighted>
-10.6290

> <Gold.Chemscore.Internal_Hbond.Weighted>
0.0000

> <Gold.Chemscore.DEClash.Weighted>
0.0381

> <Gold.Chemscore.DEInternal.Weighted>
2.5407

> <Gold.Chemscore.Rot.Weighted>
3.7179

> <Gold.Chemscore.Internal.Correction.Weighted>
   9.000000E+99

> <Gold.Protein.RotatedTorsions>
[ 6907 6896 6895 6894 ] final -164.35 input  -60.11 | X-H torsion
[ 7974 7965 7964 7962 ] final   60.59 input  175.53 | X-H torsion
[ 8008 7997 7996 7995 ] final -135.72 input   59.86 | X-H torsion
[ 10167 10162 10161 10158 ] final   97.74 input  -65.29 | X-H torsion
[ 10718 10713 10712 10709 ] final  -85.67 input   66.30 | X-H torsion
[ 10763 10752 10751 10750 ] final  -55.43 input  -60.55 | X-H torsion
[ 11005 11000 10999 10996 ] final -100.72 input  -57.11 | X-H torsion

> <Gold.Protein.ActiveResidues>
 VAL166  LYS551  ARG553  GLY616  TRP617  ASP618  TYR619  PRO620  LYS621  CYS622 
 ASP623  PHE694  ASN695  SER759  ASP760  ASP761  ALA762  ILE779  LEU786  VAL792 
 PHE793  MET794  SER795  GLU796  ALA797  LYS798  CYS799  TRP800  GLU811  SER814 

> <Gold.Protein.RotatedAtoms>
  151.4104  133.3729  159.2742 H   0  0  0  0  0  0  0  0  0  0  0  0  # atno 6907 bound_to 6896
  150.9367  134.8780  159.7597 H   0  0  0  0  0  0  0  0  0  0  0  0  # atno 6908 bound_to 6896
  152.5053  134.4052  159.9482 H   0  0  0  0  0  0  0  0  0  0  0  0  # atno 6909 bound_to 6896
  145.8943  139.3534  143.0630 H   0  0  0  0  0  0  0  0  0  0  0  0  # atno 7974 bound_to 7965
  155.3834  140.0495  157.3043 H   0  0  0  0  0  0  0  0  0  0  0  0  # atno 8008 bound_to 7997
  154.5071  140.2178  155.9191 H   0  0  0  0  0  0  0  0  0  0  0  0  # atno 8009 bound_to 7997
  156.1539  140.3130  155.8698 H   0  0  0  0  0  0  0  0  0  0  0  0  # atno 8010 bound_to 7997
  139.7773  144.6901  151.0072 H   0  0  0  0  0  0  0  0  0  0  0  0  # atno 10167 bound_to 10162
  155.9995  130.4739  150.4597 H   0  0  0  0  0  0  0  0  0  0  0  0  # atno 10718 bound_to 10713
  154.1906  135.6428  153.5059 H   0  0  0  0  0  0  0  0  0  0  0  0  # atno 10763 bound_to 10752
  153.0036  135.5428  154.6419 H   0  0  0  0  0  0  0  0  0  0  0  0  # atno 10764 bound_to 10752
  154.5807  135.2925  155.0709 H   0  0  0  0  0  0  0  0  0  0  0  0  # atno 10765 bound_to 10752
  141.1260  133.8421  157.1138 H   0  0  0  0  0  0  0  0  0  0  0  0  # atno 11005 bound_to 11000
  145.8870  140.9328  143.0572 LP  0  0  0  0  0  0  0  0  0  0  0  0  # atno 17320 bound_to 7965
  144.6732  140.0855  143.7467 LP  0  0  0  0  0  0  0  0  0  0  0  0  # atno 17321 bound_to 7965
  140.7817  143.4522  151.0397 LP  0  0  0  0  0  0  0  0  0  0  0  0  # atno 17342 bound_to 10162
  139.8204  143.7828  152.3176 LP  0  0  0  0  0  0  0  0  0  0  0  0  # atno 17343 bound_to 10162
  157.2622  131.0569  151.2313 LP  0  0  0  0  0  0  0  0  0  0  0  0  # atno 17370 bound_to 10713
  157.3423  130.7040  149.6389 LP  0  0  0  0  0  0  0  0  0  0  0  0  # atno 17371 bound_to 10713
  140.0258  134.9924  157.0684 LP  0  0  0  0  0  0  0  0  0  0  0  0  # atno 17394 bound_to 11000
  140.4364  134.1726  155.7171 LP  0  0  0  0  0  0  0  0  0  0  0  0  # atno 17395 bound_to 11000

$$$$
