AV-unprocessed.smi:2026|AV-procd|sdf|8203|dock6
  -GOLD-   2272010463D 1   1.00000     0.00000
 Structure written by MMmdl.
 47 49  0  0  0  0  0  0  0  0  2 V2000
  152.0238  144.5051  161.4991 C   0  0  0  0  0  0  0  0  0  0  0  0
  152.4982  143.1575  160.9828 C   0  0  0  0  0  0  0  0  0  0  0  0
  153.3441  142.3787  161.8055 C   0  0  0  0  0  0  0  0  0  0  0  0
  153.7607  141.1505  161.3049 C   0  0  0  0  0  0  0  0  0  0  0  0
  154.5802  140.1631  161.8576 N   0  3  0  0  0  0  0  0  0  0  0  0
  154.6987  139.1267  160.9810 C   0  0  0  0  0  0  0  0  0  0  0  0
  153.9679  139.4398  159.8773 N   0  0  0  0  0  0  0  0  0  0  0  0
  153.7460  138.6885  158.6366 C   0  0  0  0  0  0  0  0  0  0  0  0
  152.7384  137.5347  158.8220 C   0  0  2  0  0  0  0  0  0  0  0  0
  153.4288  136.3735  159.2360 O   0  0  0  0  0  0  0  0  0  0  0  0
  151.9324  137.2017  157.5498 C   0  0  0  0  0  0  0  0  0  0  0  0
  151.3965  138.4006  156.8927 N   0  0  0  0  0  0  0  0  0  0  0  0
  152.0815  139.1643  156.0222 C   0  0  0  0  0  0  0  0  0  0  0  0
  153.2389  138.9878  155.6458 O   0  0  0  0  0  0  0  0  0  0  0  0
  151.2898  140.1718  155.6323 N   0  0  0  0  0  0  0  0  0  0  0  0
  149.9798  140.1346  156.2527 C   0  0  0  0  0  0  0  0  0  0  0  0
  149.7506  141.3824  157.1242 C   0  0  0  0  0  0  0  0  0  0  0  0
  148.8764  139.9497  155.1957 C   0  0  0  0  0  0  0  0  0  0  0  0
  150.1630  138.8830  157.0972 C   0  0  0  0  0  0  0  0  0  0  0  0
  149.2995  138.4252  157.8457 O   0  0  0  0  0  0  0  0  0  0  0  0
  153.3646  140.6912  160.0347 C   0  0  0  0  0  0  0  0  0  0  0  0
  152.5310  141.4439  159.2120 C   0  0  0  0  0  0  0  0  0  0  0  0
  152.0958  142.6950  159.7027 C   0  0  0  0  0  0  0  0  0  0  0  0
  151.1836  143.5373  158.8271 C   0  0  0  0  0  0  0  0  0  0  0  0
  152.4275  144.7185  162.4894 H   0  0  0  0  0  0  0  0  0  0  0  0
  150.9362  144.5257  161.5718 H   0  0  0  0  0  0  0  0  0  0  0  0
  152.3419  145.3053  160.8304 H   0  0  0  0  0  0  0  0  0  0  0  0
  153.6523  142.7234  162.7819 H   0  0  0  0  0  0  0  0  0  0  0  0
  155.2670  138.2206  161.1350 H   0  0  0  0  0  0  0  0  0  0  0  0
  153.4100  139.3965  157.8789 H   0  0  0  0  0  0  0  0  0  0  0  0
  154.7098  138.3071  158.2962 H   0  0  0  0  0  0  0  0  0  0  0  0
  152.0430  137.7868  159.6228 H   0  0  0  0  0  0  0  0  0  0  0  0
  153.9180  136.0361  158.5011 H   0  0  0  0  0  0  0  0  0  0  0  0
  152.5525  136.6277  156.8588 H   0  0  0  0  0  0  0  0  0  0  0  0
  151.0970  136.5471  157.8048 H   0  0  0  0  0  0  0  0  0  0  0  0
  151.5648  140.8904  154.9783 H   0  0  0  0  0  0  0  0  0  0  0  0
  148.7842  141.3415  157.6281 H   0  0  0  0  0  0  0  0  0  0  0  0
  149.7671  142.2898  156.5200 H   0  0  0  0  0  0  0  0  0  0  0  0
  150.5191  141.4873  157.8909 H   0  0  0  0  0  0  0  0  0  0  0  0
  147.8888  139.9154  155.6570 H   0  0  0  0  0  0  0  0  0  0  0  0
  149.0085  139.0256  154.6304 H   0  0  0  0  0  0  0  0  0  0  0  0
  148.8764  140.7730  154.4810 H   0  0  0  0  0  0  0  0  0  0  0  0
  152.2226  141.0880  158.2407 H   0  0  0  0  0  0  0  0  0  0  0  0
  150.9383  143.0245  157.8968 H   0  0  0  0  0  0  0  0  0  0  0  0
  151.6648  144.4814  158.5709 H   0  0  0  0  0  0  0  0  0  0  0  0
  150.2477  143.7529  159.3429 H   0  0  0  0  0  0  0  0  0  0  0  0
  155.0252  140.1908  162.7658 H   0  0  0  0  0  0  0  0  0  0  0  0
  1  2  1  0  0  0  0
  1 25  1  0  0  0  0
  1 26  1  0  0  0  0
  1 27  1  0  0  0  0
  2 23  1  0  0  0  0
  2  3  2  0  0  0  0
  3  4  1  0  0  0  0
  3 28  1  0  0  0  0
  4 21  2  0  0  0  0
  4  5  1  0  0  0  0
  5  6  2  0  0  0  0
  5 47  1  0  0  0  0
  6  7  1  0  0  0  0
  6 29  1  0  0  0  0
  7  8  1  0  0  0  0
  7 21  1  0  0  0  0
  8  9  1  0  0  0  0
  8 30  1  0  0  0  0
  8 31  1  0  0  0  0
  9 10  1  0  0  0  0
  9 11  1  0  0  0  0
  9 32  1  0  0  0  0
 10 33  1  0  0  0  0
 11 12  1  0  0  0  0
 11 34  1  0  0  0  0
 11 35  1  0  0  0  0
 12 19  1  0  0  0  0
 12 13  1  0  0  0  0
 13 14  2  0  0  0  0
 13 15  1  0  0  0  0
 15 16  1  0  0  0  0
 15 36  1  0  0  0  0
 16 17  1  0  0  0  0
 16 18  1  0  0  0  0
 16 19  1  0  0  0  0
 17 37  1  0  0  0  0
 17 38  1  0  0  0  0
 17 39  1  0  0  0  0
 18 40  1  0  0  0  0
 18 41  1  0  0  0  0
 18 42  1  0  0  0  0
 19 20  2  0  0  0  0
 21 22  1  0  0  0  0
 22 23  2  0  0  0  0
 22 43  1  0  0  0  0
 23 24  1  0  0  0  0
 24 44  1  0  0  0  0
 24 45  1  0  0  0  0
 24 46  1  0  0  0  0
M  CHG  1   5   1
M  END
> <s_m_source_file>
AV-unprocessed.smi

> <i_m_source_file_index>
2026

> <i_lp_mmshare_version>
43012

> <i_f3d_flags>
0

> <s_epik_input>
W0NIM11jKFtjSF0xKWMoW0NIM10pW2NIXWMoYzEyKW4oW2NIXW4yKVtDSDJdW0NASF0oW09IXSlbQ0gyXU4oQzM9TylDKD1PKVtOSF1DMyhbQ0gzXSlbQ0gzXQ==

> <s_epik_cmdline>
J2VwaWtfcHl0aG9uJywgJy1waCcsICc3LjAnLCAnLXRuJywgJzgnLCAnLW1hJywgJzIwMCcsICctbWV0YWxfYmluZGluZycsICctaW1hZScsICc8aW5maWxlLm1hZT4nLCAnLW9tYWUnLCAnPG91dGZpbGUubWFlPic=

> <r_lp_tautomer_probability>
1

> <r_epik_Ionization_Penalty>
1.08255

> <r_epik_Ionization_Penalty_Charging>
1.08249

> <r_epik_Ionization_Penalty_Neutral>
6.65731e-05

> <r_epik_State_Penalty>
1.13805

> <r_epik_Charging_Adjusted_Penalty>
2.22054

> <i_epik_Tot_Q>
1

> <i_epik_Tot_abs_Q>
1

> <r_epik_Metal_State_Penalty>
1.29676

> <b_epik_Metal_Only>
0

> <s_lp_Force_Field>
OPLS_2005

> <r_lp_Energy>
25.6396

> <b_lp_Chiralities_Consistent>
1

> <s_lp_Variant>
AV-unprocessed.smi:2026-3

> <Gold.Version>
5.8.1

> <Gold.Id.Protein>
6NUR|6NUR_protein|mol2

> <Gold.PLP.Fitness>
47.2710

> <Gold.PLP.PLP>
-43.8414

> <Gold.PLP.part.hbond>
-1.9723

> <Gold.PLP.part.metal>
0.0000

> <Gold.PLP.part.buried>
-6.1532

> <Gold.PLP.part.nonpolar>
-37.0159

> <Gold.PLP.part.repulsive>
2.2442

> <Gold.PLP.ligand.clash>
0.0000

> <Gold.PLP.ligand.torsion>
0.9986

> <Gold.PLP.Chemscore.Hbond>
1.8000

> <Gold.PLP.Chemscore.CHOScore>
0.0000

> <Gold.PLP.Chemscore.Metal>
0.0000

> <Gold.Chemscore.Hbonds>
donor molecule, donor type, donor heavy atom, donor atom, acceptor molecule, acceptor atom, score
      P1  H  6896  6908       L1    10  0.94
      P1  H  7997  8010       L1    14  1.00

> <Gold.PLP.Chemscore.Internal.Correction>
0.0269

> <Gold.Rescore>
     Score         DG    S(hbond)    S(metal)    S(lipo)     H(rot)  DE(clash)    DE(int)     intcor
     17.27     -18.10       1.83        0.00     110.15       2.49       0.00       0.83       ----

> <Gold.Chemscore.Fitness>
17.2718

> <Gold.Chemscore.DG>
-18.1019

> <Gold.Chemscore.ZeroCoef>
-5.4800

> <Gold.Chemscore.Hbond>
1.8312

> <Gold.Chemscore.Metal>
0.0000

> <Gold.Chemscore.Lipo>
110.1489

> <Gold.Chemscore.Internal_Hbond>
0.0000

> <Gold.Chemscore.DEClash>
0.0018

> <Gold.Chemscore.DEInternal>
0.8283

> <Gold.Chemscore.Rot>
2.4929

> <Gold.Chemscore.Internal.Correction>
   9.000000E+99

> <Gold.Chemscore.Hbonds>
donor molecule, donor type, donor heavy atom, donor atom, acceptor molecule, acceptor atom, score
      P1  H  6896  6908       L1    10  0.58
      P1  H  7997  8010       L1    14  0.94

> <Gold.Chemscore.Hbond.Weighted>
-6.1163

> <Gold.Chemscore.Metal.Weighted>
-0.0000

> <Gold.Chemscore.Lipo.Weighted>
-12.8874

> <Gold.Chemscore.Internal_Hbond.Weighted>
0.0000

> <Gold.Chemscore.DEClash.Weighted>
0.0018

> <Gold.Chemscore.DEInternal.Weighted>
0.8283

> <Gold.Chemscore.Rot.Weighted>
6.3819

> <Gold.Chemscore.Internal.Correction.Weighted>
   9.000000E+99

> <Gold.Protein.RotatedTorsions>
[ 6907 6896 6895 6894 ] final  -84.81 input  -60.11 | X-H torsion
[ 7974 7965 7964 7962 ] final  -12.92 input  175.53 | X-H torsion
[ 8008 7997 7996 7995 ] final   94.12 input   59.86 | X-H torsion
[ 10167 10162 10161 10158 ] final  -19.56 input  -65.29 | X-H torsion
[ 10718 10713 10712 10709 ] final    8.78 input   66.30 | X-H torsion
[ 10763 10752 10751 10750 ] final -129.23 input  -60.55 | X-H torsion
[ 11005 11000 10999 10996 ] final  -12.45 input  -57.11 | X-H torsion

> <Gold.Protein.ActiveResidues>
 VAL166  LYS551  ARG553  GLY616  TRP617  ASP618  TYR619  PRO620  LYS621  CYS622 
 ASP623  PHE694  ASN695  SER759  ASP760  ASP761  ALA762  ILE779  LEU786  VAL792 
 PHE793  MET794  SER795  GLU796  ALA797  LYS798  CYS799  TRP800  GLU811  SER814 

> <Gold.Protein.RotatedAtoms>
  150.6874  134.3302  159.4823 H   0  0  0  0  0  0  0  0  0  0  0  0  # atno 6907 bound_to 6896
  152.1167  134.9232  160.0574 H   0  0  0  0  0  0  0  0  0  0  0  0  # atno 6908 bound_to 6896
  152.0454  133.3961  159.4391 H   0  0  0  0  0  0  0  0  0  0  0  0  # atno 6909 bound_to 6896
  146.2134  140.3127  142.8384 H   0  0  0  0  0  0  0  0  0  0  0  0  # atno 7974 bound_to 7965
  156.0544  140.3304  155.7388 H   0  0  0  0  0  0  0  0  0  0  0  0  # atno 8008 bound_to 7997
  155.5551  140.0614  157.2859 H   0  0  0  0  0  0  0  0  0  0  0  0  # atno 8009 bound_to 7997
  154.4451  140.1887  156.0714 H   0  0  0  0  0  0  0  0  0  0  0  0  # atno 8010 bound_to 7997
  140.7269  143.4807  151.0122 H   0  0  0  0  0  0  0  0  0  0  0  0  # atno 10167 bound_to 10162
  156.9567  130.5917  149.5659 H   0  0  0  0  0  0  0  0  0  0  0  0  # atno 10718 bound_to 10713
  154.8757  135.3902  154.3887 H   0  0  0  0  0  0  0  0  0  0  0  0  # atno 10763 bound_to 10752
  153.4625  135.7029  153.6047 H   0  0  0  0  0  0  0  0  0  0  0  0  # atno 10764 bound_to 10752
  153.4539  135.3827  155.2268 H   0  0  0  0  0  0  0  0  0  0  0  0  # atno 10765 bound_to 10752
  140.7658  133.8478  155.9164 H   0  0  0  0  0  0  0  0  0  0  0  0  # atno 11005 bound_to 11000
  144.8976  140.7603  143.5887 LP  0  0  0  0  0  0  0  0  0  0  0  0  # atno 17320 bound_to 7965
  145.3052  139.1837  143.4668 LP  0  0  0  0  0  0  0  0  0  0  0  0  # atno 17321 bound_to 7965
  139.8505  143.7445  152.3178 LP  0  0  0  0  0  0  0  0  0  0  0  0  # atno 17342 bound_to 10162
  139.7625  144.7502  151.0343 LP  0  0  0  0  0  0  0  0  0  0  0  0  # atno 17343 bound_to 10162
  156.0339  130.5428  150.8605 LP  0  0  0  0  0  0  0  0  0  0  0  0  # atno 17370 bound_to 10713
  157.5685  131.0946  150.9453 LP  0  0  0  0  0  0  0  0  0  0  0  0  # atno 17371 bound_to 10713
  140.9620  134.1643  157.4646 LP  0  0  0  0  0  0  0  0  0  0  0  0  # atno 17394 bound_to 11000
  139.8763  134.9948  156.5712 LP  0  0  0  0  0  0  0  0  0  0  0  0  # atno 17395 bound_to 11000

$$$$
