AV-unprocessed.smi:3326|AV-procd|sdf|12786|dock2
  -GOLD-   2272019133D 1   1.00000     0.00000
 Structure written by MMmdl.
 30 31  0  0  0  0  0  0  0  0  1 V2000
  151.8600  145.2496  160.1056 F   0  0  0  0  0  0  0  0  0  0  0  0
  151.7631  144.3793  159.0999 C   0  0  0  0  0  0  0  0  0  0  0  0
  150.4717  144.2361  158.8008 F   0  0  0  0  0  0  0  0  0  0  0  0
  152.3969  144.8939  158.0459 F   0  0  0  0  0  0  0  0  0  0  0  0
  152.3687  143.0253  159.4632 C   0  0  0  0  0  0  0  0  0  0  0  0
  153.0554  142.8536  160.6868 C   0  0  0  0  0  0  0  0  0  0  0  0
  153.6066  141.5975  160.9988 C   0  0  0  0  0  0  0  0  0  0  0  0
  153.4515  140.5526  160.0708 C   0  0  0  0  0  0  0  0  0  0  0  0
  152.7987  140.6984  158.8997 N   0  0  0  0  0  0  0  0  0  0  0  0
  152.2648  141.9064  158.5956 C   0  0  0  0  0  0  0  0  0  0  0  0
  151.5881  142.0328  157.3726 N   0  0  0  0  0  0  0  0  0  0  0  0
  151.6671  140.9969  156.3524 C   0  0  0  0  0  0  0  0  0  0  0  0
  150.2828  140.6658  155.7788 C   0  0  1  0  0  0  0  0  0  0  0  0
  149.4735  141.8817  155.3362 C   0  0  0  0  0  0  0  0  0  0  0  0
  148.4676  141.2676  154.3826 C   0  0  0  0  0  0  0  0  0  0  0  0
  149.1937  140.0331  153.8383 C   0  0  0  0  0  0  0  0  0  0  0  0
  150.4111  139.9312  154.5716 O   0  0  0  0  0  0  0  0  0  0  0  0
  153.1651  143.6685  161.3865 H   0  0  0  0  0  0  0  0  0  0  0  0
  154.1357  141.4391  161.9268 H   0  0  0  0  0  0  0  0  0  0  0  0
  153.8615  139.5741  160.2736 H   0  0  0  0  0  0  0  0  0  0  0  0
  151.0142  142.8448  157.1964 H   0  0  0  0  0  0  0  0  0  0  0  0
  152.3387  141.3159  155.5545 H   0  0  0  0  0  0  0  0  0  0  0  0
  152.0989  140.0997  156.7976 H   0  0  0  0  0  0  0  0  0  0  0  0
  149.7075  140.0662  156.4870 H   0  0  0  0  0  0  0  0  0  0  0  0
  149.0053  142.4095  156.1675 H   0  0  0  0  0  0  0  0  0  0  0  0
  150.1106  142.5865  154.7999 H   0  0  0  0  0  0  0  0  0  0  0  0
  147.5720  140.9635  154.9258 H   0  0  0  0  0  0  0  0  0  0  0  0
  148.1658  141.9601  153.5964 H   0  0  0  0  0  0  0  0  0  0  0  0
  148.5937  139.1340  153.9837 H   0  0  0  0  0  0  0  0  0  0  0  0
  149.4129  140.1253  152.7741 H   0  0  0  0  0  0  0  0  0  0  0  0
  1  2  1  0  0  0  0
  2  3  1  0  0  0  0
  2  4  1  0  0  0  0
  2  5  1  0  0  0  0
  5 10  1  0  0  0  0
  5  6  2  0  0  0  0
  6  7  1  0  0  0  0
  6 18  1  0  0  0  0
  7  8  2  0  0  0  0
  7 19  1  0  0  0  0
  8  9  1  0  0  0  0
  8 20  1  0  0  0  0
  9 10  2  0  0  0  0
 10 11  1  0  0  0  0
 11 12  1  0  0  0  0
 11 21  1  0  0  0  0
 12 13  1  0  0  0  0
 12 22  1  0  0  0  0
 12 23  1  0  0  0  0
 13 17  1  0  0  0  0
 13 14  1  0  0  0  0
 13 24  1  0  0  0  0
 14 15  1  0  0  0  0
 14 25  1  0  0  0  0
 14 26  1  0  0  0  0
 15 16  1  0  0  0  0
 15 27  1  0  0  0  0
 15 28  1  0  0  0  0
 16 17  1  0  0  0  0
 16 29  1  0  0  0  0
 16 30  1  0  0  0  0
M  END
> <s_m_source_file>
AV-unprocessed.smi

> <i_m_source_file_index>
3326

> <i_lp_mmshare_version>
43012

> <i_f3d_flags>
0

> <s_epik_input>
RkMoRikoRiljMVtjSF1bY0hdW2NIXW5jMVtOSF1bQ0gyXVtDQEBIXTJbQ0gyXVtDSDJdW0NIMl1PMg==

> <s_epik_cmdline>
J2VwaWtfcHl0aG9uJywgJy1waCcsICc3LjAnLCAnLXRuJywgJzgnLCAnLW1hJywgJzIwMCcsICctbWV0YWxfYmluZGluZycsICctaW1hZScsICc8aW5maWxlLm1hZT4nLCAnLW9tYWUnLCAnPG91dGZpbGUubWFlPic=

> <r_lp_tautomer_probability>
1

> <r_epik_Ionization_Penalty>
0.000820218

> <r_epik_Ionization_Penalty_Charging>
0

> <r_epik_Ionization_Penalty_Neutral>
0.000820218

> <r_epik_State_Penalty>
0.000527207

> <r_epik_Charging_Adjusted_Penalty>
0.000527207

> <i_epik_Tot_Q>
0

> <i_epik_Tot_abs_Q>
0

> <r_epik_Metal_State_Penalty>
-0

> <b_epik_Metal_Only>
0

> <s_lp_Force_Field>
OPLS_2005

> <r_lp_Energy>
21.9295

> <b_lp_Chiralities_Consistent>
1

> <s_lp_Variant>
AV-unprocessed.smi:3326-2

> <Gold.Version>
5.8.1

> <Gold.Id.Protein>
6NUR|6NUR_protein|mol2

> <Gold.PLP.Fitness>
44.8562

> <Gold.PLP.PLP>
-42.3307

> <Gold.PLP.part.hbond>
-1.0000

> <Gold.PLP.part.metal>
0.0000

> <Gold.PLP.part.buried>
-0.6281

> <Gold.PLP.part.nonpolar>
-40.3760

> <Gold.PLP.part.repulsive>
0.1585

> <Gold.PLP.ligand.clash>
0.3620

> <Gold.PLP.ligand.torsion>
0.3046

> <Gold.PLP.Chemscore.Hbond>
1.0000

> <Gold.PLP.Chemscore.CHOScore>
0.0000

> <Gold.PLP.Chemscore.Metal>
0.0000

> <Gold.Chemscore.Hbonds>
donor molecule, donor type, donor heavy atom, donor atom, acceptor molecule, acceptor atom, score
      P1  H  7989  7998       L1    17  1.00

> <Gold.PLP.Chemscore.Internal.Correction>
0.4966

> <Gold.Rescore>
     Score         DG    S(hbond)    S(metal)    S(lipo)     H(rot)  DE(clash)    DE(int)     intcor
     12.04     -14.25       0.60        0.00      85.23       1.25       0.24       1.97       ----

> <Gold.Chemscore.Fitness>
12.0418

> <Gold.Chemscore.DG>
-14.2507

> <Gold.Chemscore.ZeroCoef>
-5.4800

> <Gold.Chemscore.Hbond>
0.5997

> <Gold.Chemscore.Metal>
0.0000

> <Gold.Chemscore.Lipo>
85.2261

> <Gold.Chemscore.Internal_Hbond>
0.0000

> <Gold.Chemscore.DEClash>
0.2409

> <Gold.Chemscore.DEInternal>
1.9681

> <Gold.Chemscore.Rot>
1.2514

> <Gold.Chemscore.Internal.Correction>
   9.000000E+99

> <Gold.Chemscore.Hbonds>
donor molecule, donor type, donor heavy atom, donor atom, acceptor molecule, acceptor atom, score
      P1  H  7989  7998       L1    17  0.24

> <Gold.Chemscore.Hbond.Weighted>
-2.0028

> <Gold.Chemscore.Metal.Weighted>
-0.0000

> <Gold.Chemscore.Lipo.Weighted>
-9.9715

> <Gold.Chemscore.Internal_Hbond.Weighted>
0.0000

> <Gold.Chemscore.DEClash.Weighted>
0.2409

> <Gold.Chemscore.DEInternal.Weighted>
1.9681

> <Gold.Chemscore.Rot.Weighted>
3.2036

> <Gold.Chemscore.Internal.Correction.Weighted>
   9.000000E+99

> <Gold.Protein.RotatedTorsions>
[ 6907 6896 6895 6894 ] final    8.84 input  -60.11 | X-H torsion
[ 7974 7965 7964 7962 ] final  156.96 input  175.53 | X-H torsion
[ 8008 7997 7996 7995 ] final  -28.87 input   59.86 | X-H torsion
[ 10167 10162 10161 10158 ] final -108.85 input  -65.29 | X-H torsion
[ 10718 10713 10712 10709 ] final  125.14 input   66.30 | X-H torsion
[ 10763 10752 10751 10750 ] final -164.21 input  -60.55 | X-H torsion
[ 11005 11000 10999 10996 ] final  -94.58 input  -57.11 | X-H torsion

> <Gold.Protein.ActiveResidues>
 VAL166  LYS551  ARG553  GLY616  TRP617  ASP618  TYR619  PRO620  LYS621  CYS622 
 ASP623  PHE694  ASN695  SER759  ASP760  ASP761  ALA762  ILE779  LEU786  VAL792 
 PHE793  MET794  SER795  GLU796  ALA797  LYS798  CYS799  TRP800  GLU811  SER814 

> <Gold.Protein.RotatedAtoms>
  151.7125  135.0910  160.0269 H   0  0  0  0  0  0  0  0  0  0  0  0  # atno 6907 bound_to 6896
  152.3653  133.6344  159.6054 H   0  0  0  0  0  0  0  0  0  0  0  0  # atno 6908 bound_to 6896
  150.7633  133.9275  159.3458 H   0  0  0  0  0  0  0  0  0  0  0  0  # atno 6909 bound_to 6896
  144.7931  139.7275  143.6213 H   0  0  0  0  0  0  0  0  0  0  0  0  # atno 7974 bound_to 7965
  154.4314  140.1833  156.1158 H   0  0  0  0  0  0  0  0  0  0  0  0  # atno 8008 bound_to 7997
  156.0182  140.3343  155.6986 H   0  0  0  0  0  0  0  0  0  0  0  0  # atno 8009 bound_to 7997
  155.6014  140.0641  157.2723 H   0  0  0  0  0  0  0  0  0  0  0  0  # atno 8010 bound_to 7997
  140.1616  143.4115  152.1421 H   0  0  0  0  0  0  0  0  0  0  0  0  # atno 10167 bound_to 10162
  157.5527  131.1093  150.8674 H   0  0  0  0  0  0  0  0  0  0  0  0  # atno 10718 bound_to 10713
  154.7050  135.2995  154.9285 H   0  0  0  0  0  0  0  0  0  0  0  0  # atno 10763 bound_to 10752
  154.0205  135.6683  153.4776 H   0  0  0  0  0  0  0  0  0  0  0  0  # atno 10764 bound_to 10752
  153.0710  135.5061  154.8215 H   0  0  0  0  0  0  0  0  0  0  0  0  # atno 10765 bound_to 10752
  141.1466  133.7966  157.0318 H   0  0  0  0  0  0  0  0  0  0  0  0  # atno 11005 bound_to 11000
  146.2191  139.5602  142.9630 LP  0  0  0  0  0  0  0  0  0  0  0  0  # atno 17320 bound_to 7965
  145.5742  141.0390  143.2158 LP  0  0  0  0  0  0  0  0  0  0  0  0  # atno 17321 bound_to 7965
  139.5378  144.7227  151.4834 LP  0  0  0  0  0  0  0  0  0  0  0  0  # atno 17342 bound_to 10162
  140.6639  143.8440  150.6919 LP  0  0  0  0  0  0  0  0  0  0  0  0  # atno 17343 bound_to 10162
  156.9194  130.5309  149.5279 LP  0  0  0  0  0  0  0  0  0  0  0  0  # atno 17370 bound_to 10713
  156.0591  130.5647  150.9155 LP  0  0  0  0  0  0  0  0  0  0  0  0  # atno 17371 bound_to 10713
  140.0749  134.9681  157.1529 LP  0  0  0  0  0  0  0  0  0  0  0  0  # atno 17394 bound_to 11000
  140.3658  134.2444  155.7182 LP  0  0  0  0  0  0  0  0  0  0  0  0  # atno 17395 bound_to 11000

$$$$
