AV-unprocessed.smi:1172|AV-procd|sdf|4944|dock1
  -GOLD-   22720 3533D 1   1.00000     0.00000
 Structure written by MMmdl.
 36 37  0  0  0  0  0  0  0  0  1 V2000
  149.4146  142.1170  154.9843 N   0  0  0  0  0  0  0  0  0  0  0  0
  148.8863  141.0488  154.3805 C   0  0  0  0  0  0  0  0  0  0  0  0
  149.5411  140.0347  154.1491 O   0  0  0  0  0  0  0  0  0  0  0  0
  147.4096  141.1255  153.9871 C   0  0  0  0  0  0  0  0  0  0  0  0
  146.8636  139.8070  153.7181 N   0  0  0  0  0  0  0  0  0  0  0  0
  147.1526  138.9628  152.6639 C   0  0  0  0  0  0  0  0  0  0  0  0
  146.3881  137.8480  152.8616 C   0  0  0  0  0  0  0  0  0  0  0  0
  146.2904  136.6713  152.0766 N   0  0  0  0  0  0  0  0  0  0  0  0
  145.1751  136.0013  151.7289 C   0  0  0  0  0  0  0  0  0  0  0  0
  144.0405  136.4059  151.9863 O   0  0  0  0  0  0  0  0  0  0  0  0
  145.4049  134.8725  151.0105 N   0  0  0  0  0  0  0  0  0  0  0  0
  146.5683  133.9783  151.1525 C   0  0  0  0  0  0  0  0  0  0  0  0
  146.1389  132.7269  151.9409 C   0  0  0  0  0  0  0  0  0  0  0  0
  144.9551  132.0227  151.2513 C   0  0  0  0  0  0  0  0  0  0  0  0
  143.8153  133.0117  150.9336 C   0  0  2  0  0  0  0  0  0  0  0  0
  142.8401  132.3688  150.1410 O   0  0  0  0  0  0  0  0  0  0  0  0
  144.3556  134.2501  150.1918 C   0  0  0  0  0  0  0  0  0  0  0  0
  145.6572  138.0865  154.0542 C   0  0  0  0  0  0  0  0  0  0  0  0
  145.9499  139.2717  154.5667 N   0  0  0  0  0  0  0  0  0  0  0  0
  150.3870  142.1072  155.2564 H   0  0  0  0  0  0  0  0  0  0  0  0
  148.8444  142.9306  155.1638 H   0  0  0  0  0  0  0  0  0  0  0  0
  146.8344  141.5987  154.7847 H   0  0  0  0  0  0  0  0  0  0  0  0
  147.2912  141.7452  153.0974 H   0  0  0  0  0  0  0  0  0  0  0  0
  147.8586  139.2318  151.8923 H   0  0  0  0  0  0  0  0  0  0  0  0
  147.1662  136.2768  151.7660 H   0  0  0  0  0  0  0  0  0  0  0  0
  146.9201  133.6894  150.1611 H   0  0  0  0  0  0  0  0  0  0  0  0
  147.4274  134.4409  151.6380 H   0  0  0  0  0  0  0  0  0  0  0  0
  146.9772  132.0369  152.0382 H   0  0  0  0  0  0  0  0  0  0  0  0
  145.8545  133.0141  152.9543 H   0  0  0  0  0  0  0  0  0  0  0  0
  145.3108  131.5685  150.3253 H   0  0  0  0  0  0  0  0  0  0  0  0
  144.5880  131.2065  151.8744 H   0  0  0  0  0  0  0  0  0  0  0  0
  143.3394  133.3268  151.8633 H   0  0  0  0  0  0  0  0  0  0  0  0
  142.1836  133.0036  149.8978 H   0  0  0  0  0  0  0  0  0  0  0  0
  143.5417  134.9393  149.9605 H   0  0  0  0  0  0  0  0  0  0  0  0
  144.7779  133.9614  149.2280 H   0  0  0  0  0  0  0  0  0  0  0  0
  144.9394  137.4536  154.5546 H   0  0  0  0  0  0  0  0  0  0  0  0
  1  2  1  0  0  0  0
  1 20  1  0  0  0  0
  1 21  1  0  0  0  0
  2  3  2  0  0  0  0
  2  4  1  0  0  0  0
  4  5  1  0  0  0  0
  4 22  1  0  0  0  0
  4 23  1  0  0  0  0
  5 19  1  0  0  0  0
  5  6  1  0  0  0  0
  6  7  2  0  0  0  0
  6 24  1  0  0  0  0
  7  8  1  0  0  0  0
  7 18  1  0  0  0  0
  8  9  1  0  0  0  0
  8 25  1  0  0  0  0
  9 10  2  0  0  0  0
  9 11  1  0  0  0  0
 11 17  1  0  0  0  0
 11 12  1  0  0  0  0
 12 13  1  0  0  0  0
 12 26  1  0  0  0  0
 12 27  1  0  0  0  0
 13 14  1  0  0  0  0
 13 28  1  0  0  0  0
 13 29  1  0  0  0  0
 14 15  1  0  0  0  0
 14 30  1  0  0  0  0
 14 31  1  0  0  0  0
 15 16  1  0  0  0  0
 15 17  1  0  0  0  0
 15 32  1  0  0  0  0
 16 33  1  0  0  0  0
 17 34  1  0  0  0  0
 17 35  1  0  0  0  0
 18 19  2  0  0  0  0
 18 36  1  0  0  0  0
M  END
> <s_m_source_file>
AV-unprocessed.smi

> <i_m_source_file_index>
1172

> <i_lp_mmshare_version>
43012

> <i_f3d_flags>
0

> <s_epik_input>
W05IMl1DKD1PKVtDSDJdbjFbY0hdYyhbY0hdbjEpW05IXUMoPU8pTjJbQ0gyXVtDSDJdW0NIMl1bQ0BASF0oW09IXSlbQ0gyXTI=

> <s_epik_cmdline>
J2VwaWtfcHl0aG9uJywgJy1waCcsICc3LjAnLCAnLXRuJywgJzgnLCAnLW1hJywgJzIwMCcsICctbWV0YWxfYmluZGluZycsICctaW1hZScsICc8aW5maWxlLm1hZT4nLCAnLW9tYWUnLCAnPG91dGZpbGUubWFlPic=

> <r_lp_tautomer_probability>
1

> <r_epik_Ionization_Penalty>
4.44977e-05

> <r_epik_Ionization_Penalty_Charging>
0

> <r_epik_Ionization_Penalty_Neutral>
4.44977e-05

> <r_epik_State_Penalty>
-0

> <r_epik_Charging_Adjusted_Penalty>
0

> <i_epik_Tot_Q>
0

> <i_epik_Tot_abs_Q>
0

> <r_epik_Metal_State_Penalty>
-0

> <b_epik_Metal_Only>
0

> <s_lp_Force_Field>
OPLS_2005

> <r_lp_Energy>
32.958

> <b_lp_Chiralities_Consistent>
1

> <s_lp_Variant>
AV-unprocessed.smi:1172-2

> <Gold.Version>
5.8.1

> <Gold.Id.Protein>
6NUR|6NUR_protein|mol2

> <Gold.PLP.Fitness>
44.4257

> <Gold.PLP.PLP>
-34.0502

> <Gold.PLP.part.hbond>
-4.4787

> <Gold.PLP.part.metal>
0.0000

> <Gold.PLP.part.buried>
-5.3885

> <Gold.PLP.part.nonpolar>
-25.9925

> <Gold.PLP.part.repulsive>
2.1980

> <Gold.PLP.ligand.clash>
0.0000

> <Gold.PLP.ligand.torsion>
0.9351

> <Gold.PLP.Chemscore.Hbond>
3.0656

> <Gold.PLP.Chemscore.CHOScore>
1.0000

> <Gold.PLP.Chemscore.Metal>
0.0000

> <Gold.Chemscore.Hbonds>
donor molecule, donor type, donor heavy atom, donor atom, acceptor molecule, acceptor atom, score
      L1  H     1    21       P1  8028  0.90
      L1  H     8    25       P1  7948  1.00
      L1  H    16    33       P1 10186  1.00
      P1  H  7989  7998       L1     3  0.22
      L1  C     6    24       P1  7957  1.00

> <Gold.PLP.Chemscore.Internal.Correction>
0.0487

> <Gold.Rescore>
     Score         DG    S(hbond)    S(metal)    S(lipo)     H(rot)  DE(clash)    DE(int)     intcor
     14.99     -16.22       2.87        0.00      57.78       2.20       0.32       0.91       ----

> <Gold.Chemscore.Fitness>
14.9924

> <Gold.Chemscore.DG>
-16.2196

> <Gold.Chemscore.ZeroCoef>
-5.4800

> <Gold.Chemscore.Hbond>
2.8750

> <Gold.Chemscore.Metal>
0.0000

> <Gold.Chemscore.Lipo>
57.7807

> <Gold.Chemscore.Internal_Hbond>
0.0000

> <Gold.Chemscore.DEClash>
0.3156

> <Gold.Chemscore.DEInternal>
0.9116

> <Gold.Chemscore.Rot>
2.1966

> <Gold.Chemscore.Internal.Correction>
   9.000000E+99

> <Gold.Chemscore.Hbonds>
donor molecule, donor type, donor heavy atom, donor atom, acceptor molecule, acceptor atom, score
      L1  H     1    21       P1  8028  0.88
      L1  H     8    25       P1  7948  0.95
      L1  H    16    33       P1 10186  1.00
      P1  H  7989  7998       L1     3  0.08

> <Gold.Chemscore.Hbond.Weighted>
-9.6024

> <Gold.Chemscore.Metal.Weighted>
-0.0000

> <Gold.Chemscore.Lipo.Weighted>
-6.7603

> <Gold.Chemscore.Internal_Hbond.Weighted>
0.0000

> <Gold.Chemscore.DEClash.Weighted>
0.3156

> <Gold.Chemscore.DEInternal.Weighted>
0.9116

> <Gold.Chemscore.Rot.Weighted>
5.6232

> <Gold.Chemscore.Internal.Correction.Weighted>
   9.000000E+99

> <Gold.Protein.RotatedTorsions>
[ 6907 6896 6895 6894 ] final -107.20 input  -60.11 | X-H torsion
[ 7974 7965 7964 7962 ] final  113.90 input  175.53 | X-H torsion
[ 8008 7997 7996 7995 ] final -100.00 input   59.86 | X-H torsion
[ 10167 10162 10161 10158 ] final   17.21 input  -65.29 | X-H torsion
[ 10718 10713 10712 10709 ] final  162.80 input   66.30 | X-H torsion
[ 10763 10752 10751 10750 ] final  -22.53 input  -60.55 | X-H torsion
[ 11005 11000 10999 10996 ] final -127.76 input  -57.11 | X-H torsion

> <Gold.Protein.ActiveResidues>
 VAL166  LYS551  ARG553  GLY616  TRP617  ASP618  TYR619  PRO620  LYS621  CYS622 
 ASP623  PHE694  ASN695  SER759  ASP760  ASP761  ALA762  ILE779  LEU786  VAL792 
 PHE793  MET794  SER795  GLU796  ALA797  LYS798  CYS799  TRP800  GLU811  SER814 

> <Gold.Protein.RotatedAtoms>
  150.7431  133.9863  159.3592 H   0  0  0  0  0  0  0  0  0  0  0  0  # atno 6907 bound_to 6896
  151.7807  135.0760  160.0383 H   0  0  0  0  0  0  0  0  0  0  0  0  # atno 6908 bound_to 6896
  152.3276  133.5885  159.5823 H   0  0  0  0  0  0  0  0  0  0  0  0  # atno 6909 bound_to 6896
  145.2112  139.2905  143.4267 H   0  0  0  0  0  0  0  0  0  0  0  0  # atno 7974 bound_to 7965
  154.8226  140.0444  157.1421 H   0  0  0  0  0  0  0  0  0  0  0  0  # atno 8008 bound_to 7997
  154.9243  140.3031  155.5180 H   0  0  0  0  0  0  0  0  0  0  0  0  # atno 8009 bound_to 7997
  156.2981  140.2335  156.4296 H   0  0  0  0  0  0  0  0  0  0  0  0  # atno 8010 bound_to 7997
  140.5742  143.9103  150.6737 H   0  0  0  0  0  0  0  0  0  0  0  0  # atno 10167 bound_to 10162
  157.1175  131.0484  151.2430 H   0  0  0  0  0  0  0  0  0  0  0  0  # atno 10718 bound_to 10713
  153.6534  135.6980  153.5201 H   0  0  0  0  0  0  0  0  0  0  0  0  # atno 10763 bound_to 10752
  153.2689  135.4221  155.0967 H   0  0  0  0  0  0  0  0  0  0  0  0  # atno 10764 bound_to 10752
  154.8470  135.3573  154.6078 H   0  0  0  0  0  0  0  0  0  0  0  0  # atno 10765 bound_to 10752
  140.9573  134.0984  157.4003 H   0  0  0  0  0  0  0  0  0  0  0  0  # atno 11005 bound_to 11000
  146.3397  140.2388  142.8595 LP  0  0  0  0  0  0  0  0  0  0  0  0  # atno 17320 bound_to 7965
  144.9854  140.8498  143.5371 LP  0  0  0  0  0  0  0  0  0  0  0  0  # atno 17321 bound_to 7965
  140.2586  143.3540  152.1342 LP  0  0  0  0  0  0  0  0  0  0  0  0  # atno 17342 bound_to 10162
  139.5134  144.6931  151.5704 LP  0  0  0  0  0  0  0  0  0  0  0  0  # atno 17343 bound_to 10162
  157.4505  130.7596  149.7147 LP  0  0  0  0  0  0  0  0  0  0  0  0  # atno 17370 bound_to 10713
  155.9836  130.3999  150.3355 LP  0  0  0  0  0  0  0  0  0  0  0  0  # atno 17371 bound_to 10713
  139.8866  135.0083  156.6511 LP  0  0  0  0  0  0  0  0  0  0  0  0  # atno 17394 bound_to 11000
  140.7518  133.8891  155.8352 LP  0  0  0  0  0  0  0  0  0  0  0  0  # atno 17395 bound_to 11000

$$$$
