AV-unprocessed.smi:136|AV-procd|sdf|1174|dock10
  -GOLD-   2262018323D 1   1.00000     0.00000
 Structure written by MMmdl.
 54 58  0  0  0  0  0  0  0  0  1 V2000
  157.6546  138.7453  164.1205 O   0  0  0  0  0  0  0  0  0  0  0  0
  156.9817  139.7714  164.0053 C   0  0  0  0  0  0  0  0  0  0  0  0
  157.2748  140.9882  164.9084 C   0  0  0  0  0  0  0  0  0  0  0  0
  156.3556  141.1053  166.0615 N   0  0  0  0  0  0  0  0  0  0  0  0
  155.5078  142.2376  166.1463 C   0  0  0  0  0  0  0  0  0  0  0  0
  155.5203  143.1117  165.2784 O   0  0  0  0  0  0  0  0  0  0  0  0
  154.6451  142.2917  167.3212 C   0  0  0  0  0  0  0  0  0  0  0  0
  153.8113  143.3323  167.4875 F   0  0  0  0  0  0  0  0  0  0  0  0
  154.6728  141.3129  168.2490 C   0  0  0  0  0  0  0  0  0  0  0  0
  155.5046  140.2125  168.1519 N   0  0  0  0  0  0  0  0  0  0  0  0
  155.5219  139.1429  169.2209 C   0  0  1  0  0  0  0  0  0  0  0  0
  156.8963  139.0934  169.8978 C   0  0  0  0  0  0  0  0  0  0  0  0
  156.6820  139.9842  171.1023 C   0  0  0  0  0  0  0  0  0  0  0  0
  155.2298  139.6803  171.4524 C   0  0  0  0  0  0  0  0  0  0  0  0
  154.5787  139.4633  170.2033 O   0  0  0  0  0  0  0  0  0  0  0  0
  156.3825  140.0952  167.0527 C   0  0  0  0  0  0  0  0  0  0  0  0
  157.1604  139.1422  166.9661 O   0  0  0  0  0  0  0  0  0  0  0  0
  155.9871  139.8759  163.0955 N   0  0  0  0  0  0  0  0  0  0  0  0
  155.3332  141.0383  162.8467 N   0  0  0  0  0  0  0  0  0  0  0  0
  154.5654  140.8963  161.8307 C   0  0  0  0  0  0  0  0  0  0  0  0
  153.7087  141.9664  161.2733 C   0  0  0  0  0  0  0  0  0  0  0  0
  152.8786  142.7133  162.1401 C   0  0  0  0  0  0  0  0  0  0  0  0
  152.0629  143.7323  161.6110 C   0  0  0  0  0  0  0  0  0  0  0  0
  152.0761  144.0036  160.2280 C   0  0  0  0  0  0  0  0  0  0  0  0
  151.0735  145.2523  159.5862 Cl  0  0  0  0  0  0  0  0  0  0  0  0
  152.9066  143.2568  159.3684 C   0  0  0  0  0  0  0  0  0  0  0  0
  153.7265  142.2348  159.8858 C   0  0  0  0  0  0  0  0  0  0  0  0
  154.6041  139.5302  161.2336 C   0  0  0  0  0  0  0  0  0  0  0  0
  155.5834  138.8122  162.1660 C   0  0  2  0  0  0  0  0  0  0  0  0
  154.9747  137.6116  162.8337 C   0  0  0  0  0  0  0  0  0  0  0  0
  154.4612  136.4227  162.3881 C   0  0  0  0  0  0  0  0  0  0  0  0
  154.0484  135.7023  163.5425 C   0  0  0  0  0  0  0  0  0  0  0  0
  154.3441  136.5015  164.6094 C   0  0  0  0  0  0  0  0  0  0  0  0
  154.9107  137.6667  164.1945 O   0  0  0  0  0  0  0  0  0  0  0  0
  158.3134  140.9323  165.2381 H   0  0  0  0  0  0  0  0  0  0  0  0
  157.2357  141.8968  164.3051 H   0  0  0  0  0  0  0  0  0  0  0  0
  154.0168  141.4093  169.1013 H   0  0  0  0  0  0  0  0  0  0  0  0
  155.2354  138.2121  168.7288 H   0  0  0  0  0  0  0  0  0  0  0  0
  157.0927  138.0674  170.2113 H   0  0  0  0  0  0  0  0  0  0  0  0
  157.6997  139.4213  169.2368 H   0  0  0  0  0  0  0  0  0  0  0  0
  157.3711  139.7732  171.9203 H   0  0  0  0  0  0  0  0  0  0  0  0
  156.7940  141.0323  170.8222 H   0  0  0  0  0  0  0  0  0  0  0  0
  155.1661  138.7655  172.0431 H   0  0  0  0  0  0  0  0  0  0  0  0
  154.7556  140.4831  172.0170 H   0  0  0  0  0  0  0  0  0  0  0  0
  152.8544  142.5207  163.2031 H   0  0  0  0  0  0  0  0  0  0  0  0
  151.4264  144.3059  162.2687 H   0  0  0  0  0  0  0  0  0  0  0  0
  152.9158  143.4675  158.3090 H   0  0  0  0  0  0  0  0  0  0  0  0
  154.3537  141.6771  159.2062 H   0  0  0  0  0  0  0  0  0  0  0  0
  153.6145  139.0710  161.2400 H   0  0  0  0  0  0  0  0  0  0  0  0
  154.9726  139.5565  160.2074 H   0  0  0  0  0  0  0  0  0  0  0  0
  156.4600  138.4994  161.5959 H   0  0  0  0  0  0  0  0  0  0  0  0
  154.3896  136.1105  161.3565 H   0  0  0  0  0  0  0  0  0  0  0  0
  153.5942  134.7235  163.5869 H   0  0  0  0  0  0  0  0  0  0  0  0
  154.2248  136.4008  165.6781 H   0  0  0  0  0  0  0  0  0  0  0  0
  1  2  2  0  0  0  0
  2  3  1  0  0  0  0
  2 18  1  0  0  0  0
  3  4  1  0  0  0  0
  3 35  1  0  0  0  0
  3 36  1  0  0  0  0
  4 16  1  0  0  0  0
  4  5  1  0  0  0  0
  5  6  2  0  0  0  0
  5  7  1  0  0  0  0
  7  8  1  0  0  0  0
  7  9  2  0  0  0  0
  9 10  1  0  0  0  0
  9 37  1  0  0  0  0
 10 11  1  0  0  0  0
 10 16  1  0  0  0  0
 11 15  1  0  0  0  0
 11 12  1  0  0  0  0
 11 38  1  0  0  0  0
 12 13  1  0  0  0  0
 12 39  1  0  0  0  0
 12 40  1  0  0  0  0
 13 14  1  0  0  0  0
 13 41  1  0  0  0  0
 13 42  1  0  0  0  0
 14 15  1  0  0  0  0
 14 43  1  0  0  0  0
 14 44  1  0  0  0  0
 16 17  2  0  0  0  0
 18 29  1  0  0  0  0
 18 19  1  0  0  0  0
 19 20  2  0  0  0  0
 20 21  1  0  0  0  0
 20 28  1  0  0  0  0
 21 27  1  0  0  0  0
 21 22  2  0  0  0  0
 22 23  1  0  0  0  0
 22 45  1  0  0  0  0
 23 24  2  0  0  0  0
 23 46  1  0  0  0  0
 24 25  1  0  0  0  0
 24 26  1  0  0  0  0
 26 27  2  0  0  0  0
 26 47  1  0  0  0  0
 27 48  1  0  0  0  0
 28 29  1  0  0  0  0
 28 49  1  0  0  0  0
 28 50  1  0  0  0  0
 29 30  1  0  0  0  0
 29 51  1  0  0  0  0
 30 34  1  0  0  0  0
 30 31  2  0  0  0  0
 31 32  1  0  0  0  0
 31 52  1  0  0  0  0
 32 33  2  0  0  0  0
 32 53  1  0  0  0  0
 33 34  1  0  0  0  0
 33 54  1  0  0  0  0
M  END
> <s_m_source_file>
AV-unprocessed.smi

> <i_m_source_file_index>
136

> <i_lp_mmshare_version>
43012

> <i_f3d_flags>
0

> <s_epik_input>
bzFbY0hdW2NIXVtjSF1jMVtDQEBIXTJbQ0gyXUMoYzNbY0hdW2NIXWMoQ2wpW2NIXVtjSF0zKT1OTjJDKD1PKVtDSDJdbjRjKD1PKWMoRilbY0hdbihjND1PKVtDQEBIXTVbQ0gyXVtDSDJdW0NIMl1PNQ==

> <s_epik_cmdline>
J2VwaWtfcHl0aG9uJywgJy1waCcsICc3LjAnLCAnLXRuJywgJzgnLCAnLW1hJywgJzIwMCcsICctbWV0YWxfYmluZGluZycsICctaW1hZScsICc8aW5maWxlLm1hZT4nLCAnLW9tYWUnLCAnPG91dGZpbGUubWFlPic=

> <r_lp_tautomer_probability>
1

> <r_epik_Ionization_Penalty>
2.55467e-08

> <r_epik_Ionization_Penalty_Charging>
4.85705e-09

> <r_epik_Ionization_Penalty_Neutral>
2.06897e-08

> <r_epik_State_Penalty>
-0

> <r_epik_Charging_Adjusted_Penalty>
4.85705e-09

> <i_epik_Tot_Q>
0

> <i_epik_Tot_abs_Q>
0

> <r_epik_Metal_State_Penalty>
-0

> <b_epik_Metal_Only>
0

> <s_epik_Chemistry_Notes>
This compound has an imine and may undergo hydrolysis. This compound contains an acetal/aminal-like group ( X-CH(R)-Y where X, Y are N, S, or O) that may be acid/base labile, releasing an aldehyde.

> <s_lp_Force_Field>
OPLS_2005

> <r_lp_Energy>
39.5424

> <b_lp_Chiralities_Consistent>
1

> <s_lp_Variant>
AV-unprocessed.smi:136-4

> <Gold.Version>
5.8.1

> <Gold.Id.Protein>
6NUR|6NUR_protein|mol2

> <Gold.PLP.Fitness>
57.1150

> <Gold.PLP.PLP>
-59.4406

> <Gold.PLP.part.hbond>
-2.2819

> <Gold.PLP.part.metal>
0.0000

> <Gold.PLP.part.buried>
-0.4378

> <Gold.PLP.part.nonpolar>
-55.9005

> <Gold.PLP.part.repulsive>
0.1806

> <Gold.PLP.ligand.clash>
0.0000

> <Gold.PLP.ligand.torsion>
1.1945

> <Gold.PLP.Chemscore.Hbond>
0.0000

> <Gold.PLP.Chemscore.CHOScore>
0.0000

> <Gold.PLP.Chemscore.Metal>
0.0000

> <Gold.PLP.Chemscore.Internal.Correction>
0.0633

> <Gold.Rescore>
     Score         DG    S(hbond)    S(metal)    S(lipo)     H(rot)  DE(clash)    DE(int)     intcor
     10.03     -19.02       0.00        0.00     155.23       1.81       3.06       5.93       ----

> <Gold.Chemscore.Fitness>
10.0257

> <Gold.Chemscore.DG>
-19.0191

> <Gold.Chemscore.ZeroCoef>
-5.4800

> <Gold.Chemscore.Hbond>
0.0000

> <Gold.Chemscore.Metal>
0.0000

> <Gold.Chemscore.Lipo>
155.2263

> <Gold.Chemscore.Internal_Hbond>
0.0000

> <Gold.Chemscore.DEClash>
3.0623

> <Gold.Chemscore.DEInternal>
5.9312

> <Gold.Chemscore.Rot>
1.8056

> <Gold.Chemscore.Internal.Correction>
   9.000000E+99

> <Gold.Chemscore.Hbond.Weighted>
-0.0000

> <Gold.Chemscore.Metal.Weighted>
-0.0000

> <Gold.Chemscore.Lipo.Weighted>
-18.1615

> <Gold.Chemscore.Internal_Hbond.Weighted>
0.0000

> <Gold.Chemscore.DEClash.Weighted>
3.0623

> <Gold.Chemscore.DEInternal.Weighted>
5.9312

> <Gold.Chemscore.Rot.Weighted>
4.6223

> <Gold.Chemscore.Internal.Correction.Weighted>
   9.000000E+99

> <Gold.Protein.RotatedTorsions>
[ 6907 6896 6895 6894 ] final  -96.29 input  -60.11 | X-H torsion
[ 7974 7965 7964 7962 ] final   63.62 input  175.53 | X-H torsion
[ 8008 7997 7996 7995 ] final -164.64 input   59.86 | X-H torsion
[ 10167 10162 10161 10158 ] final -163.66 input  -65.29 | X-H torsion
[ 10718 10713 10712 10709 ] final  -29.85 input   66.30 | X-H torsion
[ 10763 10752 10751 10750 ] final -134.96 input  -60.55 | X-H torsion
[ 11005 11000 10999 10996 ] final -144.16 input  -57.11 | X-H torsion

> <Gold.Protein.ActiveResidues>
 VAL166  LYS551  ARG553  GLY616  TRP617  ASP618  TYR619  PRO620  LYS621  CYS622 
 ASP623  PHE694  ASN695  SER759  ASP760  ASP761  ALA762  ILE779  LEU786  VAL792 
 PHE793  MET794  SER795  GLU796  ALA797  LYS798  CYS799  TRP800  GLU811  SER814 

> <Gold.Protein.RotatedAtoms>
  150.6985  134.1526  159.4145 H   0  0  0  0  0  0  0  0  0  0  0  0  # atno 6907 bound_to 6896
  151.9508  135.0167  160.0551 H   0  0  0  0  0  0  0  0  0  0  0  0  # atno 6908 bound_to 6896
  152.2012  133.4807  159.5096 H   0  0  0  0  0  0  0  0  0  0  0  0  # atno 6909 bound_to 6896
  145.8597  139.3307  143.0826 H   0  0  0  0  0  0  0  0  0  0  0  0  # atno 7974 bound_to 7965
  155.8385  140.0945  157.1749 H   0  0  0  0  0  0  0  0  0  0  0  0  # atno 8008 bound_to 7997
  154.3981  140.1405  156.3761 H   0  0  0  0  0  0  0  0  0  0  0  0  # atno 8009 bound_to 7997
  155.8089  140.3450  155.5448 H   0  0  0  0  0  0  0  0  0  0  0  0  # atno 8010 bound_to 7997
  139.6305  144.0449  152.2011 H   0  0  0  0  0  0  0  0  0  0  0  0  # atno 10167 bound_to 10162
  156.4073  130.4401  149.7278 H   0  0  0  0  0  0  0  0  0  0  0  0  # atno 10718 bound_to 10713
  154.8711  135.3718  154.4820 H   0  0  0  0  0  0  0  0  0  0  0  0  # atno 10763 bound_to 10752
  153.5473  135.7025  153.5613 H   0  0  0  0  0  0  0  0  0  0  0  0  # atno 10764 bound_to 10752
  153.3747  135.4012  155.1778 H   0  0  0  0  0  0  0  0  0  0  0  0  # atno 10765 bound_to 10752
  140.8052  134.2809  157.4963 H   0  0  0  0  0  0  0  0  0  0  0  0  # atno 11005 bound_to 11000
  145.9262  140.9081  143.0380 LP  0  0  0  0  0  0  0  0  0  0  0  0  # atno 17320 bound_to 7965
  144.6727  140.1356  143.7440 LP  0  0  0  0  0  0  0  0  0  0  0  0  # atno 17321 bound_to 7965
  140.0113  144.6221  150.7644 LP  0  0  0  0  0  0  0  0  0  0  0  0  # atno 17342 bound_to 10162
  140.7436  143.2848  151.3493 LP  0  0  0  0  0  0  0  0  0  0  0  0  # atno 17343 bound_to 10162
  156.4271  130.7797  151.2816 LP  0  0  0  0  0  0  0  0  0  0  0  0  # atno 17370 bound_to 10713
  157.7506  131.0165  150.3548 LP  0  0  0  0  0  0  0  0  0  0  0  0  # atno 17371 bound_to 10713
  139.8718  134.9452  156.3904 LP  0  0  0  0  0  0  0  0  0  0  0  0  # atno 17394 bound_to 11000
  140.9254  133.7616  155.9957 LP  0  0  0  0  0  0  0  0  0  0  0  0  # atno 17395 bound_to 11000

$$$$
