AV-unprocessed.smi:66|AV-procd|sdf|622|dock7
  -GOLD-   2262016513D 1   1.00000     0.00000
 Structure written by MMmdl.
 28 30  0  0  0  0  0  0  0  0  2 V2000
  153.1730  139.5296  154.8019 O   0  0  0  0  0  0  0  0  0  0  0  0
  152.2751  138.6720  154.6568 C   0  0  0  0  0  0  0  0  0  0  0  0
  152.4334  137.5335  154.1614 O   0  5  0  0  0  0  0  0  0  0  0  0
  150.8684  139.0573  155.1314 C   0  0  1  0  0  0  0  0  0  0  0  0
  150.3014  140.2757  154.3914 C   0  0  0  0  0  0  0  0  0  0  0  0
  148.7985  140.0537  154.5263 C   0  0  1  0  0  0  0  0  0  0  0  0
  148.0537  140.7538  153.5522 O   0  0  0  0  0  0  0  0  0  0  0  0
  148.6600  138.5352  154.3935 C   0  0  0  0  0  0  0  0  0  0  0  0
  149.9096  137.9768  154.8965 N   0  0  0  0  0  0  0  0  0  0  0  0
  149.7679  137.0108  155.9036 C   0  0  0  0  0  0  0  0  0  0  0  0
  149.9521  137.3396  157.2037 N   0  0  0  0  0  0  0  0  0  0  0  0
  149.7803  136.3744  158.1181 C   0  0  0  0  0  0  0  0  0  0  0  0
  149.4308  135.0886  157.9410 N   0  0  0  0  0  0  0  0  0  0  0  0
  149.2396  134.7586  156.6557 C   0  0  0  0  0  0  0  0  0  0  0  0
  148.8710  133.5112  156.1694 N   0  0  0  0  0  0  0  0  0  0  0  0
  148.8228  133.7303  154.8548 C   0  0  0  0  0  0  0  0  0  0  0  0
  149.1142  134.9759  154.4431 N   0  0  0  0  0  0  0  0  0  0  0  0
  149.3954  135.6937  155.5919 C   0  0  0  0  0  0  0  0  0  0  0  0
  149.1322  135.2945  153.4847 H   0  0  0  0  0  0  0  0  0  0  0  0
  150.9110  139.2909  156.1960 H   0  0  0  0  0  0  0  0  0  0  0  0
  150.6282  141.2216  154.8244 H   0  0  0  0  0  0  0  0  0  0  0  0
  150.5905  140.2663  153.3384 H   0  0  0  0  0  0  0  0  0  0  0  0
  148.4748  140.3645  155.5209 H   0  0  0  0  0  0  0  0  0  0  0  0
  148.4093  140.5487  152.7010 H   0  0  0  0  0  0  0  0  0  0  0  0
  147.7767  138.1661  154.9176 H   0  0  0  0  0  0  0  0  0  0  0  0
  148.5680  138.2424  153.3466 H   0  0  0  0  0  0  0  0  0  0  0  0
  149.9413  136.6740  159.1431 H   0  0  0  0  0  0  0  0  0  0  0  0
  148.5645  132.9472  154.1571 H   0  0  0  0  0  0  0  0  0  0  0  0
  1  2  2  0  0  0  0
  2  3  1  0  0  0  0
  2  4  1  0  0  0  0
  4  9  1  0  0  0  0
  4  5  1  0  0  0  0
  4 20  1  0  0  0  0
  5  6  1  0  0  0  0
  5 21  1  0  0  0  0
  5 22  1  0  0  0  0
  6  7  1  0  0  0  0
  6  8  1  0  0  0  0
  6 23  1  0  0  0  0
  7 24  1  0  0  0  0
  8  9  1  0  0  0  0
  8 25  1  0  0  0  0
  8 26  1  0  0  0  0
  9 10  1  0  0  0  0
 10 18  1  0  0  0  0
 10 11  2  0  0  0  0
 11 12  1  0  0  0  0
 12 13  2  0  0  0  0
 12 27  1  0  0  0  0
 13 14  1  0  0  0  0
 14 18  2  0  0  0  0
 14 15  1  0  0  0  0
 15 16  2  0  0  0  0
 16 17  1  0  0  0  0
 16 28  1  0  0  0  0
 17 19  1  0  0  0  0
 17 18  1  0  0  0  0
M  CHG  1   3  -1
M  END
> <s_m_source_file>
AV-unprocessed.smi

> <i_m_source_file_index>
66

> <i_lp_mmshare_version>
43012

> <i_f3d_flags>
0

> <s_epik_input>
Tz1DKFtPSF0pW0NAQEhdMVtDSDJdW0NAQEhdKFtPSF0pW0NIMl1OMWMobltjSF1uMiljKGMyMylbbkhdW2NIXW4z

> <s_epik_cmdline>
J2VwaWtfcHl0aG9uJywgJy1waCcsICc3LjAnLCAnLXRuJywgJzgnLCAnLW1hJywgJzIwMCcsICctbWV0YWxfYmluZGluZycsICctaW1hZScsICc8aW5maWxlLm1hZT4nLCAnLW9tYWUnLCAnPG91dGZpbGUubWFlPic=

> <r_lp_tautomer_probability>
0.0419193

> <r_epik_Ionization_Penalty>
0.0157405

> <r_epik_Ionization_Penalty_Charging>
0.000248217

> <r_epik_Ionization_Penalty_Neutral>
0.0154923

> <r_epik_State_Penalty>
1.99742

> <r_epik_Charging_Adjusted_Penalty>
1.99767

> <i_epik_Tot_Q>
-1

> <i_epik_Tot_abs_Q>
1

> <r_epik_Metal_State_Penalty>
2.31035

> <b_epik_Metal_Only>
0

> <s_lp_Force_Field>
OPLS_2005

> <r_lp_Energy>
24.7496

> <b_lp_Chiralities_Consistent>
1

> <s_lp_Variant>
AV-unprocessed.smi:66-6

> <Gold.Version>
5.8.1

> <Gold.Id.Protein>
6NUR|6NUR_protein|mol2

> <Gold.PLP.Fitness>
40.5233

> <Gold.PLP.PLP>
-22.7556

> <Gold.PLP.part.hbond>
-6.0000

> <Gold.PLP.part.metal>
0.0000

> <Gold.PLP.part.buried>
-1.5520

> <Gold.PLP.part.nonpolar>
-16.5356

> <Gold.PLP.part.repulsive>
0.3217

> <Gold.PLP.ligand.clash>
0.0000

> <Gold.PLP.ligand.torsion>
0.6349

> <Gold.PLP.Chemscore.Hbond>
6.3026

> <Gold.PLP.Chemscore.CHOScore>
0.0000

> <Gold.PLP.Chemscore.Metal>
0.0000

> <Gold.Chemscore.Hbonds>
donor molecule, donor type, donor heavy atom, donor atom, acceptor molecule, acceptor atom, score
      L1  H     7    24       P1  7957  1.00
      L1  H    17    19       P1  7948  1.00
      P1  H  6896  6909       L1    13  0.86
      P1  H  7989  7998       L1     1  0.01
      P1  H  7997  8010       L1     1  2.00
      P1  H 10752 10765       L1     3  1.41

> <Gold.PLP.Chemscore.Internal.Correction>
0.1297

> <Gold.Rescore>
     Score         DG    S(hbond)    S(metal)    S(lipo)     H(rot)  DE(clash)    DE(int)     intcor
     14.08     -15.71       3.92        0.00      29.61       2.48       1.38       0.25       ----

> <Gold.Chemscore.Fitness>
14.0843

> <Gold.Chemscore.DG>
-15.7123

> <Gold.Chemscore.ZeroCoef>
-5.4800

> <Gold.Chemscore.Hbond>
3.9241

> <Gold.Chemscore.Metal>
0.0000

> <Gold.Chemscore.Lipo>
29.6143

> <Gold.Chemscore.Internal_Hbond>
0.0000

> <Gold.Chemscore.DEClash>
1.3789

> <Gold.Chemscore.DEInternal>
0.2491

> <Gold.Chemscore.Rot>
2.4762

> <Gold.Chemscore.Internal.Correction>
   9.000000E+99

> <Gold.Chemscore.Hbonds>
donor molecule, donor type, donor heavy atom, donor atom, acceptor molecule, acceptor atom, score
      L1  H     7    24       P1  7957  0.95
      L1  H    17    19       P1  7948  0.40
      P1  H  6896  6909       L1    13  0.21
      P1  H  7997  8010       L1     1  1.00
      P1  H 10752 10765       L1     3  0.72

> <Gold.Chemscore.Hbond.Weighted>
-13.1065

> <Gold.Chemscore.Metal.Weighted>
-0.0000

> <Gold.Chemscore.Lipo.Weighted>
-3.4649

> <Gold.Chemscore.Internal_Hbond.Weighted>
0.0000

> <Gold.Chemscore.DEClash.Weighted>
1.3789

> <Gold.Chemscore.DEInternal.Weighted>
0.2491

> <Gold.Chemscore.Rot.Weighted>
6.3391

> <Gold.Chemscore.Internal.Correction.Weighted>
   9.000000E+99

> <Gold.Protein.RotatedTorsions>
[ 6907 6896 6895 6894 ] final   24.19 input  -60.11 | X-H torsion
[ 7974 7965 7964 7962 ] final   51.96 input  175.53 | X-H torsion
[ 8008 7997 7996 7995 ] final  119.34 input   59.86 | X-H torsion
[ 10167 10162 10161 10158 ] final  -87.61 input  -65.29 | X-H torsion
[ 10718 10713 10712 10709 ] final -135.90 input   66.30 | X-H torsion
[ 10763 10752 10751 10750 ] final  150.87 input  -60.55 | X-H torsion
[ 11005 11000 10999 10996 ] final  -69.32 input  -57.11 | X-H torsion

> <Gold.Protein.ActiveResidues>
 VAL166  LYS551  ARG553  GLY616  TRP617  ASP618  TYR619  PRO620  LYS621  CYS622 
 ASP623  PHE694  ASN695  SER759  ASP760  ASP761  ALA762  ILE779  LEU786  VAL792 
 PHE793  MET794  SER795  GLU796  ALA797  LYS798  CYS799  TRP800  GLU811  SER814 

> <Gold.Protein.RotatedAtoms>
  151.9538  135.0156  160.0543 H   0  0  0  0  0  0  0  0  0  0  0  0  # atno 6907 bound_to 6896
  152.1930  133.4782  159.5026 H   0  0  0  0  0  0  0  0  0  0  0  0  # atno 6908 bound_to 6896
  150.6939  134.1606  159.4217 H   0  0  0  0  0  0  0  0  0  0  0  0  # atno 6909 bound_to 6896
  145.9861  139.4291  143.0102 H   0  0  0  0  0  0  0  0  0  0  0  0  # atno 7974 bound_to 7965
  156.2591  140.2855  156.0977 H   0  0  0  0  0  0  0  0  0  0  0  0  # atno 8008 bound_to 7997
  155.1394  140.0395  157.2812 H   0  0  0  0  0  0  0  0  0  0  0  0  # atno 8009 bound_to 7997
  154.6541  140.2551  155.7187 H   0  0  0  0  0  0  0  0  0  0  0  0  # atno 8010 bound_to 7997
  140.3828  143.2741  151.9363 H   0  0  0  0  0  0  0  0  0  0  0  0  # atno 10167 bound_to 10162
  156.2712  130.7267  151.1234 H   0  0  0  0  0  0  0  0  0  0  0  0  # atno 10718 bound_to 10713
  154.0945  135.2850  155.3264 H   0  0  0  0  0  0  0  0  0  0  0  0  # atno 10763 bound_to 10752
  154.6597  135.5339  153.8006 H   0  0  0  0  0  0  0  0  0  0  0  0  # atno 10764 bound_to 10752
  153.0401  135.6531  154.1112 H   0  0  0  0  0  0  0  0  0  0  0  0  # atno 10765 bound_to 10752
  141.1551  133.6761  156.6582 H   0  0  0  0  0  0  0  0  0  0  0  0  # atno 11005 bound_to 11000
  145.7699  140.9901  143.1155 LP  0  0  0  0  0  0  0  0  0  0  0  0  # atno 17320 bound_to 7965
  144.6875  139.9434  143.7476 LP  0  0  0  0  0  0  0  0  0  0  0  0  # atno 17321 bound_to 7965
  139.4794  144.5802  151.7944 LP  0  0  0  0  0  0  0  0  0  0  0  0  # atno 17342 bound_to 10162
  140.4920  144.1296  150.5952 LP  0  0  0  0  0  0  0  0  0  0  0  0  # atno 17343 bound_to 10162
  157.7284  131.0632  150.5820 LP  0  0  0  0  0  0  0  0  0  0  0  0  # atno 17370 bound_to 10713
  156.5916  130.4331  149.5934 LP  0  0  0  0  0  0  0  0  0  0  0  0  # atno 17371 bound_to 10713
  140.3268  134.7962  157.4295 LP  0  0  0  0  0  0  0  0  0  0  0  0  # atno 17394 bound_to 11000
  140.1050  134.5421  155.8317 LP  0  0  0  0  0  0  0  0  0  0  0  0  # atno 17395 bound_to 11000

$$$$
