AV-unprocessed.smi:2060|AV-procd|sdf|8358|dock5
  -GOLD-   2272011 33D 1   1.00000     0.00000
 Structure written by MMmdl.
 45 46  0  0  0  0  0  0  0  0  3 V2000
  146.7122  138.8266  151.8543 C   0  0  0  0  0  0  0  0  0  0  0  0
  147.0953  140.1864  152.4877 C   0  0  0  0  0  0  0  0  0  0  0  0
  146.9238  140.3916  154.0453 C   0  0  1  0  0  0  0  0  0  0  0  0
  146.4737  139.0226  154.6370 C   0  0  0  0  0  0  0  0  0  0  0  0
  148.2844  140.8419  154.6952 C   0  0  0  0  0  0  0  0  0  0  0  0
  149.2680  139.7544  154.6571 N   0  5  0  0  0  0  0  0  0  0  0  0
  150.5029  139.8104  155.2254 C   0  0  0  0  0  0  0  0  0  0  0  0
  151.5935  139.6122  154.6776 O   0  0  0  0  0  0  0  0  0  0  0  0
  150.4445  140.1205  156.5335 N   0  0  0  0  0  0  0  0  0  0  0  0
  151.5102  140.2837  157.4574 C   0  0  0  0  0  0  0  0  0  0  0  0
  151.3938  141.1923  158.5430 C   0  0  0  0  0  0  0  0  0  0  0  0
  152.5960  141.0675  159.1806 C   0  0  0  0  0  0  0  0  0  0  0  0
  153.1749  141.7161  160.3909 C   0  0  0  0  0  0  0  0  0  0  0  0
  153.3798  140.1580  158.5406 O   0  0  0  0  0  0  0  0  0  0  0  0
  152.6783  139.6590  157.4369 N   0  0  0  0  0  0  0  0  0  0  0  0
  145.8932  141.4658  154.3606 N   0  3  0  0  0  0  0  0  0  0  0  0
  145.3011  141.4792  155.7297 C   0  0  0  0  0  0  0  0  0  0  0  0
  144.1196  142.4632  155.8048 C   0  0  0  0  0  0  0  0  0  0  0  0
  144.5307  143.7637  155.4100 O   0  0  0  0  0  0  0  0  0  0  0  0
  145.0044  143.7755  154.0718 C   0  0  0  0  0  0  0  0  0  0  0  0
  146.2388  142.8685  153.9702 C   0  0  0  0  0  0  0  0  0  0  0  0
  146.8581  138.8661  150.7747 H   0  0  0  0  0  0  0  0  0  0  0  0
  145.6663  138.5725  152.0198 H   0  0  0  0  0  0  0  0  0  0  0  0
  147.3259  138.0037  152.2203 H   0  0  0  0  0  0  0  0  0  0  0  0
  148.1206  140.4074  152.1837 H   0  0  0  0  0  0  0  0  0  0  0  0
  146.4738  140.9152  151.9672 H   0  0  0  0  0  0  0  0  0  0  0  0
  147.1819  138.2196  154.4296 H   0  0  0  0  0  0  0  0  0  0  0  0
  145.5176  138.7149  154.2120 H   0  0  0  0  0  0  0  0  0  0  0  0
  146.3531  139.0306  155.7214 H   0  0  0  0  0  0  0  0  0  0  0  0
  148.6594  141.7163  154.1628 H   0  0  0  0  0  0  0  0  0  0  0  0
  148.0998  141.1922  155.7108 H   0  0  0  0  0  0  0  0  0  0  0  0
  149.5190  140.2652  156.9083 H   0  0  0  0  0  0  0  0  0  0  0  0
  150.5663  141.8321  158.8111 H   0  0  0  0  0  0  0  0  0  0  0  0
  152.5029  142.4799  160.7827 H   0  0  0  0  0  0  0  0  0  0  0  0
  154.1271  142.1917  160.1565 H   0  0  0  0  0  0  0  0  0  0  0  0
  153.3473  140.9812  161.1773 H   0  0  0  0  0  0  0  0  0  0  0  0
  144.9020  140.5063  156.0101 H   0  0  0  0  0  0  0  0  0  0  0  0
  146.0669  141.7458  156.4594 H   0  0  0  0  0  0  0  0  0  0  0  0
  143.2956  142.1253  155.1740 H   0  0  0  0  0  0  0  0  0  0  0  0
  143.7371  142.5108  156.8245 H   0  0  0  0  0  0  0  0  0  0  0  0
  144.2216  143.4518  153.3836 H   0  0  0  0  0  0  0  0  0  0  0  0
  145.2664  144.7981  153.8003 H   0  0  0  0  0  0  0  0  0  0  0  0
  147.0215  143.2576  154.6231 H   0  0  0  0  0  0  0  0  0  0  0  0
  146.6190  142.9205  152.9506 H   0  0  0  0  0  0  0  0  0  0  0  0
  145.1222  141.2058  153.7597 H   0  0  0  0  0  0  0  0  0  0  0  0
  1  2  1  0  0  0  0
  1 22  1  0  0  0  0
  1 23  1  0  0  0  0
  1 24  1  0  0  0  0
  2  3  1  0  0  0  0
  2 25  1  0  0  0  0
  2 26  1  0  0  0  0
  3  4  1  0  0  0  0
  3  5  1  0  0  0  0
  3 16  1  0  0  0  0
  4 27  1  0  0  0  0
  4 28  1  0  0  0  0
  4 29  1  0  0  0  0
  5  6  1  0  0  0  0
  5 30  1  0  0  0  0
  5 31  1  0  0  0  0
  6  7  1  0  0  0  0
  7  8  2  0  0  0  0
  7  9  1  0  0  0  0
  9 10  1  0  0  0  0
  9 32  1  0  0  0  0
 10 15  2  0  0  0  0
 10 11  1  0  0  0  0
 11 12  2  0  0  0  0
 11 33  1  0  0  0  0
 12 13  1  0  0  0  0
 12 14  1  0  0  0  0
 13 34  1  0  0  0  0
 13 35  1  0  0  0  0
 13 36  1  0  0  0  0
 14 15  1  0  0  0  0
 16 21  1  0  0  0  0
 16 17  1  0  0  0  0
 16 45  1  0  0  0  0
 17 18  1  0  0  0  0
 17 37  1  0  0  0  0
 17 38  1  0  0  0  0
 18 19  1  0  0  0  0
 18 39  1  0  0  0  0
 18 40  1  0  0  0  0
 19 20  1  0  0  0  0
 20 21  1  0  0  0  0
 20 41  1  0  0  0  0
 20 42  1  0  0  0  0
 21 43  1  0  0  0  0
 21 44  1  0  0  0  0
M  CHG  1   6  -1
M  CHG  1  16   1
M  END
> <s_m_source_file>
AV-unprocessed.smi

> <i_m_source_file_index>
2060

> <i_lp_mmshare_version>
43012

> <i_f3d_flags>
0

> <s_epik_input>
W0NIMl0xW0NIMl1PW0NIMl1bQ0gyXU4xW0NAQF0oW0NIM10pKFtDSDJdW0NIM10pW0NIMl1bTkhdQyg9TylbTkhdYzJbY0hdYyhbQ0gzXSlvbjI=

> <s_epik_cmdline>
J2VwaWtfcHl0aG9uJywgJy1waCcsICc3LjAnLCAnLXRuJywgJzgnLCAnLW1hJywgJzIwMCcsICctbWV0YWxfYmluZGluZycsICctaW1hZScsICc8aW5maWxlLm1hZT4nLCAnLW9tYWUnLCAnPG91dGZpbGUubWFlPic=

> <r_epik_Ionization_Penalty>
6.79469

> <r_epik_Ionization_Penalty_Charging>
6.79469

> <r_epik_Ionization_Penalty_Neutral>
5.68576e-06

> <r_epik_State_Penalty>
7.33145

> <r_epik_Charging_Adjusted_Penalty>
14.1261

> <i_epik_Tot_Q>
0

> <i_epik_Tot_abs_Q>
2

> <r_epik_Metal_State_Penalty>
3.24803

> <b_epik_Metal_Only>
1

> <s_lp_Force_Field>
OPLS_2005

> <r_lp_Energy>
29.3309

> <b_lp_Chiralities_Consistent>
1

> <s_lp_Variant>
AV-unprocessed.smi:2060-5

> <Gold.Version>
5.8.1

> <Gold.Id.Protein>
6NUR|6NUR_protein|mol2

> <Gold.PLP.Fitness>
40.2834

> <Gold.PLP.PLP>
-35.3746

> <Gold.PLP.part.hbond>
-3.9262

> <Gold.PLP.part.metal>
0.0000

> <Gold.PLP.part.buried>
-2.2149

> <Gold.PLP.part.nonpolar>
-30.1501

> <Gold.PLP.part.repulsive>
0.3561

> <Gold.PLP.ligand.clash>
0.0000

> <Gold.PLP.ligand.torsion>
2.1652

> <Gold.PLP.Chemscore.Hbond>
3.0020

> <Gold.PLP.Chemscore.CHOScore>
0.0000

> <Gold.PLP.Chemscore.Metal>
0.0000

> <Gold.Chemscore.Hbonds>
donor molecule, donor type, donor heavy atom, donor atom, acceptor molecule, acceptor atom, score
      L1  H    16    45       P1 10175  1.92
      P1  H  7989  7998       L1     8  1.00
      P1  H  7997  8009       L1    14  0.07

> <Gold.PLP.Chemscore.Internal.Correction>
0.2332

> <Gold.Rescore>
     Score         DG    S(hbond)    S(metal)    S(lipo)     H(rot)  DE(clash)    DE(int)     intcor
     11.95     -15.09       1.87        0.00      66.63       1.73       0.13       3.00       ----

> <Gold.Chemscore.Fitness>
11.9521

> <Gold.Chemscore.DG>
-15.0850

> <Gold.Chemscore.ZeroCoef>
-5.4800

> <Gold.Chemscore.Hbond>
1.8671

> <Gold.Chemscore.Metal>
0.0000

> <Gold.Chemscore.Lipo>
66.6339

> <Gold.Chemscore.Internal_Hbond>
0.0000

> <Gold.Chemscore.DEClash>
0.1325

> <Gold.Chemscore.DEInternal>
3.0005

> <Gold.Chemscore.Rot>
1.7294

> <Gold.Chemscore.Internal.Correction>
   9.000000E+99

> <Gold.Chemscore.Hbonds>
donor molecule, donor type, donor heavy atom, donor atom, acceptor molecule, acceptor atom, score
      L1  H    16    45       P1 10175  0.50
      P1  H  7989  7998       L1     8  0.39

> <Gold.Chemscore.Hbond.Weighted>
-6.2361

> <Gold.Chemscore.Metal.Weighted>
-0.0000

> <Gold.Chemscore.Lipo.Weighted>
-7.7962

> <Gold.Chemscore.Internal_Hbond.Weighted>
0.0000

> <Gold.Chemscore.DEClash.Weighted>
0.1325

> <Gold.Chemscore.DEInternal.Weighted>
3.0005

> <Gold.Chemscore.Rot.Weighted>
4.4272

> <Gold.Chemscore.Internal.Correction.Weighted>
   9.000000E+99

> <Gold.Protein.RotatedTorsions>
[ 6907 6896 6895 6894 ] final  112.53 input  -60.11 | X-H torsion
[ 7974 7965 7964 7962 ] final   20.70 input  175.53 | X-H torsion
[ 8008 7997 7996 7995 ] final  107.44 input   59.86 | X-H torsion
[ 10167 10162 10161 10158 ] final -131.29 input  -65.29 | X-H torsion
[ 10718 10713 10712 10709 ] final   -7.08 input   66.30 | X-H torsion
[ 10763 10752 10751 10750 ] final -115.07 input  -60.55 | X-H torsion
[ 11005 11000 10999 10996 ] final -137.59 input  -57.11 | X-H torsion

> <Gold.Protein.ActiveResidues>
 VAL166  LYS551  ARG553  GLY616  TRP617  ASP618  TYR619  PRO620  LYS621  CYS622 
 ASP623  PHE694  ASN695  SER759  ASP760  ASP761  ALA762  ILE779  LEU786  VAL792 
 PHE793  MET794  SER795  GLU796  ALA797  LYS798  CYS799  TRP800  GLU811  SER814 

> <Gold.Protein.RotatedAtoms>
  152.4911  133.8503  159.7197 H   0  0  0  0  0  0  0  0  0  0  0  0  # atno 6907 bound_to 6896
  150.9042  133.7071  159.2878 H   0  0  0  0  0  0  0  0  0  0  0  0  # atno 6908 bound_to 6896
  151.4502  135.1033  159.9748 H   0  0  0  0  0  0  0  0  0  0  0  0  # atno 6909 bound_to 6896
  146.2101  139.8133  142.8695 H   0  0  0  0  0  0  0  0  0  0  0  0  # atno 7974 bound_to 7965
  156.1824  140.3095  155.9173 H   0  0  0  0  0  0  0  0  0  0  0  0  # atno 8008 bound_to 7997
  155.3355  140.0463  157.3061 H   0  0  0  0  0  0  0  0  0  0  0  0  # atno 8009 bound_to 7997
  154.5357  140.2245  155.8736 H   0  0  0  0  0  0  0  0  0  0  0  0  # atno 8010 bound_to 7997
  139.9205  143.6388  152.2555 H   0  0  0  0  0  0  0  0  0  0  0  0  # atno 10167 bound_to 10162
  156.7225  130.5155  149.5865 H   0  0  0  0  0  0  0  0  0  0  0  0  # atno 10718 bound_to 10713
  154.8466  135.4395  154.1605 H   0  0  0  0  0  0  0  0  0  0  0  0  # atno 10763 bound_to 10752
  153.2743  135.6948  153.7455 H   0  0  0  0  0  0  0  0  0  0  0  0  # atno 10764 bound_to 10752
  153.6684  135.3423  155.3121 H   0  0  0  0  0  0  0  0  0  0  0  0  # atno 10765 bound_to 10752
  140.8697  134.2067  157.4658 H   0  0  0  0  0  0  0  0  0  0  0  0  # atno 11005 bound_to 11000
  145.3173  141.0235  143.3520 LP  0  0  0  0  0  0  0  0  0  0  0  0  # atno 17320 bound_to 7965
  144.8892  139.4798  143.6686 LP  0  0  0  0  0  0  0  0  0  0  0  0  # atno 17321 bound_to 7965
  139.6866  144.7651  151.1513 LP  0  0  0  0  0  0  0  0  0  0  0  0  # atno 17342 bound_to 10162
  140.7663  143.5649  150.9059 LP  0  0  0  0  0  0  0  0  0  0  0  0  # atno 17343 bound_to 10162
  156.1584  130.6358  151.0687 LP  0  0  0  0  0  0  0  0  0  0  0  0  # atno 17370 bound_to 10713
  157.6892  131.0815  150.7156 LP  0  0  0  0  0  0  0  0  0  0  0  0  # atno 17371 bound_to 10713
  139.8711  134.9768  156.4935 LP  0  0  0  0  0  0  0  0  0  0  0  0  # atno 17394 bound_to 11000
  140.8588  133.8076  155.9243 LP  0  0  0  0  0  0  0  0  0  0  0  0  # atno 17395 bound_to 11000

$$$$
