AV-unprocessed.smi:2846|AV-procd|sdf|10952|dock10
  -GOLD-   2272015403D 1   1.00000     0.00000
 Structure written by MMmdl.
 49 51  0  0  0  0  0  0  0  0  2 V2000
  150.0318  140.9911  157.5419 O   0  0  0  0  0  0  0  0  0  0  0  0
  149.9293  142.1850  157.2587 C   0  0  0  0  0  0  0  0  0  0  0  0
  151.1424  143.1151  157.3375 C   0  0  0  0  0  0  0  0  0  0  0  0
  151.7286  143.3408  158.7217 C   0  0  0  0  0  0  0  0  0  0  0  0
  151.8857  144.5742  159.2410 C   0  0  0  0  0  0  0  0  0  0  0  0
  152.4542  144.8509  160.6214 C   0  0  0  0  0  0  0  0  0  0  0  0
  152.5020  143.5876  161.4973 C   0  0  0  0  0  0  0  0  0  0  0  0
  153.0233  142.3826  160.7041 C   0  0  0  0  0  0  0  0  0  0  0  0
  152.1355  142.0846  159.4823 C   0  0  0  0  0  0  0  0  0  0  0  0
  148.7797  142.7516  156.8621 N   0  0  0  0  0  0  0  0  0  0  0  0
  147.4994  142.0609  156.7151 C   0  0  0  0  0  0  0  0  0  0  0  0
  146.9630  142.0550  155.2554 C   0  0  0  0  0  0  0  0  0  0  0  0
  146.0538  143.2731  155.0272 C   0  0  0  0  0  0  0  0  0  0  0  0
  144.9782  143.5366  155.9102 C   0  0  0  0  0  0  0  0  0  0  0  0
  144.1621  144.6667  155.7015 C   0  0  0  0  0  0  0  0  0  0  0  0
  144.4145  145.4965  154.6674 N   0  3  0  0  0  0  0  0  0  0  0  0
  145.4339  145.2975  153.8056 C   0  0  0  0  0  0  0  0  0  0  0  0
  146.2824  144.1834  153.9650 C   0  0  0  0  0  0  0  0  0  0  0  0
  148.1084  141.9550  154.2219 C   0  0  0  0  0  0  0  0  0  0  0  0
  148.5334  140.4846  154.1906 C   0  0  0  0  0  0  0  0  0  0  0  0
  147.2998  139.6883  154.6282 C   0  0  0  0  0  0  0  0  0  0  0  0
  146.2261  140.7271  154.9781 C   0  0  0  0  0  0  0  0  0  0  0  0
  151.9190  142.6877  156.7016 H   0  0  0  0  0  0  0  0  0  0  0  0
  150.8910  144.0811  156.8975 H   0  0  0  0  0  0  0  0  0  0  0  0
  151.6084  145.4404  158.6583 H   0  0  0  0  0  0  0  0  0  0  0  0
  153.4564  145.2618  160.4965 H   0  0  0  0  0  0  0  0  0  0  0  0
  151.8548  145.6190  161.1107 H   0  0  0  0  0  0  0  0  0  0  0  0
  153.1255  143.7648  162.3740 H   0  0  0  0  0  0  0  0  0  0  0  0
  151.5013  143.3642  161.8696 H   0  0  0  0  0  0  0  0  0  0  0  0
  154.0415  142.5883  160.3711 H   0  0  0  0  0  0  0  0  0  0  0  0
  153.0809  141.5024  161.3451 H   0  0  0  0  0  0  0  0  0  0  0  0
  151.2259  141.5725  159.7975 H   0  0  0  0  0  0  0  0  0  0  0  0
  152.6622  141.4066  158.8097 H   0  0  0  0  0  0  0  0  0  0  0  0
  148.7895  143.7398  156.6548 H   0  0  0  0  0  0  0  0  0  0  0  0
  147.5594  141.0496  157.1196 H   0  0  0  0  0  0  0  0  0  0  0  0
  146.7901  142.5857  157.3561 H   0  0  0  0  0  0  0  0  0  0  0  0
  144.7757  142.8839  156.7464 H   0  0  0  0  0  0  0  0  0  0  0  0
  143.3236  144.9318  156.3289 H   0  0  0  0  0  0  0  0  0  0  0  0
  145.5423  146.0328  153.0217 H   0  0  0  0  0  0  0  0  0  0  0  0
  147.1011  144.0449  153.2745 H   0  0  0  0  0  0  0  0  0  0  0  0
  147.7260  142.2042  153.2304 H   0  0  0  0  0  0  0  0  0  0  0  0
  148.9430  142.6284  154.4146 H   0  0  0  0  0  0  0  0  0  0  0  0
  148.8863  140.1880  153.2025 H   0  0  0  0  0  0  0  0  0  0  0  0
  149.3511  140.3163  154.8928 H   0  0  0  0  0  0  0  0  0  0  0  0
  146.9544  139.0125  153.8450 H   0  0  0  0  0  0  0  0  0  0  0  0
  147.5408  139.0797  155.5005 H   0  0  0  0  0  0  0  0  0  0  0  0
  145.5889  140.4040  155.8020 H   0  0  0  0  0  0  0  0  0  0  0  0
  145.5813  140.8461  154.1055 H   0  0  0  0  0  0  0  0  0  0  0  0
  143.8129  146.3099  154.5345 H   0  0  0  0  0  0  0  0  0  0  0  0
  1  2  2  0  0  0  0
  2  3  1  0  0  0  0
  2 10  1  0  0  0  0
  3  4  1  0  0  0  0
  3 23  1  0  0  0  0
  3 24  1  0  0  0  0
  4  9  1  0  0  0  0
  4  5  2  0  0  0  0
  5  6  1  0  0  0  0
  5 25  1  0  0  0  0
  6  7  1  0  0  0  0
  6 26  1  0  0  0  0
  6 27  1  0  0  0  0
  7  8  1  0  0  0  0
  7 28  1  0  0  0  0
  7 29  1  0  0  0  0
  8  9  1  0  0  0  0
  8 30  1  0  0  0  0
  8 31  1  0  0  0  0
  9 32  1  0  0  0  0
  9 33  1  0  0  0  0
 10 11  1  0  0  0  0
 10 34  1  0  0  0  0
 11 12  1  0  0  0  0
 11 35  1  0  0  0  0
 11 36  1  0  0  0  0
 12 22  1  0  0  0  0
 12 13  1  0  0  0  0
 12 19  1  0  0  0  0
 13 18  1  0  0  0  0
 13 14  2  0  0  0  0
 14 15  1  0  0  0  0
 14 37  1  0  0  0  0
 15 16  2  0  0  0  0
 15 38  1  0  0  0  0
 16 17  1  0  0  0  0
 16 49  1  0  0  0  0
 17 18  2  0  0  0  0
 17 39  1  0  0  0  0
 18 40  1  0  0  0  0
 19 20  1  0  0  0  0
 19 41  1  0  0  0  0
 19 42  1  0  0  0  0
 20 21  1  0  0  0  0
 20 43  1  0  0  0  0
 20 44  1  0  0  0  0
 21 22  1  0  0  0  0
 21 45  1  0  0  0  0
 21 46  1  0  0  0  0
 22 47  1  0  0  0  0
 22 48  1  0  0  0  0
M  CHG  1  16   1
M  END
> <s_m_source_file>
AV-unprocessed.smi

> <i_m_source_file_index>
2846

> <i_lp_mmshare_version>
43012

> <i_f3d_flags>
0

> <s_epik_input>
W0NIMl0xW0NIMl1bQ0gyXVtDSDJdW0NIXT1DMVtDSDJdQyg9TylbTkhdW0NIMl1DMihbQ0gyXVtDSDJdW0NIMl1bQ0gyXTIpYzNbY0hdW2NIXW5bY0hdW2NIXTM=

> <s_epik_cmdline>
J2VwaWtfcHl0aG9uJywgJy1waCcsICc3LjAnLCAnLXRuJywgJzgnLCAnLW1hJywgJzIwMCcsICctbWV0YWxfYmluZGluZycsICctaW1hZScsICc8aW5maWxlLm1hZT4nLCAnLW9tYWUnLCAnPG91dGZpbGUubWFlPic=

> <r_epik_Ionization_Penalty>
1.37043

> <r_epik_Ionization_Penalty_Charging>
1.37043

> <r_epik_Ionization_Penalty_Neutral>
1.66368e-08

> <r_epik_State_Penalty>
1.45009

> <r_epik_Charging_Adjusted_Penalty>
2.82052

> <i_epik_Tot_Q>
1

> <i_epik_Tot_abs_Q>
1

> <r_epik_Metal_State_Penalty>
1.50668

> <b_epik_Metal_Only>
0

> <s_lp_Force_Field>
OPLS_2005

> <r_lp_Energy>
37.4584

> <b_lp_Chiralities_Consistent>
1

> <s_lp_Variant>
AV-unprocessed.smi:2846-2

> <Gold.Version>
5.8.1

> <Gold.Id.Protein>
6NUR|6NUR_protein|mol2

> <Gold.PLP.Fitness>
50.3794

> <Gold.PLP.PLP>
-48.7634

> <Gold.PLP.part.hbond>
-1.6223

> <Gold.PLP.part.metal>
0.0000

> <Gold.PLP.part.buried>
-4.3026

> <Gold.PLP.part.nonpolar>
-42.9653

> <Gold.PLP.part.repulsive>
0.0744

> <Gold.PLP.ligand.clash>
0.0000

> <Gold.PLP.ligand.torsion>
0.7488

> <Gold.PLP.Chemscore.Hbond>
1.0000

> <Gold.PLP.Chemscore.CHOScore>
0.0000

> <Gold.PLP.Chemscore.Metal>
0.0000

> <Gold.Chemscore.Hbonds>
donor molecule, donor type, donor heavy atom, donor atom, acceptor molecule, acceptor atom, score
      L1  H    10    34       P1  8028  0.61

> <Gold.PLP.Chemscore.Internal.Correction>
0.1136

> <Gold.Rescore>
     Score         DG    S(hbond)    S(metal)    S(lipo)     H(rot)  DE(clash)    DE(int)     intcor
     19.40     -20.54       0.87        0.00     135.95       1.46       0.47       0.67       ----

> <Gold.Chemscore.Fitness>
19.4048

> <Gold.Chemscore.DG>
-20.5412

> <Gold.Chemscore.ZeroCoef>
-5.4800

> <Gold.Chemscore.Hbond>
0.8681

> <Gold.Chemscore.Metal>
0.0000

> <Gold.Chemscore.Lipo>
135.9468

> <Gold.Chemscore.Internal_Hbond>
0.0000

> <Gold.Chemscore.DEClash>
0.4666

> <Gold.Chemscore.DEInternal>
0.6697

> <Gold.Chemscore.Rot>
1.4625

> <Gold.Chemscore.Internal.Correction>
   9.000000E+99

> <Gold.Chemscore.Hbonds>
donor molecule, donor type, donor heavy atom, donor atom, acceptor molecule, acceptor atom, score
      L1  H    10    34       P1  8028  0.30

> <Gold.Chemscore.Hbond.Weighted>
-2.8995

> <Gold.Chemscore.Metal.Weighted>
-0.0000

> <Gold.Chemscore.Lipo.Weighted>
-15.9058

> <Gold.Chemscore.Internal_Hbond.Weighted>
0.0000

> <Gold.Chemscore.DEClash.Weighted>
0.4666

> <Gold.Chemscore.DEInternal.Weighted>
0.6697

> <Gold.Chemscore.Rot.Weighted>
3.7441

> <Gold.Chemscore.Internal.Correction.Weighted>
   9.000000E+99

> <Gold.Protein.RotatedTorsions>
[ 6907 6896 6895 6894 ] final   76.41 input  -60.11 | X-H torsion
[ 7974 7965 7964 7962 ] final    3.60 input  175.53 | X-H torsion
[ 8008 7997 7996 7995 ] final  166.30 input   59.86 | X-H torsion
[ 10167 10162 10161 10158 ] final  123.94 input  -65.29 | X-H torsion
[ 10718 10713 10712 10709 ] final  -13.11 input   66.30 | X-H torsion
[ 10763 10752 10751 10750 ] final    2.43 input  -60.55 | X-H torsion
[ 11005 11000 10999 10996 ] final    5.13 input  -57.11 | X-H torsion

> <Gold.Protein.ActiveResidues>
 VAL166  LYS551  ARG553  GLY616  TRP617  ASP618  TYR619  PRO620  LYS621  CYS622 
 ASP623  PHE694  ASN695  SER759  ASP760  ASP761  ALA762  ILE779  LEU786  VAL792 
 PHE793  MET794  SER795  GLU796  ALA797  LYS798  CYS799  TRP800  GLU811  SER814 

> <Gold.Protein.RotatedAtoms>
  152.5072  134.3973  159.9404 H   0  0  0  0  0  0  0  0  0  0  0  0  # atno 6907 bound_to 6896
  151.3935  133.3774  159.2731 H   0  0  0  0  0  0  0  0  0  0  0  0  # atno 6908 bound_to 6896
  150.9414  134.8844  159.7674 H   0  0  0  0  0  0  0  0  0  0  0  0  # atno 6909 bound_to 6896
  146.2445  140.0661  142.8365 H   0  0  0  0  0  0  0  0  0  0  0  0  # atno 7974 bound_to 7965
  156.1729  140.1647  156.8414 H   0  0  0  0  0  0  0  0  0  0  0  0  # atno 8008 bound_to 7997
  154.5276  140.0764  156.8321 H   0  0  0  0  0  0  0  0  0  0  0  0  # atno 8009 bound_to 7997
  155.3474  140.3388  155.4241 H   0  0  0  0  0  0  0  0  0  0  0  0  # atno 8010 bound_to 7997
  139.5770  144.6968  151.3626 H   0  0  0  0  0  0  0  0  0  0  0  0  # atno 10167 bound_to 10162
  156.6349  130.4912  149.6115 H   0  0  0  0  0  0  0  0  0  0  0  0  # atno 10718 bound_to 10713
  153.2957  135.6952  153.7251 H   0  0  0  0  0  0  0  0  0  0  0  0  # atno 10763 bound_to 10752
  153.6185  135.3431  155.3003 H   0  0  0  0  0  0  0  0  0  0  0  0  # atno 10764 bound_to 10752
  154.8536  135.4380  154.2053 H   0  0  0  0  0  0  0  0  0  0  0  0  # atno 10765 bound_to 10752
  140.5742  134.0074  155.8021 H   0  0  0  0  0  0  0  0  0  0  0  0  # atno 11005 bound_to 11000
  145.0857  140.9251  143.4798 LP  0  0  0  0  0  0  0  0  0  0  0  0  # atno 17320 bound_to 7965
  145.0823  139.2951  143.5777 LP  0  0  0  0  0  0  0  0  0  0  0  0  # atno 17321 bound_to 7965
  140.7052  143.7531  150.7470 LP  0  0  0  0  0  0  0  0  0  0  0  0  # atno 17342 bound_to 10162
  140.1054  143.4749  152.2401 LP  0  0  0  0  0  0  0  0  0  0  0  0  # atno 17343 bound_to 10162
  156.2205  130.6734  151.1363 LP  0  0  0  0  0  0  0  0  0  0  0  0  # atno 17370 bound_to 10713
  157.7189  131.0694  150.6218 LP  0  0  0  0  0  0  0  0  0  0  0  0  # atno 17371 bound_to 10713
  141.1037  133.9728  157.3034 LP  0  0  0  0  0  0  0  0  0  0  0  0  # atno 17394 bound_to 11000
  139.9347  135.0197  156.8518 LP  0  0  0  0  0  0  0  0  0  0  0  0  # atno 17395 bound_to 11000

$$$$
