AV-unprocessed.smi:3303|AV-procd|sdf|12666|dock5
  -GOLD-   2272019 03D 1   1.00000     0.00000
 Structure written by MMmdl.
 45 46  0  0  0  0  0  0  0  0  3 V2000
  147.2119  140.4514  153.3818 C   0  0  0  0  0  0  0  0  0  0  0  0
  147.8099  141.6544  154.1331 C   0  0  1  0  0  0  0  0  0  0  0  0
  146.8675  142.8752  154.0889 C   0  0  0  0  0  0  0  0  0  0  0  0
  145.6662  142.6939  154.9462 N   0  3  2  0  0  0  0  0  0  0  0  0
  144.7080  143.8104  154.7570 C   0  0  0  0  0  0  0  0  0  0  0  0
  146.0291  142.4372  156.3726 C   0  0  1  0  0  0  0  0  0  0  0  0
  144.7946  142.2250  157.2707 C   0  0  0  0  0  0  0  0  0  0  0  0
  146.9597  141.2090  156.4820 C   0  0  0  0  0  0  0  0  0  0  0  0
  148.2057  141.3060  155.5835 C   0  0  2  0  0  0  0  0  0  0  0  0
  149.1715  142.2927  156.1237 N   0  3  0  0  0  0  0  0  0  0  0  0
  150.5891  141.8941  156.0127 C   0  0  0  0  0  0  0  0  0  0  0  0
  151.1716  141.5259  157.3837 C   0  0  0  0  0  0  0  0  0  0  0  0
  151.3448  142.7428  158.2723 C   0  0  0  0  0  0  0  0  0  0  0  0
  152.5207  142.9233  159.0314 C   0  0  0  0  0  0  0  0  0  0  0  0
  152.6215  144.0663  159.8485 C   0  0  0  0  0  0  0  0  0  0  0  0
  151.5480  144.9773  159.8759 C   0  0  0  0  0  0  0  0  0  0  0  0
  150.4166  144.7050  159.0814 C   0  0  0  0  0  0  0  0  0  0  0  0
  150.3096  143.6120  158.2948 N   0  0  0  0  0  0  0  0  0  0  0  0
  146.2785  140.1109  153.8304 H   0  0  0  0  0  0  0  0  0  0  0  0
  147.9037  139.6086  153.3761 H   0  0  0  0  0  0  0  0  0  0  0  0
  147.0030  140.7052  152.3421 H   0  0  0  0  0  0  0  0  0  0  0  0
  148.7200  141.9198  153.5925 H   0  0  0  0  0  0  0  0  0  0  0  0
  147.4018  143.7703  154.4112 H   0  0  0  0  0  0  0  0  0  0  0  0
  146.5616  143.0568  153.0574 H   0  0  0  0  0  0  0  0  0  0  0  0
  145.0873  144.7329  155.1985 H   0  0  0  0  0  0  0  0  0  0  0  0
  143.7386  143.5857  155.2005 H   0  0  0  0  0  0  0  0  0  0  0  0
  144.5290  143.9916  153.6965 H   0  0  0  0  0  0  0  0  0  0  0  0
  146.5652  143.3119  156.7445 H   0  0  0  0  0  0  0  0  0  0  0  0
  145.0920  141.9407  158.2806 H   0  0  0  0  0  0  0  0  0  0  0  0
  144.1510  141.4341  156.8832 H   0  0  0  0  0  0  0  0  0  0  0  0
  144.1972  143.1312  157.3687 H   0  0  0  0  0  0  0  0  0  0  0  0
  147.2667  141.0611  157.5185 H   0  0  0  0  0  0  0  0  0  0  0  0
  146.3981  140.3131  156.2135 H   0  0  0  0  0  0  0  0  0  0  0  0
  148.6888  140.3271  155.5824 H   0  0  0  0  0  0  0  0  0  0  0  0
  149.0491  143.1657  155.6306 H   0  0  0  0  0  0  0  0  0  0  0  0
  150.6659  141.0439  155.3332 H   0  0  0  0  0  0  0  0  0  0  0  0
  151.1611  142.7135  155.5747 H   0  0  0  0  0  0  0  0  0  0  0  0
  150.5238  140.8046  157.8842 H   0  0  0  0  0  0  0  0  0  0  0  0
  152.1397  141.0373  157.2623 H   0  0  0  0  0  0  0  0  0  0  0  0
  153.3271  142.2056  158.9925 H   0  0  0  0  0  0  0  0  0  0  0  0
  153.5054  144.2402  160.4445 H   0  0  0  0  0  0  0  0  0  0  0  0
  151.5900  145.8640  160.4911 H   0  0  0  0  0  0  0  0  0  0  0  0
  149.5747  145.3813  159.0785 H   0  0  0  0  0  0  0  0  0  0  0  0
  148.9650  142.4443  157.1009 H   0  0  0  0  0  0  0  0  0  0  0  0
  145.1995  141.8628  154.6105 H   0  0  0  0  0  0  0  0  0  0  0  0
  1  2  1  0  0  0  0
  1 19  1  0  0  0  0
  1 20  1  0  0  0  0
  1 21  1  0  0  0  0
  2  9  1  0  0  0  0
  2  3  1  0  0  0  0
  2 22  1  0  0  0  0
  3  4  1  0  0  0  0
  3 23  1  0  0  0  0
  3 24  1  0  0  0  0
  4  5  1  0  0  0  0
  4  6  1  0  0  0  0
  4 45  1  0  0  0  0
  5 25  1  0  0  0  0
  5 26  1  0  0  0  0
  5 27  1  0  0  0  0
  6  7  1  0  0  0  0
  6  8  1  0  0  0  0
  6 28  1  0  0  0  0
  7 29  1  0  0  0  0
  7 30  1  0  0  0  0
  7 31  1  0  0  0  0
  8  9  1  0  0  0  0
  8 32  1  0  0  0  0
  8 33  1  0  0  0  0
  9 10  1  0  0  0  0
  9 34  1  0  0  0  0
 10 11  1  0  0  0  0
 10 35  1  0  0  0  0
 10 44  1  0  0  0  0
 11 12  1  0  0  0  0
 11 36  1  0  0  0  0
 11 37  1  0  0  0  0
 12 13  1  0  0  0  0
 12 38  1  0  0  0  0
 12 39  1  0  0  0  0
 13 18  1  0  0  0  0
 13 14  2  0  0  0  0
 14 15  1  0  0  0  0
 14 40  1  0  0  0  0
 15 16  2  0  0  0  0
 15 41  1  0  0  0  0
 16 17  1  0  0  0  0
 16 42  1  0  0  0  0
 17 18  2  0  0  0  0
 17 43  1  0  0  0  0
M  CHG  1   4   1
M  CHG  1  10   1
M  END
> <s_m_source_file>
AV-unprocessed.smi

> <i_m_source_file_index>
3303

> <i_lp_mmshare_version>
43012

> <i_f3d_flags>
0

> <s_epik_input>
W0NIM11bQ0BASF0xW0NIMl1OKFtDSDNdKVtDQEBIXShbQ0gzXSlbQ0gyXVtDQEhdMVtOSF1bQ0gyXVtDSDJdYzJbY0hdW2NIXVtjSF1bY0hdbjI=

> <s_epik_cmdline>
J2VwaWtfcHl0aG9uJywgJy1waCcsICc3LjAnLCAnLXRuJywgJzgnLCAnLW1hJywgJzIwMCcsICctbWV0YWxfYmluZGluZycsICctaW1hZScsICc8aW5maWxlLm1hZT4nLCAnLW9tYWUnLCAnPG91dGZpbGUubWFlPic=

> <r_epik_Ionization_Penalty>
0.0769462

> <r_epik_Ionization_Penalty_Charging>
0.0759813

> <r_epik_Ionization_Penalty_Neutral>
0.000964829

> <r_epik_State_Penalty>
0.0654373

> <r_epik_Charging_Adjusted_Penalty>
0.141419

> <i_epik_Tot_Q>
2

> <i_epik_Tot_abs_Q>
2

> <r_epik_Metal_State_Penalty>
0.0656439

> <b_epik_Metal_Only>
0

> <s_lp_Force_Field>
OPLS_2005

> <r_lp_Energy>
35.1377

> <b_lp_Chiralities_Consistent>
1

> <s_lp_Variant>
AV-unprocessed.smi:3303-10

> <Gold.Version>
5.8.1

> <Gold.Id.Protein>
6NUR|6NUR_protein|mol2

> <Gold.PLP.Fitness>
43.2864

> <Gold.PLP.PLP>
-36.4557

> <Gold.PLP.part.hbond>
-0.8496

> <Gold.PLP.part.metal>
0.0000

> <Gold.PLP.part.buried>
-5.3311

> <Gold.PLP.part.nonpolar>
-31.1470

> <Gold.PLP.part.repulsive>
0.2964

> <Gold.PLP.ligand.clash>
0.0000

> <Gold.PLP.ligand.torsion>
1.0953

> <Gold.PLP.Chemscore.Hbond>
2.0000

> <Gold.PLP.Chemscore.CHOScore>
1.0000

> <Gold.PLP.Chemscore.Metal>
0.0000

> <Gold.Chemscore.Hbonds>
donor molecule, donor type, donor heavy atom, donor atom, acceptor molecule, acceptor atom, score
      L1  H    10    35       P1  8028  2.00
      L1  C    17    43       P1  8029  1.00

> <Gold.PLP.Chemscore.Internal.Correction>
0.0212

> <Gold.Rescore>
     Score         DG    S(hbond)    S(metal)    S(lipo)     H(rot)  DE(clash)    DE(int)     intcor
     15.45     -17.66       0.94        0.00     107.30       1.37       0.02       2.19       ----

> <Gold.Chemscore.Fitness>
15.4498

> <Gold.Chemscore.DG>
-17.6625

> <Gold.Chemscore.ZeroCoef>
-5.4800

> <Gold.Chemscore.Hbond>
0.9422

> <Gold.Chemscore.Metal>
0.0000

> <Gold.Chemscore.Lipo>
107.2997

> <Gold.Chemscore.Internal_Hbond>
0.0000

> <Gold.Chemscore.DEClash>
0.0187

> <Gold.Chemscore.DEInternal>
2.1939

> <Gold.Chemscore.Rot>
1.3744

> <Gold.Chemscore.Internal.Correction>
   9.000000E+99

> <Gold.Chemscore.Hbonds>
donor molecule, donor type, donor heavy atom, donor atom, acceptor molecule, acceptor atom, score
      L1  H    10    35       P1  8028  0.91

> <Gold.Chemscore.Hbond.Weighted>
-3.1469

> <Gold.Chemscore.Metal.Weighted>
-0.0000

> <Gold.Chemscore.Lipo.Weighted>
-12.5541

> <Gold.Chemscore.Internal_Hbond.Weighted>
0.0000

> <Gold.Chemscore.DEClash.Weighted>
0.0187

> <Gold.Chemscore.DEInternal.Weighted>
2.1939

> <Gold.Chemscore.Rot.Weighted>
3.5185

> <Gold.Chemscore.Internal.Correction.Weighted>
   9.000000E+99

> <Gold.Protein.RotatedTorsions>
[ 6907 6896 6895 6894 ] final  -96.40 input  -60.11 | X-H torsion
[ 7974 7965 7964 7962 ] final   -2.16 input  175.53 | X-H torsion
[ 8008 7997 7996 7995 ] final   67.52 input   59.86 | X-H torsion
[ 10167 10162 10161 10158 ] final  179.26 input  -65.29 | X-H torsion
[ 10718 10713 10712 10709 ] final  149.03 input   66.30 | X-H torsion
[ 10763 10752 10751 10750 ] final  -87.89 input  -60.55 | X-H torsion
[ 11005 11000 10999 10996 ] final -157.89 input  -57.11 | X-H torsion

> <Gold.Protein.ActiveResidues>
 VAL166  LYS551  ARG553  GLY616  TRP617  ASP618  TYR619  PRO620  LYS621  CYS622 
 ASP623  PHE694  ASN695  SER759  ASP760  ASP761  ALA762  ILE779  LEU786  VAL792 
 PHE793  MET794  SER795  GLU796  ALA797  LYS798  CYS799  TRP800  GLU811  SER814 

> <Gold.Protein.RotatedAtoms>
  150.6988  134.1508  159.4139 H   0  0  0  0  0  0  0  0  0  0  0  0  # atno 6907 bound_to 6896
  151.9491  135.0175  160.0550 H   0  0  0  0  0  0  0  0  0  0  0  0  # atno 6908 bound_to 6896
  152.2026  133.4817  159.5104 H   0  0  0  0  0  0  0  0  0  0  0  0  # atno 6909 bound_to 6896
  146.2408  140.1529  142.8333 H   0  0  0  0  0  0  0  0  0  0  0  0  # atno 7974 bound_to 7965
  155.6942  140.3496  155.4906 H   0  0  0  0  0  0  0  0  0  0  0  0  # atno 8008 bound_to 7997
  155.9497  140.1117  157.1009 H   0  0  0  0  0  0  0  0  0  0  0  0  # atno 8009 bound_to 7997
  154.4119  140.1196  156.5023 H   0  0  0  0  0  0  0  0  0  0  0  0  # atno 8010 bound_to 7997
  139.5328  144.2583  152.0728 H   0  0  0  0  0  0  0  0  0  0  0  0  # atno 10167 bound_to 10162
  157.3013  131.0871  151.1388 H   0  0  0  0  0  0  0  0  0  0  0  0  # atno 10718 bound_to 10713
  154.6386  135.5397  153.7762 H   0  0  0  0  0  0  0  0  0  0  0  0  # atno 10763 bound_to 10752
  153.0321  135.6453  154.1194 H   0  0  0  0  0  0  0  0  0  0  0  0  # atno 10764 bound_to 10752
  154.1120  135.2926  155.3208 H   0  0  0  0  0  0  0  0  0  0  0  0  # atno 10765 bound_to 10752
  140.6596  134.4363  157.5234 H   0  0  0  0  0  0  0  0  0  0  0  0  # atno 11005 bound_to 11000
  145.0152  140.8748  143.5200 LP  0  0  0  0  0  0  0  0  0  0  0  0  # atno 17320 bound_to 7965
  145.1569  139.2481  143.5412 LP  0  0  0  0  0  0  0  0  0  0  0  0  # atno 17321 bound_to 7965
  140.2049  144.4621  150.6413 LP  0  0  0  0  0  0  0  0  0  0  0  0  # atno 17342 bound_to 10162
  140.6518  143.2227  151.6061 LP  0  0  0  0  0  0  0  0  0  0  0  0  # atno 17343 bound_to 10162
  157.2746  130.6721  149.6036 LP  0  0  0  0  0  0  0  0  0  0  0  0  # atno 17370 bound_to 10713
  155.9672  130.4468  150.5557 LP  0  0  0  0  0  0  0  0  0  0  0  0  # atno 17371 bound_to 10713
  139.9017  134.8540  156.1867 LP  0  0  0  0  0  0  0  0  0  0  0  0  # atno 17394 bound_to 11000
  141.0475  133.6906  156.1710 LP  0  0  0  0  0  0  0  0  0  0  0  0  # atno 17395 bound_to 11000

$$$$
