AV-unprocessed.smi:1906|AV-procd|sdf|7730|dock3
  -GOLD-   22720 9473D 1   1.00000     0.00000
 Structure written by MMmdl.
 36 38  0  0  0  0  0  0  0  0  2 V2000
  151.6771  137.9155  154.4475 C   0  0  0  0  0  0  0  0  0  0  0  0
  150.5207  138.8529  154.3443 C   0  0  0  0  0  0  0  0  0  0  0  0
  149.4055  138.6646  153.5836 N   0  3  0  0  0  0  0  0  0  0  0  0
  148.5415  139.7501  153.7341 C   0  0  0  0  0  0  0  0  0  0  0  0
  147.2976  140.0114  153.1679 C   0  0  0  0  0  0  0  0  0  0  0  0
  146.6767  141.2231  153.5363 C   0  0  0  0  0  0  0  0  0  0  0  0
  147.2913  142.1203  154.4340 C   0  0  0  0  0  0  0  0  0  0  0  0
  148.5528  141.8446  155.0014 C   0  0  0  0  0  0  0  0  0  0  0  0
  149.1597  140.6449  154.6311 C   0  0  0  0  0  0  0  0  0  0  0  0
  150.3793  140.0532  154.9776 N   0  0  0  0  0  0  0  0  0  0  0  0
  151.2789  140.7558  155.9058 C   0  0  0  0  0  0  0  0  0  0  0  0
  150.8640  140.5873  157.3817 C   0  0  1  0  0  0  0  0  0  0  0  0
  151.0483  139.2330  157.7380 O   0  0  0  0  0  0  0  0  0  0  0  0
  151.6144  141.5379  158.3040 C   0  0  0  0  0  0  0  0  0  0  0  0
  152.4077  141.0429  159.3630 C   0  0  0  0  0  0  0  0  0  0  0  0
  153.1143  141.9323  160.1959 C   0  0  0  0  0  0  0  0  0  0  0  0
  153.0344  143.3203  159.9737 C   0  0  0  0  0  0  0  0  0  0  0  0
  152.2471  143.8192  158.9184 C   0  0  0  0  0  0  0  0  0  0  0  0
  152.1739  145.1533  158.6997 F   0  0  0  0  0  0  0  0  0  0  0  0
  151.5386  142.9307  158.0870 C   0  0  0  0  0  0  0  0  0  0  0  0
  151.4596  136.9812  153.9295 H   0  0  0  0  0  0  0  0  0  0  0  0
  151.8902  137.6892  155.4923 H   0  0  0  0  0  0  0  0  0  0  0  0
  152.5644  138.3606  153.9980 H   0  0  0  0  0  0  0  0  0  0  0  0
  146.8243  139.3257  152.4804 H   0  0  0  0  0  0  0  0  0  0  0  0
  145.7092  141.4692  153.1226 H   0  0  0  0  0  0  0  0  0  0  0  0
  146.7847  143.0389  154.6931 H   0  0  0  0  0  0  0  0  0  0  0  0
  149.0158  142.5378  155.6884 H   0  0  0  0  0  0  0  0  0  0  0  0
  152.2901  140.3813  155.7403 H   0  0  0  0  0  0  0  0  0  0  0  0
  151.2949  141.8108  155.6300 H   0  0  0  0  0  0  0  0  0  0  0  0
  149.7960  140.7837  157.4811 H   0  0  0  0  0  0  0  0  0  0  0  0
  151.8812  139.1486  158.1767 H   0  0  0  0  0  0  0  0  0  0  0  0
  152.4827  139.9792  159.5367 H   0  0  0  0  0  0  0  0  0  0  0  0
  153.7199  141.5489  161.0040 H   0  0  0  0  0  0  0  0  0  0  0  0
  153.5784  144.0014  160.6114 H   0  0  0  0  0  0  0  0  0  0  0  0
  150.9427  143.3215  157.2752 H   0  0  0  0  0  0  0  0  0  0  0  0
  149.2495  137.8502  153.0036 H   0  0  0  0  0  0  0  0  0  0  0  0
  1  2  1  0  0  0  0
  1 21  1  0  0  0  0
  1 22  1  0  0  0  0
  1 23  1  0  0  0  0
  2 10  1  0  0  0  0
  2  3  2  0  0  0  0
  3  4  1  0  0  0  0
  3 36  1  0  0  0  0
  4  9  2  0  0  0  0
  4  5  1  0  0  0  0
  5  6  2  0  0  0  0
  5 24  1  0  0  0  0
  6  7  1  0  0  0  0
  6 25  1  0  0  0  0
  7  8  2  0  0  0  0
  7 26  1  0  0  0  0
  8  9  1  0  0  0  0
  8 27  1  0  0  0  0
  9 10  1  0  0  0  0
 10 11  1  0  0  0  0
 11 12  1  0  0  0  0
 11 28  1  0  0  0  0
 11 29  1  0  0  0  0
 12 13  1  0  0  0  0
 12 14  1  0  0  0  0
 12 30  1  0  0  0  0
 13 31  1  0  0  0  0
 14 20  1  0  0  0  0
 14 15  2  0  0  0  0
 15 16  1  0  0  0  0
 15 32  1  0  0  0  0
 16 17  2  0  0  0  0
 16 33  1  0  0  0  0
 17 18  1  0  0  0  0
 17 34  1  0  0  0  0
 18 19  1  0  0  0  0
 18 20  2  0  0  0  0
 20 35  1  0  0  0  0
M  CHG  1   3   1
M  END
> <s_m_source_file>
AV-unprocessed.smi

> <i_m_source_file_index>
1906

> <i_lp_mmshare_version>
43012

> <i_f3d_flags>
0

> <s_epik_input>
W2NIXTFbY0hdW2NIXVtjSF1jKGMxMiluKGMobjIpW0NIM10pW0NIMl1bQ0BIXShbT0hdKWMzW2NIXVtjSF1bY0hdYyhGKVtjSF0z

> <s_epik_cmdline>
J2VwaWtfcHl0aG9uJywgJy1waCcsICc3LjAnLCAnLXRuJywgJzgnLCAnLW1hJywgJzIwMCcsICctbWV0YWxfYmluZGluZycsICctaW1hZScsICc8aW5maWxlLm1hZT4nLCAnLW9tYWUnLCAnPG91dGZpbGUubWFlPic=

> <r_epik_Ionization_Penalty>
0.963871

> <r_epik_Ionization_Penalty_Charging>
0.963868

> <r_epik_Ionization_Penalty_Neutral>
3.53208e-06

> <r_epik_State_Penalty>
1.00924

> <r_epik_Charging_Adjusted_Penalty>
1.9731

> <i_epik_Tot_Q>
1

> <i_epik_Tot_abs_Q>
1

> <r_epik_Metal_State_Penalty>
4.98304

> <b_epik_Metal_Only>
0

> <s_lp_Force_Field>
OPLS_2005

> <r_lp_Energy>
15.2016

> <b_lp_Chiralities_Consistent>
1

> <s_lp_Variant>
AV-unprocessed.smi:1906-4

> <Gold.Version>
5.8.1

> <Gold.Id.Protein>
6NUR|6NUR_protein|mol2

> <Gold.PLP.Fitness>
55.9045

> <Gold.PLP.PLP>
-50.5559

> <Gold.PLP.part.hbond>
-2.0000

> <Gold.PLP.part.metal>
0.0000

> <Gold.PLP.part.buried>
2.4867

> <Gold.PLP.part.nonpolar>
-50.1698

> <Gold.PLP.part.repulsive>
0.0758

> <Gold.PLP.ligand.clash>
0.0000

> <Gold.PLP.ligand.torsion>
0.3320

> <Gold.PLP.Chemscore.Hbond>
2.0000

> <Gold.PLP.Chemscore.CHOScore>
0.0000

> <Gold.PLP.Chemscore.Metal>
0.0000

> <Gold.Chemscore.Hbonds>
donor molecule, donor type, donor heavy atom, donor atom, acceptor molecule, acceptor atom, score
      L1  H     3    36       P1  7948  2.00

> <Gold.PLP.Chemscore.Internal.Correction>
0.0126

> <Gold.Rescore>
     Score         DG    S(hbond)    S(metal)    S(lipo)     H(rot)  DE(clash)    DE(int)     intcor
     17.81     -18.38       0.99        0.00     122.36       1.85       0.27       0.29       ----

> <Gold.Chemscore.Fitness>
17.8148

> <Gold.Chemscore.DG>
-18.3806

> <Gold.Chemscore.ZeroCoef>
-5.4800

> <Gold.Chemscore.Hbond>
0.9915

> <Gold.Chemscore.Metal>
0.0000

> <Gold.Chemscore.Lipo>
122.3598

> <Gold.Chemscore.Internal_Hbond>
0.0000

> <Gold.Chemscore.DEClash>
0.2745

> <Gold.Chemscore.DEInternal>
0.2913

> <Gold.Chemscore.Rot>
1.8465

> <Gold.Chemscore.Internal.Correction>
   9.000000E+99

> <Gold.Chemscore.Hbonds>
donor molecule, donor type, donor heavy atom, donor atom, acceptor molecule, acceptor atom, score
      L1  H     3    36       P1  7948  0.96

> <Gold.Chemscore.Hbond.Weighted>
-3.3115

> <Gold.Chemscore.Metal.Weighted>
-0.0000

> <Gold.Chemscore.Lipo.Weighted>
-14.3161

> <Gold.Chemscore.Internal_Hbond.Weighted>
0.0000

> <Gold.Chemscore.DEClash.Weighted>
0.2745

> <Gold.Chemscore.DEInternal.Weighted>
0.2913

> <Gold.Chemscore.Rot.Weighted>
4.7270

> <Gold.Chemscore.Internal.Correction.Weighted>
   9.000000E+99

> <Gold.Protein.RotatedTorsions>
[ 6907 6896 6895 6894 ] final  103.20 input  -60.11 | X-H torsion
[ 7974 7965 7964 7962 ] final  124.46 input  175.53 | X-H torsion
[ 8008 7997 7996 7995 ] final  173.90 input   59.86 | X-H torsion
[ 10167 10162 10161 10158 ] final -173.59 input  -65.29 | X-H torsion
[ 10718 10713 10712 10709 ] final  -13.52 input   66.30 | X-H torsion
[ 10763 10752 10751 10750 ] final -132.01 input  -60.55 | X-H torsion
[ 11005 11000 10999 10996 ] final   86.04 input  -57.11 | X-H torsion

> <Gold.Protein.ActiveResidues>
 VAL166  LYS551  ARG553  GLY616  TRP617  ASP618  TYR619  PRO620  LYS621  CYS622 
 ASP623  PHE694  ASN695  SER759  ASP760  ASP761  ALA762  ILE779  LEU786  VAL792 
 PHE793  MET794  SER795  GLU796  ALA797  LYS798  CYS799  TRP800  GLU811  SER814 

> <Gold.Protein.RotatedAtoms>
  152.5302  133.9861  159.7828 H   0  0  0  0  0  0  0  0  0  0  0  0  # atno 6907 bound_to 6896
  151.0106  133.5961  159.2690 H   0  0  0  0  0  0  0  0  0  0  0  0  # atno 6908 bound_to 6896
  151.3037  135.0782  159.9301 H   0  0  0  0  0  0  0  0  0  0  0  0  # atno 6909 bound_to 6896
  145.0841  139.3635  143.4894 H   0  0  0  0  0  0  0  0  0  0  0  0  # atno 7974 bound_to 7965
  156.1029  140.1448  156.9443 H   0  0  0  0  0  0  0  0  0  0  0  0  # atno 8008 bound_to 7997
  154.4714  140.0908  156.7200 H   0  0  0  0  0  0  0  0  0  0  0  0  # atno 8009 bound_to 7997
  155.4729  140.3442  155.4330 H   0  0  0  0  0  0  0  0  0  0  0  0  # atno 8010 bound_to 7997
  139.5680  144.1709  152.1341 H   0  0  0  0  0  0  0  0  0  0  0  0  # atno 10167 bound_to 10162
  156.6290  130.4896  149.6136 H   0  0  0  0  0  0  0  0  0  0  0  0  # atno 10718 bound_to 10713
  154.8746  135.3811  154.4340 H   0  0  0  0  0  0  0  0  0  0  0  0  # atno 10763 bound_to 10752
  153.5031  135.7030  153.5826 H   0  0  0  0  0  0  0  0  0  0  0  0  # atno 10764 bound_to 10752
  153.4149  135.3915  155.2040 H   0  0  0  0  0  0  0  0  0  0  0  0  # atno 10765 bound_to 10752
  139.8955  134.8328  156.2666 H   0  0  0  0  0  0  0  0  0  0  0  0  # atno 11005 bound_to 11000
  146.3531  140.0645  142.8627 LP  0  0  0  0  0  0  0  0  0  0  0  0  # atno 17320 bound_to 7965
  145.1143  140.9424  143.4638 LP  0  0  0  0  0  0  0  0  0  0  0  0  # atno 17321 bound_to 7965
  140.1236  144.5351  150.6847 LP  0  0  0  0  0  0  0  0  0  0  0  0  # atno 17342 bound_to 10162
  140.6964  143.2406  151.4989 LP  0  0  0  0  0  0  0  0  0  0  0  0  # atno 17343 bound_to 10162
  156.2250  130.6760  151.1406 LP  0  0  0  0  0  0  0  0  0  0  0  0  # atno 17370 bound_to 10713
  157.7205  131.0684  150.6153 LP  0  0  0  0  0  0  0  0  0  0  0  0  # atno 17371 bound_to 10713
  141.0128  133.7086  156.1139 LP  0  0  0  0  0  0  0  0  0  0  0  0  # atno 17394 bound_to 11000
  140.7344  134.4219  157.5562 LP  0  0  0  0  0  0  0  0  0  0  0  0  # atno 17395 bound_to 11000

$$$$
