AV-unprocessed.smi:596|AV-procd|sdf|3019|dock1
  -GOLD-   2262023523D 1   1.00000     0.00000
 Structure written by MMmdl.
 41 42  0  0  0  0  0  0  0  0  3 V2000
  147.5895  140.2732  158.2781 O   0  0  0  0  0  0  0  0  0  0  0  0
  147.4983  141.4071  157.8091 C   0  0  0  0  0  0  0  0  0  0  0  0
  146.2024  142.2047  158.0375 C   0  0  0  0  0  0  0  0  0  0  0  0
  145.7026  142.1974  159.4246 N   0  0  0  0  0  0  0  0  0  0  0  0
  144.4079  141.6817  159.6322 C   0  0  0  0  0  0  0  0  0  0  0  0
  143.8506  141.6173  160.8571 C   0  0  0  0  0  0  0  0  0  0  0  0
  142.5251  141.0727  161.0529 N   0  3  0  0  0  0  0  0  0  0  0  0
  141.8629  140.7678  160.0663 O   0  0  0  0  0  0  0  0  0  0  0  0
  142.1015  140.9335  162.1965 O   0  5  0  0  0  0  0  0  0  0  0  0
  144.6294  142.1060  161.9784 C   0  0  0  0  0  0  0  0  0  0  0  0
  145.8698  142.5965  161.7872 C   0  0  0  0  0  0  0  0  0  0  0  0
  146.4780  142.6569  160.4542 C   0  0  0  0  0  0  0  0  0  0  0  0
  147.6167  143.0884  160.2752 O   0  0  0  0  0  0  0  0  0  0  0  0
  148.4896  141.9840  157.1080 N   0  0  0  0  0  0  0  0  0  0  0  0
  149.7812  141.3749  156.8168 C   0  0  0  0  0  0  0  0  0  0  0  0
  150.8983  142.4309  156.7545 C   0  0  0  0  0  0  0  0  0  0  0  0
  151.6540  142.5635  158.0660 C   0  0  0  0  0  0  0  0  0  0  0  0
  152.2793  141.5157  158.6374 C   0  0  0  0  0  0  0  0  0  0  0  0
  153.0632  141.5938  159.9359 C   0  0  0  0  0  0  0  0  0  0  0  0
  153.3594  143.0433  160.3560 C   0  0  0  0  0  0  0  0  0  0  0  0
  152.1281  143.9376  160.1658 C   0  0  0  0  0  0  0  0  0  0  0  0
  151.6665  143.9514  158.6973 C   0  0  0  0  0  0  0  0  0  0  0  0
  146.3626  143.2277  157.6931 H   0  0  0  0  0  0  0  0  0  0  0  0
  145.4400  141.8038  157.3681 H   0  0  0  0  0  0  0  0  0  0  0  0
  143.9151  141.3371  158.7343 H   0  0  0  0  0  0  0  0  0  0  0  0
  144.2237  142.0830  162.9793 H   0  0  0  0  0  0  0  0  0  0  0  0
  146.4326  142.9551  162.6365 H   0  0  0  0  0  0  0  0  0  0  0  0
  148.3384  142.9175  156.7542 H   0  0  0  0  0  0  0  0  0  0  0  0
  150.0149  140.6129  157.5625 H   0  0  0  0  0  0  0  0  0  0  0  0
  149.6934  140.8583  155.8610 H   0  0  0  0  0  0  0  0  0  0  0  0
  151.6091  142.1820  155.9656 H   0  0  0  0  0  0  0  0  0  0  0  0
  150.4727  143.3993  156.4880 H   0  0  0  0  0  0  0  0  0  0  0  0
  152.2335  140.5425  158.1705 H   0  0  0  0  0  0  0  0  0  0  0  0
  152.4845  141.0882  160.7094 H   0  0  0  0  0  0  0  0  0  0  0  0
  153.9971  141.0420  159.8263 H   0  0  0  0  0  0  0  0  0  0  0  0
  153.6935  143.0698  161.3935 H   0  0  0  0  0  0  0  0  0  0  0  0
  154.1819  143.4362  159.7565 H   0  0  0  0  0  0  0  0  0  0  0  0
  151.3185  143.5701  160.7981 H   0  0  0  0  0  0  0  0  0  0  0  0
  152.3419  144.9536  160.4982 H   0  0  0  0  0  0  0  0  0  0  0  0
  152.3299  144.5874  158.1104 H   0  0  0  0  0  0  0  0  0  0  0  0
  150.6703  144.3905  158.6342 H   0  0  0  0  0  0  0  0  0  0  0  0
  1  2  2  0  0  0  0
  2  3  1  0  0  0  0
  2 14  1  0  0  0  0
  3  4  1  0  0  0  0
  3 23  1  0  0  0  0
  3 24  1  0  0  0  0
  4 12  1  0  0  0  0
  4  5  1  0  0  0  0
  5  6  2  0  0  0  0
  5 25  1  0  0  0  0
  6  7  1  0  0  0  0
  6 10  1  0  0  0  0
  7  8  2  0  0  0  0
  7  9  1  0  0  0  0
 10 11  2  0  0  0  0
 10 26  1  0  0  0  0
 11 12  1  0  0  0  0
 11 27  1  0  0  0  0
 12 13  2  0  0  0  0
 14 15  1  0  0  0  0
 14 28  1  0  0  0  0
 15 16  1  0  0  0  0
 15 29  1  0  0  0  0
 15 30  1  0  0  0  0
 16 17  1  0  0  0  0
 16 31  1  0  0  0  0
 16 32  1  0  0  0  0
 17 22  1  0  0  0  0
 17 18  2  0  0  0  0
 18 19  1  0  0  0  0
 18 33  1  0  0  0  0
 19 20  1  0  0  0  0
 19 34  1  0  0  0  0
 19 35  1  0  0  0  0
 20 21  1  0  0  0  0
 20 36  1  0  0  0  0
 20 37  1  0  0  0  0
 21 22  1  0  0  0  0
 21 38  1  0  0  0  0
 21 39  1  0  0  0  0
 22 40  1  0  0  0  0
 22 41  1  0  0  0  0
M  CHG  1   7   1
M  CHG  1   9  -1
M  END
> <s_m_source_file>
AV-unprocessed.smi

> <i_m_source_file_index>
596

> <i_lp_mmshare_version>
43012

> <i_f3d_flags>
0

> <s_epik_input>
Tz1jMVtjSF1bY0hdYyhbTitdKD1PKVtPLV0pW2NIXW4xW0NIMl1DKD1PKVtOSF1bQ0gyXVtDSDJdQzI9W0NIXVtDSDJdW0NIMl1bQ0gyXVtDSDJdMg==

> <s_epik_cmdline>
J2VwaWtfcHl0aG9uJywgJy1waCcsICc3LjAnLCAnLXRuJywgJzgnLCAnLW1hJywgJzIwMCcsICctbWV0YWxfYmluZGluZycsICctaW1hZScsICc8aW5maWxlLm1hZT4nLCAnLW9tYWUnLCAnPG91dGZpbGUubWFlPic=

> <r_lp_tautomer_probability>
1

> <r_epik_Ionization_Penalty>
1.81809e-08

> <r_epik_Ionization_Penalty_Charging>
7.7346e-11

> <r_epik_Ionization_Penalty_Neutral>
1.81035e-08

> <r_epik_State_Penalty>
-0

> <r_epik_Charging_Adjusted_Penalty>
7.7346e-11

> <i_epik_Tot_Q>
0

> <i_epik_Tot_abs_Q>
2

> <r_epik_Metal_State_Penalty>
-0

> <b_epik_Metal_Only>
0

> <s_lp_Force_Field>
OPLS_2005

> <r_lp_Energy>
18.9868

> <b_lp_Chiralities_Consistent>
1

> <s_lp_Variant>
AV-unprocessed.smi:596-1

> <Gold.Version>
5.8.1

> <Gold.Id.Protein>
6NUR|6NUR_protein|mol2

> <Gold.PLP.Fitness>
47.9006

> <Gold.PLP.PLP>
-42.8844

> <Gold.PLP.part.hbond>
-4.8203

> <Gold.PLP.part.metal>
0.0000

> <Gold.PLP.part.buried>
-6.5281

> <Gold.PLP.part.nonpolar>
-31.8385

> <Gold.PLP.part.repulsive>
0.1344

> <Gold.PLP.ligand.clash>
0.0000

> <Gold.PLP.ligand.torsion>
0.6008

> <Gold.PLP.Chemscore.Hbond>
2.0429

> <Gold.PLP.Chemscore.CHOScore>
0.0000

> <Gold.PLP.Chemscore.Metal>
0.0000

> <Gold.Chemscore.Hbonds>
donor molecule, donor type, donor heavy atom, donor atom, acceptor molecule, acceptor atom, score
      L1  H    14    28       P1  8028  0.67
      P1  H  6933  6944       L1    13  1.00

> <Gold.PLP.Chemscore.Internal.Correction>
0.0892

> <Gold.Rescore>
     Score         DG    S(hbond)    S(metal)    S(lipo)     H(rot)  DE(clash)    DE(int)     intcor
     15.33     -17.45       1.86        0.00      92.69       1.98       0.01       2.10       ----

> <Gold.Chemscore.Fitness>
15.3330

> <Gold.Chemscore.DG>
-17.4456

> <Gold.Chemscore.ZeroCoef>
-5.4800

> <Gold.Chemscore.Hbond>
1.8559

> <Gold.Chemscore.Metal>
0.0000

> <Gold.Chemscore.Lipo>
92.6896

> <Gold.Chemscore.Internal_Hbond>
0.0000

> <Gold.Chemscore.DEClash>
0.0098

> <Gold.Chemscore.DEInternal>
2.1028

> <Gold.Chemscore.Rot>
1.9835

> <Gold.Chemscore.Internal.Correction>
   9.000000E+99

> <Gold.Chemscore.Hbonds>
donor molecule, donor type, donor heavy atom, donor atom, acceptor molecule, acceptor atom, score
      L1  H    14    28       P1  8028  0.36
      P1  H  6933  6944       L1    13  0.42

> <Gold.Chemscore.Hbond.Weighted>
-6.1987

> <Gold.Chemscore.Metal.Weighted>
-0.0000

> <Gold.Chemscore.Lipo.Weighted>
-10.8447

> <Gold.Chemscore.Internal_Hbond.Weighted>
0.0000

> <Gold.Chemscore.DEClash.Weighted>
0.0098

> <Gold.Chemscore.DEInternal.Weighted>
2.1028

> <Gold.Chemscore.Rot.Weighted>
5.0778

> <Gold.Chemscore.Internal.Correction.Weighted>
   9.000000E+99

> <Gold.Protein.RotatedTorsions>
[ 6907 6896 6895 6894 ] final  -96.08 input  -60.11 | X-H torsion
[ 7974 7965 7964 7962 ] final  -71.27 input  175.53 | X-H torsion
[ 8008 7997 7996 7995 ] final  -51.54 input   59.86 | X-H torsion
[ 10167 10162 10161 10158 ] final  171.02 input  -65.29 | X-H torsion
[ 10718 10713 10712 10709 ] final   17.67 input   66.30 | X-H torsion
[ 10763 10752 10751 10750 ] final  139.07 input  -60.55 | X-H torsion
[ 11005 11000 10999 10996 ] final  109.18 input  -57.11 | X-H torsion

> <Gold.Protein.ActiveResidues>
 VAL166  LYS551  ARG553  GLY616  TRP617  ASP618  TYR619  PRO620  LYS621  CYS622 
 ASP623  PHE694  ASN695  SER759  ASP760  ASP761  ALA762  ILE779  LEU786  VAL792 
 PHE793  MET794  SER795  GLU796  ALA797  LYS798  CYS799  TRP800  GLU811  SER814 

> <Gold.Protein.RotatedAtoms>
  150.6980  134.1557  159.4157 H   0  0  0  0  0  0  0  0  0  0  0  0  # atno 6907 bound_to 6896
  151.9539  135.0153  160.0553 H   0  0  0  0  0  0  0  0  0  0  0  0  # atno 6908 bound_to 6896
  152.1986  133.4790  159.5083 H   0  0  0  0  0  0  0  0  0  0  0  0  # atno 6909 bound_to 6896
  145.6802  140.9190  143.0836 H   0  0  0  0  0  0  0  0  0  0  0  0  # atno 7974 bound_to 7965
  154.4085  140.1245  156.4846 H   0  0  0  0  0  0  0  0  0  0  0  0  # atno 8008 bound_to 7997
  155.7051  140.3494  155.4930 H   0  0  0  0  0  0  0  0  0  0  0  0  # atno 8009 bound_to 7997
  155.9351  140.1077  157.1091 H   0  0  0  0  0  0  0  0  0  0  0  0  # atno 8010 bound_to 7997
  139.5035  144.3532  151.9901 H   0  0  0  0  0  0  0  0  0  0  0  0  # atno 10167 bound_to 10162
  157.0854  130.6405  149.5836 H   0  0  0  0  0  0  0  0  0  0  0  0  # atno 10718 bound_to 10713
  153.9001  135.3023  155.3448 H   0  0  0  0  0  0  0  0  0  0  0  0  # atno 10763 bound_to 10752
  154.7675  135.4903  153.9585 H   0  0  0  0  0  0  0  0  0  0  0  0  # atno 10764 bound_to 10752
  153.1250  135.6791  153.9372 H   0  0  0  0  0  0  0  0  0  0  0  0  # atno 10765 bound_to 10752
  139.8857  134.9451  156.6085 H   0  0  0  0  0  0  0  0  0  0  0  0  # atno 11005 bound_to 11000
  144.7028  139.8687  143.7439 LP  0  0  0  0  0  0  0  0  0  0  0  0  # atno 17320 bound_to 7965
  146.0970  139.3963  143.0370 LP  0  0  0  0  0  0  0  0  0  0  0  0  # atno 17321 bound_to 7965
  140.2969  144.3691  150.6072 LP  0  0  0  0  0  0  0  0  0  0  0  0  # atno 17342 bound_to 10162
  140.5904  143.2168  151.7264 LP  0  0  0  0  0  0  0  0  0  0  0  0  # atno 17343 bound_to 10162
  155.9912  130.4966  150.7289 LP  0  0  0  0  0  0  0  0  0  0  0  0  # atno 17370 bound_to 10713
  157.4765  131.0898  151.0584 LP  0  0  0  0  0  0  0  0  0  0  0  0  # atno 17371 bound_to 10713
  140.7829  133.8645  155.8582 LP  0  0  0  0  0  0  0  0  0  0  0  0  # atno 17394 bound_to 11000
  140.9744  134.1488  157.4548 LP  0  0  0  0  0  0  0  0  0  0  0  0  # atno 17395 bound_to 11000

$$$$
