AV-unprocessed.smi:1516|AV-procd|sdf|6118|dock4
  -GOLD-   22720 6253D 1   1.00000     0.00000
 Structure written by MMmdl.
 45 46  0  0  0  0  0  0  0  0  1 V2000
  143.6502  134.5078  152.4524 C   0  0  0  0  0  0  0  0  0  0  0  0
  144.2268  135.8541  152.4749 N   0  0  0  0  0  0  0  0  0  0  0  0
  143.4703  136.8539  153.2329 C   0  0  0  0  0  0  0  0  0  0  0  0
  145.3700  136.1818  151.8288 C   0  0  0  0  0  0  0  0  0  0  0  0
  146.0345  135.3483  151.2088 O   0  0  0  0  0  0  0  0  0  0  0  0
  145.8616  137.6419  151.8910 C   0  0  0  0  0  0  0  0  0  0  0  0
  147.2182  137.7706  152.4204 N   0  0  0  0  0  0  0  0  0  0  0  0
  147.5972  138.6451  153.3641 C   0  0  0  0  0  0  0  0  0  0  0  0
  146.8221  139.4288  153.9124 O   0  0  0  0  0  0  0  0  0  0  0  0
  148.9170  138.5607  153.6028 N   0  0  0  0  0  0  0  0  0  0  0  0
  149.6966  139.3112  154.5235 C   0  0  0  0  0  0  0  0  0  0  0  0
  151.0446  139.0291  154.8420 C   0  0  0  0  0  0  0  0  0  0  0  0
  151.7184  139.8589  155.7586 C   0  0  0  0  0  0  0  0  0  0  0  0
  151.0326  140.9576  156.3355 C   0  0  0  0  0  0  0  0  0  0  0  0
  151.6517  141.8315  157.2579 N   0  0  0  0  0  0  0  0  0  0  0  0
  151.0450  143.1591  157.3975 C   0  0  0  0  0  0  0  0  0  0  0  0
  152.0186  144.1554  158.0499 C   0  0  0  0  0  0  0  0  0  0  0  0
  152.5653  143.6079  159.3756 C   0  0  0  0  0  0  0  0  0  0  0  0
  153.2101  142.2341  159.1454 C   0  0  0  0  0  0  0  0  0  0  0  0
  152.2213  141.2612  158.4805 C   0  0  0  0  0  0  0  0  0  0  0  0
  149.7449  141.2296  156.0142 N   0  0  0  0  0  0  0  0  0  0  0  0
  149.1042  140.4335  155.1336 C   0  0  0  0  0  0  0  0  0  0  0  0
  143.6086  134.1076  151.4387 H   0  0  0  0  0  0  0  0  0  0  0  0
  142.6289  134.4934  152.8347 H   0  0  0  0  0  0  0  0  0  0  0  0
  144.2427  133.8302  153.0685 H   0  0  0  0  0  0  0  0  0  0  0  0
  144.1260  137.5565  153.7501 H   0  0  0  0  0  0  0  0  0  0  0  0
  142.8423  136.3945  153.9971 H   0  0  0  0  0  0  0  0  0  0  0  0
  142.8247  137.4223  152.5625 H   0  0  0  0  0  0  0  0  0  0  0  0
  145.8143  138.1046  150.9040 H   0  0  0  0  0  0  0  0  0  0  0  0
  145.1931  138.2090  152.5391 H   0  0  0  0  0  0  0  0  0  0  0  0
  147.9223  137.1711  152.0157 H   0  0  0  0  0  0  0  0  0  0  0  0
  149.4362  137.9291  153.0109 H   0  0  0  0  0  0  0  0  0  0  0  0
  151.5785  138.2047  154.3955 H   0  0  0  0  0  0  0  0  0  0  0  0
  152.7441  139.6293  156.0042 H   0  0  0  0  0  0  0  0  0  0  0  0
  150.7294  143.5631  156.4359 H   0  0  0  0  0  0  0  0  0  0  0  0
  150.1457  143.0656  158.0075 H   0  0  0  0  0  0  0  0  0  0  0  0
  152.8464  144.3545  157.3682 H   0  0  0  0  0  0  0  0  0  0  0  0
  151.5181  145.1096  158.2165 H   0  0  0  0  0  0  0  0  0  0  0  0
  153.2935  144.3006  159.7982 H   0  0  0  0  0  0  0  0  0  0  0  0
  151.7562  143.5198  160.1018 H   0  0  0  0  0  0  0  0  0  0  0  0
  154.0909  142.3475  158.5115 H   0  0  0  0  0  0  0  0  0  0  0  0
  153.5608  141.8205  160.0914 H   0  0  0  0  0  0  0  0  0  0  0  0
  151.4135  141.0181  159.1717 H   0  0  0  0  0  0  0  0  0  0  0  0
  152.7483  140.3337  158.2541 H   0  0  0  0  0  0  0  0  0  0  0  0
  148.0807  140.7009  154.9147 H   0  0  0  0  0  0  0  0  0  0  0  0
  1  2  1  0  0  0  0
  1 23  1  0  0  0  0
  1 24  1  0  0  0  0
  1 25  1  0  0  0  0
  2  3  1  0  0  0  0
  2  4  1  0  0  0  0
  3 26  1  0  0  0  0
  3 27  1  0  0  0  0
  3 28  1  0  0  0  0
  4  5  2  0  0  0  0
  4  6  1  0  0  0  0
  6  7  1  0  0  0  0
  6 29  1  0  0  0  0
  6 30  1  0  0  0  0
  7  8  1  0  0  0  0
  7 31  1  0  0  0  0
  8  9  2  0  0  0  0
  8 10  1  0  0  0  0
 10 11  1  0  0  0  0
 10 32  1  0  0  0  0
 11 22  1  0  0  0  0
 11 12  2  0  0  0  0
 12 13  1  0  0  0  0
 12 33  1  0  0  0  0
 13 14  2  0  0  0  0
 13 34  1  0  0  0  0
 14 15  1  0  0  0  0
 14 21  1  0  0  0  0
 15 20  1  0  0  0  0
 15 16  1  0  0  0  0
 16 17  1  0  0  0  0
 16 35  1  0  0  0  0
 16 36  1  0  0  0  0
 17 18  1  0  0  0  0
 17 37  1  0  0  0  0
 17 38  1  0  0  0  0
 18 19  1  0  0  0  0
 18 39  1  0  0  0  0
 18 40  1  0  0  0  0
 19 20  1  0  0  0  0
 19 41  1  0  0  0  0
 19 42  1  0  0  0  0
 20 43  1  0  0  0  0
 20 44  1  0  0  0  0
 21 22  2  0  0  0  0
 22 45  1  0  0  0  0
M  END
> <s_m_source_file>
AV-unprocessed.smi

> <i_m_source_file_index>
1516

> <i_lp_mmshare_version>
43012

> <i_f3d_flags>
0

> <s_epik_input>
W0NIM11OKFtDSDNdKUMoPU8pW0NIMl1bTkhdQyg9TylbTkhdYzFbY0hdW2NIXWMobltjSF0xKU4yW0NIMl1bQ0gyXVtDSDJdW0NIMl1bQ0gyXTI=

> <s_epik_cmdline>
J2VwaWtfcHl0aG9uJywgJy1waCcsICc3LjAnLCAnLXRuJywgJzgnLCAnLW1hJywgJzIwMCcsICctbWV0YWxfYmluZGluZycsICctaW1hZScsICc8aW5maWxlLm1hZT4nLCAnLW9tYWUnLCAnPG91dGZpbGUubWFlPic=

> <r_lp_tautomer_probability>
1

> <r_epik_Ionization_Penalty>
0.256009

> <r_epik_Ionization_Penalty_Charging>
0

> <r_epik_Ionization_Penalty_Neutral>
0.256009

> <r_epik_State_Penalty>
0.242045

> <r_epik_Charging_Adjusted_Penalty>
0.242045

> <i_epik_Tot_Q>
0

> <i_epik_Tot_abs_Q>
0

> <r_epik_Metal_State_Penalty>
0.169174

> <b_epik_Metal_Only>
0

> <s_lp_Force_Field>
OPLS_2005

> <r_lp_Energy>
21.8032

> <b_lp_Chiralities_Consistent>
1

> <s_lp_Variant>
AV-unprocessed.smi:1516-1

> <Gold.Version>
5.8.1

> <Gold.Id.Protein>
6NUR|6NUR_protein|mol2

> <Gold.PLP.Fitness>
48.3470

> <Gold.PLP.PLP>
-44.3367

> <Gold.PLP.part.hbond>
-2.8811

> <Gold.PLP.part.metal>
0.0000

> <Gold.PLP.part.buried>
-0.9678

> <Gold.PLP.part.nonpolar>
-41.4535

> <Gold.PLP.part.repulsive>
0.6251

> <Gold.PLP.ligand.clash>
0.0000

> <Gold.PLP.ligand.torsion>
0.7364

> <Gold.PLP.Chemscore.Hbond>
1.7302

> <Gold.PLP.Chemscore.CHOScore>
0.0000

> <Gold.PLP.Chemscore.Metal>
0.0000

> <Gold.Chemscore.Hbonds>
donor molecule, donor type, donor heavy atom, donor atom, acceptor molecule, acceptor atom, score
      L1  H     7    31       P1  7948  0.63
      L1  H    10    32       P1  7948  0.67

> <Gold.PLP.Chemscore.Internal.Correction>
0.2925

> <Gold.Rescore>
     Score         DG    S(hbond)    S(metal)    S(lipo)     H(rot)  DE(clash)    DE(int)     intcor
     15.96     -18.84       1.73        0.00      92.46       1.26       0.63       2.25       ----

> <Gold.Chemscore.Fitness>
15.9614

> <Gold.Chemscore.DG>
-18.8373

> <Gold.Chemscore.ZeroCoef>
-5.4800

> <Gold.Chemscore.Hbond>
1.7266

> <Gold.Chemscore.Metal>
0.0000

> <Gold.Chemscore.Lipo>
92.4569

> <Gold.Chemscore.Internal_Hbond>
0.0000

> <Gold.Chemscore.DEClash>
0.6268

> <Gold.Chemscore.DEInternal>
2.2491

> <Gold.Chemscore.Rot>
1.2605

> <Gold.Chemscore.Internal.Correction>
   9.000000E+99

> <Gold.Chemscore.Hbonds>
donor molecule, donor type, donor heavy atom, donor atom, acceptor molecule, acceptor atom, score
      L1  H     7    31       P1  7948  0.63
      L1  H    10    32       P1  7948  0.57

> <Gold.Chemscore.Hbond.Weighted>
-5.7667

> <Gold.Chemscore.Metal.Weighted>
-0.0000

> <Gold.Chemscore.Lipo.Weighted>
-10.8175

> <Gold.Chemscore.Internal_Hbond.Weighted>
0.0000

> <Gold.Chemscore.DEClash.Weighted>
0.6268

> <Gold.Chemscore.DEInternal.Weighted>
2.2491

> <Gold.Chemscore.Rot.Weighted>
3.2269

> <Gold.Chemscore.Internal.Correction.Weighted>
   9.000000E+99

> <Gold.Protein.RotatedTorsions>
[ 6907 6896 6895 6894 ] final -164.61 input  -60.11 | X-H torsion
[ 7974 7965 7964 7962 ] final   18.85 input  175.53 | X-H torsion
[ 8008 7997 7996 7995 ] final -170.22 input   59.86 | X-H torsion
[ 10167 10162 10161 10158 ] final  -68.25 input  -65.29 | X-H torsion
[ 10718 10713 10712 10709 ] final  -68.87 input   66.30 | X-H torsion
[ 10763 10752 10751 10750 ] final  -57.13 input  -60.55 | X-H torsion
[ 11005 11000 10999 10996 ] final   81.34 input  -57.11 | X-H torsion

> <Gold.Protein.ActiveResidues>
 VAL166  LYS551  ARG553  GLY616  TRP617  ASP618  TYR619  PRO620  LYS621  CYS622 
 ASP623  PHE694  ASN695  SER759  ASP760  ASP761  ALA762  ILE779  LEU786  VAL792 
 PHE793  MET794  SER795  GLU796  ALA797  LYS798  CYS799  TRP800  GLU811  SER814 

> <Gold.Protein.RotatedAtoms>
  151.4145  133.3717  159.2747 H   0  0  0  0  0  0  0  0  0  0  0  0  # atno 6907 bound_to 6896
  150.9339  134.8753  159.7579 H   0  0  0  0  0  0  0  0  0  0  0  0  # atno 6908 bound_to 6896
  152.5040  134.4091  159.9495 H   0  0  0  0  0  0  0  0  0  0  0  0  # atno 6909 bound_to 6896
  146.2170  139.8398  142.8643 H   0  0  0  0  0  0  0  0  0  0  0  0  # atno 7974 bound_to 7965
  155.9154  140.1065  157.1247 H   0  0  0  0  0  0  0  0  0  0  0  0  # atno 8008 bound_to 7997
  154.4046  140.1266  156.4676 H   0  0  0  0  0  0  0  0  0  0  0  0  # atno 8009 bound_to 7997
  155.7259  140.3469  155.5039 H   0  0  0  0  0  0  0  0  0  0  0  0  # atno 8010 bound_to 7997
  140.5521  143.2312  151.6891 H   0  0  0  0  0  0  0  0  0  0  0  0  # atno 10167 bound_to 10162
  156.0483  130.4302  150.2064 H   0  0  0  0  0  0  0  0  0  0  0  0  # atno 10718 bound_to 10713
  154.2176  135.6383  153.5135 H   0  0  0  0  0  0  0  0  0  0  0  0  # atno 10763 bound_to 10752
  152.9976  135.5489  154.6148 H   0  0  0  0  0  0  0  0  0  0  0  0  # atno 10764 bound_to 10752
  154.5600  135.2908  155.0902 H   0  0  0  0  0  0  0  0  0  0  0  0  # atno 10765 bound_to 10752
  139.9102  134.7989  156.2028 H   0  0  0  0  0  0  0  0  0  0  0  0  # atno 11005 bound_to 11000
  145.2911  141.0167  143.3662 LP  0  0  0  0  0  0  0  0  0  0  0  0  # atno 17320 bound_to 7965
  144.9077  139.4569  143.6602 LP  0  0  0  0  0  0  0  0  0  0  0  0  # atno 17321 bound_to 7965
  139.5032  144.3801  152.0385 LP  0  0  0  0  0  0  0  0  0  0  0  0  # atno 17342 bound_to 10162
  140.2919  144.3745  150.6086 LP  0  0  0  0  0  0  0  0  0  0  0  0  # atno 17343 bound_to 10162
  157.0150  130.9962  151.3355 LP  0  0  0  0  0  0  0  0  0  0  0  0  # atno 17370 bound_to 10713
  157.5383  130.8103  149.7999 LP  0  0  0  0  0  0  0  0  0  0  0  0  # atno 17371 bound_to 10713
  141.0514  133.6887  156.1779 LP  0  0  0  0  0  0  0  0  0  0  0  0  # atno 17394 bound_to 11000
  140.6804  134.4773  157.5589 LP  0  0  0  0  0  0  0  0  0  0  0  0  # atno 17395 bound_to 11000

$$$$
