AV-unprocessed.smi:1774|AV-procd|sdf|7165|dock4
  -GOLD-   22720 8403D 1   1.00000     0.00000
 Structure written by MMmdl.
 45 46  0  0  0  0  0  0  0  0  1 V2000
  145.6986  135.7471  150.5770 C   0  0  0  0  0  0  0  0  0  0  0  0
  145.3579  134.3350  151.0250 C   0  0  0  0  0  0  0  0  0  0  0  0
  144.4379  133.5751  150.2718 C   0  0  0  0  0  0  0  0  0  0  0  0
  144.1243  132.2695  150.6863 C   0  0  0  0  0  0  0  0  0  0  0  0
  144.7485  131.7757  151.8445 C   0  0  0  0  0  0  0  0  0  0  0  0
  145.6283  132.4948  152.5707 N   0  0  0  0  0  0  0  0  0  0  0  0
  145.9418  133.7573  152.1845 C   0  0  0  0  0  0  0  0  0  0  0  0
  146.8646  134.5725  152.8990 N   0  0  0  0  0  0  0  0  0  0  0  0
  147.0430  134.6670  154.2284 C   0  0  0  0  0  0  0  0  0  0  0  0
  146.3835  134.0703  155.0801 O   0  0  0  0  0  0  0  0  0  0  0  0
  148.0496  135.5037  154.5218 N   0  0  0  0  0  0  0  0  0  0  0  0
  148.5475  135.7889  155.8642 C   0  0  0  0  0  0  0  0  0  0  0  0
  150.0076  136.2824  155.8312 C   0  0  0  0  0  0  0  0  0  0  0  0
  150.1774  137.7335  155.7702 N   0  0  0  0  0  0  0  0  0  0  0  0
  149.4323  138.3445  154.6743 C   0  0  0  0  0  0  0  0  0  0  0  0
  149.5844  139.8759  154.6677 C   0  0  2  0  0  0  0  0  0  0  0  0
  148.8756  140.5206  153.4725 C   0  0  0  0  0  0  0  0  0  0  0  0
  150.9689  140.2153  154.6008 O   0  0  0  0  0  0  0  0  0  0  0  0
  151.7890  139.6303  155.6142 C   0  0  1  0  0  0  0  0  0  0  0  0
  151.5757  140.3045  156.9805 C   0  0  0  0  0  0  0  0  0  0  0  0
  151.5826  138.1029  155.6506 C   0  0  0  0  0  0  0  0  0  0  0  0
  145.1616  136.0157  149.6670 H   0  0  0  0  0  0  0  0  0  0  0  0
  146.7662  135.8364  150.3742 H   0  0  0  0  0  0  0  0  0  0  0  0
  145.4307  136.4679  151.3499 H   0  0  0  0  0  0  0  0  0  0  0  0
  143.9762  133.9848  149.3853 H   0  0  0  0  0  0  0  0  0  0  0  0
  143.4243  131.6629  150.1311 H   0  0  0  0  0  0  0  0  0  0  0  0
  144.5370  130.7772  152.1977 H   0  0  0  0  0  0  0  0  0  0  0  0
  147.4759  135.1350  152.3262 H   0  0  0  0  0  0  0  0  0  0  0  0
  148.5318  135.9519  153.7566 H   0  0  0  0  0  0  0  0  0  0  0  0
  147.9195  136.5762  156.2810 H   0  0  0  0  0  0  0  0  0  0  0  0
  148.4217  134.9316  156.5261 H   0  0  0  0  0  0  0  0  0  0  0  0
  150.5033  135.9027  156.7258 H   0  0  0  0  0  0  0  0  0  0  0  0
  150.5246  135.8209  154.9888 H   0  0  0  0  0  0  0  0  0  0  0  0
  149.7759  137.9370  153.7219 H   0  0  0  0  0  0  0  0  0  0  0  0
  148.3734  138.1015  154.7513 H   0  0  0  0  0  0  0  0  0  0  0  0
  149.1544  140.2861  155.5819 H   0  0  0  0  0  0  0  0  0  0  0  0
  147.8081  140.2998  153.4849 H   0  0  0  0  0  0  0  0  0  0  0  0
  149.2826  140.1569  152.5284 H   0  0  0  0  0  0  0  0  0  0  0  0
  148.9909  141.6047  153.4903 H   0  0  0  0  0  0  0  0  0  0  0  0
  152.8214  139.8227  155.3215 H   0  0  0  0  0  0  0  0  0  0  0  0
  152.2852  139.9231  157.7150 H   0  0  0  0  0  0  0  0  0  0  0  0
  150.5749  140.1276  157.3743 H   0  0  0  0  0  0  0  0  0  0  0  0
  151.7214  141.3825  156.9089 H   0  0  0  0  0  0  0  0  0  0  0  0
  152.1528  137.6792  156.4782 H   0  0  0  0  0  0  0  0  0  0  0  0
  151.9954  137.6673  154.7391 H   0  0  0  0  0  0  0  0  0  0  0  0
  1  2  1  0  0  0  0
  1 22  1  0  0  0  0
  1 23  1  0  0  0  0
  1 24  1  0  0  0  0
  2  7  1  0  0  0  0
  2  3  2  0  0  0  0
  3  4  1  0  0  0  0
  3 25  1  0  0  0  0
  4  5  2  0  0  0  0
  4 26  1  0  0  0  0
  5  6  1  0  0  0  0
  5 27  1  0  0  0  0
  6  7  2  0  0  0  0
  7  8  1  0  0  0  0
  8  9  1  0  0  0  0
  8 28  1  0  0  0  0
  9 10  2  0  0  0  0
  9 11  1  0  0  0  0
 11 12  1  0  0  0  0
 11 29  1  0  0  0  0
 12 13  1  0  0  0  0
 12 30  1  0  0  0  0
 12 31  1  0  0  0  0
 13 14  1  0  0  0  0
 13 32  1  0  0  0  0
 13 33  1  0  0  0  0
 14 21  1  0  0  0  0
 14 15  1  0  0  0  0
 15 16  1  0  0  0  0
 15 34  1  0  0  0  0
 15 35  1  0  0  0  0
 16 17  1  0  0  0  0
 16 18  1  0  0  0  0
 16 36  1  0  0  0  0
 17 37  1  0  0  0  0
 17 38  1  0  0  0  0
 17 39  1  0  0  0  0
 18 19  1  0  0  0  0
 19 20  1  0  0  0  0
 19 21  1  0  0  0  0
 19 40  1  0  0  0  0
 20 41  1  0  0  0  0
 20 42  1  0  0  0  0
 20 43  1  0  0  0  0
 21 44  1  0  0  0  0
 21 45  1  0  0  0  0
M  END
> <s_m_source_file>
AV-unprocessed.smi

> <i_m_source_file_index>
1774

> <i_lp_mmshare_version>
43012

> <i_f3d_flags>
0

> <s_epik_input>
W0NIM11jMVtjSF1bY0hdW2NIXW5jMVtOSF1DKD1PKVtOSF1bQ0gyXVtDSDJdTjJbQ0gyXVtDQEBIXShbQ0gzXSlPW0NAQEhdKFtDSDNdKVtDSDJdMg==

> <s_epik_cmdline>
J2VwaWtfcHl0aG9uJywgJy1waCcsICc3LjAnLCAnLXRuJywgJzgnLCAnLW1hJywgJzIwMCcsICctbWV0YWxfYmluZGluZycsICctaW1hZScsICc8aW5maWxlLm1hZT4nLCAnLW9tYWUnLCAnPG91dGZpbGUubWFlPic=

> <r_epik_Ionization_Penalty>
0.266047

> <r_epik_Ionization_Penalty_Charging>
0

> <r_epik_Ionization_Penalty_Neutral>
0.266047

> <r_epik_State_Penalty>
0.257924

> <r_epik_Charging_Adjusted_Penalty>
0.257924

> <i_epik_Tot_Q>
0

> <i_epik_Tot_abs_Q>
0

> <r_epik_Metal_State_Penalty>
0.257922

> <b_epik_Metal_Only>
0

> <s_lp_Force_Field>
OPLS_2005

> <r_lp_Energy>
29.5878

> <b_lp_Chiralities_Consistent>
1

> <s_lp_Variant>
AV-unprocessed.smi:1774-2

> <Gold.Version>
5.8.1

> <Gold.Id.Protein>
6NUR|6NUR_protein|mol2

> <Gold.PLP.Fitness>
44.2018

> <Gold.PLP.PLP>
-36.6555

> <Gold.PLP.part.hbond>
-3.0000

> <Gold.PLP.part.metal>
0.0000

> <Gold.PLP.part.buried>
-4.9071

> <Gold.PLP.part.nonpolar>
-29.4421

> <Gold.PLP.part.repulsive>
0.3341

> <Gold.PLP.ligand.clash>
0.0000

> <Gold.PLP.ligand.torsion>
0.6757

> <Gold.PLP.Chemscore.Hbond>
2.9600

> <Gold.PLP.Chemscore.CHOScore>
0.0000

> <Gold.PLP.Chemscore.Metal>
0.0000

> <Gold.Chemscore.Hbonds>
donor molecule, donor type, donor heavy atom, donor atom, acceptor molecule, acceptor atom, score
      L1  H     8    28       P1  7948  1.00
      L1  H    11    29       P1  7948  1.00
      P1  H  7989  7998       L1    18  0.78

> <Gold.PLP.Chemscore.Internal.Correction>
0.0177

> <Gold.Rescore>
     Score         DG    S(hbond)    S(metal)    S(lipo)     H(rot)  DE(clash)    DE(int)     intcor
     19.78     -20.53       2.77        0.00      81.53       1.46       0.05       0.71       ----

> <Gold.Chemscore.Fitness>
19.7815

> <Gold.Chemscore.DG>
-20.5344

> <Gold.Chemscore.ZeroCoef>
-5.4800

> <Gold.Chemscore.Hbond>
2.7673

> <Gold.Chemscore.Metal>
0.0000

> <Gold.Chemscore.Lipo>
81.5327

> <Gold.Chemscore.Internal_Hbond>
0.0000

> <Gold.Chemscore.DEClash>
0.0465

> <Gold.Chemscore.DEInternal>
0.7064

> <Gold.Chemscore.Rot>
1.4562

> <Gold.Chemscore.Internal.Correction>
   9.000000E+99

> <Gold.Chemscore.Hbonds>
donor molecule, donor type, donor heavy atom, donor atom, acceptor molecule, acceptor atom, score
      L1  H     8    28       P1  7948  0.99
      L1  H    11    29       P1  7948  0.96
      P1  H  7989  7998       L1    18  0.73

> <Gold.Chemscore.Hbond.Weighted>
-9.2429

> <Gold.Chemscore.Metal.Weighted>
-0.0000

> <Gold.Chemscore.Lipo.Weighted>
-9.5393

> <Gold.Chemscore.Internal_Hbond.Weighted>
0.0000

> <Gold.Chemscore.DEClash.Weighted>
0.0465

> <Gold.Chemscore.DEInternal.Weighted>
0.7064

> <Gold.Chemscore.Rot.Weighted>
3.7278

> <Gold.Chemscore.Internal.Correction.Weighted>
   9.000000E+99

> <Gold.Protein.RotatedTorsions>
[ 6907 6896 6895 6894 ] final   38.23 input  -60.11 | X-H torsion
[ 7974 7965 7964 7962 ] final   26.26 input  175.53 | X-H torsion
[ 8008 7997 7996 7995 ] final  128.56 input   59.86 | X-H torsion
[ 10167 10162 10161 10158 ] final  -80.04 input  -65.29 | X-H torsion
[ 10718 10713 10712 10709 ] final   24.95 input   66.30 | X-H torsion
[ 10763 10752 10751 10750 ] final  -24.71 input  -60.55 | X-H torsion
[ 11005 11000 10999 10996 ] final  -26.15 input  -57.11 | X-H torsion

> <Gold.Protein.ActiveResidues>
 VAL166  LYS551  ARG553  GLY616  TRP617  ASP618  TYR619  PRO620  LYS621  CYS622 
 ASP623  PHE694  ASN695  SER759  ASP760  ASP761  ALA762  ILE779  LEU786  VAL792 
 PHE793  MET794  SER795  GLU796  ALA797  LYS798  CYS799  TRP800  GLU811  SER814 

> <Gold.Protein.RotatedAtoms>
  152.1537  134.8968  160.0546 H   0  0  0  0  0  0  0  0  0  0  0  0  # atno 6907 bound_to 6896
  151.9990  133.3813  159.4182 H   0  0  0  0  0  0  0  0  0  0  0  0  # atno 6908 bound_to 6896
  150.6879  134.3776  159.5064 H   0  0  0  0  0  0  0  0  0  0  0  0  # atno 6909 bound_to 6896
  146.1846  139.7352  142.8875 H   0  0  0  0  0  0  0  0  0  0  0  0  # atno 7974 bound_to 7965
  156.2917  140.2642  156.2456 H   0  0  0  0  0  0  0  0  0  0  0  0  # atno 8008 bound_to 7997
  154.9933  140.0388  157.2347 H   0  0  0  0  0  0  0  0  0  0  0  0  # atno 8009 bound_to 7997
  154.7666  140.2770  155.6176 H   0  0  0  0  0  0  0  0  0  0  0  0  # atno 8010 bound_to 7997
  140.4539  143.2474  151.8448 H   0  0  0  0  0  0  0  0  0  0  0  0  # atno 10167 bound_to 10162
  157.1868  130.6828  149.6134 H   0  0  0  0  0  0  0  0  0  0  0  0  # atno 10718 bound_to 10713
  153.6882  135.6963  153.5098 H   0  0  0  0  0  0  0  0  0  0  0  0  # atno 10763 bound_to 10752
  153.2433  135.4299  155.0720 H   0  0  0  0  0  0  0  0  0  0  0  0  # atno 10764 bound_to 10752
  154.8380  135.3513  154.6424 H   0  0  0  0  0  0  0  0  0  0  0  0  # atno 10765 bound_to 10752
  140.9003  133.7529  156.0535 H   0  0  0  0  0  0  0  0  0  0  0  0  # atno 11005 bound_to 11000
  145.3975  141.0381  143.3089 LP  0  0  0  0  0  0  0  0  0  0  0  0  # atno 17320 bound_to 7965
  144.8375  139.5526  143.6915 LP  0  0  0  0  0  0  0  0  0  0  0  0  # atno 17321 bound_to 7965
  139.4799  144.5087  151.8962 LP  0  0  0  0  0  0  0  0  0  0  0  0  # atno 17342 bound_to 10162
  140.4174  144.2288  150.5887 LP  0  0  0  0  0  0  0  0  0  0  0  0  # atno 17343 bound_to 10162
  155.9717  130.4628  150.6159 LP  0  0  0  0  0  0  0  0  0  0  0  0  # atno 17370 bound_to 10713
  157.3900  131.0794  151.1402 LP  0  0  0  0  0  0  0  0  0  0  0  0  # atno 17371 bound_to 10713
  140.8238  134.3258  157.5372 LP  0  0  0  0  0  0  0  0  0  0  0  0  # atno 17394 bound_to 11000
  139.8741  134.9324  156.3555 LP  0  0  0  0  0  0  0  0  0  0  0  0  # atno 17395 bound_to 11000

$$$$
