AV-unprocessed.smi:1239|AV-procd|sdf|5191|dock10
  -GOLD-   22720 4273D 1   1.00000     0.00000
 Structure written by MMmdl.
 48 49  0  0  0  0  0  0  0  0  2 V2000
  146.4941  138.8583  151.4642 C   0  0  0  0  0  0  0  0  0  0  0  0
  147.0197  139.0422  152.9086 C   0  0  2  0  0  0  0  0  0  0  0  0
  148.2238  140.0261  152.9349 C   0  0  0  0  0  0  0  0  0  0  0  0
  148.3518  140.7569  154.1942 N   0  0  0  0  0  0  0  0  0  0  0  0
  149.4458  140.7841  154.9698 C   0  0  0  0  0  0  0  0  0  0  0  0
  150.4968  140.2151  154.6770 O   0  0  0  0  0  0  0  0  0  0  0  0
  149.2371  141.5226  156.0731 N   0  0  0  0  0  0  0  0  0  0  0  0
  150.1219  141.7905  157.1536 C   0  0  0  0  0  0  0  0  0  0  0  0
  151.1476  140.8597  157.4058 C   0  0  0  0  0  0  0  0  0  0  0  0
  152.0548  141.0958  158.4555 C   0  0  0  0  0  0  0  0  0  0  0  0
  151.9203  142.2715  159.2343 C   0  0  0  0  0  0  0  0  0  0  0  0
  152.8054  142.5566  160.2992 N   0  0  0  0  0  0  0  0  0  0  0  0
  153.9877  141.7257  160.5030 C   0  0  0  0  0  0  0  0  0  0  0  0
  152.5667  143.7050  161.1647 C   0  0  0  0  0  0  0  0  0  0  0  0
  150.9377  143.1708  158.9832 N   0  0  0  0  0  0  0  0  0  0  0  0
  150.0691  142.9407  157.9761 C   0  0  0  0  0  0  0  0  0  0  0  0
  147.3440  137.7164  153.5367 N   0  3  0  0  0  0  0  0  0  0  0  0
  148.0289  137.8056  154.8578 C   0  0  0  0  0  0  0  0  0  0  0  0
  148.3314  136.4120  155.4348 C   0  0  0  0  0  0  0  0  0  0  0  0
  147.1326  135.6602  155.5373 O   0  0  0  0  0  0  0  0  0  0  0  0
  146.5451  135.4577  154.2624 C   0  0  0  0  0  0  0  0  0  0  0  0
  146.1623  136.8152  153.6506 C   0  0  0  0  0  0  0  0  0  0  0  0
  146.2537  139.8110  150.9941 H   0  0  0  0  0  0  0  0  0  0  0  0
  145.5704  138.2852  151.4195 H   0  0  0  0  0  0  0  0  0  0  0  0
  147.2321  138.3589  150.8356 H   0  0  0  0  0  0  0  0  0  0  0  0
  146.2219  139.4960  153.4989 H   0  0  0  0  0  0  0  0  0  0  0  0
  149.1638  139.4844  152.8375 H   0  0  0  0  0  0  0  0  0  0  0  0
  148.1714  140.7110  152.0866 H   0  0  0  0  0  0  0  0  0  0  0  0
  147.5364  141.2622  154.5097 H   0  0  0  0  0  0  0  0  0  0  0  0
  148.3376  141.9766  156.1355 H   0  0  0  0  0  0  0  0  0  0  0  0
  151.2413  139.9685  156.8026 H   0  0  0  0  0  0  0  0  0  0  0  0
  152.8345  140.3723  158.6394 H   0  0  0  0  0  0  0  0  0  0  0  0
  154.6381  141.7650  159.6286 H   0  0  0  0  0  0  0  0  0  0  0  0
  153.7012  140.6879  160.6763 H   0  0  0  0  0  0  0  0  0  0  0  0
  154.5658  142.0598  161.3645 H   0  0  0  0  0  0  0  0  0  0  0  0
  151.6053  143.6113  161.6706 H   0  0  0  0  0  0  0  0  0  0  0  0
  152.5692  144.6285  160.5848 H   0  0  0  0  0  0  0  0  0  0  0  0
  153.3371  143.7919  161.9307 H   0  0  0  0  0  0  0  0  0  0  0  0
  149.3358  143.7183  157.8359 H   0  0  0  0  0  0  0  0  0  0  0  0
  148.9825  138.3240  154.7702 H   0  0  0  0  0  0  0  0  0  0  0  0
  147.4083  138.3729  155.5533 H   0  0  0  0  0  0  0  0  0  0  0  0
  149.0574  135.8826  154.8153 H   0  0  0  0  0  0  0  0  0  0  0  0
  148.7723  136.5066  156.4274 H   0  0  0  0  0  0  0  0  0  0  0  0
  147.2298  134.9131  153.6102 H   0  0  0  0  0  0  0  0  0  0  0  0
  145.6570  134.8363  154.3790 H   0  0  0  0  0  0  0  0  0  0  0  0
  145.3952  137.2932  154.2616 H   0  0  0  0  0  0  0  0  0  0  0  0
  145.7190  136.6172  152.6774 H   0  0  0  0  0  0  0  0  0  0  0  0
  147.9971  137.2604  152.9152 H   0  0  0  0  0  0  0  0  0  0  0  0
  1  2  1  0  0  0  0
  1 23  1  0  0  0  0
  1 24  1  0  0  0  0
  1 25  1  0  0  0  0
  2  3  1  0  0  0  0
  2 17  1  0  0  0  0
  2 26  1  0  0  0  0
  3  4  1  0  0  0  0
  3 27  1  0  0  0  0
  3 28  1  0  0  0  0
  4  5  1  0  0  0  0
  4 29  1  0  0  0  0
  5  6  2  0  0  0  0
  5  7  1  0  0  0  0
  7  8  1  0  0  0  0
  7 30  1  0  0  0  0
  8 16  1  0  0  0  0
  8  9  2  0  0  0  0
  9 10  1  0  0  0  0
  9 31  1  0  0  0  0
 10 11  2  0  0  0  0
 10 32  1  0  0  0  0
 11 12  1  0  0  0  0
 11 15  1  0  0  0  0
 12 13  1  0  0  0  0
 12 14  1  0  0  0  0
 13 33  1  0  0  0  0
 13 34  1  0  0  0  0
 13 35  1  0  0  0  0
 14 36  1  0  0  0  0
 14 37  1  0  0  0  0
 14 38  1  0  0  0  0
 15 16  2  0  0  0  0
 16 39  1  0  0  0  0
 17 22  1  0  0  0  0
 17 18  1  0  0  0  0
 17 48  1  0  0  0  0
 18 19  1  0  0  0  0
 18 40  1  0  0  0  0
 18 41  1  0  0  0  0
 19 20  1  0  0  0  0
 19 42  1  0  0  0  0
 19 43  1  0  0  0  0
 20 21  1  0  0  0  0
 21 22  1  0  0  0  0
 21 44  1  0  0  0  0
 21 45  1  0  0  0  0
 22 46  1  0  0  0  0
 22 47  1  0  0  0  0
M  CHG  1  17   1
M  END
> <s_m_source_file>
AV-unprocessed.smi

> <i_m_source_file_index>
1239

> <i_lp_mmshare_version>
43012

> <i_f3d_flags>
0

> <s_epik_input>
W0NIMl0xW0NIMl1PW0NIMl1bQ0gyXU4xW0NASF0oW0NIM10pW0NIMl1bTkhdQyg9TylbTkhdYzJbY0hdW2NIXWMoTihbQ0gzXSlbQ0gzXSluW2NIXTI=

> <s_epik_cmdline>
J2VwaWtfcHl0aG9uJywgJy1waCcsICc3LjAnLCAnLXRuJywgJzgnLCAnLW1hJywgJzIwMCcsICctbWV0YWxfYmluZGluZycsICctaW1hZScsICc8aW5maWxlLm1hZT4nLCAnLW9tYWUnLCAnPG91dGZpbGUubWFlPic=

> <r_epik_Ionization_Penalty>
1.1428

> <r_epik_Ionization_Penalty_Charging>
0.602531

> <r_epik_Ionization_Penalty_Neutral>
0.540271

> <r_epik_State_Penalty>
1.1888

> <r_epik_Charging_Adjusted_Penalty>
1.79133

> <i_epik_Tot_Q>
1

> <i_epik_Tot_abs_Q>
1

> <r_epik_Metal_State_Penalty>
0.936295

> <b_epik_Metal_Only>
0

> <s_lp_Force_Field>
OPLS_2005

> <r_lp_Energy>
25.054

> <b_lp_Chiralities_Consistent>
1

> <s_lp_Variant>
AV-unprocessed.smi:1239-7

> <Gold.Version>
5.8.1

> <Gold.Id.Protein>
6NUR|6NUR_protein|mol2

> <Gold.PLP.Fitness>
44.5423

> <Gold.PLP.PLP>
-33.8918

> <Gold.PLP.part.hbond>
-2.2034

> <Gold.PLP.part.metal>
0.0000

> <Gold.PLP.part.buried>
2.1488

> <Gold.PLP.part.nonpolar>
-33.9552

> <Gold.PLP.part.repulsive>
0.3813

> <Gold.PLP.ligand.clash>
0.0000

> <Gold.PLP.ligand.torsion>
0.5446

> <Gold.PLP.Chemscore.Hbond>
3.0000

> <Gold.PLP.Chemscore.CHOScore>
0.8954

> <Gold.PLP.Chemscore.Metal>
0.0000

> <Gold.Chemscore.Hbonds>
donor molecule, donor type, donor heavy atom, donor atom, acceptor molecule, acceptor atom, score
      L1  H    17    48       P1  7948  2.00
      P1  H  7989  7998       L1     6  1.00
      L1  C    16    39       P1  8028  0.81
      L1  C    16    39       P1  8029  0.16

> <Gold.PLP.Chemscore.Internal.Correction>
0.0536

> <Gold.Rescore>
     Score         DG    S(hbond)    S(metal)    S(lipo)     H(rot)  DE(clash)    DE(int)     intcor
     14.11     -17.89       1.98        0.00      81.86       1.48       1.91       1.87       ----

> <Gold.Chemscore.Fitness>
14.1140

> <Gold.Chemscore.DG>
-17.8885

> <Gold.Chemscore.ZeroCoef>
-5.4800

> <Gold.Chemscore.Hbond>
1.9841

> <Gold.Chemscore.Metal>
0.0000

> <Gold.Chemscore.Lipo>
81.8619

> <Gold.Chemscore.Internal_Hbond>
0.0000

> <Gold.Chemscore.DEClash>
1.9081

> <Gold.Chemscore.DEInternal>
1.8664

> <Gold.Chemscore.Rot>
1.4830

> <Gold.Chemscore.Internal.Correction>
   9.000000E+99

> <Gold.Chemscore.Hbonds>
donor molecule, donor type, donor heavy atom, donor atom, acceptor molecule, acceptor atom, score
      L1  H    17    48       P1  7948  1.00
      P1  H  7989  7998       L1     6  0.98

> <Gold.Chemscore.Hbond.Weighted>
-6.6271

> <Gold.Chemscore.Metal.Weighted>
-0.0000

> <Gold.Chemscore.Lipo.Weighted>
-9.5778

> <Gold.Chemscore.Internal_Hbond.Weighted>
0.0000

> <Gold.Chemscore.DEClash.Weighted>
1.9081

> <Gold.Chemscore.DEInternal.Weighted>
1.8664

> <Gold.Chemscore.Rot.Weighted>
3.7964

> <Gold.Chemscore.Internal.Correction.Weighted>
   9.000000E+99

> <Gold.Protein.RotatedTorsions>
[ 6907 6896 6895 6894 ] final   90.20 input  -60.11 | X-H torsion
[ 7974 7965 7964 7962 ] final  -92.36 input  175.53 | X-H torsion
[ 8008 7997 7996 7995 ] final   99.65 input   59.86 | X-H torsion
[ 10167 10162 10161 10158 ] final   45.87 input  -65.29 | X-H torsion
[ 10718 10713 10712 10709 ] final   78.32 input   66.30 | X-H torsion
[ 10763 10752 10751 10750 ] final  145.96 input  -60.55 | X-H torsion
[ 11005 11000 10999 10996 ] final  -41.58 input  -57.11 | X-H torsion

> <Gold.Protein.ActiveResidues>
 VAL166  LYS551  ARG553  GLY616  TRP617  ASP618  TYR619  PRO620  LYS621  CYS622 
 ASP623  PHE694  ASN695  SER759  ASP760  ASP761  ALA762  ILE779  LEU786  VAL792 
 PHE793  MET794  SER795  GLU796  ALA797  LYS798  CYS799  TRP800  GLU811  SER814 

> <Gold.Protein.RotatedAtoms>
  152.5443  134.1848  159.8649 H   0  0  0  0  0  0  0  0  0  0  0  0  # atno 6907 bound_to 6896
  151.1848  133.4696  159.2602 H   0  0  0  0  0  0  0  0  0  0  0  0  # atno 6908 bound_to 6896
  151.1142  135.0055  159.8564 H   0  0  0  0  0  0  0  0  0  0  0  0  # atno 6909 bound_to 6896
  145.4008  140.9537  143.2288 H   0  0  0  0  0  0  0  0  0  0  0  0  # atno 7974 bound_to 7965
  156.1126  140.3225  155.8094 H   0  0  0  0  0  0  0  0  0  0  0  0  # atno 8008 bound_to 7997
  155.4646  140.0542  157.3004 H   0  0  0  0  0  0  0  0  0  0  0  0  # atno 8009 bound_to 7997
  154.4770  140.2037  155.9867 H   0  0  0  0  0  0  0  0  0  0  0  0  # atno 8010 bound_to 7997
  140.3197  144.2720  150.6185 H   0  0  0  0  0  0  0  0  0  0  0  0  # atno 10167 bound_to 10162
  157.6741  130.9862  150.1769 H   0  0  0  0  0  0  0  0  0  0  0  0  # atno 10718 bound_to 10713
  154.0139  135.2912  155.3389 H   0  0  0  0  0  0  0  0  0  0  0  0  # atno 10763 bound_to 10752
  154.7086  135.5158  153.8636 H   0  0  0  0  0  0  0  0  0  0  0  0  # atno 10764 bound_to 10752
  153.0711  135.6648  154.0368 H   0  0  0  0  0  0  0  0  0  0  0  0  # atno 10765 bound_to 10752
  141.0256  133.6843  156.2476 H   0  0  0  0  0  0  0  0  0  0  0  0  # atno 11005 bound_to 11000
  144.8375  139.5526  143.6915 LP  0  0  0  0  0  0  0  0  0  0  0  0  # atno 17320 bound_to 7965
  146.2752  139.6736  142.9268 LP  0  0  0  0  0  0  0  0  0  0  0  0  # atno 17321 bound_to 7965
  140.5494  143.2209  151.7952 LP  0  0  0  0  0  0  0  0  0  0  0  0  # atno 17342 bound_to 10162
  139.4876  144.4496  151.9669 LP  0  0  0  0  0  0  0  0  0  0  0  0  # atno 17343 bound_to 10162
  156.2510  130.3700  149.8232 LP  0  0  0  0  0  0  0  0  0  0  0  0  # atno 17370 bound_to 10713
  156.6005  130.8544  151.3430 LP  0  0  0  0  0  0  0  0  0  0  0  0  # atno 17371 bound_to 10713
  140.6498  134.5079  157.5576 LP  0  0  0  0  0  0  0  0  0  0  0  0  # atno 17394 bound_to 11000
  139.9173  134.8219  156.1323 LP  0  0  0  0  0  0  0  0  0  0  0  0  # atno 17395 bound_to 11000

$$$$
