AV-unprocessed.smi:1641|AV-procd|sdf|6559|dock6
  -GOLD-   22720 7243D 1   1.00000     0.00000
 Structure written by MMmdl.
 42 43  0  0  0  0  0  0  0  0  2 V2000
  137.7052  137.2966  154.8342 C   0  0  0  0  0  0  0  0  0  0  0  0
  139.1713  137.2948  154.5667 C   0  0  0  0  0  0  0  0  0  0  0  0
  139.9916  136.3446  155.0316 N   0  0  0  0  0  0  0  0  0  0  0  0
  141.3104  136.5571  154.6544 N   0  0  0  0  0  0  0  0  0  0  0  0
  141.4458  137.6666  153.9152 C   0  0  0  0  0  0  0  0  0  0  0  0
  142.6870  138.1237  153.3982 N   0  0  0  0  0  0  0  0  0  0  0  0
  143.8398  137.4421  153.2780 C   0  0  0  0  0  0  0  0  0  0  0  0
  144.0095  136.2649  153.5965 O   0  0  0  0  0  0  0  0  0  0  0  0
  144.8093  138.2105  152.7604 N   0  0  0  0  0  0  0  0  0  0  0  0
  146.1739  137.7653  152.5024 C   0  0  0  0  0  0  0  0  0  0  0  0
  147.2102  138.7687  153.0453 C   0  0  0  0  0  0  0  0  0  0  0  0
  148.3771  138.0974  153.6700 N   0  3  1  0  0  0  0  0  0  0  0  0
  149.5418  139.0037  153.8089 C   0  0  0  0  0  0  0  0  0  0  0  0
  150.7464  138.2504  154.4050 C   0  0  1  0  0  0  0  0  0  0  0  0
  151.9488  139.1711  154.6390 C   0  0  0  0  0  0  0  0  0  0  0  0
  150.3692  137.6897  155.6573 O   0  0  0  0  0  0  0  0  0  0  0  0
  149.3091  136.7478  155.5379 C   0  0  1  0  0  0  0  0  0  0  0  0
  149.0514  136.1432  156.9222 C   0  0  0  0  0  0  0  0  0  0  0  0
  148.0651  137.4587  154.9726 C   0  0  0  0  0  0  0  0  0  0  0  0
  139.9584  138.5502  153.6181 S   0  0  0  0  0  0  0  0  0  0  0  0
  137.3568  136.2890  155.0630 H   0  0  0  0  0  0  0  0  0  0  0  0
  137.1648  137.6611  153.9606 H   0  0  0  0  0  0  0  0  0  0  0  0
  137.4826  137.9462  155.6810 H   0  0  0  0  0  0  0  0  0  0  0  0
  142.6977  139.0839  153.0873 H   0  0  0  0  0  0  0  0  0  0  0  0
  144.5860  139.1659  152.5213 H   0  0  0  0  0  0  0  0  0  0  0  0
  146.3102  136.7745  152.9364 H   0  0  0  0  0  0  0  0  0  0  0  0
  146.2958  137.6517  151.4248 H   0  0  0  0  0  0  0  0  0  0  0  0
  147.5550  139.3821  152.2114 H   0  0  0  0  0  0  0  0  0  0  0  0
  146.7577  139.4538  153.7640 H   0  0  0  0  0  0  0  0  0  0  0  0
  149.8109  139.4103  152.8332 H   0  0  0  0  0  0  0  0  0  0  0  0
  149.2707  139.8479  154.4450 H   0  0  0  0  0  0  0  0  0  0  0  0
  151.0502  137.4486  153.7295 H   0  0  0  0  0  0  0  0  0  0  0  0
  152.2892  139.6192  153.7053 H   0  0  0  0  0  0  0  0  0  0  0  0
  152.7855  138.6164  155.0644 H   0  0  0  0  0  0  0  0  0  0  0  0
  151.7004  139.9791  155.3278 H   0  0  0  0  0  0  0  0  0  0  0  0
  149.6143  135.9470  154.8617 H   0  0  0  0  0  0  0  0  0  0  0  0
  148.2490  135.4060  156.8863 H   0  0  0  0  0  0  0  0  0  0  0  0
  148.7686  136.9115  157.6425 H   0  0  0  0  0  0  0  0  0  0  0  0
  149.9437  135.6444  157.3014 H   0  0  0  0  0  0  0  0  0  0  0  0
  147.7139  138.2169  155.6747 H   0  0  0  0  0  0  0  0  0  0  0  0
  147.2596  136.7341  154.8574 H   0  0  0  0  0  0  0  0  0  0  0  0
  148.6630  137.3630  153.0382 H   0  0  0  0  0  0  0  0  0  0  0  0
  1  2  1  0  0  0  0
  1 21  1  0  0  0  0
  1 22  1  0  0  0  0
  1 23  1  0  0  0  0
  2 20  1  0  0  0  0
  2  3  2  0  0  0  0
  3  4  1  0  0  0  0
  4  5  2  0  0  0  0
  5  6  1  0  0  0  0
  5 20  1  0  0  0  0
  6  7  1  0  0  0  0
  6 24  1  0  0  0  0
  7  8  2  0  0  0  0
  7  9  1  0  0  0  0
  9 10  1  0  0  0  0
  9 25  1  0  0  0  0
 10 11  1  0  0  0  0
 10 26  1  0  0  0  0
 10 27  1  0  0  0  0
 11 12  1  0  0  0  0
 11 28  1  0  0  0  0
 11 29  1  0  0  0  0
 12 19  1  0  0  0  0
 12 13  1  0  0  0  0
 12 42  1  0  0  0  0
 13 14  1  0  0  0  0
 13 30  1  0  0  0  0
 13 31  1  0  0  0  0
 14 15  1  0  0  0  0
 14 16  1  0  0  0  0
 14 32  1  0  0  0  0
 15 33  1  0  0  0  0
 15 34  1  0  0  0  0
 15 35  1  0  0  0  0
 16 17  1  0  0  0  0
 17 18  1  0  0  0  0
 17 19  1  0  0  0  0
 17 36  1  0  0  0  0
 18 37  1  0  0  0  0
 18 38  1  0  0  0  0
 18 39  1  0  0  0  0
 19 40  1  0  0  0  0
 19 41  1  0  0  0  0
M  CHG  1  12   1
M  END
> <s_m_source_file>
AV-unprocessed.smi

> <i_m_source_file_index>
1641

> <i_lp_mmshare_version>
43012

> <i_f3d_flags>
0

> <s_epik_input>
W0NIM11jMW5uYyhzMSlbTkhdQyg9TylbTkhdW0NIMl1bQ0gyXU4yW0NIMl1bQ0BASF0oW0NIM10pT1tDQEBIXShbQ0gzXSlbQ0gyXTI=

> <s_epik_cmdline>
J2VwaWtfcHl0aG9uJywgJy1waCcsICc3LjAnLCAnLXRuJywgJzgnLCAnLW1hJywgJzIwMCcsICctbWV0YWxfYmluZGluZycsICctaW1hZScsICc8aW5maWxlLm1hZT4nLCAnLW9tYWUnLCAnPG91dGZpbGUubWFlPic=

> <r_lp_tautomer_probability>
1

> <r_epik_Ionization_Penalty>
0.700114

> <r_epik_Ionization_Penalty_Charging>
0.695697

> <r_epik_Ionization_Penalty_Neutral>
0.00441638

> <r_epik_State_Penalty>
0.717972

> <r_epik_Charging_Adjusted_Penalty>
1.41367

> <i_epik_Tot_Q>
1

> <i_epik_Tot_abs_Q>
1

> <r_epik_Metal_State_Penalty>
1.06958

> <b_epik_Metal_Only>
0

> <s_lp_Force_Field>
OPLS_2005

> <r_lp_Energy>
12.6792

> <b_lp_Chiralities_Consistent>
1

> <s_lp_Variant>
AV-unprocessed.smi:1641-4

> <Gold.Version>
5.8.1

> <Gold.Id.Protein>
6NUR|6NUR_protein|mol2

> <Gold.PLP.Fitness>
44.8435

> <Gold.PLP.PLP>
-30.9111

> <Gold.PLP.part.hbond>
-4.9097

> <Gold.PLP.part.metal>
0.0000

> <Gold.PLP.part.buried>
-3.3257

> <Gold.PLP.part.nonpolar>
-23.9658

> <Gold.PLP.part.repulsive>
0.2979

> <Gold.PLP.ligand.clash>
0.0000

> <Gold.PLP.ligand.torsion>
0.5143

> <Gold.PLP.Chemscore.Hbond>
4.9833

> <Gold.PLP.Chemscore.CHOScore>
0.0000

> <Gold.PLP.Chemscore.Metal>
0.0000

> <Gold.Chemscore.Hbonds>
donor molecule, donor type, donor heavy atom, donor atom, acceptor molecule, acceptor atom, score
      L1  H     6    24       P1 10175  0.98
      L1  H     9    25       P1 10175  1.00
      L1  H    12    42       P1  7948  2.00
      P1  H 11000 11005       L1     3  1.00

> <Gold.PLP.Chemscore.Internal.Correction>
0.0111

> <Gold.Rescore>
     Score         DG    S(hbond)    S(metal)    S(lipo)     H(rot)  DE(clash)    DE(int)     intcor
     19.74     -21.58       3.83        0.00      64.13       1.64       0.10       1.75       ----

> <Gold.Chemscore.Fitness>
19.7370

> <Gold.Chemscore.DG>
-21.5778

> <Gold.Chemscore.ZeroCoef>
-5.4800

> <Gold.Chemscore.Hbond>
3.8271

> <Gold.Chemscore.Metal>
0.0000

> <Gold.Chemscore.Lipo>
64.1287

> <Gold.Chemscore.Internal_Hbond>
0.0000

> <Gold.Chemscore.DEClash>
0.0952

> <Gold.Chemscore.DEInternal>
1.7456

> <Gold.Chemscore.Rot>
1.6358

> <Gold.Chemscore.Internal.Correction>
   9.000000E+99

> <Gold.Chemscore.Hbonds>
donor molecule, donor type, donor heavy atom, donor atom, acceptor molecule, acceptor atom, score
      L1  H     6    24       P1 10175  0.93
      L1  H     9    25       P1 10175  0.95
      L1  H    12    42       P1  7948  1.00
      P1  H 11000 11005       L1     3  0.53

> <Gold.Chemscore.Hbond.Weighted>
-12.7825

> <Gold.Chemscore.Metal.Weighted>
-0.0000

> <Gold.Chemscore.Lipo.Weighted>
-7.5031

> <Gold.Chemscore.Internal_Hbond.Weighted>
0.0000

> <Gold.Chemscore.DEClash.Weighted>
0.0952

> <Gold.Chemscore.DEInternal.Weighted>
1.7456

> <Gold.Chemscore.Rot.Weighted>
4.1878

> <Gold.Chemscore.Internal.Correction.Weighted>
   9.000000E+99

> <Gold.Protein.RotatedTorsions>
[ 6907 6896 6895 6894 ] final  -19.85 input  -60.11 | X-H torsion
[ 7974 7965 7964 7962 ] final -151.59 input  175.53 | X-H torsion
[ 8008 7997 7996 7995 ] final -163.89 input   59.86 | X-H torsion
[ 10167 10162 10161 10158 ] final -175.89 input  -65.29 | X-H torsion
[ 10718 10713 10712 10709 ] final  115.86 input   66.30 | X-H torsion
[ 10763 10752 10751 10750 ] final   88.57 input  -60.55 | X-H torsion
[ 11005 11000 10999 10996 ] final   66.61 input  -57.11 | X-H torsion

> <Gold.Protein.ActiveResidues>
 VAL166  LYS551  ARG553  GLY616  TRP617  ASP618  TYR619  PRO620  LYS621  CYS622 
 ASP623  PHE694  ASN695  SER759  ASP760  ASP761  ALA762  ILE779  LEU786  VAL792 
 PHE793  MET794  SER795  GLU796  ALA797  LYS798  CYS799  TRP800  GLU811  SER814 

> <Gold.Protein.RotatedAtoms>
  151.2570  135.0641  159.9083 H   0  0  0  0  0  0  0  0  0  0  0  0  # atno 6907 bound_to 6896
  152.5372  134.0272  159.8018 H   0  0  0  0  0  0  0  0  0  0  0  0  # atno 6908 bound_to 6896
  151.0489  133.5592  159.2675 H   0  0  0  0  0  0  0  0  0  0  0  0  # atno 6909 bound_to 6896
  144.7841  140.4777  143.5818 H   0  0  0  0  0  0  0  0  0  0  0  0  # atno 7974 bound_to 7965
  155.8278  140.0929  157.1810 H   0  0  0  0  0  0  0  0  0  0  0  0  # atno 8008 bound_to 7997
  154.3979  140.1424  156.3638 H   0  0  0  0  0  0  0  0  0  0  0  0  # atno 8009 bound_to 7997
  155.8198  140.3446  155.5510 H   0  0  0  0  0  0  0  0  0  0  0  0  # atno 8010 bound_to 7997
  139.5557  144.1994  152.1155 H   0  0  0  0  0  0  0  0  0  0  0  0  # atno 10167 bound_to 10162
  157.6196  131.1018  150.7390 H   0  0  0  0  0  0  0  0  0  0  0  0  # atno 10718 bound_to 10713
  153.1782  135.4502  154.9993 H   0  0  0  0  0  0  0  0  0  0  0  0  # atno 10763 bound_to 10752
  154.8012  135.3256  154.7547 H   0  0  0  0  0  0  0  0  0  0  0  0  # atno 10764 bound_to 10752
  153.8014  135.6962  153.4910 H   0  0  0  0  0  0  0  0  0  0  0  0  # atno 10765 bound_to 10752
  139.9821  134.6727  156.0243 H   0  0  0  0  0  0  0  0  0  0  0  0  # atno 11005 bound_to 11000
  145.5969  139.1500  143.3151 LP  0  0  0  0  0  0  0  0  0  0  0  0  # atno 17320 bound_to 7965
  146.2065  140.6092  142.9079 LP  0  0  0  0  0  0  0  0  0  0  0  0  # atno 17321 bound_to 7965
  140.1498  144.5125  150.6694 LP  0  0  0  0  0  0  0  0  0  0  0  0  # atno 17342 bound_to 10162
  140.6830  143.2336  151.5335 LP  0  0  0  0  0  0  0  0  0  0  0  0  # atno 17343 bound_to 10162
  156.7750  130.4841  149.5411 LP  0  0  0  0  0  0  0  0  0  0  0  0  # atno 17370 bound_to 10713
  156.1335  130.6194  151.0367 LP  0  0  0  0  0  0  0  0  0  0  0  0  # atno 17371 bound_to 10713
  141.1491  133.6551  156.3959 LP  0  0  0  0  0  0  0  0  0  0  0  0  # atno 17394 bound_to 11000
  140.5076  134.6426  157.5272 LP  0  0  0  0  0  0  0  0  0  0  0  0  # atno 17395 bound_to 11000

$$$$
