AV-unprocessed.smi:229|AV-procd|sdf|1747|dock5
  -GOLD-   2262020263D 1   1.00000     0.00000
 Structure written by MMmdl.
 58 62  0  0  0  0  0  0  0  0  1 V2000
  150.4012  130.7667  154.9515 C   0  0  0  0  0  0  0  0  0  0  0  0
  150.9218  132.1123  155.4737 C   0  0  0  0  0  0  0  0  0  0  0  0
  150.1131  133.3231  154.9793 C   0  0  2  0  0  0  0  0  0  0  0  0
  150.7223  134.6692  155.4130 C   0  0  0  0  0  0  0  0  0  0  0  0
  149.8452  135.7633  155.0167 N   0  0  0  0  0  0  0  0  0  0  0  0
  150.4151  136.9948  155.0414 C   0  0  0  0  0  0  0  0  0  0  0  0
  151.6037  137.2073  154.4149 N   0  0  0  0  0  0  0  0  0  0  0  0
  152.1667  138.4192  154.4265 C   0  0  0  0  0  0  0  0  0  0  0  0
  151.7228  139.5399  154.9980 N   0  0  0  0  0  0  0  0  0  0  0  0
  150.5353  139.3327  155.6351 C   0  0  0  0  0  0  0  0  0  0  0  0
  149.8195  138.1039  155.7066 C   0  0  0  0  0  0  0  0  0  0  0  0
  148.6588  138.2765  156.4528 N   0  0  0  0  0  0  0  0  0  0  0  0
  148.6810  139.5367  156.7912 C   0  0  0  0  0  0  0  0  0  0  0  0
  149.7708  140.2453  156.3404 N   0  0  0  0  0  0  0  0  0  0  0  0
  150.0430  141.6536  156.5683 C   0  0  0  0  0  0  0  0  0  0  0  0
  151.2409  141.8744  157.5127 C   0  0  2  0  0  0  0  0  0  0  0  0
  151.0237  141.2332  158.7554 O   0  0  0  0  0  0  0  0  0  0  0  0
  151.5715  143.3670  157.7188 C   0  0  2  0  0  0  0  0  0  0  0  0
  152.7780  143.6833  158.6076 C   0  0  0  0  0  0  0  0  0  0  0  0
  152.4546  145.0923  159.0522 C   0  0  0  0  0  0  0  0  0  0  0  0
  150.9414  145.0190  159.2407 C   0  0  0  0  0  0  0  0  0  0  0  0
  150.4719  144.0897  158.2677 O   0  0  0  0  0  0  0  0  0  0  0  0
  148.4903  135.6197  155.5395 C   0  0  0  0  0  0  0  0  0  0  0  0
  147.8926  134.2499  155.1442 C   0  0  1  0  0  0  0  0  0  0  0  0
  146.5703  134.0022  155.8630 C   0  0  0  0  0  0  0  0  0  0  0  0
  145.5323  134.4648  154.8521 C   0  0  0  0  0  0  0  0  0  0  0  0
  146.0651  133.9854  153.6319 O   0  0  0  0  0  0  0  0  0  0  0  0
  147.4755  134.1753  153.6562 C   0  0  0  0  0  0  0  0  0  0  0  0
  148.7969  133.2080  155.5238 O   0  0  0  0  0  0  0  0  0  0  0  0
  150.9687  129.9412  155.3812 H   0  0  0  0  0  0  0  0  0  0  0  0
  150.4895  130.6945  153.8675 H   0  0  0  0  0  0  0  0  0  0  0  0
  149.3533  130.6210  155.2146 H   0  0  0  0  0  0  0  0  0  0  0  0
  150.8924  132.0918  156.5637 H   0  0  0  0  0  0  0  0  0  0  0  0
  151.9713  132.2311  155.2015 H   0  0  0  0  0  0  0  0  0  0  0  0
  150.0637  133.2835  153.8908 H   0  0  0  0  0  0  0  0  0  0  0  0
  150.8492  134.6938  156.4962 H   0  0  0  0  0  0  0  0  0  0  0  0
  151.7135  134.7834  154.9774 H   0  0  0  0  0  0  0  0  0  0  0  0
  153.1074  138.5029  153.9028 H   0  0  0  0  0  0  0  0  0  0  0  0
  147.8970  139.9877  157.3821 H   0  0  0  0  0  0  0  0  0  0  0  0
  150.2335  142.1234  155.6028 H   0  0  0  0  0  0  0  0  0  0  0  0
  149.1443  142.1231  156.9702 H   0  0  0  0  0  0  0  0  0  0  0  0
  152.1180  141.3992  157.0719 H   0  0  0  0  0  0  0  0  0  0  0  0
  151.7315  140.6262  158.9079 H   0  0  0  0  0  0  0  0  0  0  0  0
  151.7571  143.8122  156.7400 H   0  0  0  0  0  0  0  0  0  0  0  0
  152.8220  143.0287  159.4787 H   0  0  0  0  0  0  0  0  0  0  0  0
  153.7276  143.6087  158.0769 H   0  0  0  0  0  0  0  0  0  0  0  0
  152.9833  145.3905  159.9580 H   0  0  0  0  0  0  0  0  0  0  0  0
  152.7017  145.8018  158.2611 H   0  0  0  0  0  0  0  0  0  0  0  0
  150.7017  144.6314  160.2317 H   0  0  0  0  0  0  0  0  0  0  0  0
  150.4588  145.9903  159.1311 H   0  0  0  0  0  0  0  0  0  0  0  0
  148.5277  135.7084  156.6264 H   0  0  0  0  0  0  0  0  0  0  0  0
  147.8535  136.4267  155.1736 H   0  0  0  0  0  0  0  0  0  0  0  0
  146.4355  132.9348  156.0450 H   0  0  0  0  0  0  0  0  0  0  0  0
  146.4884  134.5131  156.8228 H   0  0  0  0  0  0  0  0  0  0  0  0
  144.5401  134.0570  155.0467 H   0  0  0  0  0  0  0  0  0  0  0  0
  145.4637  135.5534  154.8255 H   0  0  0  0  0  0  0  0  0  0  0  0
  147.7246  135.0946  153.1247 H   0  0  0  0  0  0  0  0  0  0  0  0
  147.9452  133.3486  153.1241 H   0  0  0  0  0  0  0  0  0  0  0  0
  1  2  1  0  0  0  0
  1 30  1  0  0  0  0
  1 31  1  0  0  0  0
  1 32  1  0  0  0  0
  2  3  1  0  0  0  0
  2 33  1  0  0  0  0
  2 34  1  0  0  0  0
  3 29  1  0  0  0  0
  3  4  1  0  0  0  0
  3 35  1  0  0  0  0
  4  5  1  0  0  0  0
  4 36  1  0  0  0  0
  4 37  1  0  0  0  0
  5  6  1  0  0  0  0
  5 23  1  0  0  0  0
  6 11  1  0  0  0  0
  6  7  2  0  0  0  0
  7  8  1  0  0  0  0
  8  9  2  0  0  0  0
  8 38  1  0  0  0  0
  9 10  1  0  0  0  0
 10 14  1  0  0  0  0
 10 11  2  0  0  0  0
 11 12  1  0  0  0  0
 12 13  2  0  0  0  0
 13 14  1  0  0  0  0
 13 39  1  0  0  0  0
 14 15  1  0  0  0  0
 15 16  1  0  0  0  0
 15 40  1  0  0  0  0
 15 41  1  0  0  0  0
 16 17  1  0  0  0  0
 16 18  1  0  0  0  0
 16 42  1  0  0  0  0
 17 43  1  0  0  0  0
 18 22  1  0  0  0  0
 18 19  1  0  0  0  0
 18 44  1  0  0  0  0
 19 20  1  0  0  0  0
 19 45  1  0  0  0  0
 19 46  1  0  0  0  0
 20 21  1  0  0  0  0
 20 47  1  0  0  0  0
 20 48  1  0  0  0  0
 21 22  1  0  0  0  0
 21 49  1  0  0  0  0
 21 50  1  0  0  0  0
 23 24  1  0  0  0  0
 23 51  1  0  0  0  0
 23 52  1  0  0  0  0
 24 28  1  0  0  0  0
 24 25  1  0  0  0  0
 24 29  1  0  0  0  0
 25 26  1  0  0  0  0
 25 53  1  0  0  0  0
 25 54  1  0  0  0  0
 26 27  1  0  0  0  0
 26 55  1  0  0  0  0
 26 56  1  0  0  0  0
 27 28  1  0  0  0  0
 28 57  1  0  0  0  0
 28 58  1  0  0  0  0
M  END
> <s_m_source_file>
AV-unprocessed.smi

> <i_m_source_file_index>
229

> <i_lp_mmshare_version>
43012

> <i_f3d_flags>
0

> <s_epik_input>
W0NIMl0xT1tDSDJdW0NIMl1bQ0BdMTJbQ0gyXU4oW0NIMl1bQ0BIXShPMilbQ0gyXVtDSDNdKWMobltjSF1uMyljKGMzNCluW2NIXW40W0NIMl1bQ0BIXShbT0hdKVtDQEBIXTVbQ0gyXVtDSDJdW0NIMl1PNQ==

> <s_epik_cmdline>
J2VwaWtfcHl0aG9uJywgJy1waCcsICc3LjAnLCAnLXRuJywgJzgnLCAnLW1hJywgJzIwMCcsICctbWV0YWxfYmluZGluZycsICctaW1hZScsICc8aW5maWxlLm1hZT4nLCAnLW9tYWUnLCAnPG91dGZpbGUubWFlPic=

> <r_lp_tautomer_probability>
1

> <r_epik_Ionization_Penalty>
0.00318402

> <r_epik_Ionization_Penalty_Charging>
0

> <r_epik_Ionization_Penalty_Neutral>
0.00318402

> <r_epik_State_Penalty>
0.00215642

> <r_epik_Charging_Adjusted_Penalty>
0.00215642

> <i_epik_Tot_Q>
0

> <i_epik_Tot_abs_Q>
0

> <r_epik_Metal_State_Penalty>
-0

> <b_epik_Metal_Only>
0

> <s_lp_Force_Field>
OPLS_2005

> <r_lp_Energy>
57.781

> <b_lp_Chiralities_Consistent>
1

> <s_lp_Variant>
AV-unprocessed.smi:229-1

> <Gold.Version>
5.8.1

> <Gold.Id.Protein>
6NUR|6NUR_protein|mol2

> <Gold.PLP.Fitness>
46.2957

> <Gold.PLP.PLP>
-40.4784

> <Gold.PLP.part.hbond>
-2.0000

> <Gold.PLP.part.metal>
0.0000

> <Gold.PLP.part.buried>
-7.7667

> <Gold.PLP.part.nonpolar>
-30.7101

> <Gold.PLP.part.repulsive>
0.9743

> <Gold.PLP.ligand.clash>
0.0000

> <Gold.PLP.ligand.torsion>
0.2551

> <Gold.PLP.Chemscore.Hbond>
1.9913

> <Gold.PLP.Chemscore.CHOScore>
0.0000

> <Gold.PLP.Chemscore.Metal>
0.0000

> <Gold.Chemscore.Hbonds>
donor molecule, donor type, donor heavy atom, donor atom, acceptor molecule, acceptor atom, score
      P1  H  7989  7998       L1     9  1.00
      P1  H 10752 10765       L1     7  0.98

> <Gold.PLP.Chemscore.Internal.Correction>
0.3538

> <Gold.Rescore>
     Score         DG    S(hbond)    S(metal)    S(lipo)     H(rot)  DE(clash)    DE(int)     intcor
     13.10     -15.36       1.32        0.00     100.39       2.46       0.59       1.67       ----

> <Gold.Chemscore.Fitness>
13.0992

> <Gold.Chemscore.DG>
-15.3550

> <Gold.Chemscore.ZeroCoef>
-5.4800

> <Gold.Chemscore.Hbond>
1.3249

> <Gold.Chemscore.Metal>
0.0000

> <Gold.Chemscore.Lipo>
100.3852

> <Gold.Chemscore.Internal_Hbond>
0.0000

> <Gold.Chemscore.DEClash>
0.5901

> <Gold.Chemscore.DEInternal>
1.6658

> <Gold.Chemscore.Rot>
2.4591

> <Gold.Chemscore.Internal.Correction>
   9.000000E+99

> <Gold.Chemscore.Hbonds>
donor molecule, donor type, donor heavy atom, donor atom, acceptor molecule, acceptor atom, score
      P1  H  7989  7998       L1     9  0.38
      P1  H 10752 10765       L1     7  0.77

> <Gold.Chemscore.Hbond.Weighted>
-4.4253

> <Gold.Chemscore.Metal.Weighted>
-0.0000

> <Gold.Chemscore.Lipo.Weighted>
-11.7451

> <Gold.Chemscore.Internal_Hbond.Weighted>
0.0000

> <Gold.Chemscore.DEClash.Weighted>
0.5901

> <Gold.Chemscore.DEInternal.Weighted>
1.6658

> <Gold.Chemscore.Rot.Weighted>
6.2953

> <Gold.Chemscore.Internal.Correction.Weighted>
   9.000000E+99

> <Gold.Protein.RotatedTorsions>
[ 6907 6896 6895 6894 ] final  -86.60 input  -60.11 | X-H torsion
[ 7974 7965 7964 7962 ] final   71.21 input  175.53 | X-H torsion
[ 8008 7997 7996 7995 ] final   37.87 input   59.86 | X-H torsion
[ 10167 10162 10161 10158 ] final -147.77 input  -65.29 | X-H torsion
[ 10718 10713 10712 10709 ] final -135.51 input   66.30 | X-H torsion
[ 10763 10752 10751 10750 ] final  163.02 input  -60.55 | X-H torsion
[ 11005 11000 10999 10996 ] final  -81.69 input  -57.11 | X-H torsion

> <Gold.Protein.ActiveResidues>
 VAL166  LYS551  ARG553  GLY616  TRP617  ASP618  TYR619  PRO620  LYS621  CYS622 
 ASP623  PHE694  ASN695  SER759  ASP760  ASP761  ALA762  ILE779  LEU786  VAL792 
 PHE793  MET794  SER795  GLU796  ALA797  LYS798  CYS799  TRP800  GLU811  SER814 

> <Gold.Protein.RotatedAtoms>
  150.6867  134.3026  159.4712 H   0  0  0  0  0  0  0  0  0  0  0  0  # atno 6907 bound_to 6896
  152.0920  134.9398  160.0581 H   0  0  0  0  0  0  0  0  0  0  0  0  # atno 6908 bound_to 6896
  152.0710  133.4072  159.4496 H   0  0  0  0  0  0  0  0  0  0  0  0  # atno 6909 bound_to 6896
  145.7687  139.2833  143.1334 H   0  0  0  0  0  0  0  0  0  0  0  0  # atno 7974 bound_to 7965
  155.2109  140.3323  155.4329 H   0  0  0  0  0  0  0  0  0  0  0  0  # atno 8008 bound_to 7997
  156.2371  140.1877  156.7139 H   0  0  0  0  0  0  0  0  0  0  0  0  # atno 8009 bound_to 7997
  154.6078  140.0613  156.9440 H   0  0  0  0  0  0  0  0  0  0  0  0  # atno 8010 bound_to 7997
  139.7592  143.8403  152.2603 H   0  0  0  0  0  0  0  0  0  0  0  0  # atno 10167 bound_to 10162
  156.2669  130.7243  151.1196 H   0  0  0  0  0  0  0  0  0  0  0  0  # atno 10718 bound_to 10713
  154.2874  135.2762  155.2670 H   0  0  0  0  0  0  0  0  0  0  0  0  # atno 10763 bound_to 10752
  154.5164  135.5768  153.6649 H   0  0  0  0  0  0  0  0  0  0  0  0  # atno 10764 bound_to 10752
  152.9919  135.6194  154.3036 H   0  0  0  0  0  0  0  0  0  0  0  0  # atno 10765 bound_to 10752
  141.1666  133.7208  156.8460 H   0  0  0  0  0  0  0  0  0  0  0  0  # atno 11005 bound_to 11000
  146.0192  140.8364  142.9932 LP  0  0  0  0  0  0  0  0  0  0  0  0  # atno 17320 bound_to 7965
  144.6816  140.2603  143.7320 LP  0  0  0  0  0  0  0  0  0  0  0  0  # atno 17321 bound_to 7965
  139.8404  144.7213  150.9339 LP  0  0  0  0  0  0  0  0  0  0  0  0  # atno 17342 bound_to 10162
  140.7805  143.3989  151.1183 LP  0  0  0  0  0  0  0  0  0  0  0  0  # atno 17343 bound_to 10162
  157.7270  131.0642  150.5883 LP  0  0  0  0  0  0  0  0  0  0  0  0  # atno 17370 bound_to 10713
  156.5975  130.4346  149.5910 LP  0  0  0  0  0  0  0  0  0  0  0  0  # atno 17371 bound_to 10713
  140.1949  134.8939  157.3103 LP  0  0  0  0  0  0  0  0  0  0  0  0  # atno 17394 bound_to 11000
  140.2250  134.3978  155.7548 LP  0  0  0  0  0  0  0  0  0  0  0  0  # atno 17395 bound_to 11000

$$$$
