AV-unprocessed.smi:2891|AV-procd|sdf|11117|dock10
  -GOLD-   2272015583D 1   1.00000     0.00000
 Structure written by MMmdl.
 35 36  0  0  0  0  0  0  0  0  1 V2000
  151.6663  137.9266  154.4346 C   0  0  0  0  0  0  0  0  0  0  0  0
  151.3429  136.6866  155.0396 O   0  0  0  0  0  0  0  0  0  0  0  0
  149.9548  136.4043  154.9876 C   0  0  0  0  0  0  0  0  0  0  0  0
  149.6076  135.4064  156.1026 C   0  0  0  0  0  0  0  0  0  0  0  0
  149.6329  134.0224  155.6109 N   0  0  0  0  0  0  0  0  0  0  0  0
  148.9558  133.7604  154.4047 C   0  0  0  0  0  0  0  0  0  0  0  0
  148.9102  132.5381  153.8444 C   0  0  0  0  0  0  0  0  0  0  0  0
  148.2099  132.3993  152.6375 N   0  0  0  0  0  0  0  0  0  0  0  0
  147.1391  133.0814  152.1906 C   0  0  0  0  0  0  0  0  0  0  0  0
  146.5527  133.9807  152.7919 O   0  0  0  0  0  0  0  0  0  0  0  0
  146.7721  132.6475  150.9770 N   0  0  0  0  0  0  0  0  0  0  0  0
  145.6707  133.1438  150.2164 C   0  0  0  0  0  0  0  0  0  0  0  0
  144.3024  133.1162  150.8630 C   0  0  0  0  0  0  0  0  0  0  0  0
  144.6266  132.1482  149.7590 C   0  0  0  0  0  0  0  0  0  0  0  0
  149.5977  131.4671  154.5512 C   0  0  0  0  0  0  0  0  0  0  0  0
  150.2559  131.7107  155.7016 C   0  0  0  0  0  0  0  0  0  0  0  0
  150.3088  133.0504  156.2918 C   0  0  0  0  0  0  0  0  0  0  0  0
  150.9235  133.2831  157.3329 O   0  0  0  0  0  0  0  0  0  0  0  0
  152.7404  138.0983  154.5009 H   0  0  0  0  0  0  0  0  0  0  0  0
  151.1618  138.7536  154.9360 H   0  0  0  0  0  0  0  0  0  0  0  0
  151.3885  137.9344  153.3797 H   0  0  0  0  0  0  0  0  0  0  0  0
  149.3833  137.3251  155.1156 H   0  0  0  0  0  0  0  0  0  0  0  0
  149.6969  135.9885  154.0122 H   0  0  0  0  0  0  0  0  0  0  0  0
  150.2965  135.5302  156.9403 H   0  0  0  0  0  0  0  0  0  0  0  0
  148.6233  135.6425  156.5097 H   0  0  0  0  0  0  0  0  0  0  0  0
  148.4819  134.6242  153.9597 H   0  0  0  0  0  0  0  0  0  0  0  0
  148.5662  131.6803  152.0249 H   0  0  0  0  0  0  0  0  0  0  0  0
  147.3116  131.9046  150.5575 H   0  0  0  0  0  0  0  0  0  0  0  0
  145.8624  133.9787  149.5436 H   0  0  0  0  0  0  0  0  0  0  0  0
  144.2241  132.7187  151.8734 H   0  0  0  0  0  0  0  0  0  0  0  0
  143.6210  133.9322  150.6310 H   0  0  0  0  0  0  0  0  0  0  0  0
  144.1631  132.3186  148.7892 H   0  0  0  0  0  0  0  0  0  0  0  0
  144.7626  131.1034  150.0326 H   0  0  0  0  0  0  0  0  0  0  0  0
  149.5994  130.4534  154.1859 H   0  0  0  0  0  0  0  0  0  0  0  0
  150.7556  130.8965  156.2054 H   0  0  0  0  0  0  0  0  0  0  0  0
  1  2  1  0  0  0  0
  1 19  1  0  0  0  0
  1 20  1  0  0  0  0
  1 21  1  0  0  0  0
  2  3  1  0  0  0  0
  3  4  1  0  0  0  0
  3 22  1  0  0  0  0
  3 23  1  0  0  0  0
  4  5  1  0  0  0  0
  4 24  1  0  0  0  0
  4 25  1  0  0  0  0
  5 17  1  0  0  0  0
  5  6  1  0  0  0  0
  6  7  2  0  0  0  0
  6 26  1  0  0  0  0
  7  8  1  0  0  0  0
  7 15  1  0  0  0  0
  8  9  1  0  0  0  0
  8 27  1  0  0  0  0
  9 10  2  0  0  0  0
  9 11  1  0  0  0  0
 11 12  1  0  0  0  0
 11 28  1  0  0  0  0
 12 14  1  0  0  0  0
 12 13  1  0  0  0  0
 12 29  1  0  0  0  0
 13 14  1  0  0  0  0
 13 30  1  0  0  0  0
 13 31  1  0  0  0  0
 14 32  1  0  0  0  0
 14 33  1  0  0  0  0
 15 16  2  0  0  0  0
 15 34  1  0  0  0  0
 16 17  1  0  0  0  0
 16 35  1  0  0  0  0
 17 18  2  0  0  0  0
M  END
> <s_m_source_file>
AV-unprocessed.smi

> <i_m_source_file_index>
2891

> <i_lp_mmshare_version>
43012

> <i_f3d_flags>
0

> <s_epik_input>
W0NIM11PW0NIMl1bQ0gyXW4xW2NIXWMoW2NIXVtjSF1jMT1PKVtOSF1DKD1PKVtOSF1bQ0hdMltDSDJdW0NIMl0y

> <s_epik_cmdline>
J2VwaWtfcHl0aG9uJywgJy1waCcsICc3LjAnLCAnLXRuJywgJzgnLCAnLW1hJywgJzIwMCcsICctbWV0YWxfYmluZGluZycsICctaW1hZScsICc8aW5maWxlLm1hZT4nLCAnLW9tYWUnLCAnPG91dGZpbGUubWFlPic=

> <r_lp_tautomer_probability>
1

> <r_epik_Ionization_Penalty>
2.77726e-05

> <r_epik_Ionization_Penalty_Charging>
5.82689e-06

> <r_epik_Ionization_Penalty_Neutral>
2.19457e-05

> <r_epik_State_Penalty>
-0

> <r_epik_Charging_Adjusted_Penalty>
5.82689e-06

> <i_epik_Tot_Q>
0

> <i_epik_Tot_abs_Q>
0

> <r_epik_Metal_State_Penalty>
-0

> <b_epik_Metal_Only>
0

> <s_lp_Force_Field>
OPLS_2005

> <r_lp_Energy>
28.443

> <b_lp_Chiralities_Consistent>
1

> <s_lp_Variant>
AV-unprocessed.smi:2891-1

> <Gold.Version>
5.8.1

> <Gold.Id.Protein>
6NUR|6NUR_protein|mol2

> <Gold.PLP.Fitness>
48.3570

> <Gold.PLP.PLP>
-36.4485

> <Gold.PLP.part.hbond>
-4.0000

> <Gold.PLP.part.metal>
0.0000

> <Gold.PLP.part.buried>
-6.2199

> <Gold.PLP.part.nonpolar>
-26.8574

> <Gold.PLP.part.repulsive>
0.2867

> <Gold.PLP.ligand.clash>
0.0000

> <Gold.PLP.ligand.torsion>
0.6829

> <Gold.PLP.Chemscore.Hbond>
3.8160

> <Gold.PLP.Chemscore.CHOScore>
0.5929

> <Gold.PLP.Chemscore.Metal>
0.0000

> <Gold.Chemscore.Hbonds>
donor molecule, donor type, donor heavy atom, donor atom, acceptor molecule, acceptor atom, score
      L1  H     8    27       P1 10747  1.00
      L1  H    11    28       P1 10747  1.00
      P1  H  6896  6908       L1    18  0.80
      P1  H 10752 10764       L1     2  1.00
      L1  C     6    26       P1  7948  0.69

> <Gold.PLP.Chemscore.Internal.Correction>
0.0475

> <Gold.Rescore>
     Score         DG    S(hbond)    S(metal)    S(lipo)     H(rot)  DE(clash)    DE(int)     intcor
     18.78     -20.86       3.54        0.00      67.04       1.67       0.02       2.05       ----

> <Gold.Chemscore.Fitness>
18.7848

> <Gold.Chemscore.DG>
-20.8567

> <Gold.Chemscore.ZeroCoef>
-5.4800

> <Gold.Chemscore.Hbond>
3.5376

> <Gold.Chemscore.Metal>
0.0000

> <Gold.Chemscore.Lipo>
67.0421

> <Gold.Chemscore.Internal_Hbond>
0.0000

> <Gold.Chemscore.DEClash>
0.0243

> <Gold.Chemscore.DEInternal>
2.0476

> <Gold.Chemscore.Rot>
1.6730

> <Gold.Chemscore.Internal.Correction>
   9.000000E+99

> <Gold.Chemscore.Hbonds>
donor molecule, donor type, donor heavy atom, donor atom, acceptor molecule, acceptor atom, score
      L1  H     8    27       P1 10747  0.96
      L1  H    11    28       P1 10747  0.95
      P1  H  6896  6908       L1    18  0.79
      P1  H 10752 10764       L1     2  0.38

> <Gold.Chemscore.Hbond.Weighted>
-11.8156

> <Gold.Chemscore.Metal.Weighted>
-0.0000

> <Gold.Chemscore.Lipo.Weighted>
-7.8439

> <Gold.Chemscore.Internal_Hbond.Weighted>
0.0000

> <Gold.Chemscore.DEClash.Weighted>
0.0243

> <Gold.Chemscore.DEInternal.Weighted>
2.0476

> <Gold.Chemscore.Rot.Weighted>
4.2828

> <Gold.Chemscore.Internal.Correction.Weighted>
   9.000000E+99

> <Gold.Protein.RotatedTorsions>
[ 6907 6896 6895 6894 ] final   81.91 input  -60.11 | X-H torsion
[ 7974 7965 7964 7962 ] final  130.85 input  175.53 | X-H torsion
[ 8008 7997 7996 7995 ] final  -45.16 input   59.86 | X-H torsion
[ 10167 10162 10161 10158 ] final   -7.09 input  -65.29 | X-H torsion
[ 10718 10713 10712 10709 ] final  -75.51 input   66.30 | X-H torsion
[ 10763 10752 10751 10750 ] final  -53.37 input  -60.55 | X-H torsion
[ 11005 11000 10999 10996 ] final -161.52 input  -57.11 | X-H torsion

> <Gold.Protein.ActiveResidues>
 VAL166  LYS551  ARG553  GLY616  TRP617  ASP618  TYR619  PRO620  LYS621  CYS622 
 ASP623  PHE694  ASN695  SER759  ASP760  ASP761  ALA762  ILE779  LEU786  VAL792 
 PHE793  MET794  SER795  GLU796  ALA797  LYS798  CYS799  TRP800  GLU811  SER814 

> <Gold.Protein.RotatedAtoms>
  152.5283  134.3131  159.9120 H   0  0  0  0  0  0  0  0  0  0  0  0  # atno 6907 bound_to 6896
  151.3081  133.4086  159.2652 H   0  0  0  0  0  0  0  0  0  0  0  0  # atno 6908 bound_to 6896
  151.0062  134.9378  159.8039 H   0  0  0  0  0  0  0  0  0  0  0  0  # atno 6909 bound_to 6896
  145.0135  139.4198  143.5233 H   0  0  0  0  0  0  0  0  0  0  0  0  # atno 7974 bound_to 7965
  154.4000  140.1404  156.3801 H   0  0  0  0  0  0  0  0  0  0  0  0  # atno 8008 bound_to 7997
  155.8011  140.3476  155.5383 H   0  0  0  0  0  0  0  0  0  0  0  0  # atno 8009 bound_to 7997
  155.8482  140.0937  157.1682 H   0  0  0  0  0  0  0  0  0  0  0  0  # atno 8010 bound_to 7997
  140.7018  143.6120  150.8695 H   0  0  0  0  0  0  0  0  0  0  0  0  # atno 10167 bound_to 10162
  156.0205  130.4442  150.3053 H   0  0  0  0  0  0  0  0  0  0  0  0  # atno 10718 bound_to 10713
  154.1578  135.6479  153.4978 H   0  0  0  0  0  0  0  0  0  0  0  0  # atno 10763 bound_to 10752
  153.0119  135.5353  154.6742 H   0  0  0  0  0  0  0  0  0  0  0  0  # atno 10764 bound_to 10752
  154.6047  135.2947  155.0469 H   0  0  0  0  0  0  0  0  0  0  0  0  # atno 10765 bound_to 10752
  140.6195  134.4765  157.5222 H   0  0  0  0  0  0  0  0  0  0  0  0  # atno 11005 bound_to 11000
  146.3474  139.9592  142.8719 LP  0  0  0  0  0  0  0  0  0  0  0  0  # atno 17320 bound_to 7965
  145.1991  140.9846  143.4166 LP  0  0  0  0  0  0  0  0  0  0  0  0  # atno 17321 bound_to 7965
  139.9842  143.5917  152.2932 LP  0  0  0  0  0  0  0  0  0  0  0  0  # atno 17342 bound_to 10162
  139.6549  144.7662  151.2075 LP  0  0  0  0  0  0  0  0  0  0  0  0  # atno 17343 bound_to 10162
  157.1156  131.0233  151.3030 LP  0  0  0  0  0  0  0  0  0  0  0  0  # atno 17370 bound_to 10713
  157.4670  130.7686  149.7288 LP  0  0  0  0  0  0  0  0  0  0  0  0  # atno 17371 bound_to 10713
  139.9159  134.8247  156.1368 LP  0  0  0  0  0  0  0  0  0  0  0  0  # atno 17394 bound_to 11000
  141.0752  133.6778  156.2222 LP  0  0  0  0  0  0  0  0  0  0  0  0  # atno 17395 bound_to 11000

$$$$
