AV-unprocessed.smi:3263|AV-procd|sdf|12487|dock6
  -GOLD-   2272018383D 1   1.00000     0.00000
 Structure written by MMmdl.
 41 43  0  0  0  0  0  0  0  0  1 V2000
  148.8064  140.9522  157.8865 O   0  0  0  0  0  0  0  0  0  0  0  0
  149.7243  141.3629  157.1756 C   0  0  0  0  0  0  0  0  0  0  0  0
  151.1205  141.6033  157.7616 C   0  0  0  0  0  0  0  0  0  0  0  0
  151.1387  142.5788  158.9608 C   0  0  1  0  0  0  0  0  0  0  0  0
  152.4678  142.5843  159.7545 C   0  0  0  0  0  0  0  0  0  0  0  0
  152.8757  144.0682  159.7424 C   0  0  2  0  0  0  0  0  0  0  0  0
  151.9047  144.8773  160.6223 C   0  0  0  0  0  0  0  0  0  0  0  0
  150.6177  144.8979  159.7759 C   0  0  0  0  0  0  0  0  0  0  0  0
  151.0096  144.0617  158.5424 C   0  0  1  0  0  0  0  0  0  0  0  0
  152.4603  144.4892  158.3388 C   0  0  0  0  0  0  0  0  0  0  0  0
  149.5775  141.6403  155.8702 N   0  0  0  0  0  0  0  0  0  0  0  0
  148.3369  141.5126  155.1089 C   0  0  0  0  0  0  0  0  0  0  0  0
  148.4181  140.4185  154.0262 C   0  0  0  0  0  0  0  0  0  0  0  0
  149.5480  139.4254  154.2409 C   0  0  0  0  0  0  0  0  0  0  0  0
  149.2771  138.0530  154.4310 C   0  0  0  0  0  0  0  0  0  0  0  0
  150.3597  137.1802  154.6532 C   0  0  0  0  0  0  0  0  0  0  0  0
  151.6643  137.7095  154.6742 C   0  0  0  0  0  0  0  0  0  0  0  0
  151.8291  139.0939  154.4696 C   0  0  0  0  0  0  0  0  0  0  0  0
  150.7985  139.9395  154.2540 N   0  0  0  0  0  0  0  0  0  0  0  0
  151.5553  140.6458  158.0510 H   0  0  0  0  0  0  0  0  0  0  0  0
  151.7497  141.9982  156.9632 H   0  0  0  0  0  0  0  0  0  0  0  0
  150.3099  142.3231  159.6234 H   0  0  0  0  0  0  0  0  0  0  0  0
  152.3473  142.1939  160.7657 H   0  0  0  0  0  0  0  0  0  0  0  0
  153.2315  141.9833  159.2587 H   0  0  0  0  0  0  0  0  0  0  0  0
  153.9263  144.2340  159.9818 H   0  0  0  0  0  0  0  0  0  0  0  0
  151.7527  144.4162  161.5990 H   0  0  0  0  0  0  0  0  0  0  0  0
  152.2747  145.8907  160.7831 H   0  0  0  0  0  0  0  0  0  0  0  0
  149.7602  144.4846  160.3081 H   0  0  0  0  0  0  0  0  0  0  0  0
  150.3674  145.9193  159.4865 H   0  0  0  0  0  0  0  0  0  0  0  0
  150.3555  144.2260  157.6855 H   0  0  0  0  0  0  0  0  0  0  0  0
  152.5752  145.5593  158.1566 H   0  0  0  0  0  0  0  0  0  0  0  0
  152.9742  143.9369  157.5505 H   0  0  0  0  0  0  0  0  0  0  0  0
  150.3866  141.9734  155.3660 H   0  0  0  0  0  0  0  0  0  0  0  0
  147.5393  141.2670  155.8102 H   0  0  0  0  0  0  0  0  0  0  0  0
  148.0600  142.4679  154.6599 H   0  0  0  0  0  0  0  0  0  0  0  0
  147.4720  139.8780  153.9797 H   0  0  0  0  0  0  0  0  0  0  0  0
  148.5454  140.8842  153.0483 H   0  0  0  0  0  0  0  0  0  0  0  0
  148.2641  137.6784  154.4188 H   0  0  0  0  0  0  0  0  0  0  0  0
  150.1918  136.1247  154.8075 H   0  0  0  0  0  0  0  0  0  0  0  0
  152.5181  137.0703  154.8438 H   0  0  0  0  0  0  0  0  0  0  0  0
  152.8152  139.5342  154.4788 H   0  0  0  0  0  0  0  0  0  0  0  0
  1  2  2  0  0  0  0
  2  3  1  0  0  0  0
  2 11  1  0  0  0  0
  3  4  1  0  0  0  0
  3 20  1  0  0  0  0
  3 21  1  0  0  0  0
  4  9  1  0  0  0  0
  4  5  1  0  0  0  0
  4 22  1  0  0  0  0
  5  6  1  0  0  0  0
  5 23  1  0  0  0  0
  5 24  1  0  0  0  0
  6 10  1  0  0  0  0
  6  7  1  0  0  0  0
  6 25  1  0  0  0  0
  7  8  1  0  0  0  0
  7 26  1  0  0  0  0
  7 27  1  0  0  0  0
  8  9  1  0  0  0  0
  8 28  1  0  0  0  0
  8 29  1  0  0  0  0
  9 10  1  0  0  0  0
  9 30  1  0  0  0  0
 10 31  1  0  0  0  0
 10 32  1  0  0  0  0
 11 12  1  0  0  0  0
 11 33  1  0  0  0  0
 12 13  1  0  0  0  0
 12 34  1  0  0  0  0
 12 35  1  0  0  0  0
 13 14  1  0  0  0  0
 13 36  1  0  0  0  0
 13 37  1  0  0  0  0
 14 19  1  0  0  0  0
 14 15  2  0  0  0  0
 15 16  1  0  0  0  0
 15 38  1  0  0  0  0
 16 17  2  0  0  0  0
 16 39  1  0  0  0  0
 17 18  1  0  0  0  0
 17 40  1  0  0  0  0
 18 19  2  0  0  0  0
 18 41  1  0  0  0  0
M  END
> <s_m_source_file>
AV-unprocessed.smi

> <i_m_source_file_index>
3263

> <i_lp_mmshare_version>
43012

> <i_f3d_flags>
0

> <s_epik_input>
W0NIMl0xW0NIMl1bQ0BASF0oW0NIMl0yKVtDQEBIXShbQ0gyXVtDQEhdMTIpW0NIMl1DKD1PKVtOSF1bQ0gyXVtDSDJdYzNbY0hdW2NIXVtjSF1bY0hdbjM=

> <s_epik_cmdline>
J2VwaWtfcHl0aG9uJywgJy1waCcsICc3LjAnLCAnLXRuJywgJzgnLCAnLW1hJywgJzIwMCcsICctbWV0YWxfYmluZGluZycsICctaW1hZScsICc8aW5maWxlLm1hZT4nLCAnLW9tYWUnLCAnPG91dGZpbGUubWFlPic=

> <r_epik_Ionization_Penalty>
0.0273541

> <r_epik_Ionization_Penalty_Charging>
0

> <r_epik_Ionization_Penalty_Neutral>
0.0273541

> <r_epik_State_Penalty>
0.0223838

> <r_epik_Charging_Adjusted_Penalty>
0.0223838

> <i_epik_Tot_Q>
0

> <i_epik_Tot_abs_Q>
0

> <r_epik_Metal_State_Penalty>
0.0213927

> <b_epik_Metal_Only>
0

> <s_lp_Force_Field>
OPLS_2005

> <r_lp_Energy>
47.5771

> <b_lp_Chiralities_Consistent>
1

> <s_lp_Variant>
AV-unprocessed.smi:3263-2

> <Gold.Version>
5.8.1

> <Gold.Id.Protein>
6NUR|6NUR_protein|mol2

> <Gold.PLP.Fitness>
46.4605

> <Gold.PLP.PLP>
-44.3044

> <Gold.PLP.part.hbond>
-1.4226

> <Gold.PLP.part.metal>
0.0000

> <Gold.PLP.part.buried>
-5.6435

> <Gold.PLP.part.nonpolar>
-38.1227

> <Gold.PLP.part.repulsive>
0.2621

> <Gold.PLP.ligand.clash>
0.0065

> <Gold.PLP.ligand.torsion>
0.4367

> <Gold.PLP.Chemscore.Hbond>
1.0000

> <Gold.PLP.Chemscore.CHOScore>
0.0000

> <Gold.PLP.Chemscore.Metal>
0.0000

> <Gold.Chemscore.Hbonds>
donor molecule, donor type, donor heavy atom, donor atom, acceptor molecule, acceptor atom, score
      P1  H  7989  7998       L1    19  0.53

> <Gold.PLP.Chemscore.Internal.Correction>
0.0359

> <Gold.Rescore>
     Score         DG    S(hbond)    S(metal)    S(lipo)     H(rot)  DE(clash)    DE(int)     intcor
     17.44     -19.78       0.94        0.00     127.20       1.46       0.10       2.24       ----

> <Gold.Chemscore.Fitness>
17.4444

> <Gold.Chemscore.DG>
-19.7843

> <Gold.Chemscore.ZeroCoef>
-5.4800

> <Gold.Chemscore.Hbond>
0.9423

> <Gold.Chemscore.Metal>
0.0000

> <Gold.Chemscore.Lipo>
127.2045

> <Gold.Chemscore.Internal_Hbond>
0.0000

> <Gold.Chemscore.DEClash>
0.0982

> <Gold.Chemscore.DEInternal>
2.2417

> <Gold.Chemscore.Rot>
1.4555

> <Gold.Chemscore.Internal.Correction>
   9.000000E+99

> <Gold.Chemscore.Hbonds>
donor molecule, donor type, donor heavy atom, donor atom, acceptor molecule, acceptor atom, score
      P1  H  7989  7998       L1    19  0.05

> <Gold.Chemscore.Hbond.Weighted>
-3.1474

> <Gold.Chemscore.Metal.Weighted>
-0.0000

> <Gold.Chemscore.Lipo.Weighted>
-14.8829

> <Gold.Chemscore.Internal_Hbond.Weighted>
0.0000

> <Gold.Chemscore.DEClash.Weighted>
0.0982

> <Gold.Chemscore.DEInternal.Weighted>
2.2417

> <Gold.Chemscore.Rot.Weighted>
3.7260

> <Gold.Chemscore.Internal.Correction.Weighted>
   9.000000E+99

> <Gold.Protein.RotatedTorsions>
[ 6907 6896 6895 6894 ] final  136.31 input  -60.11 | X-H torsion
[ 7974 7965 7964 7962 ] final  143.70 input  175.53 | X-H torsion
[ 8008 7997 7996 7995 ] final   87.29 input   59.86 | X-H torsion
[ 10167 10162 10161 10158 ] final   51.13 input  -65.29 | X-H torsion
[ 10718 10713 10712 10709 ] final  170.27 input   66.30 | X-H torsion
[ 10763 10752 10751 10750 ] final   -1.44 input  -60.55 | X-H torsion
[ 11005 11000 10999 10996 ] final  -26.99 input  -57.11 | X-H torsion

> <Gold.Protein.ActiveResidues>
 VAL166  LYS551  ARG553  GLY616  TRP617  ASP618  TYR619  PRO620  LYS621  CYS622 
 ASP623  PHE694  ASN695  SER759  ASP760  ASP761  ALA762  ILE779  LEU786  VAL792 
 PHE793  MET794  SER795  GLU796  ALA797  LYS798  CYS799  TRP800  GLU811  SER814 

> <Gold.Protein.RotatedAtoms>
  152.2908  133.5559  159.5556 H   0  0  0  0  0  0  0  0  0  0  0  0  # atno 6907 bound_to 6896
  150.7234  134.0431  159.3781 H   0  0  0  0  0  0  0  0  0  0  0  0  # atno 6908 bound_to 6896
  151.8337  135.0613  160.0490 H   0  0  0  0  0  0  0  0  0  0  0  0  # atno 6909 bound_to 6896
  144.8898  139.5575  143.5804 H   0  0  0  0  0  0  0  0  0  0  0  0  # atno 7974 bound_to 7965
  155.9735  140.3383  155.6598 H   0  0  0  0  0  0  0  0  0  0  0  0  # atno 8008 bound_to 7997
  155.6643  140.0719  157.2561 H   0  0  0  0  0  0  0  0  0  0  0  0  # atno 8009 bound_to 7997
  154.4173  140.1703  156.1797 H   0  0  0  0  0  0  0  0  0  0  0  0  # atno 8010 bound_to 7997
  140.2652  144.3328  150.6306 H   0  0  0  0  0  0  0  0  0  0  0  0  # atno 10167 bound_to 10162
  157.0106  131.0203  151.2804 H   0  0  0  0  0  0  0  0  0  0  0  0  # atno 10718 bound_to 10713
  153.3449  135.6982  153.6836 H   0  0  0  0  0  0  0  0  0  0  0  0  # atno 10763 bound_to 10752
  153.5586  135.3539  155.2790 H   0  0  0  0  0  0  0  0  0  0  0  0  # atno 10764 bound_to 10752
  154.8643  135.4244  154.2671 H   0  0  0  0  0  0  0  0  0  0  0  0  # atno 10765 bound_to 10752
  140.9079  133.7480  156.0630 H   0  0  0  0  0  0  0  0  0  0  0  0  # atno 11005 bound_to 11000
  146.3047  139.7540  142.9065 LP  0  0  0  0  0  0  0  0  0  0  0  0  # atno 17320 bound_to 7965
  145.3803  141.0357  143.3181 LP  0  0  0  0  0  0  0  0  0  0  0  0  # atno 17321 bound_to 7965
  140.5934  143.2167  151.7210 LP  0  0  0  0  0  0  0  0  0  0  0  0  # atno 17342 bound_to 10162
  139.5005  144.3904  152.0285 LP  0  0  0  0  0  0  0  0  0  0  0  0  # atno 17343 bound_to 10162
  157.5323  130.8066  149.7931 LP  0  0  0  0  0  0  0  0  0  0  0  0  # atno 17370 bound_to 10713
  156.0137  130.3822  150.2179 LP  0  0  0  0  0  0  0  0  0  0  0  0  # atno 17371 bound_to 10713
  140.8148  134.3358  157.5400 LP  0  0  0  0  0  0  0  0  0  0  0  0  # atno 17394 bound_to 11000
  139.8752  134.9275  156.3427 LP  0  0  0  0  0  0  0  0  0  0  0  0  # atno 17395 bound_to 11000

$$$$
