AV-unprocessed.smi:257|AV-procd|sdf|1963|dock2
  -GOLD-   2262021113D 1   1.00000     0.00000
 Structure written by MMmdl.
 50 53  0  0  0  0  0  0  0  0  1 V2000
  146.4811  130.8769  153.9909 C   0  0  0  0  0  0  0  0  0  0  0  0
  145.5558  131.9651  153.7166 N   0  0  0  0  0  0  0  0  0  0  0  0
  145.6536  132.7924  152.6663 C   0  0  0  0  0  0  0  0  0  0  0  0
  146.5427  132.6990  151.8185 O   0  0  0  0  0  0  0  0  0  0  0  0
  144.5720  133.8831  152.5615 C   0  0  2  0  0  0  0  0  0  0  0  0
  143.7129  133.7095  151.2966 C   0  0  0  0  0  0  0  0  0  0  0  0
  144.4247  134.5440  150.2335 C   0  0  0  0  0  0  0  0  0  0  0  0
  144.9800  135.7207  151.0345 C   0  0  0  0  0  0  0  0  0  0  0  0
  145.1472  135.2184  152.3948 N   0  0  0  0  0  0  0  0  0  0  0  0
  145.6673  135.9827  153.3956 C   0  0  0  0  0  0  0  0  0  0  0  0
  145.6709  135.4616  154.6516 N   0  0  0  0  0  0  0  0  0  0  0  0
  146.1616  136.1561  155.6806 C   0  0  0  0  0  0  0  0  0  0  0  0
  146.6948  137.3770  155.6812 N   0  0  0  0  0  0  0  0  0  0  0  0
  146.7026  137.9126  154.4281 C   0  0  0  0  0  0  0  0  0  0  0  0
  146.2137  137.2943  153.2392 C   0  0  0  0  0  0  0  0  0  0  0  0
  146.3967  138.1604  152.1657 N   0  0  0  0  0  0  0  0  0  0  0  0
  146.9532  139.2185  152.6857 C   0  0  0  0  0  0  0  0  0  0  0  0
  147.1829  139.1514  154.0396 N   0  0  0  0  0  0  0  0  0  0  0  0
  147.7880  140.1818  154.8713 C   0  0  0  0  0  0  0  0  0  0  0  0
  149.2432  140.5486  154.4697 C   0  0  0  0  0  0  0  0  0  0  0  0
  149.1912  141.1758  153.2012 O   0  0  0  0  0  0  0  0  0  0  0  0
  149.8697  141.5583  155.4521 C   0  0  0  0  0  0  0  0  0  0  0  0
  150.2680  140.8876  156.7797 C   0  0  0  0  0  0  0  0  0  0  0  0
  151.1499  139.7985  156.5300 O   0  0  0  0  0  0  0  0  0  0  0  0
  150.5606  138.7748  155.7359 C   0  0  0  0  0  0  0  0  0  0  0  0
  150.1890  139.3339  154.3509 C   0  0  0  0  0  0  0  0  0  0  0  0
  146.1736  130.3458  154.8914 H   0  0  0  0  0  0  0  0  0  0  0  0
  147.4911  131.2581  154.1475 H   0  0  0  0  0  0  0  0  0  0  0  0
  146.5013  130.1657  153.1641 H   0  0  0  0  0  0  0  0  0  0  0  0
  144.7980  132.1045  154.3693 H   0  0  0  0  0  0  0  0  0  0  0  0
  143.9205  133.8475  153.4351 H   0  0  0  0  0  0  0  0  0  0  0  0
  143.5860  132.6691  150.9935 H   0  0  0  0  0  0  0  0  0  0  0  0
  142.7175  134.1191  151.4743 H   0  0  0  0  0  0  0  0  0  0  0  0
  145.2444  133.9686  149.8009 H   0  0  0  0  0  0  0  0  0  0  0  0
  143.7666  134.8556  149.4221 H   0  0  0  0  0  0  0  0  0  0  0  0
  145.9201  136.0759  150.6104 H   0  0  0  0  0  0  0  0  0  0  0  0
  144.2697  136.5485  151.0421 H   0  0  0  0  0  0  0  0  0  0  0  0
  146.1205  135.6626  156.6403 H   0  0  0  0  0  0  0  0  0  0  0  0
  147.2181  140.0808  152.0913 H   0  0  0  0  0  0  0  0  0  0  0  0
  147.1523  141.0670  154.8218 H   0  0  0  0  0  0  0  0  0  0  0  0
  147.7449  139.8452  155.9067 H   0  0  0  0  0  0  0  0  0  0  0  0
  149.1458  140.5054  152.5364 H   0  0  0  0  0  0  0  0  0  0  0  0
  150.7673  141.9933  155.0095 H   0  0  0  0  0  0  0  0  0  0  0  0
  149.1880  142.3893  155.6380 H   0  0  0  0  0  0  0  0  0  0  0  0
  150.7770  141.6076  157.4207 H   0  0  0  0  0  0  0  0  0  0  0  0
  149.3923  140.5440  157.3310 H   0  0  0  0  0  0  0  0  0  0  0  0
  151.2767  137.9603  155.6278 H   0  0  0  0  0  0  0  0  0  0  0  0
  149.6907  138.3622  156.2468 H   0  0  0  0  0  0  0  0  0  0  0  0
  149.7574  138.5510  153.7273 H   0  0  0  0  0  0  0  0  0  0  0  0
  151.1105  139.6371  153.8515 H   0  0  0  0  0  0  0  0  0  0  0  0
  1  2  1  0  0  0  0
  1 27  1  0  0  0  0
  1 28  1  0  0  0  0
  1 29  1  0  0  0  0
  2  3  1  0  0  0  0
  2 30  1  0  0  0  0
  3  4  2  0  0  0  0
  3  5  1  0  0  0  0
  5  9  1  0  0  0  0
  5  6  1  0  0  0  0
  5 31  1  0  0  0  0
  6  7  1  0  0  0  0
  6 32  1  0  0  0  0
  6 33  1  0  0  0  0
  7  8  1  0  0  0  0
  7 34  1  0  0  0  0
  7 35  1  0  0  0  0
  8  9  1  0  0  0  0
  8 36  1  0  0  0  0
  8 37  1  0  0  0  0
  9 10  1  0  0  0  0
 10 15  1  0  0  0  0
 10 11  2  0  0  0  0
 11 12  1  0  0  0  0
 12 13  2  0  0  0  0
 12 38  1  0  0  0  0
 13 14  1  0  0  0  0
 14 18  1  0  0  0  0
 14 15  2  0  0  0  0
 15 16  1  0  0  0  0
 16 17  2  0  0  0  0
 17 18  1  0  0  0  0
 17 39  1  0  0  0  0
 18 19  1  0  0  0  0
 19 20  1  0  0  0  0
 19 40  1  0  0  0  0
 19 41  1  0  0  0  0
 20 26  1  0  0  0  0
 20 21  1  0  0  0  0
 20 22  1  0  0  0  0
 21 42  1  0  0  0  0
 22 23  1  0  0  0  0
 22 43  1  0  0  0  0
 22 44  1  0  0  0  0
 23 24  1  0  0  0  0
 23 45  1  0  0  0  0
 23 46  1  0  0  0  0
 24 25  1  0  0  0  0
 25 26  1  0  0  0  0
 25 47  1  0  0  0  0
 25 48  1  0  0  0  0
 26 49  1  0  0  0  0
 26 50  1  0  0  0  0
M  END
> <s_m_source_file>
AV-unprocessed.smi

> <i_m_source_file_index>
257

> <i_lp_mmshare_version>
43012

> <i_f3d_flags>
0

> <s_epik_input>
W0NIM11bTkhdQyg9TylbQ0BASF0xW0NIMl1bQ0gyXVtDSDJdTjFjKG5bY0hdbjIpYyhjMjMpbltjSF1uM1tDSDJdQzQoW09IXSlbQ0gyXVtDSDJdT1tDSDJdW0NIMl00

> <s_epik_cmdline>
J2VwaWtfcHl0aG9uJywgJy1waCcsICc3LjAnLCAnLXRuJywgJzgnLCAnLW1hJywgJzIwMCcsICctbWV0YWxfYmluZGluZycsICctaW1hZScsICc8aW5maWxlLm1hZT4nLCAnLW9tYWUnLCAnPG91dGZpbGUubWFlPic=

> <r_lp_tautomer_probability>
1

> <r_epik_Ionization_Penalty>
0.000951012

> <r_epik_Ionization_Penalty_Charging>
0

> <r_epik_Ionization_Penalty_Neutral>
0.000951012

> <r_epik_State_Penalty>
0.000495984

> <r_epik_Charging_Adjusted_Penalty>
0.000495984

> <i_epik_Tot_Q>
0

> <i_epik_Tot_abs_Q>
0

> <r_epik_Metal_State_Penalty>
-0

> <b_epik_Metal_Only>
0

> <s_lp_Force_Field>
OPLS_2005

> <r_lp_Energy>
35.0404

> <b_lp_Chiralities_Consistent>
1

> <s_lp_Variant>
AV-unprocessed.smi:257-1

> <Gold.Version>
5.8.1

> <Gold.Id.Protein>
6NUR|6NUR_protein|mol2

> <Gold.PLP.Fitness>
42.1840

> <Gold.PLP.PLP>
-32.5143

> <Gold.PLP.part.hbond>
-3.4335

> <Gold.PLP.part.metal>
0.0000

> <Gold.PLP.part.buried>
-4.8408

> <Gold.PLP.part.nonpolar>
-25.9242

> <Gold.PLP.part.repulsive>
0.5075

> <Gold.PLP.ligand.clash>
0.0000

> <Gold.PLP.ligand.torsion>
0.1171

> <Gold.PLP.Chemscore.Hbond>
2.5505

> <Gold.PLP.Chemscore.CHOScore>
0.7141

> <Gold.PLP.Chemscore.Metal>
0.0000

> <Gold.Chemscore.Hbonds>
donor molecule, donor type, donor heavy atom, donor atom, acceptor molecule, acceptor atom, score
      L1  H     2    30       P1 10957  0.56
      L1  H    21    42       P1  7957  0.90
      P1  H  8011  8017       L1    21  1.00
      L1  C    17    39       P1  7957  0.70

> <Gold.PLP.Chemscore.Internal.Correction>
0.1099

> <Gold.Rescore>
     Score         DG    S(hbond)    S(metal)    S(lipo)     H(rot)  DE(clash)    DE(int)     intcor
     11.21     -13.39       1.78        0.00      66.79       2.29       0.07       2.12       ----

> <Gold.Chemscore.Fitness>
11.2080

> <Gold.Chemscore.DG>
-13.3929

> <Gold.Chemscore.ZeroCoef>
-5.4800

> <Gold.Chemscore.Hbond>
1.7840

> <Gold.Chemscore.Metal>
0.0000

> <Gold.Chemscore.Lipo>
66.7856

> <Gold.Chemscore.Internal_Hbond>
0.0000

> <Gold.Chemscore.DEClash>
0.0662

> <Gold.Chemscore.DEInternal>
2.1187

> <Gold.Chemscore.Rot>
2.2889

> <Gold.Chemscore.Internal.Correction>
   9.000000E+99

> <Gold.Chemscore.Hbonds>
donor molecule, donor type, donor heavy atom, donor atom, acceptor molecule, acceptor atom, score
      L1  H     2    30       P1 10957  0.12
      L1  H    21    42       P1  7957  0.82
      P1  H  8011  8017       L1    21  0.25

> <Gold.Chemscore.Hbond.Weighted>
-5.9586

> <Gold.Chemscore.Metal.Weighted>
-0.0000

> <Gold.Chemscore.Lipo.Weighted>
-7.8139

> <Gold.Chemscore.Internal_Hbond.Weighted>
0.0000

> <Gold.Chemscore.DEClash.Weighted>
0.0662

> <Gold.Chemscore.DEInternal.Weighted>
2.1187

> <Gold.Chemscore.Rot.Weighted>
5.8596

> <Gold.Chemscore.Internal.Correction.Weighted>
   9.000000E+99

> <Gold.Protein.RotatedTorsions>
[ 6907 6896 6895 6894 ] final -164.26 input  -60.11 | X-H torsion
[ 7974 7965 7964 7962 ] final -115.88 input  175.53 | X-H torsion
[ 8008 7997 7996 7995 ] final  106.87 input   59.86 | X-H torsion
[ 10167 10162 10161 10158 ] final   75.18 input  -65.29 | X-H torsion
[ 10718 10713 10712 10709 ] final   99.62 input   66.30 | X-H torsion
[ 10763 10752 10751 10750 ] final  156.55 input  -60.55 | X-H torsion
[ 11005 11000 10999 10996 ] final  131.80 input  -57.11 | X-H torsion

> <Gold.Protein.ActiveResidues>
 VAL166  LYS551  ARG553  GLY616  TRP617  ASP618  TYR619  PRO620  LYS621  CYS622 
 ASP623  PHE694  ASN695  SER759  ASP760  ASP761  ALA762  ILE779  LEU786  VAL792 
 PHE793  MET794  SER795  GLU796  ALA797  LYS798  CYS799  TRP800  GLU811  SER814 

> <Gold.Protein.RotatedAtoms>
  151.4091  133.3733  159.2741 H   0  0  0  0  0  0  0  0  0  0  0  0  # atno 6907 bound_to 6896
  150.9376  134.8789  159.7602 H   0  0  0  0  0  0  0  0  0  0  0  0  # atno 6908 bound_to 6896
  152.5057  134.4039  159.9478 H   0  0  0  0  0  0  0  0  0  0  0  0  # atno 6909 bound_to 6896
  145.1032  140.8565  143.3914 H   0  0  0  0  0  0  0  0  0  0  0  0  # atno 7974 bound_to 7965
  156.1778  140.3105  155.9091 H   0  0  0  0  0  0  0  0  0  0  0  0  # atno 8008 bound_to 7997
  155.3450  140.0468  157.3062 H   0  0  0  0  0  0  0  0  0  0  0  0  # atno 8009 bound_to 7997
  154.5309  140.2230  155.8816 H   0  0  0  0  0  0  0  0  0  0  0  0  # atno 8010 bound_to 7997
  140.0057  144.5652  150.7700 H   0  0  0  0  0  0  0  0  0  0  0  0  # atno 10167 bound_to 10162
  157.6872  131.0675  150.4976 H   0  0  0  0  0  0  0  0  0  0  0  0  # atno 10718 bound_to 10713
  154.1862  135.2797  155.3036 H   0  0  0  0  0  0  0  0  0  0  0  0  # atno 10763 bound_to 10752
  154.5965  135.5543  153.7334 H   0  0  0  0  0  0  0  0  0  0  0  0  # atno 10764 bound_to 10752
  153.0125  135.6381  154.2000 H   0  0  0  0  0  0  0  0  0  0  0  0  # atno 10765 bound_to 10752
  139.9752  134.9565  156.9490 H   0  0  0  0  0  0  0  0  0  0  0  0  # atno 11005 bound_to 11000
  145.0931  139.2875  143.5724 LP  0  0  0  0  0  0  0  0  0  0  0  0  # atno 17320 bound_to 7965
  146.3529  140.0475  142.8638 LP  0  0  0  0  0  0  0  0  0  0  0  0  # atno 17321 bound_to 7965
  140.7401  143.2800  151.3626 LP  0  0  0  0  0  0  0  0  0  0  0  0  # atno 17342 bound_to 10162
  139.6240  144.0851  152.2417 LP  0  0  0  0  0  0  0  0  0  0  0  0  # atno 17343 bound_to 10162
  156.5299  130.4182  149.6207 LP  0  0  0  0  0  0  0  0  0  0  0  0  # atno 17370 bound_to 10713
  156.3078  130.7212  151.2098 LP  0  0  0  0  0  0  0  0  0  0  0  0  # atno 17371 bound_to 10713
  140.5210  134.0907  155.7292 LP  0  0  0  0  0  0  0  0  0  0  0  0  # atno 17394 bound_to 11000
  141.1429  133.9106  157.2283 LP  0  0  0  0  0  0  0  0  0  0  0  0  # atno 17395 bound_to 11000

$$$$
