AV-unprocessed.smi:646|AV-procd|sdf|3168|dock7
  -GOLD-   22720 0 93D 1   1.00000     0.00000
 Structure written by MMmdl.
 44 45  0  0  0  0  0  0  0  0  1 V2000
  145.2906  137.3134  161.4998 C   0  0  0  0  0  0  0  0  0  0  0  0
  146.6770  137.4960  161.2429 O   0  0  0  0  0  0  0  0  0  0  0  0
  147.4274  136.3174  160.9465 C   0  0  2  0  0  0  0  0  0  0  0  0
  147.4257  135.3745  162.1598 C   0  0  0  0  0  0  0  0  0  0  0  0
  148.7803  136.6378  160.2846 C   0  0  0  0  0  0  0  0  0  0  0  0
  148.4790  135.4930  159.3197 C   0  0  2  0  0  0  0  0  0  0  0  0
  148.9364  135.7673  157.9632 N   0  0  0  0  0  0  0  0  0  0  0  0
  150.1473  136.2541  157.6542 C   0  0  0  0  0  0  0  0  0  0  0  0
  150.9766  136.5966  158.4964 O   0  0  0  0  0  0  0  0  0  0  0  0
  150.4836  136.3432  156.1659 C   0  0  0  0  0  0  0  0  0  0  0  0
  151.2676  137.6042  155.9027 C   0  0  0  0  0  0  0  0  0  0  0  0
  150.9213  138.6890  155.0467 C   0  0  0  0  0  0  0  0  0  0  0  0
  149.6964  138.8495  154.1930 C   0  0  0  0  0  0  0  0  0  0  0  0
  151.8335  139.6461  155.0682 N   0  0  0  0  0  0  0  0  0  0  0  0
  152.8253  139.2102  155.9521 O   0  0  0  0  0  0  0  0  0  0  0  0
  152.4649  137.9947  156.4364 C   0  0  0  0  0  0  0  0  0  0  0  0
  153.3977  137.3599  157.4112 C   0  0  0  0  0  0  0  0  0  0  0  0
  146.9706  135.7630  159.5579 C   0  0  0  0  0  0  0  0  0  0  0  0
  146.0643  134.5281  159.5712 C   0  0  0  0  0  0  0  0  0  0  0  0
  146.2878  136.7746  158.6133 C   0  0  0  0  0  0  0  0  0  0  0  0
  144.8577  138.2653  161.8063 H   0  0  0  0  0  0  0  0  0  0  0  0
  145.1139  136.5979  162.3029 H   0  0  0  0  0  0  0  0  0  0  0  0
  144.7517  136.9853  160.6115 H   0  0  0  0  0  0  0  0  0  0  0  0
  147.8722  134.4086  161.9240 H   0  0  0  0  0  0  0  0  0  0  0  0
  146.4121  135.1872  162.5146 H   0  0  0  0  0  0  0  0  0  0  0  0
  147.9990  135.7813  162.9922 H   0  0  0  0  0  0  0  0  0  0  0  0
  148.8139  137.6184  159.8059 H   0  0  0  0  0  0  0  0  0  0  0  0
  149.6504  136.4751  160.9210 H   0  0  0  0  0  0  0  0  0  0  0  0
  148.8111  134.5299  159.7139 H   0  0  0  0  0  0  0  0  0  0  0  0
  148.3174  135.5109  157.2080 H   0  0  0  0  0  0  0  0  0  0  0  0
  151.0421  135.4527  155.8762 H   0  0  0  0  0  0  0  0  0  0  0  0
  149.5601  136.3244  155.5861 H   0  0  0  0  0  0  0  0  0  0  0  0
  149.4500  137.9175  153.6842 H   0  0  0  0  0  0  0  0  0  0  0  0
  149.8345  139.6155  153.4291 H   0  0  0  0  0  0  0  0  0  0  0  0
  148.8359  139.1333  154.7992 H   0  0  0  0  0  0  0  0  0  0  0  0
  152.8518  136.7524  158.1331 H   0  0  0  0  0  0  0  0  0  0  0  0
  153.9585  138.1142  157.9638 H   0  0  0  0  0  0  0  0  0  0  0  0
  154.1110  136.7158  156.8968 H   0  0  0  0  0  0  0  0  0  0  0  0
  145.8626  134.1675  158.5619 H   0  0  0  0  0  0  0  0  0  0  0  0
  145.1049  134.7442  160.0423 H   0  0  0  0  0  0  0  0  0  0  0  0
  146.5137  133.6973  160.1146 H   0  0  0  0  0  0  0  0  0  0  0  0
  146.1670  136.3704  157.6078 H   0  0  0  0  0  0  0  0  0  0  0  0
  146.8544  137.7008  158.5168 H   0  0  0  0  0  0  0  0  0  0  0  0
  145.2939  137.0452  158.9712 H   0  0  0  0  0  0  0  0  0  0  0  0
  1  2  1  0  0  0  0
  1 21  1  0  0  0  0
  1 22  1  0  0  0  0
  1 23  1  0  0  0  0
  2  3  1  0  0  0  0
  3 18  1  0  0  0  0
  3  4  1  0  0  0  0
  3  5  1  0  0  0  0
  4 24  1  0  0  0  0
  4 25  1  0  0  0  0
  4 26  1  0  0  0  0
  5  6  1  0  0  0  0
  5 27  1  0  0  0  0
  5 28  1  0  0  0  0
  6  7  1  0  0  0  0
  6 18  1  0  0  0  0
  6 29  1  0  0  0  0
  7  8  1  0  0  0  0
  7 30  1  0  0  0  0
  8  9  2  0  0  0  0
  8 10  1  0  0  0  0
 10 11  1  0  0  0  0
 10 31  1  0  0  0  0
 10 32  1  0  0  0  0
 11 16  2  0  0  0  0
 11 12  1  0  0  0  0
 12 13  1  0  0  0  0
 12 14  2  0  0  0  0
 13 33  1  0  0  0  0
 13 34  1  0  0  0  0
 13 35  1  0  0  0  0
 14 15  1  0  0  0  0
 15 16  1  0  0  0  0
 16 17  1  0  0  0  0
 17 36  1  0  0  0  0
 17 37  1  0  0  0  0
 17 38  1  0  0  0  0
 18 19  1  0  0  0  0
 18 20  1  0  0  0  0
 19 39  1  0  0  0  0
 19 40  1  0  0  0  0
 19 41  1  0  0  0  0
 20 42  1  0  0  0  0
 20 43  1  0  0  0  0
 20 44  1  0  0  0  0
M  END
> <s_m_source_file>
AV-unprocessed.smi

> <i_m_source_file_index>
646

> <i_lp_mmshare_version>
43012

> <i_f3d_flags>
0

> <s_epik_input>
W0NIM11PW0NAQF0xKFtDSDNdKVtDSDJdW0NASF0oQzEoW0NIM10pW0NIM10pW05IXUMoPU8pW0NIMl1jMmMoW0NIM10pbm9jMltDSDNd

> <s_epik_cmdline>
J2VwaWtfcHl0aG9uJywgJy1waCcsICc3LjAnLCAnLXRuJywgJzgnLCAnLW1hJywgJzIwMCcsICctbWV0YWxfYmluZGluZycsICctaW1hZScsICc8aW5maWxlLm1hZT4nLCAnLW9tYWUnLCAnPG91dGZpbGUubWFlPic=

> <r_lp_tautomer_probability>
1

> <r_epik_Ionization_Penalty>
2.13169e-08

> <r_epik_Ionization_Penalty_Charging>
0

> <r_epik_Ionization_Penalty_Neutral>
2.13169e-08

> <r_epik_State_Penalty>
-0

> <r_epik_Charging_Adjusted_Penalty>
0

> <i_epik_Tot_Q>
0

> <i_epik_Tot_abs_Q>
0

> <r_epik_Metal_State_Penalty>
-0

> <b_epik_Metal_Only>
0

> <s_lp_Force_Field>
OPLS_2005

> <r_lp_Energy>
15.4726

> <b_lp_Chiralities_Consistent>
1

> <s_lp_Variant>
AV-unprocessed.smi:646-4

> <Gold.Version>
5.8.1

> <Gold.Id.Protein>
6NUR|6NUR_protein|mol2

> <Gold.PLP.Fitness>
36.8220

> <Gold.PLP.PLP>
-26.3529

> <Gold.PLP.part.hbond>
-4.2843

> <Gold.PLP.part.metal>
0.0000

> <Gold.PLP.part.buried>
-4.8052

> <Gold.PLP.part.nonpolar>
-18.4568

> <Gold.PLP.part.repulsive>
0.1017

> <Gold.PLP.ligand.clash>
0.0000

> <Gold.PLP.ligand.torsion>
0.6458

> <Gold.PLP.Chemscore.Hbond>
3.7930

> <Gold.PLP.Chemscore.CHOScore>
0.0000

> <Gold.PLP.Chemscore.Metal>
0.0000

> <Gold.Chemscore.Hbonds>
donor molecule, donor type, donor heavy atom, donor atom, acceptor molecule, acceptor atom, score
      P1  H  6896  6908       L1     9  0.83
      P1  H  6934  6947       L1     2  1.00
      P1  H  7989  7998       L1    14  1.00
      P1  H  7997  8009       L1    15  1.00

> <Gold.PLP.Chemscore.Internal.Correction>
0.3816

> <Gold.Rescore>
     Score         DG    S(hbond)    S(metal)    S(lipo)     H(rot)  DE(clash)    DE(int)     intcor
     19.07     -21.10       3.50        0.00      66.19       1.49       0.07       1.96       ----

> <Gold.Chemscore.Fitness>
19.0667

> <Gold.Chemscore.DG>
-21.1025

> <Gold.Chemscore.ZeroCoef>
-5.4800

> <Gold.Chemscore.Hbond>
3.5031

> <Gold.Chemscore.Metal>
0.0000

> <Gold.Chemscore.Lipo>
66.1859

> <Gold.Chemscore.Internal_Hbond>
0.0000

> <Gold.Chemscore.DEClash>
0.0710

> <Gold.Chemscore.DEInternal>
1.9647

> <Gold.Chemscore.Rot>
1.4928

> <Gold.Chemscore.Internal.Correction>
   9.000000E+99

> <Gold.Chemscore.Hbonds>
donor molecule, donor type, donor heavy atom, donor atom, acceptor molecule, acceptor atom, score
      P1  H  6896  6908       L1     9  0.38
      P1  H  6934  6947       L1     2  0.92
      P1  H  7989  7998       L1    14  0.75
      P1  H  7997  8009       L1    15  0.98

> <Gold.Chemscore.Hbond.Weighted>
-11.7004

> <Gold.Chemscore.Metal.Weighted>
-0.0000

> <Gold.Chemscore.Lipo.Weighted>
-7.7438

> <Gold.Chemscore.Internal_Hbond.Weighted>
0.0000

> <Gold.Chemscore.DEClash.Weighted>
0.0710

> <Gold.Chemscore.DEInternal.Weighted>
1.9647

> <Gold.Chemscore.Rot.Weighted>
3.8217

> <Gold.Chemscore.Internal.Correction.Weighted>
   9.000000E+99

> <Gold.Protein.RotatedTorsions>
[ 6907 6896 6895 6894 ] final -152.37 input  -60.11 | X-H torsion
[ 7974 7965 7964 7962 ] final -105.31 input  175.53 | X-H torsion
[ 8008 7997 7996 7995 ] final -150.04 input   59.86 | X-H torsion
[ 10167 10162 10161 10158 ] final -133.29 input  -65.29 | X-H torsion
[ 10718 10713 10712 10709 ] final   71.34 input   66.30 | X-H torsion
[ 10763 10752 10751 10750 ] final   86.57 input  -60.55 | X-H torsion
[ 11005 11000 10999 10996 ] final  -19.93 input  -57.11 | X-H torsion

> <Gold.Protein.ActiveResidues>
 VAL166  LYS551  ARG553  GLY616  TRP617  ASP618  TYR619  PRO620  LYS621  CYS622 
 ASP623  PHE694  ASN695  SER759  ASP760  ASP761  ALA762  ILE779  LEU786  VAL792 
 PHE793  MET794  SER795  GLU796  ALA797  LYS798  CYS799  TRP800  GLU811  SER814 

> <Gold.Protein.RotatedAtoms>
  151.2268  133.4472  159.2602 H   0  0  0  0  0  0  0  0  0  0  0  0  # atno 6907 bound_to 6896
  151.0833  134.9871  159.8377 H   0  0  0  0  0  0  0  0  0  0  0  0  # atno 6908 bound_to 6896
  152.5426  134.2206  159.8839 H   0  0  0  0  0  0  0  0  0  0  0  0  # atno 6909 bound_to 6896
  145.2320  140.9174  143.3199 H   0  0  0  0  0  0  0  0  0  0  0  0  # atno 7974 bound_to 7965
  155.6172  140.0677  157.2689 H   0  0  0  0  0  0  0  0  0  0  0  0  # atno 8008 bound_to 7997
  154.4238  140.1791  156.1382 H   0  0  0  0  0  0  0  0  0  0  0  0  # atno 8009 bound_to 7997
  156.0038  140.3333  155.6876 H   0  0  0  0  0  0  0  0  0  0  0  0  # atno 8010 bound_to 7997
  139.8998  143.6621  152.2597 H   0  0  0  0  0  0  0  0  0  0  0  0  # atno 10167 bound_to 10162
  157.6446  130.9523  150.0775 H   0  0  0  0  0  0  0  0  0  0  0  0  # atno 10718 bound_to 10713
  153.1583  135.4575  154.9736 H   0  0  0  0  0  0  0  0  0  0  0  0  # atno 10763 bound_to 10752
  154.7878  135.3210  154.7848 H   0  0  0  0  0  0  0  0  0  0  0  0  # atno 10764 bound_to 10752
  153.8342  135.6936  153.4865 H   0  0  0  0  0  0  0  0  0  0  0  0  # atno 10765 bound_to 10752
  140.8415  133.7923  155.9866 H   0  0  0  0  0  0  0  0  0  0  0  0  # atno 11005 bound_to 11000
  144.9667  139.3922  143.6329 LP  0  0  0  0  0  0  0  0  0  0  0  0  # atno 17320 bound_to 7965
  146.3350  139.8746  142.8834 LP  0  0  0  0  0  0  0  0  0  0  0  0  # atno 17321 bound_to 7965
  139.7035  144.7631  151.1232 LP  0  0  0  0  0  0  0  0  0  0  0  0  # atno 17342 bound_to 10162
  140.7709  143.5426  150.9296 LP  0  0  0  0  0  0  0  0  0  0  0  0  # atno 17343 bound_to 10162
  156.1761  130.3648  149.9098 LP  0  0  0  0  0  0  0  0  0  0  0  0  # atno 17370 bound_to 10713
  156.7062  130.8952  151.3604 LP  0  0  0  0  0  0  0  0  0  0  0  0  # atno 17371 bound_to 10713
  140.8890  134.2519  157.5104 LP  0  0  0  0  0  0  0  0  0  0  0  0  # atno 17394 bound_to 11000
  139.8703  134.9652  156.4521 LP  0  0  0  0  0  0  0  0  0  0  0  0  # atno 17395 bound_to 11000

$$$$
