AV-unprocessed.smi:3318|AV-procd|sdf|12762|dock7
  -GOLD-   2272019103D 1   1.00000     0.00000
 Structure written by MMmdl.
 45 46  0  0  0  0  0  0  0  0  3 V2000
  144.6488  144.2875  154.5933 C   0  0  0  0  0  0  0  0  0  0  0  0
  144.9836  142.8509  155.0093 C   0  0  0  0  0  0  0  0  0  0  0  0
  146.2377  142.3134  154.2976 C   0  0  0  0  0  0  0  0  0  0  0  0
  146.0785  140.9073  153.8457 N   0  3  2  0  0  0  0  0  0  0  0  0
  145.9634  139.9609  154.9856 C   0  0  0  0  0  0  0  0  0  0  0  0
  145.6646  138.5324  154.4978 C   0  0  0  0  0  0  0  0  0  0  0  0
  146.7354  138.0392  153.5104 C   0  0  1  0  0  0  0  0  0  0  0  0
  146.3917  136.6823  153.0259 N   0  3  0  0  0  0  0  0  0  0  0  0
  145.1848  136.5980  152.1745 C   0  0  0  0  0  0  0  0  0  0  0  0
  145.4895  135.9253  150.8266 C   0  0  0  0  0  0  0  0  0  0  0  0
  145.2598  134.4245  150.8467 C   0  0  0  0  0  0  0  0  0  0  0  0
  144.2761  133.8325  150.0257 C   0  0  0  0  0  0  0  0  0  0  0  0
  144.1062  132.4355  150.0843 C   0  0  0  0  0  0  0  0  0  0  0  0
  144.9191  131.6896  150.9594 C   0  0  0  0  0  0  0  0  0  0  0  0
  145.8710  132.3757  151.7394 C   0  0  0  0  0  0  0  0  0  0  0  0
  146.0409  133.7149  151.6913 N   0  0  0  0  0  0  0  0  0  0  0  0
  146.8565  139.0551  152.3577 C   0  0  0  0  0  0  0  0  0  0  0  0
  147.1299  140.4744  152.8868 C   0  0  0  0  0  0  0  0  0  0  0  0
  143.7568  144.6433  155.1094 H   0  0  0  0  0  0  0  0  0  0  0  0
  144.4616  144.3543  153.5213 H   0  0  0  0  0  0  0  0  0  0  0  0
  145.4651  144.9690  154.8346 H   0  0  0  0  0  0  0  0  0  0  0  0
  145.1324  142.8183  156.0892 H   0  0  0  0  0  0  0  0  0  0  0  0
  144.1210  142.2199  154.7970 H   0  0  0  0  0  0  0  0  0  0  0  0
  146.5081  142.9493  153.4531 H   0  0  0  0  0  0  0  0  0  0  0  0
  147.0695  142.3674  155.0015 H   0  0  0  0  0  0  0  0  0  0  0  0
  146.8861  139.9757  155.5681 H   0  0  0  0  0  0  0  0  0  0  0  0
  145.1628  140.2829  155.6528 H   0  0  0  0  0  0  0  0  0  0  0  0
  145.6072  137.8589  155.3540 H   0  0  0  0  0  0  0  0  0  0  0  0
  144.6823  138.5113  154.0228 H   0  0  0  0  0  0  0  0  0  0  0  0
  147.6879  137.9804  154.0399 H   0  0  0  0  0  0  0  0  0  0  0  0
  147.1688  136.3519  152.4707 H   0  0  0  0  0  0  0  0  0  0  0  0
  144.4137  136.0265  152.6907 H   0  0  0  0  0  0  0  0  0  0  0  0
  144.7834  137.5985  152.0070 H   0  0  0  0  0  0  0  0  0  0  0  0
  144.8844  136.3768  150.0390 H   0  0  0  0  0  0  0  0  0  0  0  0
  146.5287  136.1128  150.5524 H   0  0  0  0  0  0  0  0  0  0  0  0
  143.6679  134.4298  149.3621 H   0  0  0  0  0  0  0  0  0  0  0  0
  143.3667  131.9450  149.4688 H   0  0  0  0  0  0  0  0  0  0  0  0
  144.8176  130.6166  151.0290 H   0  0  0  0  0  0  0  0  0  0  0  0
  146.5126  131.8353  152.4198 H   0  0  0  0  0  0  0  0  0  0  0  0
  147.6619  138.7731  151.6795 H   0  0  0  0  0  0  0  0  0  0  0  0
  145.9397  139.0580  151.7662 H   0  0  0  0  0  0  0  0  0  0  0  0
  147.1776  141.1586  152.0405 H   0  0  0  0  0  0  0  0  0  0  0  0
  148.1052  140.5102  153.3748 H   0  0  0  0  0  0  0  0  0  0  0  0
  145.1954  140.8682  153.3566 H   0  0  0  0  0  0  0  0  0  0  0  0
  146.2811  136.0646  153.8173 H   0  0  0  0  0  0  0  0  0  0  0  0
  1  2  1  0  0  0  0
  1 19  1  0  0  0  0
  1 20  1  0  0  0  0
  1 21  1  0  0  0  0
  2  3  1  0  0  0  0
  2 22  1  0  0  0  0
  2 23  1  0  0  0  0
  3  4  1  0  0  0  0
  3 24  1  0  0  0  0
  3 25  1  0  0  0  0
  4 18  1  0  0  0  0
  4  5  1  0  0  0  0
  4 44  1  0  0  0  0
  5  6  1  0  0  0  0
  5 26  1  0  0  0  0
  5 27  1  0  0  0  0
  6  7  1  0  0  0  0
  6 28  1  0  0  0  0
  6 29  1  0  0  0  0
  7  8  1  0  0  0  0
  7 17  1  0  0  0  0
  7 30  1  0  0  0  0
  8  9  1  0  0  0  0
  8 31  1  0  0  0  0
  8 45  1  0  0  0  0
  9 10  1  0  0  0  0
  9 32  1  0  0  0  0
  9 33  1  0  0  0  0
 10 11  1  0  0  0  0
 10 34  1  0  0  0  0
 10 35  1  0  0  0  0
 11 16  1  0  0  0  0
 11 12  2  0  0  0  0
 12 13  1  0  0  0  0
 12 36  1  0  0  0  0
 13 14  2  0  0  0  0
 13 37  1  0  0  0  0
 14 15  1  0  0  0  0
 14 38  1  0  0  0  0
 15 16  2  0  0  0  0
 15 39  1  0  0  0  0
 17 18  1  0  0  0  0
 17 40  1  0  0  0  0
 17 41  1  0  0  0  0
 18 42  1  0  0  0  0
 18 43  1  0  0  0  0
M  CHG  1   4   1
M  CHG  1   8   1
M  END
> <s_m_source_file>
AV-unprocessed.smi

> <i_m_source_file_index>
3318

> <i_lp_mmshare_version>
43012

> <i_f3d_flags>
0

> <s_epik_input>
W0NIM11bQ0gyXVtDSDJdTjFbQ0gyXVtDSDJdW0NIXShbQ0gyXVtDSDJdMSlbTkhdW0NIMl1bQ0gyXWMyW2NIXVtjSF1bY0hdW2NIXW4y

> <s_epik_cmdline>
J2VwaWtfcHl0aG9uJywgJy1waCcsICc3LjAnLCAnLXRuJywgJzgnLCAnLW1hJywgJzIwMCcsICctbWV0YWxfYmluZGluZycsICctaW1hZScsICc8aW5maWxlLm1hZT4nLCAnLW9tYWUnLCAnPG91dGZpbGUubWFlPic=

> <r_epik_Ionization_Penalty>
0.0638186

> <r_epik_Ionization_Penalty_Charging>
0.0628538

> <r_epik_Ionization_Penalty_Neutral>
0.000964829

> <r_epik_State_Penalty>
0.0518488

> <r_epik_Charging_Adjusted_Penalty>
0.114703

> <i_epik_Tot_Q>
2

> <i_epik_Tot_abs_Q>
2

> <r_epik_Metal_State_Penalty>
0.0535981

> <b_epik_Metal_Only>
0

> <s_lp_Force_Field>
OPLS_2005

> <r_lp_Energy>
28.1617

> <b_lp_Chiralities_Consistent>
1

> <s_lp_Variant>
AV-unprocessed.smi:3318-1

> <Gold.Version>
5.8.1

> <Gold.Id.Protein>
6NUR|6NUR_protein|mol2

> <Gold.PLP.Fitness>
45.3693

> <Gold.PLP.PLP>
-35.2391

> <Gold.PLP.part.hbond>
-2.0000

> <Gold.PLP.part.metal>
0.0000

> <Gold.PLP.part.buried>
-2.3997

> <Gold.PLP.part.nonpolar>
-30.1395

> <Gold.PLP.part.repulsive>
0.1598

> <Gold.PLP.ligand.clash>
0.0000

> <Gold.PLP.ligand.torsion>
0.9613

> <Gold.PLP.Chemscore.Hbond>
4.0000

> <Gold.PLP.Chemscore.CHOScore>
0.0000

> <Gold.PLP.Chemscore.Metal>
0.0000

> <Gold.Chemscore.Hbonds>
donor molecule, donor type, donor heavy atom, donor atom, acceptor molecule, acceptor atom, score
      L1  H     4    44       P1 10175  2.00
      L1  H     8    31       P1  7948  2.00

> <Gold.PLP.Chemscore.Internal.Correction>
0.0527

> <Gold.Rescore>
     Score         DG    S(hbond)    S(metal)    S(lipo)     H(rot)  DE(clash)    DE(int)     intcor
     17.65     -18.42       1.88        0.00      91.04       1.55       0.06       0.71       ----

> <Gold.Chemscore.Fitness>
17.6504

> <Gold.Chemscore.DG>
-18.4199

> <Gold.Chemscore.ZeroCoef>
-5.4800

> <Gold.Chemscore.Hbond>
1.8757

> <Gold.Chemscore.Metal>
0.0000

> <Gold.Chemscore.Lipo>
91.0373

> <Gold.Chemscore.Internal_Hbond>
0.0000

> <Gold.Chemscore.DEClash>
0.0573

> <Gold.Chemscore.DEInternal>
0.7122

> <Gold.Chemscore.Rot>
1.5532

> <Gold.Chemscore.Internal.Correction>
   9.000000E+99

> <Gold.Chemscore.Hbonds>
donor molecule, donor type, donor heavy atom, donor atom, acceptor molecule, acceptor atom, score
      L1  H     4    44       P1 10175  0.74
      L1  H     8    31       P1  7948  0.99

> <Gold.Chemscore.Hbond.Weighted>
-6.2648

> <Gold.Chemscore.Metal.Weighted>
-0.0000

> <Gold.Chemscore.Lipo.Weighted>
-10.6514

> <Gold.Chemscore.Internal_Hbond.Weighted>
0.0000

> <Gold.Chemscore.DEClash.Weighted>
0.0573

> <Gold.Chemscore.DEInternal.Weighted>
0.7122

> <Gold.Chemscore.Rot.Weighted>
3.9762

> <Gold.Chemscore.Internal.Correction.Weighted>
   9.000000E+99

> <Gold.Protein.RotatedTorsions>
[ 6907 6896 6895 6894 ] final -179.80 input  -60.11 | X-H torsion
[ 7974 7965 7964 7962 ] final    8.70 input  175.53 | X-H torsion
[ 8008 7997 7996 7995 ] final -176.23 input   59.86 | X-H torsion
[ 10167 10162 10161 10158 ] final   31.87 input  -65.29 | X-H torsion
[ 10718 10713 10712 10709 ] final  163.09 input   66.30 | X-H torsion
[ 10763 10752 10751 10750 ] final  165.98 input  -60.55 | X-H torsion
[ 11005 11000 10999 10996 ] final   36.67 input  -57.11 | X-H torsion

> <Gold.Protein.ActiveResidues>
 VAL166  LYS551  ARG553  GLY616  TRP617  ASP618  TYR619  PRO620  LYS621  CYS622 
 ASP623  PHE694  ASN695  SER759  ASP760  ASP761  ALA762  ILE779  LEU786  VAL792 
 PHE793  MET794  SER795  GLU796  ALA797  LYS798  CYS799  TRP800  GLU811  SER814 

> <Gold.Protein.RotatedAtoms>
  151.6593  133.3317  159.3169 H   0  0  0  0  0  0  0  0  0  0  0  0  # atno 6907 bound_to 6896
  150.7921  134.6958  159.6531 H   0  0  0  0  0  0  0  0  0  0  0  0  # atno 6908 bound_to 6896
  152.4003  134.6301  160.0125 H   0  0  0  0  0  0  0  0  0  0  0  0  # atno 6909 bound_to 6896
  146.2413  139.9893  142.8427 H   0  0  0  0  0  0  0  0  0  0  0  0  # atno 7974 bound_to 7965
  155.9923  140.1203  157.0627 H   0  0  0  0  0  0  0  0  0  0  0  0  # atno 8008 bound_to 7997
  154.4215  140.1123  156.5650 H   0  0  0  0  0  0  0  0  0  0  0  0  # atno 8009 bound_to 7997
  155.6326  140.3473  155.4690 H   0  0  0  0  0  0  0  0  0  0  0  0  # atno 8010 bound_to 7997
  140.4550  144.0992  150.6200 H   0  0  0  0  0  0  0  0  0  0  0  0  # atno 10167 bound_to 10162
  157.1134  131.0474  151.2447 H   0  0  0  0  0  0  0  0  0  0  0  0  # atno 10718 bound_to 10713
  154.3322  135.2754  155.2466 H   0  0  0  0  0  0  0  0  0  0  0  0  # atno 10763 bound_to 10752
  154.4773  135.5867  153.6367 H   0  0  0  0  0  0  0  0  0  0  0  0  # atno 10764 bound_to 10752
  152.9865  135.6102  154.3516 H   0  0  0  0  0  0  0  0  0  0  0  0  # atno 10765 bound_to 10752
  140.2303  134.3536  155.7967 H   0  0  0  0  0  0  0  0  0  0  0  0  # atno 11005 bound_to 11000
  145.1518  140.9627  143.4428 LP  0  0  0  0  0  0  0  0  0  0  0  0  # atno 17320 bound_to 7965
  145.0198  139.3434  143.6078 LP  0  0  0  0  0  0  0  0  0  0  0  0  # atno 17321 bound_to 7965
  140.4162  143.2633  151.9772 LP  0  0  0  0  0  0  0  0  0  0  0  0  # atno 17342 bound_to 10162
  139.4800  144.5872  151.7834 LP  0  0  0  0  0  0  0  0  0  0  0  0  # atno 17343 bound_to 10162
  157.4539  130.7614  149.7176 LP  0  0  0  0  0  0  0  0  0  0  0  0  # atno 17370 bound_to 10713
  155.9845  130.3991  150.3308 LP  0  0  0  0  0  0  0  0  0  0  0  0  # atno 17371 bound_to 10713
  141.2218  133.7241  156.8720 LP  0  0  0  0  0  0  0  0  0  0  0  0  # atno 17394 bound_to 11000
  140.1758  134.9068  157.2889 LP  0  0  0  0  0  0  0  0  0  0  0  0  # atno 17395 bound_to 11000

$$$$
