AV-unprocessed.smi:2936|AV-procd|sdf|11257|dock4
  -GOLD-   2272016153D 1   1.00000     0.00000
 Structure written by MMmdl.
 23 24  0  0  0  0  0  0  0  0  2 V2000
  151.6191  135.8296  157.1286 O   0  0  0  0  0  0  0  0  0  0  0  0
  151.6721  136.9638  156.6559 C   0  0  0  0  0  0  0  0  0  0  0  0
  151.9072  137.1876  155.3268 N   0  5  0  0  0  0  0  0  0  0  0  0
  151.9600  138.5395  154.8151 N   0  0  0  0  0  0  0  0  0  0  0  0
  151.7911  139.5390  155.5874 C   0  0  0  0  0  0  0  0  0  0  0  0
  151.5335  139.3864  157.0351 C   0  0  0  0  0  0  0  0  0  0  0  0
  151.3588  140.5139  157.8234 N   0  0  0  0  0  0  0  0  0  0  0  0
  150.4989  141.6271  157.4512 C   0  0  0  0  0  0  0  0  0  0  0  0
  151.2909  142.9461  157.4874 C   0  0  0  0  0  0  0  0  0  0  0  0
  151.8838  143.1120  158.7729 O   0  0  0  0  0  0  0  0  0  0  0  0
  152.7891  142.0573  159.0888 C   0  0  0  0  0  0  0  0  0  0  0  0
  152.0351  140.7157  159.0958 C   0  0  0  0  0  0  0  0  0  0  0  0
  151.4792  138.1245  157.5341 C   0  0  0  0  0  0  0  0  0  0  0  0
  151.1798  137.8400  159.2168 Cl  0  0  0  0  0  0  0  0  0  0  0  0
  151.8284  140.5669  155.2170 H   0  0  0  0  0  0  0  0  0  0  0  0
  150.0839  141.4630  156.4560 H   0  0  0  0  0  0  0  0  0  0  0  0
  149.6583  141.6713  158.1446 H   0  0  0  0  0  0  0  0  0  0  0  0
  152.0611  142.9623  156.7153 H   0  0  0  0  0  0  0  0  0  0  0  0
  150.6273  143.7879  157.2910 H   0  0  0  0  0  0  0  0  0  0  0  0
  153.6102  142.0414  158.3711 H   0  0  0  0  0  0  0  0  0  0  0  0
  153.2273  142.2470  160.0685 H   0  0  0  0  0  0  0  0  0  0  0  0
  151.2946  140.7015  159.8961 H   0  0  0  0  0  0  0  0  0  0  0  0
  152.7275  139.8948  159.2860 H   0  0  0  0  0  0  0  0  0  0  0  0
  1  2  2  0  0  0  0
  2 13  1  0  0  0  0
  2  3  1  0  0  0  0
  3  4  1  0  0  0  0
  4  5  2  0  0  0  0
  5  6  1  0  0  0  0
  5 15  1  0  0  0  0
  6  7  1  0  0  0  0
  6 13  2  0  0  0  0
  7 12  1  0  0  0  0
  7  8  1  0  0  0  0
  8  9  1  0  0  0  0
  8 16  1  0  0  0  0
  8 17  1  0  0  0  0
  9 10  1  0  0  0  0
  9 18  1  0  0  0  0
  9 19  1  0  0  0  0
 10 11  1  0  0  0  0
 11 12  1  0  0  0  0
 11 20  1  0  0  0  0
 11 21  1  0  0  0  0
 12 22  1  0  0  0  0
 12 23  1  0  0  0  0
 13 14  1  0  0  0  0
M  CHG  1   3  -1
M  END
> <s_m_source_file>
AV-unprocessed.smi

> <i_m_source_file_index>
2936

> <i_lp_mmshare_version>
43012

> <i_f3d_flags>
0

> <s_epik_input>
Tz1jMVtuSF1uW2NIXWMoYzFDbClOMltDSDJdW0NIMl1PW0NIMl1bQ0gyXTI=

> <s_epik_cmdline>
J2VwaWtfcHl0aG9uJywgJy1waCcsICc3LjAnLCAnLXRuJywgJzgnLCAnLW1hJywgJzIwMCcsICctbWV0YWxfYmluZGluZycsICctaW1hZScsICc8aW5maWxlLm1hZT4nLCAnLW9tYWUnLCAnPG91dGZpbGUubWFlPic=

> <r_lp_tautomer_probability>
1

> <r_epik_Ionization_Penalty>
2.40826

> <r_epik_Ionization_Penalty_Charging>
0.00182709

> <r_epik_Ionization_Penalty_Neutral>
2.40643

> <r_epik_State_Penalty>
0.0371983

> <r_epik_Charging_Adjusted_Penalty>
0.0390254

> <i_epik_Tot_Q>
-1

> <i_epik_Tot_abs_Q>
1

> <r_epik_Metal_State_Penalty>
0.000698467

> <b_epik_Metal_Only>
0

> <s_lp_Force_Field>
OPLS_2005

> <r_lp_Energy>
40.7518

> <b_lp_Chiralities_Consistent>
1

> <s_lp_Variant>
AV-unprocessed.smi:2936-1

> <Gold.Version>
5.8.1

> <Gold.Id.Protein>
6NUR|6NUR_protein|mol2

> <Gold.PLP.Fitness>
27.9492

> <Gold.PLP.PLP>
-22.1036

> <Gold.PLP.part.hbond>
-1.1795

> <Gold.PLP.part.metal>
0.0000

> <Gold.PLP.part.buried>
-5.0418

> <Gold.PLP.part.nonpolar>
-16.1599

> <Gold.PLP.part.repulsive>
0.1536

> <Gold.PLP.ligand.clash>
0.0000

> <Gold.PLP.ligand.torsion>
0.8069

> <Gold.PLP.Chemscore.Hbond>
1.9520

> <Gold.PLP.Chemscore.CHOScore>
0.0000

> <Gold.PLP.Chemscore.Metal>
0.0000

> <Gold.Chemscore.Hbonds>
donor molecule, donor type, donor heavy atom, donor atom, acceptor molecule, acceptor atom, score
      P1  H 10752 10764       L1     3  1.95

> <Gold.PLP.Chemscore.Internal.Correction>
1.6033

> <Gold.Rescore>
     Score         DG    S(hbond)    S(metal)    S(lipo)     H(rot)  DE(clash)    DE(int)     intcor
     16.68     -18.57       1.88        0.00      58.23       0.00       0.03       1.86       ----

> <Gold.Chemscore.Fitness>
16.6804

> <Gold.Chemscore.DG>
-18.5723

> <Gold.Chemscore.ZeroCoef>
-5.4800

> <Gold.Chemscore.Hbond>
1.8800

> <Gold.Chemscore.Metal>
0.0000

> <Gold.Chemscore.Lipo>
58.2320

> <Gold.Chemscore.Internal_Hbond>
0.0000

> <Gold.Chemscore.DEClash>
0.0270

> <Gold.Chemscore.DEInternal>
1.8649

> <Gold.Chemscore.Rot>
0.0000

> <Gold.Chemscore.Internal.Correction>
   9.000000E+99

> <Gold.Chemscore.Hbonds>
donor molecule, donor type, donor heavy atom, donor atom, acceptor molecule, acceptor atom, score
      P1  H 10752 10764       L1     3  0.48

> <Gold.Chemscore.Hbond.Weighted>
-6.2792

> <Gold.Chemscore.Metal.Weighted>
-0.0000

> <Gold.Chemscore.Lipo.Weighted>
-6.8131

> <Gold.Chemscore.Internal_Hbond.Weighted>
0.0000

> <Gold.Chemscore.DEClash.Weighted>
0.0270

> <Gold.Chemscore.DEInternal.Weighted>
1.8649

> <Gold.Chemscore.Rot.Weighted>
0.0000

> <Gold.Chemscore.Internal.Correction.Weighted>
   9.000000E+99

> <Gold.Protein.RotatedTorsions>
[ 6907 6896 6895 6894 ] final  104.22 input  -60.11 | X-H torsion
[ 7974 7965 7964 7962 ] final  146.94 input  175.53 | X-H torsion
[ 8008 7997 7996 7995 ] final -122.96 input   59.86 | X-H torsion
[ 10167 10162 10161 10158 ] final  -62.64 input  -65.29 | X-H torsion
[ 10718 10713 10712 10709 ] final   29.48 input   66.30 | X-H torsion
[ 10763 10752 10751 10750 ] final  -55.30 input  -60.55 | X-H torsion
[ 11005 11000 10999 10996 ] final  -58.01 input  -57.11 | X-H torsion

> <Gold.Protein.ActiveResidues>
 VAL166  LYS551  ARG553  GLY616  TRP617  ASP618  TYR619  PRO620  LYS621  CYS622 
 ASP623  PHE694  ASN695  SER759  ASP760  ASP761  ALA762  ILE779  LEU786  VAL792 
 PHE793  MET794  SER795  GLU796  ALA797  LYS798  CYS799  TRP800  GLU811  SER814 

> <Gold.Protein.RotatedAtoms>
  152.5271  133.9708  159.7760 H   0  0  0  0  0  0  0  0  0  0  0  0  # atno 6907 bound_to 6896
  150.9981  133.6075  159.2706 H   0  0  0  0  0  0  0  0  0  0  0  0  # atno 6908 bound_to 6896
  151.3194  135.0821  159.9354 H   0  0  0  0  0  0  0  0  0  0  0  0  # atno 6909 bound_to 6896
  144.8631  139.5967  143.5921 H   0  0  0  0  0  0  0  0  0  0  0  0  # atno 7974 bound_to 7965
  155.1727  140.0408  157.2866 H   0  0  0  0  0  0  0  0  0  0  0  0  # atno 8008 bound_to 7997
  154.6258  140.2512  155.7466 H   0  0  0  0  0  0  0  0  0  0  0  0  # atno 8009 bound_to 7997
  156.2458  140.2885  156.0587 H   0  0  0  0  0  0  0  0  0  0  0  0  # atno 8010 bound_to 7997
  140.5925  143.2344  151.6107 H   0  0  0  0  0  0  0  0  0  0  0  0  # atno 10167 bound_to 10162
  157.2471  130.7097  149.6387 H   0  0  0  0  0  0  0  0  0  0  0  0  # atno 10718 bound_to 10713
  154.1885  135.6431  153.5053 H   0  0  0  0  0  0  0  0  0  0  0  0  # atno 10763 bound_to 10752
  153.0041  135.5423  154.6440 H   0  0  0  0  0  0  0  0  0  0  0  0  # atno 10764 bound_to 10752
  154.5822  135.2926  155.0693 H   0  0  0  0  0  0  0  0  0  0  0  0  # atno 10765 bound_to 10752
  141.1189  133.6611  156.4856 H   0  0  0  0  0  0  0  0  0  0  0  0  # atno 11005 bound_to 11000
  146.2875  139.7046  142.9184 LP  0  0  0  0  0  0  0  0  0  0  0  0  # atno 17320 bound_to 7965
  145.4274  141.0412  143.2930 LP  0  0  0  0  0  0  0  0  0  0  0  0  # atno 17321 bound_to 7965
  139.5237  144.3126  152.0980 LP  0  0  0  0  0  0  0  0  0  0  0  0  # atno 17342 bound_to 10162
  140.2293  144.4385  150.6307 LP  0  0  0  0  0  0  0  0  0  0  0  0  # atno 17343 bound_to 10162
  155.9667  130.4439  150.5442 LP  0  0  0  0  0  0  0  0  0  0  0  0  # atno 17370 bound_to 10713
  157.3318  131.0701  151.1855 LP  0  0  0  0  0  0  0  0  0  0  0  0  # atno 17371 bound_to 10713
  140.4565  134.6881  157.5065 LP  0  0  0  0  0  0  0  0  0  0  0  0  # atno 17394 bound_to 11000
  140.0132  134.6659  155.9349 LP  0  0  0  0  0  0  0  0  0  0  0  0  # atno 17395 bound_to 11000

$$$$
