AV-unprocessed.smi:52|AV-procd|sdf|507|dock4
  -GOLD-   2262016383D 1   1.00000     0.00000
 Structure written by MMmdl.
 27 28  0  0  0  0  0  0  0  0  3 V2000
  152.1770  135.8354  156.7311 O   0  0  0  0  0  0  0  0  0  0  0  0
  151.5257  136.7416  157.2959 C   0  0  0  0  0  0  0  0  0  0  0  0
  150.9963  136.5757  158.4168 O   0  5  0  0  0  0  0  0  0  0  0  0
  151.3730  138.0520  156.6128 C   0  0  0  0  0  0  0  0  0  0  0  0
  151.4529  138.2900  155.2638 C   0  0  0  0  0  0  0  0  0  0  0  0
  151.2456  139.6224  155.0289 O   0  0  0  0  0  0  0  0  0  0  0  0
  151.0481  140.1529  156.2661 C   0  0  0  0  0  0  0  0  0  0  0  0
  150.7612  141.6128  156.3905 C   0  0  0  0  0  0  0  0  0  0  0  0
  149.3906  141.7638  155.8448 N   0  3  2  0  0  0  0  0  0  0  0  0
  148.3600  140.9820  156.5698 C   0  0  0  0  0  0  0  0  0  0  0  0
  147.5144  140.2654  155.5097 C   0  0  0  0  0  0  0  0  0  0  0  0
  147.7861  141.0492  154.2299 C   0  0  2  0  0  0  0  0  0  0  0  0
  147.5812  140.2630  153.0751 O   0  0  0  0  0  0  0  0  0  0  0  0
  149.2443  141.4667  154.4005 C   0  0  0  0  0  0  0  0  0  0  0  0
  151.1152  139.2594  157.2497 N   0  0  0  0  0  0  0  0  0  0  0  0
  147.1471  141.9327  154.1919 H   0  0  0  0  0  0  0  0  0  0  0  0
  151.6337  137.6626  154.4034 H   0  0  0  0  0  0  0  0  0  0  0  0
  150.8307  141.9408  157.4285 H   0  0  0  0  0  0  0  0  0  0  0  0
  151.4841  142.1717  155.7951 H   0  0  0  0  0  0  0  0  0  0  0  0
  148.7955  140.2638  157.2662 H   0  0  0  0  0  0  0  0  0  0  0  0
  147.7487  141.6745  157.1494 H   0  0  0  0  0  0  0  0  0  0  0  0
  147.8683  139.2384  155.4023 H   0  0  0  0  0  0  0  0  0  0  0  0
  146.4551  140.2269  155.7662 H   0  0  0  0  0  0  0  0  0  0  0  0
  148.4207  140.0725  152.6841 H   0  0  0  0  0  0  0  0  0  0  0  0
  149.5084  142.3229  153.7788 H   0  0  0  0  0  0  0  0  0  0  0  0
  149.9026  140.6385  154.1304 H   0  0  0  0  0  0  0  0  0  0  0  0
  149.1343  142.7335  155.9644 H   0  0  0  0  0  0  0  0  0  0  0  0
  1  2  2  0  0  0  0
  2  3  1  0  0  0  0
  2  4  1  0  0  0  0
  4 15  1  0  0  0  0
  4  5  2  0  0  0  0
  5  6  1  0  0  0  0
  5 17  1  0  0  0  0
  6  7  1  0  0  0  0
  7  8  1  0  0  0  0
  7 15  2  0  0  0  0
  8  9  1  0  0  0  0
  8 18  1  0  0  0  0
  8 19  1  0  0  0  0
  9 14  1  0  0  0  0
  9 10  1  0  0  0  0
  9 27  1  0  0  0  0
 10 11  1  0  0  0  0
 10 20  1  0  0  0  0
 10 21  1  0  0  0  0
 11 12  1  0  0  0  0
 11 22  1  0  0  0  0
 11 23  1  0  0  0  0
 12 16  1  0  0  0  0
 12 13  1  0  0  0  0
 12 14  1  0  0  0  0
 13 24  1  0  0  0  0
 14 25  1  0  0  0  0
 14 26  1  0  0  0  0
M  CHG  1   3  -1
M  CHG  1   9   1
M  END
> <s_m_source_file>
AV-unprocessed.smi

> <i_m_source_file_index>
52

> <i_lp_mmshare_version>
43012

> <i_f3d_flags>
0

> <s_epik_input>
Tz1DKFtPSF0pYzFbY0hdb2MobjEpW0NIMl1OMltDSDJdW0NIMl1bQ0BIXShbT0hdKVtDSDJdMg==

> <s_epik_cmdline>
J2VwaWtfcHl0aG9uJywgJy1waCcsICc3LjAnLCAnLXRuJywgJzgnLCAnLW1hJywgJzIwMCcsICctbWV0YWxfYmluZGluZycsICctaW1hZScsICc8aW5maWxlLm1hZT4nLCAnLW9tYWUnLCAnPG91dGZpbGUubWFlPic=

> <r_epik_Ionization_Penalty>
0.0376014

> <r_epik_Ionization_Penalty_Charging>
0.0376013

> <r_epik_Ionization_Penalty_Neutral>
1.78687e-08

> <r_epik_State_Penalty>
0.0314164

> <r_epik_Charging_Adjusted_Penalty>
0.0690177

> <i_epik_Tot_Q>
0

> <i_epik_Tot_abs_Q>
2

> <r_epik_Metal_State_Penalty>
0.0314164

> <b_epik_Metal_Only>
0

> <s_lp_Force_Field>
OPLS_2005

> <r_lp_Energy>
21.1951

> <b_lp_Chiralities_Consistent>
1

> <s_lp_Variant>
AV-unprocessed.smi:52-1

> <Gold.Version>
5.8.1

> <Gold.Id.Protein>
6NUR|6NUR_protein|mol2

> <Gold.PLP.Fitness>
42.1049

> <Gold.PLP.PLP>
-20.1526

> <Gold.PLP.part.hbond>
-5.0000

> <Gold.PLP.part.metal>
0.0000

> <Gold.PLP.part.buried>
-3.6951

> <Gold.PLP.part.nonpolar>
-13.0380

> <Gold.PLP.part.repulsive>
0.1438

> <Gold.PLP.ligand.clash>
0.0000

> <Gold.PLP.ligand.torsion>
0.3773

> <Gold.PLP.Chemscore.Hbond>
7.5647

> <Gold.PLP.Chemscore.CHOScore>
0.0000

> <Gold.PLP.Chemscore.Metal>
0.0000

> <Gold.Chemscore.Hbonds>
donor molecule, donor type, donor heavy atom, donor atom, acceptor molecule, acceptor atom, score
      L1  H     9    27       P1  8028  2.00
      L1  H    13    24       P1  7957  1.00
      P1  H  6896  6907       L1     3  1.48
      P1  H  7989  7998       L1     6  1.00
      P1  H 10752 10764       L1     1  2.00

> <Gold.PLP.Chemscore.Internal.Correction>
0.0130

> <Gold.Rescore>
     Score         DG    S(hbond)    S(metal)    S(lipo)     H(rot)  DE(clash)    DE(int)     intcor
     18.19     -20.04       4.51        0.00      39.17       1.99       0.06       1.78       ----

> <Gold.Chemscore.Fitness>
18.1943

> <Gold.Chemscore.DG>
-20.0352

> <Gold.Chemscore.ZeroCoef>
-5.4800

> <Gold.Chemscore.Hbond>
4.5126

> <Gold.Chemscore.Metal>
0.0000

> <Gold.Chemscore.Lipo>
39.1655

> <Gold.Chemscore.Internal_Hbond>
0.0000

> <Gold.Chemscore.DEClash>
0.0589

> <Gold.Chemscore.DEInternal>
1.7820

> <Gold.Chemscore.Rot>
1.9919

> <Gold.Chemscore.Internal.Correction>
   9.000000E+99

> <Gold.Chemscore.Hbonds>
donor molecule, donor type, donor heavy atom, donor atom, acceptor molecule, acceptor atom, score
      L1  H     9    27       P1  8028  0.93
      L1  H    13    24       P1  7957  0.94
      P1  H  6896  6907       L1     3  0.70
      P1  H  7989  7998       L1     6  0.92
      P1  H 10752 10764       L1     1  0.99

> <Gold.Chemscore.Hbond.Weighted>
-15.0720

> <Gold.Chemscore.Metal.Weighted>
-0.0000

> <Gold.Chemscore.Lipo.Weighted>
-4.5824

> <Gold.Chemscore.Internal_Hbond.Weighted>
0.0000

> <Gold.Chemscore.DEClash.Weighted>
0.0589

> <Gold.Chemscore.DEInternal.Weighted>
1.7820

> <Gold.Chemscore.Rot.Weighted>
5.0991

> <Gold.Chemscore.Internal.Correction.Weighted>
   9.000000E+99

> <Gold.Protein.RotatedTorsions>
[ 6907 6896 6895 6894 ] final  -29.77 input  -60.11 | X-H torsion
[ 7974 7965 7964 7962 ] final  -27.35 input  175.53 | X-H torsion
[ 8008 7997 7996 7995 ] final  -35.39 input   59.86 | X-H torsion
[ 10167 10162 10161 10158 ] final  103.01 input  -65.29 | X-H torsion
[ 10718 10713 10712 10709 ] final  -69.13 input   66.30 | X-H torsion
[ 10763 10752 10751 10750 ] final   -9.89 input  -60.55 | X-H torsion
[ 11005 11000 10999 10996 ] final  165.21 input  -57.11 | X-H torsion

> <Gold.Protein.ActiveResidues>
 VAL166  LYS551  ARG553  GLY616  TRP617  ASP618  TYR619  PRO620  LYS621  CYS622 
 ASP623  PHE694  ASN695  SER759  ASP760  ASP761  ALA762  ILE779  LEU786  VAL792 
 PHE793  MET794  SER795  GLU796  ALA797  LYS798  CYS799  TRP800  GLU811  SER814 

> <Gold.Protein.RotatedAtoms>
  151.1147  135.0046  159.8509 H   0  0  0  0  0  0  0  0  0  0  0  0  # atno 6907 bound_to 6896
  152.5445  134.1794  159.8639 H   0  0  0  0  0  0  0  0  0  0  0  0  # atno 6908 bound_to 6896
  151.1847  133.4658  159.2627 H   0  0  0  0  0  0  0  0  0  0  0  0  # atno 6909 bound_to 6896
  146.1364  140.5140  142.8671 H   0  0  0  0  0  0  0  0  0  0  0  0  # atno 7974 bound_to 7965
  154.4097  140.1658  156.2203 H   0  0  0  0  0  0  0  0  0  0  0  0  # atno 8008 bound_to 7997
  155.9369  140.3411  155.6272 H   0  0  0  0  0  0  0  0  0  0  0  0  # atno 8009 bound_to 7997
  155.7037  140.0748  157.2390 H   0  0  0  0  0  0  0  0  0  0  0  0  # atno 8010 bound_to 7997
  139.7300  144.7038  151.0738 H   0  0  0  0  0  0  0  0  0  0  0  0  # atno 10167 bound_to 10162
  156.0470  130.4307  150.2102 H   0  0  0  0  0  0  0  0  0  0  0  0  # atno 10718 bound_to 10713
  153.4613  135.7016  153.6049 H   0  0  0  0  0  0  0  0  0  0  0  0  # atno 10763 bound_to 10752
  153.4342  135.3795  155.2189 H   0  0  0  0  0  0  0  0  0  0  0  0  # atno 10764 bound_to 10752
  154.8727  135.3958  154.4038 H   0  0  0  0  0  0  0  0  0  0  0  0  # atno 10765 bound_to 10752
  140.2538  134.7956  157.3527 H   0  0  0  0  0  0  0  0  0  0  0  0  # atno 11005 bound_to 11000
  144.7744  140.5707  143.6648 LP  0  0  0  0  0  0  0  0  0  0  0  0  # atno 17320 bound_to 7965
  145.5147  139.1478  143.3585 LP  0  0  0  0  0  0  0  0  0  0  0  0  # atno 17321 bound_to 7965
  140.7769  143.5056  150.9716 LP  0  0  0  0  0  0  0  0  0  0  0  0  # atno 17342 bound_to 10162
  139.8744  143.7151  152.3163 LP  0  0  0  0  0  0  0  0  0  0  0  0  # atno 17343 bound_to 10162
  157.0191  130.9974  151.3345 LP  0  0  0  0  0  0  0  0  0  0  0  0  # atno 17370 bound_to 10713
  157.5357  130.8087  149.7969 LP  0  0  0  0  0  0  0  0  0  0  0  0  # atno 17371 bound_to 10713
  140.1532  134.4823  155.7946 LP  0  0  0  0  0  0  0  0  0  0  0  0  # atno 17394 bound_to 11000
  141.2198  133.6871  156.7414 LP  0  0  0  0  0  0  0  0  0  0  0  0  # atno 17395 bound_to 11000

$$$$
