AV-unprocessed.smi:72|AV-procd|sdf|723|dock2
  -GOLD-   2262017 53D 1   1.00000     0.00000
 Structure written by MMmdl.
 28 29  0  0  0  0  0  0  0  0  2 V2000
  154.2575  138.2779  154.4014 N   0  0  0  0  0  0  0  0  0  0  0  0
  153.0328  138.5270  154.5651 C   0  0  0  0  0  0  0  0  0  0  0  0
  152.0323  137.5984  154.0853 N   0  0  0  0  0  0  0  0  0  0  0  0
  150.7855  137.8968  154.2858 C   0  0  0  0  0  0  0  0  0  0  0  0
  150.3884  139.1157  154.9767 N   0  0  0  0  0  0  0  0  0  0  0  0
  148.9254  139.4497  155.1940 C   0  0  2  0  0  0  0  0  0  0  0  0
  148.1719  138.2746  155.1310 O   0  0  0  0  0  0  0  0  0  0  0  0
  146.9564  138.5255  154.4339 C   0  0  2  0  0  0  0  0  0  0  0  0
  146.3495  137.2203  153.8901 C   0  0  0  0  0  0  0  0  0  0  0  0
  147.2412  136.1475  154.1055 O   0  0  0  0  0  0  0  0  0  0  0  0
  147.3669  139.5574  153.3743 C   0  0  2  0  0  0  0  0  0  0  0  0
  147.9548  138.9197  152.2525 O   0  0  0  0  0  0  0  0  0  0  0  0
  148.3624  140.4253  154.1379 C   0  0  2  0  0  0  0  0  0  0  0  0
  149.3159  141.0507  153.2946 O   0  0  0  0  0  0  0  0  0  0  0  0
  151.3911  140.0208  155.4160 C   0  0  0  0  0  0  0  0  0  0  0  0
  151.0344  141.0670  155.9583 O   0  0  0  0  0  0  0  0  0  0  0  0
  152.6985  139.7002  155.2052 N   0  5  0  0  0  0  0  0  0  0  0  0
  148.8437  139.8372  156.2105 H   0  0  0  0  0  0  0  0  0  0  0  0
  146.2577  139.0065  155.1216 H   0  0  0  0  0  0  0  0  0  0  0  0
  146.5143  140.1402  153.0245 H   0  0  0  0  0  0  0  0  0  0  0  0
  147.8196  141.2015  154.6790 H   0  0  0  0  0  0  0  0  0  0  0  0
  154.8500  139.0034  154.7781 H   0  0  0  0  0  0  0  0  0  0  0  0
  149.9641  137.2626  153.9504 H   0  0  0  0  0  0  0  0  0  0  0  0
  145.4245  136.9873  154.4180 H   0  0  0  0  0  0  0  0  0  0  0  0
  146.1084  137.3038  152.8300 H   0  0  0  0  0  0  0  0  0  0  0  0
  147.8952  136.1638  153.4231 H   0  0  0  0  0  0  0  0  0  0  0  0
  148.1341  138.0211  152.4847 H   0  0  0  0  0  0  0  0  0  0  0  0
  149.5541  140.4423  152.6111 H   0  0  0  0  0  0  0  0  0  0  0  0
  1  2  2  0  0  0  0
  1 22  1  0  0  0  0
  2 17  1  0  0  0  0
  2  3  1  0  0  0  0
  3  4  2  0  0  0  0
  4  5  1  0  0  0  0
  4 23  1  0  0  0  0
  5  6  1  0  0  0  0
  5 15  1  0  0  0  0
  6 18  1  0  0  0  0
  6 13  1  0  0  0  0
  6  7  1  0  0  0  0
  7  8  1  0  0  0  0
  8 19  1  0  0  0  0
  8  9  1  0  0  0  0
  8 11  1  0  0  0  0
  9 10  1  0  0  0  0
  9 24  1  0  0  0  0
  9 25  1  0  0  0  0
 10 26  1  0  0  0  0
 11 20  1  0  0  0  0
 11 12  1  0  0  0  0
 11 13  1  0  0  0  0
 12 27  1  0  0  0  0
 13 21  1  0  0  0  0
 13 14  1  0  0  0  0
 14 28  1  0  0  0  0
 15 16  2  0  0  0  0
 15 17  1  0  0  0  0
M  CHG  1  17  -1
M  END
> <s_m_source_file>
AV-unprocessed.smi

> <i_m_source_file_index>
72

> <i_lp_mmshare_version>
43012

> <i_f3d_flags>
0

> <s_epik_input>
W05IMl1jMW5bY0hdbihjKD1PKW4xKVtDQEBIXTJPW0NASF0oW0NIMl1bT0hdKVtDQEBIXShbT0hdKVtDQEhdMltPSF0=

> <s_epik_cmdline>
J2VwaWtfcHl0aG9uJywgJy1waCcsICc3LjAnLCAnLXRuJywgJzgnLCAnLW1hJywgJzIwMCcsICctbWV0YWxfYmluZGluZycsICctaW1hZScsICc8aW5maWxlLm1hZT4nLCAnLW9tYWUnLCAnPG91dGZpbGUubWFlPic=

> <r_lp_tautomer_probability>
7.17554e-07

> <r_epik_Ionization_Penalty>
12.8705

> <r_epik_Ionization_Penalty_Charging>
5.64144

> <r_epik_Ionization_Penalty_Neutral>
7.22905

> <r_epik_State_Penalty>
3.30104

> <r_epik_Charging_Adjusted_Penalty>
8.94249

> <i_epik_Tot_Q>
-1

> <i_epik_Tot_abs_Q>
1

> <r_epik_Metal_State_Penalty>
0.529074

> <b_epik_Metal_Only>
1

> <s_epik_Chemistry_Notes>
This compound contains an acetal/aminal-like group ( X-CH(R)-Y where X, Y are N, S, or O) that may be acid/base labile, releasing an aldehyde.

> <s_lp_Force_Field>
OPLS_2005

> <r_lp_Energy>
42.0282

> <b_lp_Chiralities_Consistent>
1

> <s_lp_Variant>
AV-unprocessed.smi:72-61

> <Gold.Version>
5.8.1

> <Gold.Id.Protein>
6NUR|6NUR_protein|mol2

> <Gold.PLP.Fitness>
47.8487

> <Gold.PLP.PLP>
-28.9985

> <Gold.PLP.part.hbond>
-9.0472

> <Gold.PLP.part.metal>
0.0000

> <Gold.PLP.part.buried>
-4.1496

> <Gold.PLP.part.nonpolar>
-16.6634

> <Gold.PLP.part.repulsive>
0.2781

> <Gold.PLP.ligand.clash>
0.0000

> <Gold.PLP.ligand.torsion>
1.3339

> <Gold.PLP.Chemscore.Hbond>
6.1740

> <Gold.PLP.Chemscore.CHOScore>
0.9951

> <Gold.PLP.Chemscore.Metal>
0.0000

> <Gold.Chemscore.Hbonds>
donor molecule, donor type, donor heavy atom, donor atom, acceptor molecule, acceptor atom, score
      L1  H    10    26       P1  7948  1.00
      L1  H    12    27       P1  7948  0.86
      L1  H    14    28       P1  7957  0.93
      P1  H  7997  8010       L1    17  2.00
      P1  H  8011  8017       L1    14  0.60
      P1  H 10752 10763       L1     3  0.67
      L1  C     4    23       P1  7948  1.00

> <Gold.PLP.Chemscore.Internal.Correction>
0.0107

> <Gold.Rescore>
     Score         DG    S(hbond)    S(metal)    S(lipo)     H(rot)  DE(clash)    DE(int)     intcor
      9.14     -10.47       3.94        0.00      18.49       4.04       0.03       1.30       ----

> <Gold.Chemscore.Fitness>
9.1380

> <Gold.Chemscore.DG>
-10.4691

> <Gold.Chemscore.ZeroCoef>
-5.4800

> <Gold.Chemscore.Hbond>
3.9429

> <Gold.Chemscore.Metal>
0.0000

> <Gold.Chemscore.Lipo>
18.4857

> <Gold.Chemscore.Internal_Hbond>
0.0000

> <Gold.Chemscore.DEClash>
0.0306

> <Gold.Chemscore.DEInternal>
1.3005

> <Gold.Chemscore.Rot>
4.0403

> <Gold.Chemscore.Internal.Correction>
   9.000000E+99

> <Gold.Chemscore.Hbonds>
donor molecule, donor type, donor heavy atom, donor atom, acceptor molecule, acceptor atom, score
      L1  H    10    26       P1  7948  1.00
      L1  H    12    27       P1  7948  0.79
      L1  H    14    28       P1  7957  0.84
      P1  H  7997  8010       L1    17  0.38
      P1  H  8011  8017       L1    14  0.04
      P1  H 10752 10763       L1     3  0.32

> <Gold.Chemscore.Hbond.Weighted>
-13.1694

> <Gold.Chemscore.Metal.Weighted>
-0.0000

> <Gold.Chemscore.Lipo.Weighted>
-2.1628

> <Gold.Chemscore.Internal_Hbond.Weighted>
0.0000

> <Gold.Chemscore.DEClash.Weighted>
0.0306

> <Gold.Chemscore.DEInternal.Weighted>
1.3005

> <Gold.Chemscore.Rot.Weighted>
10.3431

> <Gold.Chemscore.Internal.Correction.Weighted>
   9.000000E+99

> <Gold.Protein.RotatedTorsions>
[ 6907 6896 6895 6894 ] final    7.71 input  -60.11 | X-H torsion
[ 7974 7965 7964 7962 ] final  169.76 input  175.53 | X-H torsion
[ 8008 7997 7996 7995 ] final   82.87 input   59.86 | X-H torsion
[ 10167 10162 10161 10158 ] final  -83.54 input  -65.29 | X-H torsion
[ 10718 10713 10712 10709 ] final  -31.70 input   66.30 | X-H torsion
[ 10763 10752 10751 10750 ] final   34.32 input  -60.55 | X-H torsion
[ 11005 11000 10999 10996 ] final   -5.27 input  -57.11 | X-H torsion

> <Gold.Protein.ActiveResidues>
 VAL166  LYS551  ARG553  GLY616  TRP617  ASP618  TYR619  PRO620  LYS621  CYS622 
 ASP623  PHE694  ASN695  SER759  ASP760  ASP761  ALA762  ILE779  LEU786  VAL792 
 PHE793  MET794  SER795  GLU796  ALA797  LYS798  CYS799  TRP800  GLU811  SER814 

> <Gold.Protein.RotatedAtoms>
  151.6943  135.0941  160.0239 H   0  0  0  0  0  0  0  0  0  0  0  0  # atno 6907 bound_to 6896
  152.3759  133.6476  159.6132 H   0  0  0  0  0  0  0  0  0  0  0  0  # atno 6908 bound_to 6896
  150.7709  133.9110  159.3411 H   0  0  0  0  0  0  0  0  0  0  0  0  # atno 6909 bound_to 6896
  144.7345  139.9102  143.6414 H   0  0  0  0  0  0  0  0  0  0  0  0  # atno 7974 bound_to 7965
  155.9164  140.3424  155.6138 H   0  0  0  0  0  0  0  0  0  0  0  0  # atno 8008 bound_to 7997
  155.7326  140.0797  157.2300 H   0  0  0  0  0  0  0  0  0  0  0  0  # atno 8009 bound_to 7997
  154.4063  140.1585  156.2514 H   0  0  0  0  0  0  0  0  0  0  0  0  # atno 8010 bound_to 7997
  140.4217  143.2582  151.8881 H   0  0  0  0  0  0  0  0  0  0  0  0  # atno 10167 bound_to 10162
  156.3840  130.4361  149.7447 H   0  0  0  0  0  0  0  0  0  0  0  0  # atno 10718 bound_to 10713
  153.0169  135.6363  154.1650 H   0  0  0  0  0  0  0  0  0  0  0  0  # atno 10763 bound_to 10752
  154.1389  135.2836  155.3168 H   0  0  0  0  0  0  0  0  0  0  0  0  # atno 10764 bound_to 10752
  154.6139  135.5547  153.7564 H   0  0  0  0  0  0  0  0  0  0  0  0  # atno 10765 bound_to 10752
  140.6893  133.9085  155.8607 H   0  0  0  0  0  0  0  0  0  0  0  0  # atno 11005 bound_to 11000
  146.1007  139.4002  143.0349 LP  0  0  0  0  0  0  0  0  0  0  0  0  # atno 17320 bound_to 7965
  145.7583  140.9945  143.1214 LP  0  0  0  0  0  0  0  0  0  0  0  0  # atno 17321 bound_to 7965
  139.4783  144.5430  151.8500 LP  0  0  0  0  0  0  0  0  0  0  0  0  # atno 17342 bound_to 10162
  140.4526  144.1834  150.5899 LP  0  0  0  0  0  0  0  0  0  0  0  0  # atno 17343 bound_to 10162
  156.4526  130.7914  151.2935 LP  0  0  0  0  0  0  0  0  0  0  0  0  # atno 17370 bound_to 10713
  157.7494  131.0090  150.3252 LP  0  0  0  0  0  0  0  0  0  0  0  0  # atno 17371 bound_to 10713
  141.0254  134.0831  157.4074 LP  0  0  0  0  0  0  0  0  0  0  0  0  # atno 17394 bound_to 11000
  139.8928  135.0127  156.6865 LP  0  0  0  0  0  0  0  0  0  0  0  0  # atno 17395 bound_to 11000

$$$$
