AV-unprocessed.smi:1695|AV-procd|sdf|6793|dock1
  -GOLD-   22720 7553D 1   1.00000     0.00000
 Structure written by MMmdl.
 52 54  0  0  0  0  0  0  0  0  3 V2000
  152.4354  143.6479  160.6050 C   0  0  0  0  0  0  0  0  0  0  0  0
  152.1234  142.7191  159.4436 C   0  0  0  0  0  0  0  0  0  0  0  0
  151.1066  143.0922  158.5362 C   0  0  0  0  0  0  0  0  0  0  0  0
  150.8438  142.2222  157.4849 C   0  0  0  0  0  0  0  0  0  0  0  0
  149.9198  142.3042  156.4415 N   0  3  0  0  0  0  0  0  0  0  0  0
  150.0328  141.2049  155.6465 C   0  0  0  0  0  0  0  0  0  0  0  0
  151.0190  140.4225  156.1641 N   0  0  0  0  0  0  0  0  0  0  0  0
  151.5288  139.1286  155.6882 C   0  0  0  0  0  0  0  0  0  0  0  0
  150.5599  138.4206  154.7203 C   0  0  2  0  0  0  0  0  0  0  0  0
  150.5449  139.1572  153.5146 O   0  0  0  0  0  0  0  0  0  0  0  0
  149.1152  138.3103  155.2546 C   0  0  0  0  0  0  0  0  0  0  0  0
  148.1951  137.6538  154.2904 N   0  3  1  0  0  0  0  0  0  0  0  0
  147.5313  136.4439  154.8448 C   0  0  0  0  0  0  0  0  0  0  0  0
  146.6787  135.7316  153.7770 C   0  0  0  0  0  0  0  0  0  0  0  0
  145.6467  136.6584  153.1002 C   0  0  1  0  0  0  0  0  0  0  0  0
  144.4227  136.9422  153.9912 C   0  0  0  0  0  0  0  0  0  0  0  0
  144.0939  138.2228  154.1790 N   0  0  0  0  0  0  0  0  0  0  0  0
  143.7803  136.0282  154.5039 O   0  0  0  0  0  0  0  0  0  0  0  0
  146.3520  137.9462  152.6258 C   0  0  0  0  0  0  0  0  0  0  0  0
  147.2108  138.6089  153.7200 C   0  0  0  0  0  0  0  0  0  0  0  0
  151.5512  141.0153  157.3165 C   0  0  0  0  0  0  0  0  0  0  0  0
  152.5559  140.6330  158.2032 C   0  0  0  0  0  0  0  0  0  0  0  0
  152.8380  141.5045  159.2794 C   0  0  0  0  0  0  0  0  0  0  0  0
  153.9289  141.1125  160.2617 C   0  0  0  0  0  0  0  0  0  0  0  0
  151.8411  144.5608  160.5569 H   0  0  0  0  0  0  0  0  0  0  0  0
  153.4868  143.9363  160.5963 H   0  0  0  0  0  0  0  0  0  0  0  0
  152.2180  143.1580  161.5545 H   0  0  0  0  0  0  0  0  0  0  0  0
  150.5575  144.0149  158.6556 H   0  0  0  0  0  0  0  0  0  0  0  0
  149.4444  140.9919  154.7651 H   0  0  0  0  0  0  0  0  0  0  0  0
  152.5114  139.2673  155.2371 H   0  0  0  0  0  0  0  0  0  0  0  0
  151.6868  138.5091  156.5722 H   0  0  0  0  0  0  0  0  0  0  0  0
  150.9607  137.4318  154.5004 H   0  0  0  0  0  0  0  0  0  0  0  0
  149.6743  139.1251  153.1475 H   0  0  0  0  0  0  0  0  0  0  0  0
  149.0846  137.7569  156.1936 H   0  0  0  0  0  0  0  0  0  0  0  0
  148.7574  139.3152  155.4843 H   0  0  0  0  0  0  0  0  0  0  0  0
  148.2775  135.7414  155.2128 H   0  0  0  0  0  0  0  0  0  0  0  0
  146.9233  136.7194  155.7066 H   0  0  0  0  0  0  0  0  0  0  0  0
  147.3409  135.3254  153.0112 H   0  0  0  0  0  0  0  0  0  0  0  0
  146.1783  134.8704  154.2218 H   0  0  0  0  0  0  0  0  0  0  0  0
  145.2773  136.1425  152.2121 H   0  0  0  0  0  0  0  0  0  0  0  0
  143.2999  138.4639  154.7544 H   0  0  0  0  0  0  0  0  0  0  0  0
  144.6429  138.9498  153.7428 H   0  0  0  0  0  0  0  0  0  0  0  0
  146.9909  137.7043  151.7753 H   0  0  0  0  0  0  0  0  0  0  0  0
  145.6192  138.6621  152.2511 H   0  0  0  0  0  0  0  0  0  0  0  0
  146.5866  139.0143  154.5165 H   0  0  0  0  0  0  0  0  0  0  0  0
  147.7394  139.4562  153.2818 H   0  0  0  0  0  0  0  0  0  0  0  0
  153.1048  139.7115  158.0817 H   0  0  0  0  0  0  0  0  0  0  0  0
  154.3474  140.1338  160.0250 H   0  0  0  0  0  0  0  0  0  0  0  0
  153.5338  141.0673  161.2769 H   0  0  0  0  0  0  0  0  0  0  0  0
  154.7428  141.8376  160.2382 H   0  0  0  0  0  0  0  0  0  0  0  0
  148.7687  137.3478  153.5169 H   0  0  0  0  0  0  0  0  0  0  0  0
  149.2566  143.0526  156.2836 H   0  0  0  0  0  0  0  0  0  0  0  0
  1  2  1  0  0  0  0
  1 25  1  0  0  0  0
  1 26  1  0  0  0  0
  1 27  1  0  0  0  0
  2 23  1  0  0  0  0
  2  3  2  0  0  0  0
  3  4  1  0  0  0  0
  3 28  1  0  0  0  0
  4 21  2  0  0  0  0
  4  5  1  0  0  0  0
  5  6  2  0  0  0  0
  5 52  1  0  0  0  0
  6  7  1  0  0  0  0
  6 29  1  0  0  0  0
  7  8  1  0  0  0  0
  7 21  1  0  0  0  0
  8  9  1  0  0  0  0
  8 30  1  0  0  0  0
  8 31  1  0  0  0  0
  9 10  1  0  0  0  0
  9 11  1  0  0  0  0
  9 32  1  0  0  0  0
 10 33  1  0  0  0  0
 11 12  1  0  0  0  0
 11 34  1  0  0  0  0
 11 35  1  0  0  0  0
 12 20  1  0  0  0  0
 12 13  1  0  0  0  0
 12 51  1  0  0  0  0
 13 14  1  0  0  0  0
 13 36  1  0  0  0  0
 13 37  1  0  0  0  0
 14 15  1  0  0  0  0
 14 38  1  0  0  0  0
 14 39  1  0  0  0  0
 15 16  1  0  0  0  0
 15 19  1  0  0  0  0
 15 40  1  0  0  0  0
 16 17  1  0  0  0  0
 16 18  2  0  0  0  0
 17 41  1  0  0  0  0
 17 42  1  0  0  0  0
 19 20  1  0  0  0  0
 19 43  1  0  0  0  0
 19 44  1  0  0  0  0
 20 45  1  0  0  0  0
 20 46  1  0  0  0  0
 21 22  1  0  0  0  0
 22 23  2  0  0  0  0
 22 47  1  0  0  0  0
 23 24  1  0  0  0  0
 24 48  1  0  0  0  0
 24 49  1  0  0  0  0
 24 50  1  0  0  0  0
M  CHG  1   5   1
M  CHG  1  12   1
M  END
> <s_m_source_file>
AV-unprocessed.smi

> <i_m_source_file_index>
1695

> <i_lp_mmshare_version>
43012

> <i_f3d_flags>
0

> <s_epik_input>
W0NIM11jKFtjSF0xKWMoW0NIM10pW2NIXWMoYzEyKW4oW2NIXW4yKVtDSDJdW0NASF0oW09IXSlbQ0gyXU4zW0NIMl1bQ0gyXVtDSF0oQyg9TylbTkgyXSlbQ0gyXVtDSDJdMw==

> <s_epik_cmdline>
J2VwaWtfcHl0aG9uJywgJy1waCcsICc3LjAnLCAnLXRuJywgJzgnLCAnLW1hJywgJzIwMCcsICctbWV0YWxfYmluZGluZycsICctaW1hZScsICc8aW5maWxlLm1hZT4nLCAnLW9tYWUnLCAnPG91dGZpbGUubWFlPic=

> <r_epik_Ionization_Penalty>
1.20173

> <r_epik_Ionization_Penalty_Charging>
1.20172

> <r_epik_Ionization_Penalty_Neutral>
1.7852e-06

> <r_epik_State_Penalty>
1.28089

> <r_epik_Charging_Adjusted_Penalty>
2.48261

> <i_epik_Tot_Q>
2

> <i_epik_Tot_abs_Q>
2

> <r_epik_Metal_State_Penalty>
1.35652

> <b_epik_Metal_Only>
0

> <s_lp_Force_Field>
OPLS_2005

> <r_lp_Energy>
28.6872

> <b_lp_Chiralities_Consistent>
1

> <s_lp_Variant>
AV-unprocessed.smi:1695-5

> <Gold.Version>
5.8.1

> <Gold.Id.Protein>
6NUR|6NUR_protein|mol2

> <Gold.PLP.Fitness>
53.4645

> <Gold.PLP.PLP>
-39.5626

> <Gold.PLP.part.hbond>
-4.6620

> <Gold.PLP.part.metal>
0.0000

> <Gold.PLP.part.buried>
-1.5204

> <Gold.PLP.part.nonpolar>
-34.3598

> <Gold.PLP.part.repulsive>
0.1233

> <Gold.PLP.ligand.clash>
0.0000

> <Gold.PLP.ligand.torsion>
1.0915

> <Gold.PLP.Chemscore.Hbond>
5.3033

> <Gold.PLP.Chemscore.CHOScore>
0.0000

> <Gold.PLP.Chemscore.Metal>
0.0000

> <Gold.Chemscore.Hbonds>
donor molecule, donor type, donor heavy atom, donor atom, acceptor molecule, acceptor atom, score
      L1  H     5    52       P1  8028  2.00
      L1  H    10    33       P1  7957  0.14
      L1  H    12    51       P1  7948  1.98
      L1  H    17    42       P1 10175  0.23
      P1  H  7989  7998       L1    10  0.85

> <Gold.PLP.Chemscore.Internal.Correction>
0.1751

> <Gold.Rescore>
     Score         DG    S(hbond)    S(metal)    S(lipo)     H(rot)  DE(clash)    DE(int)     intcor
     17.96     -22.02       3.37        0.00     109.04       2.91       1.62       2.43       ----

> <Gold.Chemscore.Fitness>
17.9626

> <Gold.Chemscore.DG>
-22.0217

> <Gold.Chemscore.ZeroCoef>
-5.4800

> <Gold.Chemscore.Hbond>
3.3656

> <Gold.Chemscore.Metal>
0.0000

> <Gold.Chemscore.Lipo>
109.0354

> <Gold.Chemscore.Internal_Hbond>
0.0000

> <Gold.Chemscore.DEClash>
1.6243

> <Gold.Chemscore.DEInternal>
2.4348

> <Gold.Chemscore.Rot>
2.9127

> <Gold.Chemscore.Internal.Correction>
   9.000000E+99

> <Gold.Chemscore.Hbonds>
donor molecule, donor type, donor heavy atom, donor atom, acceptor molecule, acceptor atom, score
      L1  H     5    52       P1  8028  0.94
      L1  H    10    33       P1  7957  0.14
      L1  H    12    51       P1  7948  0.91
      L1  H    17    42       P1 10175  0.23
      P1  H  7989  7998       L1    10  0.75

> <Gold.Chemscore.Hbond.Weighted>
-11.2410

> <Gold.Chemscore.Metal.Weighted>
-0.0000

> <Gold.Chemscore.Lipo.Weighted>
-12.7571

> <Gold.Chemscore.Internal_Hbond.Weighted>
0.0000

> <Gold.Chemscore.DEClash.Weighted>
1.6243

> <Gold.Chemscore.DEInternal.Weighted>
2.4348

> <Gold.Chemscore.Rot.Weighted>
7.4565

> <Gold.Chemscore.Internal.Correction.Weighted>
   9.000000E+99

> <Gold.Protein.RotatedTorsions>
[ 6907 6896 6895 6894 ] final  -24.47 input  -60.11 | X-H torsion
[ 7974 7965 7964 7962 ] final   50.30 input  175.53 | X-H torsion
[ 8008 7997 7996 7995 ] final -173.39 input   59.86 | X-H torsion
[ 10167 10162 10161 10158 ] final  168.92 input  -65.29 | X-H torsion
[ 10718 10713 10712 10709 ] final  159.73 input   66.30 | X-H torsion
[ 10763 10752 10751 10750 ] final -150.98 input  -60.55 | X-H torsion
[ 11005 11000 10999 10996 ] final -113.32 input  -57.11 | X-H torsion

> <Gold.Protein.ActiveResidues>
 VAL166  LYS551  ARG553  GLY616  TRP617  ASP618  TYR619  PRO620  LYS621  CYS622 
 ASP623  PHE694  ASN695  SER759  ASP760  ASP761  ALA762  ILE779  LEU786  VAL792 
 PHE793  MET794  SER795  GLU796  ALA797  LYS798  CYS799  TRP800  GLU811  SER814 

> <Gold.Protein.RotatedAtoms>
  151.1891  135.0394  159.8824 H   0  0  0  0  0  0  0  0  0  0  0  0  # atno 6907 bound_to 6896
  152.5440  134.0977  159.8314 H   0  0  0  0  0  0  0  0  0  0  0  0  # atno 6908 bound_to 6896
  151.1103  133.5131  159.2638 H   0  0  0  0  0  0  0  0  0  0  0  0  # atno 6909 bound_to 6896
  146.0025  139.4455  143.0006 H   0  0  0  0  0  0  0  0  0  0  0  0  # atno 7974 bound_to 7965
  155.9568  140.1137  157.0930 H   0  0  0  0  0  0  0  0  0  0  0  0  # atno 8008 bound_to 7997
  154.4122  140.1190  156.5192 H   0  0  0  0  0  0  0  0  0  0  0  0  # atno 8009 bound_to 7997
  155.6772  140.3473  155.4843 H   0  0  0  0  0  0  0  0  0  0  0  0  # atno 8010 bound_to 7997
  139.4979  144.3762  151.9671 H   0  0  0  0  0  0  0  0  0  0  0  0  # atno 10167 bound_to 10162
  157.1601  131.0585  151.2236 H   0  0  0  0  0  0  0  0  0  0  0  0  # atno 10718 bound_to 10713
  154.8086  135.3271  154.7365 H   0  0  0  0  0  0  0  0  0  0  0  0  # atno 10763 bound_to 10752
  153.8019  135.6903  153.4859 H   0  0  0  0  0  0  0  0  0  0  0  0  # atno 10764 bound_to 10752
  153.1849  135.4573  155.0021 H   0  0  0  0  0  0  0  0  0  0  0  0  # atno 10765 bound_to 10752
  141.0621  133.9518  157.2647 H   0  0  0  0  0  0  0  0  0  0  0  0  # atno 11005 bound_to 11000
  145.7466  140.9988  143.1273 LP  0  0  0  0  0  0  0  0  0  0  0  0  # atno 17320 bound_to 7965
  144.6924  139.9163  143.7466 LP  0  0  0  0  0  0  0  0  0  0  0  0  # atno 17321 bound_to 7965
  140.3198  144.3441  150.6012 LP  0  0  0  0  0  0  0  0  0  0  0  0  # atno 17342 bound_to 10162
  140.5731  143.2179  151.7563 LP  0  0  0  0  0  0  0  0  0  0  0  0  # atno 17343 bound_to 10162
  157.4140  130.7401  149.6861 LP  0  0  0  0  0  0  0  0  0  0  0  0  # atno 17370 bound_to 10713
  155.9755  130.4088  150.3844 LP  0  0  0  0  0  0  0  0  0  0  0  0  # atno 17371 bound_to 10713
  139.9442  135.0186  156.8802 LP  0  0  0  0  0  0  0  0  0  0  0  0  # atno 17394 bound_to 11000
  140.5847  134.0318  155.7477 LP  0  0  0  0  0  0  0  0  0  0  0  0  # atno 17395 bound_to 11000

$$$$
