AV-unprocessed.smi:3192|AV-procd|sdf|12200|dock4
  -GOLD-   2272018 33D 1   1.00000     0.00000
 Structure written by MMmdl.
 34 35  0  0  0  0  0  0  0  0  1 V2000
  150.3214  135.3348  155.6440 C   0  0  0  0  0  0  0  0  0  0  0  0
  151.4770  136.1283  155.4409 O   0  0  0  0  0  0  0  0  0  0  0  0
  151.2506  137.5002  155.7190 C   0  0  0  0  0  0  0  0  0  0  0  0
  152.5564  138.2732  155.5145 C   0  0  0  0  0  0  0  0  0  0  0  0
  152.4134  139.5666  156.0932 O   0  0  0  0  0  0  0  0  0  0  0  0
  151.2673  140.2916  155.8281 C   0  0  0  0  0  0  0  0  0  0  0  0
  150.5602  139.9942  154.7087 N   0  0  0  0  0  0  0  0  0  0  0  0
  149.4418  140.7013  154.4483 C   0  0  0  0  0  0  0  0  0  0  0  0
  148.9708  141.7320  155.2819 C   0  0  0  0  0  0  0  0  0  0  0  0
  149.7022  142.0400  156.4436 C   0  0  0  0  0  0  0  0  0  0  0  0
  150.8795  141.3096  156.7314 C   0  0  0  0  0  0  0  0  0  0  0  0
  151.6673  141.5516  157.8675 N   0  0  0  0  0  0  0  0  0  0  0  0
  151.5399  142.7824  158.6338 C   0  0  0  0  0  0  0  0  0  0  0  0
  151.9836  144.0560  157.9002 C   0  0  0  0  0  0  0  0  0  0  0  0
  152.5938  144.5147  159.2305 C   0  0  0  0  0  0  0  0  0  0  0  0
  152.6915  143.0331  159.6147 C   0  0  0  0  0  0  0  0  0  0  0  0
  150.5492  134.2925  155.4213 H   0  0  0  0  0  0  0  0  0  0  0  0
  149.5065  135.6487  154.9903 H   0  0  0  0  0  0  0  0  0  0  0  0
  149.9823  135.3912  156.6792 H   0  0  0  0  0  0  0  0  0  0  0  0
  150.4893  137.8831  155.0380 H   0  0  0  0  0  0  0  0  0  0  0  0
  150.8804  137.6388  156.7362 H   0  0  0  0  0  0  0  0  0  0  0  0
  153.3902  137.7270  155.9589 H   0  0  0  0  0  0  0  0  0  0  0  0
  152.7506  138.3740  154.4453 H   0  0  0  0  0  0  0  0  0  0  0  0
  148.9060  140.4374  153.5487 H   0  0  0  0  0  0  0  0  0  0  0  0
  148.0692  142.2732  155.0361 H   0  0  0  0  0  0  0  0  0  0  0  0
  149.3501  142.8278  157.0925 H   0  0  0  0  0  0  0  0  0  0  0  0
  152.3994  140.8994  158.1114 H   0  0  0  0  0  0  0  0  0  0  0  0
  150.5681  142.8905  159.1187 H   0  0  0  0  0  0  0  0  0  0  0  0
  152.7385  143.8767  157.1319 H   0  0  0  0  0  0  0  0  0  0  0  0
  151.1692  144.6795  157.5303 H   0  0  0  0  0  0  0  0  0  0  0  0
  153.5513  145.0287  159.1421 H   0  0  0  0  0  0  0  0  0  0  0  0
  151.8903  145.0702  159.8529 H   0  0  0  0  0  0  0  0  0  0  0  0
  152.4610  142.8121  160.6572 H   0  0  0  0  0  0  0  0  0  0  0  0
  153.6366  142.5833  159.3042 H   0  0  0  0  0  0  0  0  0  0  0  0
  1  2  1  0  0  0  0
  1 17  1  0  0  0  0
  1 18  1  0  0  0  0
  1 19  1  0  0  0  0
  2  3  1  0  0  0  0
  3  4  1  0  0  0  0
  3 20  1  0  0  0  0
  3 21  1  0  0  0  0
  4  5  1  0  0  0  0
  4 22  1  0  0  0  0
  4 23  1  0  0  0  0
  5  6  1  0  0  0  0
  6 11  1  0  0  0  0
  6  7  2  0  0  0  0
  7  8  1  0  0  0  0
  8  9  2  0  0  0  0
  8 24  1  0  0  0  0
  9 10  1  0  0  0  0
  9 25  1  0  0  0  0
 10 11  2  0  0  0  0
 10 26  1  0  0  0  0
 11 12  1  0  0  0  0
 12 13  1  0  0  0  0
 12 27  1  0  0  0  0
 13 16  1  0  0  0  0
 13 14  1  0  0  0  0
 13 28  1  0  0  0  0
 14 15  1  0  0  0  0
 14 29  1  0  0  0  0
 14 30  1  0  0  0  0
 15 16  1  0  0  0  0
 15 31  1  0  0  0  0
 15 32  1  0  0  0  0
 16 33  1  0  0  0  0
 16 34  1  0  0  0  0
M  END
> <s_m_source_file>
AV-unprocessed.smi

> <i_m_source_file_index>
3192

> <i_lp_mmshare_version>
43012

> <i_f3d_flags>
0

> <s_epik_input>
W0NIM11PW0NIMl1bQ0gyXU9jMW5bY0hdW2NIXVtjSF1jMVtOSF1bQ0hdMltDSDJdW0NIMl1bQ0gyXTI=

> <s_epik_cmdline>
J2VwaWtfcHl0aG9uJywgJy1waCcsICc3LjAnLCAnLXRuJywgJzgnLCAnLW1hJywgJzIwMCcsICctbWV0YWxfYmluZGluZycsICctaW1hZScsICc8aW5maWxlLm1hZT4nLCAnLW9tYWUnLCAnPG91dGZpbGUubWFlPic=

> <r_lp_tautomer_probability>
1

> <r_epik_Ionization_Penalty>
0.000851536

> <r_epik_Ionization_Penalty_Charging>
0

> <r_epik_Ionization_Penalty_Neutral>
0.000851536

> <r_epik_State_Penalty>
0.000481084

> <r_epik_Charging_Adjusted_Penalty>
0.000481084

> <i_epik_Tot_Q>
0

> <i_epik_Tot_abs_Q>
0

> <r_epik_Metal_State_Penalty>
-0

> <b_epik_Metal_Only>
0

> <s_lp_Force_Field>
OPLS_2005

> <r_lp_Energy>
16.6159

> <b_lp_Chiralities_Consistent>
1

> <s_lp_Variant>
AV-unprocessed.smi:3192-1

> <Gold.Version>
5.8.1

> <Gold.Id.Protein>
6NUR|6NUR_protein|mol2

> <Gold.PLP.Fitness>
45.1641

> <Gold.PLP.PLP>
-34.5324

> <Gold.PLP.part.hbond>
-3.0000

> <Gold.PLP.part.metal>
0.0000

> <Gold.PLP.part.buried>
-0.1273

> <Gold.PLP.part.nonpolar>
-31.7956

> <Gold.PLP.part.repulsive>
0.2507

> <Gold.PLP.ligand.clash>
0.0000

> <Gold.PLP.ligand.torsion>
0.5852

> <Gold.PLP.Chemscore.Hbond>
2.8500

> <Gold.PLP.Chemscore.CHOScore>
1.0000

> <Gold.PLP.Chemscore.Metal>
0.0000

> <Gold.Chemscore.Hbonds>
donor molecule, donor type, donor heavy atom, donor atom, acceptor molecule, acceptor atom, score
      P1  H  7989  7998       L1     7  0.72
      P1  H  7997  8008       L1     5  1.00
      P1  H 10752 10764       L1     2  1.00
      L1  C     8    24       P1  7957  1.00

> <Gold.PLP.Chemscore.Internal.Correction>
0.2521

> <Gold.Rescore>
     Score         DG    S(hbond)    S(metal)    S(lipo)     H(rot)  DE(clash)    DE(int)     intcor
     15.22     -16.85       1.42        0.00      92.45       1.64       0.17       1.45       ----

> <Gold.Chemscore.Fitness>
15.2176

> <Gold.Chemscore.DG>
-16.8459

> <Gold.Chemscore.ZeroCoef>
-5.4800

> <Gold.Chemscore.Hbond>
1.4238

> <Gold.Chemscore.Metal>
0.0000

> <Gold.Chemscore.Lipo>
92.4462

> <Gold.Chemscore.Internal_Hbond>
0.0000

> <Gold.Chemscore.DEClash>
0.1736

> <Gold.Chemscore.DEInternal>
1.4547

> <Gold.Chemscore.Rot>
1.6430

> <Gold.Chemscore.Internal.Correction>
   9.000000E+99

> <Gold.Chemscore.Hbonds>
donor molecule, donor type, donor heavy atom, donor atom, acceptor molecule, acceptor atom, score
      P1  H  7989  7998       L1     7  0.02
      P1  H  7997  8008       L1     5  0.33
      P1  H 10752 10764       L1     2  0.99

> <Gold.Chemscore.Hbond.Weighted>
-4.7556

> <Gold.Chemscore.Metal.Weighted>
-0.0000

> <Gold.Chemscore.Lipo.Weighted>
-10.8162

> <Gold.Chemscore.Internal_Hbond.Weighted>
0.0000

> <Gold.Chemscore.DEClash.Weighted>
0.1736

> <Gold.Chemscore.DEInternal.Weighted>
1.4547

> <Gold.Chemscore.Rot.Weighted>
4.2060

> <Gold.Chemscore.Internal.Correction.Weighted>
   9.000000E+99

> <Gold.Protein.RotatedTorsions>
[ 6907 6896 6895 6894 ] final -158.07 input  -60.11 | X-H torsion
[ 7974 7965 7964 7962 ] final  139.15 input  175.53 | X-H torsion
[ 8008 7997 7996 7995 ] final  -45.19 input   59.86 | X-H torsion
[ 10167 10162 10161 10158 ] final -159.23 input  -65.29 | X-H torsion
[ 10718 10713 10712 10709 ] final  -60.55 input   66.30 | X-H torsion
[ 10763 10752 10751 10750 ] final  -51.41 input  -60.55 | X-H torsion
[ 11005 11000 10999 10996 ] final   96.20 input  -57.11 | X-H torsion

> <Gold.Protein.ActiveResidues>
 VAL166  LYS551  ARG553  GLY616  TRP617  ASP618  TYR619  PRO620  LYS621  CYS622 
 ASP623  PHE694  ASN695  SER759  ASP760  ASP761  ALA762  ILE779  LEU786  VAL792 
 PHE793  MET794  SER795  GLU796  ALA797  LYS798  CYS799  TRP800  GLU811  SER814 

> <Gold.Protein.RotatedAtoms>
  151.3125  133.4074  159.2647 H   0  0  0  0  0  0  0  0  0  0  0  0  # atno 6907 bound_to 6896
  151.0102  134.9391  159.8013 H   0  0  0  0  0  0  0  0  0  0  0  0  # atno 6908 bound_to 6896
  152.5298  134.3090  159.9159 H   0  0  0  0  0  0  0  0  0  0  0  0  # atno 6909 bound_to 6896
  144.9306  139.5052  143.5619 H   0  0  0  0  0  0  0  0  0  0  0  0  # atno 7974 bound_to 7965
  154.4000  140.1403  156.3807 H   0  0  0  0  0  0  0  0  0  0  0  0  # atno 8008 bound_to 7997
  155.8007  140.3476  155.5380 H   0  0  0  0  0  0  0  0  0  0  0  0  # atno 8009 bound_to 7997
  155.8487  140.0938  157.1679 H   0  0  0  0  0  0  0  0  0  0  0  0  # atno 8010 bound_to 7997
  139.6631  143.9877  152.2238 H   0  0  0  0  0  0  0  0  0  0  0  0  # atno 10167 bound_to 10162
  156.0983  130.4190  150.0870 H   0  0  0  0  0  0  0  0  0  0  0  0  # atno 10718 bound_to 10713
  154.1261  135.6527  153.4912 H   0  0  0  0  0  0  0  0  0  0  0  0  # atno 10763 bound_to 10752
  153.0210  135.5281  154.7048 H   0  0  0  0  0  0  0  0  0  0  0  0  # atno 10764 bound_to 10752
  154.6270  135.2971  155.0231 H   0  0  0  0  0  0  0  0  0  0  0  0  # atno 10765 bound_to 10752
  139.8783  134.8938  156.4124 H   0  0  0  0  0  0  0  0  0  0  0  0  # atno 11005 bound_to 11000
  146.3245  139.8253  142.8919 LP  0  0  0  0  0  0  0  0  0  0  0  0  # atno 17320 bound_to 7965
  145.3148  141.0229  143.3534 LP  0  0  0  0  0  0  0  0  0  0  0  0  # atno 17321 bound_to 7965
  139.9622  144.6550  150.8069 LP  0  0  0  0  0  0  0  0  0  0  0  0  # atno 17342 bound_to 10162
  140.7588  143.3115  151.2833 LP  0  0  0  0  0  0  0  0  0  0  0  0  # atno 17343 bound_to 10162
  156.8863  130.9573  151.3593 LP  0  0  0  0  0  0  0  0  0  0  0  0  # atno 17370 bound_to 10713
  157.6148  130.8610  149.9010 LP  0  0  0  0  0  0  0  0  0  0  0  0  # atno 17371 bound_to 10713
  140.9191  133.7657  155.9885 LP  0  0  0  0  0  0  0  0  0  0  0  0  # atno 17394 bound_to 11000
  140.8460  134.3011  157.5295 LP  0  0  0  0  0  0  0  0  0  0  0  0  # atno 17395 bound_to 11000

$$$$
