AV-unprocessed.smi:669|AV-procd|sdf|3264|dock5
  -GOLD-   22720 0213D 1   1.00000     0.00000
 Structure written by MMmdl.
 37 38  0  0  0  0  0  0  0  0  1 V2000
  151.5025  144.6402  159.8358 C   0  0  0  0  0  0  0  0  0  0  0  0
  152.0826  143.2820  159.5732 C   0  0  0  0  0  0  0  0  0  0  0  0
  153.0334  142.6460  160.4641 C   0  0  0  0  0  0  0  0  0  0  0  0
  153.5218  141.4274  160.1488 C   0  0  0  0  0  0  0  0  0  0  0  0
  153.1128  140.7254  158.9341 C   0  0  0  0  0  0  0  0  0  0  0  0
  153.5622  139.6265  158.6106 O   0  0  0  0  0  0  0  0  0  0  0  0
  152.1898  141.4045  158.1911 N   0  0  0  0  0  0  0  0  0  0  0  0
  151.6460  140.8376  156.9463 C   0  0  0  0  0  0  0  0  0  0  0  0
  150.3616  141.5410  156.4174 C   0  0  1  0  0  0  0  0  0  0  0  0
  150.6746  142.9102  156.2351 O   0  0  0  0  0  0  0  0  0  0  0  0
  149.8285  140.9575  155.0839 C   0  0  0  0  0  0  0  0  0  0  0  0
  148.4853  141.5690  154.6475 C   0  0  0  0  0  0  0  0  0  0  0  0
  147.4169  141.4468  155.7473 C   0  0  2  0  0  0  0  0  0  0  0  0
  146.0774  142.0499  155.3007 C   0  0  0  0  0  0  0  0  0  0  0  0
  147.9223  142.0953  157.0475 C   0  0  0  0  0  0  0  0  0  0  0  0
  149.2596  141.4833  157.5029 C   0  0  0  0  0  0  0  0  0  0  0  0
  151.7064  142.6670  158.5005 N   0  0  0  0  0  0  0  0  0  0  0  0
  151.9135  145.0752  160.7472 H   0  0  0  0  0  0  0  0  0  0  0  0
  150.4197  144.5839  159.9517 H   0  0  0  0  0  0  0  0  0  0  0  0
  151.7206  145.3219  159.0132 H   0  0  0  0  0  0  0  0  0  0  0  0
  153.3458  143.1504  161.3667 H   0  0  0  0  0  0  0  0  0  0  0  0
  154.2326  140.9560  160.8112 H   0  0  0  0  0  0  0  0  0  0  0  0
  152.4251  140.9150  156.1854 H   0  0  0  0  0  0  0  0  0  0  0  0
  151.4805  139.7632  157.0491 H   0  0  0  0  0  0  0  0  0  0  0  0
  149.8978  143.3576  155.9368 H   0  0  0  0  0  0  0  0  0  0  0  0
  150.5564  141.1000  154.2844 H   0  0  0  0  0  0  0  0  0  0  0  0
  149.7008  139.8797  155.1912 H   0  0  0  0  0  0  0  0  0  0  0  0
  148.6279  142.6180  154.3845 H   0  0  0  0  0  0  0  0  0  0  0  0
  148.1416  141.0716  153.7399 H   0  0  0  0  0  0  0  0  0  0  0  0
  147.2512  140.3859  155.9408 H   0  0  0  0  0  0  0  0  0  0  0  0
  146.1723  143.1150  155.0871 H   0  0  0  0  0  0  0  0  0  0  0  0
  145.3168  141.9318  156.0728 H   0  0  0  0  0  0  0  0  0  0  0  0
  145.7084  141.5613  154.3984 H   0  0  0  0  0  0  0  0  0  0  0  0
  148.0359  143.1709  156.9062 H   0  0  0  0  0  0  0  0  0  0  0  0
  147.1805  141.9696  157.8369 H   0  0  0  0  0  0  0  0  0  0  0  0
  149.0811  140.4432  157.7794 H   0  0  0  0  0  0  0  0  0  0  0  0
  149.5991  141.9809  158.4127 H   0  0  0  0  0  0  0  0  0  0  0  0
  1  2  1  0  0  0  0
  1 18  1  0  0  0  0
  1 19  1  0  0  0  0
  1 20  1  0  0  0  0
  2 17  2  0  0  0  0
  2  3  1  0  0  0  0
  3  4  2  0  0  0  0
  3 21  1  0  0  0  0
  4  5  1  0  0  0  0
  4 22  1  0  0  0  0
  5  6  2  0  0  0  0
  5  7  1  0  0  0  0
  7  8  1  0  0  0  0
  7 17  1  0  0  0  0
  8  9  1  0  0  0  0
  8 23  1  0  0  0  0
  8 24  1  0  0  0  0
  9 16  1  0  0  0  0
  9 10  1  0  0  0  0
  9 11  1  0  0  0  0
 10 25  1  0  0  0  0
 11 12  1  0  0  0  0
 11 26  1  0  0  0  0
 11 27  1  0  0  0  0
 12 13  1  0  0  0  0
 12 28  1  0  0  0  0
 12 29  1  0  0  0  0
 13 14  1  0  0  0  0
 13 15  1  0  0  0  0
 13 30  1  0  0  0  0
 14 31  1  0  0  0  0
 14 32  1  0  0  0  0
 14 33  1  0  0  0  0
 15 16  1  0  0  0  0
 15 34  1  0  0  0  0
 15 35  1  0  0  0  0
 16 36  1  0  0  0  0
 16 37  1  0  0  0  0
M  END
> <s_m_source_file>
AV-unprocessed.smi

> <i_m_source_file_index>
669

> <i_lp_mmshare_version>
43012

> <i_f3d_flags>
0

> <s_epik_input>
W0NIM11jMVtjSF1bY0hdYyg9TyluKG4xKVtDSDJdW0NAQF0yKFtPSF0pW0NIMl1bQ0gyXVtDQEBIXShbQ0gzXSlbQ0gyXVtDSDJdMg==

> <s_epik_cmdline>
J2VwaWtfcHl0aG9uJywgJy1waCcsICc3LjAnLCAnLXRuJywgJzgnLCAnLW1hJywgJzIwMCcsICctbWV0YWxfYmluZGluZycsICctaW1hZScsICc8aW5maWxlLm1hZT4nLCAnLW9tYWUnLCAnPG91dGZpbGUubWFlPic=

> <r_lp_tautomer_probability>
1

> <r_epik_Ionization_Penalty>
1.6993e-05

> <r_epik_Ionization_Penalty_Charging>
1.61671e-05

> <r_epik_Ionization_Penalty_Neutral>
8.25878e-07

> <r_epik_State_Penalty>
-0

> <r_epik_Charging_Adjusted_Penalty>
1.61671e-05

> <i_epik_Tot_Q>
0

> <i_epik_Tot_abs_Q>
0

> <r_epik_Metal_State_Penalty>
-0

> <b_epik_Metal_Only>
0

> <s_lp_Force_Field>
OPLS_2005

> <r_lp_Energy>
31.8512

> <b_lp_Chiralities_Consistent>
1

> <s_lp_Variant>
AV-unprocessed.smi:669-2

> <Gold.Version>
5.8.1

> <Gold.Id.Protein>
6NUR|6NUR_protein|mol2

> <Gold.PLP.Fitness>
41.5799

> <Gold.PLP.PLP>
-35.9819

> <Gold.PLP.part.hbond>
-2.0000

> <Gold.PLP.part.metal>
0.0000

> <Gold.PLP.part.buried>
-2.7580

> <Gold.PLP.part.nonpolar>
-29.7281

> <Gold.PLP.part.repulsive>
0.0258

> <Gold.PLP.ligand.clash>
0.0000

> <Gold.PLP.ligand.torsion>
0.2049

> <Gold.PLP.Chemscore.Hbond>
2.0000

> <Gold.PLP.Chemscore.CHOScore>
0.0000

> <Gold.PLP.Chemscore.Metal>
0.0000

> <Gold.Chemscore.Hbonds>
donor molecule, donor type, donor heavy atom, donor atom, acceptor molecule, acceptor atom, score
      L1  H    10    25       P1  8028  1.00
      P1  H  7997  8008       L1     6  1.00

> <Gold.PLP.Chemscore.Internal.Correction>
0.0077

> <Gold.Rescore>
     Score         DG    S(hbond)    S(metal)    S(lipo)     H(rot)  DE(clash)    DE(int)     intcor
     14.14     -17.34       1.88        0.00      83.13       1.62       0.01       3.20       ----

> <Gold.Chemscore.Fitness>
14.1355

> <Gold.Chemscore.DG>
-17.3428

> <Gold.Chemscore.ZeroCoef>
-5.4800

> <Gold.Chemscore.Hbond>
1.8788

> <Gold.Chemscore.Metal>
0.0000

> <Gold.Chemscore.Lipo>
83.1337

> <Gold.Chemscore.Internal_Hbond>
0.0000

> <Gold.Chemscore.DEClash>
0.0086

> <Gold.Chemscore.DEInternal>
3.1988

> <Gold.Chemscore.Rot>
1.6168

> <Gold.Chemscore.Internal.Correction>
   9.000000E+99

> <Gold.Chemscore.Hbonds>
donor molecule, donor type, donor heavy atom, donor atom, acceptor molecule, acceptor atom, score
      L1  H    10    25       P1  8028  0.98
      P1  H  7997  8008       L1     6  0.45

> <Gold.Chemscore.Hbond.Weighted>
-6.2753

> <Gold.Chemscore.Metal.Weighted>
-0.0000

> <Gold.Chemscore.Lipo.Weighted>
-9.7266

> <Gold.Chemscore.Internal_Hbond.Weighted>
0.0000

> <Gold.Chemscore.DEClash.Weighted>
0.0086

> <Gold.Chemscore.DEInternal.Weighted>
3.1988

> <Gold.Chemscore.Rot.Weighted>
4.1391

> <Gold.Chemscore.Internal.Correction.Weighted>
   9.000000E+99

> <Gold.Protein.RotatedTorsions>
[ 6907 6896 6895 6894 ] final   -9.62 input  -60.11 | X-H torsion
[ 7974 7965 7964 7962 ] final  103.80 input  175.53 | X-H torsion
[ 8008 7997 7996 7995 ] final  -97.72 input   59.86 | X-H torsion
[ 10167 10162 10161 10158 ] final   84.02 input  -65.29 | X-H torsion
[ 10718 10713 10712 10709 ] final   71.28 input   66.30 | X-H torsion
[ 10763 10752 10751 10750 ] final   -5.83 input  -60.55 | X-H torsion
[ 11005 11000 10999 10996 ] final  155.24 input  -57.11 | X-H torsion

> <Gold.Protein.ActiveResidues>
 VAL166  LYS551  ARG553  GLY616  TRP617  ASP618  TYR619  PRO620  LYS621  CYS622 
 ASP623  PHE694  ASN695  SER759  ASP760  ASP761  ALA762  ILE779  LEU786  VAL792 
 PHE793  MET794  SER795  GLU796  ALA797  LYS798  CYS799  TRP800  GLU811  SER814 

> <Gold.Protein.RotatedAtoms>
  151.4149  135.0990  159.9596 H   0  0  0  0  0  0  0  0  0  0  0  0  # atno 6907 bound_to 6896
  152.5008  133.8762  159.7334 H   0  0  0  0  0  0  0  0  0  0  0  0  # atno 6908 bound_to 6896
  150.9265  133.6760  159.2848 H   0  0  0  0  0  0  0  0  0  0  0  0  # atno 6909 bound_to 6896
  145.3411  139.2462  143.3609 H   0  0  0  0  0  0  0  0  0  0  0  0  # atno 7974 bound_to 7965
  154.7916  140.0461  157.1205 H   0  0  0  0  0  0  0  0  0  0  0  0  # atno 8008 bound_to 7997
  154.9584  140.3074  155.5022 H   0  0  0  0  0  0  0  0  0  0  0  0  # atno 8009 bound_to 7997
  156.2950  140.2275  156.4668 H   0  0  0  0  0  0  0  0  0  0  0  0  # atno 8010 bound_to 7997
  139.9123  144.6264  150.8525 H   0  0  0  0  0  0  0  0  0  0  0  0  # atno 10167 bound_to 10162
  157.6443  130.9520  150.0767 H   0  0  0  0  0  0  0  0  0  0  0  0  # atno 10718 bound_to 10713
  153.4040  135.7006  153.6406 H   0  0  0  0  0  0  0  0  0  0  0  0  # atno 10763 bound_to 10752
  153.4928  135.3669  155.2501 H   0  0  0  0  0  0  0  0  0  0  0  0  # atno 10764 bound_to 10752
  154.8712  135.4093  154.3379 H   0  0  0  0  0  0  0  0  0  0  0  0  # atno 10765 bound_to 10752
  140.1563  134.8640  157.2518 H   0  0  0  0  0  0  0  0  0  0  0  0  # atno 11005 bound_to 11000
  146.3007  140.4009  142.8705 LP  0  0  0  0  0  0  0  0  0  0  0  0  # atno 17320 bound_to 7965
  144.8789  140.7374  143.5999 LP  0  0  0  0  0  0  0  0  0  0  0  0  # atno 17321 bound_to 7965
  140.7682  143.3357  151.2315 LP  0  0  0  0  0  0  0  0  0  0  0  0  # atno 17342 bound_to 10162
  139.6932  143.9657  152.2869 LP  0  0  0  0  0  0  0  0  0  0  0  0  # atno 17343 bound_to 10162
  156.1755  130.3648  149.9106 LP  0  0  0  0  0  0  0  0  0  0  0  0  # atno 17370 bound_to 10713
  156.7071  130.8955  151.3605 LP  0  0  0  0  0  0  0  0  0  0  0  0  # atno 17371 bound_to 10713
  140.2544  134.3645  155.7430 LP  0  0  0  0  0  0  0  0  0  0  0  0  # atno 17394 bound_to 11000
  141.2205  133.7334  156.8984 LP  0  0  0  0  0  0  0  0  0  0  0  0  # atno 17395 bound_to 11000

$$$$
