AV-unprocessed.smi:266|AV-procd|sdf|2038|dock4
  -GOLD-   2262021253D 1   1.00000     0.00000
 Structure written by MMmdl.
 52 55  0  0  0  0  0  0  0  0  1 V2000
  153.1069  141.6615  159.7652 C   0  0  0  0  0  0  0  0  0  0  0  0
  151.8508  142.5019  159.4881 C   0  0  1  0  0  0  0  0  0  0  0  0
  152.1149  143.8239  159.9536 O   0  0  0  0  0  0  0  0  0  0  0  0
  151.4384  144.7527  159.1249 C   0  0  0  0  0  0  0  0  0  0  0  0
  151.6108  144.1455  157.7413 C   0  0  0  0  0  0  0  0  0  0  0  0
  151.4260  142.6532  157.9998 C   0  0  2  0  0  0  0  0  0  0  0  0
  150.0383  142.3703  157.9184 O   0  0  0  0  0  0  0  0  0  0  0  0
  152.1541  141.7449  156.9737 C   0  0  0  0  0  0  0  0  0  0  0  0
  151.7846  140.3416  157.0845 N   0  0  0  0  0  0  0  0  0  0  0  0
  151.3480  139.6875  158.2154 C   0  0  0  0  0  0  0  0  0  0  0  0
  151.0633  138.4237  158.0541 N   0  0  0  0  0  0  0  0  0  0  0  0
  151.3339  138.1873  156.7121 C   0  0  0  0  0  0  0  0  0  0  0  0
  151.2414  137.0485  155.8650 C   0  0  0  0  0  0  0  0  0  0  0  0
  150.8034  135.8374  156.2626 N   0  0  0  0  0  0  0  0  0  0  0  0
  149.9081  135.8926  157.4106 C   0  0  0  0  0  0  0  0  0  0  0  0
  150.4262  134.9706  155.1503 C   0  0  0  0  0  0  0  0  0  0  0  0
  150.0653  133.5490  155.6128 C   0  0  1  0  0  0  0  0  0  0  0  0
  149.8141  132.6004  154.4249 C   0  0  0  0  0  0  0  0  0  0  0  0
  149.7574  131.1628  154.9503 C   0  0  0  0  0  0  0  0  0  0  0  0
  150.9564  131.0989  156.3327 S   0  0  0  0  0  0  0  0  0  0  0  0
  150.2829  130.5686  157.5277 O   0  0  0  0  0  0  0  0  0  0  0  0
  152.2225  130.5209  155.8572 O   0  0  0  0  0  0  0  0  0  0  0  0
  151.1552  132.9141  156.4939 C   0  0  0  0  0  0  0  0  0  0  0  0
  151.5963  137.1864  154.5646 N   0  0  0  0  0  0  0  0  0  0  0  0
  152.0223  138.3703  154.1137 C   0  0  0  0  0  0  0  0  0  0  0  0
  152.1588  139.5183  154.7815 N   0  0  0  0  0  0  0  0  0  0  0  0
  151.7963  139.3798  156.0895 C   0  0  0  0  0  0  0  0  0  0  0  0
  152.9759  140.6290  159.4416 H   0  0  0  0  0  0  0  0  0  0  0  0
  153.3278  141.6425  160.8325 H   0  0  0  0  0  0  0  0  0  0  0  0
  153.9817  142.0714  159.2596 H   0  0  0  0  0  0  0  0  0  0  0  0
  151.0286  142.0971  160.0813 H   0  0  0  0  0  0  0  0  0  0  0  0
  150.3853  144.8014  159.4061 H   0  0  0  0  0  0  0  0  0  0  0  0
  151.8667  145.7519  159.2051 H   0  0  0  0  0  0  0  0  0  0  0  0
  150.9220  144.5553  157.0011 H   0  0  0  0  0  0  0  0  0  0  0  0
  152.6263  144.3442  157.3972 H   0  0  0  0  0  0  0  0  0  0  0  0
  149.6002  142.8126  158.6292 H   0  0  0  0  0  0  0  0  0  0  0  0
  151.9310  142.0623  155.9550 H   0  0  0  0  0  0  0  0  0  0  0  0
  153.2357  141.8243  157.0910 H   0  0  0  0  0  0  0  0  0  0  0  0
  151.2369  140.1837  159.1687 H   0  0  0  0  0  0  0  0  0  0  0  0
  150.2006  136.6828  158.1039 H   0  0  0  0  0  0  0  0  0  0  0  0
  149.9339  134.9494  157.9554 H   0  0  0  0  0  0  0  0  0  0  0  0
  148.8808  136.0770  157.0945 H   0  0  0  0  0  0  0  0  0  0  0  0
  149.5745  135.4151  154.6336 H   0  0  0  0  0  0  0  0  0  0  0  0
  151.2356  134.9189  154.4196 H   0  0  0  0  0  0  0  0  0  0  0  0
  149.1423  133.5826  156.1930 H   0  0  0  0  0  0  0  0  0  0  0  0
  148.9047  132.8627  153.8837 H   0  0  0  0  0  0  0  0  0  0  0  0
  150.6403  132.6839  153.7178 H   0  0  0  0  0  0  0  0  0  0  0  0
  148.7690  130.9353  155.3499 H   0  0  0  0  0  0  0  0  0  0  0  0
  150.0100  130.4190  154.1944 H   0  0  0  0  0  0  0  0  0  0  0  0
  152.1518  133.1732  156.1348 H   0  0  0  0  0  0  0  0  0  0  0  0
  151.0793  133.2093  157.5404 H   0  0  0  0  0  0  0  0  0  0  0  0
  152.2884  138.4034  153.0675 H   0  0  0  0  0  0  0  0  0  0  0  0
  1  2  1  0  0  0  0
  1 28  1  0  0  0  0
  1 29  1  0  0  0  0
  1 30  1  0  0  0  0
  2  6  1  0  0  0  0
  2  3  1  0  0  0  0
  2 31  1  0  0  0  0
  3  4  1  0  0  0  0
  4  5  1  0  0  0  0
  4 32  1  0  0  0  0
  4 33  1  0  0  0  0
  5  6  1  0  0  0  0
  5 34  1  0  0  0  0
  5 35  1  0  0  0  0
  6  7  1  0  0  0  0
  6  8  1  0  0  0  0
  7 36  1  0  0  0  0
  8  9  1  0  0  0  0
  8 37  1  0  0  0  0
  8 38  1  0  0  0  0
  9 27  1  0  0  0  0
  9 10  1  0  0  0  0
 10 11  2  0  0  0  0
 10 39  1  0  0  0  0
 11 12  1  0  0  0  0
 12 27  2  0  0  0  0
 12 13  1  0  0  0  0
 13 14  1  0  0  0  0
 13 24  2  0  0  0  0
 14 15  1  0  0  0  0
 14 16  1  0  0  0  0
 15 40  1  0  0  0  0
 15 41  1  0  0  0  0
 15 42  1  0  0  0  0
 16 17  1  0  0  0  0
 16 43  1  0  0  0  0
 16 44  1  0  0  0  0
 17 23  1  0  0  0  0
 17 18  1  0  0  0  0
 17 45  1  0  0  0  0
 18 19  1  0  0  0  0
 18 46  1  0  0  0  0
 18 47  1  0  0  0  0
 19 20  1  0  0  0  0
 19 48  1  0  0  0  0
 19 49  1  0  0  0  0
 20 21  2  0  0  0  0
 20 22  2  0  0  0  0
 20 23  1  0  0  0  0
 23 50  1  0  0  0  0
 23 51  1  0  0  0  0
 24 25  1  0  0  0  0
 25 26  2  0  0  0  0
 25 52  1  0  0  0  0
 26 27  1  0  0  0  0
M  END
> <s_m_source_file>
AV-unprocessed.smi

> <i_m_source_file_index>
266

> <i_lp_mmshare_version>
43012

> <i_f3d_flags>
0

> <s_epik_input>
W0NIMl0xW0NIMl1PW0NAQEhdKFtDSDNdKVtDQEBdMShbT0hdKVtDSDJdbihbY0hdbjIpYyhjMjMpbltjSF1uYzNOKFtDSDNdKVtDSDJdW0NAQEhdKFtDSDJdNClbQ0gyXVtDSDJdUzQoPU8pPU8=

> <s_epik_cmdline>
J2VwaWtfcHl0aG9uJywgJy1waCcsICc3LjAnLCAnLXRuJywgJzgnLCAnLW1hJywgJzIwMCcsICctbWV0YWxfYmluZGluZycsICctaW1hZScsICc8aW5maWxlLm1hZT4nLCAnLW9tYWUnLCAnPG91dGZpbGUubWFlPic=

> <r_lp_tautomer_probability>
1

> <r_epik_Ionization_Penalty>
0.00155497

> <r_epik_Ionization_Penalty_Charging>
0

> <r_epik_Ionization_Penalty_Neutral>
0.00155497

> <r_epik_State_Penalty>
-0

> <r_epik_Charging_Adjusted_Penalty>
0

> <i_epik_Tot_Q>
0

> <i_epik_Tot_abs_Q>
0

> <r_epik_Metal_State_Penalty>
-0

> <b_epik_Metal_Only>
0

> <s_lp_Force_Field>
OPLS_2005

> <r_lp_Energy>
32.9828

> <b_lp_Chiralities_Consistent>
1

> <s_lp_Variant>
AV-unprocessed.smi:266-8

> <Gold.Version>
5.8.1

> <Gold.Id.Protein>
6NUR|6NUR_protein|mol2

> <Gold.PLP.Fitness>
43.1465

> <Gold.PLP.PLP>
-39.6547

> <Gold.PLP.part.hbond>
-2.0000

> <Gold.PLP.part.metal>
0.0000

> <Gold.PLP.part.buried>
-9.0345

> <Gold.PLP.part.nonpolar>
-28.6814

> <Gold.PLP.part.repulsive>
0.2436

> <Gold.PLP.ligand.clash>
0.0000

> <Gold.PLP.ligand.torsion>
1.0823

> <Gold.PLP.Chemscore.Hbond>
1.7420

> <Gold.PLP.Chemscore.CHOScore>
0.0000

> <Gold.PLP.Chemscore.Metal>
0.0000

> <Gold.Chemscore.Hbonds>
donor molecule, donor type, donor heavy atom, donor atom, acceptor molecule, acceptor atom, score
      P1  H  7989  7998       L1    26  0.83
      P1  H 10752 10763       L1    24  0.91

> <Gold.PLP.Chemscore.Internal.Correction>
0.4304

> <Gold.Rescore>
     Score         DG    S(hbond)    S(metal)    S(lipo)     H(rot)  DE(clash)    DE(int)     intcor
      7.76     -13.12       1.21        0.00      91.19       2.76       1.82       3.55       ----

> <Gold.Chemscore.Fitness>
7.7555

> <Gold.Chemscore.DG>
-13.1190

> <Gold.Chemscore.ZeroCoef>
-5.4800

> <Gold.Chemscore.Hbond>
1.2111

> <Gold.Chemscore.Metal>
0.0000

> <Gold.Chemscore.Lipo>
91.1885

> <Gold.Chemscore.Internal_Hbond>
0.0000

> <Gold.Chemscore.DEClash>
1.8157

> <Gold.Chemscore.DEInternal>
3.5478

> <Gold.Chemscore.Rot>
2.7637

> <Gold.Chemscore.Internal.Correction>
   9.000000E+99

> <Gold.Chemscore.Hbonds>
donor molecule, donor type, donor heavy atom, donor atom, acceptor molecule, acceptor atom, score
      P1  H  7989  7998       L1    26  0.37
      P1  H 10752 10763       L1    24  0.38

> <Gold.Chemscore.Hbond.Weighted>
-4.0450

> <Gold.Chemscore.Metal.Weighted>
-0.0000

> <Gold.Chemscore.Lipo.Weighted>
-10.6691

> <Gold.Chemscore.Internal_Hbond.Weighted>
0.0000

> <Gold.Chemscore.DEClash.Weighted>
1.8157

> <Gold.Chemscore.DEInternal.Weighted>
3.5478

> <Gold.Chemscore.Rot.Weighted>
7.0750

> <Gold.Chemscore.Internal.Correction.Weighted>
   9.000000E+99

> <Gold.Protein.RotatedTorsions>
[ 6907 6896 6895 6894 ] final  148.59 input  -60.11 | X-H torsion
[ 7974 7965 7964 7962 ] final  -99.53 input  175.53 | X-H torsion
[ 8008 7997 7996 7995 ] final  105.07 input   59.86 | X-H torsion
[ 10167 10162 10161 10158 ] final  130.45 input  -65.29 | X-H torsion
[ 10718 10713 10712 10709 ] final -147.26 input   66.30 | X-H torsion
[ 10763 10752 10751 10750 ] final   35.09 input  -60.55 | X-H torsion
[ 11005 11000 10999 10996 ] final   50.82 input  -57.11 | X-H torsion

> <Gold.Protein.ActiveResidues>
 VAL166  LYS551  ARG553  GLY616  TRP617  ASP618  TYR619  PRO620  LYS621  CYS622 
 ASP623  PHE694  ASN695  SER759  ASP760  ASP761  ALA762  ILE779  LEU786  VAL792 
 PHE793  MET794  SER795  GLU796  ALA797  LYS798  CYS799  TRP800  GLU811  SER814 

> <Gold.Protein.RotatedAtoms>
  152.1394  133.4454  159.4758 H   0  0  0  0  0  0  0  0  0  0  0  0  # atno 6907 bound_to 6896
  150.6884  134.2324  159.4449 H   0  0  0  0  0  0  0  0  0  0  0  0  # atno 6908 bound_to 6896
  152.0214  134.9820  160.0621 H   0  0  0  0  0  0  0  0  0  0  0  0  # atno 6909 bound_to 6896
  145.3064  140.9390  143.2794 H   0  0  0  0  0  0  0  0  0  0  0  0  # atno 7974 bound_to 7965
  156.1627  140.3137  155.8835 H   0  0  0  0  0  0  0  0  0  0  0  0  # atno 8008 bound_to 7997
  155.3749  140.0484  157.3062 H   0  0  0  0  0  0  0  0  0  0  0  0  # atno 8009 bound_to 7997
  154.5162  140.2182  155.9072 H   0  0  0  0  0  0  0  0  0  0  0  0  # atno 8010 bound_to 7997
  139.5429  144.6747  151.4565 H   0  0  0  0  0  0  0  0  0  0  0  0  # atno 10167 bound_to 10162
  156.4052  130.7954  151.2167 H   0  0  0  0  0  0  0  0  0  0  0  0  # atno 10718 bound_to 10713
  153.0135  135.6343  154.1771 H   0  0  0  0  0  0  0  0  0  0  0  0  # atno 10763 bound_to 10752
  154.1512  135.2829  155.3136 H   0  0  0  0  0  0  0  0  0  0  0  0  # atno 10764 bound_to 10752
  154.6052  135.5574  153.7476 H   0  0  0  0  0  0  0  0  0  0  0  0  # atno 10765 bound_to 10752
  140.0985  134.5113  155.8784 H   0  0  0  0  0  0  0  0  0  0  0  0  # atno 11005 bound_to 11000
  144.9051  139.4599  143.6614 LP  0  0  0  0  0  0  0  0  0  0  0  0  # atno 17320 bound_to 7965
  146.3133  139.7828  142.9002 LP  0  0  0  0  0  0  0  0  0  0  0  0  # atno 17321 bound_to 7965
  140.6667  143.8383  150.6950 LP  0  0  0  0  0  0  0  0  0  0  0  0  # atno 17342 bound_to 10162
  140.1794  143.4127  152.1944 LP  0  0  0  0  0  0  0  0  0  0  0  0  # atno 17343 bound_to 10162
  157.7505  131.0274  150.4005 LP  0  0  0  0  0  0  0  0  0  0  0  0  # atno 17370 bound_to 10713
  156.4293  130.3968  149.6771 LP  0  0  0  0  0  0  0  0  0  0  0  0  # atno 17371 bound_to 10713
  141.2099  133.6689  156.6471 LP  0  0  0  0  0  0  0  0  0  0  0  0  # atno 17394 bound_to 11000
  140.3253  134.7974  157.4284 LP  0  0  0  0  0  0  0  0  0  0  0  0  # atno 17395 bound_to 11000

$$$$
