AV-unprocessed.smi:249|AV-procd|sdf|1919|dock8
  -GOLD-   2262021 23D 1   1.00000     0.00000
 Structure written by MMmdl.
 64 67  0  0  0  0  0  0  0  0  2 V2000
  145.9608  128.5537  152.0372 C   0  0  0  0  0  0  0  0  0  0  0  0
  146.7216  129.6179  152.8449 C   0  0  0  0  0  0  0  0  0  0  0  0
  146.8946  130.9063  152.1134 N   0  3  1  0  0  0  0  0  0  0  0  0
  145.6175  131.3582  151.4883 C   0  0  0  0  0  0  0  0  0  0  0  0
  145.7906  132.6475  150.6693 C   0  0  0  0  0  0  0  0  0  0  0  0
  146.3425  133.7930  151.5334 C   0  0  1  0  0  0  0  0  0  0  0  0
  145.3790  134.2347  152.5557 N   0  0  0  0  0  0  0  0  0  0  0  0
  144.0606  134.6673  152.1039 C   0  0  0  0  0  0  0  0  0  0  0  0
  145.8489  135.0668  153.5123 C   0  0  0  0  0  0  0  0  0  0  0  0
  146.1913  134.5106  154.7004 N   0  0  0  0  0  0  0  0  0  0  0  0
  146.6804  135.2778  155.6793 C   0  0  0  0  0  0  0  0  0  0  0  0
  146.9057  136.5933  155.6751 N   0  0  0  0  0  0  0  0  0  0  0  0
  146.5523  137.1552  154.4836 C   0  0  0  0  0  0  0  0  0  0  0  0
  146.0102  136.4726  153.3592 C   0  0  0  0  0  0  0  0  0  0  0  0
  145.7638  137.3731  152.3298 N   0  0  0  0  0  0  0  0  0  0  0  0
  146.1546  138.5213  152.8118 C   0  0  0  0  0  0  0  0  0  0  0  0
  146.6576  138.4781  154.0924 N   0  0  0  0  0  0  0  0  0  0  0  0
  147.1860  139.5975  154.8520 C   0  0  0  0  0  0  0  0  0  0  0  0
  148.1448  140.4934  154.0270 C   0  0  1  0  0  0  0  0  0  0  0  0
  147.7098  141.9760  154.1131 C   0  0  0  0  0  0  0  0  0  0  0  0
  147.5382  142.3700  155.4587 O   0  0  0  0  0  0  0  0  0  0  0  0
  149.6399  140.2545  154.3876 C   0  0  2  0  0  0  0  0  0  0  0  0
  150.2024  138.8643  154.0925 C   0  0  0  0  0  0  0  0  0  0  0  0
  151.0958  138.5584  155.2977 C   0  0  0  0  0  0  0  0  0  0  0  0
  151.2631  139.8052  155.9561 O   0  0  0  0  0  0  0  0  0  0  0  0
  150.0296  140.4949  155.8488 C   0  0  0  0  0  0  0  0  0  0  0  0
  147.6817  133.2886  152.1145 C   0  0  0  0  0  0  0  0  0  0  0  0
  147.5290  131.9876  152.9365 C   0  0  2  0  0  0  0  0  0  0  0  0
  148.9151  131.5937  153.4885 C   0  0  0  0  0  0  0  0  0  0  0  0
  146.0032  127.5898  152.5452 H   0  0  0  0  0  0  0  0  0  0  0  0
  146.3975  128.4221  151.0468 H   0  0  0  0  0  0  0  0  0  0  0  0
  144.9061  128.7987  151.9166 H   0  0  0  0  0  0  0  0  0  0  0  0
  146.2266  129.7968  153.8006 H   0  0  0  0  0  0  0  0  0  0  0  0
  147.6884  129.1779  153.0764 H   0  0  0  0  0  0  0  0  0  0  0  0
  145.2330  130.5932  150.8160 H   0  0  0  0  0  0  0  0  0  0  0  0
  144.8628  131.5017  152.2629 H   0  0  0  0  0  0  0  0  0  0  0  0
  146.4777  132.4550  149.8442 H   0  0  0  0  0  0  0  0  0  0  0  0
  144.8472  132.9270  150.2005 H   0  0  0  0  0  0  0  0  0  0  0  0
  146.5420  134.6413  150.8781 H   0  0  0  0  0  0  0  0  0  0  0  0
  143.5186  135.2138  152.8780 H   0  0  0  0  0  0  0  0  0  0  0  0
  143.4529  133.8041  151.8331 H   0  0  0  0  0  0  0  0  0  0  0  0
  144.1468  135.3144  151.2303 H   0  0  0  0  0  0  0  0  0  0  0  0
  146.9321  134.7637  156.5953 H   0  0  0  0  0  0  0  0  0  0  0  0
  146.0994  139.4355  152.2385 H   0  0  0  0  0  0  0  0  0  0  0  0
  146.3371  140.1764  155.2168 H   0  0  0  0  0  0  0  0  0  0  0  0
  147.6963  139.2130  155.7356 H   0  0  0  0  0  0  0  0  0  0  0  0
  148.0414  140.1939  152.9825 H   0  0  0  0  0  0  0  0  0  0  0  0
  148.4440  142.6336  153.6481 H   0  0  0  0  0  0  0  0  0  0  0  0
  146.7624  142.1495  153.6073 H   0  0  0  0  0  0  0  0  0  0  0  0
  147.7778  143.2806  155.5388 H   0  0  0  0  0  0  0  0  0  0  0  0
  150.2495  140.9624  153.8253 H   0  0  0  0  0  0  0  0  0  0  0  0
  149.4359  138.0982  153.9814 H   0  0  0  0  0  0  0  0  0  0  0  0
  150.7837  138.8786  153.1704 H   0  0  0  0  0  0  0  0  0  0  0  0
  150.5984  137.8615  155.9737 H   0  0  0  0  0  0  0  0  0  0  0  0
  152.0554  138.1280  155.0106 H   0  0  0  0  0  0  0  0  0  0  0  0
  150.1433  141.5538  156.0821 H   0  0  0  0  0  0  0  0  0  0  0  0
  149.3234  140.0642  156.5573 H   0  0  0  0  0  0  0  0  0  0  0  0
  148.3730  133.1069  151.2902 H   0  0  0  0  0  0  0  0  0  0  0  0
  148.1611  134.0612  152.7160 H   0  0  0  0  0  0  0  0  0  0  0  0
  146.8759  132.1896  153.7868 H   0  0  0  0  0  0  0  0  0  0  0  0
  149.4133  132.4529  153.9390 H   0  0  0  0  0  0  0  0  0  0  0  0
  149.5660  131.2155  152.6993 H   0  0  0  0  0  0  0  0  0  0  0  0
  148.8541  130.8408  154.2732 H   0  0  0  0  0  0  0  0  0  0  0  0
  147.5360  130.7212  151.3555 H   0  0  0  0  0  0  0  0  0  0  0  0
  1  2  1  0  0  0  0
  1 30  1  0  0  0  0
  1 31  1  0  0  0  0
  1 32  1  0  0  0  0
  2  3  1  0  0  0  0
  2 33  1  0  0  0  0
  2 34  1  0  0  0  0
  3 28  1  0  0  0  0
  3  4  1  0  0  0  0
  3 64  1  0  0  0  0
  4  5  1  0  0  0  0
  4 35  1  0  0  0  0
  4 36  1  0  0  0  0
  5  6  1  0  0  0  0
  5 37  1  0  0  0  0
  5 38  1  0  0  0  0
  6  7  1  0  0  0  0
  6 27  1  0  0  0  0
  6 39  1  0  0  0  0
  7  8  1  0  0  0  0
  7  9  1  0  0  0  0
  8 40  1  0  0  0  0
  8 41  1  0  0  0  0
  8 42  1  0  0  0  0
  9 14  1  0  0  0  0
  9 10  2  0  0  0  0
 10 11  1  0  0  0  0
 11 12  2  0  0  0  0
 11 43  1  0  0  0  0
 12 13  1  0  0  0  0
 13 17  1  0  0  0  0
 13 14  2  0  0  0  0
 14 15  1  0  0  0  0
 15 16  2  0  0  0  0
 16 17  1  0  0  0  0
 16 44  1  0  0  0  0
 17 18  1  0  0  0  0
 18 19  1  0  0  0  0
 18 45  1  0  0  0  0
 18 46  1  0  0  0  0
 19 20  1  0  0  0  0
 19 22  1  0  0  0  0
 19 47  1  0  0  0  0
 20 21  1  0  0  0  0
 20 48  1  0  0  0  0
 20 49  1  0  0  0  0
 21 50  1  0  0  0  0
 22 26  1  0  0  0  0
 22 23  1  0  0  0  0
 22 51  1  0  0  0  0
 23 24  1  0  0  0  0
 23 52  1  0  0  0  0
 23 53  1  0  0  0  0
 24 25  1  0  0  0  0
 24 54  1  0  0  0  0
 24 55  1  0  0  0  0
 25 26  1  0  0  0  0
 26 56  1  0  0  0  0
 26 57  1  0  0  0  0
 27 28  1  0  0  0  0
 27 58  1  0  0  0  0
 27 59  1  0  0  0  0
 28 29  1  0  0  0  0
 28 60  1  0  0  0  0
 29 61  1  0  0  0  0
 29 62  1  0  0  0  0
 29 63  1  0  0  0  0
M  CHG  1   3   1
M  END
> <s_m_source_file>
AV-unprocessed.smi

> <i_m_source_file_index>
249

> <i_lp_mmshare_version>
43012

> <i_f3d_flags>
0

> <s_epik_input>
W0NIM11bQ0gyXU4xW0NIMl1bQ0gyXVtDQEhdKFtDSDJdW0NASF0xW0NIM10pTihbQ0gzXSljKG5bY0hdbjIpYyhjMjMpbltjSF1uM1tDSDJdW0NASF0oW0NIMl1bT0hdKVtDQEBIXTRbQ0gyXVtDSDJdT1tDSDJdNA==

> <s_epik_cmdline>
J2VwaWtfcHl0aG9uJywgJy1waCcsICc3LjAnLCAnLXRuJywgJzgnLCAnLW1hJywgJzIwMCcsICctbWV0YWxfYmluZGluZycsICctaW1hZScsICc8aW5maWxlLm1hZT4nLCAnLW9tYWUnLCAnPG91dGZpbGUubWFlPic=

> <r_lp_tautomer_probability>
1

> <r_epik_Ionization_Penalty>
0.00294688

> <r_epik_Ionization_Penalty_Charging>
0.00169971

> <r_epik_Ionization_Penalty_Neutral>
0.00124717

> <r_epik_State_Penalty>
-0

> <r_epik_Charging_Adjusted_Penalty>
0.00169971

> <i_epik_Tot_Q>
1

> <i_epik_Tot_abs_Q>
1

> <r_epik_Metal_State_Penalty>
-0

> <b_epik_Metal_Only>
0

> <s_lp_Force_Field>
OPLS_2005

> <r_lp_Energy>
56.7339

> <b_lp_Chiralities_Consistent>
1

> <s_lp_Variant>
AV-unprocessed.smi:249-22

> <Gold.Version>
5.8.1

> <Gold.Id.Protein>
6NUR|6NUR_protein|mol2

> <Gold.PLP.Fitness>
47.0409

> <Gold.PLP.PLP>
-41.8540

> <Gold.PLP.part.hbond>
-2.0000

> <Gold.PLP.part.metal>
0.0000

> <Gold.PLP.part.buried>
-3.6742

> <Gold.PLP.part.nonpolar>
-36.3544

> <Gold.PLP.part.repulsive>
0.4213

> <Gold.PLP.ligand.clash>
0.0000

> <Gold.PLP.ligand.torsion>
1.4199

> <Gold.PLP.Chemscore.Hbond>
2.0000

> <Gold.PLP.Chemscore.CHOScore>
0.4550

> <Gold.PLP.Chemscore.Metal>
0.0000

> <Gold.Chemscore.Hbonds>
donor molecule, donor type, donor heavy atom, donor atom, acceptor molecule, acceptor atom, score
      L1  H     3    64       P1 10747  1.00
      L1  H    21    50       P1  8028  1.00
      L1  C    16    44       P1 10175  0.45

> <Gold.PLP.Chemscore.Internal.Correction>
0.6618

> <Gold.Rescore>
     Score         DG    S(hbond)    S(metal)    S(lipo)     H(rot)  DE(clash)    DE(int)     intcor
     16.26     -17.60       1.98        0.00     110.55       2.90       0.08       1.26       ----

> <Gold.Chemscore.Fitness>
16.2564

> <Gold.Chemscore.DG>
-17.6006

> <Gold.Chemscore.ZeroCoef>
-5.4800

> <Gold.Chemscore.Hbond>
1.9796

> <Gold.Chemscore.Metal>
0.0000

> <Gold.Chemscore.Lipo>
110.5488

> <Gold.Chemscore.Internal_Hbond>
0.0000

> <Gold.Chemscore.DEClash>
0.0799

> <Gold.Chemscore.DEInternal>
1.2643

> <Gold.Chemscore.Rot>
2.9006

> <Gold.Chemscore.Internal.Correction>
   9.000000E+99

> <Gold.Chemscore.Hbonds>
donor molecule, donor type, donor heavy atom, donor atom, acceptor molecule, acceptor atom, score
      L1  H     3    64       P1 10747  1.00
      L1  H    21    50       P1  8028  0.34

> <Gold.Chemscore.Hbond.Weighted>
-6.6120

> <Gold.Chemscore.Metal.Weighted>
-0.0000

> <Gold.Chemscore.Lipo.Weighted>
-12.9342

> <Gold.Chemscore.Internal_Hbond.Weighted>
0.0000

> <Gold.Chemscore.DEClash.Weighted>
0.0799

> <Gold.Chemscore.DEInternal.Weighted>
1.2643

> <Gold.Chemscore.Rot.Weighted>
7.4256

> <Gold.Chemscore.Internal.Correction.Weighted>
   9.000000E+99

> <Gold.Protein.RotatedTorsions>
[ 6907 6896 6895 6894 ] final -134.34 input  -60.11 | X-H torsion
[ 7974 7965 7964 7962 ] final   93.04 input  175.53 | X-H torsion
[ 8008 7997 7996 7995 ] final  109.31 input   59.86 | X-H torsion
[ 10167 10162 10161 10158 ] final -155.38 input  -65.29 | X-H torsion
[ 10718 10713 10712 10709 ] final  -60.57 input   66.30 | X-H torsion
[ 10763 10752 10751 10750 ] final   72.68 input  -60.55 | X-H torsion
[ 11005 11000 10999 10996 ] final  -12.09 input  -57.11 | X-H torsion

> <Gold.Protein.ActiveResidues>
 VAL166  LYS551  ARG553  GLY616  TRP617  ASP618  TYR619  PRO620  LYS621  CYS622 
 ASP623  PHE694  ASN695  SER759  ASP760  ASP761  ALA762  ILE779  LEU786  VAL792 
 PHE793  MET794  SER795  GLU796  ALA797  LYS798  CYS799  TRP800  GLU811  SER814 

> <Gold.Protein.RotatedAtoms>
  150.9846  133.6210  159.2717 H   0  0  0  0  0  0  0  0  0  0  0  0  # atno 6907 bound_to 6896
  151.3453  135.0871  159.9394 H   0  0  0  0  0  0  0  0  0  0  0  0  # atno 6908 bound_to 6896
  152.5227  133.9450  159.7699 H   0  0  0  0  0  0  0  0  0  0  0  0  # atno 6909 bound_to 6896
  145.4842  139.2278  143.2865 H   0  0  0  0  0  0  0  0  0  0  0  0  # atno 7974 bound_to 7965
  156.1970  140.3060  155.9447 H   0  0  0  0  0  0  0  0  0  0  0  0  # atno 8008 bound_to 7997
  155.3044  140.0448  157.3048 H   0  0  0  0  0  0  0  0  0  0  0  0  # atno 8009 bound_to 7997
  154.5522  140.2295  155.8476 H   0  0  0  0  0  0  0  0  0  0  0  0  # atno 8010 bound_to 7997
  139.6936  143.9379  152.2397 H   0  0  0  0  0  0  0  0  0  0  0  0  # atno 10167 bound_to 10162
  156.0981  130.4190  150.0872 H   0  0  0  0  0  0  0  0  0  0  0  0  # atno 10718 bound_to 10713
  153.0474  135.5091  154.7780 H   0  0  0  0  0  0  0  0  0  0  0  0  # atno 10763 bound_to 10752
  154.6669  135.2947  154.9795 H   0  0  0  0  0  0  0  0  0  0  0  0  # atno 10764 bound_to 10752
  154.0627  135.6688  153.4866 H   0  0  0  0  0  0  0  0  0  0  0  0  # atno 10765 bound_to 10752
  140.7621  133.8506  155.9133 H   0  0  0  0  0  0  0  0  0  0  0  0  # atno 11005 bound_to 11000
  146.2322  140.5631  142.8970 LP  0  0  0  0  0  0  0  0  0  0  0  0  # atno 17320 bound_to 7965
  144.7871  140.5958  143.6566 LP  0  0  0  0  0  0  0  0  0  0  0  0  # atno 17321 bound_to 7965
  139.9202  144.6804  150.8469 LP  0  0  0  0  0  0  0  0  0  0  0  0  # atno 17342 bound_to 10162
  140.7690  143.3380  151.2267 LP  0  0  0  0  0  0  0  0  0  0  0  0  # atno 17343 bound_to 10162
  156.8866  130.9574  151.3593 LP  0  0  0  0  0  0  0  0  0  0  0  0  # atno 17370 bound_to 10713
  157.6147  130.8609  149.9008 LP  0  0  0  0  0  0  0  0  0  0  0  0  # atno 17371 bound_to 10713
  140.9653  134.1602  157.4621 LP  0  0  0  0  0  0  0  0  0  0  0  0  # atno 17394 bound_to 11000
  139.8769  134.9959  156.5769 LP  0  0  0  0  0  0  0  0  0  0  0  0  # atno 17395 bound_to 11000

$$$$
