AV-unprocessed.smi:97|AV-procd|sdf|862|dock5
  -GOLD-   2262017313D 1   1.00000     0.00000
 Structure written by MMmdl.
 46 49  0  0  0  0  0  0  0  0  1 V2000
  151.6214  139.2094  154.6073 O   0  0  0  0  0  0  0  0  0  0  0  0
  150.6046  139.1372  155.2961 C   0  0  0  0  0  0  0  0  0  0  0  0
  149.5534  140.2577  155.2011 C   0  0  0  0  0  0  0  0  0  0  0  0
  149.5821  141.2263  156.3221 N   0  0  0  0  0  0  0  0  0  0  0  0
  148.3781  141.5179  157.0107 C   0  0  0  0  0  0  0  0  0  0  0  0
  147.3154  140.9821  156.6942 O   0  0  0  0  0  0  0  0  0  0  0  0
  148.4951  142.4731  158.1071 C   0  0  0  0  0  0  0  0  0  0  0  0
  147.4003  142.8272  158.8011 F   0  0  0  0  0  0  0  0  0  0  0  0
  149.6886  143.0072  158.4386 C   0  0  0  0  0  0  0  0  0  0  0  0
  150.8597  142.6911  157.7759 N   0  0  0  0  0  0  0  0  0  0  0  0
  152.1795  143.3032  158.1865 C   0  0  1  0  0  0  0  0  0  0  0  0
  152.1646  144.8158  157.9366 C   0  0  0  0  0  0  0  0  0  0  0  0
  151.8306  145.3598  159.3091 C   0  0  0  0  0  0  0  0  0  0  0  0
  152.5233  144.3501  160.2157 C   0  0  0  0  0  0  0  0  0  0  0  0
  152.3666  143.0973  159.5572 O   0  0  0  0  0  0  0  0  0  0  0  0
  150.8257  141.7995  156.6828 C   0  0  0  0  0  0  0  0  0  0  0  0
  151.8544  141.5223  156.0625 O   0  0  0  0  0  0  0  0  0  0  0  0
  150.3791  138.1329  156.1597 N   0  0  0  0  0  0  0  0  0  0  0  0
  151.3235  137.0714  156.4847 C   0  0  0  0  0  0  0  0  0  0  0  0
  150.8071  135.6818  156.1390 C   0  0  0  0  0  0  0  0  0  0  0  0
  149.5361  135.5097  155.5236 C   0  0  0  0  0  0  0  0  0  0  0  0
  149.0556  134.2213  155.1988 C   0  0  0  0  0  0  0  0  0  0  0  0
  149.8769  133.1227  155.4977 C   0  0  0  0  0  0  0  0  0  0  0  0
  151.1132  133.2831  156.0883 C   0  0  0  0  0  0  0  0  0  0  0  0
  151.6130  134.5526  156.4217 C   0  0  0  0  0  0  0  0  0  0  0  0
  151.6938  132.0686  156.2638 O   0  0  0  0  0  0  0  0  0  0  0  0
  150.7784  131.1292  155.7622 C   0  0  0  0  0  0  0  0  0  0  0  0
  149.6428  131.8030  155.2835 O   0  0  0  0  0  0  0  0  0  0  0  0
  149.6926  140.7782  154.2520 H   0  0  0  0  0  0  0  0  0  0  0  0
  148.5735  139.7896  155.0994 H   0  0  0  0  0  0  0  0  0  0  0  0
  149.7169  143.7115  159.2567 H   0  0  0  0  0  0  0  0  0  0  0  0
  152.9560  142.7729  157.6330 H   0  0  0  0  0  0  0  0  0  0  0  0
  153.1652  145.1278  157.6349 H   0  0  0  0  0  0  0  0  0  0  0  0
  151.4551  145.1029  157.1596 H   0  0  0  0  0  0  0  0  0  0  0  0
  152.1804  146.3812  159.4620 H   0  0  0  0  0  0  0  0  0  0  0  0
  150.7525  145.3391  159.4722 H   0  0  0  0  0  0  0  0  0  0  0  0
  153.5877  144.5760  160.2936 H   0  0  0  0  0  0  0  0  0  0  0  0
  152.1045  144.3292  161.2220 H   0  0  0  0  0  0  0  0  0  0  0  0
  149.5136  138.1442  156.6789 H   0  0  0  0  0  0  0  0  0  0  0  0
  152.2382  137.2459  155.9183 H   0  0  0  0  0  0  0  0  0  0  0  0
  151.6001  137.1197  157.5394 H   0  0  0  0  0  0  0  0  0  0  0  0
  148.9198  136.3670  155.2958 H   0  0  0  0  0  0  0  0  0  0  0  0
  148.0902  134.0864  154.7340 H   0  0  0  0  0  0  0  0  0  0  0  0
  152.5837  134.6578  156.8838 H   0  0  0  0  0  0  0  0  0  0  0  0
  151.2398  130.5674  154.9494 H   0  0  0  0  0  0  0  0  0  0  0  0
  150.4869  130.4420  156.5574 H   0  0  0  0  0  0  0  0  0  0  0  0
  1  2  2  0  0  0  0
  2  3  1  0  0  0  0
  2 18  1  0  0  0  0
  3  4  1  0  0  0  0
  3 29  1  0  0  0  0
  3 30  1  0  0  0  0
  4 16  1  0  0  0  0
  4  5  1  0  0  0  0
  5  6  2  0  0  0  0
  5  7  1  0  0  0  0
  7  8  1  0  0  0  0
  7  9  2  0  0  0  0
  9 10  1  0  0  0  0
  9 31  1  0  0  0  0
 10 11  1  0  0  0  0
 10 16  1  0  0  0  0
 11 15  1  0  0  0  0
 11 12  1  0  0  0  0
 11 32  1  0  0  0  0
 12 13  1  0  0  0  0
 12 33  1  0  0  0  0
 12 34  1  0  0  0  0
 13 14  1  0  0  0  0
 13 35  1  0  0  0  0
 13 36  1  0  0  0  0
 14 15  1  0  0  0  0
 14 37  1  0  0  0  0
 14 38  1  0  0  0  0
 16 17  2  0  0  0  0
 18 19  1  0  0  0  0
 18 39  1  0  0  0  0
 19 20  1  0  0  0  0
 19 40  1  0  0  0  0
 19 41  1  0  0  0  0
 20 25  1  0  0  0  0
 20 21  2  0  0  0  0
 21 22  1  0  0  0  0
 21 42  1  0  0  0  0
 22 23  2  0  0  0  0
 22 43  1  0  0  0  0
 23 28  1  0  0  0  0
 23 24  1  0  0  0  0
 24 25  2  0  0  0  0
 24 26  1  0  0  0  0
 25 44  1  0  0  0  0
 26 27  1  0  0  0  0
 27 28  1  0  0  0  0
 27 45  1  0  0  0  0
 27 46  1  0  0  0  0
M  END
> <s_m_source_file>
AV-unprocessed.smi

> <i_m_source_file_index>
97

> <i_lp_mmshare_version>
43012

> <i_f3d_flags>
0

> <s_epik_input>
TzFbQ0gyXU9jKGMxMilbY0hdYyhbY0hdW2NIXTIpW0NIMl1bTkhdQyg9TylbQ0gyXW4zYyg9TyljKEYpW2NIXW4oYzM9TylbQ0BASF00W0NIMl1bQ0gyXVtDSDJdTzQ=

> <s_epik_cmdline>
J2VwaWtfcHl0aG9uJywgJy1waCcsICc3LjAnLCAnLXRuJywgJzgnLCAnLW1hJywgJzIwMCcsICctbWV0YWxfYmluZGluZycsICctaW1hZScsICc8aW5maWxlLm1hZT4nLCAnLW9tYWUnLCAnPG91dGZpbGUubWFlPic=

> <r_lp_tautomer_probability>
1

> <r_epik_Ionization_Penalty>
3.79042e-08

> <r_epik_Ionization_Penalty_Charging>
3.81036e-09

> <r_epik_Ionization_Penalty_Neutral>
3.40938e-08

> <r_epik_State_Penalty>
-0

> <r_epik_Charging_Adjusted_Penalty>
3.81036e-09

> <i_epik_Tot_Q>
0

> <i_epik_Tot_abs_Q>
0

> <r_epik_Metal_State_Penalty>
-0

> <b_epik_Metal_Only>
0

> <s_epik_Chemistry_Notes>
This compound contains an acetal/aminal-like group ( X-CH(R)-Y where X, Y are N, S, or O) that may be acid/base labile, releasing an aldehyde.

> <s_lp_Force_Field>
OPLS_2005

> <r_lp_Energy>
39.492

> <b_lp_Chiralities_Consistent>
1

> <s_lp_Variant>
AV-unprocessed.smi:97-2

> <Gold.Version>
5.8.1

> <Gold.Id.Protein>
6NUR|6NUR_protein|mol2

> <Gold.PLP.Fitness>
45.2794

> <Gold.PLP.PLP>
-43.0405

> <Gold.PLP.part.hbond>
-1.0000

> <Gold.PLP.part.metal>
0.0000

> <Gold.PLP.part.buried>
-3.2411

> <Gold.PLP.part.nonpolar>
-38.6774

> <Gold.PLP.part.repulsive>
0.1812

> <Gold.PLP.ligand.clash>
0.0000

> <Gold.PLP.ligand.torsion>
0.4124

> <Gold.PLP.Chemscore.Hbond>
1.0000

> <Gold.PLP.Chemscore.CHOScore>
0.0000

> <Gold.PLP.Chemscore.Metal>
0.0000

> <Gold.Chemscore.Hbonds>
donor molecule, donor type, donor heavy atom, donor atom, acceptor molecule, acceptor atom, score
      P1  H  7989  7998       L1     1  1.00

> <Gold.PLP.Chemscore.Internal.Correction>
0.0638

> <Gold.Rescore>
     Score         DG    S(hbond)    S(metal)    S(lipo)     H(rot)  DE(clash)    DE(int)     intcor
      8.01     -11.55       1.00        0.00      79.78       2.58       0.13       3.41       ----

> <Gold.Chemscore.Fitness>
8.0102

> <Gold.Chemscore.DG>
-11.5494

> <Gold.Chemscore.ZeroCoef>
-5.4800

> <Gold.Chemscore.Hbond>
0.9999

> <Gold.Chemscore.Metal>
0.0000

> <Gold.Chemscore.Lipo>
79.7829

> <Gold.Chemscore.Internal_Hbond>
0.0000

> <Gold.Chemscore.DEClash>
0.1329

> <Gold.Chemscore.DEInternal>
3.4063

> <Gold.Chemscore.Rot>
2.5801

> <Gold.Chemscore.Internal.Correction>
   9.000000E+99

> <Gold.Chemscore.Hbonds>
donor molecule, donor type, donor heavy atom, donor atom, acceptor molecule, acceptor atom, score
      P1  H  7989  7998       L1     1  0.78

> <Gold.Chemscore.Hbond.Weighted>
-3.3398

> <Gold.Chemscore.Metal.Weighted>
-0.0000

> <Gold.Chemscore.Lipo.Weighted>
-9.3346

> <Gold.Chemscore.Internal_Hbond.Weighted>
0.0000

> <Gold.Chemscore.DEClash.Weighted>
0.1329

> <Gold.Chemscore.DEInternal.Weighted>
3.4063

> <Gold.Chemscore.Rot.Weighted>
6.6050

> <Gold.Chemscore.Internal.Correction.Weighted>
   9.000000E+99

> <Gold.Protein.RotatedTorsions>
[ 6907 6896 6895 6894 ] final   79.73 input  -60.11 | X-H torsion
[ 7974 7965 7964 7962 ] final  -22.01 input  175.53 | X-H torsion
[ 8008 7997 7996 7995 ] final  141.89 input   59.86 | X-H torsion
[ 10167 10162 10161 10158 ] final    5.48 input  -65.29 | X-H torsion
[ 10718 10713 10712 10709 ] final   71.61 input   66.30 | X-H torsion
[ 10763 10752 10751 10750 ] final   -2.89 input  -60.55 | X-H torsion
[ 11005 11000 10999 10996 ] final   75.23 input  -57.11 | X-H torsion

> <Gold.Protein.ActiveResidues>
 VAL166  LYS551  ARG553  GLY616  TRP617  ASP618  TYR619  PRO620  LYS621  CYS622 
 ASP623  PHE694  ASN695  SER759  ASP760  ASP761  ALA762  ILE779  LEU786  VAL792 
 PHE793  MET794  SER795  GLU796  ALA797  LYS798  CYS799  TRP800  GLU811  SER814 

> <Gold.Protein.RotatedAtoms>
  152.5209  134.3467  159.9236 H   0  0  0  0  0  0  0  0  0  0  0  0  # atno 6907 bound_to 6896
  151.3417  133.3953  159.2679 H   0  0  0  0  0  0  0  0  0  0  0  0  # atno 6908 bound_to 6896
  150.9798  134.9173  159.7895 H   0  0  0  0  0  0  0  0  0  0  0  0  # atno 6909 bound_to 6896
  146.1700  140.4420  142.8536 H   0  0  0  0  0  0  0  0  0  0  0  0  # atno 7974 bound_to 7965
  156.2958  140.2303  156.4638 H   0  0  0  0  0  0  0  0  0  0  0  0  # atno 8008 bound_to 7997
  154.7994  140.0449  157.1282 H   0  0  0  0  0  0  0  0  0  0  0  0  # atno 8009 bound_to 7997
  154.9551  140.3047  155.5060 H   0  0  0  0  0  0  0  0  0  0  0  0  # atno 8010 bound_to 7997
  140.6479  143.7616  150.7529 H   0  0  0  0  0  0  0  0  0  0  0  0  # atno 10167 bound_to 10162
  157.6460  130.9537  150.0813 H   0  0  0  0  0  0  0  0  0  0  0  0  # atno 10718 bound_to 10713
  153.3640  135.6991  153.6690 H   0  0  0  0  0  0  0  0  0  0  0  0  # atno 10763 bound_to 10752
  153.5367  135.3581  155.2700 H   0  0  0  0  0  0  0  0  0  0  0  0  # atno 10764 bound_to 10752
  154.8672  135.4193  154.2903 H   0  0  0  0  0  0  0  0  0  0  0  0  # atno 10765 bound_to 10752
  139.9353  134.7500  156.1245 H   0  0  0  0  0  0  0  0  0  0  0  0  # atno 11005 bound_to 11000
  144.8149  140.6450  143.6391 LP  0  0  0  0  0  0  0  0  0  0  0  0  # atno 17320 bound_to 7965
  145.4365  139.1541  143.3994 LP  0  0  0  0  0  0  0  0  0  0  0  0  # atno 17321 bound_to 7965
  140.1261  143.4568  152.2283 LP  0  0  0  0  0  0  0  0  0  0  0  0  # atno 17342 bound_to 10162
  139.5692  144.7453  151.3938 LP  0  0  0  0  0  0  0  0  0  0  0  0  # atno 17343 bound_to 10162
  156.1788  130.3649  149.9063 LP  0  0  0  0  0  0  0  0  0  0  0  0  # atno 17370 bound_to 10713
  156.7021  130.8937  151.3600 LP  0  0  0  0  0  0  0  0  0  0  0  0  # atno 17371 bound_to 10713
  141.0964  133.6694  156.2655 LP  0  0  0  0  0  0  0  0  0  0  0  0  # atno 17394 bound_to 11000
  140.6091  134.5476  157.5530 LP  0  0  0  0  0  0  0  0  0  0  0  0  # atno 17395 bound_to 11000

$$$$
