AV-unprocessed.smi:3245|AV-procd|sdf|12407|dock10
  -GOLD-   2272018283D 1   1.00000     0.00000
 Structure written by MMmdl.
 35 36  0  0  0  0  0  0  0  0  3 V2000
  146.1401  136.0039  153.8565 C   0  0  0  0  0  0  0  0  0  0  0  0
  146.0733  134.7026  153.0463 C   0  0  1  0  0  0  0  0  0  0  0  0
  145.4483  134.9562  151.6571 C   0  0  0  0  0  0  0  0  0  0  0  0
  145.2448  133.7359  150.8971 N   0  0  0  0  0  0  0  0  0  0  0  0
  144.0687  133.2270  150.3882 C   0  0  0  0  0  0  0  0  0  0  0  0
  144.3706  132.0452  149.7745 C   0  0  0  0  0  0  0  0  0  0  0  0
  145.7754  131.9158  149.9602 C   0  0  0  0  0  0  0  0  0  0  0  0
  146.2964  132.9313  150.6299 N   0  0  0  0  0  0  0  0  0  0  0  0
  147.4324  134.1271  152.9252 N   0  3  0  0  0  0  0  0  0  0  0  0
  147.9496  133.4934  154.1547 C   0  0  0  0  0  0  0  0  0  0  0  0
  149.4010  133.0320  153.9659 C   0  0  0  0  0  0  0  0  0  0  0  0
  149.9824  132.6007  155.2391 N   0  0  0  0  0  0  0  0  0  0  0  0
  150.3866  131.3544  155.5009 C   0  0  0  0  0  0  0  0  0  0  0  0
  150.3379  130.3731  154.7591 O   0  0  0  0  0  0  0  0  0  0  0  0
  150.9509  131.3445  156.9023 C   0  0  0  0  0  0  0  0  0  0  0  0
  150.7998  132.7248  157.3052 N   0  5  0  0  0  0  0  0  0  0  0  0
  150.2291  133.4094  156.2874 C   0  0  0  0  0  0  0  0  0  0  0  0
  149.9602  134.6101  156.2661 O   0  0  0  0  0  0  0  0  0  0  0  0
  145.1471  136.4342  153.9898 H   0  0  0  0  0  0  0  0  0  0  0  0
  146.7615  136.7506  153.3606 H   0  0  0  0  0  0  0  0  0  0  0  0
  146.5573  135.8286  154.8488 H   0  0  0  0  0  0  0  0  0  0  0  0
  145.4387  134.0086  153.6007 H   0  0  0  0  0  0  0  0  0  0  0  0
  144.4796  135.4451  151.7670 H   0  0  0  0  0  0  0  0  0  0  0  0
  146.0723  135.6363  151.0747 H   0  0  0  0  0  0  0  0  0  0  0  0
  143.1250  133.7380  150.5098 H   0  0  0  0  0  0  0  0  0  0  0  0
  143.6915  131.3725  149.2719 H   0  0  0  0  0  0  0  0  0  0  0  0
  146.4266  131.1186  149.6334 H   0  0  0  0  0  0  0  0  0  0  0  0
  147.4187  133.4397  152.1851 H   0  0  0  0  0  0  0  0  0  0  0  0
  147.8801  134.2057  154.9778 H   0  0  0  0  0  0  0  0  0  0  0  0
  147.3277  132.6395  154.4219 H   0  0  0  0  0  0  0  0  0  0  0  0
  149.4422  132.2108  153.2480 H   0  0  0  0  0  0  0  0  0  0  0  0
  149.9966  133.8365  153.5310 H   0  0  0  0  0  0  0  0  0  0  0  0
  150.3866  130.6495  157.5251 H   0  0  0  0  0  0  0  0  0  0  0  0
  151.9894  131.0127  156.8817 H   0  0  0  0  0  0  0  0  0  0  0  0
  148.0734  134.8641  152.6688 H   0  0  0  0  0  0  0  0  0  0  0  0
  1  2  1  0  0  0  0
  1 19  1  0  0  0  0
  1 20  1  0  0  0  0
  1 21  1  0  0  0  0
  2  3  1  0  0  0  0
  2  9  1  0  0  0  0
  2 22  1  0  0  0  0
  3  4  1  0  0  0  0
  3 23  1  0  0  0  0
  3 24  1  0  0  0  0
  4  8  1  0  0  0  0
  4  5  1  0  0  0  0
  5  6  2  0  0  0  0
  5 25  1  0  0  0  0
  6  7  1  0  0  0  0
  6 26  1  0  0  0  0
  7  8  2  0  0  0  0
  7 27  1  0  0  0  0
  9 10  1  0  0  0  0
  9 28  1  0  0  0  0
  9 35  1  0  0  0  0
 10 11  1  0  0  0  0
 10 29  1  0  0  0  0
 10 30  1  0  0  0  0
 11 12  1  0  0  0  0
 11 31  1  0  0  0  0
 11 32  1  0  0  0  0
 12 17  1  0  0  0  0
 12 13  1  0  0  0  0
 13 14  2  0  0  0  0
 13 15  1  0  0  0  0
 15 16  1  0  0  0  0
 15 33  1  0  0  0  0
 15 34  1  0  0  0  0
 16 17  1  0  0  0  0
 17 18  2  0  0  0  0
M  CHG  1   9   1
M  CHG  1  16  -1
M  END
> <s_m_source_file>
AV-unprocessed.smi

> <i_m_source_file_index>
3245

> <i_lp_mmshare_version>
43012

> <i_f3d_flags>
0

> <s_epik_input>
bjFbY0hdW2NIXVtjSF1uMVtDSDJdW0NAQEhdKFtDSDNdKVtOSF1bQ0gyXVtDSDJdTjJDKD1PKVtDSDJdW05IXUMyPU8=

> <s_epik_cmdline>
J2VwaWtfcHl0aG9uJywgJy1waCcsICc3LjAnLCAnLXRuJywgJzgnLCAnLW1hJywgJzIwMCcsICctbWV0YWxfYmluZGluZycsICctaW1hZScsICc8aW5maWxlLm1hZT4nLCAnLW9tYWUnLCAnPG91dGZpbGUubWFlPic=

> <r_lp_tautomer_probability>
1

> <r_epik_Ionization_Penalty>
5.1873

> <r_epik_Ionization_Penalty_Charging>
5.18729

> <r_epik_Ionization_Penalty_Neutral>
3.83745e-06

> <r_epik_State_Penalty>
5.18822

> <r_epik_Charging_Adjusted_Penalty>
10.3755

> <i_epik_Tot_Q>
0

> <i_epik_Tot_abs_Q>
2

> <r_epik_Metal_State_Penalty>
1.25934

> <b_epik_Metal_Only>
1

> <s_lp_Force_Field>
OPLS_2005

> <r_lp_Energy>
10.2516

> <b_lp_Chiralities_Consistent>
1

> <s_lp_Variant>
AV-unprocessed.smi:3245-6

> <Gold.Version>
5.8.1

> <Gold.Id.Protein>
6NUR|6NUR_protein|mol2

> <Gold.PLP.Fitness>
48.2722

> <Gold.PLP.PLP>
-30.6364

> <Gold.PLP.part.hbond>
-2.0000

> <Gold.PLP.part.metal>
0.0000

> <Gold.PLP.part.buried>
-4.7612

> <Gold.PLP.part.nonpolar>
-25.1838

> <Gold.PLP.part.repulsive>
0.2727

> <Gold.PLP.ligand.clash>
0.0000

> <Gold.PLP.ligand.torsion>
0.1869

> <Gold.PLP.Chemscore.Hbond>
4.0000

> <Gold.PLP.Chemscore.CHOScore>
1.9771

> <Gold.PLP.Chemscore.Metal>
0.0000

> <Gold.Chemscore.Hbonds>
donor molecule, donor type, donor heavy atom, donor atom, acceptor molecule, acceptor atom, score
      L1  H     9    35       P1  7948  2.00
      P1  H  6896  6908       L1    16  1.85
      L1  C     5    25       P1 10186  1.00
      L1  C     7    27       P1 10747  0.72

> <Gold.PLP.Chemscore.Internal.Correction>
0.0782

> <Gold.Rescore>
     Score         DG    S(hbond)    S(metal)    S(lipo)     H(rot)  DE(clash)    DE(int)     intcor
     11.21     -11.37       1.93        0.00      53.46       2.66       0.00       0.17       ----

> <Gold.Chemscore.Fitness>
11.2066

> <Gold.Chemscore.DG>
-11.3744

> <Gold.Chemscore.ZeroCoef>
-5.4800

> <Gold.Chemscore.Hbond>
1.9309

> <Gold.Chemscore.Metal>
0.0000

> <Gold.Chemscore.Lipo>
53.4618

> <Gold.Chemscore.Internal_Hbond>
0.0000

> <Gold.Chemscore.DEClash>
0.0000

> <Gold.Chemscore.DEInternal>
0.1678

> <Gold.Chemscore.Rot>
2.6601

> <Gold.Chemscore.Internal.Correction>
   9.000000E+99

> <Gold.Chemscore.Hbonds>
donor molecule, donor type, donor heavy atom, donor atom, acceptor molecule, acceptor atom, score
      L1  H     9    35       P1  7948  0.78
      P1  H  6896  6908       L1    16  0.87

> <Gold.Chemscore.Hbond.Weighted>
-6.4492

> <Gold.Chemscore.Metal.Weighted>
-0.0000

> <Gold.Chemscore.Lipo.Weighted>
-6.2550

> <Gold.Chemscore.Internal_Hbond.Weighted>
0.0000

> <Gold.Chemscore.DEClash.Weighted>
0.0000

> <Gold.Chemscore.DEInternal.Weighted>
0.1678

> <Gold.Chemscore.Rot.Weighted>
6.8098

> <Gold.Chemscore.Internal.Correction.Weighted>
   9.000000E+99

> <Gold.Protein.RotatedTorsions>
[ 6907 6896 6895 6894 ] final   91.02 input  -60.11 | X-H torsion
[ 7974 7965 7964 7962 ] final  144.86 input  175.53 | X-H torsion
[ 8008 7997 7996 7995 ] final  -55.63 input   59.86 | X-H torsion
[ 10167 10162 10161 10158 ] final   34.59 input  -65.29 | X-H torsion
[ 10718 10713 10712 10709 ] final  -37.82 input   66.30 | X-H torsion
[ 10763 10752 10751 10750 ] final -110.83 input  -60.55 | X-H torsion
[ 11005 11000 10999 10996 ] final   41.30 input  -57.11 | X-H torsion

> <Gold.Protein.ActiveResidues>
 VAL166  LYS551  ARG553  GLY616  TRP617  ASP618  TYR619  PRO620  LYS621  CYS622 
 ASP623  PHE694  ASN695  SER759  ASP760  ASP761  ALA762  ILE779  LEU786  VAL792 
 PHE793  MET794  SER795  GLU796  ALA797  LYS798  CYS799  TRP800  GLU811  SER814 

> <Gold.Protein.RotatedAtoms>
  152.5448  134.1722  159.8601 H   0  0  0  0  0  0  0  0  0  0  0  0  # atno 6907 bound_to 6896
  151.1731  133.4765  159.2601 H   0  0  0  0  0  0  0  0  0  0  0  0  # atno 6908 bound_to 6896
  151.1254  135.0113  159.8613 H   0  0  0  0  0  0  0  0  0  0  0  0  # atno 6909 bound_to 6896
  144.8800  139.5713  143.5847 H   0  0  0  0  0  0  0  0  0  0  0  0  # atno 7974 bound_to 7965
  154.4201  140.1148  156.5507 H   0  0  0  0  0  0  0  0  0  0  0  0  # atno 8008 bound_to 7997
  155.6413  140.3496  155.4697 H   0  0  0  0  0  0  0  0  0  0  0  0  # atno 8009 bound_to 7997
  155.9868  140.1171  157.0665 H   0  0  0  0  0  0  0  0  0  0  0  0  # atno 8010 bound_to 7997
  140.4301  144.1337  150.6158 H   0  0  0  0  0  0  0  0  0  0  0  0  # atno 10167 bound_to 10162
  156.3108  130.4252  149.8052 H   0  0  0  0  0  0  0  0  0  0  0  0  # atno 10718 bound_to 10713
  154.8269  135.4549  154.0946 H   0  0  0  0  0  0  0  0  0  0  0  0  # atno 10763 bound_to 10752
  153.2253  135.6899  153.7959 H   0  0  0  0  0  0  0  0  0  0  0  0  # atno 10764 bound_to 10752
  153.7362  135.3319  155.3272 H   0  0  0  0  0  0  0  0  0  0  0  0  # atno 10765 bound_to 10752
  140.1847  134.4060  155.8180 H   0  0  0  0  0  0  0  0  0  0  0  0  # atno 11005 bound_to 11000
  146.2988  139.7362  142.9106 LP  0  0  0  0  0  0  0  0  0  0  0  0  # atno 17320 bound_to 7965
  145.3971  141.0380  143.3091 LP  0  0  0  0  0  0  0  0  0  0  0  0  # atno 17321 bound_to 7965
  140.4437  143.2515  151.9439 LP  0  0  0  0  0  0  0  0  0  0  0  0  # atno 17342 bound_to 10162
  139.4784  144.5630  151.8210 LP  0  0  0  0  0  0  0  0  0  0  0  0  # atno 17343 bound_to 10162
  156.5397  130.8294  151.3265 LP  0  0  0  0  0  0  0  0  0  0  0  0  # atno 17370 bound_to 10713
  157.7390  130.9824  150.2289 LP  0  0  0  0  0  0  0  0  0  0  0  0  # atno 17371 bound_to 10713
  141.2224  133.7017  156.7992 LP  0  0  0  0  0  0  0  0  0  0  0  0  # atno 17394 bound_to 11000
  140.2227  134.8745  157.3394 LP  0  0  0  0  0  0  0  0  0  0  0  0  # atno 17395 bound_to 11000

$$$$
