AV-unprocessed.smi:1056|AV-procd|sdf|4638|dock10
  -GOLD-   22720 3143D 1   1.00000     0.00000
 Structure written by MMmdl.
 44 46  0  0  0  0  0  0  0  0  1 V2000
  153.1624  142.6649  161.1348 C   0  0  0  0  0  0  0  0  0  0  0  0
  152.5414  142.2959  159.7991 C   0  0  0  0  0  0  0  0  0  0  0  0
  152.8869  141.0646  159.1980 C   0  0  0  0  0  0  0  0  0  0  0  0
  152.3316  140.6833  157.9568 C   0  0  0  0  0  0  0  0  0  0  0  0
  152.5263  139.5424  157.1971 N   0  0  0  0  0  0  0  0  0  0  0  0
  151.7329  139.7759  156.1553 C   0  0  0  0  0  0  0  0  0  0  0  0
  151.0460  140.9346  156.1512 N   0  0  0  0  0  0  0  0  0  0  0  0
  150.1259  141.4070  155.1317 C   0  0  0  0  0  0  0  0  0  0  0  0
  149.3126  140.2628  154.4928 C   0  0  2  0  0  0  0  0  0  0  0  0
  150.1627  139.5527  153.6109 O   0  0  0  0  0  0  0  0  0  0  0  0
  148.0877  140.7867  153.7087 C   0  0  0  0  0  0  0  0  0  0  0  0
  147.1913  141.6754  154.4561 N   0  0  0  0  0  0  0  0  0  0  0  0
  146.2996  140.9670  155.3753 C   0  0  0  0  0  0  0  0  0  0  0  0
  145.4677  141.9378  156.2281 C   0  0  0  0  0  0  0  0  0  0  0  0
  144.8763  143.0041  155.4269 N   0  0  0  0  0  0  0  0  0  0  0  0
  145.3022  143.3639  154.2052 C   0  0  0  0  0  0  0  0  0  0  0  0
  144.7991  144.3057  153.5972 O   0  0  0  0  0  0  0  0  0  0  0  0
  146.4300  142.5465  153.5465 C   0  0  0  0  0  0  0  0  0  0  0  0
  151.4127  141.5744  157.3296 C   0  0  0  0  0  0  0  0  0  0  0  0
  151.0599  142.8018  157.9179 C   0  0  0  0  0  0  0  0  0  0  0  0
  151.6246  143.1675  159.1577 C   0  0  0  0  0  0  0  0  0  0  0  0
  151.2372  144.4947  159.7852 C   0  0  0  0  0  0  0  0  0  0  0  0
  153.8800  141.9118  161.4619 H   0  0  0  0  0  0  0  0  0  0  0  0
  152.3922  142.7498  161.9019 H   0  0  0  0  0  0  0  0  0  0  0  0
  153.6879  143.6174  161.0643 H   0  0  0  0  0  0  0  0  0  0  0  0
  153.5837  140.3998  159.6867 H   0  0  0  0  0  0  0  0  0  0  0  0
  151.6428  139.0623  155.3494 H   0  0  0  0  0  0  0  0  0  0  0  0
  149.4570  142.1331  155.5953 H   0  0  0  0  0  0  0  0  0  0  0  0
  150.6918  141.9461  154.3702 H   0  0  0  0  0  0  0  0  0  0  0  0
  148.9826  139.5866  155.2830 H   0  0  0  0  0  0  0  0  0  0  0  0
  149.7013  139.4126  152.7984 H   0  0  0  0  0  0  0  0  0  0  0  0
  148.4677  141.3525  152.8563 H   0  0  0  0  0  0  0  0  0  0  0  0
  147.5298  139.9572  153.2694 H   0  0  0  0  0  0  0  0  0  0  0  0
  145.6354  140.3095  154.8112 H   0  0  0  0  0  0  0  0  0  0  0  0
  146.8668  140.3294  156.0521 H   0  0  0  0  0  0  0  0  0  0  0  0
  144.6789  141.4015  156.7562 H   0  0  0  0  0  0  0  0  0  0  0  0
  146.1003  142.3997  156.9872 H   0  0  0  0  0  0  0  0  0  0  0  0
  144.1222  143.5310  155.8430 H   0  0  0  0  0  0  0  0  0  0  0  0
  147.1094  143.2351  153.0421 H   0  0  0  0  0  0  0  0  0  0  0  0
  145.9626  141.9447  152.7651 H   0  0  0  0  0  0  0  0  0  0  0  0
  150.3596  143.4548  157.4185 H   0  0  0  0  0  0  0  0  0  0  0  0
  150.5079  145.0264  159.1733 H   0  0  0  0  0  0  0  0  0  0  0  0
  152.1126  145.1354  159.8943 H   0  0  0  0  0  0  0  0  0  0  0  0
  150.7962  144.3380  160.7699 H   0  0  0  0  0  0  0  0  0  0  0  0
  1  2  1  0  0  0  0
  1 23  1  0  0  0  0
  1 24  1  0  0  0  0
  1 25  1  0  0  0  0
  2 21  1  0  0  0  0
  2  3  2  0  0  0  0
  3  4  1  0  0  0  0
  3 26  1  0  0  0  0
  4 19  2  0  0  0  0
  4  5  1  0  0  0  0
  5  6  2  0  0  0  0
  6  7  1  0  0  0  0
  6 27  1  0  0  0  0
  7  8  1  0  0  0  0
  7 19  1  0  0  0  0
  8  9  1  0  0  0  0
  8 28  1  0  0  0  0
  8 29  1  0  0  0  0
  9 10  1  0  0  0  0
  9 11  1  0  0  0  0
  9 30  1  0  0  0  0
 10 31  1  0  0  0  0
 11 12  1  0  0  0  0
 11 32  1  0  0  0  0
 11 33  1  0  0  0  0
 12 18  1  0  0  0  0
 12 13  1  0  0  0  0
 13 14  1  0  0  0  0
 13 34  1  0  0  0  0
 13 35  1  0  0  0  0
 14 15  1  0  0  0  0
 14 36  1  0  0  0  0
 14 37  1  0  0  0  0
 15 16  1  0  0  0  0
 15 38  1  0  0  0  0
 16 17  2  0  0  0  0
 16 18  1  0  0  0  0
 18 39  1  0  0  0  0
 18 40  1  0  0  0  0
 19 20  1  0  0  0  0
 20 21  2  0  0  0  0
 20 41  1  0  0  0  0
 21 22  1  0  0  0  0
 22 42  1  0  0  0  0
 22 43  1  0  0  0  0
 22 44  1  0  0  0  0
M  END
> <s_m_source_file>
AV-unprocessed.smi

> <i_m_source_file_index>
1056

> <i_lp_mmshare_version>
43012

> <i_f3d_flags>
0

> <s_epik_input>
W0NIM11jKFtjSF0xKWMoW0NIM10pW2NIXWMoYzEyKW4oW2NIXW4yKVtDSDJdW0NASF0oW09IXSlbQ0gyXU4zW0NIMl1bQ0gyXVtOSF1DKD1PKVtDSDJdMw==

> <s_epik_cmdline>
J2VwaWtfcHl0aG9uJywgJy1waCcsICc3LjAnLCAnLXRuJywgJzgnLCAnLW1hJywgJzIwMCcsICctbWV0YWxfYmluZGluZycsICctaW1hZScsICc8aW5maWxlLm1hZT4nLCAnLW9tYWUnLCAnPG91dGZpbGUubWFlPic=

> <r_epik_Ionization_Penalty>
1.40166

> <r_epik_Ionization_Penalty_Charging>
0

> <r_epik_Ionization_Penalty_Neutral>
1.40166

> <r_epik_State_Penalty>
1.44226

> <r_epik_Charging_Adjusted_Penalty>
1.44226

> <i_epik_Tot_Q>
0

> <i_epik_Tot_abs_Q>
0

> <r_epik_Metal_State_Penalty>
1.50267

> <b_epik_Metal_Only>
0

> <s_lp_Force_Field>
OPLS_2005

> <r_lp_Energy>
30.6142

> <b_lp_Chiralities_Consistent>
1

> <s_lp_Variant>
AV-unprocessed.smi:1056-9

> <Gold.Version>
5.8.1

> <Gold.Id.Protein>
6NUR|6NUR_protein|mol2

> <Gold.PLP.Fitness>
54.2939

> <Gold.PLP.PLP>
-46.8077

> <Gold.PLP.part.hbond>
-3.0000

> <Gold.PLP.part.metal>
0.0000

> <Gold.PLP.part.buried>
-7.1578

> <Gold.PLP.part.nonpolar>
-36.8898

> <Gold.PLP.part.repulsive>
0.2992

> <Gold.PLP.ligand.clash>
0.0611

> <Gold.PLP.ligand.torsion>
0.6915

> <Gold.PLP.Chemscore.Hbond>
2.9600

> <Gold.PLP.Chemscore.CHOScore>
0.0000

> <Gold.PLP.Chemscore.Metal>
0.0000

> <Gold.Chemscore.Hbonds>
donor molecule, donor type, donor heavy atom, donor atom, acceptor molecule, acceptor atom, score
      L1  H    10    31       P1  7957  0.82
      P1  H  7989  7998       L1    10  0.81
      P1  H  7997  8010       L1     5  0.65

> <Gold.PLP.Chemscore.Internal.Correction>
0.0504

> <Gold.Rescore>
     Score         DG    S(hbond)    S(metal)    S(lipo)     H(rot)  DE(clash)    DE(int)     intcor
     18.38     -20.06       2.34        0.00     108.40       2.31       0.13       1.56       ----

> <Gold.Chemscore.Fitness>
18.3764

> <Gold.Chemscore.DG>
-20.0642

> <Gold.Chemscore.ZeroCoef>
-5.4800

> <Gold.Chemscore.Hbond>
2.3433

> <Gold.Chemscore.Metal>
0.0000

> <Gold.Chemscore.Lipo>
108.4044

> <Gold.Chemscore.Internal_Hbond>
0.0000

> <Gold.Chemscore.DEClash>
0.1294

> <Gold.Chemscore.DEInternal>
1.5584

> <Gold.Chemscore.Rot>
2.3147

> <Gold.Chemscore.Internal.Correction>
   9.000000E+99

> <Gold.Chemscore.Hbonds>
donor molecule, donor type, donor heavy atom, donor atom, acceptor molecule, acceptor atom, score
      L1  H    10    31       P1  7957  0.81
      P1  H  7989  7998       L1    10  0.15
      P1  H  7997  8010       L1     5  0.03

> <Gold.Chemscore.Hbond.Weighted>
-7.8265

> <Gold.Chemscore.Metal.Weighted>
-0.0000

> <Gold.Chemscore.Lipo.Weighted>
-12.6833

> <Gold.Chemscore.Internal_Hbond.Weighted>
0.0000

> <Gold.Chemscore.DEClash.Weighted>
0.1294

> <Gold.Chemscore.DEInternal.Weighted>
1.5584

> <Gold.Chemscore.Rot.Weighted>
5.9256

> <Gold.Chemscore.Internal.Correction.Weighted>
   9.000000E+99

> <Gold.Protein.RotatedTorsions>
[ 6907 6896 6895 6894 ] final -165.67 input  -60.11 | X-H torsion
[ 7974 7965 7964 7962 ] final   78.83 input  175.53 | X-H torsion
[ 8008 7997 7996 7995 ] final   60.36 input   59.86 | X-H torsion
[ 10167 10162 10161 10158 ] final   14.50 input  -65.29 | X-H torsion
[ 10718 10713 10712 10709 ] final  115.22 input   66.30 | X-H torsion
[ 10763 10752 10751 10750 ] final  -62.14 input  -60.55 | X-H torsion
[ 11005 11000 10999 10996 ] final -123.30 input  -57.11 | X-H torsion

> <Gold.Protein.ActiveResidues>
 VAL166  LYS551  ARG553  GLY616  TRP617  ASP618  TYR619  PRO620  LYS621  CYS622 
 ASP623  PHE694  ASN695  SER759  ASP760  ASP761  ALA762  ILE779  LEU786  VAL792 
 PHE793  MET794  SER795  GLU796  ALA797  LYS798  CYS799  TRP800  GLU811  SER814 

> <Gold.Protein.RotatedAtoms>
  151.4313  133.3669  159.2768 H   0  0  0  0  0  0  0  0  0  0  0  0  # atno 6907 bound_to 6896
  150.9223  134.8642  159.7507 H   0  0  0  0  0  0  0  0  0  0  0  0  # atno 6908 bound_to 6896
  152.4988  134.4252  159.9546 H   0  0  0  0  0  0  0  0  0  0  0  0  # atno 6909 bound_to 6896
  145.6720  139.2499  143.1863 H   0  0  0  0  0  0  0  0  0  0  0  0  # atno 7974 bound_to 7965
  155.5810  140.3491  155.4540 H   0  0  0  0  0  0  0  0  0  0  0  0  # atno 8008 bound_to 7997
  156.0373  140.1288  157.0219 H   0  0  0  0  0  0  0  0  0  0  0  0  # atno 8009 bound_to 7997
  154.4377  140.1031  156.6172 H   0  0  0  0  0  0  0  0  0  0  0  0  # atno 8010 bound_to 7997
  140.5931  143.8755  150.6892 H   0  0  0  0  0  0  0  0  0  0  0  0  # atno 10167 bound_to 10162
  157.6235  131.1009  150.7298 H   0  0  0  0  0  0  0  0  0  0  0  0  # atno 10718 bound_to 10713
  154.2954  135.6245  153.5402 H   0  0  0  0  0  0  0  0  0  0  0  0  # atno 10763 bound_to 10752
  152.9847  135.5665  154.5344 H   0  0  0  0  0  0  0  0  0  0  0  0  # atno 10764 bound_to 10752
  154.4963  135.2870  155.1432 H   0  0  0  0  0  0  0  0  0  0  0  0  # atno 10765 bound_to 10752
  140.9929  134.0512  157.3632 H   0  0  0  0  0  0  0  0  0  0  0  0  # atno 11005 bound_to 11000
  146.1037  140.7513  142.9536 LP  0  0  0  0  0  0  0  0  0  0  0  0  # atno 17320 bound_to 7965
  144.7054  140.3828  143.7122 LP  0  0  0  0  0  0  0  0  0  0  0  0  # atno 17321 bound_to 7965
  140.2283  143.3755  152.1586 LP  0  0  0  0  0  0  0  0  0  0  0  0  # atno 17342 bound_to 10162
  139.5240  144.7079  151.5298 LP  0  0  0  0  0  0  0  0  0  0  0  0  # atno 17343 bound_to 10162
  156.7651  130.4811  149.5429 LP  0  0  0  0  0  0  0  0  0  0  0  0  # atno 17370 bound_to 10713
  156.1393  130.6233  151.0445 LP  0  0  0  0  0  0  0  0  0  0  0  0  # atno 17371 bound_to 10713
  139.9001  135.0161  156.7226 LP  0  0  0  0  0  0  0  0  0  0  0  0  # atno 17394 bound_to 11000
  140.7011  133.9306  155.8025 LP  0  0  0  0  0  0  0  0  0  0  0  0  # atno 17395 bound_to 11000

$$$$
