AV-unprocessed.smi:420|AV-procd|sdf|2533|dock9
  -GOLD-   2262022493D 1   1.00000     0.00000
 Structure written by MMmdl.
 36 38  0  0  0  0  0  0  0  0  1 V2000
  153.0233  143.3412  163.3873 C   0  0  0  0  0  0  0  0  0  0  0  0
  153.0352  142.8570  162.0121 N   0  0  0  0  0  0  0  0  0  0  0  0
  152.5579  143.4947  160.9178 C   0  0  0  0  0  0  0  0  0  0  0  0
  152.0280  144.6056  160.8988 O   0  0  0  0  0  0  0  0  0  0  0  0
  152.7714  142.6994  159.8424 N   0  0  0  0  0  0  0  0  0  0  0  0
  152.4148  142.9983  158.4561 C   0  0  0  0  0  0  0  0  0  0  0  0
  150.8888  142.9754  158.2378 C   0  0  1  0  0  0  0  0  0  0  0  0
  150.4526  144.2920  157.9612 O   0  0  0  0  0  0  0  0  0  0  0  0
  150.5138  142.0152  157.1190 C   0  0  0  0  0  0  0  0  0  0  0  0
  149.2192  142.0330  156.5532 C   0  0  0  0  0  0  0  0  0  0  0  0
  148.8875  141.1455  155.5110 C   0  0  0  0  0  0  0  0  0  0  0  0
  149.8487  140.2385  155.0249 C   0  0  0  0  0  0  0  0  0  0  0  0
  149.5304  139.3871  154.0213 F   0  0  0  0  0  0  0  0  0  0  0  0
  151.1417  140.2192  155.5819 C   0  0  0  0  0  0  0  0  0  0  0  0
  151.4733  141.1054  156.6253 C   0  0  0  0  0  0  0  0  0  0  0  0
  153.4116  141.5235  160.2605 C   0  0  0  0  0  0  0  0  0  0  0  0
  153.8552  140.4008  159.5395 C   0  0  0  0  0  0  0  0  0  0  0  0
  154.4777  139.3647  160.2747 C   0  0  0  0  0  0  0  0  0  0  0  0
  154.6425  139.4679  161.6806 C   0  0  0  0  0  0  0  0  0  0  0  0
  154.1902  140.6107  162.3811 C   0  0  0  0  0  0  0  0  0  0  0  0
  153.5752  141.6238  161.6262 C   0  0  0  0  0  0  0  0  0  0  0  0
  152.5395  144.3148  163.4759 H   0  0  0  0  0  0  0  0  0  0  0  0
  154.0430  143.4366  163.7610 H   0  0  0  0  0  0  0  0  0  0  0  0
  152.4885  142.6401  164.0282 H   0  0  0  0  0  0  0  0  0  0  0  0
  152.8463  143.9453  158.1297 H   0  0  0  0  0  0  0  0  0  0  0  0
  152.8803  142.2343  157.8309 H   0  0  0  0  0  0  0  0  0  0  0  0
  150.3865  142.6474  159.1489 H   0  0  0  0  0  0  0  0  0  0  0  0
  150.0040  144.2893  157.1296 H   0  0  0  0  0  0  0  0  0  0  0  0
  148.4762  142.7290  156.9143 H   0  0  0  0  0  0  0  0  0  0  0  0
  147.8961  141.1621  155.0832 H   0  0  0  0  0  0  0  0  0  0  0  0
  151.8804  139.5254  155.2082 H   0  0  0  0  0  0  0  0  0  0  0  0
  152.4693  141.0853  157.0433 H   0  0  0  0  0  0  0  0  0  0  0  0
  153.7319  140.3278  158.4693 H   0  0  0  0  0  0  0  0  0  0  0  0
  154.8327  138.4845  159.7592 H   0  0  0  0  0  0  0  0  0  0  0  0
  155.1206  138.6650  162.2221 H   0  0  0  0  0  0  0  0  0  0  0  0
  154.3139  140.6987  163.4503 H   0  0  0  0  0  0  0  0  0  0  0  0
  1  2  1  0  0  0  0
  1 22  1  0  0  0  0
  1 23  1  0  0  0  0
  1 24  1  0  0  0  0
  2 21  1  0  0  0  0
  2  3  1  0  0  0  0
  3  4  2  0  0  0  0
  3  5  1  0  0  0  0
  5  6  1  0  0  0  0
  5 16  1  0  0  0  0
  6  7  1  0  0  0  0
  6 25  1  0  0  0  0
  6 26  1  0  0  0  0
  7  8  1  0  0  0  0
  7  9  1  0  0  0  0
  7 27  1  0  0  0  0
  8 28  1  0  0  0  0
  9 15  1  0  0  0  0
  9 10  2  0  0  0  0
 10 11  1  0  0  0  0
 10 29  1  0  0  0  0
 11 12  2  0  0  0  0
 11 30  1  0  0  0  0
 12 13  1  0  0  0  0
 12 14  1  0  0  0  0
 14 15  2  0  0  0  0
 14 31  1  0  0  0  0
 15 32  1  0  0  0  0
 16 21  2  0  0  0  0
 16 17  1  0  0  0  0
 17 18  2  0  0  0  0
 17 33  1  0  0  0  0
 18 19  1  0  0  0  0
 18 34  1  0  0  0  0
 19 20  2  0  0  0  0
 19 35  1  0  0  0  0
 20 21  1  0  0  0  0
 20 36  1  0  0  0  0
M  END
> <s_m_source_file>
AV-unprocessed.smi

> <i_m_source_file_index>
420

> <i_lp_mmshare_version>
43012

> <i_f3d_flags>
0

> <s_epik_input>
W2NIXTFbY0hdW2NIXVtjSF1jKGMxMiluKFtDSDNdKWMoPU8pbjJbQ0gyXVtDQEhdKFtPSF0pYzNbY0hdW2NIXWMoRilbY0hdW2NIXTM=

> <s_epik_cmdline>
J2VwaWtfcHl0aG9uJywgJy1waCcsICc3LjAnLCAnLXRuJywgJzgnLCAnLW1hJywgJzIwMCcsICctbWV0YWxfYmluZGluZycsICctaW1hZScsICc8aW5maWxlLm1hZT4nLCAnLW9tYWUnLCAnPG91dGZpbGUubWFlPic=

> <r_lp_tautomer_probability>
1

> <r_epik_Ionization_Penalty>
1.79795e-06

> <r_epik_Ionization_Penalty_Charging>
2.57375e-09

> <r_epik_Ionization_Penalty_Neutral>
1.79538e-06

> <r_epik_State_Penalty>
-0

> <r_epik_Charging_Adjusted_Penalty>
2.57375e-09

> <i_epik_Tot_Q>
0

> <i_epik_Tot_abs_Q>
0

> <r_epik_Metal_State_Penalty>
-0

> <b_epik_Metal_Only>
0

> <s_lp_Force_Field>
OPLS_2005

> <r_lp_Energy>
43.03

> <b_lp_Chiralities_Consistent>
1

> <s_lp_Variant>
AV-unprocessed.smi:420-2

> <Gold.Version>
5.8.1

> <Gold.Id.Protein>
6NUR|6NUR_protein|mol2

> <Gold.PLP.Fitness>
50.8830

> <Gold.PLP.PLP>
-50.1434

> <Gold.PLP.part.hbond>
-1.6738

> <Gold.PLP.part.metal>
0.0000

> <Gold.PLP.part.buried>
-1.6820

> <Gold.PLP.part.nonpolar>
-44.7239

> <Gold.PLP.part.repulsive>
0.1617

> <Gold.PLP.ligand.clash>
0.0000

> <Gold.PLP.ligand.torsion>
1.1338

> <Gold.PLP.Chemscore.Hbond>
1.0000

> <Gold.PLP.Chemscore.CHOScore>
0.0000

> <Gold.PLP.Chemscore.Metal>
0.0000

> <Gold.Chemscore.Hbonds>
donor molecule, donor type, donor heavy atom, donor atom, acceptor molecule, acceptor atom, score
      L1  H     8    28       P1  8028  1.00

> <Gold.PLP.Chemscore.Internal.Correction>
0.0071

> <Gold.Rescore>
     Score         DG    S(hbond)    S(metal)    S(lipo)     H(rot)  DE(clash)    DE(int)     intcor
     16.38     -18.10       0.87        0.00     123.58       1.85       0.44       1.28       ----

> <Gold.Chemscore.Fitness>
16.3842

> <Gold.Chemscore.DG>
-18.1039

> <Gold.Chemscore.ZeroCoef>
-5.4800

> <Gold.Chemscore.Hbond>
0.8658

> <Gold.Chemscore.Metal>
0.0000

> <Gold.Chemscore.Lipo>
123.5813

> <Gold.Chemscore.Internal_Hbond>
0.0000

> <Gold.Chemscore.DEClash>
0.4424

> <Gold.Chemscore.DEInternal>
1.2772

> <Gold.Chemscore.Rot>
1.8465

> <Gold.Chemscore.Internal.Correction>
   9.000000E+99

> <Gold.Chemscore.Hbonds>
donor molecule, donor type, donor heavy atom, donor atom, acceptor molecule, acceptor atom, score
      L1  H     8    28       P1  8028  0.70

> <Gold.Chemscore.Hbond.Weighted>
-2.8919

> <Gold.Chemscore.Metal.Weighted>
-0.0000

> <Gold.Chemscore.Lipo.Weighted>
-14.4590

> <Gold.Chemscore.Internal_Hbond.Weighted>
0.0000

> <Gold.Chemscore.DEClash.Weighted>
0.4424

> <Gold.Chemscore.DEInternal.Weighted>
1.2772

> <Gold.Chemscore.Rot.Weighted>
4.7270

> <Gold.Chemscore.Internal.Correction.Weighted>
   9.000000E+99

> <Gold.Protein.RotatedTorsions>
[ 6907 6896 6895 6894 ] final -114.18 input  -60.11 | X-H torsion
[ 7974 7965 7964 7962 ] final  151.90 input  175.53 | X-H torsion
[ 8008 7997 7996 7995 ] final  -96.29 input   59.86 | X-H torsion
[ 10167 10162 10161 10158 ] final   49.01 input  -65.29 | X-H torsion
[ 10718 10713 10712 10709 ] final  147.82 input   66.30 | X-H torsion
[ 10763 10752 10751 10750 ] final  -79.34 input  -60.55 | X-H torsion
[ 11005 11000 10999 10996 ] final   66.69 input  -57.11 | X-H torsion

> <Gold.Protein.ActiveResidues>
 VAL166  LYS551  ARG553  GLY616  TRP617  ASP618  TYR619  PRO620  LYS621  CYS622 
 ASP623  PHE694  ASN695  SER759  ASP760  ASP761  ALA762  ILE779  LEU786  VAL792 
 PHE793  MET794  SER795  GLU796  ALA797  LYS798  CYS799  TRP800  GLU811  SER814 

> <Gold.Protein.RotatedAtoms>
  150.7883  133.8839  159.3293 H   0  0  0  0  0  0  0  0  0  0  0  0  # atno 6907 bound_to 6896
  151.6683  135.0978  160.0202 H   0  0  0  0  0  0  0  0  0  0  0  0  # atno 6908 bound_to 6896
  152.3952  133.6697  159.6305 H   0  0  0  0  0  0  0  0  0  0  0  0  # atno 6909 bound_to 6896
  144.8260  139.6598  143.6080 H   0  0  0  0  0  0  0  0  0  0  0  0  # atno 7974 bound_to 7965
  154.7725  140.0472  157.1063 H   0  0  0  0  0  0  0  0  0  0  0  0  # atno 8008 bound_to 7997
  154.9803  140.3100  155.4930 H   0  0  0  0  0  0  0  0  0  0  0  0  # atno 8009 bound_to 7997
  156.2923  140.2237  156.4901 H   0  0  0  0  0  0  0  0  0  0  0  0  # atno 8010 bound_to 7997
  140.2874  144.3086  150.6249 H   0  0  0  0  0  0  0  0  0  0  0  0  # atno 10167 bound_to 10162
  157.3162  131.0896  151.1277 H   0  0  0  0  0  0  0  0  0  0  0  0  # atno 10718 bound_to 10713
  154.5373  135.5699  153.6809 H   0  0  0  0  0  0  0  0  0  0  0  0  # atno 10763 bound_to 10752
  152.9954  135.6219  154.2549 H   0  0  0  0  0  0  0  0  0  0  0  0  # atno 10764 bound_to 10752
  154.2478  135.2860  155.2808 H   0  0  0  0  0  0  0  0  0  0  0  0  # atno 10765 bound_to 10752
  139.9816  134.6735  156.0252 H   0  0  0  0  0  0  0  0  0  0  0  0  # atno 11005 bound_to 11000
  146.2565  139.6313  142.9391 LP  0  0  0  0  0  0  0  0  0  0  0  0  # atno 17320 bound_to 7965
  145.5000  141.0437  143.2545 LP  0  0  0  0  0  0  0  0  0  0  0  0  # atno 17321 bound_to 7965
  140.5761  143.2176  151.7512 LP  0  0  0  0  0  0  0  0  0  0  0  0  # atno 17342 bound_to 10162
  139.4947  144.4147  152.0042 LP  0  0  0  0  0  0  0  0  0  0  0  0  # atno 17343 bound_to 10162
  157.2580  130.6645  149.5961 LP  0  0  0  0  0  0  0  0  0  0  0  0  # atno 17370 bound_to 10713
  155.9682  130.4517  150.5748 LP  0  0  0  0  0  0  0  0  0  0  0  0  # atno 17371 bound_to 10713
  141.1487  133.6552  156.3947 LP  0  0  0  0  0  0  0  0  0  0  0  0  # atno 17394 bound_to 11000
  140.5085  134.6418  157.5275 LP  0  0  0  0  0  0  0  0  0  0  0  0  # atno 17395 bound_to 11000

$$$$
