AV-unprocessed.smi:2124|AV-procd|sdf|8672|dock1
  -GOLD-   2272011423D 1   1.00000     0.00000
 Structure written by MMmdl.
 46 48  0  0  0  0  0  0  0  0  2 V2000
  154.3847  134.3211  161.7390 C   0  0  0  0  0  0  0  0  0  0  0  0
  154.0564  135.4236  160.7552 C   0  0  0  0  0  0  0  0  0  0  0  0
  153.9990  136.6304  161.1722 N   0  0  0  0  0  0  0  0  0  0  0  0
  153.7093  137.6630  160.2647 C   0  0  0  0  0  0  0  0  0  0  0  0
  153.6867  139.0666  160.8444 C   0  0  0  0  0  0  0  0  0  0  0  0
  153.4833  137.4006  158.9453 C   0  0  0  0  0  0  0  0  0  0  0  0
  153.2113  138.4935  157.9095 C   0  0  0  0  0  0  0  0  0  0  0  0
  151.8626  139.1960  158.0704 C   0  0  0  0  0  0  0  0  0  0  0  0
  150.8322  138.5383  158.2159 O   0  0  0  0  0  0  0  0  0  0  0  0
  151.8994  140.5365  158.0853 N   0  0  0  0  0  0  0  0  0  0  0  0
  150.8143  141.4174  158.5011 C   0  0  2  0  0  0  0  0  0  0  0  0
  149.5405  141.0820  157.7099 C   0  0  0  0  0  0  0  0  0  0  0  0
  151.2567  142.8878  158.3098 C   0  0  1  0  0  0  0  0  0  0  0  0
  150.3308  143.9341  158.9687 C   0  0  0  0  0  0  0  0  0  0  0  0
  151.3145  144.8141  159.7641 C   0  0  1  0  0  0  0  0  0  0  0  0
  151.8014  144.0367  161.0011 C   0  0  0  0  0  0  0  0  0  0  0  0
  152.7454  142.9852  160.3903 C   0  0  0  0  0  0  0  0  0  0  0  0
  152.6465  143.2767  158.8792 C   0  0  2  0  0  0  0  0  0  0  0  0
  152.5533  144.7984  158.8759 C   0  0  0  0  0  0  0  0  0  0  0  0
  153.5566  135.9956  158.5056 C   0  0  0  0  0  0  0  0  0  0  0  0
  153.3755  135.7048  157.3240 O   0  0  0  0  0  0  0  0  0  0  0  0
  153.8439  135.0520  159.4467 N   0  5  0  0  0  0  0  0  0  0  0  0
  154.0522  134.5867  162.7432 H   0  0  0  0  0  0  0  0  0  0  0  0
  155.4611  134.1518  161.7653 H   0  0  0  0  0  0  0  0  0  0  0  0
  153.8947  133.3884  161.4564 H   0  0  0  0  0  0  0  0  0  0  0  0
  154.4291  139.6969  160.3551 H   0  0  0  0  0  0  0  0  0  0  0  0
  153.9105  139.0566  161.9119 H   0  0  0  0  0  0  0  0  0  0  0  0
  152.7040  139.5194  160.7129 H   0  0  0  0  0  0  0  0  0  0  0  0
  154.0000  139.2465  157.9147 H   0  0  0  0  0  0  0  0  0  0  0  0
  153.2557  138.0504  156.9144 H   0  0  0  0  0  0  0  0  0  0  0  0
  152.7967  140.9749  157.9316 H   0  0  0  0  0  0  0  0  0  0  0  0
  150.6043  141.2542  159.5594 H   0  0  0  0  0  0  0  0  0  0  0  0
  148.7076  141.7157  158.0153 H   0  0  0  0  0  0  0  0  0  0  0  0
  149.2398  140.0464  157.8718 H   0  0  0  0  0  0  0  0  0  0  0  0
  149.6895  141.2215  156.6387 H   0  0  0  0  0  0  0  0  0  0  0  0
  151.2859  143.0874  157.2367 H   0  0  0  0  0  0  0  0  0  0  0  0
  149.8121  144.5168  158.2067 H   0  0  0  0  0  0  0  0  0  0  0  0
  149.5739  143.4891  159.6157 H   0  0  0  0  0  0  0  0  0  0  0  0
  150.9246  145.8054  159.9971 H   0  0  0  0  0  0  0  0  0  0  0  0
  152.3468  144.6897  161.6834 H   0  0  0  0  0  0  0  0  0  0  0  0
  150.9788  143.5843  161.5561 H   0  0  0  0  0  0  0  0  0  0  0  0
  153.7667  143.1414  160.7401 H   0  0  0  0  0  0  0  0  0  0  0  0
  152.4686  141.9650  160.6531 H   0  0  0  0  0  0  0  0  0  0  0  0
  153.4835  142.8781  158.3044 H   0  0  0  0  0  0  0  0  0  0  0  0
  152.3822  145.2216  157.8845 H   0  0  0  0  0  0  0  0  0  0  0  0
  153.4187  145.2864  159.3282 H   0  0  0  0  0  0  0  0  0  0  0  0
  1  2  1  0  0  0  0
  1 23  1  0  0  0  0
  1 24  1  0  0  0  0
  1 25  1  0  0  0  0
  2 22  1  0  0  0  0
  2  3  2  0  0  0  0
  3  4  1  0  0  0  0
  4  5  1  0  0  0  0
  4  6  2  0  0  0  0
  5 26  1  0  0  0  0
  5 27  1  0  0  0  0
  5 28  1  0  0  0  0
  6  7  1  0  0  0  0
  6 20  1  0  0  0  0
  7  8  1  0  0  0  0
  7 29  1  0  0  0  0
  7 30  1  0  0  0  0
  8  9  2  0  0  0  0
  8 10  1  0  0  0  0
 10 11  1  0  0  0  0
 10 31  1  0  0  0  0
 11 12  1  0  0  0  0
 11 13  1  0  0  0  0
 11 32  1  0  0  0  0
 12 33  1  0  0  0  0
 12 34  1  0  0  0  0
 12 35  1  0  0  0  0
 13 18  1  0  0  0  0
 13 14  1  0  0  0  0
 13 36  1  0  0  0  0
 14 15  1  0  0  0  0
 14 37  1  0  0  0  0
 14 38  1  0  0  0  0
 15 19  1  0  0  0  0
 15 16  1  0  0  0  0
 15 39  1  0  0  0  0
 16 17  1  0  0  0  0
 16 40  1  0  0  0  0
 16 41  1  0  0  0  0
 17 18  1  0  0  0  0
 17 42  1  0  0  0  0
 17 43  1  0  0  0  0
 18 19  1  0  0  0  0
 18 44  1  0  0  0  0
 19 45  1  0  0  0  0
 19 46  1  0  0  0  0
 20 21  2  0  0  0  0
 20 22  1  0  0  0  0
M  CHG  1  22  -1
M  END
> <s_m_source_file>
AV-unprocessed.smi

> <i_m_source_file_index>
2124

> <i_lp_mmshare_version>
43012

> <i_f3d_flags>
0

> <s_epik_input>
W0NIM11jMW5jKFtDSDNdKWMoYyg9TylbbkhdMSlbQ0gyXUMoPU8pW05IXVtDQEhdKFtDSDNdKVtDQEhdKFtDSDJdW0NASF0yMylbQ0BIXShbQ0gyXTMpW0NIMl1bQ0gyXTI=

> <s_epik_cmdline>
J2VwaWtfcHl0aG9uJywgJy1waCcsICc3LjAnLCAnLXRuJywgJzgnLCAnLW1hJywgJzIwMCcsICctbWV0YWxfYmluZGluZycsICctaW1hZScsICc8aW5maWxlLm1hZT4nLCAnLW9tYWUnLCAnPG91dGZpbGUubWFlPic=

> <r_lp_tautomer_probability>
0.839158

> <r_epik_Ionization_Penalty>
6.63797

> <r_epik_Ionization_Penalty_Charging>
7.48558e-08

> <r_epik_Ionization_Penalty_Neutral>
6.63797

> <r_epik_State_Penalty>
4.49496

> <r_epik_Charging_Adjusted_Penalty>
4.49496

> <i_epik_Tot_Q>
-1

> <i_epik_Tot_abs_Q>
1

> <r_epik_Metal_State_Penalty>
0.841241

> <b_epik_Metal_Only>
1

> <s_lp_Force_Field>
OPLS_2005

> <r_lp_Energy>
53.1649

> <b_lp_Chiralities_Consistent>
1

> <s_lp_Variant>
AV-unprocessed.smi:2124-23

> <Gold.Version>
5.8.1

> <Gold.Id.Protein>
6NUR|6NUR_protein|mol2

> <Gold.PLP.Fitness>
46.1117

> <Gold.PLP.PLP>
-37.7216

> <Gold.PLP.part.hbond>
-1.9879

> <Gold.PLP.part.metal>
0.0000

> <Gold.PLP.part.buried>
-4.6797

> <Gold.PLP.part.nonpolar>
-31.6699

> <Gold.PLP.part.repulsive>
0.0864

> <Gold.PLP.ligand.clash>
0.0000

> <Gold.PLP.ligand.torsion>
0.2993

> <Gold.PLP.Chemscore.Hbond>
2.9825

> <Gold.PLP.Chemscore.CHOScore>
0.0000

> <Gold.PLP.Chemscore.Metal>
0.0000

> <Gold.Chemscore.Hbonds>
donor molecule, donor type, donor heavy atom, donor atom, acceptor molecule, acceptor atom, score
      P1  H  6896  6908       L1    22  1.10
      P1  H 10752 10763       L1    21  1.00

> <Gold.PLP.Chemscore.Internal.Correction>
0.0412

> <Gold.Rescore>
     Score         DG    S(hbond)    S(metal)    S(lipo)     H(rot)  DE(clash)    DE(int)     intcor
     15.93     -19.02       1.26        0.00     114.82       1.61       1.21       1.88       ----

> <Gold.Chemscore.Fitness>
15.9299

> <Gold.Chemscore.DG>
-19.0185

> <Gold.Chemscore.ZeroCoef>
-5.4800

> <Gold.Chemscore.Hbond>
1.2616

> <Gold.Chemscore.Metal>
0.0000

> <Gold.Chemscore.Lipo>
114.8187

> <Gold.Chemscore.Internal_Hbond>
0.0000

> <Gold.Chemscore.DEClash>
1.2105

> <Gold.Chemscore.DEInternal>
1.8781

> <Gold.Chemscore.Rot>
1.6051

> <Gold.Chemscore.Internal.Correction>
   9.000000E+99

> <Gold.Chemscore.Hbonds>
donor molecule, donor type, donor heavy atom, donor atom, acceptor molecule, acceptor atom, score
      P1  H  6896  6908       L1    22  0.02
      P1  H 10752 10763       L1    21  0.96

> <Gold.Chemscore.Hbond.Weighted>
-4.2137

> <Gold.Chemscore.Metal.Weighted>
-0.0000

> <Gold.Chemscore.Lipo.Weighted>
-13.4338

> <Gold.Chemscore.Internal_Hbond.Weighted>
0.0000

> <Gold.Chemscore.DEClash.Weighted>
1.2105

> <Gold.Chemscore.DEInternal.Weighted>
1.8781

> <Gold.Chemscore.Rot.Weighted>
4.1090

> <Gold.Chemscore.Internal.Correction.Weighted>
   9.000000E+99

> <Gold.Protein.RotatedTorsions>
[ 6907 6896 6895 6894 ] final  -31.25 input  -60.11 | X-H torsion
[ 7974 7965 7964 7962 ] final  128.24 input  175.53 | X-H torsion
[ 8008 7997 7996 7995 ] final  -29.72 input   59.86 | X-H torsion
[ 10167 10162 10161 10158 ] final  -22.30 input  -65.29 | X-H torsion
[ 10718 10713 10712 10709 ] final  125.36 input   66.30 | X-H torsion
[ 10763 10752 10751 10750 ] final  135.94 input  -60.55 | X-H torsion
[ 11005 11000 10999 10996 ] final   63.98 input  -57.11 | X-H torsion

> <Gold.Protein.ActiveResidues>
 VAL166  LYS551  ARG553  GLY616  TRP617  ASP618  TYR619  PRO620  LYS621  CYS622 
 ASP623  PHE694  ASN695  SER759  ASP760  ASP761  ALA762  ILE779  LEU786  VAL792 
 PHE793  MET794  SER795  GLU796  ALA797  LYS798  CYS799  TRP800  GLU811  SER814 

> <Gold.Protein.RotatedAtoms>
  151.0946  134.9936  159.8418 H   0  0  0  0  0  0  0  0  0  0  0  0  # atno 6907 bound_to 6896
  152.5432  134.2024  159.8727 H   0  0  0  0  0  0  0  0  0  0  0  0  # atno 6908 bound_to 6896
  151.2062  133.4538  159.2630 H   0  0  0  0  0  0  0  0  0  0  0  0  # atno 6909 bound_to 6896
  145.0417  139.3958  143.5099 H   0  0  0  0  0  0  0  0  0  0  0  0  # atno 7974 bound_to 7965
  154.4278  140.1810  156.1293 H   0  0  0  0  0  0  0  0  0  0  0  0  # atno 8008 bound_to 7997
  156.0081  140.3353  155.6887 H   0  0  0  0  0  0  0  0  0  0  0  0  # atno 8009 bound_to 7997
  155.6150  140.0654  157.2686 H   0  0  0  0  0  0  0  0  0  0  0  0  # atno 8010 bound_to 7997
  140.7285  143.4547  151.0465 H   0  0  0  0  0  0  0  0  0  0  0  0  # atno 10167 bound_to 10162
  157.5510  131.1094  150.8703 H   0  0  0  0  0  0  0  0  0  0  0  0  # atno 10718 bound_to 10713
  153.8483  135.3082  155.3431 H   0  0  0  0  0  0  0  0  0  0  0  0  # atno 10763 bound_to 10752
  154.7902  135.4786  154.0039 H   0  0  0  0  0  0  0  0  0  0  0  0  # atno 10764 bound_to 10752
  153.1534  135.6847  153.8941 H   0  0  0  0  0  0  0  0  0  0  0  0  # atno 10765 bound_to 10752
  139.9989  134.6474  155.9964 H   0  0  0  0  0  0  0  0  0  0  0  0  # atno 11005 bound_to 11000
  146.3510  140.0021  142.8675 LP  0  0  0  0  0  0  0  0  0  0  0  0  # atno 17320 bound_to 7965
  145.1640  140.9687  143.4361 LP  0  0  0  0  0  0  0  0  0  0  0  0  # atno 17321 bound_to 7965
  139.8226  143.7799  152.3177 LP  0  0  0  0  0  0  0  0  0  0  0  0  # atno 17342 bound_to 10162
  139.7887  144.7418  150.9986 LP  0  0  0  0  0  0  0  0  0  0  0  0  # atno 17343 bound_to 10162
  156.9228  130.5321  149.5279 LP  0  0  0  0  0  0  0  0  0  0  0  0  # atno 17370 bound_to 10713
  156.0576  130.5635  150.9125 LP  0  0  0  0  0  0  0  0  0  0  0  0  # atno 17371 bound_to 10713
  141.1626  133.6538  156.4370 LP  0  0  0  0  0  0  0  0  0  0  0  0  # atno 17394 bound_to 11000
  140.4766  134.6704  157.5153 LP  0  0  0  0  0  0  0  0  0  0  0  0  # atno 17395 bound_to 11000

$$$$
