AV-unprocessed.smi:2247|AV-procd|sdf|9088|dock7
  -GOLD-   2272012293D 1   1.00000     0.00000
 Structure written by MMmdl.
 34 35  0  0  0  0  0  0  0  0  1 V2000
  152.7834  142.9123  162.1234 C   0  0  0  0  0  0  0  0  0  0  0  0
  152.5818  143.6894  160.8101 C   0  0  0  0  0  0  0  0  0  0  0  0
  151.4565  144.7297  160.9239 C   0  0  0  0  0  0  0  0  0  0  0  0
  152.3451  142.8033  159.6626 N   0  0  0  0  0  0  0  0  0  0  0  0
  152.4217  141.3550  159.7675 C   0  0  0  0  0  0  0  0  0  0  0  0
  151.7815  140.8412  158.4744 C   0  0  0  0  0  0  0  0  0  0  0  0
  151.8573  142.0076  157.4766 C   0  0  1  0  0  0  0  0  0  0  0  0
  150.6195  142.0878  156.7023 N   0  0  0  0  0  0  0  0  0  0  0  0
  150.3025  141.3121  155.6538 C   0  0  0  0  0  0  0  0  0  0  0  0
  151.0668  140.4314  155.2462 O   0  0  0  0  0  0  0  0  0  0  0  0
  149.0441  141.6454  155.1769 N   0  0  0  0  0  0  0  0  0  0  0  0
  148.3429  140.7472  154.5572 C   0  0  0  0  0  0  0  0  0  0  0  0
  147.0802  140.8915  154.0048 N   0  0  0  0  0  0  0  0  0  0  0  0
  146.7125  139.6904  153.4640 C   0  0  0  0  0  0  0  0  0  0  0  0
  147.7021  138.8252  153.6658 C   0  0  0  0  0  0  0  0  0  0  0  0
  148.7166  139.4417  154.3338 O   0  0  0  0  0  0  0  0  0  0  0  0
  152.0064  143.1970  158.4268 C   0  0  0  0  0  0  0  0  0  0  0  0
  151.8488  144.3633  158.0652 O   0  0  0  0  0  0  0  0  0  0  0  0
  153.0508  143.5885  162.9357 H   0  0  0  0  0  0  0  0  0  0  0  0
  153.5879  142.1818  162.0297 H   0  0  0  0  0  0  0  0  0  0  0  0
  151.8797  142.3829  162.4263 H   0  0  0  0  0  0  0  0  0  0  0  0
  153.5118  144.2306  160.6262 H   0  0  0  0  0  0  0  0  0  0  0  0
  151.6421  145.4175  161.7493 H   0  0  0  0  0  0  0  0  0  0  0  0
  150.4921  144.2522  161.0997 H   0  0  0  0  0  0  0  0  0  0  0  0
  151.3732  145.3248  160.0139 H   0  0  0  0  0  0  0  0  0  0  0  0
  153.4675  141.0502  159.8268 H   0  0  0  0  0  0  0  0  0  0  0  0
  151.9012  140.9814  160.6501 H   0  0  0  0  0  0  0  0  0  0  0  0
  152.2791  139.9465  158.0989 H   0  0  0  0  0  0  0  0  0  0  0  0
  150.7430  140.5710  158.6759 H   0  0  0  0  0  0  0  0  0  0  0  0
  152.7435  141.9262  156.8450 H   0  0  0  0  0  0  0  0  0  0  0  0
  149.9506  142.7886  156.9868 H   0  0  0  0  0  0  0  0  0  0  0  0
  146.4953  141.7145  153.9868 H   0  0  0  0  0  0  0  0  0  0  0  0
  145.7536  139.5798  152.9794 H   0  0  0  0  0  0  0  0  0  0  0  0
  147.8307  137.7843  153.4085 H   0  0  0  0  0  0  0  0  0  0  0  0
  1  2  1  0  0  0  0
  1 19  1  0  0  0  0
  1 20  1  0  0  0  0
  1 21  1  0  0  0  0
  2  3  1  0  0  0  0
  2  4  1  0  0  0  0
  2 22  1  0  0  0  0
  3 23  1  0  0  0  0
  3 24  1  0  0  0  0
  3 25  1  0  0  0  0
  4 17  1  0  0  0  0
  4  5  1  0  0  0  0
  5  6  1  0  0  0  0
  5 26  1  0  0  0  0
  5 27  1  0  0  0  0
  6  7  1  0  0  0  0
  6 28  1  0  0  0  0
  6 29  1  0  0  0  0
  7  8  1  0  0  0  0
  7 17  1  0  0  0  0
  7 30  1  0  0  0  0
  8 31  1  0  0  0  0
  8  9  1  0  0  0  0
  9 11  1  0  0  0  0
  9 10  2  0  0  0  0
 11 12  2  0  0  0  0
 12 16  1  0  0  0  0
 12 13  1  0  0  0  0
 13 32  1  0  0  0  0
 13 14  1  0  0  0  0
 14 33  1  0  0  0  0
 14 15  2  0  0  0  0
 15 34  1  0  0  0  0
 15 16  1  0  0  0  0
 17 18  2  0  0  0  0
M  END
> <s_m_source_file>
AV-unprocessed.smi

> <i_m_source_file_index>
2247

> <i_lp_mmshare_version>
43012

> <i_f3d_flags>
0

> <s_epik_input>
W0NIM11bQ0hdKFtDSDNdKU4xW0NIMl1bQ0gyXVtDQEhdKEMxPU8pW05IXUMoPU8pW05IXWMybltjSF1bY0hdbzI=

> <s_epik_cmdline>
J2VwaWtfcHl0aG9uJywgJy1waCcsICc3LjAnLCAnLXRuJywgJzgnLCAnLW1hJywgJzIwMCcsICctbWV0YWxfYmluZGluZycsICctaW1hZScsICc8aW5maWxlLm1hZT4nLCAnLW9tYWUnLCAnPG91dGZpbGUubWFlPic=

> <r_lp_tautomer_probability>
0.107061

> <r_epik_Ionization_Penalty>
0.180736

> <r_epik_Ionization_Penalty_Charging>
0.180388

> <r_epik_Ionization_Penalty_Neutral>
0.000348501

> <r_epik_State_Penalty>
2.44396

> <r_epik_Charging_Adjusted_Penalty>
2.62435

> <i_epik_Tot_Q>
0

> <i_epik_Tot_abs_Q>
0

> <r_epik_Metal_State_Penalty>
4.38331

> <b_epik_Metal_Only>
0

> <s_lp_Force_Field>
OPLS_2005

> <r_lp_Energy>
44.8331

> <b_lp_Chiralities_Consistent>
1

> <s_lp_Variant>
AV-unprocessed.smi:2247-3

> <Gold.Version>
5.8.1

> <Gold.Id.Protein>
6NUR|6NUR_protein|mol2

> <Gold.PLP.Fitness>
41.8572

> <Gold.PLP.PLP>
-33.7955

> <Gold.PLP.part.hbond>
-1.0630

> <Gold.PLP.part.metal>
0.0000

> <Gold.PLP.part.buried>
-5.6871

> <Gold.PLP.part.nonpolar>
-27.1149

> <Gold.PLP.part.repulsive>
0.8434

> <Gold.PLP.ligand.clash>
0.0000

> <Gold.PLP.ligand.torsion>
0.4961

> <Gold.PLP.Chemscore.Hbond>
0.9920

> <Gold.PLP.Chemscore.CHOScore>
2.0000

> <Gold.PLP.Chemscore.Metal>
0.0000

> <Gold.Chemscore.Hbonds>
donor molecule, donor type, donor heavy atom, donor atom, acceptor molecule, acceptor atom, score
      P1  H  7989  7998       L1    10  1.00
      L1  C    14    33       P1 10175  1.00
      L1  C    15    34       P1  7948  1.00

> <Gold.PLP.Chemscore.Internal.Correction>
0.0780

> <Gold.Rescore>
     Score         DG    S(hbond)    S(metal)    S(lipo)     H(rot)  DE(clash)    DE(int)     intcor
     10.18     -13.58       1.15        0.00      65.55       1.33       0.36       3.04       ----

> <Gold.Chemscore.Fitness>
10.1766

> <Gold.Chemscore.DG>
-13.5762

> <Gold.Chemscore.ZeroCoef>
-5.4800

> <Gold.Chemscore.Hbond>
1.1500

> <Gold.Chemscore.Metal>
0.0000

> <Gold.Chemscore.Lipo>
65.5519

> <Gold.Chemscore.Internal_Hbond>
0.0000

> <Gold.Chemscore.DEClash>
0.3587

> <Gold.Chemscore.DEInternal>
3.0409

> <Gold.Chemscore.Rot>
1.3338

> <Gold.Chemscore.Internal.Correction>
   9.000000E+99

> <Gold.Chemscore.Hbonds>
donor molecule, donor type, donor heavy atom, donor atom, acceptor molecule, acceptor atom, score
      P1  H  7989  7998       L1    10  0.66

> <Gold.Chemscore.Hbond.Weighted>
-3.8411

> <Gold.Chemscore.Metal.Weighted>
-0.0000

> <Gold.Chemscore.Lipo.Weighted>
-7.6696

> <Gold.Chemscore.Internal_Hbond.Weighted>
0.0000

> <Gold.Chemscore.DEClash.Weighted>
0.3587

> <Gold.Chemscore.DEInternal.Weighted>
3.0409

> <Gold.Chemscore.Rot.Weighted>
3.4145

> <Gold.Chemscore.Internal.Correction.Weighted>
   9.000000E+99

> <Gold.Protein.RotatedTorsions>
[ 6907 6896 6895 6894 ] final    5.05 input  -60.11 | X-H torsion
[ 7974 7965 7964 7962 ] final -133.85 input  175.53 | X-H torsion
[ 8008 7997 7996 7995 ] final   -5.79 input   59.86 | X-H torsion
[ 10167 10162 10161 10158 ] final   41.08 input  -65.29 | X-H torsion
[ 10718 10713 10712 10709 ] final -106.34 input   66.30 | X-H torsion
[ 10763 10752 10751 10750 ] final   96.00 input  -60.55 | X-H torsion
[ 11005 11000 10999 10996 ] final   95.46 input  -57.11 | X-H torsion

> <Gold.Protein.ActiveResidues>
 VAL166  LYS551  ARG553  GLY616  TRP617  ASP618  TYR619  PRO620  LYS621  CYS622 
 ASP623  PHE694  ASN695  SER759  ASP760  ASP761  ALA762  ILE779  LEU786  VAL792 
 PHE793  MET794  SER795  GLU796  ALA797  LYS798  CYS799  TRP800  GLU811  SER814 

> <Gold.Protein.RotatedAtoms>
  151.6512  135.1001  160.0160 H   0  0  0  0  0  0  0  0  0  0  0  0  # atno 6907 bound_to 6896
  152.4000  133.6799  159.6316 H   0  0  0  0  0  0  0  0  0  0  0  0  # atno 6908 bound_to 6896
  150.7901  133.8725  159.3304 H   0  0  0  0  0  0  0  0  0  0  0  0  # atno 6909 bound_to 6896
  144.9156  140.6950  143.4997 H   0  0  0  0  0  0  0  0  0  0  0  0  # atno 7974 bound_to 7965
  154.6003  140.2449  155.7801 H   0  0  0  0  0  0  0  0  0  0  0  0  # atno 8008 bound_to 7997
  156.2306  140.2967  156.0132 H   0  0  0  0  0  0  0  0  0  0  0  0  # atno 8009 bound_to 7997
  155.2222  140.0401  157.2940 H   0  0  0  0  0  0  0  0  0  0  0  0  # atno 8010 bound_to 7997
  140.3678  144.2144  150.6134 H   0  0  0  0  0  0  0  0  0  0  0  0  # atno 10167 bound_to 10162
  156.0385  130.5608  150.7666 H   0  0  0  0  0  0  0  0  0  0  0  0  # atno 10718 bound_to 10713
  153.2597  135.4234  155.0882 H   0  0  0  0  0  0  0  0  0  0  0  0  # atno 10763 bound_to 10752
  154.8415  135.3446  154.6395 H   0  0  0  0  0  0  0  0  0  0  0  0  # atno 10764 bound_to 10752
  153.6815  135.7038  153.5173 H   0  0  0  0  0  0  0  0  0  0  0  0  # atno 10765 bound_to 10752
  139.8789  134.8900  156.4014 H   0  0  0  0  0  0  0  0  0  0  0  0  # atno 11005 bound_to 11000
  145.3381  139.1740  143.4500 LP  0  0  0  0  0  0  0  0  0  0  0  0  # atno 17320 bound_to 7965
  146.3180  140.3419  142.8648 LP  0  0  0  0  0  0  0  0  0  0  0  0  # atno 17321 bound_to 7965
  140.5063  143.2303  151.8603 LP  0  0  0  0  0  0  0  0  0  0  0  0  # atno 17342 bound_to 10162
  139.4807  144.5001  151.9071 LP  0  0  0  0  0  0  0  0  0  0  0  0  # atno 17343 bound_to 10162
  157.5171  131.0929  151.0125 LP  0  0  0  0  0  0  0  0  0  0  0  0  # atno 17370 bound_to 10713
  157.0465  130.5770  149.5364 LP  0  0  0  0  0  0  0  0  0  0  0  0  # atno 17371 bound_to 10713
  140.9264  133.7609  155.9970 LP  0  0  0  0  0  0  0  0  0  0  0  0  # atno 17394 bound_to 11000
  140.8381  134.3099  157.5324 LP  0  0  0  0  0  0  0  0  0  0  0  0  # atno 17395 bound_to 11000

$$$$
