AV-unprocessed.smi:81|AV-procd|sdf|792|dock8
  -GOLD-   2262017163D 1   1.00000     0.00000
 Structure written by MMmdl.
 64 67  0  0  0  0  0  0  0  0  2 V2000
  152.5241  138.2525  159.9173 C   0  0  0  0  0  0  0  0  0  0  0  0
  153.0696  139.5781  159.3610 C   0  0  0  0  0  0  0  0  0  0  0  0
  152.6894  140.7444  160.2836 C   0  0  0  0  0  0  0  0  0  0  0  0
  152.5696  139.8466  157.9227 C   0  0  0  0  0  0  0  0  0  0  0  0
  151.1209  140.0504  157.8104 N   0  0  0  0  0  0  0  0  0  0  0  0
  150.3976  138.9578  157.4641 C   0  0  0  0  0  0  0  0  0  0  0  0
  149.4735  138.5173  158.3540 N   0  0  0  0  0  0  0  0  0  0  0  0
  148.7547  137.4227  158.0898 C   0  0  0  0  0  0  0  0  0  0  0  0
  148.8043  136.6317  157.0167 N   0  0  0  0  0  0  0  0  0  0  0  0
  149.7398  137.0637  156.1236 C   0  0  0  0  0  0  0  0  0  0  0  0
  150.5769  138.2060  156.2674 C   0  0  0  0  0  0  0  0  0  0  0  0
  151.4036  138.3273  155.1569 N   0  0  0  0  0  0  0  0  0  0  0  0
  151.0753  137.3155  154.4015 C   0  0  0  0  0  0  0  0  0  0  0  0
  150.0778  136.5098  154.9013 N   0  0  0  0  0  0  0  0  0  0  0  0
  149.5204  135.3251  154.2675 C   0  0  0  0  0  0  0  0  0  0  0  0
  149.9111  134.0038  154.9725 C   0  0  1  0  0  0  0  0  0  0  0  0
  149.2130  132.9347  154.3526 O   0  0  0  0  0  0  0  0  0  0  0  0
  151.4017  133.7153  154.8771 C   0  0  0  0  0  0  0  0  0  0  0  0
  151.6393  132.8000  156.0710 C   0  0  0  0  0  0  0  0  0  0  0  0
  150.7977  133.3250  157.0873 O   0  0  0  0  0  0  0  0  0  0  0  0
  149.6839  134.0000  156.5043 C   0  0  2  0  0  0  0  0  0  0  0  0
  148.3681  133.3861  157.0112 C   0  0  0  0  0  0  0  0  0  0  0  0
  150.6723  141.3682  157.3302 C   0  0  2  0  0  0  0  0  0  0  0  0
  149.1993  141.7283  157.6407 C   0  0  0  0  0  0  0  0  0  0  0  0
  148.1991  141.2977  156.5505 C   0  0  0  0  0  0  0  0  0  0  0  0
  148.6258  141.7854  155.2189 N   0  3  2  0  0  0  0  0  0  0  0  0
  147.6042  141.5501  154.1766 C   0  0  0  0  0  0  0  0  0  0  0  0
  149.9540  141.2466  154.8451 C   0  0  0  0  0  0  0  0  0  0  0  0
  151.0304  141.6806  155.8570 C   0  0  0  0  0  0  0  0  0  0  0  0
  151.4340  138.2523  159.9425 H   0  0  0  0  0  0  0  0  0  0  0  0
  152.8803  138.0773  160.9330 H   0  0  0  0  0  0  0  0  0  0  0  0
  152.8427  137.4039  159.3119 H   0  0  0  0  0  0  0  0  0  0  0  0
  154.1585  139.5212  159.3622 H   0  0  0  0  0  0  0  0  0  0  0  0
  151.6075  140.8690  160.3400 H   0  0  0  0  0  0  0  0  0  0  0  0
  153.1143  141.6829  159.9261 H   0  0  0  0  0  0  0  0  0  0  0  0
  153.0590  140.5821  161.2965 H   0  0  0  0  0  0  0  0  0  0  0  0
  153.0785  140.7307  157.5370 H   0  0  0  0  0  0  0  0  0  0  0  0
  152.8723  139.0285  157.2703 H   0  0  0  0  0  0  0  0  0  0  0  0
  148.0396  137.1387  158.8476 H   0  0  0  0  0  0  0  0  0  0  0  0
  151.5504  137.1299  153.4488 H   0  0  0  0  0  0  0  0  0  0  0  0
  148.4349  135.4313  154.2440 H   0  0  0  0  0  0  0  0  0  0  0  0
  149.8461  135.3095  153.2266 H   0  0  0  0  0  0  0  0  0  0  0  0
  148.2862  133.0697  154.4805 H   0  0  0  0  0  0  0  0  0  0  0  0
  151.7040  133.2703  153.9278 H   0  0  0  0  0  0  0  0  0  0  0  0
  151.9749  134.6340  155.0119 H   0  0  0  0  0  0  0  0  0  0  0  0
  151.3290  131.7792  155.8434 H   0  0  0  0  0  0  0  0  0  0  0  0
  152.6828  132.7772  156.3857 H   0  0  0  0  0  0  0  0  0  0  0  0
  149.7492  135.0244  156.8716 H   0  0  0  0  0  0  0  0  0  0  0  0
  147.5025  133.8763  156.5670 H   0  0  0  0  0  0  0  0  0  0  0  0
  148.2890  133.4934  158.0933 H   0  0  0  0  0  0  0  0  0  0  0  0
  148.3067  132.3219  156.7834 H   0  0  0  0  0  0  0  0  0  0  0  0
  151.2611  142.0616  157.9322 H   0  0  0  0  0  0  0  0  0  0  0  0
  148.9021  141.3387  158.6148 H   0  0  0  0  0  0  0  0  0  0  0  0
  149.1346  142.8132  157.7316 H   0  0  0  0  0  0  0  0  0  0  0  0
  148.0836  140.2148  156.5172 H   0  0  0  0  0  0  0  0  0  0  0  0
  147.2162  141.7055  156.7895 H   0  0  0  0  0  0  0  0  0  0  0  0
  147.4270  140.4842  154.0360 H   0  0  0  0  0  0  0  0  0  0  0  0
  147.9207  141.9740  153.2229 H   0  0  0  0  0  0  0  0  0  0  0  0
  146.6589  142.0198  154.4508 H   0  0  0  0  0  0  0  0  0  0  0  0
  149.8961  140.1625  154.7682 H   0  0  0  0  0  0  0  0  0  0  0  0
  150.2285  141.6119  153.8548 H   0  0  0  0  0  0  0  0  0  0  0  0
  151.1526  142.7604  155.7639 H   0  0  0  0  0  0  0  0  0  0  0  0
  151.9968  141.2555  155.5857 H   0  0  0  0  0  0  0  0  0  0  0  0
  148.7292  142.7873  155.2951 H   0  0  0  0  0  0  0  0  0  0  0  0
  1  2  1  0  0  0  0
  1 30  1  0  0  0  0
  1 31  1  0  0  0  0
  1 32  1  0  0  0  0
  2  3  1  0  0  0  0
  2  4  1  0  0  0  0
  2 33  1  0  0  0  0
  3 34  1  0  0  0  0
  3 35  1  0  0  0  0
  3 36  1  0  0  0  0
  4  5  1  0  0  0  0
  4 37  1  0  0  0  0
  4 38  1  0  0  0  0
  5  6  1  0  0  0  0
  5 23  1  0  0  0  0
  6 11  1  0  0  0  0
  6  7  2  0  0  0  0
  7  8  1  0  0  0  0
  8  9  2  0  0  0  0
  8 39  1  0  0  0  0
  9 10  1  0  0  0  0
 10 14  1  0  0  0  0
 10 11  2  0  0  0  0
 11 12  1  0  0  0  0
 12 13  2  0  0  0  0
 13 14  1  0  0  0  0
 13 40  1  0  0  0  0
 14 15  1  0  0  0  0
 15 16  1  0  0  0  0
 15 41  1  0  0  0  0
 15 42  1  0  0  0  0
 16 21  1  0  0  0  0
 16 17  1  0  0  0  0
 16 18  1  0  0  0  0
 17 43  1  0  0  0  0
 18 19  1  0  0  0  0
 18 44  1  0  0  0  0
 18 45  1  0  0  0  0
 19 20  1  0  0  0  0
 19 46  1  0  0  0  0
 19 47  1  0  0  0  0
 20 21  1  0  0  0  0
 21 22  1  0  0  0  0
 21 48  1  0  0  0  0
 22 49  1  0  0  0  0
 22 50  1  0  0  0  0
 22 51  1  0  0  0  0
 23 29  1  0  0  0  0
 23 24  1  0  0  0  0
 23 52  1  0  0  0  0
 24 25  1  0  0  0  0
 24 53  1  0  0  0  0
 24 54  1  0  0  0  0
 25 26  1  0  0  0  0
 25 55  1  0  0  0  0
 25 56  1  0  0  0  0
 26 27  1  0  0  0  0
 26 28  1  0  0  0  0
 26 64  1  0  0  0  0
 27 57  1  0  0  0  0
 27 58  1  0  0  0  0
 27 59  1  0  0  0  0
 28 29  1  0  0  0  0
 28 60  1  0  0  0  0
 28 61  1  0  0  0  0
 29 62  1  0  0  0  0
 29 63  1  0  0  0  0
M  CHG  1  26   1
M  END
> <s_m_source_file>
AV-unprocessed.smi

> <i_m_source_file_index>
81

> <i_lp_mmshare_version>
43012

> <i_f3d_flags>
0

> <s_epik_input>
W0NIMl0xW0NIMl1OKFtDSDNdKVtDSDJdW0NIMl1bQ0hdMU4oW0NIMl1bQ0hdKFtDSDNdKVtDSDNdKWMobltjSF1uMiljKGMyMyluW2NIXW4zW0NIMl1bQ0BAXTQoW09IXSlbQ0gyXVtDSDJdT1tDQEhdNFtDSDNd

> <s_epik_cmdline>
J2VwaWtfcHl0aG9uJywgJy1waCcsICc3LjAnLCAnLXRuJywgJzgnLCAnLW1hJywgJzIwMCcsICctbWV0YWxfYmluZGluZycsICctaW1hZScsICc8aW5maWxlLm1hZT4nLCAnLW9tYWUnLCAnPG91dGZpbGUubWFlPic=

> <r_lp_tautomer_probability>
1

> <r_epik_Ionization_Penalty>
0.00272708

> <r_epik_Ionization_Penalty_Charging>
0.00158983

> <r_epik_Ionization_Penalty_Neutral>
0.00113725

> <r_epik_State_Penalty>
-0

> <r_epik_Charging_Adjusted_Penalty>
0.00158983

> <i_epik_Tot_Q>
1

> <i_epik_Tot_abs_Q>
1

> <r_epik_Metal_State_Penalty>
-0

> <b_epik_Metal_Only>
0

> <s_lp_Force_Field>
OPLS_2005

> <r_lp_Energy>
48.65

> <b_lp_Chiralities_Consistent>
1

> <s_lp_Variant>
AV-unprocessed.smi:81-7

> <Gold.Version>
5.8.1

> <Gold.Id.Protein>
6NUR|6NUR_protein|mol2

> <Gold.PLP.Fitness>
43.8397

> <Gold.PLP.PLP>
-33.9206

> <Gold.PLP.part.hbond>
-3.0235

> <Gold.PLP.part.metal>
0.0000

> <Gold.PLP.part.buried>
-4.7186

> <Gold.PLP.part.nonpolar>
-25.8265

> <Gold.PLP.part.repulsive>
0.1259

> <Gold.PLP.ligand.clash>
0.0000

> <Gold.PLP.ligand.torsion>
1.9420

> <Gold.PLP.Chemscore.Hbond>
3.0000

> <Gold.PLP.Chemscore.CHOScore>
1.1298

> <Gold.PLP.Chemscore.Metal>
0.0000

> <Gold.Chemscore.Hbonds>
donor molecule, donor type, donor heavy atom, donor atom, acceptor molecule, acceptor atom, score
      L1  H    26    64       P1  8028  2.00
      P1  H  6896  6909       L1    20  0.59
      L1  C    13    40       P1  7949  1.00

> <Gold.PLP.Chemscore.Internal.Correction>
1.4136

> <Gold.Rescore>
     Score         DG    S(hbond)    S(metal)    S(lipo)     H(rot)  DE(clash)    DE(int)     intcor
     12.22     -15.67       1.94        0.00      82.42       2.32       0.09       3.36       ----

> <Gold.Chemscore.Fitness>
12.2221

> <Gold.Chemscore.DG>
-15.6716

> <Gold.Chemscore.ZeroCoef>
-5.4800

> <Gold.Chemscore.Hbond>
1.9397

> <Gold.Chemscore.Metal>
0.0000

> <Gold.Chemscore.Lipo>
82.4158

> <Gold.Chemscore.Internal_Hbond>
0.0000

> <Gold.Chemscore.DEClash>
0.0938

> <Gold.Chemscore.DEInternal>
3.3558

> <Gold.Chemscore.Rot>
2.3163

> <Gold.Chemscore.Internal.Correction>
   9.000000E+99

> <Gold.Chemscore.Hbonds>
donor molecule, donor type, donor heavy atom, donor atom, acceptor molecule, acceptor atom, score
      L1  H    26    64       P1  8028  0.99
      P1  H  6896  6909       L1    20  0.52

> <Gold.Chemscore.Hbond.Weighted>
-6.4787

> <Gold.Chemscore.Metal.Weighted>
-0.0000

> <Gold.Chemscore.Lipo.Weighted>
-9.6426

> <Gold.Chemscore.Internal_Hbond.Weighted>
0.0000

> <Gold.Chemscore.DEClash.Weighted>
0.0938

> <Gold.Chemscore.DEInternal.Weighted>
3.3558

> <Gold.Chemscore.Rot.Weighted>
5.9297

> <Gold.Chemscore.Internal.Correction.Weighted>
   9.000000E+99

> <Gold.Protein.RotatedTorsions>
[ 6907 6896 6895 6894 ] final  -14.45 input  -60.11 | X-H torsion
[ 7974 7965 7964 7962 ] final   90.52 input  175.53 | X-H torsion
[ 8008 7997 7996 7995 ] final -126.00 input   59.86 | X-H torsion
[ 10167 10162 10161 10158 ] final -147.05 input  -65.29 | X-H torsion
[ 10718 10713 10712 10709 ] final    7.61 input   66.30 | X-H torsion
[ 10763 10752 10751 10750 ] final  162.90 input  -60.55 | X-H torsion
[ 11005 11000 10999 10996 ] final   75.05 input  -57.11 | X-H torsion

> <Gold.Protein.ActiveResidues>
 VAL166  LYS551  ARG553  GLY616  TRP617  ASP618  TYR619  PRO620  LYS621  CYS622 
 ASP623  PHE694  ASN695  SER759  ASP760  ASP761  ALA762  ILE779  LEU786  VAL792 
 PHE793  MET794  SER795  GLU796  ALA797  LYS798  CYS799  TRP800  GLU811  SER814 

> <Gold.Protein.RotatedAtoms>
  151.3393  135.0860  159.9365 H   0  0  0  0  0  0  0  0  0  0  0  0  # atno 6907 bound_to 6896
  152.5215  133.9464  159.7661 H   0  0  0  0  0  0  0  0  0  0  0  0  # atno 6908 bound_to 6896
  150.9817  133.6185  159.2751 H   0  0  0  0  0  0  0  0  0  0  0  0  # atno 6909 bound_to 6896
  145.5179  139.2278  143.2688 H   0  0  0  0  0  0  0  0  0  0  0  0  # atno 7974 bound_to 7965
  155.2225  140.0422  157.2950 H   0  0  0  0  0  0  0  0  0  0  0  0  # atno 8008 bound_to 7997
  154.5940  140.2434  155.7852 H   0  0  0  0  0  0  0  0  0  0  0  0  # atno 8009 bound_to 7997
  156.2278  140.2948  156.0120 H   0  0  0  0  0  0  0  0  0  0  0  0  # atno 8010 bound_to 7997
  139.7657  143.8311  152.2615 H   0  0  0  0  0  0  0  0  0  0  0  0  # atno 10167 bound_to 10162
  156.9394  130.5855  149.5652 H   0  0  0  0  0  0  0  0  0  0  0  0  # atno 10718 bound_to 10713
  154.2855  135.2762  155.2678 H   0  0  0  0  0  0  0  0  0  0  0  0  # atno 10763 bound_to 10752
  154.5180  135.5764  153.6661 H   0  0  0  0  0  0  0  0  0  0  0  0  # atno 10764 bound_to 10752
  152.9922  135.6197  154.3017 H   0  0  0  0  0  0  0  0  0  0  0  0  # atno 10765 bound_to 10752
  139.9362  134.7485  156.1223 H   0  0  0  0  0  0  0  0  0  0  0  0  # atno 11005 bound_to 11000
  146.2125  140.5989  142.9053 LP  0  0  0  0  0  0  0  0  0  0  0  0  # atno 17320 bound_to 7965
  144.7692  140.5599  143.6682 LP  0  0  0  0  0  0  0  0  0  0  0  0  # atno 17321 bound_to 7965
  139.8331  144.7245  150.9425 LP  0  0  0  0  0  0  0  0  0  0  0  0  # atno 17342 bound_to 10162
  140.7810  143.4052  151.1083 LP  0  0  0  0  0  0  0  0  0  0  0  0  # atno 17343 bound_to 10162
  156.0411  130.5493  150.8773 LP  0  0  0  0  0  0  0  0  0  0  0  0  # atno 17370 bound_to 10713
  157.5795  131.0946  150.9294 LP  0  0  0  0  0  0  0  0  0  0  0  0  # atno 17371 bound_to 10713
  141.0976  133.6689  156.2681 LP  0  0  0  0  0  0  0  0  0  0  0  0  # atno 17394 bound_to 11000
  140.6070  134.5497  157.5527 LP  0  0  0  0  0  0  0  0  0  0  0  0  # atno 17395 bound_to 11000

$$$$
