AV-unprocessed.smi:1507|AV-procd|sdf|6084|dock1
  -GOLD-   22720 6203D 1   1.00000     0.00000
 Structure written by MMmdl.
 32 33  0  0  0  0  0  0  0  0  3 V2000
  148.7386  135.2036  154.7535 N   0  5  0  0  0  0  0  0  0  0  0  0
  149.5646  135.9825  155.9092 S   0  0  0  0  0  0  0  0  0  0  0  0
  148.7879  137.1416  156.3745 O   0  0  0  0  0  0  0  0  0  0  0  0
  150.0073  135.0585  156.9681 O   0  0  0  0  0  0  0  0  0  0  0  0
  150.7881  136.4847  154.9521 N   0  5  0  0  0  0  0  0  0  0  0  0
  150.7904  137.7966  154.3091 C   0  0  0  0  0  0  0  0  0  0  0  0
  150.9848  138.9160  155.3220 C   0  0  0  0  0  0  0  0  0  0  0  0
  150.1062  140.0198  155.3665 C   0  0  0  0  0  0  0  0  0  0  0  0
  150.3274  141.0319  156.3212 C   0  0  0  0  0  0  0  0  0  0  0  0
  151.4246  140.9189  157.2076 C   0  0  0  0  0  0  0  0  0  0  0  0
  151.6679  141.9258  158.1676 N   0  0  0  0  0  0  0  0  0  0  0  0
  152.7052  141.6804  159.1681 C   0  0  0  0  0  0  0  0  0  0  0  0
  152.6381  142.7398  160.2810 C   0  0  0  0  0  0  0  0  0  0  0  0
  152.7236  144.0408  159.7098 O   0  0  0  0  0  0  0  0  0  0  0  0
  151.6424  144.3009  158.8209 C   0  0  0  0  0  0  0  0  0  0  0  0
  151.6695  143.2947  157.6573 C   0  0  0  0  0  0  0  0  0  0  0  0
  152.2622  139.8534  157.1674 N   0  0  0  0  0  0  0  0  0  0  0  0
  152.0498  138.8856  156.2489 C   0  0  0  0  0  0  0  0  0  0  0  0
  148.7192  135.7983  153.9167 H   0  0  0  0  0  0  0  0  0  0  0  0
  151.5819  137.8798  153.5634 H   0  0  0  0  0  0  0  0  0  0  0  0
  149.8620  137.9880  153.7695 H   0  0  0  0  0  0  0  0  0  0  0  0
  149.2684  140.1055  154.6879 H   0  0  0  0  0  0  0  0  0  0  0  0
  149.6494  141.8705  156.3677 H   0  0  0  0  0  0  0  0  0  0  0  0
  152.5813  140.6889  159.6056 H   0  0  0  0  0  0  0  0  0  0  0  0
  153.6839  141.7062  158.6871 H   0  0  0  0  0  0  0  0  0  0  0  0
  151.7157  142.6425  160.8560 H   0  0  0  0  0  0  0  0  0  0  0  0
  153.4642  142.6034  160.9787 H   0  0  0  0  0  0  0  0  0  0  0  0
  150.6942  144.2477  159.3584 H   0  0  0  0  0  0  0  0  0  0  0  0
  151.7347  145.3176  158.4388 H   0  0  0  0  0  0  0  0  0  0  0  0
  152.5671  143.4444  157.0559 H   0  0  0  0  0  0  0  0  0  0  0  0
  150.8174  143.4845  157.0062 H   0  0  0  0  0  0  0  0  0  0  0  0
  152.7599  138.0699  156.2700 H   0  0  0  0  0  0  0  0  0  0  0  0
  1  2  1  0  0  0  0
  1 19  1  0  0  0  0
  2  3  2  0  0  0  0
  2  4  2  0  0  0  0
  2  5  1  0  0  0  0
  5  6  1  0  0  0  0
  6  7  1  0  0  0  0
  6 20  1  0  0  0  0
  6 21  1  0  0  0  0
  7 18  1  0  0  0  0
  7  8  2  0  0  0  0
  8  9  1  0  0  0  0
  8 22  1  0  0  0  0
  9 10  2  0  0  0  0
  9 23  1  0  0  0  0
 10 11  1  0  0  0  0
 10 17  1  0  0  0  0
 11 16  1  0  0  0  0
 11 12  1  0  0  0  0
 12 13  1  0  0  0  0
 12 24  1  0  0  0  0
 12 25  1  0  0  0  0
 13 14  1  0  0  0  0
 13 26  1  0  0  0  0
 13 27  1  0  0  0  0
 14 15  1  0  0  0  0
 15 16  1  0  0  0  0
 15 28  1  0  0  0  0
 15 29  1  0  0  0  0
 16 30  1  0  0  0  0
 16 31  1  0  0  0  0
 17 18  2  0  0  0  0
 18 32  1  0  0  0  0
M  CHG  1   1  -1
M  CHG  1   5  -1
M  END
> <s_m_source_file>
AV-unprocessed.smi

> <i_m_source_file_index>
1507

> <i_lp_mmshare_version>
43012

> <i_f3d_flags>
0

> <s_epik_input>
W05IMl1TKD1PKSg9TylbTkhdW0NIMl1jMVtjSF1bY0hdYyhuW2NIXTEpTjJbQ0gyXVtDSDJdT1tDSDJdW0NIMl0y

> <s_epik_cmdline>
J2VwaWtfcHl0aG9uJywgJy1waCcsICc3LjAnLCAnLXRuJywgJzgnLCAnLW1hJywgJzIwMCcsICctbWV0YWxfYmluZGluZycsICctaW1hZScsICc8aW5maWxlLm1hZT4nLCAnLW9tYWUnLCAnPG91dGZpbGUubWFlPic=

> <r_lp_tautomer_probability>
1

> <r_epik_Ionization_Penalty>
9.15309

> <r_epik_Ionization_Penalty_Charging>
9.0542

> <r_epik_Ionization_Penalty_Neutral>
0.0988946

> <r_epik_State_Penalty>
4.65345

> <r_epik_Charging_Adjusted_Penalty>
13.7077

> <i_epik_Tot_Q>
-2

> <i_epik_Tot_abs_Q>
2

> <r_epik_Metal_State_Penalty>
1.24006

> <b_epik_Metal_Only>
1

> <s_lp_Force_Field>
OPLS_2005

> <r_lp_Energy>
23.9695

> <b_lp_Chiralities_Consistent>
1

> <s_lp_Variant>
AV-unprocessed.smi:1507-5

> <Gold.Version>
5.8.1

> <Gold.Id.Protein>
6NUR|6NUR_protein|mol2

> <Gold.PLP.Fitness>
44.8164

> <Gold.PLP.PLP>
-34.3696

> <Gold.PLP.part.hbond>
-3.0000

> <Gold.PLP.part.metal>
0.0000

> <Gold.PLP.part.buried>
-4.5329

> <Gold.PLP.part.nonpolar>
-27.0769

> <Gold.PLP.part.repulsive>
0.2207

> <Gold.PLP.ligand.clash>
0.0000

> <Gold.PLP.ligand.torsion>
0.7962

> <Gold.PLP.Chemscore.Hbond>
3.5640

> <Gold.PLP.Chemscore.CHOScore>
0.0000

> <Gold.PLP.Chemscore.Metal>
0.0000

> <Gold.Chemscore.Hbonds>
donor molecule, donor type, donor heavy atom, donor atom, acceptor molecule, acceptor atom, score
      L1  H     1    19       P1  7948  0.83
      P1  H  7997  8009       L1    17  0.24
      P1  H 10752 10763       L1     5  0.39

> <Gold.PLP.Chemscore.Internal.Correction>
1.3472

> <Gold.Rescore>
     Score         DG    S(hbond)    S(metal)    S(lipo)     H(rot)  DE(clash)    DE(int)     intcor
     14.68     -16.59       1.86        0.00      82.56       1.86       0.08       1.83       ----

> <Gold.Chemscore.Fitness>
14.6829

> <Gold.Chemscore.DG>
-16.5867

> <Gold.Chemscore.ZeroCoef>
-5.4800

> <Gold.Chemscore.Hbond>
1.8592

> <Gold.Chemscore.Metal>
0.0000

> <Gold.Chemscore.Lipo>
82.5638

> <Gold.Chemscore.Internal_Hbond>
0.0000

> <Gold.Chemscore.DEClash>
0.0779

> <Gold.Chemscore.DEInternal>
1.8260

> <Gold.Chemscore.Rot>
1.8606

> <Gold.Chemscore.Internal.Correction>
   9.000000E+99

> <Gold.Chemscore.Hbonds>
donor molecule, donor type, donor heavy atom, donor atom, acceptor molecule, acceptor atom, score
      L1  H     1    19       P1  7948  0.79
      P1  H  7997  8009       L1    17  0.06
      P1  H 10752 10763       L1     5  0.09

> <Gold.Chemscore.Hbond.Weighted>
-6.2099

> <Gold.Chemscore.Metal.Weighted>
-0.0000

> <Gold.Chemscore.Lipo.Weighted>
-9.6600

> <Gold.Chemscore.Internal_Hbond.Weighted>
0.0000

> <Gold.Chemscore.DEClash.Weighted>
0.0779

> <Gold.Chemscore.DEInternal.Weighted>
1.8260

> <Gold.Chemscore.Rot.Weighted>
4.7631

> <Gold.Chemscore.Internal.Correction.Weighted>
   9.000000E+99

> <Gold.Protein.RotatedTorsions>
[ 6907 6896 6895 6894 ] final   51.46 input  -60.11 | X-H torsion
[ 7974 7965 7964 7962 ] final  170.52 input  175.53 | X-H torsion
[ 8008 7997 7996 7995 ] final  156.78 input   59.86 | X-H torsion
[ 10167 10162 10161 10158 ] final   57.48 input  -65.29 | X-H torsion
[ 10718 10713 10712 10709 ] final  -36.80 input   66.30 | X-H torsion
[ 10763 10752 10751 10750 ] final   52.46 input  -60.55 | X-H torsion
[ 11005 11000 10999 10996 ] final  -41.23 input  -57.11 | X-H torsion

> <Gold.Protein.ActiveResidues>
 VAL166  LYS551  ARG553  GLY616  TRP617  ASP618  TYR619  PRO620  LYS621  CYS622 
 ASP623  PHE694  ASN695  SER759  ASP760  ASP761  ALA762  ILE779  LEU786  VAL792 
 PHE793  MET794  SER795  GLU796  ALA797  LYS798  CYS799  TRP800  GLU811  SER814 

> <Gold.Protein.RotatedAtoms>
  152.3129  134.7476  160.0332 H   0  0  0  0  0  0  0  0  0  0  0  0  # atno 6907 bound_to 6896
  151.7950  133.3358  159.3518 H   0  0  0  0  0  0  0  0  0  0  0  0  # atno 6908 bound_to 6896
  150.7329  134.5737  159.5948 H   0  0  0  0  0  0  0  0  0  0  0  0  # atno 6909 bound_to 6896
  144.7321  139.9215  143.6420 H   0  0  0  0  0  0  0  0  0  0  0  0  # atno 7974 bound_to 7965
  156.2403  140.1903  156.7007 H   0  0  0  0  0  0  0  0  0  0  0  0  # atno 8008 bound_to 7997
  154.6184  140.0612  156.9610 H   0  0  0  0  0  0  0  0  0  0  0  0  # atno 8009 bound_to 7997
  155.1902  140.3284  155.4362 H   0  0  0  0  0  0  0  0  0  0  0  0  # atno 8010 bound_to 7997
  140.1975  144.4022  150.6543 H   0  0  0  0  0  0  0  0  0  0  0  0  # atno 10167 bound_to 10162
  156.3227  130.4268  149.7945 H   0  0  0  0  0  0  0  0  0  0  0  0  # atno 10718 bound_to 10713
  152.9789  135.5811  154.4582 H   0  0  0  0  0  0  0  0  0  0  0  0  # atno 10763 bound_to 10752
  154.4162  135.2771  155.2007 H   0  0  0  0  0  0  0  0  0  0  0  0  # atno 10764 bound_to 10752
  154.3776  135.6154  153.5827 H   0  0  0  0  0  0  0  0  0  0  0  0  # atno 10765 bound_to 10752
  141.0231  133.6853  156.2429 H   0  0  0  0  0  0  0  0  0  0  0  0  # atno 11005 bound_to 11000
  146.0926  139.3917  143.0396 LP  0  0  0  0  0  0  0  0  0  0  0  0  # atno 17320 bound_to 7965
  145.7690  140.9904  143.1160 LP  0  0  0  0  0  0  0  0  0  0  0  0  # atno 17321 bound_to 7965
  140.6413  143.2204  151.6283 LP  0  0  0  0  0  0  0  0  0  0  0  0  # atno 17342 bound_to 10162
  139.5230  144.3145  152.0965 LP  0  0  0  0  0  0  0  0  0  0  0  0  # atno 17343 bound_to 10162
  156.5247  130.8231  151.3216 LP  0  0  0  0  0  0  0  0  0  0  0  0  # atno 17370 bound_to 10713
  157.7415  130.9871  150.2449 LP  0  0  0  0  0  0  0  0  0  0  0  0  # atno 17371 bound_to 10713
  140.6538  134.5039  157.5579 LP  0  0  0  0  0  0  0  0  0  0  0  0  # atno 17394 bound_to 11000
  139.9159  134.8248  156.1369 LP  0  0  0  0  0  0  0  0  0  0  0  0  # atno 17395 bound_to 11000

$$$$
