AV-unprocessed.smi:2505|AV-procd|sdf|9860|dock3
  -GOLD-   2272013493D 1   1.00000     0.00000
 Structure written by MMmdl.
 48 52  0  0  0  0  0  0  0  0  1 V2000
  147.0483  136.4320  155.6246 O   0  0  0  0  0  0  0  0  0  0  0  0
  147.5298  136.4910  154.4958 C   0  0  0  0  0  0  0  0  0  0  0  0
  148.4824  137.3604  154.1101 N   0  0  0  0  0  0  0  0  0  0  0  0
  149.0005  138.4855  154.8050 C   0  0  0  0  0  0  0  0  0  0  0  0
  148.5691  138.9363  156.0772 C   0  0  0  0  0  0  0  0  0  0  0  0
  149.1048  140.0302  156.6606 N   0  0  0  0  0  0  0  0  0  0  0  0
  150.0517  140.6800  155.9787 C   0  0  0  0  0  0  0  0  0  0  0  0
  150.6720  141.8643  156.6527 C   0  0  0  0  0  0  0  0  0  0  0  0
  151.4953  141.6971  157.9136 C   0  0  0  0  0  0  0  0  0  0  0  0
  150.1485  142.3612  157.9847 C   0  0  0  0  0  0  0  0  0  0  0  0
  150.5385  140.3482  154.7797 N   0  0  0  0  0  0  0  0  0  0  0  0
  150.0088  139.2558  154.1890 C   0  0  0  0  0  0  0  0  0  0  0  0
  147.1440  135.6403  153.5300 N   0  0  0  0  0  0  0  0  0  0  0  0
  146.1392  134.5787  153.6115 C   0  0  1  0  0  0  0  0  0  0  0  0
  145.5022  134.3030  152.2492 C   0  0  2  0  0  0  0  0  0  0  0  0
  144.1507  134.5204  151.6690 C   0  0  0  0  0  0  0  0  0  0  0  0
  143.9709  133.1235  151.0189 C   0  0  0  0  0  0  0  0  0  0  0  0
  145.0504  132.3048  151.5316 O   0  0  0  0  0  0  0  0  0  0  0  0
  145.3628  132.8924  152.7787 C   0  0  1  0  0  0  0  0  0  0  0  0
  146.7129  133.1112  153.4917 C   0  0  0  0  0  0  0  0  0  0  0  0
  148.0095  132.8513  152.7031 C   0  0  0  0  0  0  0  0  0  0  0  0
  149.1011  132.5553  153.7266 C   0  0  0  0  0  0  0  0  0  0  0  0
  148.3722  131.8316  154.8519 C   0  0  0  0  0  0  0  0  0  0  0  0
  146.9235  132.3303  154.7969 C   0  0  0  0  0  0  0  0  0  0  0  0
  148.8465  137.2256  153.1781 H   0  0  0  0  0  0  0  0  0  0  0  0
  147.7894  138.4501  156.6410 H   0  0  0  0  0  0  0  0  0  0  0  0
  150.9984  142.6063  155.9265 H   0  0  0  0  0  0  0  0  0  0  0  0
  151.5829  140.6975  158.3352 H   0  0  0  0  0  0  0  0  0  0  0  0
  152.3750  142.3277  158.0242 H   0  0  0  0  0  0  0  0  0  0  0  0
  150.1259  143.4372  158.1436 H   0  0  0  0  0  0  0  0  0  0  0  0
  149.3399  141.8037  158.4536 H   0  0  0  0  0  0  0  0  0  0  0  0
  150.3956  138.9947  153.2147 H   0  0  0  0  0  0  0  0  0  0  0  0
  147.6171  135.7262  152.6421 H   0  0  0  0  0  0  0  0  0  0  0  0
  145.4038  134.7162  154.4097 H   0  0  0  0  0  0  0  0  0  0  0  0
  146.2530  134.3781  151.4566 H   0  0  0  0  0  0  0  0  0  0  0  0
  143.4024  134.7128  152.4390 H   0  0  0  0  0  0  0  0  0  0  0  0
  144.1278  135.3292  150.9381 H   0  0  0  0  0  0  0  0  0  0  0  0
  143.0050  132.6922  151.2843 H   0  0  0  0  0  0  0  0  0  0  0  0
  144.0346  133.1696  149.9315 H   0  0  0  0  0  0  0  0  0  0  0  0
  144.5364  132.7625  153.4871 H   0  0  0  0  0  0  0  0  0  0  0  0
  147.8784  131.9830  152.0560 H   0  0  0  0  0  0  0  0  0  0  0  0
  148.3044  133.6789  152.0581 H   0  0  0  0  0  0  0  0  0  0  0  0
  149.9214  131.9698  153.3107 H   0  0  0  0  0  0  0  0  0  0  0  0
  149.5182  133.4902  154.1016 H   0  0  0  0  0  0  0  0  0  0  0  0
  148.3944  130.7566  154.6692 H   0  0  0  0  0  0  0  0  0  0  0  0
  148.8364  132.0100  155.8224 H   0  0  0  0  0  0  0  0  0  0  0  0
  146.7116  132.9562  155.6632 H   0  0  0  0  0  0  0  0  0  0  0  0
  146.2400  131.4831  154.8649 H   0  0  0  0  0  0  0  0  0  0  0  0
  1  2  2  0  0  0  0
  2  3  1  0  0  0  0
  2 13  1  0  0  0  0
  3  4  1  0  0  0  0
  3 25  1  0  0  0  0
  4 12  1  0  0  0  0
  4  5  2  0  0  0  0
  5  6  1  0  0  0  0
  5 26  1  0  0  0  0
  6  7  2  0  0  0  0
  7  8  1  0  0  0  0
  7 11  1  0  0  0  0
  8 10  1  0  0  0  0
  8  9  1  0  0  0  0
  8 27  1  0  0  0  0
  9 10  1  0  0  0  0
  9 28  1  0  0  0  0
  9 29  1  0  0  0  0
 10 30  1  0  0  0  0
 10 31  1  0  0  0  0
 11 12  2  0  0  0  0
 12 32  1  0  0  0  0
 13 14  1  0  0  0  0
 13 33  1  0  0  0  0
 14 20  1  0  0  0  0
 14 15  1  0  0  0  0
 14 34  1  0  0  0  0
 15 19  1  0  0  0  0
 15 16  1  0  0  0  0
 15 35  1  0  0  0  0
 16 17  1  0  0  0  0
 16 36  1  0  0  0  0
 16 37  1  0  0  0  0
 17 18  1  0  0  0  0
 17 38  1  0  0  0  0
 17 39  1  0  0  0  0
 18 19  1  0  0  0  0
 19 20  1  0  0  0  0
 19 40  1  0  0  0  0
 20 24  1  0  0  0  0
 20 21  1  0  0  0  0
 21 22  1  0  0  0  0
 21 41  1  0  0  0  0
 21 42  1  0  0  0  0
 22 23  1  0  0  0  0
 22 43  1  0  0  0  0
 22 44  1  0  0  0  0
 23 24  1  0  0  0  0
 23 45  1  0  0  0  0
 23 46  1  0  0  0  0
 24 47  1  0  0  0  0
 24 48  1  0  0  0  0
M  END
> <s_m_source_file>
AV-unprocessed.smi

> <i_m_source_file_index>
2505

> <i_lp_mmshare_version>
43012

> <i_f3d_flags>
0

> <s_epik_input>
W0NIMl0xW0NIMl1bQ0hdMWMobltjSF0yKW5bY0hdYzJbTkhdQyg9TylbTkhdW0NAQEhdM1tDQEBIXShbQ0gyXVtDSDJdTzQpW0NASF00QzM1W0NIMl1bQ0gyXVtDSDJdW0NIMl01

> <s_epik_cmdline>
J2VwaWtfcHl0aG9uJywgJy1waCcsICc3LjAnLCAnLXRuJywgJzgnLCAnLW1hJywgJzIwMCcsICctbWV0YWxfYmluZGluZycsICctaW1hZScsICc8aW5maWxlLm1hZT4nLCAnLW9tYWUnLCAnPG91dGZpbGUubWFlPic=

> <r_lp_tautomer_probability>
1

> <r_epik_Ionization_Penalty>
2.6075e-05

> <r_epik_Ionization_Penalty_Charging>
0

> <r_epik_Ionization_Penalty_Neutral>
2.6075e-05

> <r_epik_State_Penalty>
-0

> <r_epik_Charging_Adjusted_Penalty>
0

> <i_epik_Tot_Q>
0

> <i_epik_Tot_abs_Q>
0

> <r_epik_Metal_State_Penalty>
-0

> <b_epik_Metal_Only>
0

> <s_lp_Force_Field>
OPLS_2005

> <r_lp_Energy>
84.9225

> <b_lp_Chiralities_Consistent>
1

> <s_lp_Variant>
AV-unprocessed.smi:2505-8

> <Gold.Version>
5.8.1

> <Gold.Id.Protein>
6NUR|6NUR_protein|mol2

> <Gold.PLP.Fitness>
42.4049

> <Gold.PLP.PLP>
-31.1455

> <Gold.PLP.part.hbond>
-2.9219

> <Gold.PLP.part.metal>
0.0000

> <Gold.PLP.part.buried>
-3.5628

> <Gold.PLP.part.nonpolar>
-25.8568

> <Gold.PLP.part.repulsive>
0.2319

> <Gold.PLP.ligand.clash>
0.0000

> <Gold.PLP.ligand.torsion>
0.2703

> <Gold.PLP.Chemscore.Hbond>
2.9040

> <Gold.PLP.Chemscore.CHOScore>
0.8956

> <Gold.PLP.Chemscore.Metal>
0.0000

> <Gold.Chemscore.Hbonds>
donor molecule, donor type, donor heavy atom, donor atom, acceptor molecule, acceptor atom, score
      L1  H     3    25       P1  7948  0.96
      L1  H    13    33       P1  7948  0.94
      P1  H  7989  7998       L1    11  1.00
      L1  C    12    32       P1  7957  0.88

> <Gold.PLP.Chemscore.Internal.Correction>
0.4013

> <Gold.Rescore>
     Score         DG    S(hbond)    S(metal)    S(lipo)     H(rot)  DE(clash)    DE(int)     intcor
     18.75     -20.25       2.68        0.00      75.40       1.17       0.13       1.37       ----

> <Gold.Chemscore.Fitness>
18.7462

> <Gold.Chemscore.DG>
-20.2534

> <Gold.Chemscore.ZeroCoef>
-5.4800

> <Gold.Chemscore.Hbond>
2.6821

> <Gold.Chemscore.Metal>
0.0000

> <Gold.Chemscore.Lipo>
75.3979

> <Gold.Chemscore.Internal_Hbond>
0.0000

> <Gold.Chemscore.DEClash>
0.1329

> <Gold.Chemscore.DEInternal>
1.3742

> <Gold.Chemscore.Rot>
1.1744

> <Gold.Chemscore.Internal.Correction>
   9.000000E+99

> <Gold.Chemscore.Hbonds>
donor molecule, donor type, donor heavy atom, donor atom, acceptor molecule, acceptor atom, score
      L1  H     3    25       P1  7948  0.92
      L1  H    13    33       P1  7948  0.91
      P1  H  7989  7998       L1    11  0.25

> <Gold.Chemscore.Hbond.Weighted>
-8.9583

> <Gold.Chemscore.Metal.Weighted>
-0.0000

> <Gold.Chemscore.Lipo.Weighted>
-8.8216

> <Gold.Chemscore.Internal_Hbond.Weighted>
0.0000

> <Gold.Chemscore.DEClash.Weighted>
0.1329

> <Gold.Chemscore.DEInternal.Weighted>
1.3742

> <Gold.Chemscore.Rot.Weighted>
3.0064

> <Gold.Chemscore.Internal.Correction.Weighted>
   9.000000E+99

> <Gold.Protein.RotatedTorsions>
[ 6907 6896 6895 6894 ] final  153.90 input  -60.11 | X-H torsion
[ 7974 7965 7964 7962 ] final -142.17 input  175.53 | X-H torsion
[ 8008 7997 7996 7995 ] final -168.14 input   59.86 | X-H torsion
[ 10167 10162 10161 10158 ] final  -35.46 input  -65.29 | X-H torsion
[ 10718 10713 10712 10709 ] final   89.34 input   66.30 | X-H torsion
[ 10763 10752 10751 10750 ] final  -41.30 input  -60.55 | X-H torsion
[ 11005 11000 10999 10996 ] final  119.23 input  -57.11 | X-H torsion

> <Gold.Protein.ActiveResidues>
 VAL166  LYS551  ARG553  GLY616  TRP617  ASP618  TYR619  PRO620  LYS621  CYS622 
 ASP623  PHE694  ASN695  SER759  ASP760  ASP761  ALA762  ILE779  LEU786  VAL792 
 PHE793  MET794  SER795  GLU796  ALA797  LYS798  CYS799  TRP800  GLU811  SER814 

> <Gold.Protein.RotatedAtoms>
  152.0661  133.4084  159.4438 H   0  0  0  0  0  0  0  0  0  0  0  0  # atno 6907 bound_to 6896
  150.6864  134.3145  159.4769 H   0  0  0  0  0  0  0  0  0  0  0  0  # atno 6908 bound_to 6896
  152.0972  134.9366  160.0621 H   0  0  0  0  0  0  0  0  0  0  0  0  # atno 6909 bound_to 6896
  144.8464  140.5991  143.5419 H   0  0  0  0  0  0  0  0  0  0  0  0  # atno 7974 bound_to 7965
  155.8873  140.1019  157.1443 H   0  0  0  0  0  0  0  0  0  0  0  0  # atno 8008 bound_to 7997
  154.4011  140.1317  156.4335 H   0  0  0  0  0  0  0  0  0  0  0  0  # atno 8009 bound_to 7997
  155.7574  140.3464  155.5183 H   0  0  0  0  0  0  0  0  0  0  0  0  # atno 8010 bound_to 7997
  140.7164  143.3476  151.2224 H   0  0  0  0  0  0  0  0  0  0  0  0  # atno 10167 bound_to 10162
  157.6954  131.0329  150.3411 H   0  0  0  0  0  0  0  0  0  0  0  0  # atno 10718 bound_to 10713
  153.9602  135.6740  153.4745 H   0  0  0  0  0  0  0  0  0  0  0  0  # atno 10763 bound_to 10752
  153.0842  135.4908  154.8560 H   0  0  0  0  0  0  0  0  0  0  0  0  # atno 10764 bound_to 10752
  154.7277  135.3131  154.8904 H   0  0  0  0  0  0  0  0  0  0  0  0  # atno 10765 bound_to 10752
  139.9139  134.9627  156.7623 H   0  0  0  0  0  0  0  0  0  0  0  0  # atno 11005 bound_to 11000
  145.4589  139.1515  143.3877 LP  0  0  0  0  0  0  0  0  0  0  0  0  # atno 17320 bound_to 7965
  146.2747  140.4718  142.8800 LP  0  0  0  0  0  0  0  0  0  0  0  0  # atno 17321 bound_to 7965
  139.6998  143.9551  152.2900 LP  0  0  0  0  0  0  0  0  0  0  0  0  # atno 17342 bound_to 10162
  139.9241  144.6782  150.8431 LP  0  0  0  0  0  0  0  0  0  0  0  0  # atno 17343 bound_to 10162
  156.3872  130.3891  149.7057 LP  0  0  0  0  0  0  0  0  0  0  0  0  # atno 17370 bound_to 10713
  156.4420  130.7865  151.2886 LP  0  0  0  0  0  0  0  0  0  0  0  0  # atno 17371 bound_to 10713
  140.6687  133.9579  155.7844 LP  0  0  0  0  0  0  0  0  0  0  0  0  # atno 17394 bound_to 11000
  141.0593  134.0370  157.3680 LP  0  0  0  0  0  0  0  0  0  0  0  0  # atno 17395 bound_to 11000

$$$$
