AV-unprocessed.smi:331|AV-procd|sdf|2350|dock3
  -GOLD-   2262022263D 1   1.00000     0.00000
 Structure written by MMmdl.
 36 37  0  0  0  0  0  0  0  0  1 V2000
  149.4817  141.7356  158.8693 O   0  0  0  0  0  0  0  0  0  0  0  0
  149.2005  142.7132  158.1788 C   0  0  0  0  0  0  0  0  0  0  0  0
  149.4033  143.9811  158.5728 N   0  0  0  0  0  0  0  0  0  0  0  0
  149.8791  144.3849  159.8913 C   0  0  0  0  0  0  0  0  0  0  0  0
  151.3838  144.7157  159.8883 C   0  0  0  0  0  0  0  0  0  0  0  0
  152.2547  143.5437  160.3086 C   0  0  0  0  0  0  0  0  0  0  0  0
  152.6436  143.3736  161.6538 C   0  0  0  0  0  0  0  0  0  0  0  0
  153.4669  142.2818  161.9890 C   0  0  0  0  0  0  0  0  0  0  0  0
  153.8643  141.4019  160.9625 C   0  0  0  0  0  0  0  0  0  0  0  0
  153.4966  141.5536  159.6719 N   0  0  0  0  0  0  0  0  0  0  0  0
  152.7079  142.6040  159.3586 C   0  0  0  0  0  0  0  0  0  0  0  0
  148.6636  142.5878  156.9522 N   0  0  0  0  0  0  0  0  0  0  0  0
  148.3240  141.3522  156.2420 C   0  0  0  0  0  0  0  0  0  0  0  0
  149.5985  140.6326  155.7614 C   0  0  0  0  0  0  0  0  0  0  0  0
  149.3422  140.2463  154.3041 C   0  0  0  0  0  0  0  0  0  0  0  0
  148.4040  141.3324  153.7883 C   0  0  0  0  0  0  0  0  0  0  0  0
  147.4884  141.6319  154.9759 C   0  0  0  0  0  0  0  0  0  0  0  0
  149.1571  144.7212  157.9316 H   0  0  0  0  0  0  0  0  0  0  0  0
  149.3015  145.2312  160.2661 H   0  0  0  0  0  0  0  0  0  0  0  0
  149.6900  143.5566  160.5746 H   0  0  0  0  0  0  0  0  0  0  0  0
  151.6873  145.0420  158.8926 H   0  0  0  0  0  0  0  0  0  0  0  0
  151.5769  145.5583  160.5532 H   0  0  0  0  0  0  0  0  0  0  0  0
  152.3253  144.0716  162.4144 H   0  0  0  0  0  0  0  0  0  0  0  0
  153.7868  142.1228  163.0082 H   0  0  0  0  0  0  0  0  0  0  0  0
  154.4957  140.5541  161.1841 H   0  0  0  0  0  0  0  0  0  0  0  0
  152.4355  142.7009  158.3179 H   0  0  0  0  0  0  0  0  0  0  0  0
  148.5388  143.4418  156.4279 H   0  0  0  0  0  0  0  0  0  0  0  0
  147.7716  140.6823  156.9040 H   0  0  0  0  0  0  0  0  0  0  0  0
  150.4584  141.3040  155.8020 H   0  0  0  0  0  0  0  0  0  0  0  0
  149.8389  139.7652  156.3774 H   0  0  0  0  0  0  0  0  0  0  0  0
  150.2609  140.1719  153.7217 H   0  0  0  0  0  0  0  0  0  0  0  0
  148.8411  139.2782  154.2625 H   0  0  0  0  0  0  0  0  0  0  0  0
  148.9792  142.2235  153.5332 H   0  0  0  0  0  0  0  0  0  0  0  0
  147.8524  141.0251  152.8991 H   0  0  0  0  0  0  0  0  0  0  0  0
  146.6360  140.9517  154.9532 H   0  0  0  0  0  0  0  0  0  0  0  0
  147.0886  142.6460  154.9332 H   0  0  0  0  0  0  0  0  0  0  0  0
  1  2  2  0  0  0  0
  2  3  1  0  0  0  0
  2 12  1  0  0  0  0
  3  4  1  0  0  0  0
  3 18  1  0  0  0  0
  4  5  1  0  0  0  0
  4 19  1  0  0  0  0
  4 20  1  0  0  0  0
  5  6  1  0  0  0  0
  5 21  1  0  0  0  0
  5 22  1  0  0  0  0
  6 11  1  0  0  0  0
  6  7  2  0  0  0  0
  7  8  1  0  0  0  0
  7 23  1  0  0  0  0
  8  9  2  0  0  0  0
  8 24  1  0  0  0  0
  9 10  1  0  0  0  0
  9 25  1  0  0  0  0
 10 11  2  0  0  0  0
 11 26  1  0  0  0  0
 12 13  1  0  0  0  0
 12 27  1  0  0  0  0
 13 17  1  0  0  0  0
 13 14  1  0  0  0  0
 13 28  1  0  0  0  0
 14 15  1  0  0  0  0
 14 29  1  0  0  0  0
 14 30  1  0  0  0  0
 15 16  1  0  0  0  0
 15 31  1  0  0  0  0
 15 32  1  0  0  0  0
 16 17  1  0  0  0  0
 16 33  1  0  0  0  0
 16 34  1  0  0  0  0
 17 35  1  0  0  0  0
 17 36  1  0  0  0  0
M  END
> <s_m_source_file>
AV-unprocessed.smi

> <i_m_source_file_index>
331

> <i_lp_mmshare_version>
43012

> <i_f3d_flags>
0

> <s_epik_input>
W0NIMl0xW0NIMl1bQ0gyXVtDSDJdW0NIXTFbTkhdQyg9TylbTkhdW0NIMl1bQ0gyXWMyW2NIXVtjSF1bY0hdbltjSF0y

> <s_epik_cmdline>
J2VwaWtfcHl0aG9uJywgJy1waCcsICc3LjAnLCAnLXRuJywgJzgnLCAnLW1hJywgJzIwMCcsICctbWV0YWxfYmluZGluZycsICctaW1hZScsICc8aW5maWxlLm1hZT4nLCAnLW9tYWUnLCAnPG91dGZpbGUubWFlPic=

> <r_epik_Ionization_Penalty>
0.0144384

> <r_epik_Ionization_Penalty_Charging>
0

> <r_epik_Ionization_Penalty_Neutral>
0.0144384

> <r_epik_State_Penalty>
0.0112394

> <r_epik_Charging_Adjusted_Penalty>
0.0112394

> <i_epik_Tot_Q>
0

> <i_epik_Tot_abs_Q>
0

> <r_epik_Metal_State_Penalty>
0.0109726

> <b_epik_Metal_Only>
0

> <s_lp_Force_Field>
OPLS_2005

> <r_lp_Energy>
25.692

> <b_lp_Chiralities_Consistent>
1

> <s_lp_Variant>
AV-unprocessed.smi:331-1

> <Gold.Version>
5.8.1

> <Gold.Id.Protein>
6NUR|6NUR_protein|mol2

> <Gold.PLP.Fitness>
42.5764

> <Gold.PLP.PLP>
-38.7806

> <Gold.PLP.part.hbond>
-4.0321

> <Gold.PLP.part.metal>
0.0000

> <Gold.PLP.part.buried>
-1.2759

> <Gold.PLP.part.nonpolar>
-33.4822

> <Gold.PLP.part.repulsive>
0.1364

> <Gold.PLP.ligand.clash>
0.0000

> <Gold.PLP.ligand.torsion>
0.8720

> <Gold.PLP.Chemscore.Hbond>
1.8413

> <Gold.PLP.Chemscore.CHOScore>
0.0000

> <Gold.PLP.Chemscore.Metal>
0.0000

> <Gold.Chemscore.Hbonds>
donor molecule, donor type, donor heavy atom, donor atom, acceptor molecule, acceptor atom, score
      L1  H     3    18       P1  8029  0.75
      L1  H    12    27       P1  8028  0.98

> <Gold.PLP.Chemscore.Internal.Correction>
0.0161

> <Gold.Rescore>
     Score         DG    S(hbond)    S(metal)    S(lipo)     H(rot)  DE(clash)    DE(int)     intcor
     15.69     -16.76       0.90        0.00     103.61       1.51       0.42       0.65       ----

> <Gold.Chemscore.Fitness>
15.6905

> <Gold.Chemscore.DG>
-16.7561

> <Gold.Chemscore.ZeroCoef>
-5.4800

> <Gold.Chemscore.Hbond>
0.9010

> <Gold.Chemscore.Metal>
0.0000

> <Gold.Chemscore.Lipo>
103.6072

> <Gold.Chemscore.Internal_Hbond>
0.0000

> <Gold.Chemscore.DEClash>
0.4199

> <Gold.Chemscore.DEInternal>
0.6457

> <Gold.Chemscore.Rot>
1.5060

> <Gold.Chemscore.Internal.Correction>
   9.000000E+99

> <Gold.Chemscore.Hbonds>
donor molecule, donor type, donor heavy atom, donor atom, acceptor molecule, acceptor atom, score
      L1  H     3    18       P1  8029  0.09
      L1  H    12    27       P1  8028  0.59

> <Gold.Chemscore.Hbond.Weighted>
-3.0093

> <Gold.Chemscore.Metal.Weighted>
-0.0000

> <Gold.Chemscore.Lipo.Weighted>
-12.1220

> <Gold.Chemscore.Internal_Hbond.Weighted>
0.0000

> <Gold.Chemscore.DEClash.Weighted>
0.4199

> <Gold.Chemscore.DEInternal.Weighted>
0.6457

> <Gold.Chemscore.Rot.Weighted>
3.8553

> <Gold.Chemscore.Internal.Correction.Weighted>
   9.000000E+99

> <Gold.Protein.RotatedTorsions>
[ 6907 6896 6895 6894 ] final  137.47 input  -60.11 | X-H torsion
[ 7974 7965 7964 7962 ] final  -33.41 input  175.53 | X-H torsion
[ 8008 7997 7996 7995 ] final  -70.20 input   59.86 | X-H torsion
[ 10167 10162 10161 10158 ] final -167.04 input  -65.29 | X-H torsion
[ 10718 10713 10712 10709 ] final   27.46 input   66.30 | X-H torsion
[ 10763 10752 10751 10750 ] final   29.28 input  -60.55 | X-H torsion
[ 11005 11000 10999 10996 ] final -110.97 input  -57.11 | X-H torsion

> <Gold.Protein.ActiveResidues>
 VAL166  LYS551  ARG553  GLY616  TRP617  ASP618  TYR619  PRO620  LYS621  CYS622 
 ASP623  PHE694  ASN695  SER759  ASP760  ASP761  ALA762  ILE779  LEU786  VAL792 
 PHE793  MET794  SER795  GLU796  ALA797  LYS798  CYS799  TRP800  GLU811  SER814 

> <Gold.Protein.RotatedAtoms>
  152.2777  133.5441  159.5477 H   0  0  0  0  0  0  0  0  0  0  0  0  # atno 6907 bound_to 6896
  150.7183  134.0609  159.3840 H   0  0  0  0  0  0  0  0  0  0  0  0  # atno 6908 bound_to 6896
  151.8521  135.0554  160.0511 H   0  0  0  0  0  0  0  0  0  0  0  0  # atno 6909 bound_to 6896
  146.0913  140.5913  142.8863 H   0  0  0  0  0  0  0  0  0  0  0  0  # atno 7974 bound_to 7965
  154.4994  140.0839  156.7766 H   0  0  0  0  0  0  0  0  0  0  0  0  # atno 8008 bound_to 7997
  155.4038  140.3438  155.4240 H   0  0  0  0  0  0  0  0  0  0  0  0  # atno 8009 bound_to 7997
  156.1437  140.1537  156.8868 H   0  0  0  0  0  0  0  0  0  0  0  0  # atno 8010 bound_to 7997
  139.6075  144.0883  152.1808 H   0  0  0  0  0  0  0  0  0  0  0  0  # atno 10167 bound_to 10162
  157.2205  130.6977  149.6268 H   0  0  0  0  0  0  0  0  0  0  0  0  # atno 10718 bound_to 10713
  153.0440  135.6493  154.0866 H   0  0  0  0  0  0  0  0  0  0  0  0  # atno 10763 bound_to 10752
  154.0568  135.2891  155.3333 H   0  0  0  0  0  0  0  0  0  0  0  0  # atno 10764 bound_to 10752
  154.6684  135.5365  153.8172 H   0  0  0  0  0  0  0  0  0  0  0  0  # atno 10765 bound_to 10752
  141.0761  133.9298  157.2386 H   0  0  0  0  0  0  0  0  0  0  0  0  # atno 11005 bound_to 11000
  144.7362  140.4815  143.6902 LP  0  0  0  0  0  0  0  0  0  0  0  0  # atno 17320 bound_to 7965
  145.6034  139.1506  143.3116 LP  0  0  0  0  0  0  0  0  0  0  0  0  # atno 17321 bound_to 7965
  140.0493  144.5945  150.7348 LP  0  0  0  0  0  0  0  0  0  0  0  0  # atno 17342 bound_to 10162
  140.7295  143.2673  151.4001 LP  0  0  0  0  0  0  0  0  0  0  0  0  # atno 17343 bound_to 10162
  155.9682  130.4521  150.5762 LP  0  0  0  0  0  0  0  0  0  0  0  0  # atno 17370 bound_to 10713
  157.3580  131.0745  151.1659 LP  0  0  0  0  0  0  0  0  0  0  0  0  # atno 17371 bound_to 10713
  139.9574  135.0162  156.9166 LP  0  0  0  0  0  0  0  0  0  0  0  0  # atno 17394 bound_to 11000
  140.5569  134.0572  155.7386 LP  0  0  0  0  0  0  0  0  0  0  0  0  # atno 17395 bound_to 11000

$$$$
