AV-unprocessed.smi:870|AV-procd|sdf|4008|dock3
  -GOLD-   22720 1493D 1   1.00000     0.00000
 Structure written by MMmdl.
 46 48  0  0  0  0  0  0  0  0  1 V2000
  152.4648  138.6645  154.6165 C   0  0  0  0  0  0  0  0  0  0  0  0
  152.5041  139.9101  155.2883 O   0  0  0  0  0  0  0  0  0  0  0  0
  151.2403  140.2801  155.8135 C   0  0  0  0  0  0  0  0  0  0  0  0
  151.4843  141.2159  156.9586 C   0  0  0  0  0  0  0  0  0  0  0  0
  151.0052  142.4604  156.9630 N   0  0  0  0  0  0  0  0  0  0  0  0
  151.4737  142.9624  158.1614 C   0  0  0  0  0  0  0  0  0  0  0  0
  151.3098  144.2372  158.7491 C   0  0  0  0  0  0  0  0  0  0  0  0
  151.8955  144.5279  159.9988 C   0  0  0  0  0  0  0  0  0  0  0  0
  152.6526  143.5505  160.6765 C   0  0  0  0  0  0  0  0  0  0  0  0
  152.8281  142.2740  160.1087 C   0  0  0  0  0  0  0  0  0  0  0  0
  152.2392  141.9879  158.8622 C   0  0  0  0  0  0  0  0  0  0  0  0
  152.2136  140.8602  158.0477 N   0  0  0  0  0  0  0  0  0  0  0  0
  152.8566  139.5827  158.3302 C   0  0  0  0  0  0  0  0  0  0  0  0
  152.1826  138.8162  159.4896 C   0  0  1  0  0  0  0  0  0  0  0  0
  150.9836  138.1849  159.0872 O   0  0  0  0  0  0  0  0  0  0  0  0
  153.0985  137.7747  160.1521 C   0  0  0  0  0  0  0  0  0  0  0  0
  154.1024  138.4396  160.9084 O   0  0  0  0  0  0  0  0  0  0  0  0
  154.3421  138.0257  162.2017 C   0  0  0  0  0  0  0  0  0  0  0  0
  153.6676  136.9424  162.8201 C   0  0  0  0  0  0  0  0  0  0  0  0
  153.9667  136.5779  164.1466 C   0  0  0  0  0  0  0  0  0  0  0  0
  154.9406  137.2877  164.8712 C   0  0  0  0  0  0  0  0  0  0  0  0
  155.6164  138.3636  164.2674 C   0  0  0  0  0  0  0  0  0  0  0  0
  155.3202  138.7332  162.9387 C   0  0  0  0  0  0  0  0  0  0  0  0
  156.0618  139.8922  162.2993 C   0  0  0  0  0  0  0  0  0  0  0  0
  153.4522  138.4316  154.2183 H   0  0  0  0  0  0  0  0  0  0  0  0
  151.7629  138.6891  153.7822 H   0  0  0  0  0  0  0  0  0  0  0  0
  152.1749  137.8605  155.2942 H   0  0  0  0  0  0  0  0  0  0  0  0
  150.6233  140.7739  155.0613 H   0  0  0  0  0  0  0  0  0  0  0  0
  150.7004  139.3985  156.1635 H   0  0  0  0  0  0  0  0  0  0  0  0
  150.7326  144.9927  158.2371 H   0  0  0  0  0  0  0  0  0  0  0  0
  151.7637  145.5054  160.4390 H   0  0  0  0  0  0  0  0  0  0  0  0
  153.0985  143.7816  161.6329 H   0  0  0  0  0  0  0  0  0  0  0  0
  153.4078  141.5240  160.6253 H   0  0  0  0  0  0  0  0  0  0  0  0
  152.8676  138.9774  157.4253 H   0  0  0  0  0  0  0  0  0  0  0  0
  153.9021  139.7751  158.5729 H   0  0  0  0  0  0  0  0  0  0  0  0
  151.8923  139.5345  160.2565 H   0  0  0  0  0  0  0  0  0  0  0  0
  151.2049  137.4057  158.5999 H   0  0  0  0  0  0  0  0  0  0  0  0
  152.4985  137.1527  160.8182 H   0  0  0  0  0  0  0  0  0  0  0  0
  153.5428  137.1237  159.3969 H   0  0  0  0  0  0  0  0  0  0  0  0
  152.9141  136.3729  162.2980 H   0  0  0  0  0  0  0  0  0  0  0  0
  153.4473  135.7512  164.6086 H   0  0  0  0  0  0  0  0  0  0  0  0
  155.1692  137.0073  165.8888 H   0  0  0  0  0  0  0  0  0  0  0  0
  156.3643  138.9037  164.8293 H   0  0  0  0  0  0  0  0  0  0  0  0
  156.6998  140.4048  163.0193 H   0  0  0  0  0  0  0  0  0  0  0  0
  155.3580  140.6197  161.8938 H   0  0  0  0  0  0  0  0  0  0  0  0
  156.6897  139.5308  161.4849 H   0  0  0  0  0  0  0  0  0  0  0  0
  1  2  1  0  0  0  0
  1 25  1  0  0  0  0
  1 26  1  0  0  0  0
  1 27  1  0  0  0  0
  2  3  1  0  0  0  0
  3  4  1  0  0  0  0
  3 28  1  0  0  0  0
  3 29  1  0  0  0  0
  4 12  1  0  0  0  0
  4  5  2  0  0  0  0
  5  6  1  0  0  0  0
  6 11  2  0  0  0  0
  6  7  1  0  0  0  0
  7  8  2  0  0  0  0
  7 30  1  0  0  0  0
  8  9  1  0  0  0  0
  8 31  1  0  0  0  0
  9 10  2  0  0  0  0
  9 32  1  0  0  0  0
 10 11  1  0  0  0  0
 10 33  1  0  0  0  0
 11 12  1  0  0  0  0
 12 13  1  0  0  0  0
 13 14  1  0  0  0  0
 13 34  1  0  0  0  0
 13 35  1  0  0  0  0
 14 15  1  0  0  0  0
 14 16  1  0  0  0  0
 14 36  1  0  0  0  0
 15 37  1  0  0  0  0
 16 17  1  0  0  0  0
 16 38  1  0  0  0  0
 16 39  1  0  0  0  0
 17 18  1  0  0  0  0
 18 23  1  0  0  0  0
 18 19  2  0  0  0  0
 19 20  1  0  0  0  0
 19 40  1  0  0  0  0
 20 21  2  0  0  0  0
 20 41  1  0  0  0  0
 21 22  1  0  0  0  0
 21 42  1  0  0  0  0
 22 23  2  0  0  0  0
 22 43  1  0  0  0  0
 23 24  1  0  0  0  0
 24 44  1  0  0  0  0
 24 45  1  0  0  0  0
 24 46  1  0  0  0  0
M  END
> <s_m_source_file>
AV-unprocessed.smi

> <i_m_source_file_index>
870

> <i_lp_mmshare_version>
43012

> <i_f3d_flags>
0

> <s_epik_input>
W2NIXTFbY0hdW2NIXVtjSF1jKGMxMiluKGMobjIpW0NIMl1PW0NIM10pW0NIMl1bQ0BIXShbT0hdKVtDSDJdT2MzW2NIXVtjSF1bY0hdW2NIXWMzW0NIM10=

> <s_epik_cmdline>
J2VwaWtfcHl0aG9uJywgJy1waCcsICc3LjAnLCAnLXRuJywgJzgnLCAnLW1hJywgJzIwMCcsICctbWV0YWxfYmluZGluZycsICctaW1hZScsICc8aW5maWxlLm1hZT4nLCAnLW9tYWUnLCAnPG91dGZpbGUubWFlPic=

> <r_lp_tautomer_probability>
1

> <r_epik_Ionization_Penalty>
0.0447032

> <r_epik_Ionization_Penalty_Charging>
0

> <r_epik_Ionization_Penalty_Neutral>
0.0447032

> <r_epik_State_Penalty>
0.0379025

> <r_epik_Charging_Adjusted_Penalty>
0.0379025

> <i_epik_Tot_Q>
0

> <i_epik_Tot_abs_Q>
0

> <r_epik_Metal_State_Penalty>
3.91398e-05

> <b_epik_Metal_Only>
0

> <s_lp_Force_Field>
OPLS_2005

> <r_lp_Energy>
16.5078

> <b_lp_Chiralities_Consistent>
1

> <s_lp_Variant>
AV-unprocessed.smi:870-2

> <Gold.Version>
5.8.1

> <Gold.Id.Protein>
6NUR|6NUR_protein|mol2

> <Gold.PLP.Fitness>
55.1577

> <Gold.PLP.PLP>
-53.5665

> <Gold.PLP.part.hbond>
-1.9845

> <Gold.PLP.part.metal>
0.0000

> <Gold.PLP.part.buried>
-5.0679

> <Gold.PLP.part.nonpolar>
-46.0046

> <Gold.PLP.part.repulsive>
0.1045

> <Gold.PLP.ligand.clash>
0.0000

> <Gold.PLP.ligand.torsion>
0.8495

> <Gold.PLP.Chemscore.Hbond>
1.0085

> <Gold.PLP.Chemscore.CHOScore>
0.0000

> <Gold.PLP.Chemscore.Metal>
0.0000

> <Gold.Chemscore.Hbonds>
donor molecule, donor type, donor heavy atom, donor atom, acceptor molecule, acceptor atom, score
      P1  H  7989  7998       L1     2  0.02
      P1  H  7997  8009       L1     2  0.98

> <Gold.PLP.Chemscore.Internal.Correction>
0.2648

> <Gold.Rescore>
     Score         DG    S(hbond)    S(metal)    S(lipo)     H(rot)  DE(clash)    DE(int)     intcor
     19.62     -20.51       0.94        0.00     153.29       2.36       0.08       0.81       ----

> <Gold.Chemscore.Fitness>
19.6216

> <Gold.Chemscore.DG>
-20.5075

> <Gold.Chemscore.ZeroCoef>
-5.4800

> <Gold.Chemscore.Hbond>
0.9372

> <Gold.Chemscore.Metal>
0.0000

> <Gold.Chemscore.Lipo>
153.2902

> <Gold.Chemscore.Internal_Hbond>
0.0000

> <Gold.Chemscore.DEClash>
0.0773

> <Gold.Chemscore.DEInternal>
0.8086

> <Gold.Chemscore.Rot>
2.3585

> <Gold.Chemscore.Internal.Correction>
   9.000000E+99

> <Gold.Chemscore.Hbonds>
donor molecule, donor type, donor heavy atom, donor atom, acceptor molecule, acceptor atom, score
      P1  H  7997  8009       L1     2  0.60

> <Gold.Chemscore.Hbond.Weighted>
-3.1304

> <Gold.Chemscore.Metal.Weighted>
-0.0000

> <Gold.Chemscore.Lipo.Weighted>
-17.9350

> <Gold.Chemscore.Internal_Hbond.Weighted>
0.0000

> <Gold.Chemscore.DEClash.Weighted>
0.0773

> <Gold.Chemscore.DEInternal.Weighted>
0.8086

> <Gold.Chemscore.Rot.Weighted>
6.0378

> <Gold.Chemscore.Internal.Correction.Weighted>
   9.000000E+99

> <Gold.Protein.RotatedTorsions>
[ 6907 6896 6895 6894 ] final   37.56 input  -60.11 | X-H torsion
[ 7974 7965 7964 7962 ] final  107.24 input  175.53 | X-H torsion
[ 8008 7997 7996 7995 ] final -144.08 input   59.86 | X-H torsion
[ 10167 10162 10161 10158 ] final   91.51 input  -65.29 | X-H torsion
[ 10718 10713 10712 10709 ] final -121.88 input   66.30 | X-H torsion
[ 10763 10752 10751 10750 ] final  -95.02 input  -60.55 | X-H torsion
[ 11005 11000 10999 10996 ] final    8.10 input  -57.11 | X-H torsion

> <Gold.Protein.ActiveResidues>
 VAL166  LYS551  ARG553  GLY616  TRP617  ASP618  TYR619  PRO620  LYS621  CYS622 
 ASP623  PHE694  ASN695  SER759  ASP760  ASP761  ALA762  ILE779  LEU786  VAL792 
 PHE793  MET794  SER795  GLU796  ALA797  LYS798  CYS799  TRP800  GLU811  SER814 

> <Gold.Protein.RotatedAtoms>
  152.1448  134.9034  160.0551 H   0  0  0  0  0  0  0  0  0  0  0  0  # atno 6907 bound_to 6896
  152.0088  133.3848  159.4220 H   0  0  0  0  0  0  0  0  0  0  0  0  # atno 6908 bound_to 6896
  150.6869  134.3674  159.5021 H   0  0  0  0  0  0  0  0  0  0  0  0  # atno 6909 bound_to 6896
  145.2961  139.2584  143.3838 H   0  0  0  0  0  0  0  0  0  0  0  0  # atno 7974 bound_to 7965
  155.5211  140.0591  157.2906 H   0  0  0  0  0  0  0  0  0  0  0  0  # atno 8008 bound_to 7997
  154.4517  140.1952  156.0445 H   0  0  0  0  0  0  0  0  0  0  0  0  # atno 8009 bound_to 7997
  156.0718  140.3259  155.7589 H   0  0  0  0  0  0  0  0  0  0  0  0  # atno 8010 bound_to 7997
  139.8367  144.6661  150.9333 H   0  0  0  0  0  0  0  0  0  0  0  0  # atno 10167 bound_to 10162
  156.1373  130.6440  150.9716 H   0  0  0  0  0  0  0  0  0  0  0  0  # atno 10718 bound_to 10713
  154.7109  135.5136  153.8665 H   0  0  0  0  0  0  0  0  0  0  0  0  # atno 10763 bound_to 10752
  153.0780  135.6622  154.0114 H   0  0  0  0  0  0  0  0  0  0  0  0  # atno 10764 bound_to 10752
  153.9956  135.3015  155.3387 H   0  0  0  0  0  0  0  0  0  0  0  0  # atno 10765 bound_to 10752
  140.5408  134.0377  155.7903 H   0  0  0  0  0  0  0  0  0  0  0  0  # atno 11005 bound_to 11000
  146.3168  140.3464  142.8652 LP  0  0  0  0  0  0  0  0  0  0  0  0  # atno 17320 bound_to 7965
  144.9132  140.7781  143.5794 LP  0  0  0  0  0  0  0  0  0  0  0  0  # atno 17321 bound_to 7965
  140.7802  143.3950  151.1245 LP  0  0  0  0  0  0  0  0  0  0  0  0  # atno 17342 bound_to 10162
  139.7599  143.8651  152.3098 LP  0  0  0  0  0  0  0  0  0  0  0  0  # atno 17343 bound_to 10162
  157.6544  131.0892  150.7981 LP  0  0  0  0  0  0  0  0  0  0  0  0  # atno 17370 bound_to 10713
  156.8059  130.4936  149.5363 LP  0  0  0  0  0  0  0  0  0  0  0  0  # atno 17371 bound_to 10713
  141.1228  133.9432  157.2695 LP  0  0  0  0  0  0  0  0  0  0  0  0  # atno 17394 bound_to 11000
  139.9505  135.0176  156.8980 LP  0  0  0  0  0  0  0  0  0  0  0  0  # atno 17395 bound_to 11000

$$$$
