AV-unprocessed.smi:3287|AV-procd|sdf|12601|dock10
  -GOLD-   2272018523D 1   1.00000     0.00000
 Structure written by MMmdl.
 43 44  0  0  0  0  0  0  0  0  2 V2000
  152.9421  143.2044  162.0789 C   0  0  0  0  0  0  0  0  0  0  0  0
  152.1779  142.9162  160.7744 C   0  0  1  0  0  0  0  0  0  0  0  0
  151.7197  144.2418  160.1333 C   0  0  0  0  0  0  0  0  0  0  0  0
  150.9392  144.0170  158.8307 C   0  0  0  0  0  0  0  0  0  0  0  0
  151.7698  143.2043  157.8205 C   0  0  2  0  0  0  0  0  0  0  0  0
  151.0096  142.9410  156.5788 N   0  3  0  0  0  0  0  0  0  0  0  0
  150.0913  141.7831  156.6347 C   0  0  0  0  0  0  0  0  0  0  0  0
  149.8590  141.1809  155.2381 C   0  0  2  0  0  0  0  0  0  0  0  0
  148.4687  141.0128  155.0387 O   0  0  0  0  0  0  0  0  0  0  0  0
  150.6140  139.8709  155.0750 C   0  0  0  0  0  0  0  0  0  0  0  0
  151.9616  139.7663  155.4783 C   0  0  0  0  0  0  0  0  0  0  0  0
  152.6193  138.5301  155.3170 C   0  0  0  0  0  0  0  0  0  0  0  0
  152.0238  137.4357  154.7972 N   0  0  0  0  0  0  0  0  0  0  0  0
  150.7336  137.5402  154.4142 C   0  0  0  0  0  0  0  0  0  0  0  0
  149.9859  138.7288  154.5323 C   0  0  0  0  0  0  0  0  0  0  0  0
  152.2094  141.8731  158.4538 C   0  0  0  0  0  0  0  0  0  0  0  0
  153.0018  142.0775  159.7617 C   0  0  2  0  0  0  0  0  0  0  0  0
  153.4376  140.7136  160.3267 C   0  0  0  0  0  0  0  0  0  0  0  0
  153.8849  143.7154  161.8819 H   0  0  0  0  0  0  0  0  0  0  0  0
  153.1636  142.2909  162.6301 H   0  0  0  0  0  0  0  0  0  0  0  0
  152.3549  143.8388  162.7434 H   0  0  0  0  0  0  0  0  0  0  0  0
  151.2835  142.3489  161.0371 H   0  0  0  0  0  0  0  0  0  0  0  0
  151.0964  144.7979  160.8348 H   0  0  0  0  0  0  0  0  0  0  0  0
  152.5874  144.8713  159.9302 H   0  0  0  0  0  0  0  0  0  0  0  0
  150.0061  143.4963  159.0507 H   0  0  0  0  0  0  0  0  0  0  0  0
  150.6625  144.9850  158.4131 H   0  0  0  0  0  0  0  0  0  0  0  0
  152.6683  143.7657  157.5592 H   0  0  0  0  0  0  0  0  0  0  0  0
  150.4418  143.7549  156.3889 H   0  0  0  0  0  0  0  0  0  0  0  0
  150.5170  141.0220  157.2887 H   0  0  0  0  0  0  0  0  0  0  0  0
  149.1416  142.0899  157.0760 H   0  0  0  0  0  0  0  0  0  0  0  0
  150.2144  141.8808  154.4803 H   0  0  0  0  0  0  0  0  0  0  0  0
  148.1916  140.2351  155.4997 H   0  0  0  0  0  0  0  0  0  0  0  0
  152.4854  140.6101  155.9030 H   0  0  0  0  0  0  0  0  0  0  0  0
  153.6510  138.4176  155.6156 H   0  0  0  0  0  0  0  0  0  0  0  0
  150.2821  136.6494  154.0031 H   0  0  0  0  0  0  0  0  0  0  0  0
  148.9542  138.7567  154.2139 H   0  0  0  0  0  0  0  0  0  0  0  0
  151.3333  141.2535  158.6525 H   0  0  0  0  0  0  0  0  0  0  0  0
  152.8208  141.3183  157.7405 H   0  0  0  0  0  0  0  0  0  0  0  0
  153.9075  142.6345  159.5165 H   0  0  0  0  0  0  0  0  0  0  0  0
  152.5803  140.1331  160.6687 H   0  0  0  0  0  0  0  0  0  0  0  0
  154.1249  140.8234  161.1648 H   0  0  0  0  0  0  0  0  0  0  0  0
  153.9559  140.1238  159.5701 H   0  0  0  0  0  0  0  0  0  0  0  0
  151.6581  142.8194  155.8143 H   0  0  0  0  0  0  0  0  0  0  0  0
  1  2  1  0  0  0  0
  1 19  1  0  0  0  0
  1 20  1  0  0  0  0
  1 21  1  0  0  0  0
  2 17  1  0  0  0  0
  2  3  1  0  0  0  0
  2 22  1  0  0  0  0
  3  4  1  0  0  0  0
  3 23  1  0  0  0  0
  3 24  1  0  0  0  0
  4  5  1  0  0  0  0
  4 25  1  0  0  0  0
  4 26  1  0  0  0  0
  5  6  1  0  0  0  0
  5 16  1  0  0  0  0
  5 27  1  0  0  0  0
  6  7  1  0  0  0  0
  6 28  1  0  0  0  0
  6 43  1  0  0  0  0
  7  8  1  0  0  0  0
  7 29  1  0  0  0  0
  7 30  1  0  0  0  0
  8  9  1  0  0  0  0
  8 10  1  0  0  0  0
  8 31  1  0  0  0  0
  9 32  1  0  0  0  0
 10 15  1  0  0  0  0
 10 11  2  0  0  0  0
 11 12  1  0  0  0  0
 11 33  1  0  0  0  0
 12 13  2  0  0  0  0
 12 34  1  0  0  0  0
 13 14  1  0  0  0  0
 14 15  2  0  0  0  0
 14 35  1  0  0  0  0
 15 36  1  0  0  0  0
 16 17  1  0  0  0  0
 16 37  1  0  0  0  0
 16 38  1  0  0  0  0
 17 18  1  0  0  0  0
 17 39  1  0  0  0  0
 18 40  1  0  0  0  0
 18 41  1  0  0  0  0
 18 42  1  0  0  0  0
M  CHG  1   6   1
M  END
> <s_m_source_file>
AV-unprocessed.smi

> <i_m_source_file_index>
3287

> <i_lp_mmshare_version>
43012

> <i_f3d_flags>
0

> <s_epik_input>
W0NIM11bQ0BASF0xW0NIMl1bQ0gyXVtDQEhdKFtDSDJdW0NASF0xW0NIM10pW05IXVtDSDJdW0NASF0oW09IXSljMltjSF1bY0hdbltjSF1bY0hdMg==

> <s_epik_cmdline>
J2VwaWtfcHl0aG9uJywgJy1waCcsICc3LjAnLCAnLXRuJywgJzgnLCAnLW1hJywgJzIwMCcsICctbWV0YWxfYmluZGluZycsICctaW1hZScsICc8aW5maWxlLm1hZT4nLCAnLW9tYWUnLCAnPG91dGZpbGUubWFlPic=

> <r_lp_tautomer_probability>
1

> <r_epik_Ionization_Penalty>
0.00537262

> <r_epik_Ionization_Penalty_Charging>
0.00321624

> <r_epik_Ionization_Penalty_Neutral>
0.00215638

> <r_epik_State_Penalty>
-0

> <r_epik_Charging_Adjusted_Penalty>
0.00321624

> <i_epik_Tot_Q>
1

> <i_epik_Tot_abs_Q>
1

> <r_epik_Metal_State_Penalty>
-0

> <b_epik_Metal_Only>
0

> <s_lp_Force_Field>
OPLS_2005

> <r_lp_Energy>
15.7848

> <b_lp_Chiralities_Consistent>
1

> <s_lp_Variant>
AV-unprocessed.smi:3287-12

> <Gold.Version>
5.8.1

> <Gold.Id.Protein>
6NUR|6NUR_protein|mol2

> <Gold.PLP.Fitness>
53.8188

> <Gold.PLP.PLP>
-45.1576

> <Gold.PLP.part.hbond>
-2.0000

> <Gold.PLP.part.metal>
0.0000

> <Gold.PLP.part.buried>
-3.7671

> <Gold.PLP.part.nonpolar>
-39.2856

> <Gold.PLP.part.repulsive>
0.1675

> <Gold.PLP.ligand.clash>
0.0000

> <Gold.PLP.ligand.torsion>
1.3257

> <Gold.PLP.Chemscore.Hbond>
2.8406

> <Gold.PLP.Chemscore.CHOScore>
0.9258

> <Gold.PLP.Chemscore.Metal>
0.0000

> <Gold.Chemscore.Hbonds>
donor molecule, donor type, donor heavy atom, donor atom, acceptor molecule, acceptor atom, score
      L1  H     6    28       P1  8028  2.00
      P1  H 10752 10765       L1    13  0.83
      L1  C    14    35       P1  7948  0.83
      L1  C    14    35       P1  7949  0.10

> <Gold.PLP.Chemscore.Internal.Correction>
0.0133

> <Gold.Rescore>
     Score         DG    S(hbond)    S(metal)    S(lipo)     H(rot)  DE(clash)    DE(int)     intcor
     21.13     -22.45       1.88        0.00     132.91       1.90       0.05       1.28       ----

> <Gold.Chemscore.Fitness>
21.1270

> <Gold.Chemscore.DG>
-22.4489

> <Gold.Chemscore.ZeroCoef>
-5.4800

> <Gold.Chemscore.Hbond>
1.8835

> <Gold.Chemscore.Metal>
0.0000

> <Gold.Chemscore.Lipo>
132.9149

> <Gold.Chemscore.Internal_Hbond>
0.0000

> <Gold.Chemscore.DEClash>
0.0462

> <Gold.Chemscore.DEInternal>
1.2757

> <Gold.Chemscore.Rot>
1.9035

> <Gold.Chemscore.Internal.Correction>
   9.000000E+99

> <Gold.Chemscore.Hbonds>
donor molecule, donor type, donor heavy atom, donor atom, acceptor molecule, acceptor atom, score
      L1  H     6    28       P1  8028  0.97
      P1  H 10752 10765       L1    13  0.73

> <Gold.Chemscore.Hbond.Weighted>
-6.2907

> <Gold.Chemscore.Metal.Weighted>
-0.0000

> <Gold.Chemscore.Lipo.Weighted>
-15.5510

> <Gold.Chemscore.Internal_Hbond.Weighted>
0.0000

> <Gold.Chemscore.DEClash.Weighted>
0.0462

> <Gold.Chemscore.DEInternal.Weighted>
1.2757

> <Gold.Chemscore.Rot.Weighted>
4.8729

> <Gold.Chemscore.Internal.Correction.Weighted>
   9.000000E+99

> <Gold.Protein.RotatedTorsions>
[ 6907 6896 6895 6894 ] final  -61.85 input  -60.11 | X-H torsion
[ 7974 7965 7964 7962 ] final  132.73 input  175.53 | X-H torsion
[ 8008 7997 7996 7995 ] final   56.40 input   59.86 | X-H torsion
[ 10167 10162 10161 10158 ] final -129.99 input  -65.29 | X-H torsion
[ 10718 10713 10712 10709 ] final   77.43 input   66.30 | X-H torsion
[ 10763 10752 10751 10750 ] final  173.97 input  -60.55 | X-H torsion
[ 11005 11000 10999 10996 ] final -159.94 input  -57.11 | X-H torsion

> <Gold.Protein.ActiveResidues>
 VAL166  LYS551  ARG553  GLY616  TRP617  ASP618  TYR619  PRO620  LYS621  CYS622 
 ASP623  PHE694  ASN695  SER759  ASP760  ASP761  ALA762  ILE779  LEU786  VAL792 
 PHE793  MET794  SER795  GLU796  ALA797  LYS798  CYS799  TRP800  GLU811  SER814 

> <Gold.Protein.RotatedAtoms>
  150.7756  134.6649  159.6359 H   0  0  0  0  0  0  0  0  0  0  0  0  # atno 6907 bound_to 6896
  152.3824  134.6566  160.0147 H   0  0  0  0  0  0  0  0  0  0  0  0  # atno 6908 bound_to 6896
  151.6892  133.3274  159.3275 H   0  0  0  0  0  0  0  0  0  0  0  0  # atno 6909 bound_to 6896
  144.9938  139.4379  143.5326 H   0  0  0  0  0  0  0  0  0  0  0  0  # atno 7974 bound_to 7965
  155.5168  140.3478  155.4399 H   0  0  0  0  0  0  0  0  0  0  0  0  # atno 8008 bound_to 7997
  156.0811  140.1387  156.9738 H   0  0  0  0  0  0  0  0  0  0  0  0  # atno 8009 bound_to 7997
  154.4580  140.0945  156.6790 H   0  0  0  0  0  0  0  0  0  0  0  0  # atno 8010 bound_to 7997
  139.9340  143.6239  152.2522 H   0  0  0  0  0  0  0  0  0  0  0  0  # atno 10167 bound_to 10162
  157.6710  130.9821  150.1640 H   0  0  0  0  0  0  0  0  0  0  0  0  # atno 10718 bound_to 10713
  154.4474  135.2764  155.1805 H   0  0  0  0  0  0  0  0  0  0  0  0  # atno 10763 bound_to 10752
  154.3646  135.6122  153.5712 H   0  0  0  0  0  0  0  0  0  0  0  0  # atno 10764 bound_to 10752
  152.9844  135.5843  154.4812 H   0  0  0  0  0  0  0  0  0  0  0  0  # atno 10765 bound_to 10752
  140.6370  134.4591  157.5232 H   0  0  0  0  0  0  0  0  0  0  0  0  # atno 11005 bound_to 11000
  146.3437  139.9286  142.8756 LP  0  0  0  0  0  0  0  0  0  0  0  0  # atno 17320 bound_to 7965
  145.2248  140.9949  143.4025 LP  0  0  0  0  0  0  0  0  0  0  0  0  # atno 17321 bound_to 7965
  139.6759  144.7658  151.1697 LP  0  0  0  0  0  0  0  0  0  0  0  0  # atno 17342 bound_to 10162
  140.7629  143.5796  150.8909 LP  0  0  0  0  0  0  0  0  0  0  0  0  # atno 17343 bound_to 10162
  156.2410  130.3691  149.8337 LP  0  0  0  0  0  0  0  0  0  0  0  0  # atno 17370 bound_to 10713
  156.6137  130.8597  151.3460 LP  0  0  0  0  0  0  0  0  0  0  0  0  # atno 17371 bound_to 10713
  139.9094  134.8377  156.1583 LP  0  0  0  0  0  0  0  0  0  0  0  0  # atno 17394 bound_to 11000
  141.0634  133.6831  156.1997 LP  0  0  0  0  0  0  0  0  0  0  0  0  # atno 17395 bound_to 11000

$$$$
