AV-unprocessed.smi:1190|AV-procd|sdf|4981|dock3
  -GOLD-   22720 3573D 1   1.00000     0.00000
 Structure written by MMmdl.
 43 44  0  0  0  0  0  0  0  0  1 V2000
  153.5639  143.0002  162.9225 C   0  0  0  0  0  0  0  0  0  0  0  0
  152.8354  144.0677  162.3260 O   0  0  0  0  0  0  0  0  0  0  0  0
  152.2428  143.8508  161.0988 C   0  0  0  0  0  0  0  0  0  0  0  0
  152.6388  142.7263  160.3483 C   0  0  0  0  0  0  0  0  0  0  0  0
  152.0399  142.5030  159.0944 C   0  0  0  0  0  0  0  0  0  0  0  0
  151.0712  143.4112  158.6224 C   0  0  0  0  0  0  0  0  0  0  0  0
  150.4747  143.1500  157.3591 N   0  0  0  0  0  0  0  0  0  0  0  0
  150.3612  141.9779  156.7111 C   0  0  0  0  0  0  0  0  0  0  0  0
  150.7511  140.8900  157.1338 O   0  0  0  0  0  0  0  0  0  0  0  0
  149.7477  142.1391  155.5297 N   0  0  0  0  0  0  0  0  0  0  0  0
  149.4542  141.0772  154.5695 C   0  0  0  0  0  0  0  0  0  0  0  0
  148.0961  141.2782  153.8389 C   0  0  1  0  0  0  0  0  0  0  0  0
  147.4001  139.9029  153.6744 C   0  0  0  0  0  0  0  0  0  0  0  0
  147.2252  142.2843  154.4919 N   0  0  0  0  0  0  0  0  0  0  0  0
  146.1201  142.7263  153.6328 C   0  0  0  0  0  0  0  0  0  0  0  0
  145.1986  143.7482  154.3211 C   0  0  0  0  0  0  0  0  0  0  0  0
  144.6876  143.1969  155.5266 O   0  0  0  0  0  0  0  0  0  0  0  0
  145.7252  142.8288  156.4245 C   0  0  0  0  0  0  0  0  0  0  0  0
  146.6509  141.7998  155.7530 C   0  0  0  0  0  0  0  0  0  0  0  0
  150.7310  144.5038  159.4572 C   0  0  0  0  0  0  0  0  0  0  0  0
  151.3007  144.7224  160.6616 N   0  0  0  0  0  0  0  0  0  0  0  0
  153.9588  143.3268  163.8844 H   0  0  0  0  0  0  0  0  0  0  0  0
  154.4096  142.6990  162.3026 H   0  0  0  0  0  0  0  0  0  0  0  0
  152.9262  142.1338  163.1040 H   0  0  0  0  0  0  0  0  0  0  0  0
  153.3883  142.0476  160.7278 H   0  0  0  0  0  0  0  0  0  0  0  0
  152.3267  141.6458  158.5028 H   0  0  0  0  0  0  0  0  0  0  0  0
  150.0372  143.9446  156.9163 H   0  0  0  0  0  0  0  0  0  0  0  0
  149.4608  143.0716  155.2706 H   0  0  0  0  0  0  0  0  0  0  0  0
  150.2572  140.9614  153.8395 H   0  0  0  0  0  0  0  0  0  0  0  0
  149.4499  140.1669  155.1658 H   0  0  0  0  0  0  0  0  0  0  0  0
  148.3272  141.6372  152.8347 H   0  0  0  0  0  0  0  0  0  0  0  0
  148.0508  139.1597  153.2159 H   0  0  0  0  0  0  0  0  0  0  0  0
  146.5301  139.9515  153.0216 H   0  0  0  0  0  0  0  0  0  0  0  0
  147.0787  139.5068  154.6382 H   0  0  0  0  0  0  0  0  0  0  0  0
  146.4993  143.2039  152.7318 H   0  0  0  0  0  0  0  0  0  0  0  0
  145.5312  141.8648  153.3142 H   0  0  0  0  0  0  0  0  0  0  0  0
  145.7373  144.6730  154.5332 H   0  0  0  0  0  0  0  0  0  0  0  0
  144.3655  144.0065  153.6673 H   0  0  0  0  0  0  0  0  0  0  0  0
  146.2866  143.7137  156.7285 H   0  0  0  0  0  0  0  0  0  0  0  0
  145.2815  142.4062  157.3260 H   0  0  0  0  0  0  0  0  0  0  0  0
  146.0970  140.8765  155.5765 H   0  0  0  0  0  0  0  0  0  0  0  0
  147.4362  141.5664  156.4692 H   0  0  0  0  0  0  0  0  0  0  0  0
  149.9731  145.2207  159.1839 H   0  0  0  0  0  0  0  0  0  0  0  0
  1  2  1  0  0  0  0
  1 22  1  0  0  0  0
  1 23  1  0  0  0  0
  1 24  1  0  0  0  0
  2  3  1  0  0  0  0
  3 21  1  0  0  0  0
  3  4  2  0  0  0  0
  4  5  1  0  0  0  0
  4 25  1  0  0  0  0
  5  6  2  0  0  0  0
  5 26  1  0  0  0  0
  6  7  1  0  0  0  0
  6 20  1  0  0  0  0
  7  8  1  0  0  0  0
  7 27  1  0  0  0  0
  8  9  2  0  0  0  0
  8 10  1  0  0  0  0
 10 11  1  0  0  0  0
 10 28  1  0  0  0  0
 11 12  1  0  0  0  0
 11 29  1  0  0  0  0
 11 30  1  0  0  0  0
 12 13  1  0  0  0  0
 12 14  1  0  0  0  0
 12 31  1  0  0  0  0
 13 32  1  0  0  0  0
 13 33  1  0  0  0  0
 13 34  1  0  0  0  0
 14 19  1  0  0  0  0
 14 15  1  0  0  0  0
 15 16  1  0  0  0  0
 15 35  1  0  0  0  0
 15 36  1  0  0  0  0
 16 17  1  0  0  0  0
 16 37  1  0  0  0  0
 16 38  1  0  0  0  0
 17 18  1  0  0  0  0
 18 19  1  0  0  0  0
 18 39  1  0  0  0  0
 18 40  1  0  0  0  0
 19 41  1  0  0  0  0
 19 42  1  0  0  0  0
 20 21  2  0  0  0  0
 20 43  1  0  0  0  0
M  END
> <s_m_source_file>
AV-unprocessed.smi

> <i_m_source_file_index>
1190

> <i_lp_mmshare_version>
43012

> <i_f3d_flags>
0

> <s_epik_input>
W0NIM11PYzFbY0hdW2NIXWMoW2NIXW4xKVtOSF1DKD1PKVtOSF1bQ0gyXVtDQEhdKFtDSDNdKU4yW0NIMl1bQ0gyXU9bQ0gyXVtDSDJdMg==

> <s_epik_cmdline>
J2VwaWtfcHl0aG9uJywgJy1waCcsICc3LjAnLCAnLXRuJywgJzgnLCAnLW1hJywgJzIwMCcsICctbWV0YWxfYmluZGluZycsICctaW1hZScsICc8aW5maWxlLm1hZT4nLCAnLW9tYWUnLCAnPG91dGZpbGUubWFlPic=

> <r_lp_tautomer_probability>
1

> <r_epik_Ionization_Penalty>
0.266084

> <r_epik_Ionization_Penalty_Charging>
0

> <r_epik_Ionization_Penalty_Neutral>
0.266084

> <r_epik_State_Penalty>
0.257924

> <r_epik_Charging_Adjusted_Penalty>
0.257924

> <i_epik_Tot_Q>
0

> <i_epik_Tot_abs_Q>
0

> <r_epik_Metal_State_Penalty>
0.257922

> <b_epik_Metal_Only>
0

> <s_lp_Force_Field>
OPLS_2005

> <r_lp_Energy>
31.4194

> <b_lp_Chiralities_Consistent>
1

> <s_lp_Variant>
AV-unprocessed.smi:1190-2

> <Gold.Version>
5.8.1

> <Gold.Id.Protein>
6NUR|6NUR_protein|mol2

> <Gold.PLP.Fitness>
46.1605

> <Gold.PLP.PLP>
-42.0472

> <Gold.PLP.part.hbond>
-2.0000

> <Gold.PLP.part.metal>
0.0000

> <Gold.PLP.part.buried>
-6.1291

> <Gold.PLP.part.nonpolar>
-33.2986

> <Gold.PLP.part.repulsive>
0.8996

> <Gold.PLP.ligand.clash>
0.0346

> <Gold.PLP.ligand.torsion>
1.2126

> <Gold.PLP.Chemscore.Hbond>
2.0000

> <Gold.PLP.Chemscore.CHOScore>
0.1595

> <Gold.PLP.Chemscore.Metal>
0.0000

> <Gold.Chemscore.Hbonds>
donor molecule, donor type, donor heavy atom, donor atom, acceptor molecule, acceptor atom, score
      L1  H     7    27       P1  8028  1.00
      L1  H    10    28       P1  8028  1.00
      L1  C    20    43       P1  8029  0.07

> <Gold.PLP.Chemscore.Internal.Correction>
0.0946

> <Gold.Rescore>
     Score         DG    S(hbond)    S(metal)    S(lipo)     H(rot)  DE(clash)    DE(int)     intcor
     15.86     -18.28       1.94        0.00      91.74       1.73       0.12       2.29       ----

> <Gold.Chemscore.Fitness>
15.8648

> <Gold.Chemscore.DG>
-18.2804

> <Gold.Chemscore.ZeroCoef>
-5.4800

> <Gold.Chemscore.Hbond>
1.9443

> <Gold.Chemscore.Metal>
0.0000

> <Gold.Chemscore.Lipo>
91.7373

> <Gold.Chemscore.Internal_Hbond>
0.0000

> <Gold.Chemscore.DEClash>
0.1241

> <Gold.Chemscore.DEInternal>
2.2915

> <Gold.Chemscore.Rot>
1.7292

> <Gold.Chemscore.Internal.Correction>
   9.000000E+99

> <Gold.Chemscore.Hbonds>
donor molecule, donor type, donor heavy atom, donor atom, acceptor molecule, acceptor atom, score
      L1  H     7    27       P1  8028  0.95
      L1  H    10    28       P1  8028  0.97

> <Gold.Chemscore.Hbond.Weighted>
-6.4940

> <Gold.Chemscore.Metal.Weighted>
-0.0000

> <Gold.Chemscore.Lipo.Weighted>
-10.7333

> <Gold.Chemscore.Internal_Hbond.Weighted>
0.0000

> <Gold.Chemscore.DEClash.Weighted>
0.1241

> <Gold.Chemscore.DEInternal.Weighted>
2.2915

> <Gold.Chemscore.Rot.Weighted>
4.4268

> <Gold.Chemscore.Internal.Correction.Weighted>
   9.000000E+99

> <Gold.Protein.RotatedTorsions>
[ 6907 6896 6895 6894 ] final -117.09 input  -60.11 | X-H torsion
[ 7974 7965 7964 7962 ] final   77.04 input  175.53 | X-H torsion
[ 8008 7997 7996 7995 ] final   91.06 input   59.86 | X-H torsion
[ 10167 10162 10161 10158 ] final   42.75 input  -65.29 | X-H torsion
[ 10718 10713 10712 10709 ] final -124.35 input   66.30 | X-H torsion
[ 10763 10752 10751 10750 ] final   59.50 input  -60.55 | X-H torsion
[ 11005 11000 10999 10996 ] final   81.69 input  -57.11 | X-H torsion

> <Gold.Protein.ActiveResidues>
 VAL166  LYS551  ARG553  GLY616  TRP617  ASP618  TYR619  PRO620  LYS621  CYS622 
 ASP623  PHE694  ASN695  SER759  ASP760  ASP761  ALA762  ILE779  LEU786  VAL792 
 PHE793  MET794  SER795  GLU796  ALA797  LYS798  CYS799  TRP800  GLU811  SER814 

> <Gold.Protein.RotatedAtoms>
  150.8108  133.8425  159.3182 H   0  0  0  0  0  0  0  0  0  0  0  0  # atno 6907 bound_to 6896
  151.6211  135.1030  160.0111 H   0  0  0  0  0  0  0  0  0  0  0  0  # atno 6908 bound_to 6896
  152.4200  133.7061  159.6508 H   0  0  0  0  0  0  0  0  0  0  0  0  # atno 6909 bound_to 6896
  145.6951  139.2564  143.1737 H   0  0  0  0  0  0  0  0  0  0  0  0  # atno 7974 bound_to 7965
  156.0193  140.3342  155.7022 H   0  0  0  0  0  0  0  0  0  0  0  0  # atno 8008 bound_to 7997
  155.6045  140.0659  157.2741 H   0  0  0  0  0  0  0  0  0  0  0  0  # atno 8009 bound_to 7997
  154.4310  140.1804  156.1196 H   0  0  0  0  0  0  0  0  0  0  0  0  # atno 8010 bound_to 7997
  140.3513  144.2346  150.6145 H   0  0  0  0  0  0  0  0  0  0  0  0  # atno 10167 bound_to 10162
  156.1580  130.6582  151.0009 H   0  0  0  0  0  0  0  0  0  0  0  0  # atno 10718 bound_to 10713
  152.9896  135.5569  154.5723 H   0  0  0  0  0  0  0  0  0  0  0  0  # atno 10763 bound_to 10752
  154.5121  135.2803  155.1336 H   0  0  0  0  0  0  0  0  0  0  0  0  # atno 10764 bound_to 10752
  154.2723  135.6360  153.5368 H   0  0  0  0  0  0  0  0  0  0  0  0  # atno 10765 bound_to 10752
  139.9089  134.8015  156.2075 H   0  0  0  0  0  0  0  0  0  0  0  0  # atno 11005 bound_to 11000
  146.0847  140.7724  142.9624 LP  0  0  0  0  0  0  0  0  0  0  0  0  # atno 17320 bound_to 7965
  144.6985  140.3544  143.7175 LP  0  0  0  0  0  0  0  0  0  0  0  0  # atno 17321 bound_to 7965
  140.5216  143.2264  151.8380 LP  0  0  0  0  0  0  0  0  0  0  0  0  # atno 17342 bound_to 10162
  139.4826  144.4830  151.9283 LP  0  0  0  0  0  0  0  0  0  0  0  0  # atno 17343 bound_to 10162
  157.6710  131.0861  150.7611 LP  0  0  0  0  0  0  0  0  0  0  0  0  # atno 17370 bound_to 10713
  156.7676  130.4818  149.5424 LP  0  0  0  0  0  0  0  0  0  0  0  0  # atno 17371 bound_to 10713
  141.0486  133.6900  156.1730 LP  0  0  0  0  0  0  0  0  0  0  0  0  # atno 17394 bound_to 11000
  140.6845  134.4732  157.5589 LP  0  0  0  0  0  0  0  0  0  0  0  0  # atno 17395 bound_to 11000

$$$$
