AV-unprocessed.smi:1381|AV-procd|sdf|5606|dock2
  -GOLD-   22720 5213D 1   1.00000     0.00000
 Structure written by MMmdl.
 43 44  0  0  0  0  0  0  0  0  2 V2000
  153.6147  137.7517  157.0934 C   0  0  0  0  0  0  0  0  0  0  0  0
  152.6039  138.1855  156.0879 C   0  0  0  0  0  0  0  0  0  0  0  0
  151.5899  137.5319  155.4459 C   0  0  0  0  0  0  0  0  0  0  0  0
  151.0252  138.5450  154.6263 C   0  0  0  0  0  0  0  0  0  0  0  0
  149.9194  138.2670  153.7826 N   0  0  0  0  0  0  0  0  0  0  0  0
  148.7106  138.8537  153.7994 C   0  0  0  0  0  0  0  0  0  0  0  0
  148.3637  139.7461  154.5738 O   0  0  0  0  0  0  0  0  0  0  0  0
  147.9050  138.3422  152.8572 N   0  0  0  0  0  0  0  0  0  0  0  0
  146.5322  138.7718  152.6173 C   0  0  0  0  0  0  0  0  0  0  0  0
  145.7998  137.8149  151.6572 C   0  0  0  0  0  0  0  0  0  0  0  0
  146.0509  136.3895  151.9836 N   0  3  1  0  0  0  0  0  0  0  0  0
  145.4853  136.0018  153.2976 C   0  0  0  0  0  0  0  0  0  0  0  0
  145.8172  134.5353  153.6374 C   0  0  2  0  0  0  0  0  0  0  0  0
  147.2857  134.3150  154.0420 C   0  0  0  0  0  0  0  0  0  0  0  0
  145.4154  133.6781  152.5689 O   0  0  0  0  0  0  0  0  0  0  0  0
  145.9686  134.0059  151.2968 C   0  0  1  0  0  0  0  0  0  0  0  0
  145.4339  132.9952  150.2759 C   0  0  0  0  0  0  0  0  0  0  0  0
  145.5904  135.4523  150.9308 C   0  0  0  0  0  0  0  0  0  0  0  0
  151.6395  139.7109  154.7550 N   0  0  0  0  0  0  0  0  0  0  0  0
  152.6551  139.4862  155.6918 O   0  0  0  0  0  0  0  0  0  0  0  0
  153.3647  136.7709  157.4983 H   0  0  0  0  0  0  0  0  0  0  0  0
  153.6628  138.4568  157.9232 H   0  0  0  0  0  0  0  0  0  0  0  0
  154.6053  137.6902  156.6430 H   0  0  0  0  0  0  0  0  0  0  0  0
  151.3014  136.4964  155.5497 H   0  0  0  0  0  0  0  0  0  0  0  0
  150.0664  137.5448  153.0931 H   0  0  0  0  0  0  0  0  0  0  0  0
  148.2684  137.6127  152.2611 H   0  0  0  0  0  0  0  0  0  0  0  0
  146.0133  138.8558  153.5727 H   0  0  0  0  0  0  0  0  0  0  0  0
  146.5604  139.7749  152.1909 H   0  0  0  0  0  0  0  0  0  0  0  0
  144.7302  138.0169  151.7315 H   0  0  0  0  0  0  0  0  0  0  0  0
  146.0766  138.0059  150.6192 H   0  0  0  0  0  0  0  0  0  0  0  0
  145.8655  136.6588  154.0810 H   0  0  0  0  0  0  0  0  0  0  0  0
  144.4026  136.1364  153.2711 H   0  0  0  0  0  0  0  0  0  0  0  0
  145.2098  134.2496  154.4967 H   0  0  0  0  0  0  0  0  0  0  0  0
  147.5274  134.8813  154.9416 H   0  0  0  0  0  0  0  0  0  0  0  0
  147.9822  134.6300  153.2654 H   0  0  0  0  0  0  0  0  0  0  0  0
  147.4759  133.2629  154.2558 H   0  0  0  0  0  0  0  0  0  0  0  0
  147.0538  133.9085  151.3301 H   0  0  0  0  0  0  0  0  0  0  0  0
  145.8309  133.1944  149.2803 H   0  0  0  0  0  0  0  0  0  0  0  0
  144.3459  133.0312  150.2158 H   0  0  0  0  0  0  0  0  0  0  0  0
  145.7183  131.9787  150.5487 H   0  0  0  0  0  0  0  0  0  0  0  0
  144.5091  135.5416  150.8112 H   0  0  0  0  0  0  0  0  0  0  0  0
  146.0378  135.7081  149.9711 H   0  0  0  0  0  0  0  0  0  0  0  0
  147.0521  136.2822  152.0623 H   0  0  0  0  0  0  0  0  0  0  0  0
  1  2  1  0  0  0  0
  1 21  1  0  0  0  0
  1 22  1  0  0  0  0
  1 23  1  0  0  0  0
  2 20  1  0  0  0  0
  2  3  2  0  0  0  0
  3  4  1  0  0  0  0
  3 24  1  0  0  0  0
  4  5  1  0  0  0  0
  4 19  2  0  0  0  0
  5  6  1  0  0  0  0
  5 25  1  0  0  0  0
  6  7  2  0  0  0  0
  6  8  1  0  0  0  0
  8  9  1  0  0  0  0
  8 26  1  0  0  0  0
  9 10  1  0  0  0  0
  9 27  1  0  0  0  0
  9 28  1  0  0  0  0
 10 11  1  0  0  0  0
 10 29  1  0  0  0  0
 10 30  1  0  0  0  0
 11 18  1  0  0  0  0
 11 12  1  0  0  0  0
 11 43  1  0  0  0  0
 12 13  1  0  0  0  0
 12 31  1  0  0  0  0
 12 32  1  0  0  0  0
 13 14  1  0  0  0  0
 13 15  1  0  0  0  0
 13 33  1  0  0  0  0
 14 34  1  0  0  0  0
 14 35  1  0  0  0  0
 14 36  1  0  0  0  0
 15 16  1  0  0  0  0
 16 17  1  0  0  0  0
 16 18  1  0  0  0  0
 16 37  1  0  0  0  0
 17 38  1  0  0  0  0
 17 39  1  0  0  0  0
 17 40  1  0  0  0  0
 18 41  1  0  0  0  0
 18 42  1  0  0  0  0
 19 20  1  0  0  0  0
M  CHG  1  11   1
M  END
> <s_m_source_file>
AV-unprocessed.smi

> <i_m_source_file_index>
1381

> <i_lp_mmshare_version>
43012

> <i_f3d_flags>
0

> <s_epik_input>
W0NIM11jMVtjSF1jKG5vMSlbTkhdQyg9TylbTkhdW0NIMl1bQ0gyXU4yW0NIMl1bQ0BASF0oW0NIM10pT1tDQEBIXShbQ0gzXSlbQ0gyXTI=

> <s_epik_cmdline>
J2VwaWtfcHl0aG9uJywgJy1waCcsICc3LjAnLCAnLXRuJywgJzgnLCAnLW1hJywgJzIwMCcsICctbWV0YWxfYmluZGluZycsICctaW1hZScsICc8aW5maWxlLm1hZT4nLCAnLW9tYWUnLCAnPG91dGZpbGUubWFlPic=

> <r_epik_Ionization_Penalty>
0.707076

> <r_epik_Ionization_Penalty_Charging>
0.707039

> <r_epik_Ionization_Penalty_Neutral>
3.6548e-05

> <r_epik_State_Penalty>
0.730276

> <r_epik_Charging_Adjusted_Penalty>
1.43732

> <i_epik_Tot_Q>
1

> <i_epik_Tot_abs_Q>
1

> <r_epik_Metal_State_Penalty>
0.743132

> <b_epik_Metal_Only>
0

> <s_lp_Force_Field>
OPLS_2005

> <r_lp_Energy>
14.5355

> <b_lp_Chiralities_Consistent>
1

> <s_lp_Variant>
AV-unprocessed.smi:1381-5

> <Gold.Version>
5.8.1

> <Gold.Id.Protein>
6NUR|6NUR_protein|mol2

> <Gold.PLP.Fitness>
45.0651

> <Gold.PLP.PLP>
-29.3351

> <Gold.PLP.part.hbond>
-6.6759

> <Gold.PLP.part.metal>
0.0000

> <Gold.PLP.part.buried>
-0.2615

> <Gold.PLP.part.nonpolar>
-23.7913

> <Gold.PLP.part.repulsive>
0.4120

> <Gold.PLP.ligand.clash>
0.0000

> <Gold.PLP.ligand.torsion>
0.7071

> <Gold.PLP.Chemscore.Hbond>
5.7041

> <Gold.PLP.Chemscore.CHOScore>
0.0000

> <Gold.PLP.Chemscore.Metal>
0.0000

> <Gold.Chemscore.Hbonds>
donor molecule, donor type, donor heavy atom, donor atom, acceptor molecule, acceptor atom, score
      L1  H     5    25       P1  7948  0.72
      L1  H     8    26       P1  7948  1.00
      L1  H    11    43       P1  7948  2.00
      P1  H  7989  7998       L1    19  1.00
      P1  H  7997  8010       L1    20  1.00

> <Gold.PLP.Chemscore.Internal.Correction>
0.0318

> <Gold.Rescore>
     Score         DG    S(hbond)    S(metal)    S(lipo)     H(rot)  DE(clash)    DE(int)     intcor
     20.70     -22.08       4.19        0.00      57.45       1.61       0.58       0.80       ----

> <Gold.Chemscore.Fitness>
20.7049

> <Gold.Chemscore.DG>
-22.0771

> <Gold.Chemscore.ZeroCoef>
-5.4800

> <Gold.Chemscore.Hbond>
4.1893

> <Gold.Chemscore.Metal>
0.0000

> <Gold.Chemscore.Lipo>
57.4477

> <Gold.Chemscore.Internal_Hbond>
0.0000

> <Gold.Chemscore.DEClash>
0.5771

> <Gold.Chemscore.DEInternal>
0.7951

> <Gold.Chemscore.Rot>
1.6081

> <Gold.Chemscore.Internal.Correction>
   9.000000E+99

> <Gold.Chemscore.Hbonds>
donor molecule, donor type, donor heavy atom, donor atom, acceptor molecule, acceptor atom, score
      L1  H     5    25       P1  7948  0.16
      L1  H     8    26       P1  7948  0.96
      L1  H    11    43       P1  7948  1.00
      P1  H  7989  7998       L1    19  0.97
      P1  H  7997  8010       L1    20  0.65

> <Gold.Chemscore.Hbond.Weighted>
-13.9924

> <Gold.Chemscore.Metal.Weighted>
-0.0000

> <Gold.Chemscore.Lipo.Weighted>
-6.7214

> <Gold.Chemscore.Internal_Hbond.Weighted>
0.0000

> <Gold.Chemscore.DEClash.Weighted>
0.5771

> <Gold.Chemscore.DEInternal.Weighted>
0.7951

> <Gold.Chemscore.Rot.Weighted>
4.1167

> <Gold.Chemscore.Internal.Correction.Weighted>
   9.000000E+99

> <Gold.Protein.RotatedTorsions>
[ 6907 6896 6895 6894 ] final   10.08 input  -60.11 | X-H torsion
[ 7974 7965 7964 7962 ] final -143.14 input  175.53 | X-H torsion
[ 8008 7997 7996 7995 ] final   92.69 input   59.86 | X-H torsion
[ 10167 10162 10161 10158 ] final  169.72 input  -65.29 | X-H torsion
[ 10718 10713 10712 10709 ] final  159.98 input   66.30 | X-H torsion
[ 10763 10752 10751 10750 ] final   82.61 input  -60.55 | X-H torsion
[ 11005 11000 10999 10996 ] final   52.94 input  -57.11 | X-H torsion

> <Gold.Protein.ActiveResidues>
 VAL166  LYS551  ARG553  GLY616  TRP617  ASP618  TYR619  PRO620  LYS621  CYS622 
 ASP623  PHE694  ASN695  SER759  ASP760  ASP761  ALA762  ILE779  LEU786  VAL792 
 PHE793  MET794  SER795  GLU796  ALA797  LYS798  CYS799  TRP800  GLU811  SER814 

> <Gold.Protein.RotatedAtoms>
  151.7325  135.0871  160.0302 H   0  0  0  0  0  0  0  0  0  0  0  0  # atno 6907 bound_to 6896
  152.3532  133.6200  159.5968 H   0  0  0  0  0  0  0  0  0  0  0  0  # atno 6908 bound_to 6896
  150.7553  133.9458  159.3512 H   0  0  0  0  0  0  0  0  0  0  0  0  # atno 6909 bound_to 6896
  144.8392  140.5872  143.5464 H   0  0  0  0  0  0  0  0  0  0  0  0  # atno 7974 bound_to 7965
  156.0382  140.3322  155.7214 H   0  0  0  0  0  0  0  0  0  0  0  0  # atno 8008 bound_to 7997
  155.5784  140.0634  157.2807 H   0  0  0  0  0  0  0  0  0  0  0  0  # atno 8009 bound_to 7997
  154.4381  140.1848  156.0939 H   0  0  0  0  0  0  0  0  0  0  0  0  # atno 8010 bound_to 7997
  139.4999  144.3675  151.9759 H   0  0  0  0  0  0  0  0  0  0  0  0  # atno 10167 bound_to 10162
  157.1568  131.0577  151.2253 H   0  0  0  0  0  0  0  0  0  0  0  0  # atno 10718 bound_to 10713
  153.1218  135.4722  154.9208 H   0  0  0  0  0  0  0  0  0  0  0  0  # atno 10763 bound_to 10752
  154.7583  135.3124  154.8430 H   0  0  0  0  0  0  0  0  0  0  0  0  # atno 10764 bound_to 10752
  153.8993  135.6876  153.4810 H   0  0  0  0  0  0  0  0  0  0  0  0  # atno 10765 bound_to 10752
  140.0808  134.5341  155.8949 H   0  0  0  0  0  0  0  0  0  0  0  0  # atno 11005 bound_to 11000
  145.4731  139.1501  143.3803 LP  0  0  0  0  0  0  0  0  0  0  0  0  # atno 17320 bound_to 7965
  146.2686  140.4865  142.8823 LP  0  0  0  0  0  0  0  0  0  0  0  0  # atno 17321 bound_to 7965
  140.3111  144.3536  150.6033 LP  0  0  0  0  0  0  0  0  0  0  0  0  # atno 17342 bound_to 10162
  140.5797  143.2173  151.7450 LP  0  0  0  0  0  0  0  0  0  0  0  0  # atno 17343 bound_to 10162
  157.4170  130.7416  149.6883 LP  0  0  0  0  0  0  0  0  0  0  0  0  # atno 17370 bound_to 10713
  155.9761  130.4080  150.3804 LP  0  0  0  0  0  0  0  0  0  0  0  0  # atno 17371 bound_to 10713
  141.2046  133.6640  156.6130 LP  0  0  0  0  0  0  0  0  0  0  0  0  # atno 17394 bound_to 11000
  140.3490  134.7784  157.4453 LP  0  0  0  0  0  0  0  0  0  0  0  0  # atno 17395 bound_to 11000

$$$$
