AV-unprocessed.smi:1717|AV-procd|sdf|6917|dock4
  -GOLD-   22720 8123D 1   1.00000     0.00000
 Structure written by MMmdl.
 40 41  0  0  0  0  0  0  0  0  1 V2000
  150.8837  142.5687  156.6450 C   0  0  0  0  0  0  0  0  0  0  0  0
  149.6939  142.3689  155.8328 N   0  0  0  0  0  0  0  0  0  0  0  0
  149.4394  141.2583  155.1257 C   0  0  0  0  0  0  0  0  0  0  0  0
  150.1988  140.2905  155.0875 O   0  0  0  0  0  0  0  0  0  0  0  0
  148.1275  141.2374  154.3330 C   0  0  0  0  0  0  0  0  0  0  0  0
  147.8699  139.9782  153.5964 N   0  0  0  0  0  0  0  0  0  0  0  0
  146.9585  140.1689  152.4580 C   0  0  0  0  0  0  0  0  0  0  0  0
  146.7807  138.8525  151.6807 C   0  0  0  0  0  0  0  0  0  0  0  0
  146.2542  137.7317  152.5922 C   0  0  0  0  0  0  0  0  0  0  0  0
  146.2169  136.4558  151.8834 N   0  0  0  0  0  0  0  0  0  0  0  0
  145.1130  135.7283  151.6609 C   0  0  0  0  0  0  0  0  0  0  0  0
  143.9884  136.0655  152.0324 O   0  0  0  0  0  0  0  0  0  0  0  0
  145.3987  134.6015  150.9881 N   0  0  0  0  0  0  0  0  0  0  0  0
  144.4941  133.5865  150.5859 C   0  0  0  0  0  0  0  0  0  0  0  0
  144.5715  132.8727  149.3596 C   0  0  0  0  0  0  0  0  0  0  0  0
  143.5949  131.9829  149.2549 N   0  0  0  0  0  0  0  0  0  0  0  0
  142.8941  132.1227  150.4026 N   0  0  0  0  0  0  0  0  0  0  0  0
  143.4046  133.0875  151.2429 C   0  0  0  0  0  0  0  0  0  0  0  0
  147.1660  137.6204  153.8220 C   0  0  0  0  0  0  0  0  0  0  0  0
  147.3210  138.9818  154.5220 C   0  0  0  0  0  0  0  0  0  0  0  0
  142.0793  131.5579  150.5967 H   0  0  0  0  0  0  0  0  0  0  0  0
  150.8803  143.5730  157.0685 H   0  0  0  0  0  0  0  0  0  0  0  0
  151.7888  142.4542  156.0468 H   0  0  0  0  0  0  0  0  0  0  0  0
  150.9153  141.8521  157.4665 H   0  0  0  0  0  0  0  0  0  0  0  0
  149.0146  143.1161  155.8121 H   0  0  0  0  0  0  0  0  0  0  0  0
  147.3190  141.4152  155.0437 H   0  0  0  0  0  0  0  0  0  0  0  0
  148.1183  142.0791  153.6379 H   0  0  0  0  0  0  0  0  0  0  0  0
  145.9917  140.5354  152.8074 H   0  0  0  0  0  0  0  0  0  0  0  0
  147.3472  140.9171  151.7673 H   0  0  0  0  0  0  0  0  0  0  0  0
  146.0963  139.0109  150.8465 H   0  0  0  0  0  0  0  0  0  0  0  0
  147.7367  138.5596  151.2437 H   0  0  0  0  0  0  0  0  0  0  0  0
  145.2483  137.9872  152.9312 H   0  0  0  0  0  0  0  0  0  0  0  0
  147.0974  136.1015  151.5396 H   0  0  0  0  0  0  0  0  0  0  0  0
  146.3664  134.4495  150.7437 H   0  0  0  0  0  0  0  0  0  0  0  0
  145.2904  132.9673  148.5590 H   0  0  0  0  0  0  0  0  0  0  0  0
  142.9571  133.3178  152.1984 H   0  0  0  0  0  0  0  0  0  0  0  0
  146.7598  136.8904  154.5230 H   0  0  0  0  0  0  0  0  0  0  0  0
  148.1497  137.2520  153.5265 H   0  0  0  0  0  0  0  0  0  0  0  0
  147.9892  138.8626  155.3760 H   0  0  0  0  0  0  0  0  0  0  0  0
  146.3595  139.3166  154.9163 H   0  0  0  0  0  0  0  0  0  0  0  0
  1  2  1  0  0  0  0
  1 22  1  0  0  0  0
  1 23  1  0  0  0  0
  1 24  1  0  0  0  0
  2  3  1  0  0  0  0
  2 25  1  0  0  0  0
  3  4  2  0  0  0  0
  3  5  1  0  0  0  0
  5  6  1  0  0  0  0
  5 26  1  0  0  0  0
  5 27  1  0  0  0  0
  6 20  1  0  0  0  0
  6  7  1  0  0  0  0
  7  8  1  0  0  0  0
  7 28  1  0  0  0  0
  7 29  1  0  0  0  0
  8  9  1  0  0  0  0
  8 30  1  0  0  0  0
  8 31  1  0  0  0  0
  9 10  1  0  0  0  0
  9 19  1  0  0  0  0
  9 32  1  0  0  0  0
 10 11  1  0  0  0  0
 10 33  1  0  0  0  0
 11 12  2  0  0  0  0
 11 13  1  0  0  0  0
 13 14  1  0  0  0  0
 13 34  1  0  0  0  0
 14 18  2  0  0  0  0
 14 15  1  0  0  0  0
 15 16  2  0  0  0  0
 15 35  1  0  0  0  0
 16 17  1  0  0  0  0
 17 21  1  0  0  0  0
 17 18  1  0  0  0  0
 18 36  1  0  0  0  0
 19 20  1  0  0  0  0
 19 37  1  0  0  0  0
 19 38  1  0  0  0  0
 20 39  1  0  0  0  0
 20 40  1  0  0  0  0
M  END
> <s_m_source_file>
AV-unprocessed.smi

> <i_m_source_file_index>
1717

> <i_lp_mmshare_version>
43012

> <i_f3d_flags>
0

> <s_epik_input>
W0NIM11bTkhdQyg9TylbQ0gyXU4xW0NIMl1bQ0gyXVtDSF0oW0NIMl1bQ0gyXTEpW05IXUMoPU8pW05IXWMyW2NIXW5bbkhdW2NIXTI=

> <s_epik_cmdline>
J2VwaWtfcHl0aG9uJywgJy1waCcsICc3LjAnLCAnLXRuJywgJzgnLCAnLW1hJywgJzIwMCcsICctbWV0YWxfYmluZGluZycsICctaW1hZScsICc8aW5maWxlLm1hZT4nLCAnLW9tYWUnLCAnPG91dGZpbGUubWFlPic=

> <r_lp_tautomer_probability>
0.5

> <r_epik_Ionization_Penalty>
0.164786

> <r_epik_Ionization_Penalty_Charging>
0

> <r_epik_Ionization_Penalty_Neutral>
0.164786

> <r_epik_State_Penalty>
0.154069

> <r_epik_Charging_Adjusted_Penalty>
0.154069

> <i_epik_Tot_Q>
0

> <i_epik_Tot_abs_Q>
0

> <r_epik_Metal_State_Penalty>
0.158586

> <b_epik_Metal_Only>
0

> <s_lp_Force_Field>
OPLS_2005

> <r_lp_Energy>
16.0226

> <b_lp_Chiralities_Consistent>
1

> <s_lp_Variant>
AV-unprocessed.smi:1717-1

> <Gold.Version>
5.8.1

> <Gold.Id.Protein>
6NUR|6NUR_protein|mol2

> <Gold.PLP.Fitness>
46.9105

> <Gold.PLP.PLP>
-31.8304

> <Gold.PLP.part.hbond>
-5.9626

> <Gold.PLP.part.metal>
0.0000

> <Gold.PLP.part.buried>
1.1642

> <Gold.PLP.part.nonpolar>
-28.5935

> <Gold.PLP.part.repulsive>
2.2582

> <Gold.PLP.ligand.clash>
0.0000

> <Gold.PLP.ligand.torsion>
0.5086

> <Gold.PLP.Chemscore.Hbond>
4.3600

> <Gold.PLP.Chemscore.CHOScore>
1.0000

> <Gold.PLP.Chemscore.Metal>
0.0000

> <Gold.Chemscore.Hbonds>
donor molecule, donor type, donor heavy atom, donor atom, acceptor molecule, acceptor atom, score
      L1  H     2    25       P1  8028  0.85
      L1  H    10    33       P1  7948  0.85
      L1  H    17    21       P1 10952  0.69
      P1  H  7989  7998       L1     4  0.54
      P1  H 10785 10796       L1    16  0.91
      L1  C    15    35       P1  7921  0.80

> <Gold.PLP.Chemscore.Internal.Correction>
0.0174

> <Gold.Rescore>
     Score         DG    S(hbond)    S(metal)    S(lipo)     H(rot)  DE(clash)    DE(int)     intcor
     16.43     -17.76       2.74        0.00      65.82       1.79       0.12       1.20       ----

> <Gold.Chemscore.Fitness>
16.4347

> <Gold.Chemscore.DG>
-17.7568

> <Gold.Chemscore.ZeroCoef>
-5.4800

> <Gold.Chemscore.Hbond>
2.7384

> <Gold.Chemscore.Metal>
0.0000

> <Gold.Chemscore.Lipo>
65.8224

> <Gold.Chemscore.Internal_Hbond>
0.0000

> <Gold.Chemscore.DEClash>
0.1202

> <Gold.Chemscore.DEInternal>
1.2019

> <Gold.Chemscore.Rot>
1.7854

> <Gold.Chemscore.Internal.Correction>
   9.000000E+99

> <Gold.Chemscore.Hbonds>
donor molecule, donor type, donor heavy atom, donor atom, acceptor molecule, acceptor atom, score
      L1  H     2    25       P1  8028  0.84
      L1  H    10    33       P1  7948  0.85
      L1  H    17    21       P1 10952  0.13
      P1  H  7989  7998       L1     4  0.18
      P1  H 10785 10796       L1    16  0.35

> <Gold.Chemscore.Hbond.Weighted>
-9.1462

> <Gold.Chemscore.Metal.Weighted>
-0.0000

> <Gold.Chemscore.Lipo.Weighted>
-7.7012

> <Gold.Chemscore.Internal_Hbond.Weighted>
0.0000

> <Gold.Chemscore.DEClash.Weighted>
0.1202

> <Gold.Chemscore.DEInternal.Weighted>
1.2019

> <Gold.Chemscore.Rot.Weighted>
4.5706

> <Gold.Chemscore.Internal.Correction.Weighted>
   9.000000E+99

> <Gold.Protein.RotatedTorsions>
[ 6907 6896 6895 6894 ] final   64.24 input  -60.11 | X-H torsion
[ 7974 7965 7964 7962 ] final -147.33 input  175.53 | X-H torsion
[ 8008 7997 7996 7995 ] final  164.35 input   59.86 | X-H torsion
[ 10167 10162 10161 10158 ] final -118.00 input  -65.29 | X-H torsion
[ 10718 10713 10712 10709 ] final  126.72 input   66.30 | X-H torsion
[ 10763 10752 10751 10750 ] final   45.94 input  -60.55 | X-H torsion
[ 11005 11000 10999 10996 ] final   62.23 input  -57.11 | X-H torsion

> <Gold.Protein.ActiveResidues>
 VAL166  LYS551  ARG553  GLY616  TRP617  ASP618  TYR619  PRO620  LYS621  CYS622 
 ASP623  PHE694  ASN695  SER759  ASP760  ASP761  ALA762  ILE779  LEU786  VAL792 
 PHE793  MET794  SER795  GLU796  ALA797  LYS798  CYS799  TRP800  GLU811  SER814 

> <Gold.Protein.RotatedAtoms>
  152.4316  134.5767  159.9936 H   0  0  0  0  0  0  0  0  0  0  0  0  # atno 6907 bound_to 6896
  151.5889  133.3363  159.3031 H   0  0  0  0  0  0  0  0  0  0  0  0  # atno 6908 bound_to 6896
  150.8209  134.7452  159.6836 H   0  0  0  0  0  0  0  0  0  0  0  0  # atno 6909 bound_to 6896
  144.8100  140.5340  143.5649 H   0  0  0  0  0  0  0  0  0  0  0  0  # atno 7974 bound_to 7965
  156.1887  140.1699  156.8135 H   0  0  0  0  0  0  0  0  0  0  0  0  # atno 8008 bound_to 7997
  154.5444  140.0730  156.8597 H   0  0  0  0  0  0  0  0  0  0  0  0  # atno 8009 bound_to 7997
  155.3150  140.3370  155.4245 H   0  0  0  0  0  0  0  0  0  0  0  0  # atno 8010 bound_to 7997
  140.0622  143.4957  152.2025 H   0  0  0  0  0  0  0  0  0  0  0  0  # atno 10167 bound_to 10162
  157.5395  131.1097  150.8881 H   0  0  0  0  0  0  0  0  0  0  0  0  # atno 10718 bound_to 10713
  152.9817  135.6024  154.3518 H   0  0  0  0  0  0  0  0  0  0  0  0  # atno 10763 bound_to 10752
  154.3207  135.2770  155.2523 H   0  0  0  0  0  0  0  0  0  0  0  0  # atno 10764 bound_to 10752
  154.4691  135.5946  153.6364 H   0  0  0  0  0  0  0  0  0  0  0  0  # atno 10765 bound_to 10752
  140.0107  134.6301  155.9786 H   0  0  0  0  0  0  0  0  0  0  0  0  # atno 11005 bound_to 11000
  145.5346  139.1475  143.3480 LP  0  0  0  0  0  0  0  0  0  0  0  0  # atno 17320 bound_to 7965
  146.2397  140.5486  142.8939 LP  0  0  0  0  0  0  0  0  0  0  0  0  # atno 17321 bound_to 7965
  139.5887  144.7541  151.3456 LP  0  0  0  0  0  0  0  0  0  0  0  0  # atno 17342 bound_to 10162
  140.7166  143.7249  150.7667 LP  0  0  0  0  0  0  0  0  0  0  0  0  # atno 17343 bound_to 10162
  156.9438  130.5394  149.5281 LP  0  0  0  0  0  0  0  0  0  0  0  0  # atno 17370 bound_to 10713
  156.0485  130.5558  150.8936 LP  0  0  0  0  0  0  0  0  0  0  0  0  # atno 17371 bound_to 10713
  141.1708  133.6537  156.4646 LP  0  0  0  0  0  0  0  0  0  0  0  0  # atno 17394 bound_to 11000
  140.4560  134.6885  157.5063 LP  0  0  0  0  0  0  0  0  0  0  0  0  # atno 17395 bound_to 11000

$$$$
