AV-unprocessed.smi:3274|AV-procd|sdf|12529|dock5
  -GOLD-   2272018443D 1   1.00000     0.00000
 Structure written by MMmdl.
 43 44  0  0  0  0  0  0  0  0  2 V2000
  147.5377  142.0420  154.0129 C   0  0  0  0  0  0  0  0  0  0  0  0
  148.3511  140.8363  154.4545 C   0  0  0  0  0  0  0  0  0  0  0  0
  147.8583  139.5883  154.3269 C   0  0  0  0  0  0  0  0  0  0  0  0
  148.6079  138.3184  154.6913 C   0  0  0  0  0  0  0  0  0  0  0  0
  149.9431  138.5880  155.4047 C   0  0  0  0  0  0  0  0  0  0  0  0
  150.6446  139.8323  154.8342 C   0  0  2  0  0  0  0  0  0  0  0  0
  152.0813  139.9816  155.3639 C   0  0  0  0  0  0  0  0  0  0  0  0
  149.7590  141.0988  155.0064 C   0  0  2  0  0  0  0  0  0  0  0  0
  149.7195  141.6194  156.4668 C   0  0  0  0  0  0  0  0  0  0  0  0
  150.6197  142.7715  156.6844 N   0  3  0  0  0  0  0  0  0  0  0  0
  151.1259  142.9306  158.0652 C   0  0  1  0  0  0  0  0  0  0  0  0
  150.0008  143.4840  158.9560 C   0  0  0  0  0  0  0  0  0  0  0  0
  151.7009  141.5953  158.5911 C   0  0  0  0  0  0  0  0  0  0  0  0
  152.5591  141.7645  159.7494 N   0  0  0  0  0  0  0  0  0  0  0  0
  153.8446  141.4563  159.9294 C   0  0  0  0  0  0  0  0  0  0  0  0
  154.3028  141.7568  161.1363 N   0  0  0  0  0  0  0  0  0  0  0  0
  153.1671  142.2780  161.6891 C   0  0  0  0  0  0  0  0  0  0  0  0
  152.0932  142.3055  160.8993 N   0  0  0  0  0  0  0  0  0  0  0  0
  148.1383  142.7007  153.3854 H   0  0  0  0  0  0  0  0  0  0  0  0
  147.1694  142.6099  154.8655 H   0  0  0  0  0  0  0  0  0  0  0  0
  146.6678  141.7348  153.4313 H   0  0  0  0  0  0  0  0  0  0  0  0
  146.8711  139.4438  153.9123 H   0  0  0  0  0  0  0  0  0  0  0  0
  147.9720  137.6853  155.3106 H   0  0  0  0  0  0  0  0  0  0  0  0
  148.7908  137.7712  153.7659 H   0  0  0  0  0  0  0  0  0  0  0  0
  149.7684  138.7204  156.4727 H   0  0  0  0  0  0  0  0  0  0  0  0
  150.5844  137.7106  155.3124 H   0  0  0  0  0  0  0  0  0  0  0  0
  150.7465  139.6698  153.7595 H   0  0  0  0  0  0  0  0  0  0  0  0
  152.1166  140.0015  156.4530 H   0  0  0  0  0  0  0  0  0  0  0  0
  152.5472  140.8939  154.9910 H   0  0  0  0  0  0  0  0  0  0  0  0
  152.6992  139.1435  155.0402 H   0  0  0  0  0  0  0  0  0  0  0  0
  150.2082  141.8761  154.3862 H   0  0  0  0  0  0  0  0  0  0  0  0
  148.6980  141.8909  156.7309 H   0  0  0  0  0  0  0  0  0  0  0  0
  150.0307  140.8451  157.1664 H   0  0  0  0  0  0  0  0  0  0  0  0
  151.4139  142.6496  156.0722 H   0  0  0  0  0  0  0  0  0  0  0  0
  151.9214  143.6774  158.0497 H   0  0  0  0  0  0  0  0  0  0  0  0
  150.3602  143.7186  159.9583 H   0  0  0  0  0  0  0  0  0  0  0  0
  149.1841  142.7681  159.0547 H   0  0  0  0  0  0  0  0  0  0  0  0
  149.5884  144.4042  158.5409 H   0  0  0  0  0  0  0  0  0  0  0  0
  150.8886  140.9157  158.8551 H   0  0  0  0  0  0  0  0  0  0  0  0
  152.2848  141.0915  157.8209 H   0  0  0  0  0  0  0  0  0  0  0  0
  154.4577  141.0058  159.1626 H   0  0  0  0  0  0  0  0  0  0  0  0
  153.1305  142.6483  162.7030 H   0  0  0  0  0  0  0  0  0  0  0  0
  150.1408  143.6202  156.4186 H   0  0  0  0  0  0  0  0  0  0  0  0
  1  2  1  0  0  0  0
  1 19  1  0  0  0  0
  1 20  1  0  0  0  0
  1 21  1  0  0  0  0
  2  8  1  0  0  0  0
  2  3  2  0  0  0  0
  3  4  1  0  0  0  0
  3 22  1  0  0  0  0
  4  5  1  0  0  0  0
  4 23  1  0  0  0  0
  4 24  1  0  0  0  0
  5  6  1  0  0  0  0
  5 25  1  0  0  0  0
  5 26  1  0  0  0  0
  6  7  1  0  0  0  0
  6  8  1  0  0  0  0
  6 27  1  0  0  0  0
  7 28  1  0  0  0  0
  7 29  1  0  0  0  0
  7 30  1  0  0  0  0
  8  9  1  0  0  0  0
  8 31  1  0  0  0  0
  9 10  1  0  0  0  0
  9 32  1  0  0  0  0
  9 33  1  0  0  0  0
 10 11  1  0  0  0  0
 10 34  1  0  0  0  0
 10 43  1  0  0  0  0
 11 12  1  0  0  0  0
 11 13  1  0  0  0  0
 11 35  1  0  0  0  0
 12 36  1  0  0  0  0
 12 37  1  0  0  0  0
 12 38  1  0  0  0  0
 13 14  1  0  0  0  0
 13 39  1  0  0  0  0
 13 40  1  0  0  0  0
 14 18  1  0  0  0  0
 14 15  1  0  0  0  0
 15 16  2  0  0  0  0
 15 41  1  0  0  0  0
 16 17  1  0  0  0  0
 17 18  2  0  0  0  0
 17 42  1  0  0  0  0
M  CHG  1  10   1
M  END
> <s_m_source_file>
AV-unprocessed.smi

> <i_m_source_file_index>
3274

> <i_lp_mmshare_version>
43012

> <i_f3d_flags>
0

> <s_epik_input>
W0NIM11DMT1bQ0hdW0NIMl1bQ0gyXVtDQEBIXShbQ0gzXSlbQ0BIXTFbQ0gyXVtOSF1bQ0BIXShbQ0gzXSlbQ0gyXW4yW2NIXW5bY0hdbjI=

> <s_epik_cmdline>
J2VwaWtfcHl0aG9uJywgJy1waCcsICc3LjAnLCAnLXRuJywgJzgnLCAnLW1hJywgJzIwMCcsICctbWV0YWxfYmluZGluZycsICctaW1hZScsICc8aW5maWxlLm1hZT4nLCAnLW9tYWUnLCAnPG91dGZpbGUubWFlPic=

> <r_lp_tautomer_probability>
1

> <r_epik_Ionization_Penalty>
0.0017527

> <r_epik_Ionization_Penalty_Charging>
0.00175191

> <r_epik_Ionization_Penalty_Neutral>
7.94565e-07

> <r_epik_State_Penalty>
0.00118605

> <r_epik_Charging_Adjusted_Penalty>
0.00293796

> <i_epik_Tot_Q>
1

> <i_epik_Tot_abs_Q>
1

> <r_epik_Metal_State_Penalty>
-0

> <b_epik_Metal_Only>
0

> <s_lp_Force_Field>
OPLS_2005

> <r_lp_Energy>
19.123

> <b_lp_Chiralities_Consistent>
1

> <s_lp_Variant>
AV-unprocessed.smi:3274-8

> <Gold.Version>
5.8.1

> <Gold.Id.Protein>
6NUR|6NUR_protein|mol2

> <Gold.PLP.Fitness>
42.8747

> <Gold.PLP.PLP>
-38.1062

> <Gold.PLP.part.hbond>
-2.6194

> <Gold.PLP.part.metal>
0.0000

> <Gold.PLP.part.buried>
-3.0956

> <Gold.PLP.part.nonpolar>
-31.4347

> <Gold.PLP.part.repulsive>
0.1285

> <Gold.PLP.ligand.clash>
0.0000

> <Gold.PLP.ligand.torsion>
0.9767

> <Gold.PLP.Chemscore.Hbond>
2.2210

> <Gold.PLP.Chemscore.CHOScore>
0.0000

> <Gold.PLP.Chemscore.Metal>
0.0000

> <Gold.Chemscore.Hbonds>
donor molecule, donor type, donor heavy atom, donor atom, acceptor molecule, acceptor atom, score
      L1  H    10    43       P1  8028  2.00

> <Gold.PLP.Chemscore.Internal.Correction>
0.0590

> <Gold.Rescore>
     Score         DG    S(hbond)    S(metal)    S(lipo)     H(rot)  DE(clash)    DE(int)     intcor
     11.76     -12.92       1.44        0.00      74.18       2.36       0.06       1.10       ----

> <Gold.Chemscore.Fitness>
11.7634

> <Gold.Chemscore.DG>
-12.9246

> <Gold.Chemscore.ZeroCoef>
-5.4800

> <Gold.Chemscore.Hbond>
1.4402

> <Gold.Chemscore.Metal>
0.0000

> <Gold.Chemscore.Lipo>
74.1848

> <Gold.Chemscore.Internal_Hbond>
0.0000

> <Gold.Chemscore.DEClash>
0.0590

> <Gold.Chemscore.DEInternal>
1.1021

> <Gold.Chemscore.Rot>
2.3615

> <Gold.Chemscore.Internal.Correction>
   9.000000E+99

> <Gold.Chemscore.Hbonds>
donor molecule, donor type, donor heavy atom, donor atom, acceptor molecule, acceptor atom, score
      L1  H    10    43       P1  8028  1.00
      P1  H  6933  6945       L1    18  0.01

> <Gold.Chemscore.Hbond.Weighted>
-4.8104

> <Gold.Chemscore.Metal.Weighted>
-0.0000

> <Gold.Chemscore.Lipo.Weighted>
-8.6796

> <Gold.Chemscore.Internal_Hbond.Weighted>
0.0000

> <Gold.Chemscore.DEClash.Weighted>
0.0590

> <Gold.Chemscore.DEInternal.Weighted>
1.1021

> <Gold.Chemscore.Rot.Weighted>
6.0454

> <Gold.Chemscore.Internal.Correction.Weighted>
   9.000000E+99

> <Gold.Protein.RotatedTorsions>
[ 6907 6896 6895 6894 ] final   68.08 input  -60.11 | X-H torsion
[ 7974 7965 7964 7962 ] final -147.14 input  175.53 | X-H torsion
[ 8008 7997 7996 7995 ] final  -54.67 input   59.86 | X-H torsion
[ 10167 10162 10161 10158 ] final  153.93 input  -65.29 | X-H torsion
[ 10718 10713 10712 10709 ] final  -96.62 input   66.30 | X-H torsion
[ 10763 10752 10751 10750 ] final  -24.69 input  -60.55 | X-H torsion
[ 11005 11000 10999 10996 ] final -155.20 input  -57.11 | X-H torsion

> <Gold.Protein.ActiveResidues>
 VAL166  LYS551  ARG553  GLY616  TRP617  ASP618  TYR619  PRO620  LYS621  CYS622 
 ASP623  PHE694  ASN695  SER759  ASP760  ASP761  ALA762  ILE779  LEU786  VAL792 
 PHE793  MET794  SER795  GLU796  ALA797  LYS798  CYS799  TRP800  GLU811  SER814 

> <Gold.Protein.RotatedAtoms>
  152.4596  134.5214  159.9783 H   0  0  0  0  0  0  0  0  0  0  0  0  # atno 6907 bound_to 6896
  151.5266  133.3451  159.2918 H   0  0  0  0  0  0  0  0  0  0  0  0  # atno 6908 bound_to 6896
  150.8554  134.7921  159.7104 H   0  0  0  0  0  0  0  0  0  0  0  0  # atno 6909 bound_to 6896
  144.8113  140.5366  143.5640 H   0  0  0  0  0  0  0  0  0  0  0  0  # atno 7974 bound_to 7965
  154.4170  140.1171  156.5353 H   0  0  0  0  0  0  0  0  0  0  0  0  # atno 8008 bound_to 7997
  155.6563  140.3496  155.4747 H   0  0  0  0  0  0  0  0  0  0  0  0  # atno 8009 bound_to 7997
  155.9750  140.1149  157.0768 H   0  0  0  0  0  0  0  0  0  0  0  0  # atno 8010 bound_to 7997
  139.4825  144.5231  151.7845 H   0  0  0  0  0  0  0  0  0  0  0  0  # atno 10167 bound_to 10162
  156.0066  130.5159  150.6252 H   0  0  0  0  0  0  0  0  0  0  0  0  # atno 10718 bound_to 10713
  153.6878  135.6963  153.5099 H   0  0  0  0  0  0  0  0  0  0  0  0  # atno 10763 bound_to 10752
  153.2436  135.4298  155.0723 H   0  0  0  0  0  0  0  0  0  0  0  0  # atno 10764 bound_to 10752
  154.8381  135.3514  154.6420 H   0  0  0  0  0  0  0  0  0  0  0  0  # atno 10765 bound_to 10752
  140.6890  134.4062  157.5221 H   0  0  0  0  0  0  0  0  0  0  0  0  # atno 11005 bound_to 11000
  145.5317  139.1475  143.3496 LP  0  0  0  0  0  0  0  0  0  0  0  0  # atno 17320 bound_to 7965
  146.2412  140.5458  142.8933 LP  0  0  0  0  0  0  0  0  0  0  0  0  # atno 17321 bound_to 7965
  140.4747  144.1536  150.5923 LP  0  0  0  0  0  0  0  0  0  0  0  0  # atno 17342 bound_to 10162
  140.4344  143.2554  151.9554 LP  0  0  0  0  0  0  0  0  0  0  0  0  # atno 17343 bound_to 10162
  157.4060  131.0817  151.1264 LP  0  0  0  0  0  0  0  0  0  0  0  0  # atno 17370 bound_to 10713
  157.1911  130.6352  149.5705 LP  0  0  0  0  0  0  0  0  0  0  0  0  # atno 17371 bound_to 10713
  139.8929  134.8744  156.2249 LP  0  0  0  0  0  0  0  0  0  0  0  0  # atno 17394 bound_to 11000
  141.0256  133.7017  156.1342 LP  0  0  0  0  0  0  0  0  0  0  0  0  # atno 17395 bound_to 11000

$$$$
