AV-unprocessed.smi:2253|AV-procd|sdf|9120|dock4
  -GOLD-   2272012323D 1   1.00000     0.00000
 Structure written by MMmdl.
 51 53  0  0  0  0  0  0  0  0  2 V2000
  146.0216  134.4006  156.2278 C   0  0  0  0  0  0  0  0  0  0  0  0
  145.5099  135.3649  155.2305 N   0  3  2  0  0  0  0  0  0  0  0  0
  146.5511  135.7723  154.2549 C   0  0  0  0  0  0  0  0  0  0  0  0
  145.9730  136.7181  153.1866 C   0  0  0  0  0  0  0  0  0  0  0  0
  145.3389  137.9843  153.8180 C   0  0  2  0  0  0  0  0  0  0  0  0
  146.3223  138.8976  154.4454 N   0  0  0  0  0  0  0  0  0  0  0  0
  145.6586  140.0502  155.0780 C   0  0  0  0  0  0  0  0  0  0  0  0
  146.6624  140.9560  155.8115 C   0  0  0  0  0  0  0  0  0  0  0  0
  147.7277  141.4904  154.8474 C   0  0  0  0  0  0  0  0  0  0  0  0
  148.7480  142.2529  155.5610 N   0  0  0  0  0  0  0  0  0  0  0  0
  149.5013  141.7818  156.5653 C   0  0  0  0  0  0  0  0  0  0  0  0
  149.4121  140.6313  156.9925 O   0  0  0  0  0  0  0  0  0  0  0  0
  150.3401  142.7276  157.0236 N   0  0  0  0  0  0  0  0  0  0  0  0
  151.2864  142.6694  158.0855 C   0  0  0  0  0  0  0  0  0  0  0  0
  151.9072  141.4849  158.5539 C   0  0  0  0  0  0  0  0  0  0  0  0
  152.8297  141.5798  159.6156 C   0  0  0  0  0  0  0  0  0  0  0  0
  153.1606  142.7435  160.2135 N   0  0  0  0  0  0  0  0  0  0  0  0
  152.5724  143.8708  159.7617 C   0  0  0  0  0  0  0  0  0  0  0  0
  151.6371  143.8869  158.7077 C   0  0  0  0  0  0  0  0  0  0  0  0
  151.0848  145.0566  158.3039 F   0  0  0  0  0  0  0  0  0  0  0  0
  148.3645  140.2963  154.1323 C   0  0  0  0  0  0  0  0  0  0  0  0
  147.2949  139.4125  153.4666 C   0  0  0  0  0  0  0  0  0  0  0  0
  144.2537  137.4770  154.8023 C   0  0  0  0  0  0  0  0  0  0  0  0
  144.8414  136.5287  155.8630 C   0  0  0  0  0  0  0  0  0  0  0  0
  146.8028  134.8506  156.8419 H   0  0  0  0  0  0  0  0  0  0  0  0
  146.4378  133.5212  155.7355 H   0  0  0  0  0  0  0  0  0  0  0  0
  145.2197  134.0649  156.8860 H   0  0  0  0  0  0  0  0  0  0  0  0
  147.3781  136.2550  154.7780 H   0  0  0  0  0  0  0  0  0  0  0  0
  146.9585  134.8839  153.7709 H   0  0  0  0  0  0  0  0  0  0  0  0
  146.7154  136.9440  152.4241 H   0  0  0  0  0  0  0  0  0  0  0  0
  145.1955  136.1802  152.6421 H   0  0  0  0  0  0  0  0  0  0  0  0
  144.8428  138.5439  153.0232 H   0  0  0  0  0  0  0  0  0  0  0  0
  145.1087  140.6226  154.3291 H   0  0  0  0  0  0  0  0  0  0  0  0
  144.9392  139.7300  155.8268 H   0  0  0  0  0  0  0  0  0  0  0  0
  146.1305  141.7847  156.2800 H   0  0  0  0  0  0  0  0  0  0  0  0
  147.1342  140.3954  156.6202 H   0  0  0  0  0  0  0  0  0  0  0  0
  147.2523  142.1292  154.1004 H   0  0  0  0  0  0  0  0  0  0  0  0
  148.8844  143.2104  155.2723 H   0  0  0  0  0  0  0  0  0  0  0  0
  150.2723  143.6268  156.5698 H   0  0  0  0  0  0  0  0  0  0  0  0
  151.7080  140.5138  158.1305 H   0  0  0  0  0  0  0  0  0  0  0  0
  153.3174  140.6935  159.9932 H   0  0  0  0  0  0  0  0  0  0  0  0
  152.8554  144.7889  160.2549 H   0  0  0  0  0  0  0  0  0  0  0  0
  149.0706  140.6472  153.3787 H   0  0  0  0  0  0  0  0  0  0  0  0
  148.9398  139.6969  154.8398 H   0  0  0  0  0  0  0  0  0  0  0  0
  147.8346  138.6004  152.9863 H   0  0  0  0  0  0  0  0  0  0  0  0
  146.7785  139.9665  152.6808 H   0  0  0  0  0  0  0  0  0  0  0  0
  143.6887  138.2790  155.2721 H   0  0  0  0  0  0  0  0  0  0  0  0
  143.5030  136.9272  154.2327 H   0  0  0  0  0  0  0  0  0  0  0  0
  144.0422  136.1744  156.5150 H   0  0  0  0  0  0  0  0  0  0  0  0
  145.5513  137.0638  156.4958 H   0  0  0  0  0  0  0  0  0  0  0  0
  144.7985  134.8805  154.7018 H   0  0  0  0  0  0  0  0  0  0  0  0
  1  2  1  0  0  0  0
  1 25  1  0  0  0  0
  1 26  1  0  0  0  0
  1 27  1  0  0  0  0
  2 24  1  0  0  0  0
  2  3  1  0  0  0  0
  2 51  1  0  0  0  0
  3  4  1  0  0  0  0
  3 28  1  0  0  0  0
  3 29  1  0  0  0  0
  4  5  1  0  0  0  0
  4 30  1  0  0  0  0
  4 31  1  0  0  0  0
  5  6  1  0  0  0  0
  5 23  1  0  0  0  0
  5 32  1  0  0  0  0
  6 22  1  0  0  0  0
  6  7  1  0  0  0  0
  7  8  1  0  0  0  0
  7 33  1  0  0  0  0
  7 34  1  0  0  0  0
  8  9  1  0  0  0  0
  8 35  1  0  0  0  0
  8 36  1  0  0  0  0
  9 10  1  0  0  0  0
  9 21  1  0  0  0  0
  9 37  1  0  0  0  0
 10 11  1  0  0  0  0
 10 38  1  0  0  0  0
 11 12  2  0  0  0  0
 11 13  1  0  0  0  0
 13 14  1  0  0  0  0
 13 39  1  0  0  0  0
 14 19  1  0  0  0  0
 14 15  2  0  0  0  0
 15 16  1  0  0  0  0
 15 40  1  0  0  0  0
 16 17  2  0  0  0  0
 16 41  1  0  0  0  0
 17 18  1  0  0  0  0
 18 19  2  0  0  0  0
 18 42  1  0  0  0  0
 19 20  1  0  0  0  0
 21 22  1  0  0  0  0
 21 43  1  0  0  0  0
 21 44  1  0  0  0  0
 22 45  1  0  0  0  0
 22 46  1  0  0  0  0
 23 24  1  0  0  0  0
 23 47  1  0  0  0  0
 23 48  1  0  0  0  0
 24 49  1  0  0  0  0
 24 50  1  0  0  0  0
M  CHG  1   2   1
M  END
> <s_m_source_file>
AV-unprocessed.smi

> <i_m_source_file_index>
2253

> <i_lp_mmshare_version>
43012

> <i_f3d_flags>
0

> <s_epik_input>
W0NIM11OMVtDSDJdW0NIMl1bQ0hdKFtDSDJdW0NIMl0xKU4yW0NIMl1bQ0gyXVtDSF0oW0NIMl1bQ0gyXTIpW05IXUMoPU8pW05IXWMzW2NIXVtjSF1uW2NIXWMzRg==

> <s_epik_cmdline>
J2VwaWtfcHl0aG9uJywgJy1waCcsICc3LjAnLCAnLXRuJywgJzgnLCAnLW1hJywgJzIwMCcsICctbWV0YWxfYmluZGluZycsICctaW1hZScsICc8aW5maWxlLm1hZT4nLCAnLW9tYWUnLCAnPG91dGZpbGUubWFlPic=

> <r_epik_Ionization_Penalty>
1.01315

> <r_epik_Ionization_Penalty_Charging>
0.000974969

> <r_epik_Ionization_Penalty_Neutral>
1.01217

> <r_epik_State_Penalty>
1.10286

> <r_epik_Charging_Adjusted_Penalty>
1.10383

> <i_epik_Tot_Q>
1

> <i_epik_Tot_abs_Q>
1

> <r_epik_Metal_State_Penalty>
1.10232

> <b_epik_Metal_Only>
0

> <s_lp_Force_Field>
OPLS_2005

> <r_lp_Energy>
40.3277

> <b_lp_Chiralities_Consistent>
1

> <s_lp_Variant>
AV-unprocessed.smi:2253-6

> <Gold.Version>
5.8.1

> <Gold.Id.Protein>
6NUR|6NUR_protein|mol2

> <Gold.PLP.Fitness>
36.7231

> <Gold.PLP.PLP>
-31.5252

> <Gold.PLP.part.hbond>
-1.9210

> <Gold.PLP.part.metal>
0.0000

> <Gold.PLP.part.buried>
-5.0285

> <Gold.PLP.part.nonpolar>
-25.0164

> <Gold.PLP.part.repulsive>
0.2789

> <Gold.PLP.ligand.clash>
0.0000

> <Gold.PLP.ligand.torsion>
0.1520

> <Gold.PLP.Chemscore.Hbond>
1.8320

> <Gold.PLP.Chemscore.CHOScore>
0.0000

> <Gold.PLP.Chemscore.Metal>
0.0000

> <Gold.Chemscore.Hbonds>
donor molecule, donor type, donor heavy atom, donor atom, acceptor molecule, acceptor atom, score
      L1  H    10    38       P1  8028  0.98
      L1  H    13    39       P1  8028  0.78

> <Gold.PLP.Chemscore.Internal.Correction>
0.0059

> <Gold.Rescore>
     Score         DG    S(hbond)    S(metal)    S(lipo)     H(rot)  DE(clash)    DE(int)     intcor
     16.20     -17.64       1.73        0.00      81.73       1.24       0.09       1.35       ----

> <Gold.Chemscore.Fitness>
16.2027

> <Gold.Chemscore.DG>
-17.6370

> <Gold.Chemscore.ZeroCoef>
-5.4800

> <Gold.Chemscore.Hbond>
1.7304

> <Gold.Chemscore.Metal>
0.0000

> <Gold.Chemscore.Lipo>
81.7277

> <Gold.Chemscore.Internal_Hbond>
0.0000

> <Gold.Chemscore.DEClash>
0.0864

> <Gold.Chemscore.DEInternal>
1.3479

> <Gold.Chemscore.Rot>
1.2440

> <Gold.Chemscore.Internal.Correction>
   9.000000E+99

> <Gold.Chemscore.Hbonds>
donor molecule, donor type, donor heavy atom, donor atom, acceptor molecule, acceptor atom, score
      L1  H    10    38       P1  8028  0.89
      L1  H    13    39       P1  8028  0.76

> <Gold.Chemscore.Hbond.Weighted>
-5.7795

> <Gold.Chemscore.Metal.Weighted>
-0.0000

> <Gold.Chemscore.Lipo.Weighted>
-9.5621

> <Gold.Chemscore.Internal_Hbond.Weighted>
0.0000

> <Gold.Chemscore.DEClash.Weighted>
0.0864

> <Gold.Chemscore.DEInternal.Weighted>
1.3479

> <Gold.Chemscore.Rot.Weighted>
3.1847

> <Gold.Chemscore.Internal.Correction.Weighted>
   9.000000E+99

> <Gold.Protein.RotatedTorsions>
[ 6907 6896 6895 6894 ] final   38.97 input  -60.11 | X-H torsion
[ 7974 7965 7964 7962 ] final  154.18 input  175.53 | X-H torsion
[ 8008 7997 7996 7995 ] final -119.32 input   59.86 | X-H torsion
[ 10167 10162 10161 10158 ] final  138.94 input  -65.29 | X-H torsion
[ 10718 10713 10712 10709 ] final   87.02 input   66.30 | X-H torsion
[ 10763 10752 10751 10750 ] final  118.21 input  -60.55 | X-H torsion
[ 11005 11000 10999 10996 ] final   49.67 input  -57.11 | X-H torsion

> <Gold.Protein.ActiveResidues>
 VAL166  LYS551  ARG553  GLY616  TRP617  ASP618  TYR619  PRO620  LYS621  CYS622 
 ASP623  PHE694  ASN695  SER759  ASP760  ASP761  ALA762  ILE779  LEU786  VAL792 
 PHE793  MET794  SER795  GLU796  ALA797  LYS798  CYS799  TRP800  GLU811  SER814 

> <Gold.Protein.RotatedAtoms>
  152.1634  134.8893  160.0539 H   0  0  0  0  0  0  0  0  0  0  0  0  # atno 6907 bound_to 6896
  151.9880  133.3776  159.4141 H   0  0  0  0  0  0  0  0  0  0  0  0  # atno 6908 bound_to 6896
  150.6891  134.3890  159.5111 H   0  0  0  0  0  0  0  0  0  0  0  0  # atno 6909 bound_to 6896
  144.8106  139.6899  143.6143 H   0  0  0  0  0  0  0  0  0  0  0  0  # atno 7974 bound_to 7965
  155.1138  140.0397  157.2731 H   0  0  0  0  0  0  0  0  0  0  0  0  # atno 8008 bound_to 7997
  154.6665  140.2603  155.7027 H   0  0  0  0  0  0  0  0  0  0  0  0  # atno 8009 bound_to 7997
  156.2641  140.2806  156.1158 H   0  0  0  0  0  0  0  0  0  0  0  0  # atno 8010 bound_to 7997
  139.5094  144.6324  151.5784 H   0  0  0  0  0  0  0  0  0  0  0  0  # atno 10167 bound_to 10162
  157.6935  131.0239  150.3060 H   0  0  0  0  0  0  0  0  0  0  0  0  # atno 10718 bound_to 10713
  153.5641  135.3515  155.2811 H   0  0  0  0  0  0  0  0  0  0  0  0  # atno 10763 bound_to 10752
  154.8691  135.4143  154.2798 H   0  0  0  0  0  0  0  0  0  0  0  0  # atno 10764 bound_to 10752
  153.3550  135.7057  153.6827 H   0  0  0  0  0  0  0  0  0  0  0  0  # atno 10765 bound_to 10752
  140.1084  134.4988  155.8700 H   0  0  0  0  0  0  0  0  0  0  0  0  # atno 11005 bound_to 11000
  146.2403  139.5989  142.9495 LP  0  0  0  0  0  0  0  0  0  0  0  0  # atno 17320 bound_to 7965
  145.5334  141.0425  143.2370 LP  0  0  0  0  0  0  0  0  0  0  0  0  # atno 17321 bound_to 7965
  140.6061  143.9521  150.6420 LP  0  0  0  0  0  0  0  0  0  0  0  0  # atno 17342 bound_to 10162
  140.2749  143.3430  152.1204 LP  0  0  0  0  0  0  0  0  0  0  0  0  # atno 17343 bound_to 10162
  156.3569  130.3840  149.7283 LP  0  0  0  0  0  0  0  0  0  0  0  0  # atno 17370 bound_to 10713
  156.4742  130.8011  151.3028 LP  0  0  0  0  0  0  0  0  0  0  0  0  # atno 17371 bound_to 10713
  141.2124  133.6719  156.6656 LP  0  0  0  0  0  0  0  0  0  0  0  0  # atno 17394 bound_to 11000
  140.3125  134.8074  157.4187 LP  0  0  0  0  0  0  0  0  0  0  0  0  # atno 17395 bound_to 11000

$$$$
