AV-unprocessed.smi:24|AV-procd|sdf|176|dock6
  -GOLD-   2262015433D 1   1.00000     0.00000
 Structure written by MMmdl.
 61 65  0  0  0  0  0  0  0  0  1 V2000
  142.3483  134.7965  163.3801 C   0  0  0  0  0  0  0  0  0  0  0  0
  142.6262  134.7490  161.9883 O   0  0  0  0  0  0  0  0  0  0  0  0
  143.9456  134.7047  161.5919 C   0  0  0  0  0  0  0  0  0  0  0  0
  144.1982  134.6716  160.2054 C   0  0  0  0  0  0  0  0  0  0  0  0
  145.5161  134.6264  159.7123 C   0  0  0  0  0  0  0  0  0  0  0  0
  146.6086  134.6081  160.6026 C   0  0  0  0  0  0  0  0  0  0  0  0
  148.0323  134.5694  160.0498 C   0  0  1  0  0  0  0  0  0  0  0  0
  148.3072  133.2856  159.2619 C   0  0  0  0  0  0  0  0  0  0  0  0
  148.6839  133.8280  157.9241 C   0  0  0  0  0  0  0  0  0  0  0  0
  149.0148  132.9374  156.7894 C   0  0  0  0  0  0  0  0  0  0  0  0
  149.1684  133.4875  155.4963 C   0  0  0  0  0  0  0  0  0  0  0  0
  149.4828  132.6403  154.4156 C   0  0  0  0  0  0  0  0  0  0  0  0
  149.6427  131.2562  154.6248 C   0  0  0  0  0  0  0  0  0  0  0  0
  149.4894  130.7127  155.9158 C   0  0  0  0  0  0  0  0  0  0  0  0
  149.1750  131.5497  157.0045 C   0  0  0  0  0  0  0  0  0  0  0  0
  148.6864  135.1084  157.8663 N   0  0  0  0  0  0  0  0  0  0  0  0
  148.3397  135.6227  159.0731 N   0  0  0  0  0  0  0  0  0  0  0  0
  148.3767  136.9440  159.3545 C   0  0  0  0  0  0  0  0  0  0  0  0
  148.1605  137.3738  160.4893 O   0  0  0  0  0  0  0  0  0  0  0  0
  148.7066  137.9254  158.2096 C   0  0  0  0  0  0  0  0  0  0  0  0
  149.7924  138.8740  158.5410 N   0  0  0  0  0  0  0  0  0  0  0  0
  151.0414  138.3560  158.9645 C   0  0  0  0  0  0  0  0  0  0  0  0
  151.2277  137.1425  159.0678 O   0  0  0  0  0  0  0  0  0  0  0  0
  152.0689  139.3495  159.2552 C   0  0  0  0  0  0  0  0  0  0  0  0
  153.2799  138.9496  159.6788 F   0  0  0  0  0  0  0  0  0  0  0  0
  151.8238  140.6677  159.1066 C   0  0  0  0  0  0  0  0  0  0  0  0
  150.6050  141.1586  158.6727 N   0  0  0  0  0  0  0  0  0  0  0  0
  150.3467  142.6415  158.5038 C   0  0  2  0  0  0  0  0  0  0  0  0
  151.2282  143.2221  157.3810 C   0  0  0  0  0  0  0  0  0  0  0  0
  151.8893  144.4091  158.0528 C   0  0  0  0  0  0  0  0  0  0  0  0
  151.9422  143.9592  159.5050 C   0  0  0  0  0  0  0  0  0  0  0  0
  150.6841  143.3212  159.6799 O   0  0  0  0  0  0  0  0  0  0  0  0
  149.5543  140.2603  158.3858 C   0  0  0  0  0  0  0  0  0  0  0  0
  148.4598  140.6781  158.0008 O   0  0  0  0  0  0  0  0  0  0  0  0
  146.3640  134.6468  161.9928 C   0  0  0  0  0  0  0  0  0  0  0  0
  145.0457  134.6925  162.4853 C   0  0  0  0  0  0  0  0  0  0  0  0
  141.2694  134.8322  163.5306 H   0  0  0  0  0  0  0  0  0  0  0  0
  142.7750  135.6884  163.8409 H   0  0  0  0  0  0  0  0  0  0  0  0
  142.7236  133.9097  163.8928 H   0  0  0  0  0  0  0  0  0  0  0  0
  143.3710  134.6821  159.5109 H   0  0  0  0  0  0  0  0  0  0  0  0
  145.6846  134.6040  158.6458 H   0  0  0  0  0  0  0  0  0  0  0  0
  148.7413  134.6488  160.8764 H   0  0  0  0  0  0  0  0  0  0  0  0
  149.1239  132.7128  159.7024 H   0  0  0  0  0  0  0  0  0  0  0  0
  147.4272  132.6446  159.1909 H   0  0  0  0  0  0  0  0  0  0  0  0
  149.0489  134.5461  155.3157 H   0  0  0  0  0  0  0  0  0  0  0  0
  149.6012  133.0528  153.4246 H   0  0  0  0  0  0  0  0  0  0  0  0
  149.8834  130.6101  153.7935 H   0  0  0  0  0  0  0  0  0  0  0  0
  149.6134  129.6509  156.0713 H   0  0  0  0  0  0  0  0  0  0  0  0
  149.0635  131.1086  157.9838 H   0  0  0  0  0  0  0  0  0  0  0  0
  148.9547  137.3516  157.3152 H   0  0  0  0  0  0  0  0  0  0  0  0
  147.7974  138.4636  157.9368 H   0  0  0  0  0  0  0  0  0  0  0  0
  152.6265  141.3497  159.3416 H   0  0  0  0  0  0  0  0  0  0  0  0
  149.2741  142.7348  158.3246 H   0  0  0  0  0  0  0  0  0  0  0  0
  151.9788  142.4924  157.0728 H   0  0  0  0  0  0  0  0  0  0  0  0
  150.6266  143.4989  156.5149 H   0  0  0  0  0  0  0  0  0  0  0  0
  152.8716  144.6419  157.6411 H   0  0  0  0  0  0  0  0  0  0  0  0
  151.2581  145.2937  157.9582 H   0  0  0  0  0  0  0  0  0  0  0  0
  152.7526  143.2457  159.6613 H   0  0  0  0  0  0  0  0  0  0  0  0
  152.0730  144.7885  160.2003 H   0  0  0  0  0  0  0  0  0  0  0  0
  147.1877  134.6441  162.6916 H   0  0  0  0  0  0  0  0  0  0  0  0
  144.9058  134.7189  163.5552 H   0  0  0  0  0  0  0  0  0  0  0  0
  1  2  1  0  0  0  0
  1 37  1  0  0  0  0
  1 38  1  0  0  0  0
  1 39  1  0  0  0  0
  2  3  1  0  0  0  0
  3 36  1  0  0  0  0
  3  4  2  0  0  0  0
  4  5  1  0  0  0  0
  4 40  1  0  0  0  0
  5  6  2  0  0  0  0
  5 41  1  0  0  0  0
  6  7  1  0  0  0  0
  6 35  1  0  0  0  0
  7 17  1  0  0  0  0
  7  8  1  0  0  0  0
  7 42  1  0  0  0  0
  8  9  1  0  0  0  0
  8 43  1  0  0  0  0
  8 44  1  0  0  0  0
  9 10  1  0  0  0  0
  9 16  2  0  0  0  0
 10 15  1  0  0  0  0
 10 11  2  0  0  0  0
 11 12  1  0  0  0  0
 11 45  1  0  0  0  0
 12 13  2  0  0  0  0
 12 46  1  0  0  0  0
 13 14  1  0  0  0  0
 13 47  1  0  0  0  0
 14 15  2  0  0  0  0
 14 48  1  0  0  0  0
 15 49  1  0  0  0  0
 16 17  1  0  0  0  0
 17 18  1  0  0  0  0
 18 19  2  0  0  0  0
 18 20  1  0  0  0  0
 20 21  1  0  0  0  0
 20 50  1  0  0  0  0
 20 51  1  0  0  0  0
 21 33  1  0  0  0  0
 21 22  1  0  0  0  0
 22 23  2  0  0  0  0
 22 24  1  0  0  0  0
 24 25  1  0  0  0  0
 24 26  2  0  0  0  0
 26 27  1  0  0  0  0
 26 52  1  0  0  0  0
 27 28  1  0  0  0  0
 27 33  1  0  0  0  0
 28 32  1  0  0  0  0
 28 29  1  0  0  0  0
 28 53  1  0  0  0  0
 29 30  1  0  0  0  0
 29 54  1  0  0  0  0
 29 55  1  0  0  0  0
 30 31  1  0  0  0  0
 30 56  1  0  0  0  0
 30 57  1  0  0  0  0
 31 32  1  0  0  0  0
 31 58  1  0  0  0  0
 31 59  1  0  0  0  0
 33 34  2  0  0  0  0
 35 36  2  0  0  0  0
 35 60  1  0  0  0  0
 36 61  1  0  0  0  0
M  END
> <s_m_source_file>
AV-unprocessed.smi

> <i_m_source_file_index>
24

> <i_lp_mmshare_version>
43012

> <i_f3d_flags>
0

> <s_epik_input>
W0NIM11PYzFbY0hdW2NIXWMoW2NIXVtjSF0xKVtDQEBIXTJbQ0gyXUMoYzNbY0hdW2NIXVtjSF1bY0hdW2NIXTMpPU5OMkMoPU8pW0NIMl1uNGMoPU8pYyhGKVtjSF1uKGM0PU8pW0NAQEhdNVtDSDJdW0NIMl1bQ0gyXU81

> <s_epik_cmdline>
J2VwaWtfcHl0aG9uJywgJy1waCcsICc3LjAnLCAnLXRuJywgJzgnLCAnLW1hJywgJzIwMCcsICctbWV0YWxfYmluZGluZycsICctaW1hZScsICc8aW5maWxlLm1hZT4nLCAnLW9tYWUnLCAnPG91dGZpbGUubWFlPic=

> <r_lp_tautomer_probability>
1

> <r_epik_Ionization_Penalty>
1.46326e-08

> <r_epik_Ionization_Penalty_Charging>
4.53232e-09

> <r_epik_Ionization_Penalty_Neutral>
1.01002e-08

> <r_epik_State_Penalty>
-0

> <r_epik_Charging_Adjusted_Penalty>
4.53232e-09

> <i_epik_Tot_Q>
0

> <i_epik_Tot_abs_Q>
0

> <r_epik_Metal_State_Penalty>
-0

> <b_epik_Metal_Only>
0

> <s_epik_Chemistry_Notes>
This compound has an imine and may undergo hydrolysis. This compound contains an acetal/aminal-like group ( X-CH(R)-Y where X, Y are N, S, or O) that may be acid/base labile, releasing an aldehyde.

> <s_lp_Force_Field>
OPLS_2005

> <r_lp_Energy>
50.3667

> <b_lp_Chiralities_Consistent>
1

> <s_lp_Variant>
AV-unprocessed.smi:24-2

> <Gold.Version>
5.8.1

> <Gold.Id.Protein>
6NUR|6NUR_protein|mol2

> <Gold.PLP.Fitness>
56.9125

> <Gold.PLP.PLP>
-51.6151

> <Gold.PLP.part.hbond>
-3.7582

> <Gold.PLP.part.metal>
0.0000

> <Gold.PLP.part.buried>
-7.5173

> <Gold.PLP.part.nonpolar>
-40.8931

> <Gold.PLP.part.repulsive>
0.0718

> <Gold.PLP.ligand.clash>
0.0000

> <Gold.PLP.ligand.torsion>
0.2780

> <Gold.PLP.Chemscore.Hbond>
1.9183

> <Gold.PLP.Chemscore.CHOScore>
0.0000

> <Gold.PLP.Chemscore.Metal>
0.0000

> <Gold.Chemscore.Hbonds>
donor molecule, donor type, donor heavy atom, donor atom, acceptor molecule, acceptor atom, score
      P1  H  6896  6909       L1    23  0.67
      P1  H  6931  6943       L1    19  0.67
      P1  H  6934  6947       L1    19  0.64

> <Gold.PLP.Chemscore.Internal.Correction>
0.0983

> <Gold.Rescore>
     Score         DG    S(hbond)    S(metal)    S(lipo)     H(rot)  DE(clash)    DE(int)     intcor
     20.67     -22.39       2.34        0.00     120.94       1.98       0.03       1.69       ----

> <Gold.Chemscore.Fitness>
20.6697

> <Gold.Chemscore.DG>
-22.3896

> <Gold.Chemscore.ZeroCoef>
-5.4800

> <Gold.Chemscore.Hbond>
2.3400

> <Gold.Chemscore.Metal>
0.0000

> <Gold.Chemscore.Lipo>
120.9395

> <Gold.Chemscore.Internal_Hbond>
0.0000

> <Gold.Chemscore.DEClash>
0.0292

> <Gold.Chemscore.DEInternal>
1.6907

> <Gold.Chemscore.Rot>
1.9750

> <Gold.Chemscore.Internal.Correction>
   9.000000E+99

> <Gold.Chemscore.Hbonds>
donor molecule, donor type, donor heavy atom, donor atom, acceptor molecule, acceptor atom, score
      P1  H  6896  6909       L1    23  0.66
      P1  H  6931  6943       L1    19  0.66
      P1  H  6934  6947       L1    19  0.63

> <Gold.Chemscore.Hbond.Weighted>
-7.8157

> <Gold.Chemscore.Metal.Weighted>
-0.0000

> <Gold.Chemscore.Lipo.Weighted>
-14.1499

> <Gold.Chemscore.Internal_Hbond.Weighted>
0.0000

> <Gold.Chemscore.DEClash.Weighted>
0.0292

> <Gold.Chemscore.DEInternal.Weighted>
1.6907

> <Gold.Chemscore.Rot.Weighted>
5.0561

> <Gold.Chemscore.Internal.Correction.Weighted>
   9.000000E+99

> <Gold.Protein.RotatedTorsions>
[ 6907 6896 6895 6894 ] final  106.60 input  -60.11 | X-H torsion
[ 7974 7965 7964 7962 ] final   57.65 input  175.53 | X-H torsion
[ 8008 7997 7996 7995 ] final  153.06 input   59.86 | X-H torsion
[ 10167 10162 10161 10158 ] final   92.69 input  -65.29 | X-H torsion
[ 10718 10713 10712 10709 ] final  -62.33 input   66.30 | X-H torsion
[ 10763 10752 10751 10750 ] final  162.20 input  -60.55 | X-H torsion
[ 11005 11000 10999 10996 ] final   52.99 input  -57.11 | X-H torsion

> <Gold.Protein.ActiveResidues>
 VAL166  LYS551  ARG553  GLY616  TRP617  ASP618  TYR619  PRO620  LYS621  CYS622 
 ASP623  PHE694  ASN695  SER759  ASP760  ASP761  ALA762  ILE779  LEU786  VAL792 
 PHE793  MET794  SER795  GLU796  ALA797  LYS798  CYS799  TRP800  GLU811  SER814 

> <Gold.Protein.RotatedAtoms>
  152.5187  133.9357  159.7601 H   0  0  0  0  0  0  0  0  0  0  0  0  # atno 6907 bound_to 6896
  150.9698  133.6348  159.2747 H   0  0  0  0  0  0  0  0  0  0  0  0  # atno 6908 bound_to 6896
  151.3564  135.0900  159.9473 H   0  0  0  0  0  0  0  0  0  0  0  0  # atno 6909 bound_to 6896
  145.9267  139.3774  143.0446 H   0  0  0  0  0  0  0  0  0  0  0  0  # atno 7974 bound_to 7965
  156.2600  140.2004  156.6430 H   0  0  0  0  0  0  0  0  0  0  0  0  # atno 8008 bound_to 7997
  154.6594  140.0562  157.0070 H   0  0  0  0  0  0  0  0  0  0  0  0  # atno 8009 bound_to 7997
  155.1298  140.3232  155.4479 H   0  0  0  0  0  0  0  0  0  0  0  0  # atno 8010 bound_to 7997
  139.8252  144.6713  150.9469 H   0  0  0  0  0  0  0  0  0  0  0  0  # atno 10167 bound_to 10162
  156.0862  130.4208  150.1120 H   0  0  0  0  0  0  0  0  0  0  0  0  # atno 10718 bound_to 10713
  154.2747  135.2765  155.2723 H   0  0  0  0  0  0  0  0  0  0  0  0  # atno 10763 bound_to 10752
  154.5271  135.5740  153.6731 H   0  0  0  0  0  0  0  0  0  0  0  0  # atno 10764 bound_to 10752
  152.9939  135.6218  154.2903 H   0  0  0  0  0  0  0  0  0  0  0  0  # atno 10765 bound_to 10752
  140.0804  134.5347  155.8953 H   0  0  0  0  0  0  0  0  0  0  0  0  # atno 11005 bound_to 11000
  145.8479  140.9545  143.0765 LP  0  0  0  0  0  0  0  0  0  0  0  0  # atno 17320 bound_to 7965
  144.6759  140.0369  143.7481 LP  0  0  0  0  0  0  0  0  0  0  0  0  # atno 17321 bound_to 7965
  140.7810  143.4053  151.1081 LP  0  0  0  0  0  0  0  0  0  0  0  0  # atno 17342 bound_to 10162
  139.7711  143.8493  152.3120 LP  0  0  0  0  0  0  0  0  0  0  0  0  # atno 17343 bound_to 10162
  156.9140  130.9661  151.3559 LP  0  0  0  0  0  0  0  0  0  0  0  0  # atno 17370 bound_to 10713
  157.5997  130.8504  149.8784 LP  0  0  0  0  0  0  0  0  0  0  0  0  # atno 17371 bound_to 10713
  141.2044  133.6639  156.6122 LP  0  0  0  0  0  0  0  0  0  0  0  0  # atno 17394 bound_to 11000
  140.3496  134.7780  157.4457 LP  0  0  0  0  0  0  0  0  0  0  0  0  # atno 17395 bound_to 11000

$$$$
