AV-unprocessed.smi:3331|AV-procd|sdf|12828|dock8
  -GOLD-   2272019203D 1   1.00000     0.00000
 Structure written by MMmdl.
 46 47  0  0  0  0  0  0  0  0  1 V2000
  143.3279  136.1984  162.5302 C   0  0  0  0  0  0  0  0  0  0  0  0
  144.7026  135.7113  162.0514 C   0  0  1  0  0  0  0  0  0  0  0  0
  145.7734  136.8182  162.1890 C   0  0  0  0  0  0  0  0  0  0  0  0
  147.1984  136.3243  161.8509 C   0  0  2  0  0  0  0  0  0  0  0  0
  147.4249  136.2002  160.3335 C   0  0  0  0  0  0  0  0  0  0  0  0
  147.4908  135.0119  162.6106 C   0  0  0  0  0  0  0  0  0  0  0  0
  146.4583  134.0152  162.2919 N   0  0  0  0  0  0  0  0  0  0  0  0
  146.6241  132.8839  161.5595 C   0  0  0  0  0  0  0  0  0  0  0  0
  145.6985  132.0922  161.3691 O   0  0  0  0  0  0  0  0  0  0  0  0
  147.9997  132.5520  160.9329 C   0  0  1  0  0  0  0  0  0  0  0  0
  148.5909  131.3018  161.6030 C   0  0  0  0  0  0  0  0  0  0  0  0
  147.9473  132.3491  159.4728 N   0  0  0  0  0  0  0  0  0  0  0  0
  149.1710  131.7817  158.9164 C   0  0  0  0  0  0  0  0  0  0  0  0
  149.0385  131.6820  157.3903 C   0  0  0  0  0  0  0  0  0  0  0  0
  149.5808  132.8539  156.7302 N   0  0  0  0  0  0  0  0  0  0  0  0
  149.7030  133.0966  155.3781 C   0  0  0  0  0  0  0  0  0  0  0  0
  150.2668  134.3324  155.2369 C   0  0  0  0  0  0  0  0  0  0  0  0
  150.4553  134.7727  156.5767 C   0  0  0  0  0  0  0  0  0  0  0  0
  150.0449  133.8851  157.4684 N   0  0  0  0  0  0  0  0  0  0  0  0
  145.1462  134.4374  162.8013 C   0  0  0  0  0  0  0  0  0  0  0  0
  143.3447  136.4561  163.5895 H   0  0  0  0  0  0  0  0  0  0  0  0
  142.5677  135.4301  162.3862 H   0  0  0  0  0  0  0  0  0  0  0  0
  143.0109  137.0825  161.9767 H   0  0  0  0  0  0  0  0  0  0  0  0
  144.6069  135.4606  160.9940 H   0  0  0  0  0  0  0  0  0  0  0  0
  145.5133  137.6774  161.5692 H   0  0  0  0  0  0  0  0  0  0  0  0
  145.7710  137.1802  163.2182 H   0  0  0  0  0  0  0  0  0  0  0  0
  147.9011  137.0772  162.2100 H   0  0  0  0  0  0  0  0  0  0  0  0
  146.7534  135.4729  159.8775 H   0  0  0  0  0  0  0  0  0  0  0  0
  148.4464  135.8890  160.1149 H   0  0  0  0  0  0  0  0  0  0  0  0
  147.2612  137.1557  159.8351 H   0  0  0  0  0  0  0  0  0  0  0  0
  148.5093  134.6759  162.4277 H   0  0  0  0  0  0  0  0  0  0  0  0
  147.4626  135.2047  163.6842 H   0  0  0  0  0  0  0  0  0  0  0  0
  148.6888  133.3789  161.0912 H   0  0  0  0  0  0  0  0  0  0  0  0
  148.6899  131.4352  162.6808 H   0  0  0  0  0  0  0  0  0  0  0  0
  149.5843  131.0805  161.2112 H   0  0  0  0  0  0  0  0  0  0  0  0
  147.9653  130.4239  161.4341 H   0  0  0  0  0  0  0  0  0  0  0  0
  147.7108  133.2032  158.9882 H   0  0  0  0  0  0  0  0  0  0  0  0
  150.0344  132.3992  159.1654 H   0  0  0  0  0  0  0  0  0  0  0  0
  149.3437  130.7921  159.3419 H   0  0  0  0  0  0  0  0  0  0  0  0
  149.5577  130.7987  157.0146 H   0  0  0  0  0  0  0  0  0  0  0  0
  147.9904  131.5794  157.1048 H   0  0  0  0  0  0  0  0  0  0  0  0
  149.3815  132.3793  154.6375 H   0  0  0  0  0  0  0  0  0  0  0  0
  150.5076  134.8441  154.3169 H   0  0  0  0  0  0  0  0  0  0  0  0
  150.8760  135.7042  156.9258 H   0  0  0  0  0  0  0  0  0  0  0  0
  145.2190  134.6335  163.8722 H   0  0  0  0  0  0  0  0  0  0  0  0
  144.3837  133.6642  162.6983 H   0  0  0  0  0  0  0  0  0  0  0  0
  1  2  1  0  0  0  0
  1 21  1  0  0  0  0
  1 22  1  0  0  0  0
  1 23  1  0  0  0  0
  2 20  1  0  0  0  0
  2  3  1  0  0  0  0
  2 24  1  0  0  0  0
  3  4  1  0  0  0  0
  3 25  1  0  0  0  0
  3 26  1  0  0  0  0
  4  5  1  0  0  0  0
  4  6  1  0  0  0  0
  4 27  1  0  0  0  0
  5 28  1  0  0  0  0
  5 29  1  0  0  0  0
  5 30  1  0  0  0  0
  6  7  1  0  0  0  0
  6 31  1  0  0  0  0
  6 32  1  0  0  0  0
  7  8  1  0  0  0  0
  7 20  1  0  0  0  0
  8  9  2  0  0  0  0
  8 10  1  0  0  0  0
 10 11  1  0  0  0  0
 10 12  1  0  0  0  0
 10 33  1  0  0  0  0
 11 34  1  0  0  0  0
 11 35  1  0  0  0  0
 11 36  1  0  0  0  0
 12 13  1  0  0  0  0
 12 37  1  0  0  0  0
 13 14  1  0  0  0  0
 13 38  1  0  0  0  0
 13 39  1  0  0  0  0
 14 15  1  0  0  0  0
 14 40  1  0  0  0  0
 14 41  1  0  0  0  0
 15 19  1  0  0  0  0
 15 16  1  0  0  0  0
 16 17  2  0  0  0  0
 16 42  1  0  0  0  0
 17 18  1  0  0  0  0
 17 43  1  0  0  0  0
 18 19  2  0  0  0  0
 18 44  1  0  0  0  0
 20 45  1  0  0  0  0
 20 46  1  0  0  0  0
M  END
> <s_m_source_file>
AV-unprocessed.smi

> <i_m_source_file_index>
3331

> <i_lp_mmshare_version>
43012

> <i_f3d_flags>
0

> <s_epik_input>
W0NIM11bQ0BASF0xW0NIMl1bQ0BASF0oW0NIM10pW0NIMl1OKFtDSDJdMSlDKD1PKVtDQEhdKFtDSDNdKVtOSF1bQ0gyXVtDSDJdbjJbY0hdW2NIXVtjSF1uMg==

> <s_epik_cmdline>
J2VwaWtfcHl0aG9uJywgJy1waCcsICc3LjAnLCAnLXRuJywgJzgnLCAnLW1hJywgJzIwMCcsICctbWV0YWxfYmluZGluZycsICctaW1hZScsICc8aW5maWxlLm1hZT4nLCAnLW9tYWUnLCAnPG91dGZpbGUubWFlPic=

> <r_lp_tautomer_probability>
1

> <r_epik_Ionization_Penalty>
0.767994

> <r_epik_Ionization_Penalty_Charging>
0

> <r_epik_Ionization_Penalty_Neutral>
0.767994

> <r_epik_State_Penalty>
0.795453

> <r_epik_Charging_Adjusted_Penalty>
0.795453

> <i_epik_Tot_Q>
0

> <i_epik_Tot_abs_Q>
0

> <r_epik_Metal_State_Penalty>
0.794784

> <b_epik_Metal_Only>
0

> <s_lp_Force_Field>
OPLS_2005

> <r_lp_Energy>
29.1639

> <b_lp_Chiralities_Consistent>
1

> <s_lp_Variant>
AV-unprocessed.smi:3331-12

> <Gold.Version>
5.8.1

> <Gold.Id.Protein>
6NUR|6NUR_protein|mol2

> <Gold.PLP.Fitness>
38.1326

> <Gold.PLP.PLP>
-35.8961

> <Gold.PLP.part.hbond>
-1.0000

> <Gold.PLP.part.metal>
0.0000

> <Gold.PLP.part.buried>
-5.1082

> <Gold.PLP.part.nonpolar>
-29.7793

> <Gold.PLP.part.repulsive>
0.0544

> <Gold.PLP.ligand.clash>
0.0000

> <Gold.PLP.ligand.torsion>
0.3941

> <Gold.PLP.Chemscore.Hbond>
0.9920

> <Gold.PLP.Chemscore.CHOScore>
0.0000

> <Gold.PLP.Chemscore.Metal>
0.0000

> <Gold.Chemscore.Hbonds>
donor molecule, donor type, donor heavy atom, donor atom, acceptor molecule, acceptor atom, score
      P1  H  6896  6908       L1    19  0.99

> <Gold.PLP.Chemscore.Internal.Correction>
0.0487

> <Gold.Rescore>
     Score         DG    S(hbond)    S(metal)    S(lipo)     H(rot)  DE(clash)    DE(int)     intcor
     13.52     -13.96       0.93        0.00      82.27       1.66       0.04       0.40       ----

> <Gold.Chemscore.Fitness>
13.5189

> <Gold.Chemscore.DG>
-13.9568

> <Gold.Chemscore.ZeroCoef>
-5.4800

> <Gold.Chemscore.Hbond>
0.9322

> <Gold.Chemscore.Metal>
0.0000

> <Gold.Chemscore.Lipo>
82.2678

> <Gold.Chemscore.Internal_Hbond>
0.0000

> <Gold.Chemscore.DEClash>
0.0354

> <Gold.Chemscore.DEInternal>
0.4025

> <Gold.Chemscore.Rot>
1.6649

> <Gold.Chemscore.Internal.Correction>
   9.000000E+99

> <Gold.Chemscore.Hbonds>
donor molecule, donor type, donor heavy atom, donor atom, acceptor molecule, acceptor atom, score
      P1  H  6896  6908       L1    19  0.93

> <Gold.Chemscore.Hbond.Weighted>
-3.1135

> <Gold.Chemscore.Metal.Weighted>
-0.0000

> <Gold.Chemscore.Lipo.Weighted>
-9.6253

> <Gold.Chemscore.Internal_Hbond.Weighted>
0.0000

> <Gold.Chemscore.DEClash.Weighted>
0.0354

> <Gold.Chemscore.DEInternal.Weighted>
0.4025

> <Gold.Chemscore.Rot.Weighted>
4.2621

> <Gold.Chemscore.Internal.Correction.Weighted>
   9.000000E+99

> <Gold.Protein.RotatedTorsions>
[ 6907 6896 6895 6894 ] final  119.88 input  -60.11 | X-H torsion
[ 7974 7965 7964 7962 ] final  176.38 input  175.53 | X-H torsion
[ 8008 7997 7996 7995 ] final   27.33 input   59.86 | X-H torsion
[ 10167 10162 10161 10158 ] final   29.90 input  -65.29 | X-H torsion
[ 10718 10713 10712 10709 ] final   31.79 input   66.30 | X-H torsion
[ 10763 10752 10751 10750 ] final  101.66 input  -60.55 | X-H torsion
[ 11005 11000 10999 10996 ] final   88.57 input  -57.11 | X-H torsion

> <Gold.Protein.ActiveResidues>
 VAL166  LYS551  ARG553  GLY616  TRP617  ASP618  TYR619  PRO620  LYS621  CYS622 
 ASP623  PHE694  ASN695  SER759  ASP760  ASP761  ALA762  ILE779  LEU786  VAL792 
 PHE793  MET794  SER795  GLU796  ALA797  LYS798  CYS799  TRP800  GLU811  SER814 

> <Gold.Protein.RotatedAtoms>
  152.4439  133.7500  159.6688 H   0  0  0  0  0  0  0  0  0  0  0  0  # atno 6907 bound_to 6896
  150.8335  133.8041  159.3095 H   0  0  0  0  0  0  0  0  0  0  0  0  # atno 6908 bound_to 6896
  151.5687  135.1066  160.0042 H   0  0  0  0  0  0  0  0  0  0  0  0  # atno 6909 bound_to 6896
  144.7185  140.0088  143.6440 H   0  0  0  0  0  0  0  0  0  0  0  0  # atno 7974 bound_to 7965
  155.0412  140.3169  155.4724 H   0  0  0  0  0  0  0  0  0  0  0  0  # atno 8008 bound_to 7997
  156.2854  140.2162  156.5479 H   0  0  0  0  0  0  0  0  0  0  0  0  # atno 8009 bound_to 7997
  154.7288  140.0483  157.0695 H   0  0  0  0  0  0  0  0  0  0  0  0  # atno 8010 bound_to 7997
  140.4725  144.0740  150.6241 H   0  0  0  0  0  0  0  0  0  0  0  0  # atno 10167 bound_to 10162
  157.2770  130.7236  149.6535 H   0  0  0  0  0  0  0  0  0  0  0  0  # atno 10718 bound_to 10713
  153.3296  135.4037  155.1484 H   0  0  0  0  0  0  0  0  0  0  0  0  # atno 10763 bound_to 10752
  154.8620  135.3607  154.5488 H   0  0  0  0  0  0  0  0  0  0  0  0  # atno 10764 bound_to 10752
  153.5926  135.7073  153.5476 H   0  0  0  0  0  0  0  0  0  0  0  0  # atno 10765 bound_to 10752
  139.8893  134.8496  156.3019 H   0  0  0  0  0  0  0  0  0  0  0  0  # atno 11005 bound_to 11000
  146.0276  139.3306  143.0775 LP  0  0  0  0  0  0  0  0  0  0  0  0  # atno 17320 bound_to 7965
  145.8493  140.9538  143.0758 LP  0  0  0  0  0  0  0  0  0  0  0  0  # atno 17321 bound_to 7965
  140.3959  143.2728  152.0005 LP  0  0  0  0  0  0  0  0  0  0  0  0  # atno 17342 bound_to 10162
  139.4820  144.6038  151.7557 LP  0  0  0  0  0  0  0  0  0  0  0  0  # atno 17343 bound_to 10162
  155.9664  130.4350  150.5072 LP  0  0  0  0  0  0  0  0  0  0  0  0  # atno 17370 bound_to 10713
  157.3008  131.0645  151.2069 LP  0  0  0  0  0  0  0  0  0  0  0  0  # atno 17371 bound_to 10713
  140.9907  133.7210  156.0810 LP  0  0  0  0  0  0  0  0  0  0  0  0  # atno 17394 bound_to 11000
  140.7628  134.3920  157.5522 LP  0  0  0  0  0  0  0  0  0  0  0  0  # atno 17395 bound_to 11000

$$$$
