AV-unprocessed.smi:35|AV-procd|sdf|266|dock1
  -GOLD-   2262016 33D 1   1.00000     0.00000
 Structure written by MMmdl.
 28 29  0  0  0  0  0  0  0  0  2 V2000
  152.3908  134.8007  157.4946 O   0  0  0  0  0  0  0  0  0  0  0  0
  152.1565  135.8464  156.8917 C   0  0  0  0  0  0  0  0  0  0  0  0
  153.1383  136.6355  156.3670 N   0  5  0  0  0  0  0  0  0  0  0  0
  152.8722  137.7956  155.6977 C   0  0  0  0  0  0  0  0  0  0  0  0
  153.7509  138.5241  155.2362 O   0  0  0  0  0  0  0  0  0  0  0  0
  151.5194  138.1994  155.5304 N   0  0  0  0  0  0  0  0  0  0  0  0
  151.2261  139.4880  154.7852 C   0  0  1  0  0  0  0  0  0  0  0  0
  149.8451  139.6052  154.5843 O   0  0  0  0  0  0  0  0  0  0  0  0
  149.3371  140.6738  155.3728 C   0  0  2  0  0  0  0  0  0  0  0  0
  147.9909  141.1717  154.8167 C   0  0  0  0  0  0  0  0  0  0  0  0
  147.0994  140.1094  154.5462 O   0  0  0  0  0  0  0  0  0  0  0  0
  150.4913  141.6751  155.4135 C   0  0  1  0  0  0  0  0  0  0  0  0
  150.3732  142.6159  156.4652 O   0  0  0  0  0  0  0  0  0  0  0  0
  151.7005  140.7530  155.5474 C   0  0  1  0  0  0  0  0  0  0  0  0
  152.0364  140.5062  156.9052 O   0  0  0  0  0  0  0  0  0  0  0  0
  150.5013  137.4215  156.0575 C   0  0  0  0  0  0  0  0  0  0  0  0
  150.7722  136.2792  156.7206 C   0  0  0  0  0  0  0  0  0  0  0  0
  149.2193  135.2677  157.4222 Br  0  0  0  0  0  0  0  0  0  0  0  0
  151.6897  139.3752  153.8038 H   0  0  0  0  0  0  0  0  0  0  0  0
  149.1716  140.2798  156.3772 H   0  0  0  0  0  0  0  0  0  0  0  0
  147.5260  141.8721  155.5108 H   0  0  0  0  0  0  0  0  0  0  0  0
  148.1582  141.7108  153.8839 H   0  0  0  0  0  0  0  0  0  0  0  0
  147.2600  139.7986  153.6683 H   0  0  0  0  0  0  0  0  0  0  0  0
  150.5664  142.2104  154.4666 H   0  0  0  0  0  0  0  0  0  0  0  0
  149.6409  143.1823  156.2758 H   0  0  0  0  0  0  0  0  0  0  0  0
  152.5772  141.1686  155.0497 H   0  0  0  0  0  0  0  0  0  0  0  0
  152.5911  139.7412  156.9380 H   0  0  0  0  0  0  0  0  0  0  0  0
  149.4708  137.7212  155.9462 H   0  0  0  0  0  0  0  0  0  0  0  0
  1  2  2  0  0  0  0
  2 17  1  0  0  0  0
  2  3  1  0  0  0  0
  3  4  1  0  0  0  0
  4  5  2  0  0  0  0
  4  6  1  0  0  0  0
  6  7  1  0  0  0  0
  6 16  1  0  0  0  0
  7 14  1  0  0  0  0
  7  8  1  0  0  0  0
  7 19  1  0  0  0  0
  8  9  1  0  0  0  0
  9 10  1  0  0  0  0
  9 12  1  0  0  0  0
  9 20  1  0  0  0  0
 10 11  1  0  0  0  0
 10 21  1  0  0  0  0
 10 22  1  0  0  0  0
 11 23  1  0  0  0  0
 12 13  1  0  0  0  0
 12 14  1  0  0  0  0
 12 24  1  0  0  0  0
 13 25  1  0  0  0  0
 14 15  1  0  0  0  0
 14 26  1  0  0  0  0
 15 27  1  0  0  0  0
 16 17  2  0  0  0  0
 16 28  1  0  0  0  0
 17 18  1  0  0  0  0
M  CHG  1   3  -1
M  END
> <s_m_source_file>
AV-unprocessed.smi

> <i_m_source_file_index>
35

> <i_lp_mmshare_version>
43012

> <i_f3d_flags>
0

> <s_epik_input>
Tz1jMVtuSF1jKD1PKW4oW2NIXWMxQnIpW0NAQEhdMk9bQ0BASF0oW0NIMl1bT0hdKVtDQEBIXShbT0hdKVtDQEhdMltPSF0=

> <s_epik_cmdline>
J2VwaWtfcHl0aG9uJywgJy1waCcsICc3LjAnLCAnLXRuJywgJzgnLCAnLW1hJywgJzIwMCcsICctbWV0YWxfYmluZGluZycsICctaW1hZScsICc8aW5maWxlLm1hZT4nLCAnLW9tYWUnLCAnPG91dGZpbGUubWFlPic=

> <r_epik_Ionization_Penalty>
1.06112

> <r_epik_Ionization_Penalty_Charging>
2.1796e-09

> <r_epik_Ionization_Penalty_Neutral>
1.06112

> <r_epik_State_Penalty>
1.11484

> <r_epik_Charging_Adjusted_Penalty>
1.11484

> <i_epik_Tot_Q>
-1

> <i_epik_Tot_abs_Q>
1

> <r_epik_Metal_State_Penalty>
0.0032876

> <b_epik_Metal_Only>
0

> <s_epik_Chemistry_Notes>
This compound contains an acetal/aminal-like group ( X-CH(R)-Y where X, Y are N, S, or O) that may be acid/base labile, releasing an aldehyde.

> <s_lp_Force_Field>
OPLS_2005

> <r_lp_Energy>
48.0259

> <b_lp_Chiralities_Consistent>
1

> <s_lp_Variant>
AV-unprocessed.smi:35-20

> <Gold.Version>
5.8.1

> <Gold.Id.Protein>
6NUR|6NUR_protein|mol2

> <Gold.PLP.Fitness>
41.4829

> <Gold.PLP.PLP>
-27.2878

> <Gold.PLP.part.hbond>
-5.5916

> <Gold.PLP.part.metal>
0.0000

> <Gold.PLP.part.buried>
-3.1449

> <Gold.PLP.part.nonpolar>
-18.8122

> <Gold.PLP.part.repulsive>
0.1205

> <Gold.PLP.ligand.clash>
0.0000

> <Gold.PLP.ligand.torsion>
0.2005

> <Gold.PLP.Chemscore.Hbond>
4.8480

> <Gold.PLP.Chemscore.CHOScore>
0.0000

> <Gold.PLP.Chemscore.Metal>
0.0000

> <Gold.Chemscore.Hbonds>
donor molecule, donor type, donor heavy atom, donor atom, acceptor molecule, acceptor atom, score
      L1  H    13    25       P1  8028  1.00
      P1  H  7997  8008       L1     5  0.46
      P1  H 10752 10764       L1     3  0.78

> <Gold.PLP.Chemscore.Internal.Correction>
0.0520

> <Gold.Rescore>
     Score         DG    S(hbond)    S(metal)    S(lipo)     H(rot)  DE(clash)    DE(int)     intcor
     10.61     -10.92       3.09        0.00      37.58       3.63       0.06       0.26       ----

> <Gold.Chemscore.Fitness>
10.6062

> <Gold.Chemscore.DG>
-10.9243

> <Gold.Chemscore.ZeroCoef>
-5.4800

> <Gold.Chemscore.Hbond>
3.0928

> <Gold.Chemscore.Metal>
0.0000

> <Gold.Chemscore.Lipo>
37.5812

> <Gold.Chemscore.Internal_Hbond>
0.0000

> <Gold.Chemscore.DEClash>
0.0580

> <Gold.Chemscore.DEInternal>
0.2600

> <Gold.Chemscore.Rot>
3.6261

> <Gold.Chemscore.Internal.Correction>
   9.000000E+99

> <Gold.Chemscore.Hbonds>
donor molecule, donor type, donor heavy atom, donor atom, acceptor molecule, acceptor atom, score
      L1  H    13    25       P1  8028  0.97
      P1  H  7997  8008       L1     5  0.41
      P1  H 10752 10764       L1     3  0.01

> <Gold.Chemscore.Hbond.Weighted>
-10.3300

> <Gold.Chemscore.Metal.Weighted>
-0.0000

> <Gold.Chemscore.Lipo.Weighted>
-4.3970

> <Gold.Chemscore.Internal_Hbond.Weighted>
0.0000

> <Gold.Chemscore.DEClash.Weighted>
0.0580

> <Gold.Chemscore.DEInternal.Weighted>
0.2600

> <Gold.Chemscore.Rot.Weighted>
9.2828

> <Gold.Chemscore.Internal.Correction.Weighted>
   9.000000E+99

> <Gold.Protein.RotatedTorsions>
[ 6907 6896 6895 6894 ] final  -15.57 input  -60.11 | X-H torsion
[ 7974 7965 7964 7962 ] final   -6.97 input  175.53 | X-H torsion
[ 8008 7997 7996 7995 ] final  -49.31 input   59.86 | X-H torsion
[ 10167 10162 10161 10158 ] final  147.17 input  -65.29 | X-H torsion
[ 10718 10713 10712 10709 ] final   63.96 input   66.30 | X-H torsion
[ 10763 10752 10751 10750 ] final   -0.87 input  -60.55 | X-H torsion
[ 11005 11000 10999 10996 ] final  117.21 input  -57.11 | X-H torsion

> <Gold.Protein.ActiveResidues>
 VAL166  LYS551  ARG553  GLY616  TRP617  ASP618  TYR619  PRO620  LYS621  CYS622 
 ASP623  PHE694  ASN695  SER759  ASP760  ASP761  ALA762  ILE779  LEU786  VAL792 
 PHE793  MET794  SER795  GLU796  ALA797  LYS798  CYS799  TRP800  GLU811  SER814 

> <Gold.Protein.RotatedAtoms>
  151.3219  135.0820  159.9308 H   0  0  0  0  0  0  0  0  0  0  0  0  # atno 6907 bound_to 6896
  152.5255  133.9630  159.7736 H   0  0  0  0  0  0  0  0  0  0  0  0  # atno 6908 bound_to 6896
  150.9953  133.6057  159.2732 H   0  0  0  0  0  0  0  0  0  0  0  0  # atno 6909 bound_to 6896
  146.2318  140.2250  142.8338 H   0  0  0  0  0  0  0  0  0  0  0  0  # atno 7974 bound_to 7965
  154.4042  140.1300  156.4481 H   0  0  0  0  0  0  0  0  0  0  0  0  # atno 8008 bound_to 7997
  155.7393  140.3490  155.5076 H   0  0  0  0  0  0  0  0  0  0  0  0  # atno 8009 bound_to 7997
  155.9054  140.1026  157.1309 H   0  0  0  0  0  0  0  0  0  0  0  0  # atno 8010 bound_to 7997
  139.4894  144.5775  151.6936 H   0  0  0  0  0  0  0  0  0  0  0  0  # atno 10167 bound_to 10162
  157.6007  130.9134  149.9783 H   0  0  0  0  0  0  0  0  0  0  0  0  # atno 10718 bound_to 10713
  153.3375  135.6978  153.6895 H   0  0  0  0  0  0  0  0  0  0  0  0  # atno 10763 bound_to 10752
  153.5673  135.3523  155.2824 H   0  0  0  0  0  0  0  0  0  0  0  0  # atno 10764 bound_to 10752
  154.8630  135.4264  154.2579 H   0  0  0  0  0  0  0  0  0  0  0  0  # atno 10765 bound_to 10752
  139.9067  134.9607  156.7316 H   0  0  0  0  0  0  0  0  0  0  0  0  # atno 11005 bound_to 11000
  144.9602  140.8268  143.5518 LP  0  0  0  0  0  0  0  0  0  0  0  0  # atno 17320 bound_to 7965
  145.2220  139.2155  143.5088 LP  0  0  0  0  0  0  0  0  0  0  0  0  # atno 17321 bound_to 7965
  140.5374  144.0633  150.6075 LP  0  0  0  0  0  0  0  0  0  0  0  0  # atno 17342 bound_to 10162
  140.3644  143.2890  152.0348 LP  0  0  0  0  0  0  0  0  0  0  0  0  # atno 17343 bound_to 10162
  156.1079  130.3651  150.0100 LP  0  0  0  0  0  0  0  0  0  0  0  0  # atno 17370 bound_to 10713
  156.8204  130.9356  151.3641 LP  0  0  0  0  0  0  0  0  0  0  0  0  # atno 17371 bound_to 10713
  140.6920  133.9381  155.7972 LP  0  0  0  0  0  0  0  0  0  0  0  0  # atno 17394 bound_to 11000
  141.0434  134.0588  157.3874 LP  0  0  0  0  0  0  0  0  0  0  0  0  # atno 17395 bound_to 11000

$$$$
