AV-unprocessed.smi:1646|AV-procd|sdf|6624|dock2
  -GOLD-   22720 7323D 1   1.00000     0.00000
 Structure written by MMmdl.
 29 30  0  0  0  0  0  0  0  0  1 V2000
  152.1084  140.7191  157.5295 O   0  0  0  0  0  0  0  0  0  0  0  0
  151.3840  141.6043  157.0743 C   0  0  0  0  0  0  0  0  0  0  0  0
  150.3412  141.2660  156.0090 C   0  0  0  0  0  0  0  0  0  0  0  0
  150.5233  139.9125  155.5178 N   0  0  0  0  0  0  0  0  0  0  0  0
  150.5530  138.7382  156.2459 C   0  0  0  0  0  0  0  0  0  0  0  0
  150.7372  137.7484  155.3299 C   0  0  0  0  0  0  0  0  0  0  0  0
  150.8643  135.8826  155.6795 Br  0  0  0  0  0  0  0  0  0  0  0  0
  150.8105  138.3823  154.0636 C   0  0  0  0  0  0  0  0  0  0  0  0
  150.6806  139.6955  154.1861 N   0  0  0  0  0  0  0  0  0  0  0  0
  151.4452  142.8864  157.4652 N   0  0  0  0  0  0  0  0  0  0  0  0
  152.3480  143.4134  158.4850 C   0  0  0  0  0  0  0  0  0  0  0  0
  152.0335  142.7985  159.8628 C   0  0  0  0  0  0  0  0  0  0  0  0
  151.9390  143.9709  160.8412 C   0  0  0  0  0  0  0  0  0  0  0  0
  151.4721  145.1431  159.9846 C   0  0  0  0  0  0  0  0  0  0  0  0
  152.1905  144.9383  158.6510 C   0  0  0  0  0  0  0  0  0  0  0  0
  149.3318  141.3771  156.4090 H   0  0  0  0  0  0  0  0  0  0  0  0
  150.4316  141.9591  155.1715 H   0  0  0  0  0  0  0  0  0  0  0  0
  150.4403  138.7130  157.3198 H   0  0  0  0  0  0  0  0  0  0  0  0
  150.9489  137.9458  153.0853 H   0  0  0  0  0  0  0  0  0  0  0  0
  150.8090  143.5431  157.0364 H   0  0  0  0  0  0  0  0  0  0  0  0
  153.3789  143.1814  158.2106 H   0  0  0  0  0  0  0  0  0  0  0  0
  151.0758  142.2756  159.8430 H   0  0  0  0  0  0  0  0  0  0  0  0
  152.7873  142.0733  160.1708 H   0  0  0  0  0  0  0  0  0  0  0  0
  151.2686  143.7671  161.6766 H   0  0  0  0  0  0  0  0  0  0  0  0
  152.9263  144.1878  161.2512 H   0  0  0  0  0  0  0  0  0  0  0  0
  150.3932  145.0830  159.8349 H   0  0  0  0  0  0  0  0  0  0  0  0
  151.6936  146.1098  160.4374 H   0  0  0  0  0  0  0  0  0  0  0  0
  153.1799  145.3947  158.7041 H   0  0  0  0  0  0  0  0  0  0  0  0
  151.6634  145.4173  157.8246 H   0  0  0  0  0  0  0  0  0  0  0  0
  1  2  2  0  0  0  0
  2  3  1  0  0  0  0
  2 10  1  0  0  0  0
  3  4  1  0  0  0  0
  3 16  1  0  0  0  0
  3 17  1  0  0  0  0
  4  9  1  0  0  0  0
  4  5  1  0  0  0  0
  5  6  2  0  0  0  0
  5 18  1  0  0  0  0
  6  7  1  0  0  0  0
  6  8  1  0  0  0  0
  8  9  2  0  0  0  0
  8 19  1  0  0  0  0
 10 11  1  0  0  0  0
 10 20  1  0  0  0  0
 11 15  1  0  0  0  0
 11 12  1  0  0  0  0
 11 21  1  0  0  0  0
 12 13  1  0  0  0  0
 12 22  1  0  0  0  0
 12 23  1  0  0  0  0
 13 14  1  0  0  0  0
 13 24  1  0  0  0  0
 13 25  1  0  0  0  0
 14 15  1  0  0  0  0
 14 26  1  0  0  0  0
 14 27  1  0  0  0  0
 15 28  1  0  0  0  0
 15 29  1  0  0  0  0
M  END
> <s_m_source_file>
AV-unprocessed.smi

> <i_m_source_file_index>
1646

> <i_lp_mmshare_version>
43012

> <i_f3d_flags>
0

> <s_epik_input>
W0NIMl0xW0NIMl1bQ0gyXVtDSDJdW0NIXTFbTkhdQyg9TylbQ0gyXW4yW2NIXWMoQnIpW2NIXW4y

> <s_epik_cmdline>
J2VwaWtfcHl0aG9uJywgJy1waCcsICc3LjAnLCAnLXRuJywgJzgnLCAnLW1hJywgJzIwMCcsICctbWV0YWxfYmluZGluZycsICctaW1hZScsICc8aW5maWxlLm1hZT4nLCAnLW9tYWUnLCAnPG91dGZpbGUubWFlPic=

> <r_lp_tautomer_probability>
1

> <r_epik_Ionization_Penalty>
2.35926e-07

> <r_epik_Ionization_Penalty_Charging>
0

> <r_epik_Ionization_Penalty_Neutral>
2.35926e-07

> <r_epik_State_Penalty>
-0

> <r_epik_Charging_Adjusted_Penalty>
0

> <i_epik_Tot_Q>
0

> <i_epik_Tot_abs_Q>
0

> <r_epik_Metal_State_Penalty>
-0

> <b_epik_Metal_Only>
0

> <s_lp_Force_Field>
OPLS_2005

> <r_lp_Energy>
20.2229

> <b_lp_Chiralities_Consistent>
1

> <s_lp_Variant>
AV-unprocessed.smi:1646-1

> <Gold.Version>
5.8.1

> <Gold.Id.Protein>
6NUR|6NUR_protein|mol2

> <Gold.PLP.Fitness>
39.7540

> <Gold.PLP.PLP>
-33.9173

> <Gold.PLP.part.hbond>
-1.0000

> <Gold.PLP.part.metal>
0.0000

> <Gold.PLP.part.buried>
-4.1088

> <Gold.PLP.part.nonpolar>
-28.6014

> <Gold.PLP.part.repulsive>
0.1803

> <Gold.PLP.ligand.clash>
0.0000

> <Gold.PLP.ligand.torsion>
0.1181

> <Gold.PLP.Chemscore.Hbond>
1.0000

> <Gold.PLP.Chemscore.CHOScore>
1.0230

> <Gold.PLP.Chemscore.Metal>
0.0000

> <Gold.Chemscore.Hbonds>
donor molecule, donor type, donor heavy atom, donor atom, acceptor molecule, acceptor atom, score
      P1  H  7989  7998       L1     9  1.00
      L1  C     8    19       P1  7948  0.06
      L1  C     8    19       P1  7949  1.00

> <Gold.PLP.Chemscore.Internal.Correction>
0.0038

> <Gold.Rescore>
     Score         DG    S(hbond)    S(metal)    S(lipo)     H(rot)  DE(clash)    DE(int)     intcor
     16.61     -17.93       1.88        0.00      83.81       1.41       0.03       1.29       ----

> <Gold.Chemscore.Fitness>
16.6068

> <Gold.Chemscore.DG>
-17.9322

> <Gold.Chemscore.ZeroCoef>
-5.4800

> <Gold.Chemscore.Hbond>
1.8768

> <Gold.Chemscore.Metal>
0.0000

> <Gold.Chemscore.Lipo>
83.8077

> <Gold.Chemscore.Internal_Hbond>
0.0000

> <Gold.Chemscore.DEClash>
0.0329

> <Gold.Chemscore.DEInternal>
1.2925

> <Gold.Chemscore.Rot>
1.4148

> <Gold.Chemscore.Internal.Correction>
   9.000000E+99

> <Gold.Chemscore.Hbonds>
donor molecule, donor type, donor heavy atom, donor atom, acceptor molecule, acceptor atom, score
      P1  H  7989  7998       L1     9  0.82

> <Gold.Chemscore.Hbond.Weighted>
-6.2687

> <Gold.Chemscore.Metal.Weighted>
-0.0000

> <Gold.Chemscore.Lipo.Weighted>
-9.8055

> <Gold.Chemscore.Internal_Hbond.Weighted>
0.0000

> <Gold.Chemscore.DEClash.Weighted>
0.0329

> <Gold.Chemscore.DEInternal.Weighted>
1.2925

> <Gold.Chemscore.Rot.Weighted>
3.6220

> <Gold.Chemscore.Internal.Correction.Weighted>
   9.000000E+99

> <Gold.Protein.RotatedTorsions>
[ 6907 6896 6895 6894 ] final   87.87 input  -60.11 | X-H torsion
[ 7974 7965 7964 7962 ] final   72.27 input  175.53 | X-H torsion
[ 8008 7997 7996 7995 ] final -166.14 input   59.86 | X-H torsion
[ 10167 10162 10161 10158 ] final   32.03 input  -65.29 | X-H torsion
[ 10718 10713 10712 10709 ] final  -64.56 input   66.30 | X-H torsion
[ 10763 10752 10751 10750 ] final  -54.50 input  -60.55 | X-H torsion
[ 11005 11000 10999 10996 ] final  151.86 input  -57.11 | X-H torsion

> <Gold.Protein.ActiveResidues>
 VAL166  LYS551  ARG553  GLY616  TRP617  ASP618  TYR619  PRO620  LYS621  CYS622 
 ASP623  PHE694  ASN695  SER759  ASP760  ASP761  ALA762  ILE779  LEU786  VAL792 
 PHE793  MET794  SER795  GLU796  ALA797  LYS798  CYS799  TRP800  GLU811  SER814 

> <Gold.Protein.RotatedAtoms>
  152.5417  134.2209  159.8786 H   0  0  0  0  0  0  0  0  0  0  0  0  # atno 6907 bound_to 6896
  151.2186  133.4508  159.2607 H   0  0  0  0  0  0  0  0  0  0  0  0  # atno 6908 bound_to 6896
  151.0827  134.9881  159.8420 H   0  0  0  0  0  0  0  0  0  0  0  0  # atno 6909 bound_to 6896
  145.7554  139.2778  143.1407 H   0  0  0  0  0  0  0  0  0  0  0  0  # atno 7974 bound_to 7965
  155.8597  140.0976  157.1621 H   0  0  0  0  0  0  0  0  0  0  0  0  # atno 8008 bound_to 7997
  154.3990  140.1367  156.4007 H   0  0  0  0  0  0  0  0  0  0  0  0  # atno 8009 bound_to 7997
  155.7871  140.3457  155.5331 H   0  0  0  0  0  0  0  0  0  0  0  0  # atno 8010 bound_to 7997
  140.4535  144.1013  150.6197 H   0  0  0  0  0  0  0  0  0  0  0  0  # atno 10167 bound_to 10162
  156.0722  130.4235  150.1438 H   0  0  0  0  0  0  0  0  0  0  0  0  # atno 10718 bound_to 10713
  154.1759  135.6451  153.5021 H   0  0  0  0  0  0  0  0  0  0  0  0  # atno 10763 bound_to 10752
  153.0072  135.5394  154.6565 H   0  0  0  0  0  0  0  0  0  0  0  0  # atno 10764 bound_to 10752
  154.5916  135.2935  155.0602 H   0  0  0  0  0  0  0  0  0  0  0  0  # atno 10765 bound_to 10752
  140.1256  134.8835  157.2133 H   0  0  0  0  0  0  0  0  0  0  0  0  # atno 11005 bound_to 11000
  146.0316  140.8253  142.9873 LP  0  0  0  0  0  0  0  0  0  0  0  0  # atno 17320 bound_to 7965
  144.6841  140.2777  143.7297 LP  0  0  0  0  0  0  0  0  0  0  0  0  # atno 17321 bound_to 7965
  140.4179  143.2625  151.9752 LP  0  0  0  0  0  0  0  0  0  0  0  0  # atno 17342 bound_to 10162
  139.4799  144.5857  151.7857 LP  0  0  0  0  0  0  0  0  0  0  0  0  # atno 17343 bound_to 10162
  156.9486  130.9767  151.3502 LP  0  0  0  0  0  0  0  0  0  0  0  0  # atno 17370 bound_to 10713
  157.5798  130.8369  149.8507 LP  0  0  0  0  0  0  0  0  0  0  0  0  # atno 17371 bound_to 10713
  140.2908  134.3242  155.7316 LP  0  0  0  0  0  0  0  0  0  0  0  0  # atno 17394 bound_to 11000
  141.2160  133.7534  156.9501 LP  0  0  0  0  0  0  0  0  0  0  0  0  # atno 17395 bound_to 11000

$$$$
