AV-unprocessed.smi:1522|AV-procd|sdf|6134|dock6
  -GOLD-   22720 6273D 1   1.00000     0.00000
 Structure written by MMmdl.
 35 36  0  0  0  0  0  0  0  0  2 V2000
  145.3665  135.8067  150.2343 C   0  0  0  0  0  0  0  0  0  0  0  0
  145.4324  135.6978  151.7742 C   0  0  2  0  0  0  0  0  0  0  0  0
  145.5599  137.1031  152.4190 C   0  0  0  0  0  0  0  0  0  0  0  0
  144.2789  137.7935  152.5378 N   0  0  0  0  0  0  0  0  0  0  0  0
  143.1357  137.2195  152.9389 C   0  0  0  0  0  0  0  0  0  0  0  0
  143.0527  136.0338  153.2588 O   0  0  0  0  0  0  0  0  0  0  0  0
  142.1213  138.0990  152.9376 N   0  0  0  0  0  0  0  0  0  0  0  0
  140.7620  137.8615  153.2616 C   0  0  0  0  0  0  0  0  0  0  0  0
  139.9274  138.9071  153.2733 N   0  0  0  0  0  0  0  0  0  0  0  0
  138.6295  138.5335  153.5997 N   0  0  0  0  0  0  0  0  0  0  0  0
  138.5359  137.2188  153.8206 C   0  0  0  0  0  0  0  0  0  0  0  0
  140.0243  136.3049  153.6524 S   0  0  0  0  0  0  0  0  0  0  0  0
  146.5533  134.8153  152.2097 N   0  3  0  0  0  0  0  0  0  0  0  0
  146.6085  134.5395  153.6684 C   0  0  0  0  0  0  0  0  0  0  0  0
  147.0609  133.0829  153.8420 C   0  0  0  0  0  0  0  0  0  0  0  0
  147.4959  132.6394  152.4503 C   0  0  0  0  0  0  0  0  0  0  0  0
  146.6405  133.5035  151.5315 C   0  0  0  0  0  0  0  0  0  0  0  0
  144.5547  136.4585  149.9113 H   0  0  0  0  0  0  0  0  0  0  0  0
  145.1841  134.8413  149.7626 H   0  0  0  0  0  0  0  0  0  0  0  0
  146.2942  136.2097  149.8264 H   0  0  0  0  0  0  0  0  0  0  0  0
  144.5043  135.2359  152.1153 H   0  0  0  0  0  0  0  0  0  0  0  0
  146.0123  137.0510  153.4099 H   0  0  0  0  0  0  0  0  0  0  0  0
  146.2219  137.7269  151.8174 H   0  0  0  0  0  0  0  0  0  0  0  0
  144.2628  138.7737  152.2953 H   0  0  0  0  0  0  0  0  0  0  0  0
  142.3410  139.0444  152.6606 H   0  0  0  0  0  0  0  0  0  0  0  0
  137.5829  136.7840  154.0838 H   0  0  0  0  0  0  0  0  0  0  0  0
  147.3080  135.2312  154.1389 H   0  0  0  0  0  0  0  0  0  0  0  0
  145.6349  134.6782  154.1417 H   0  0  0  0  0  0  0  0  0  0  0  0
  147.8572  132.9759  154.5791 H   0  0  0  0  0  0  0  0  0  0  0  0
  146.2185  132.4747  154.1744 H   0  0  0  0  0  0  0  0  0  0  0  0
  148.5514  132.8701  152.2994 H   0  0  0  0  0  0  0  0  0  0  0  0
  147.3565  131.5712  152.2815 H   0  0  0  0  0  0  0  0  0  0  0  0
  145.6439  133.0678  151.4404 H   0  0  0  0  0  0  0  0  0  0  0  0
  147.0715  133.5857  150.5331 H   0  0  0  0  0  0  0  0  0  0  0  0
  147.4128  135.2959  151.9850 H   0  0  0  0  0  0  0  0  0  0  0  0
  1  2  1  0  0  0  0
  1 18  1  0  0  0  0
  1 19  1  0  0  0  0
  1 20  1  0  0  0  0
  2  3  1  0  0  0  0
  2 13  1  0  0  0  0
  2 21  1  0  0  0  0
  3  4  1  0  0  0  0
  3 22  1  0  0  0  0
  3 23  1  0  0  0  0
  4  5  1  0  0  0  0
  4 24  1  0  0  0  0
  5  6  2  0  0  0  0
  5  7  1  0  0  0  0
  7  8  1  0  0  0  0
  7 25  1  0  0  0  0
  8 12  1  0  0  0  0
  8  9  2  0  0  0  0
  9 10  1  0  0  0  0
 10 11  2  0  0  0  0
 11 12  1  0  0  0  0
 11 26  1  0  0  0  0
 13 17  1  0  0  0  0
 13 14  1  0  0  0  0
 13 35  1  0  0  0  0
 14 15  1  0  0  0  0
 14 27  1  0  0  0  0
 14 28  1  0  0  0  0
 15 16  1  0  0  0  0
 15 29  1  0  0  0  0
 15 30  1  0  0  0  0
 16 17  1  0  0  0  0
 16 31  1  0  0  0  0
 16 32  1  0  0  0  0
 17 33  1  0  0  0  0
 17 34  1  0  0  0  0
M  CHG  1  13   1
M  END
> <s_m_source_file>
AV-unprocessed.smi

> <i_m_source_file_index>
1522

> <i_lp_mmshare_version>
43012

> <i_f3d_flags>
0

> <s_epik_input>
W0NIMl0xW0NIMl1bQ0gyXVtDSDJdTjFbQ0BIXShbQ0gzXSlbQ0gyXVtOSF1DKD1PKVtOSF1jMm5uW2NIXXMy

> <s_epik_cmdline>
J2VwaWtfcHl0aG9uJywgJy1waCcsICc3LjAnLCAnLXRuJywgJzgnLCAnLW1hJywgJzIwMCcsICctbWV0YWxfYmluZGluZycsICctaW1hZScsICc8aW5maWxlLm1hZT4nLCAnLW9tYWUnLCAnPG91dGZpbGUubWFlPic=

> <r_lp_tautomer_probability>
1

> <r_epik_Ionization_Penalty>
0.00457064

> <r_epik_Ionization_Penalty_Charging>
0.000848324

> <r_epik_Ionization_Penalty_Neutral>
0.00372231

> <r_epik_State_Penalty>
-0

> <r_epik_Charging_Adjusted_Penalty>
0.000848324

> <i_epik_Tot_Q>
1

> <i_epik_Tot_abs_Q>
1

> <r_epik_Metal_State_Penalty>
0.370178

> <b_epik_Metal_Only>
0

> <s_lp_Force_Field>
OPLS_2005

> <r_lp_Energy>
27.0536

> <b_lp_Chiralities_Consistent>
1

> <s_lp_Variant>
AV-unprocessed.smi:1522-1

> <Gold.Version>
5.8.1

> <Gold.Id.Protein>
6NUR|6NUR_protein|mol2

> <Gold.PLP.Fitness>
39.6932

> <Gold.PLP.PLP>
-28.5032

> <Gold.PLP.part.hbond>
-4.0000

> <Gold.PLP.part.metal>
0.0000

> <Gold.PLP.part.buried>
-4.0300

> <Gold.PLP.part.nonpolar>
-21.6417

> <Gold.PLP.part.repulsive>
1.1651

> <Gold.PLP.ligand.clash>
0.0000

> <Gold.PLP.ligand.torsion>
0.4246

> <Gold.PLP.Chemscore.Hbond>
4.0000

> <Gold.PLP.Chemscore.CHOScore>
0.0000

> <Gold.PLP.Chemscore.Metal>
0.0000

> <Gold.Chemscore.Hbonds>
donor molecule, donor type, donor heavy atom, donor atom, acceptor molecule, acceptor atom, score
      L1  H     4    24       P1 10175  1.00
      L1  H     7    25       P1 10175  1.00
      L1  H    13    35       P1  7948  2.00

> <Gold.PLP.Chemscore.Internal.Correction>
0.0391

> <Gold.Rescore>
     Score         DG    S(hbond)    S(metal)    S(lipo)     H(rot)  DE(clash)    DE(int)     intcor
     14.65     -17.08       2.95        0.00      52.03       1.70       0.04       2.40       ----

> <Gold.Chemscore.Fitness>
14.6458

> <Gold.Chemscore.DG>
-17.0773

> <Gold.Chemscore.ZeroCoef>
-5.4800

> <Gold.Chemscore.Hbond>
2.9547

> <Gold.Chemscore.Metal>
0.0000

> <Gold.Chemscore.Lipo>
52.0336

> <Gold.Chemscore.Internal_Hbond>
0.0000

> <Gold.Chemscore.DEClash>
0.0363

> <Gold.Chemscore.DEInternal>
2.3952

> <Gold.Chemscore.Rot>
1.7028

> <Gold.Chemscore.Internal.Correction>
   9.000000E+99

> <Gold.Chemscore.Hbonds>
donor molecule, donor type, donor heavy atom, donor atom, acceptor molecule, acceptor atom, score
      L1  H     4    24       P1 10175  0.97
      L1  H     7    25       P1 10175  0.92
      L1  H    13    35       P1  7948  0.99

> <Gold.Chemscore.Hbond.Weighted>
-9.8685

> <Gold.Chemscore.Metal.Weighted>
-0.0000

> <Gold.Chemscore.Lipo.Weighted>
-6.0879

> <Gold.Chemscore.Internal_Hbond.Weighted>
0.0000

> <Gold.Chemscore.DEClash.Weighted>
0.0363

> <Gold.Chemscore.DEInternal.Weighted>
2.3952

> <Gold.Chemscore.Rot.Weighted>
4.3592

> <Gold.Chemscore.Internal.Correction.Weighted>
   9.000000E+99

> <Gold.Protein.RotatedTorsions>
[ 6907 6896 6895 6894 ] final   17.58 input  -60.11 | X-H torsion
[ 7974 7965 7964 7962 ] final   99.53 input  175.53 | X-H torsion
[ 8008 7997 7996 7995 ] final -125.36 input   59.86 | X-H torsion
[ 10167 10162 10161 10158 ] final -117.68 input  -65.29 | X-H torsion
[ 10718 10713 10712 10709 ] final    8.89 input   66.30 | X-H torsion
[ 10763 10752 10751 10750 ] final  -74.90 input  -60.55 | X-H torsion
[ 11005 11000 10999 10996 ] final   10.81 input  -57.11 | X-H torsion

> <Gold.Protein.ActiveResidues>
 VAL166  LYS551  ARG553  GLY616  TRP617  ASP618  TYR619  PRO620  LYS621  CYS622 
 ASP623  PHE694  ASN695  SER759  ASP760  ASP761  ALA762  ILE779  LEU786  VAL792 
 PHE793  MET794  SER795  GLU796  ALA797  LYS798  CYS799  TRP800  GLU811  SER814 

> <Gold.Protein.RotatedAtoms>
  151.8519  135.0554  160.0459 H   0  0  0  0  0  0  0  0  0  0  0  0  # atno 6907 bound_to 6896
  152.2730  133.5395  159.5459 H   0  0  0  0  0  0  0  0  0  0  0  0  # atno 6908 bound_to 6896
  150.7159  134.0588  159.3866 H   0  0  0  0  0  0  0  0  0  0  0  0  # atno 6909 bound_to 6896
  145.3976  139.2353  143.3318 H   0  0  0  0  0  0  0  0  0  0  0  0  # atno 7974 bound_to 7965
  155.2119  140.0419  157.2935 H   0  0  0  0  0  0  0  0  0  0  0  0  # atno 8008 bound_to 7997
  154.6006  140.2451  155.7769 H   0  0  0  0  0  0  0  0  0  0  0  0  # atno 8009 bound_to 7997
  156.2318  140.2935  156.0218 H   0  0  0  0  0  0  0  0  0  0  0  0  # atno 8010 bound_to 7997
  140.0657  143.4925  152.2007 H   0  0  0  0  0  0  0  0  0  0  0  0  # atno 10167 bound_to 10162
  156.9582  130.5923  149.5660 H   0  0  0  0  0  0  0  0  0  0  0  0  # atno 10718 bound_to 10713
  154.4793  135.5849  153.6378 H   0  0  0  0  0  0  0  0  0  0  0  0  # atno 10763 bound_to 10752
  152.9845  135.6086  154.3267 H   0  0  0  0  0  0  0  0  0  0  0  0  # atno 10764 bound_to 10752
  154.3156  135.2844  155.2524 H   0  0  0  0  0  0  0  0  0  0  0  0  # atno 10765 bound_to 10752
  140.5103  134.0659  155.7816 H   0  0  0  0  0  0  0  0  0  0  0  0  # atno 11005 bound_to 11000
  146.2767  140.4668  142.8792 LP  0  0  0  0  0  0  0  0  0  0  0  0  # atno 17320 bound_to 7965
  144.8396  140.6837  143.6238 LP  0  0  0  0  0  0  0  0  0  0  0  0  # atno 17321 bound_to 7965
  139.5866  144.7533  151.3504 LP  0  0  0  0  0  0  0  0  0  0  0  0  # atno 17342 bound_to 10162
  140.7150  143.7290  150.7638 LP  0  0  0  0  0  0  0  0  0  0  0  0  # atno 17343 bound_to 10162
  156.0333  130.5423  150.8591 LP  0  0  0  0  0  0  0  0  0  0  0  0  # atno 17370 bound_to 10713
  157.5676  131.0946  150.9467 LP  0  0  0  0  0  0  0  0  0  0  0  0  # atno 17371 bound_to 10713
  141.1389  133.9173  157.2371 LP  0  0  0  0  0  0  0  0  0  0  0  0  # atno 17394 bound_to 11000
  139.9663  135.0141  156.9395 LP  0  0  0  0  0  0  0  0  0  0  0  0  # atno 17395 bound_to 11000

$$$$
