AV-unprocessed.smi:326|AV-procd|sdf|2345|dock4
  -GOLD-   2262022253D 1   1.00000     0.00000
 Structure written by MMmdl.
 44 45  0  0  0  0  0  0  0  0  1 V2000
  145.4229  133.2377  161.8791 C   0  0  0  0  0  0  0  0  0  0  0  0
  146.6509  133.7326  161.3756 O   0  0  0  0  0  0  0  0  0  0  0  0
  147.3942  134.4414  162.3543 C   0  0  0  0  0  0  0  0  0  0  0  0
  147.0805  135.9422  162.2460 C   0  0  0  0  0  0  0  0  0  0  0  0
  147.2117  136.4284  160.8681 N   0  0  0  0  0  0  0  0  0  0  0  0
  148.5218  136.6079  160.4585 N   0  0  0  0  0  0  0  0  0  0  0  0
  148.7777  137.0376  159.2651 C   0  0  0  0  0  0  0  0  0  0  0  0
  150.1731  137.2421  158.7888 C   0  0  0  0  0  0  0  0  0  0  0  0
  151.1202  136.6038  159.2512 O   0  0  0  0  0  0  0  0  0  0  0  0
  150.3176  138.1754  157.8314 N   0  0  0  0  0  0  0  0  0  0  0  0
  151.5802  138.6021  157.2329 C   0  0  2  0  0  0  0  0  0  0  0  0
  152.5638  139.0920  158.3154 C   0  0  0  0  0  0  0  0  0  0  0  0
  152.1090  140.4160  158.9560 C   0  0  0  0  0  0  0  0  0  0  0  0
  151.8764  141.5105  157.8965 C   0  0  2  0  0  0  0  0  0  0  0  0
  151.4173  142.8270  158.5388 C   0  0  0  0  0  0  0  0  0  0  0  0
  150.8744  141.0264  156.8311 C   0  0  0  0  0  0  0  0  0  0  0  0
  151.3259  139.7035  156.1864 C   0  0  0  0  0  0  0  0  0  0  0  0
  147.7018  137.3355  158.3350 C   0  0  0  0  0  0  0  0  0  0  0  0
  146.4282  137.1621  158.7513 C   0  0  0  0  0  0  0  0  0  0  0  0
  146.1114  136.6850  160.0985 C   0  0  0  0  0  0  0  0  0  0  0  0
  144.9600  136.5305  160.5046 O   0  0  0  0  0  0  0  0  0  0  0  0
  144.8929  132.7034  161.0905 H   0  0  0  0  0  0  0  0  0  0  0  0
  144.7827  134.0501  162.2251 H   0  0  0  0  0  0  0  0  0  0  0  0
  145.5859  132.5437  162.7050 H   0  0  0  0  0  0  0  0  0  0  0  0
  147.1199  134.0837  163.3476 H   0  0  0  0  0  0  0  0  0  0  0  0
  148.4631  134.2609  162.2291 H   0  0  0  0  0  0  0  0  0  0  0  0
  146.0737  136.1338  162.6219 H   0  0  0  0  0  0  0  0  0  0  0  0
  147.7444  136.5046  162.9045 H   0  0  0  0  0  0  0  0  0  0  0  0
  149.4841  138.6456  157.5085 H   0  0  0  0  0  0  0  0  0  0  0  0
  152.0252  137.7496  156.7167 H   0  0  0  0  0  0  0  0  0  0  0  0
  152.6927  138.3298  159.0848 H   0  0  0  0  0  0  0  0  0  0  0  0
  153.5471  139.2345  157.8654 H   0  0  0  0  0  0  0  0  0  0  0  0
  151.1929  140.2518  159.5253 H   0  0  0  0  0  0  0  0  0  0  0  0
  152.8594  140.7474  159.6747 H   0  0  0  0  0  0  0  0  0  0  0  0
  152.8283  141.7029  157.3991 H   0  0  0  0  0  0  0  0  0  0  0  0
  150.4648  142.7054  159.0553 H   0  0  0  0  0  0  0  0  0  0  0  0
  151.2914  143.6069  157.7873 H   0  0  0  0  0  0  0  0  0  0  0  0
  152.1472  143.1853  159.2654 H   0  0  0  0  0  0  0  0  0  0  0  0
  149.8891  140.8983  157.2816 H   0  0  0  0  0  0  0  0  0  0  0  0
  150.7592  141.7858  156.0571 H   0  0  0  0  0  0  0  0  0  0  0  0
  152.2433  139.8787  155.6230 H   0  0  0  0  0  0  0  0  0  0  0  0
  150.5841  139.3696  155.4597 H   0  0  0  0  0  0  0  0  0  0  0  0
  147.9071  137.6897  157.3351 H   0  0  0  0  0  0  0  0  0  0  0  0
  145.6183  137.3818  158.0712 H   0  0  0  0  0  0  0  0  0  0  0  0
  1  2  1  0  0  0  0
  1 22  1  0  0  0  0
  1 23  1  0  0  0  0
  1 24  1  0  0  0  0
  2  3  1  0  0  0  0
  3  4  1  0  0  0  0
  3 25  1  0  0  0  0
  3 26  1  0  0  0  0
  4  5  1  0  0  0  0
  4 27  1  0  0  0  0
  4 28  1  0  0  0  0
  5 20  1  0  0  0  0
  5  6  1  0  0  0  0
  6  7  2  0  0  0  0
  7  8  1  0  0  0  0
  7 18  1  0  0  0  0
  8  9  2  0  0  0  0
  8 10  1  0  0  0  0
 10 11  1  0  0  0  0
 10 29  1  0  0  0  0
 11 17  1  0  0  0  0
 11 12  1  0  0  0  0
 11 30  1  0  0  0  0
 12 13  1  0  0  0  0
 12 31  1  0  0  0  0
 12 32  1  0  0  0  0
 13 14  1  0  0  0  0
 13 33  1  0  0  0  0
 13 34  1  0  0  0  0
 14 15  1  0  0  0  0
 14 16  1  0  0  0  0
 14 35  1  0  0  0  0
 15 36  1  0  0  0  0
 15 37  1  0  0  0  0
 15 38  1  0  0  0  0
 16 17  1  0  0  0  0
 16 39  1  0  0  0  0
 16 40  1  0  0  0  0
 17 41  1  0  0  0  0
 17 42  1  0  0  0  0
 18 19  2  0  0  0  0
 18 43  1  0  0  0  0
 19 20  1  0  0  0  0
 19 44  1  0  0  0  0
 20 21  2  0  0  0  0
M  END
> <s_m_source_file>
AV-unprocessed.smi

> <i_m_source_file_index>
326

> <i_lp_mmshare_version>
43012

> <i_f3d_flags>
0

> <s_epik_input>
W0NIM11PW0NIMl1bQ0gyXW4xbmMoW2NIXVtjSF1jMT1PKUMoPU8pW05IXVtDQEBIXTJbQ0gyXVtDSDJdW0NAQEhdKFtDSDNdKVtDSDJdW0NIMl0y

> <s_epik_cmdline>
J2VwaWtfcHl0aG9uJywgJy1waCcsICc3LjAnLCAnLXRuJywgJzgnLCAnLW1hJywgJzIwMCcsICctbWV0YWxfYmluZGluZycsICctaW1hZScsICc8aW5maWxlLm1hZT4nLCAnLW9tYWUnLCAnPG91dGZpbGUubWFlPic=

> <r_lp_tautomer_probability>
1

> <r_epik_Ionization_Penalty>
6.47102e-07

> <r_epik_Ionization_Penalty_Charging>
6.8576e-09

> <r_epik_Ionization_Penalty_Neutral>
6.40245e-07

> <r_epik_State_Penalty>
-0

> <r_epik_Charging_Adjusted_Penalty>
6.8576e-09

> <i_epik_Tot_Q>
0

> <i_epik_Tot_abs_Q>
0

> <r_epik_Metal_State_Penalty>
-0

> <b_epik_Metal_Only>
0

> <s_lp_Force_Field>
OPLS_2005

> <r_lp_Energy>
28.5252

> <b_lp_Chiralities_Consistent>
1

> <s_lp_Variant>
AV-unprocessed.smi:326-2

> <Gold.Version>
5.8.1

> <Gold.Id.Protein>
6NUR|6NUR_protein|mol2

> <Gold.PLP.Fitness>
37.9768

> <Gold.PLP.PLP>
-33.8274

> <Gold.PLP.part.hbond>
-2.4198

> <Gold.PLP.part.metal>
0.0000

> <Gold.PLP.part.buried>
-5.9366

> <Gold.PLP.part.nonpolar>
-26.2429

> <Gold.PLP.part.repulsive>
0.0640

> <Gold.PLP.ligand.clash>
0.0000

> <Gold.PLP.ligand.torsion>
0.7798

> <Gold.PLP.Chemscore.Hbond>
1.8800

> <Gold.PLP.Chemscore.CHOScore>
0.0000

> <Gold.PLP.Chemscore.Metal>
0.0000

> <Gold.Chemscore.Hbonds>
donor molecule, donor type, donor heavy atom, donor atom, acceptor molecule, acceptor atom, score
      P1  H  6896  6908       L1     9  1.00
      P1  H  6931  6943       L1     6  0.39

> <Gold.PLP.Chemscore.Internal.Correction>
0.0690

> <Gold.Rescore>
     Score         DG    S(hbond)    S(metal)    S(lipo)     H(rot)  DE(clash)    DE(int)     intcor
     13.32     -15.79       1.64        0.00      75.22       1.55       0.00       2.47       ----

> <Gold.Chemscore.Fitness>
13.3219

> <Gold.Chemscore.DG>
-15.7935

> <Gold.Chemscore.ZeroCoef>
-5.4800

> <Gold.Chemscore.Hbond>
1.6392

> <Gold.Chemscore.Metal>
0.0000

> <Gold.Chemscore.Lipo>
75.2200

> <Gold.Chemscore.Internal_Hbond>
0.0000

> <Gold.Chemscore.DEClash>
0.0000

> <Gold.Chemscore.DEInternal>
2.4716

> <Gold.Chemscore.Rot>
1.5478

> <Gold.Chemscore.Internal.Correction>
   9.000000E+99

> <Gold.Chemscore.Hbonds>
donor molecule, donor type, donor heavy atom, donor atom, acceptor molecule, acceptor atom, score
      P1  H  6896  6908       L1     9  0.95
      P1  H  6931  6943       L1     6  0.05

> <Gold.Chemscore.Hbond.Weighted>
-5.4750

> <Gold.Chemscore.Metal.Weighted>
-0.0000

> <Gold.Chemscore.Lipo.Weighted>
-8.8007

> <Gold.Chemscore.Internal_Hbond.Weighted>
0.0000

> <Gold.Chemscore.DEClash.Weighted>
0.0000

> <Gold.Chemscore.DEInternal.Weighted>
2.4716

> <Gold.Chemscore.Rot.Weighted>
3.9623

> <Gold.Chemscore.Internal.Correction.Weighted>
   9.000000E+99

> <Gold.Protein.RotatedTorsions>
[ 6907 6896 6895 6894 ] final -150.42 input  -60.11 | X-H torsion
[ 7974 7965 7964 7962 ] final -168.77 input  175.53 | X-H torsion
[ 8008 7997 7996 7995 ] final -151.24 input   59.86 | X-H torsion
[ 10167 10162 10161 10158 ] final  -29.43 input  -65.29 | X-H torsion
[ 10718 10713 10712 10709 ] final   74.14 input   66.30 | X-H torsion
[ 10763 10752 10751 10750 ] final  -71.36 input  -60.55 | X-H torsion
[ 11005 11000 10999 10996 ] final   15.51 input  -57.11 | X-H torsion

> <Gold.Protein.ActiveResidues>
 VAL166  LYS551  ARG553  GLY616  TRP617  ASP618  TYR619  PRO620  LYS621  CYS622 
 ASP623  PHE694  ASN695  SER759  ASP760  ASP761  ALA762  ILE779  LEU786  VAL792 
 PHE793  MET794  SER795  GLU796  ALA797  LYS798  CYS799  TRP800  GLU811  SER814 

> <Gold.Protein.RotatedAtoms>
  151.1983  133.4626  159.2595 H   0  0  0  0  0  0  0  0  0  0  0  0  # atno 6907 bound_to 6896
  151.1095  135.0018  159.8497 H   0  0  0  0  0  0  0  0  0  0  0  0  # atno 6908 bound_to 6896
  152.5449  134.1904  159.8724 H   0  0  0  0  0  0  0  0  0  0  0  0  # atno 6909 bound_to 6896
  144.7197  140.2320  143.6303 H   0  0  0  0  0  0  0  0  0  0  0  0  # atno 7974 bound_to 7965
  155.6362  140.0697  157.2633 H   0  0  0  0  0  0  0  0  0  0  0  0  # atno 8008 bound_to 7997
  154.4194  140.1758  156.1573 H   0  0  0  0  0  0  0  0  0  0  0  0  # atno 8009 bound_to 7997
  155.9893  140.3346  155.6740 H   0  0  0  0  0  0  0  0  0  0  0  0  # atno 8010 bound_to 7997
  140.7260  143.3929  151.1397 H   0  0  0  0  0  0  0  0  0  0  0  0  # atno 10167 bound_to 10162
  157.6579  130.9663  150.1169 H   0  0  0  0  0  0  0  0  0  0  0  0  # atno 10718 bound_to 10713
  154.4307  135.5964  153.6067 H   0  0  0  0  0  0  0  0  0  0  0  0  # atno 10763 bound_to 10752
  152.9799  135.5974  154.3843 H   0  0  0  0  0  0  0  0  0  0  0  0  # atno 10764 bound_to 10752
  154.3680  135.2841  155.2261 H   0  0  0  0  0  0  0  0  0  0  0  0  # atno 10765 bound_to 10752
  140.4575  134.1161  155.7711 H   0  0  0  0  0  0  0  0  0  0  0  0  # atno 11005 bound_to 11000
  145.8401  139.2126  143.1832 LP  0  0  0  0  0  0  0  0  0  0  0  0  # atno 17320 bound_to 7965
  146.0354  140.8218  142.9855 LP  0  0  0  0  0  0  0  0  0  0  0  0  # atno 17321 bound_to 7965
  139.7537  143.8739  152.3083 LP  0  0  0  0  0  0  0  0  0  0  0  0  # atno 17342 bound_to 10162
  139.8602  144.7121  150.9109 LP  0  0  0  0  0  0  0  0  0  0  0  0  # atno 17343 bound_to 10162
  156.2051  130.3663  149.8740 LP  0  0  0  0  0  0  0  0  0  0  0  0  # atno 17370 bound_to 10713
  156.6633  130.8791  151.3551 LP  0  0  0  0  0  0  0  0  0  0  0  0  # atno 17371 bound_to 10713
  141.1636  133.8746  157.1778 LP  0  0  0  0  0  0  0  0  0  0  0  0  # atno 17394 bound_to 11000
  139.9966  135.0044  157.0097 LP  0  0  0  0  0  0  0  0  0  0  0  0  # atno 17395 bound_to 11000

$$$$
