AV-unprocessed.smi:243|AV-procd|sdf|1853|dock7
  -GOLD-   2262020483D 1   1.00000     0.00000
 Structure written by MMmdl.
 58 61  0  0  0  0  0  0  0  0  2 V2000
  151.4957  143.2900  157.7769 C   0  0  0  0  0  0  0  0  0  0  0  0
  150.2331  142.4209  157.8680 C   0  0  0  0  0  0  0  0  0  0  0  0
  149.7159  142.0247  156.5333 N   0  3  1  0  0  0  0  0  0  0  0  0
  150.4896  140.9191  155.9108 C   0  0  0  0  0  0  0  0  0  0  0  0
  149.9975  140.6079  154.4834 C   0  0  0  0  0  0  0  0  0  0  0  0
  148.4702  140.4218  154.3575 C   0  0  1  0  0  0  0  0  0  0  0  0
  148.0159  139.0437  154.6213 N   0  0  0  0  0  0  0  0  0  0  0  0
  148.0729  138.3983  155.9298 C   0  0  0  0  0  0  0  0  0  0  0  0
  147.2763  138.4274  153.6637 C   0  0  0  0  0  0  0  0  0  0  0  0
  147.2116  138.9991  152.4329 N   0  0  0  0  0  0  0  0  0  0  0  0
  146.4989  138.4265  151.4587 C   0  0  0  0  0  0  0  0  0  0  0  0
  145.7835  137.3015  151.4999 N   0  0  0  0  0  0  0  0  0  0  0  0
  145.8383  136.7240  152.7342 C   0  0  0  0  0  0  0  0  0  0  0  0
  146.5586  137.2118  153.8619 C   0  0  0  0  0  0  0  0  0  0  0  0
  146.3718  136.3578  154.9431 N   0  0  0  0  0  0  0  0  0  0  0  0
  145.5948  135.4178  154.4795 C   0  0  0  0  0  0  0  0  0  0  0  0
  145.2154  135.5652  153.1645 N   0  0  0  0  0  0  0  0  0  0  0  0
  144.3536  134.6747  152.4015 C   0  0  0  0  0  0  0  0  0  0  0  0
  145.0550  134.0283  151.1831 C   0  0  2  0  0  0  0  0  0  0  0  0
  145.3475  135.0371  150.2312 O   0  0  0  0  0  0  0  0  0  0  0  0
  144.2016  132.9644  150.5037 C   0  0  0  0  0  0  0  0  0  0  0  0
  145.2432  132.0242  149.9123 C   0  0  0  0  0  0  0  0  0  0  0  0
  146.2353  131.9772  150.9234 O   0  0  0  0  0  0  0  0  0  0  0  0
  146.3594  133.2703  151.5090 C   0  0  0  0  0  0  0  0  0  0  0  0
  147.7092  141.5224  155.1379 C   0  0  1  0  0  0  0  0  0  0  0  0
  146.1805  141.3495  155.1168 C   0  0  0  0  0  0  0  0  0  0  0  0
  148.2615  141.7264  156.5620 C   0  0  0  0  0  0  0  0  0  0  0  0
  151.7926  143.6376  158.7666 H   0  0  0  0  0  0  0  0  0  0  0  0
  151.3244  144.1706  157.1572 H   0  0  0  0  0  0  0  0  0  0  0  0
  152.3418  142.7438  157.3614 H   0  0  0  0  0  0  0  0  0  0  0  0
  150.4179  141.5348  158.4771 H   0  0  0  0  0  0  0  0  0  0  0  0
  149.4721  143.0007  158.3917 H   0  0  0  0  0  0  0  0  0  0  0  0
  151.5431  141.1907  155.8533 H   0  0  0  0  0  0  0  0  0  0  0  0
  150.4468  140.0390  156.5486 H   0  0  0  0  0  0  0  0  0  0  0  0
  150.2847  141.4459  153.8472 H   0  0  0  0  0  0  0  0  0  0  0  0
  150.5218  139.7407  154.0797 H   0  0  0  0  0  0  0  0  0  0  0  0
  148.2478  140.6294  153.3102 H   0  0  0  0  0  0  0  0  0  0  0  0
  147.9005  137.3245  155.8437 H   0  0  0  0  0  0  0  0  0  0  0  0
  147.3153  138.8044  156.5989 H   0  0  0  0  0  0  0  0  0  0  0  0
  149.0470  138.5150  156.3946 H   0  0  0  0  0  0  0  0  0  0  0  0
  146.5010  138.9446  150.5109 H   0  0  0  0  0  0  0  0  0  0  0  0
  145.2677  134.5890  155.0906 H   0  0  0  0  0  0  0  0  0  0  0  0
  143.9821  133.9003  153.0738 H   0  0  0  0  0  0  0  0  0  0  0  0
  143.4791  135.2408  152.0775 H   0  0  0  0  0  0  0  0  0  0  0  0
  145.5682  134.6203  149.4122 H   0  0  0  0  0  0  0  0  0  0  0  0
  143.6139  132.4203  151.2444 H   0  0  0  0  0  0  0  0  0  0  0  0
  143.5102  133.3631  149.7600 H   0  0  0  0  0  0  0  0  0  0  0  0
  144.8441  131.0338  149.6932 H   0  0  0  0  0  0  0  0  0  0  0  0
  145.6703  132.4364  148.9968 H   0  0  0  0  0  0  0  0  0  0  0  0
  147.2419  133.7776  151.1157 H   0  0  0  0  0  0  0  0  0  0  0  0
  146.5098  133.1409  152.5802 H   0  0  0  0  0  0  0  0  0  0  0  0
  147.9077  142.4550  154.6069 H   0  0  0  0  0  0  0  0  0  0  0  0
  145.8631  140.4818  155.6944 H   0  0  0  0  0  0  0  0  0  0  0  0
  145.8135  141.2242  154.0976 H   0  0  0  0  0  0  0  0  0  0  0  0
  145.6827  142.2224  155.5403 H   0  0  0  0  0  0  0  0  0  0  0  0
  148.0743  140.8580  157.1929 H   0  0  0  0  0  0  0  0  0  0  0  0
  147.7344  142.5625  157.0237 H   0  0  0  0  0  0  0  0  0  0  0  0
  149.8226  142.8320  155.9358 H   0  0  0  0  0  0  0  0  0  0  0  0
  1  2  1  0  0  0  0
  1 28  1  0  0  0  0
  1 29  1  0  0  0  0
  1 30  1  0  0  0  0
  2  3  1  0  0  0  0
  2 31  1  0  0  0  0
  2 32  1  0  0  0  0
  3 27  1  0  0  0  0
  3  4  1  0  0  0  0
  3 58  1  0  0  0  0
  4  5  1  0  0  0  0
  4 33  1  0  0  0  0
  4 34  1  0  0  0  0
  5  6  1  0  0  0  0
  5 35  1  0  0  0  0
  5 36  1  0  0  0  0
  6  7  1  0  0  0  0
  6 25  1  0  0  0  0
  6 37  1  0  0  0  0
  7  8  1  0  0  0  0
  7  9  1  0  0  0  0
  8 38  1  0  0  0  0
  8 39  1  0  0  0  0
  8 40  1  0  0  0  0
  9 14  1  0  0  0  0
  9 10  2  0  0  0  0
 10 11  1  0  0  0  0
 11 12  2  0  0  0  0
 11 41  1  0  0  0  0
 12 13  1  0  0  0  0
 13 17  1  0  0  0  0
 13 14  2  0  0  0  0
 14 15  1  0  0  0  0
 15 16  2  0  0  0  0
 16 17  1  0  0  0  0
 16 42  1  0  0  0  0
 17 18  1  0  0  0  0
 18 19  1  0  0  0  0
 18 43  1  0  0  0  0
 18 44  1  0  0  0  0
 19 24  1  0  0  0  0
 19 20  1  0  0  0  0
 19 21  1  0  0  0  0
 20 45  1  0  0  0  0
 21 22  1  0  0  0  0
 21 46  1  0  0  0  0
 21 47  1  0  0  0  0
 22 23  1  0  0  0  0
 22 48  1  0  0  0  0
 22 49  1  0  0  0  0
 23 24  1  0  0  0  0
 24 50  1  0  0  0  0
 24 51  1  0  0  0  0
 25 26  1  0  0  0  0
 25 27  1  0  0  0  0
 25 52  1  0  0  0  0
 26 53  1  0  0  0  0
 26 54  1  0  0  0  0
 26 55  1  0  0  0  0
 27 56  1  0  0  0  0
 27 57  1  0  0  0  0
M  CHG  1   3   1
M  END
> <s_m_source_file>
AV-unprocessed.smi

> <i_m_source_file_index>
243

> <i_lp_mmshare_version>
43012

> <i_f3d_flags>
0

> <s_epik_input>
W0NIM11bQ0gyXU4xW0NIMl1bQ0gyXVtDQEhdKFtDQEBIXShbQ0gzXSlbQ0gyXTEpTihbQ0gzXSljKG5bY0hdbjIpYyhjMjMpbltjSF1uM1tDSDJdW0NAQF00KFtPSF0pW0NIMl1bQ0gyXU9bQ0gyXTQ=

> <s_epik_cmdline>
J2VwaWtfcHl0aG9uJywgJy1waCcsICc3LjAnLCAnLXRuJywgJzgnLCAnLW1hJywgJzIwMCcsICctbWV0YWxfYmluZGluZycsICctaW1hZScsICc8aW5maWxlLm1hZT4nLCAnLW9tYWUnLCAnPG91dGZpbGUubWFlPic=

> <r_lp_tautomer_probability>
1

> <r_epik_Ionization_Penalty>
0.00253099

> <r_epik_Ionization_Penalty_Charging>
0.00137877

> <r_epik_Ionization_Penalty_Neutral>
0.00115221

> <r_epik_State_Penalty>
-0

> <r_epik_Charging_Adjusted_Penalty>
0.00137877

> <i_epik_Tot_Q>
1

> <i_epik_Tot_abs_Q>
1

> <r_epik_Metal_State_Penalty>
-0

> <b_epik_Metal_Only>
0

> <s_lp_Force_Field>
OPLS_2005

> <r_lp_Energy>
51.4738

> <b_lp_Chiralities_Consistent>
1

> <s_lp_Variant>
AV-unprocessed.smi:243-6

> <Gold.Version>
5.8.1

> <Gold.Id.Protein>
6NUR|6NUR_protein|mol2

> <Gold.PLP.Fitness>
43.4351

> <Gold.PLP.PLP>
-33.9670

> <Gold.PLP.part.hbond>
-2.0000

> <Gold.PLP.part.metal>
0.0000

> <Gold.PLP.part.buried>
-5.7413

> <Gold.PLP.part.nonpolar>
-31.5119

> <Gold.PLP.part.repulsive>
4.0823

> <Gold.PLP.ligand.clash>
0.0000

> <Gold.PLP.ligand.torsion>
0.4189

> <Gold.PLP.Chemscore.Hbond>
2.8560

> <Gold.PLP.Chemscore.CHOScore>
0.4722

> <Gold.PLP.Chemscore.Metal>
0.0000

> <Gold.Chemscore.Hbonds>
donor molecule, donor type, donor heavy atom, donor atom, acceptor molecule, acceptor atom, score
      L1  H     3    58       P1  8028  1.17
      L1  H    20    45       P1  7921  0.96
      L1  C    11    41       P1 10171  0.22

> <Gold.PLP.Chemscore.Internal.Correction>
0.3212

> <Gold.Rescore>
     Score         DG    S(hbond)    S(metal)    S(lipo)     H(rot)  DE(clash)    DE(int)     intcor
     11.66     -15.36       1.90        0.00      79.13       2.24       1.96       1.75       ----

> <Gold.Chemscore.Fitness>
11.6560

> <Gold.Chemscore.DG>
-15.3630

> <Gold.Chemscore.ZeroCoef>
-5.4800

> <Gold.Chemscore.Hbond>
1.9024

> <Gold.Chemscore.Metal>
0.0000

> <Gold.Chemscore.Lipo>
79.1294

> <Gold.Chemscore.Internal_Hbond>
0.0000

> <Gold.Chemscore.DEClash>
1.9571

> <Gold.Chemscore.DEInternal>
1.7498

> <Gold.Chemscore.Rot>
2.2379

> <Gold.Chemscore.Internal.Correction>
   9.000000E+99

> <Gold.Chemscore.Hbonds>
donor molecule, donor type, donor heavy atom, donor atom, acceptor molecule, acceptor atom, score
      L1  H     3    58       P1  8028  0.57
      L1  H    20    45       P1  7921  0.88

> <Gold.Chemscore.Hbond.Weighted>
-6.3539

> <Gold.Chemscore.Metal.Weighted>
-0.0000

> <Gold.Chemscore.Lipo.Weighted>
-9.2581

> <Gold.Chemscore.Internal_Hbond.Weighted>
0.0000

> <Gold.Chemscore.DEClash.Weighted>
1.9571

> <Gold.Chemscore.DEInternal.Weighted>
1.7498

> <Gold.Chemscore.Rot.Weighted>
5.7291

> <Gold.Chemscore.Internal.Correction.Weighted>
   9.000000E+99

> <Gold.Protein.RotatedTorsions>
[ 6907 6896 6895 6894 ] final   44.88 input  -60.11 | X-H torsion
[ 7974 7965 7964 7962 ] final   84.57 input  175.53 | X-H torsion
[ 8008 7997 7996 7995 ] final  -19.03 input   59.86 | X-H torsion
[ 10167 10162 10161 10158 ] final -111.14 input  -65.29 | X-H torsion
[ 10718 10713 10712 10709 ] final  -46.09 input   66.30 | X-H torsion
[ 10763 10752 10751 10750 ] final  125.17 input  -60.55 | X-H torsion
[ 11005 11000 10999 10996 ] final -160.66 input  -57.11 | X-H torsion

> <Gold.Protein.ActiveResidues>
 VAL166  LYS551  ARG553  GLY616  TRP617  ASP618  TYR619  PRO620  LYS621  CYS622 
 ASP623  PHE694  ASN695  SER759  ASP760  ASP761  ALA762  ILE779  LEU786  VAL792 
 PHE793  MET794  SER795  GLU796  ALA797  LYS798  CYS799  TRP800  GLU811  SER814 

> <Gold.Protein.RotatedAtoms>
  152.2378  134.8258  160.0464 H   0  0  0  0  0  0  0  0  0  0  0  0  # atno 6907 bound_to 6896
  151.8984  133.3527  159.3830 H   0  0  0  0  0  0  0  0  0  0  0  0  # atno 6908 bound_to 6896
  150.7044  134.4779  159.5500 H   0  0  0  0  0  0  0  0  0  0  0  0  # atno 6909 bound_to 6896
  145.5969  139.2346  143.2267 H   0  0  0  0  0  0  0  0  0  0  0  0  # atno 7974 bound_to 7965
  154.4865  140.2100  155.9645 H   0  0  0  0  0  0  0  0  0  0  0  0  # atno 8008 bound_to 7997
  156.1243  140.3208  155.8223 H   0  0  0  0  0  0  0  0  0  0  0  0  # atno 8009 bound_to 7997
  155.4412  140.0510  157.3001 H   0  0  0  0  0  0  0  0  0  0  0  0  # atno 8010 bound_to 7997
  140.1368  143.4313  152.1589 H   0  0  0  0  0  0  0  0  0  0  0  0  # atno 10167 bound_to 10162
  156.2218  130.4166  149.8983 H   0  0  0  0  0  0  0  0  0  0  0  0  # atno 10718 bound_to 10713
  153.6730  135.3327  155.3158 H   0  0  0  0  0  0  0  0  0  0  0  0  # atno 10763 bound_to 10752
  154.8486  135.4391  154.1686 H   0  0  0  0  0  0  0  0  0  0  0  0  # atno 10764 bound_to 10752
  153.2682  135.6998  153.7584 H   0  0  0  0  0  0  0  0  0  0  0  0  # atno 10765 bound_to 10752
  140.6290  134.4671  157.5228 H   0  0  0  0  0  0  0  0  0  0  0  0  # atno 11005 bound_to 11000
  146.1605  140.6795  142.9280 LP  0  0  0  0  0  0  0  0  0  0  0  0  # atno 17320 bound_to 7965
  144.7326  140.4717  143.6926 LP  0  0  0  0  0  0  0  0  0  0  0  0  # atno 17321 bound_to 7965
  139.5492  144.7323  151.4489 LP  0  0  0  0  0  0  0  0  0  0  0  0  # atno 17342 bound_to 10162
  140.6784  143.8137  150.7089 LP  0  0  0  0  0  0  0  0  0  0  0  0  # atno 17343 bound_to 10162
  156.6627  130.8788  151.3550 LP  0  0  0  0  0  0  0  0  0  0  0  0  # atno 17370 bound_to 10713
  157.7091  130.9419  150.1029 LP  0  0  0  0  0  0  0  0  0  0  0  0  # atno 17371 bound_to 10713
  139.9123  134.8318  156.1484 LP  0  0  0  0  0  0  0  0  0  0  0  0  # atno 17394 bound_to 11000
  141.0689  133.6806  156.2100 LP  0  0  0  0  0  0  0  0  0  0  0  0  # atno 17395 bound_to 11000

$$$$
