AV-unprocessed.smi:1857|AV-procd|sdf|7541|dock7
  -GOLD-   22720 9253D 1   1.00000     0.00000
 Structure written by MMmdl.
 45 46  0  0  0  0  0  0  0  0  1 V2000
  149.1416  136.6960  159.5525 C   0  0  0  0  0  0  0  0  0  0  0  0
  149.9331  137.5275  158.5146 C   0  0  0  0  0  0  0  0  0  0  0  0
  151.2274  138.0089  159.1995 C   0  0  0  0  0  0  0  0  0  0  0  0
  150.2569  136.5575  157.3576 C   0  0  0  0  0  0  0  0  0  0  0  0
  149.1085  138.7190  158.0519 C   0  0  0  0  0  0  0  0  0  0  0  0
  147.9038  139.0174  158.5357 N   0  0  0  0  0  0  0  0  0  0  0  0
  147.5504  140.1884  157.9049 N   0  0  0  0  0  0  0  0  0  0  0  0
  148.4931  140.5933  157.1118 N   0  0  0  0  0  0  0  0  0  0  0  0
  149.4996  139.6854  157.1918 N   0  0  0  0  0  0  0  0  0  0  0  0
  150.7113  139.9250  156.4182 C   0  0  0  0  0  0  0  0  0  0  0  0
  151.8385  140.4950  157.2866 C   0  0  0  0  0  0  0  0  0  0  0  0
  152.8525  139.8317  157.5056 O   0  0  0  0  0  0  0  0  0  0  0  0
  151.6473  141.7314  157.7732 N   0  0  0  0  0  0  0  0  0  0  0  0
  152.5913  142.4733  158.6072 C   0  0  0  0  0  0  0  0  0  0  0  0
  152.4279  142.0460  160.0830 C   0  0  0  0  0  0  0  0  0  0  0  0
  153.0787  142.9806  161.1158 C   0  0  0  0  0  0  0  0  0  0  0  0
  152.1419  144.1192  161.5574 C   0  0  0  0  0  0  0  0  0  0  0  0
  151.9215  145.2198  160.5080 C   0  0  0  0  0  0  0  0  0  0  0  0
  151.3871  144.7246  159.1523 C   0  0  0  0  0  0  0  0  0  0  0  0
  152.4549  143.9854  158.3277 C   0  0  0  0  0  0  0  0  0  0  0  0
  149.7121  135.8300  159.8905 H   0  0  0  0  0  0  0  0  0  0  0  0
  148.2044  136.3239  159.1364 H   0  0  0  0  0  0  0  0  0  0  0  0
  148.8993  137.2814  160.4406 H   0  0  0  0  0  0  0  0  0  0  0  0
  151.0051  138.6487  160.0543 H   0  0  0  0  0  0  0  0  0  0  0  0
  151.8649  138.5793  158.5261 H   0  0  0  0  0  0  0  0  0  0  0  0
  151.8179  137.1683  159.5654 H   0  0  0  0  0  0  0  0  0  0  0  0
  150.7483  135.6562  157.7262 H   0  0  0  0  0  0  0  0  0  0  0  0
  150.9281  136.9818  156.6164 H   0  0  0  0  0  0  0  0  0  0  0  0
  149.3490  136.2435  156.8412 H   0  0  0  0  0  0  0  0  0  0  0  0
  151.0239  138.9784  155.9738 H   0  0  0  0  0  0  0  0  0  0  0  0
  150.5099  140.5914  155.5841 H   0  0  0  0  0  0  0  0  0  0  0  0
  150.7843  142.2011  157.5409 H   0  0  0  0  0  0  0  0  0  0  0  0
  153.6007  142.2031  158.2911 H   0  0  0  0  0  0  0  0  0  0  0  0
  151.3714  141.9231  160.3264 H   0  0  0  0  0  0  0  0  0  0  0  0
  152.8626  141.0516  160.1940 H   0  0  0  0  0  0  0  0  0  0  0  0
  153.3181  142.3893  162.0004 H   0  0  0  0  0  0  0  0  0  0  0  0
  154.0302  143.3695  160.7512 H   0  0  0  0  0  0  0  0  0  0  0  0
  151.1793  143.7056  161.8602 H   0  0  0  0  0  0  0  0  0  0  0  0
  152.5554  144.5826  162.4537 H   0  0  0  0  0  0  0  0  0  0  0  0
  151.2142  145.9419  160.9175 H   0  0  0  0  0  0  0  0  0  0  0  0
  152.8493  145.7730  160.3576 H   0  0  0  0  0  0  0  0  0  0  0  0
  150.4921  144.1142  159.2786 H   0  0  0  0  0  0  0  0  0  0  0  0
  151.0719  145.6001  158.5839 H   0  0  0  0  0  0  0  0  0  0  0  0
  153.4203  144.4674  158.4864 H   0  0  0  0  0  0  0  0  0  0  0  0
  152.2474  144.1302  157.2664 H   0  0  0  0  0  0  0  0  0  0  0  0
  1  2  1  0  0  0  0
  1 21  1  0  0  0  0
  1 22  1  0  0  0  0
  1 23  1  0  0  0  0
  2  3  1  0  0  0  0
  2  4  1  0  0  0  0
  2  5  1  0  0  0  0
  3 24  1  0  0  0  0
  3 25  1  0  0  0  0
  3 26  1  0  0  0  0
  4 27  1  0  0  0  0
  4 28  1  0  0  0  0
  4 29  1  0  0  0  0
  5  9  1  0  0  0  0
  5  6  2  0  0  0  0
  6  7  1  0  0  0  0
  7  8  2  0  0  0  0
  8  9  1  0  0  0  0
  9 10  1  0  0  0  0
 10 11  1  0  0  0  0
 10 30  1  0  0  0  0
 10 31  1  0  0  0  0
 11 12  2  0  0  0  0
 11 13  1  0  0  0  0
 13 14  1  0  0  0  0
 13 32  1  0  0  0  0
 14 20  1  0  0  0  0
 14 15  1  0  0  0  0
 14 33  1  0  0  0  0
 15 16  1  0  0  0  0
 15 34  1  0  0  0  0
 15 35  1  0  0  0  0
 16 17  1  0  0  0  0
 16 36  1  0  0  0  0
 16 37  1  0  0  0  0
 17 18  1  0  0  0  0
 17 38  1  0  0  0  0
 17 39  1  0  0  0  0
 18 19  1  0  0  0  0
 18 40  1  0  0  0  0
 18 41  1  0  0  0  0
 19 20  1  0  0  0  0
 19 42  1  0  0  0  0
 19 43  1  0  0  0  0
 20 44  1  0  0  0  0
 20 45  1  0  0  0  0
M  END
> <s_m_source_file>
AV-unprocessed.smi

> <i_m_source_file_index>
1857

> <i_lp_mmshare_version>
43012

> <i_f3d_flags>
0

> <s_epik_input>
W0NIM11DKFtDSDNdKShbQ0gzXSljMW5ubm4xW0NIMl1DKD1PKVtOSF1bQ0hdMltDSDJdW0NIMl1bQ0gyXVtDSDJdW0NIMl1bQ0gyXTI=

> <s_epik_cmdline>
J2VwaWtfcHl0aG9uJywgJy1waCcsICc3LjAnLCAnLXRuJywgJzgnLCAnLW1hJywgJzIwMCcsICctbWV0YWxfYmluZGluZycsICctaW1hZScsICc8aW5maWxlLm1hZT4nLCAnLW9tYWUnLCAnPG91dGZpbGUubWFlPic=

> <r_lp_tautomer_probability>
1

> <r_epik_Ionization_Penalty>
4.53904e-07

> <r_epik_Ionization_Penalty_Charging>
0

> <r_epik_Ionization_Penalty_Neutral>
4.53904e-07

> <r_epik_State_Penalty>
-0

> <r_epik_Charging_Adjusted_Penalty>
0

> <i_epik_Tot_Q>
0

> <i_epik_Tot_abs_Q>
0

> <r_epik_Metal_State_Penalty>
-0

> <b_epik_Metal_Only>
0

> <s_lp_Force_Field>
OPLS_2005

> <r_lp_Energy>
25.0233

> <b_lp_Chiralities_Consistent>
1

> <s_lp_Variant>
AV-unprocessed.smi:1857-1

> <Gold.Version>
5.8.1

> <Gold.Id.Protein>
6NUR|6NUR_protein|mol2

> <Gold.PLP.Fitness>
40.8275

> <Gold.PLP.PLP>
-39.0912

> <Gold.PLP.part.hbond>
-2.8283

> <Gold.PLP.part.metal>
0.0000

> <Gold.PLP.part.buried>
-4.9941

> <Gold.PLP.part.nonpolar>
-30.2324

> <Gold.PLP.part.repulsive>
0.0927

> <Gold.PLP.ligand.clash>
0.0000

> <Gold.PLP.ligand.torsion>
0.6849

> <Gold.PLP.Chemscore.Hbond>
1.0000

> <Gold.PLP.Chemscore.CHOScore>
0.0000

> <Gold.PLP.Chemscore.Metal>
0.0000

> <Gold.Chemscore.Hbonds>
donor molecule, donor type, donor heavy atom, donor atom, acceptor molecule, acceptor atom, score
      P1  H  7997  8009       L1    12  1.00

> <Gold.PLP.Chemscore.Internal.Correction>
0.1061

> <Gold.Rescore>
     Score         DG    S(hbond)    S(metal)    S(lipo)     H(rot)  DE(clash)    DE(int)     intcor
     16.45     -17.20       1.00        0.00     105.71       1.55       0.08       0.67       ----

> <Gold.Chemscore.Fitness>
16.4549

> <Gold.Chemscore.DG>
-17.2035

> <Gold.Chemscore.ZeroCoef>
-5.4800

> <Gold.Chemscore.Hbond>
0.9965

> <Gold.Chemscore.Metal>
0.0000

> <Gold.Chemscore.Lipo>
105.7122

> <Gold.Chemscore.Internal_Hbond>
0.0000

> <Gold.Chemscore.DEClash>
0.0761

> <Gold.Chemscore.DEInternal>
0.6726

> <Gold.Chemscore.Rot>
1.5520

> <Gold.Chemscore.Internal.Correction>
   9.000000E+99

> <Gold.Chemscore.Hbonds>
donor molecule, donor type, donor heavy atom, donor atom, acceptor molecule, acceptor atom, score
      P1  H  7997  8009       L1    12  1.00

> <Gold.Chemscore.Hbond.Weighted>
-3.3283

> <Gold.Chemscore.Metal.Weighted>
-0.0000

> <Gold.Chemscore.Lipo.Weighted>
-12.3683

> <Gold.Chemscore.Internal_Hbond.Weighted>
0.0000

> <Gold.Chemscore.DEClash.Weighted>
0.0761

> <Gold.Chemscore.DEInternal.Weighted>
0.6726

> <Gold.Chemscore.Rot.Weighted>
3.9731

> <Gold.Chemscore.Internal.Correction.Weighted>
   9.000000E+99

> <Gold.Protein.RotatedTorsions>
[ 6907 6896 6895 6894 ] final  -23.44 input  -60.11 | X-H torsion
[ 7974 7965 7964 7962 ] final  130.82 input  175.53 | X-H torsion
[ 8008 7997 7996 7995 ] final  168.00 input   59.86 | X-H torsion
[ 10167 10162 10161 10158 ] final  -20.76 input  -65.29 | X-H torsion
[ 10718 10713 10712 10709 ] final    2.13 input   66.30 | X-H torsion
[ 10763 10752 10751 10750 ] final   22.24 input  -60.55 | X-H torsion
[ 11005 11000 10999 10996 ] final   67.48 input  -57.11 | X-H torsion

> <Gold.Protein.ActiveResidues>
 VAL166  LYS551  ARG553  GLY616  TRP617  ASP618  TYR619  PRO620  LYS621  CYS622 
 ASP623  PHE694  ASN695  SER759  ASP760  ASP761  ALA762  ILE779  LEU786  VAL792 
 PHE793  MET794  SER795  GLU796  ALA797  LYS798  CYS799  TRP800  GLU811  SER814 

> <Gold.Protein.RotatedAtoms>
  151.2039  135.0454  159.8883 H   0  0  0  0  0  0  0  0  0  0  0  0  # atno 6907 bound_to 6896
  152.5430  134.0819  159.8249 H   0  0  0  0  0  0  0  0  0  0  0  0  # atno 6908 bound_to 6896
  151.0963  133.5229  159.2644 H   0  0  0  0  0  0  0  0  0  0  0  0  # atno 6909 bound_to 6896
  145.0139  139.4195  143.5231 H   0  0  0  0  0  0  0  0  0  0  0  0  # atno 7974 bound_to 7965
  156.1585  140.1602  156.8652 H   0  0  0  0  0  0  0  0  0  0  0  0  # atno 8008 bound_to 7997
  154.5138  140.0794  156.8077 H   0  0  0  0  0  0  0  0  0  0  0  0  # atno 8009 bound_to 7997
  155.3755  140.3402  155.4247 H   0  0  0  0  0  0  0  0  0  0  0  0  # atno 8010 bound_to 7997
  140.7278  143.4692  151.0271 H   0  0  0  0  0  0  0  0  0  0  0  0  # atno 10167 bound_to 10162
  156.8585  130.5578  149.5664 H   0  0  0  0  0  0  0  0  0  0  0  0  # atno 10718 bound_to 10713
  153.0931  135.6652  153.9815 H   0  0  0  0  0  0  0  0  0  0  0  0  # atno 10763 bound_to 10752
  153.9406  135.2994  155.3444 H   0  0  0  0  0  0  0  0  0  0  0  0  # atno 10764 bound_to 10752
  154.7348  135.5107  153.9096 H   0  0  0  0  0  0  0  0  0  0  0  0  # atno 10765 bound_to 10752
  139.9768  134.6809  156.0338 H   0  0  0  0  0  0  0  0  0  0  0  0  # atno 11005 bound_to 11000
  146.3474  139.9598  142.8718 LP  0  0  0  0  0  0  0  0  0  0  0  0  # atno 17320 bound_to 7965
  145.1986  140.9844  143.4169 LP  0  0  0  0  0  0  0  0  0  0  0  0  # atno 17321 bound_to 7965
  139.8383  143.7598  152.3180 LP  0  0  0  0  0  0  0  0  0  0  0  0  # atno 17342 bound_to 10162
  139.7738  144.7468  151.0186 LP  0  0  0  0  0  0  0  0  0  0  0  0  # atno 17343 bound_to 10162
  156.0789  130.5805  150.9527 LP  0  0  0  0  0  0  0  0  0  0  0  0  # atno 17370 bound_to 10713
  157.6263  131.0925  150.8527 LP  0  0  0  0  0  0  0  0  0  0  0  0  # atno 17371 bound_to 10713
  141.1444  133.6558  156.3825 LP  0  0  0  0  0  0  0  0  0  0  0  0  # atno 17394 bound_to 11000
  140.5178  134.6334  157.5307 LP  0  0  0  0  0  0  0  0  0  0  0  0  # atno 17395 bound_to 11000

$$$$
