AV-unprocessed.smi:2928|AV-procd|sdf|11231|dock7
  -GOLD-   2272016123D 1   1.00000     0.00000
 Structure written by MMmdl.
 55 58  0  0  0  0  0  0  0  0  2 V2000
  147.4261  135.5835  154.7279 C   0  0  0  0  0  0  0  0  0  0  0  0
  148.5720  136.5147  154.5971 N   0  3  2  0  0  0  0  0  0  0  0  0
  149.8031  136.0905  155.3057 C   0  0  2  0  0  0  0  0  0  0  0  0
  149.6322  136.1846  156.8435 C   0  0  0  0  0  0  0  0  0  0  0  0
  149.0972  137.5401  157.3429 C   0  0  0  0  0  0  0  0  0  0  0  0
  148.0023  138.1234  156.4314 C   0  0  0  0  0  0  0  0  0  0  0  0
  148.2636  137.9288  154.9167 C   0  0  1  0  0  0  0  0  0  0  0  0
  149.3632  138.8344  154.3149 C   0  0  0  0  0  0  0  0  0  0  0  0
  150.8273  138.3969  154.5970 C   0  0  1  0  0  0  0  0  0  0  0  0
  151.4260  139.0986  155.7282 N   0  0  0  0  0  0  0  0  0  0  0  0
  151.3252  140.4094  155.9880 C   0  0  0  0  0  0  0  0  0  0  0  0
  150.7299  141.2059  155.2628 O   0  0  0  0  0  0  0  0  0  0  0  0
  151.9323  140.7125  157.1458 N   0  0  0  0  0  0  0  0  0  0  0  0
  151.9474  141.9575  157.8327 C   0  0  0  0  0  0  0  0  0  0  0  0
  151.1906  143.0767  157.4102 C   0  0  0  0  0  0  0  0  0  0  0  0
  151.2836  144.2778  158.1367 C   0  0  0  0  0  0  0  0  0  0  0  0
  152.1351  144.3193  159.2555 C   0  0  0  0  0  0  0  0  0  0  0  0
  152.8737  143.2662  159.6614 N   0  0  0  0  0  0  0  0  0  0  0  0
  152.7893  142.1074  158.9640 C   0  0  0  0  0  0  0  0  0  0  0  0
  153.5652  141.0199  159.4037 N   0  0  0  0  0  0  0  0  0  0  0  0
  154.5502  141.3218  160.4282 C   0  0  0  0  0  0  0  0  0  0  0  0
  154.9858  139.9631  160.9829 C   0  0  0  0  0  0  0  0  0  0  0  0
  153.8396  139.0065  160.6299 C   0  0  0  0  0  0  0  0  0  0  0  0
  152.8169  139.8735  159.8911 C   0  0  0  0  0  0  0  0  0  0  0  0
  151.0106  136.8633  154.7241 C   0  0  0  0  0  0  0  0  0  0  0  0
  147.0751  135.4997  155.7558 H   0  0  0  0  0  0  0  0  0  0  0  0
  147.7050  134.5872  154.3843 H   0  0  0  0  0  0  0  0  0  0  0  0
  146.5910  135.9207  154.1133 H   0  0  0  0  0  0  0  0  0  0  0  0
  149.9752  135.0390  155.0703 H   0  0  0  0  0  0  0  0  0  0  0  0
  148.9394  135.4063  157.1645 H   0  0  0  0  0  0  0  0  0  0  0  0
  150.5741  135.9536  157.3421 H   0  0  0  0  0  0  0  0  0  0  0  0
  148.7017  137.4228  158.3523 H   0  0  0  0  0  0  0  0  0  0  0  0
  149.9089  138.2500  157.4591 H   0  0  0  0  0  0  0  0  0  0  0  0
  147.0557  137.6462  156.6859 H   0  0  0  0  0  0  0  0  0  0  0  0
  147.8605  139.1812  156.6556 H   0  0  0  0  0  0  0  0  0  0  0  0
  147.3391  138.1908  154.3998 H   0  0  0  0  0  0  0  0  0  0  0  0
  149.2302  138.8165  153.2321 H   0  0  0  0  0  0  0  0  0  0  0  0
  149.1941  139.8737  154.5989 H   0  0  0  0  0  0  0  0  0  0  0  0
  151.4238  138.7037  153.7354 H   0  0  0  0  0  0  0  0  0  0  0  0
  151.9402  138.5326  156.3875 H   0  0  0  0  0  0  0  0  0  0  0  0
  152.3129  139.9341  157.6642 H   0  0  0  0  0  0  0  0  0  0  0  0
  150.5560  143.0387  156.5380 H   0  0  0  0  0  0  0  0  0  0  0  0
  150.7181  145.1487  157.8399 H   0  0  0  0  0  0  0  0  0  0  0  0
  152.2310  145.2245  159.8365 H   0  0  0  0  0  0  0  0  0  0  0  0
  155.3929  141.8749  160.0122 H   0  0  0  0  0  0  0  0  0  0  0  0
  154.1067  141.9266  161.2204 H   0  0  0  0  0  0  0  0  0  0  0  0
  155.9059  139.6334  160.4989 H   0  0  0  0  0  0  0  0  0  0  0  0
  155.1733  140.0095  162.0560 H   0  0  0  0  0  0  0  0  0  0  0  0
  154.2060  138.2130  159.9775 H   0  0  0  0  0  0  0  0  0  0  0  0
  153.4038  138.5368  161.5120 H   0  0  0  0  0  0  0  0  0  0  0  0
  152.0310  140.1924  160.5772 H   0  0  0  0  0  0  0  0  0  0  0  0
  152.3483  139.3311  159.0694 H   0  0  0  0  0  0  0  0  0  0  0  0
  151.9212  136.6234  155.2750 H   0  0  0  0  0  0  0  0  0  0  0  0
  151.1802  136.4767  153.7178 H   0  0  0  0  0  0  0  0  0  0  0  0
  148.8026  136.4999  153.6138 H   0  0  0  0  0  0  0  0  0  0  0  0
  1  2  1  0  0  0  0
  1 26  1  0  0  0  0
  1 27  1  0  0  0  0
  1 28  1  0  0  0  0
  2  7  1  0  0  0  0
  2  3  1  0  0  0  0
  2 55  1  0  0  0  0
  3 25  1  0  0  0  0
  3  4  1  0  0  0  0
  3 29  1  0  0  0  0
  4  5  1  0  0  0  0
  4 30  1  0  0  0  0
  4 31  1  0  0  0  0
  5  6  1  0  0  0  0
  5 32  1  0  0  0  0
  5 33  1  0  0  0  0
  6  7  1  0  0  0  0
  6 34  1  0  0  0  0
  6 35  1  0  0  0  0
  7  8  1  0  0  0  0
  7 36  1  0  0  0  0
  8  9  1  0  0  0  0
  8 37  1  0  0  0  0
  8 38  1  0  0  0  0
  9 10  1  0  0  0  0
  9 25  1  0  0  0  0
  9 39  1  0  0  0  0
 10 11  1  0  0  0  0
 10 40  1  0  0  0  0
 11 12  2  0  0  0  0
 11 13  1  0  0  0  0
 13 14  1  0  0  0  0
 13 41  1  0  0  0  0
 14 19  1  0  0  0  0
 14 15  2  0  0  0  0
 15 16  1  0  0  0  0
 15 42  1  0  0  0  0
 16 17  2  0  0  0  0
 16 43  1  0  0  0  0
 17 18  1  0  0  0  0
 17 44  1  0  0  0  0
 18 19  2  0  0  0  0
 19 20  1  0  0  0  0
 20 24  1  0  0  0  0
 20 21  1  0  0  0  0
 21 22  1  0  0  0  0
 21 45  1  0  0  0  0
 21 46  1  0  0  0  0
 22 23  1  0  0  0  0
 22 47  1  0  0  0  0
 22 48  1  0  0  0  0
 23 24  1  0  0  0  0
 23 49  1  0  0  0  0
 23 50  1  0  0  0  0
 24 51  1  0  0  0  0
 24 52  1  0  0  0  0
 25 53  1  0  0  0  0
 25 54  1  0  0  0  0
M  CHG  1   2   1
M  END
> <s_m_source_file>
AV-unprocessed.smi

> <i_m_source_file_index>
2928

> <i_lp_mmshare_version>
43012

> <i_f3d_flags>
0

> <s_epik_input>
W0NIMl0xW0NIMl1bQ0gyXVtDQEhdKE4oW0NIM10pW0NIXTEyKVtDSDJdW0NASF0oW0NIMl0yKVtOSF1DKD1PKVtOSF1jM1tjSF1bY0hdW2NIXW5jM040W0NIMl1bQ0gyXVtDSDJdW0NIMl00

> <s_epik_cmdline>
J2VwaWtfcHl0aG9uJywgJy1waCcsICc3LjAnLCAnLXRuJywgJzgnLCAnLW1hJywgJzIwMCcsICctbWV0YWxfYmluZGluZycsICctaW1hZScsICc8aW5maWxlLm1hZT4nLCAnLW9tYWUnLCAnPG91dGZpbGUubWFlPic=

> <r_lp_tautomer_probability>
1

> <r_epik_Ionization_Penalty>
0.07954

> <r_epik_Ionization_Penalty_Charging>
0.00089841

> <r_epik_Ionization_Penalty_Neutral>
0.0786416

> <r_epik_State_Penalty>
0.0689917

> <r_epik_Charging_Adjusted_Penalty>
0.0698901

> <i_epik_Tot_Q>
1

> <i_epik_Tot_abs_Q>
1

> <r_epik_Metal_State_Penalty>
0.0608947

> <b_epik_Metal_Only>
0

> <s_lp_Force_Field>
OPLS_2005

> <r_lp_Energy>
66.344

> <b_lp_Chiralities_Consistent>
1

> <s_lp_Variant>
AV-unprocessed.smi:2928-1

> <Gold.Version>
5.8.1

> <Gold.Id.Protein>
6NUR|6NUR_protein|mol2

> <Gold.PLP.Fitness>
45.0128

> <Gold.PLP.PLP>
-37.6470

> <Gold.PLP.part.hbond>
-2.0000

> <Gold.PLP.part.metal>
0.0000

> <Gold.PLP.part.buried>
-4.3222

> <Gold.PLP.part.nonpolar>
-31.7845

> <Gold.PLP.part.repulsive>
0.3136

> <Gold.PLP.ligand.clash>
0.0000

> <Gold.PLP.ligand.torsion>
0.2655

> <Gold.PLP.Chemscore.Hbond>
2.6080

> <Gold.PLP.Chemscore.CHOScore>
0.0000

> <Gold.PLP.Chemscore.Metal>
0.0000

> <Gold.Chemscore.Hbonds>
donor molecule, donor type, donor heavy atom, donor atom, acceptor molecule, acceptor atom, score
      L1  H     2    55       P1  7948  2.00
      P1  H  7989  7998       L1    12  0.61

> <Gold.PLP.Chemscore.Internal.Correction>
0.0729

> <Gold.Rescore>
     Score         DG    S(hbond)    S(metal)    S(lipo)     H(rot)  DE(clash)    DE(int)     intcor
     13.55     -16.88       1.00        0.00      94.73       1.18       0.04       3.29       ----

> <Gold.Chemscore.Fitness>
13.5510

> <Gold.Chemscore.DG>
-16.8778

> <Gold.Chemscore.ZeroCoef>
-5.4800

> <Gold.Chemscore.Hbond>
0.9967

> <Gold.Chemscore.Metal>
0.0000

> <Gold.Chemscore.Lipo>
94.7300

> <Gold.Chemscore.Internal_Hbond>
0.0000

> <Gold.Chemscore.DEClash>
0.0405

> <Gold.Chemscore.DEInternal>
3.2863

> <Gold.Chemscore.Rot>
1.1776

> <Gold.Chemscore.Internal.Correction>
   9.000000E+99

> <Gold.Chemscore.Hbonds>
donor molecule, donor type, donor heavy atom, donor atom, acceptor molecule, acceptor atom, score
      L1  H     2    55       P1  7948  1.00
      P1  H  7989  7998       L1    12  0.20

> <Gold.Chemscore.Hbond.Weighted>
-3.3291

> <Gold.Chemscore.Metal.Weighted>
-0.0000

> <Gold.Chemscore.Lipo.Weighted>
-11.0834

> <Gold.Chemscore.Internal_Hbond.Weighted>
0.0000

> <Gold.Chemscore.DEClash.Weighted>
0.0405

> <Gold.Chemscore.DEInternal.Weighted>
3.2863

> <Gold.Chemscore.Rot.Weighted>
3.0147

> <Gold.Chemscore.Internal.Correction.Weighted>
   9.000000E+99

> <Gold.Protein.RotatedTorsions>
[ 6907 6896 6895 6894 ] final  175.20 input  -60.11 | X-H torsion
[ 7974 7965 7964 7962 ] final   94.61 input  175.53 | X-H torsion
[ 8008 7997 7996 7995 ] final  178.52 input   59.86 | X-H torsion
[ 10167 10162 10161 10158 ] final -176.20 input  -65.29 | X-H torsion
[ 10718 10713 10712 10709 ] final  132.88 input   66.30 | X-H torsion
[ 10763 10752 10751 10750 ] final  -91.20 input  -60.55 | X-H torsion
[ 11005 11000 10999 10996 ] final  -17.46 input  -57.11 | X-H torsion

> <Gold.Protein.ActiveResidues>
 VAL166  LYS551  ARG553  GLY616  TRP617  ASP618  TYR619  PRO620  LYS621  CYS622 
 ASP623  PHE694  ASN695  SER759  ASP760  ASP761  ALA762  ILE779  LEU786  VAL792 
 PHE793  MET794  SER795  GLU796  ALA797  LYS798  CYS799  TRP800  GLU811  SER814 

> <Gold.Protein.RotatedAtoms>
  151.7401  133.3321  159.3363 H   0  0  0  0  0  0  0  0  0  0  0  0  # atno 6907 bound_to 6896
  150.7577  134.6286  159.6183 H   0  0  0  0  0  0  0  0  0  0  0  0  # atno 6908 bound_to 6896
  152.3536  134.6973  160.0280 H   0  0  0  0  0  0  0  0  0  0  0  0  # atno 6909 bound_to 6896
  145.4632  139.2286  143.2976 H   0  0  0  0  0  0  0  0  0  0  0  0  # atno 7974 bound_to 7965
  156.0537  140.1331  157.0021 H   0  0  0  0  0  0  0  0  0  0  0  0  # atno 8008 bound_to 7997
  154.4447  140.1005  156.6485 H   0  0  0  0  0  0  0  0  0  0  0  0  # atno 8009 bound_to 7997
  155.5484  140.3462  155.4465 H   0  0  0  0  0  0  0  0  0  0  0  0  # atno 8010 bound_to 7997
  139.5542  144.2033  152.1130 H   0  0  0  0  0  0  0  0  0  0  0  0  # atno 10167 bound_to 10162
  157.4828  131.1086  150.9660 H   0  0  0  0  0  0  0  0  0  0  0  0  # atno 10718 bound_to 10713
  154.6736  135.5276  153.8170 H   0  0  0  0  0  0  0  0  0  0  0  0  # atno 10763 bound_to 10752
  153.0517  135.6535  154.0686 H   0  0  0  0  0  0  0  0  0  0  0  0  # atno 10764 bound_to 10752
  154.0582  135.2964  155.3309 H   0  0  0  0  0  0  0  0  0  0  0  0  # atno 10765 bound_to 10752
  140.8171  133.8096  155.9621 H   0  0  0  0  0  0  0  0  0  0  0  0  # atno 11005 bound_to 11000
  146.2439  140.5403  142.8922 LP  0  0  0  0  0  0  0  0  0  0  0  0  # atno 17320 bound_to 7965
  144.7990  140.6177  143.6491 LP  0  0  0  0  0  0  0  0  0  0  0  0  # atno 17321 bound_to 7965
  140.1533  144.5094  150.6674 LP  0  0  0  0  0  0  0  0  0  0  0  0  # atno 17342 bound_to 10162
  140.6811  143.2327  151.5382 LP  0  0  0  0  0  0  0  0  0  0  0  0  # atno 17343 bound_to 10162
  157.0387  130.5740  149.5353 LP  0  0  0  0  0  0  0  0  0  0  0  0  # atno 17370 bound_to 10713
  156.0130  130.5223  150.8049 LP  0  0  0  0  0  0  0  0  0  0  0  0  # atno 17371 bound_to 10713
  140.9138  134.2228  157.4969 LP  0  0  0  0  0  0  0  0  0  0  0  0  # atno 17394 bound_to 11000
  139.8710  134.9762  156.4911 LP  0  0  0  0  0  0  0  0  0  0  0  0  # atno 17395 bound_to 11000

$$$$
