AV-unprocessed.smi:1240|AV-procd|sdf|5202|dock2
  -GOLD-   22720 4293D 1   1.00000     0.00000
 Structure written by MMmdl.
 48 50  0  0  0  0  0  0  0  0  2 V2000
  144.5203  136.4487  152.2002 O   0  0  0  0  0  0  0  0  0  0  0  0
  145.7280  136.2425  152.0813 C   0  0  0  0  0  0  0  0  0  0  0  0
  146.6621  137.1282  152.4569 N   0  0  0  0  0  0  0  0  0  0  0  0
  146.3786  138.4434  153.0211 C   0  0  0  0  0  0  0  0  0  0  0  0
  147.6511  139.2929  153.3040 C   0  0  1  0  0  0  0  0  0  0  0  0
  147.4071  140.4892  154.2666 C   0  0  1  0  0  0  0  0  0  0  0  0
  146.7281  141.6815  153.6115 C   0  0  0  0  0  0  0  0  0  0  0  0
  146.2232  142.4721  154.8124 C   0  0  0  0  0  0  0  0  0  0  0  0
  145.9047  141.4994  155.7996 O   0  0  0  0  0  0  0  0  0  0  0  0
  146.4344  140.2322  155.4245 C   0  0  0  0  0  0  0  0  0  0  0  0
  148.7754  138.4520  153.8154 N   0  3  0  0  0  0  0  0  0  0  0  0
  150.0563  139.1595  154.0708 C   0  0  0  0  0  0  0  0  0  0  0  0
  151.1553  138.1436  154.4238 C   0  0  0  0  0  0  0  0  0  0  0  0
  150.7517  137.3795  155.5539 O   0  0  0  0  0  0  0  0  0  0  0  0
  149.5664  136.6342  155.3014 C   0  0  0  0  0  0  0  0  0  0  0  0
  148.4109  137.5936  154.9695 C   0  0  0  0  0  0  0  0  0  0  0  0
  146.2875  135.1219  151.5926 N   0  0  0  0  0  0  0  0  0  0  0  0
  145.6559  133.9593  151.0706 C   0  0  0  0  0  0  0  0  0  0  0  0
  144.3897  134.1186  150.4701 C   0  0  0  0  0  0  0  0  0  0  0  0
  143.7305  132.9825  149.9597 C   0  0  0  0  0  0  0  0  0  0  0  0
  144.2455  131.7366  150.0208 N   0  0  0  0  0  0  0  0  0  0  0  0
  145.4523  131.5832  150.6054 C   0  0  0  0  0  0  0  0  0  0  0  0
  146.1951  132.6519  151.1465 C   0  0  0  0  0  0  0  0  0  0  0  0
  147.6336  136.8822  152.3324 H   0  0  0  0  0  0  0  0  0  0  0  0
  145.7287  138.9611  152.3155 H   0  0  0  0  0  0  0  0  0  0  0  0
  145.7907  138.3040  153.9288 H   0  0  0  0  0  0  0  0  0  0  0  0
  147.9940  139.7189  152.3600 H   0  0  0  0  0  0  0  0  0  0  0  0
  148.3548  140.8237  154.6911 H   0  0  0  0  0  0  0  0  0  0  0  0
  147.3971  142.2676  152.9807 H   0  0  0  0  0  0  0  0  0  0  0  0
  145.8850  141.3526  153.0020 H   0  0  0  0  0  0  0  0  0  0  0  0
  147.0107  143.1182  155.2019 H   0  0  0  0  0  0  0  0  0  0  0  0
  145.3615  143.0947  154.5708 H   0  0  0  0  0  0  0  0  0  0  0  0
  145.6050  139.6003  155.1039 H   0  0  0  0  0  0  0  0  0  0  0  0
  146.9160  139.7535  156.2773 H   0  0  0  0  0  0  0  0  0  0  0  0
  150.3592  139.7325  153.1950 H   0  0  0  0  0  0  0  0  0  0  0  0
  149.9422  139.8638  154.8954 H   0  0  0  0  0  0  0  0  0  0  0  0
  151.3657  137.4857  153.5790 H   0  0  0  0  0  0  0  0  0  0  0  0
  152.0839  138.6628  154.6621 H   0  0  0  0  0  0  0  0  0  0  0  0
  149.7337  135.9279  154.4865 H   0  0  0  0  0  0  0  0  0  0  0  0
  149.3239  136.0461  156.1869 H   0  0  0  0  0  0  0  0  0  0  0  0
  148.1831  138.2087  155.8403 H   0  0  0  0  0  0  0  0  0  0  0  0
  147.5144  137.0167  154.7400 H   0  0  0  0  0  0  0  0  0  0  0  0
  147.2956  135.0808  151.6272 H   0  0  0  0  0  0  0  0  0  0  0  0
  143.9281  135.0924  150.3959 H   0  0  0  0  0  0  0  0  0  0  0  0
  142.7620  133.0779  149.4919 H   0  0  0  0  0  0  0  0  0  0  0  0
  145.8372  130.5750  150.6496 H   0  0  0  0  0  0  0  0  0  0  0  0
  147.1443  132.4415  151.6133 H   0  0  0  0  0  0  0  0  0  0  0  0
  148.9686  137.8036  153.0653 H   0  0  0  0  0  0  0  0  0  0  0  0
  1  2  2  0  0  0  0
  2  3  1  0  0  0  0
  2 17  1  0  0  0  0
  3  4  1  0  0  0  0
  3 24  1  0  0  0  0
  4  5  1  0  0  0  0
  4 25  1  0  0  0  0
  4 26  1  0  0  0  0
  5  6  1  0  0  0  0
  5 11  1  0  0  0  0
  5 27  1  0  0  0  0
  6 10  1  0  0  0  0
  6  7  1  0  0  0  0
  6 28  1  0  0  0  0
  7  8  1  0  0  0  0
  7 29  1  0  0  0  0
  7 30  1  0  0  0  0
  8  9  1  0  0  0  0
  8 31  1  0  0  0  0
  8 32  1  0  0  0  0
  9 10  1  0  0  0  0
 10 33  1  0  0  0  0
 10 34  1  0  0  0  0
 11 16  1  0  0  0  0
 11 12  1  0  0  0  0
 11 48  1  0  0  0  0
 12 13  1  0  0  0  0
 12 35  1  0  0  0  0
 12 36  1  0  0  0  0
 13 14  1  0  0  0  0
 13 37  1  0  0  0  0
 13 38  1  0  0  0  0
 14 15  1  0  0  0  0
 15 16  1  0  0  0  0
 15 39  1  0  0  0  0
 15 40  1  0  0  0  0
 16 41  1  0  0  0  0
 16 42  1  0  0  0  0
 17 18  1  0  0  0  0
 17 43  1  0  0  0  0
 18 23  1  0  0  0  0
 18 19  2  0  0  0  0
 19 20  1  0  0  0  0
 19 44  1  0  0  0  0
 20 21  2  0  0  0  0
 20 45  1  0  0  0  0
 21 22  1  0  0  0  0
 22 23  2  0  0  0  0
 22 46  1  0  0  0  0
 23 47  1  0  0  0  0
M  CHG  1  11   1
M  END
> <s_m_source_file>
AV-unprocessed.smi

> <i_m_source_file_index>
1240

> <i_lp_mmshare_version>
43012

> <i_f3d_flags>
0

> <s_epik_input>
W2NIXTFbY0hdbltjSF1bY0hdYzFbTkhdQyg9TylbTkhdW0NIMl1bQ0BIXShbQ0BASF0yW0NIMl1bQ0gyXU9bQ0gyXTIpTjNbQ0gyXVtDSDJdT1tDSDJdW0NIMl0z

> <s_epik_cmdline>
J2VwaWtfcHl0aG9uJywgJy1waCcsICc3LjAnLCAnLXRuJywgJzgnLCAnLW1hJywgJzIwMCcsICctbWV0YWxfYmluZGluZycsICctaW1hZScsICc8aW5maWxlLm1hZT4nLCAnLW9tYWUnLCAnPG91dGZpbGUubWFlPic=

> <r_epik_Ionization_Penalty>
1.08433

> <r_epik_Ionization_Penalty_Charging>
0.98326

> <r_epik_Ionization_Penalty_Neutral>
0.10107

> <r_epik_State_Penalty>
1.11265

> <r_epik_Charging_Adjusted_Penalty>
2.09591

> <i_epik_Tot_Q>
1

> <i_epik_Tot_abs_Q>
1

> <r_epik_Metal_State_Penalty>
1.10731

> <b_epik_Metal_Only>
0

> <s_lp_Force_Field>
OPLS_2005

> <r_lp_Energy>
42.1578

> <b_lp_Chiralities_Consistent>
1

> <s_lp_Variant>
AV-unprocessed.smi:1240-8

> <Gold.Version>
5.8.1

> <Gold.Id.Protein>
6NUR|6NUR_protein|mol2

> <Gold.PLP.Fitness>
50.2812

> <Gold.PLP.PLP>
-36.2459

> <Gold.PLP.part.hbond>
-4.4285

> <Gold.PLP.part.metal>
0.0000

> <Gold.PLP.part.buried>
-3.6164

> <Gold.PLP.part.nonpolar>
-30.0682

> <Gold.PLP.part.repulsive>
1.0370

> <Gold.PLP.ligand.clash>
0.0000

> <Gold.PLP.ligand.torsion>
0.9368

> <Gold.PLP.Chemscore.Hbond>
4.2105

> <Gold.PLP.Chemscore.CHOScore>
1.0000

> <Gold.PLP.Chemscore.Metal>
0.0000

> <Gold.Chemscore.Hbonds>
donor molecule, donor type, donor heavy atom, donor atom, acceptor molecule, acceptor atom, score
      L1  H     3    24       P1  7948  1.00
      L1  H    11    48       P1  7948  2.00
      L1  H    17    43       P1  7948  0.88
      P1  H 10785 10796       L1    21  0.23
      L1  C    20    45       P1 10186  1.00

> <Gold.PLP.Chemscore.Internal.Correction>
0.2775

> <Gold.Rescore>
     Score         DG    S(hbond)    S(metal)    S(lipo)     H(rot)  DE(clash)    DE(int)     intcor
     19.08     -22.63       3.05        0.00      96.61       1.70       0.54       3.01       ----

> <Gold.Chemscore.Fitness>
19.0775

> <Gold.Chemscore.DG>
-22.6270

> <Gold.Chemscore.ZeroCoef>
-5.4800

> <Gold.Chemscore.Hbond>
3.0542

> <Gold.Chemscore.Metal>
0.0000

> <Gold.Chemscore.Lipo>
96.6110

> <Gold.Chemscore.Internal_Hbond>
0.0000

> <Gold.Chemscore.DEClash>
0.5357

> <Gold.Chemscore.DEInternal>
3.0137

> <Gold.Chemscore.Rot>
1.7021

> <Gold.Chemscore.Internal.Correction>
   9.000000E+99

> <Gold.Chemscore.Hbonds>
donor molecule, donor type, donor heavy atom, donor atom, acceptor molecule, acceptor atom, score
      L1  H     3    24       P1  7948  0.93
      L1  H    11    48       P1  7948  0.99
      L1  H    17    43       P1  7948  0.72
      P1  H 10785 10796       L1    21  0.21

> <Gold.Chemscore.Hbond.Weighted>
-10.2010

> <Gold.Chemscore.Metal.Weighted>
-0.0000

> <Gold.Chemscore.Lipo.Weighted>
-11.3035

> <Gold.Chemscore.Internal_Hbond.Weighted>
0.0000

> <Gold.Chemscore.DEClash.Weighted>
0.5357

> <Gold.Chemscore.DEInternal.Weighted>
3.0137

> <Gold.Chemscore.Rot.Weighted>
4.3575

> <Gold.Chemscore.Internal.Correction.Weighted>
   9.000000E+99

> <Gold.Protein.RotatedTorsions>
[ 6907 6896 6895 6894 ] final  102.90 input  -60.11 | X-H torsion
[ 7974 7965 7964 7962 ] final  111.66 input  175.53 | X-H torsion
[ 8008 7997 7996 7995 ] final   33.61 input   59.86 | X-H torsion
[ 10167 10162 10161 10158 ] final  158.03 input  -65.29 | X-H torsion
[ 10718 10713 10712 10709 ] final -164.76 input   66.30 | X-H torsion
[ 10763 10752 10751 10750 ] final -172.60 input  -60.55 | X-H torsion
[ 11005 11000 10999 10996 ] final  146.60 input  -57.11 | X-H torsion

> <Gold.Protein.ActiveResidues>
 VAL166  LYS551  ARG553  GLY616  TRP617  ASP618  TYR619  PRO620  LYS621  CYS622 
 ASP623  PHE694  ASN695  SER759  ASP760  ASP761  ALA762  ILE779  LEU786  VAL792 
 PHE793  MET794  SER795  GLU796  ALA797  LYS798  CYS799  TRP800  GLU811  SER814 

> <Gold.Protein.RotatedAtoms>
  152.5311  133.9907  159.7849 H   0  0  0  0  0  0  0  0  0  0  0  0  # atno 6907 bound_to 6896
  151.0143  133.5928  159.2686 H   0  0  0  0  0  0  0  0  0  0  0  0  # atno 6908 bound_to 6896
  151.2990  135.0770  159.9285 H   0  0  0  0  0  0  0  0  0  0  0  0  # atno 6909 bound_to 6896
  145.2394  139.2785  143.4126 H   0  0  0  0  0  0  0  0  0  0  0  0  # atno 7974 bound_to 7965
  155.1415  140.3266  155.4451 H   0  0  0  0  0  0  0  0  0  0  0  0  # atno 8008 bound_to 7997
  156.2603  140.1993  156.6480 H   0  0  0  0  0  0  0  0  0  0  0  0  # atno 8009 bound_to 7997
  154.6539  140.0555  156.9973 H   0  0  0  0  0  0  0  0  0  0  0  0  # atno 8010 bound_to 7997
  139.4825  144.4862  151.8374 H   0  0  0  0  0  0  0  0  0  0  0  0  # atno 10167 bound_to 10162
  156.6437  130.8979  151.3001 H   0  0  0  0  0  0  0  0  0  0  0  0  # atno 10718 bound_to 10713
  154.6175  135.2871  155.0364 H   0  0  0  0  0  0  0  0  0  0  0  0  # atno 10763 bound_to 10752
  154.1571  135.6494  153.4981 H   0  0  0  0  0  0  0  0  0  0  0  0  # atno 10764 bound_to 10752
  153.0221  135.5369  154.6952 H   0  0  0  0  0  0  0  0  0  0  0  0  # atno 10765 bound_to 10752
  140.0806  134.9099  157.1495 H   0  0  0  0  0  0  0  0  0  0  0  0  # atno 11005 bound_to 11000
  146.3332  140.2752  142.8607 LP  0  0  0  0  0  0  0  0  0  0  0  0  # atno 17320 bound_to 7965
  144.9603  140.8268  143.5517 LP  0  0  0  0  0  0  0  0  0  0  0  0  # atno 17321 bound_to 7965
  140.4342  144.2074  150.5889 LP  0  0  0  0  0  0  0  0  0  0  0  0  # atno 17342 bound_to 10162
  140.4749  143.2400  151.9038 LP  0  0  0  0  0  0  0  0  0  0  0  0  # atno 17343 bound_to 10162
  157.7163  130.9501  150.1267 LP  0  0  0  0  0  0  0  0  0  0  0  0  # atno 17370 bound_to 10713
  156.2139  130.3668  149.8637 LP  0  0  0  0  0  0  0  0  0  0  0  0  # atno 17371 bound_to 10713
  140.3493  134.2616  155.7200 LP  0  0  0  0  0  0  0  0  0  0  0  0  # atno 17394 bound_to 11000
  141.2045  133.7884  157.0282 LP  0  0  0  0  0  0  0  0  0  0  0  0  # atno 17395 bound_to 11000

$$$$
