AV-unprocessed.smi:1644|AV-procd|sdf|6584|dock10
  -GOLD-   22720 7273D 1   1.00000     0.00000
 Structure written by MMmdl.
 49 51  0  0  0  0  0  0  0  0  1 V2000
  150.9307  135.0210  155.5506 C   0  0  0  0  0  0  0  0  0  0  0  0
  149.9570  135.0789  156.7327 C   0  0  0  0  0  0  0  0  0  0  0  0
  149.7747  136.5055  157.2754 C   0  0  0  0  0  0  0  0  0  0  0  0
  149.0062  137.4304  156.3110 C   0  0  2  0  0  0  0  0  0  0  0  0
  149.7774  137.7773  155.1336 N   0  0  0  0  0  0  0  0  0  0  0  0
  149.9755  139.0964  155.0179 C   0  0  0  0  0  0  0  0  0  0  0  0
  150.6031  139.6421  154.1115 O   0  0  0  0  0  0  0  0  0  0  0  0
  149.3807  139.7075  156.0585 N   0  0  0  0  0  0  0  0  0  0  0  0
  149.4072  141.1550  156.2927 C   0  0  0  0  0  0  0  0  0  0  0  0
  149.9680  141.5037  157.6867 C   0  0  2  0  0  0  0  0  0  0  0  0
  148.9114  141.9904  158.4916 O   0  0  0  0  0  0  0  0  0  0  0  0
  151.0618  142.5858  157.6039 C   0  0  0  0  0  0  0  0  0  0  0  0
  151.1984  143.3343  158.8409 N   0  0  0  0  0  0  0  0  0  0  0  0
  150.6218  144.5137  159.1412 C   0  0  0  0  0  0  0  0  0  0  0  0
  150.8840  145.0328  160.3373 N   0  0  0  0  0  0  0  0  0  0  0  0
  151.7292  144.0782  160.8765 C   0  0  0  0  0  0  0  0  0  0  0  0
  152.3730  144.0278  162.1322 C   0  0  0  0  0  0  0  0  0  0  0  0
  153.2086  142.9410  162.4754 C   0  0  0  0  0  0  0  0  0  0  0  0
  153.8839  142.9289  163.8353 C   0  0  0  0  0  0  0  0  0  0  0  0
  153.4091  141.8809  161.5553 C   0  0  0  0  0  0  0  0  0  0  0  0
  154.3031  140.7033  161.9014 C   0  0  0  0  0  0  0  0  0  0  0  0
  152.7727  141.9150  160.2969 C   0  0  0  0  0  0  0  0  0  0  0  0
  151.9446  143.0021  159.9666 C   0  0  0  0  0  0  0  0  0  0  0  0
  148.7960  138.8226  156.8764 C   0  0  0  0  0  0  0  0  0  0  0  0
  148.1859  139.0572  157.9196 O   0  0  0  0  0  0  0  0  0  0  0  0
  151.0333  134.0005  155.1810 H   0  0  0  0  0  0  0  0  0  0  0  0
  151.9221  135.3716  155.8385 H   0  0  0  0  0  0  0  0  0  0  0  0
  150.5830  135.6405  154.7235 H   0  0  0  0  0  0  0  0  0  0  0  0
  148.9940  134.6742  156.4195 H   0  0  0  0  0  0  0  0  0  0  0  0
  150.3203  134.4292  157.5296 H   0  0  0  0  0  0  0  0  0  0  0  0
  149.2388  136.4558  158.2246 H   0  0  0  0  0  0  0  0  0  0  0  0
  150.7527  136.9342  157.5017 H   0  0  0  0  0  0  0  0  0  0  0  0
  148.0484  136.9979  156.0194 H   0  0  0  0  0  0  0  0  0  0  0  0
  150.1239  137.0883  154.4819 H   0  0  0  0  0  0  0  0  0  0  0  0
  150.0355  141.6076  155.5237 H   0  0  0  0  0  0  0  0  0  0  0  0
  148.4193  141.5979  156.1518 H   0  0  0  0  0  0  0  0  0  0  0  0
  150.3880  140.6145  158.1595 H   0  0  0  0  0  0  0  0  0  0  0  0
  148.7354  142.8861  158.2462 H   0  0  0  0  0  0  0  0  0  0  0  0
  152.0256  142.1281  157.3768 H   0  0  0  0  0  0  0  0  0  0  0  0
  150.8513  143.2842  156.7928 H   0  0  0  0  0  0  0  0  0  0  0  0
  149.9739  145.0206  158.4410 H   0  0  0  0  0  0  0  0  0  0  0  0
  152.2200  144.8357  162.8325 H   0  0  0  0  0  0  0  0  0  0  0  0
  153.5613  142.0628  164.4138 H   0  0  0  0  0  0  0  0  0  0  0  0
  153.6408  143.8240  164.4087 H   0  0  0  0  0  0  0  0  0  0  0  0
  154.9677  142.8879  163.7240 H   0  0  0  0  0  0  0  0  0  0  0  0
  154.3306  139.9732  161.0920 H   0  0  0  0  0  0  0  0  0  0  0  0
  153.9397  140.1970  162.7961 H   0  0  0  0  0  0  0  0  0  0  0  0
  155.3239  141.0402  162.0836 H   0  0  0  0  0  0  0  0  0  0  0  0
  152.9191  141.1161  159.5847 H   0  0  0  0  0  0  0  0  0  0  0  0
  1  2  1  0  0  0  0
  1 26  1  0  0  0  0
  1 27  1  0  0  0  0
  1 28  1  0  0  0  0
  2  3  1  0  0  0  0
  2 29  1  0  0  0  0
  2 30  1  0  0  0  0
  3  4  1  0  0  0  0
  3 31  1  0  0  0  0
  3 32  1  0  0  0  0
  4 24  1  0  0  0  0
  4  5  1  0  0  0  0
  4 33  1  0  0  0  0
  5  6  1  0  0  0  0
  5 34  1  0  0  0  0
  6  7  2  0  0  0  0
  6  8  1  0  0  0  0
  8  9  1  0  0  0  0
  8 24  1  0  0  0  0
  9 10  1  0  0  0  0
  9 35  1  0  0  0  0
  9 36  1  0  0  0  0
 10 11  1  0  0  0  0
 10 12  1  0  0  0  0
 10 37  1  0  0  0  0
 11 38  1  0  0  0  0
 12 13  1  0  0  0  0
 12 39  1  0  0  0  0
 12 40  1  0  0  0  0
 13 23  1  0  0  0  0
 13 14  1  0  0  0  0
 14 15  2  0  0  0  0
 14 41  1  0  0  0  0
 15 16  1  0  0  0  0
 16 23  2  0  0  0  0
 16 17  1  0  0  0  0
 17 18  2  0  0  0  0
 17 42  1  0  0  0  0
 18 19  1  0  0  0  0
 18 20  1  0  0  0  0
 19 43  1  0  0  0  0
 19 44  1  0  0  0  0
 19 45  1  0  0  0  0
 20 21  1  0  0  0  0
 20 22  2  0  0  0  0
 21 46  1  0  0  0  0
 21 47  1  0  0  0  0
 21 48  1  0  0  0  0
 22 23  1  0  0  0  0
 22 49  1  0  0  0  0
 24 25  2  0  0  0  0
M  END
> <s_m_source_file>
AV-unprocessed.smi

> <i_m_source_file_index>
1644

> <i_lp_mmshare_version>
43012

> <i_f3d_flags>
0

> <s_epik_input>
W0NIM11bQ0gyXVtDSDJdW0NAQEhdMVtOSF1DKD1PKU4oQzE9TylbQ0gyXVtDQEhdKFtPSF0pW0NIMl1uKFtjSF1uMiljKGMyMylbY0hdYyhbQ0gzXSljKFtjSF0zKVtDSDNd

> <s_epik_cmdline>
J2VwaWtfcHl0aG9uJywgJy1waCcsICc3LjAnLCAnLXRuJywgJzgnLCAnLW1hJywgJzIwMCcsICctbWV0YWxfYmluZGluZycsICctaW1hZScsICc8aW5maWxlLm1hZT4nLCAnLW9tYWUnLCAnPG91dGZpbGUubWFlPic=

> <r_lp_tautomer_probability>
1

> <r_epik_Ionization_Penalty>
0.10693

> <r_epik_Ionization_Penalty_Charging>
0

> <r_epik_Ionization_Penalty_Neutral>
0.10693

> <r_epik_State_Penalty>
0.096713

> <r_epik_Charging_Adjusted_Penalty>
0.096713

> <i_epik_Tot_Q>
0

> <i_epik_Tot_abs_Q>
0

> <r_epik_Metal_State_Penalty>
0.102757

> <b_epik_Metal_Only>
0

> <s_lp_Force_Field>
OPLS_2005

> <r_lp_Energy>
24.4016

> <b_lp_Chiralities_Consistent>
1

> <s_lp_Variant>
AV-unprocessed.smi:1644-1

> <Gold.Version>
5.8.1

> <Gold.Id.Protein>
6NUR|6NUR_protein|mol2

> <Gold.PLP.Fitness>
49.7628

> <Gold.PLP.PLP>
-46.5916

> <Gold.PLP.part.hbond>
-1.6507

> <Gold.PLP.part.metal>
0.0000

> <Gold.PLP.part.buried>
-7.2128

> <Gold.PLP.part.nonpolar>
-36.5451

> <Gold.PLP.part.repulsive>
0.7837

> <Gold.PLP.ligand.clash>
0.0000

> <Gold.PLP.ligand.torsion>
1.3975

> <Gold.PLP.Chemscore.Hbond>
1.0000

> <Gold.PLP.Chemscore.CHOScore>
0.9522

> <Gold.PLP.Chemscore.Metal>
0.0000

> <Gold.Chemscore.Hbonds>
donor molecule, donor type, donor heavy atom, donor atom, acceptor molecule, acceptor atom, score
      P1  H  7989  7998       L1     7  1.00
      L1  C    14    41       P1  8029  0.97

> <Gold.PLP.Chemscore.Internal.Correction>
0.1095

> <Gold.Rescore>
     Score         DG    S(hbond)    S(metal)    S(lipo)     H(rot)  DE(clash)    DE(int)     intcor
     14.00     -15.51       0.98        0.00     117.36       2.72       0.07       1.44       ----

> <Gold.Chemscore.Fitness>
14.0023

> <Gold.Chemscore.DG>
-15.5127

> <Gold.Chemscore.ZeroCoef>
-5.4800

> <Gold.Chemscore.Hbond>
0.9784

> <Gold.Chemscore.Metal>
0.0000

> <Gold.Chemscore.Lipo>
117.3592

> <Gold.Chemscore.Internal_Hbond>
0.0000

> <Gold.Chemscore.DEClash>
0.0697

> <Gold.Chemscore.DEInternal>
1.4408

> <Gold.Chemscore.Rot>
2.7212

> <Gold.Chemscore.Internal.Correction>
   9.000000E+99

> <Gold.Chemscore.Hbonds>
donor molecule, donor type, donor heavy atom, donor atom, acceptor molecule, acceptor atom, score
      P1  H  7989  7998       L1     7  1.00

> <Gold.Chemscore.Hbond.Weighted>
-3.2680

> <Gold.Chemscore.Metal.Weighted>
-0.0000

> <Gold.Chemscore.Lipo.Weighted>
-13.7310

> <Gold.Chemscore.Internal_Hbond.Weighted>
0.0000

> <Gold.Chemscore.DEClash.Weighted>
0.0697

> <Gold.Chemscore.DEInternal.Weighted>
1.4408

> <Gold.Chemscore.Rot.Weighted>
6.9663

> <Gold.Chemscore.Internal.Correction.Weighted>
   9.000000E+99

> <Gold.Protein.RotatedTorsions>
[ 6907 6896 6895 6894 ] final  131.15 input  -60.11 | X-H torsion
[ 7974 7965 7964 7962 ] final  -20.21 input  175.53 | X-H torsion
[ 8008 7997 7996 7995 ] final -140.87 input   59.86 | X-H torsion
[ 10167 10162 10161 10158 ] final  -80.97 input  -65.29 | X-H torsion
[ 10718 10713 10712 10709 ] final  -37.14 input   66.30 | X-H torsion
[ 10763 10752 10751 10750 ] final  -52.26 input  -60.55 | X-H torsion
[ 11005 11000 10999 10996 ] final -118.63 input  -57.11 | X-H torsion

> <Gold.Protein.ActiveResidues>
 VAL166  LYS551  ARG553  GLY616  TRP617  ASP618  TYR619  PRO620  LYS621  CYS622 
 ASP623  PHE694  ASN695  SER759  ASP760  ASP761  ALA762  ILE779  LEU786  VAL792 
 PHE793  MET794  SER795  GLU796  ALA797  LYS798  CYS799  TRP800  GLU811  SER814 

> <Gold.Protein.RotatedAtoms>
  152.3455  133.6118  159.5907 H   0  0  0  0  0  0  0  0  0  0  0  0  # atno 6907 bound_to 6896
  150.7505  133.9655  159.3538 H   0  0  0  0  0  0  0  0  0  0  0  0  # atno 6908 bound_to 6896
  151.7514  135.0832  160.0382 H   0  0  0  0  0  0  0  0  0  0  0  0  # atno 6909 bound_to 6896
  146.1800  140.4169  142.8498 H   0  0  0  0  0  0  0  0  0  0  0  0  # atno 7974 bound_to 7965
  155.4684  140.0551  157.2982 H   0  0  0  0  0  0  0  0  0  0  0  0  # atno 8008 bound_to 7997
  154.4708  140.2039  155.9953 H   0  0  0  0  0  0  0  0  0  0  0  0  # atno 8009 bound_to 7997
  156.1053  140.3213  155.8002 H   0  0  0  0  0  0  0  0  0  0  0  0  # atno 8010 bound_to 7997
  140.4454  143.2500  151.8565 H   0  0  0  0  0  0  0  0  0  0  0  0  # atno 10167 bound_to 10162
  156.3186  130.4262  149.7981 H   0  0  0  0  0  0  0  0  0  0  0  0  # atno 10718 bound_to 10713
  154.1398  135.6507  153.4940 H   0  0  0  0  0  0  0  0  0  0  0  0  # atno 10763 bound_to 10752
  153.0169  135.5313  154.6916 H   0  0  0  0  0  0  0  0  0  0  0  0  # atno 10764 bound_to 10752
  154.6174  135.2961  155.0335 H   0  0  0  0  0  0  0  0  0  0  0  0  # atno 10765 bound_to 10752
  141.0272  134.0036  157.3197 H   0  0  0  0  0  0  0  0  0  0  0  0  # atno 11005 bound_to 11000
  144.8300  140.6691  143.6297 LP  0  0  0  0  0  0  0  0  0  0  0  0  # atno 17320 bound_to 7965
  145.4102  139.1581  143.4130 LP  0  0  0  0  0  0  0  0  0  0  0  0  # atno 17321 bound_to 7965
  139.4792  144.5181  151.8840 LP  0  0  0  0  0  0  0  0  0  0  0  0  # atno 17342 bound_to 10162
  140.4269  144.2168  150.5887 LP  0  0  0  0  0  0  0  0  0  0  0  0  # atno 17343 bound_to 10162
  156.5298  130.8252  151.3233 LP  0  0  0  0  0  0  0  0  0  0  0  0  # atno 17370 bound_to 10713
  157.7407  130.9855  150.2395 LP  0  0  0  0  0  0  0  0  0  0  0  0  # atno 17371 bound_to 10713
  139.9184  135.0199  156.7969 LP  0  0  0  0  0  0  0  0  0  0  0  0  # atno 17394 bound_to 11000
  140.6470  133.9766  155.7736 LP  0  0  0  0  0  0  0  0  0  0  0  0  # atno 17395 bound_to 11000

$$$$
