AV-unprocessed.smi:695|AV-procd|sdf|3384|dock9
  -GOLD-   22720 0363D 1   1.00000     0.00000
 Structure written by MMmdl.
 38 39  0  0  0  0  0  0  0  0  1 V2000
  147.0460  140.8681  153.2106 C   0  0  0  0  0  0  0  0  0  0  0  0
  146.7674  139.3828  152.9434 C   0  0  0  0  0  0  0  0  0  0  0  0
  147.9523  138.5695  153.1880 N   0  0  0  0  0  0  0  0  0  0  0  0
  148.7774  138.7149  154.2339 C   0  0  0  0  0  0  0  0  0  0  0  0
  148.6016  139.5276  155.1419 O   0  0  0  0  0  0  0  0  0  0  0  0
  149.8302  137.8879  154.1550 N   0  0  0  0  0  0  0  0  0  0  0  0
  150.9459  137.8444  155.0976 C   0  0  0  0  0  0  0  0  0  0  0  0
  151.8542  139.0859  154.9926 C   0  0  0  0  0  0  0  0  0  0  0  0
  151.5996  140.1065  156.0632 C   0  0  0  0  0  0  0  0  0  0  0  0
  150.6825  141.1283  156.0283 C   0  0  0  0  0  0  0  0  0  0  0  0
  150.6678  142.0405  157.5122 S   0  0  0  0  0  0  0  0  0  0  0  0
  151.9452  140.9954  158.1266 C   0  0  0  0  0  0  0  0  0  0  0  0
  152.4901  141.1606  159.3966 N   0  0  0  0  0  0  0  0  0  0  0  0
  153.3116  140.1914  160.1152 C   0  0  0  0  0  0  0  0  0  0  0  0
  153.9312  140.9053  161.3136 C   0  0  0  0  0  0  0  0  0  0  0  0
  152.8775  141.9434  161.6468 C   0  0  0  0  0  0  0  0  0  0  0  0
  152.3481  142.3246  160.2660 C   0  0  0  0  0  0  0  0  0  0  0  0
  152.3209  140.0519  157.2597 N   0  0  0  0  0  0  0  0  0  0  0  0
  146.1645  141.4722  152.9957 H   0  0  0  0  0  0  0  0  0  0  0  0
  147.8605  141.2348  152.5854 H   0  0  0  0  0  0  0  0  0  0  0  0
  147.3196  141.0405  154.2521 H   0  0  0  0  0  0  0  0  0  0  0  0
  145.9340  139.0362  153.5564 H   0  0  0  0  0  0  0  0  0  0  0  0
  146.4672  139.2449  151.9046 H   0  0  0  0  0  0  0  0  0  0  0  0
  148.1782  137.8719  152.4944 H   0  0  0  0  0  0  0  0  0  0  0  0
  149.8785  137.2583  153.3676 H   0  0  0  0  0  0  0  0  0  0  0  0
  150.5811  137.7286  156.1197 H   0  0  0  0  0  0  0  0  0  0  0  0
  151.5299  136.9495  154.8819 H   0  0  0  0  0  0  0  0  0  0  0  0
  152.8960  138.7657  155.0310 H   0  0  0  0  0  0  0  0  0  0  0  0
  151.7244  139.5407  154.0099 H   0  0  0  0  0  0  0  0  0  0  0  0
  150.0018  141.3846  155.2303 H   0  0  0  0  0  0  0  0  0  0  0  0
  152.6701  139.3741  160.4471 H   0  0  0  0  0  0  0  0  0  0  0  0
  154.0797  139.7691  159.4667 H   0  0  0  0  0  0  0  0  0  0  0  0
  154.1506  140.2326  162.1430 H   0  0  0  0  0  0  0  0  0  0  0  0
  154.8587  141.3975  161.0178 H   0  0  0  0  0  0  0  0  0  0  0  0
  152.0822  141.4885  162.2390 H   0  0  0  0  0  0  0  0  0  0  0  0
  153.2725  142.7946  162.2019 H   0  0  0  0  0  0  0  0  0  0  0  0
  152.9345  143.1426  159.8461 H   0  0  0  0  0  0  0  0  0  0  0  0
  151.3096  142.6523  160.3203 H   0  0  0  0  0  0  0  0  0  0  0  0
  1  2  1  0  0  0  0
  1 19  1  0  0  0  0
  1 20  1  0  0  0  0
  1 21  1  0  0  0  0
  2  3  1  0  0  0  0
  2 22  1  0  0  0  0
  2 23  1  0  0  0  0
  3  4  1  0  0  0  0
  3 24  1  0  0  0  0
  4  5  2  0  0  0  0
  4  6  1  0  0  0  0
  6  7  1  0  0  0  0
  6 25  1  0  0  0  0
  7  8  1  0  0  0  0
  7 26  1  0  0  0  0
  7 27  1  0  0  0  0
  8  9  1  0  0  0  0
  8 28  1  0  0  0  0
  8 29  1  0  0  0  0
  9 18  1  0  0  0  0
  9 10  2  0  0  0  0
 10 11  1  0  0  0  0
 10 30  1  0  0  0  0
 11 12  1  0  0  0  0
 12 13  1  0  0  0  0
 12 18  2  0  0  0  0
 13 17  1  0  0  0  0
 13 14  1  0  0  0  0
 14 15  1  0  0  0  0
 14 31  1  0  0  0  0
 14 32  1  0  0  0  0
 15 16  1  0  0  0  0
 15 33  1  0  0  0  0
 15 34  1  0  0  0  0
 16 17  1  0  0  0  0
 16 35  1  0  0  0  0
 16 36  1  0  0  0  0
 17 37  1  0  0  0  0
 17 38  1  0  0  0  0
M  END
> <s_m_source_file>
AV-unprocessed.smi

> <i_m_source_file_index>
695

> <i_lp_mmshare_version>
43012

> <i_f3d_flags>
0

> <s_epik_input>
W0NIM11bQ0gyXVtOSF1DKD1PKVtOSF1bQ0gyXVtDSDJdYzFbY0hdc2MobjEpTjJbQ0gyXVtDSDJdW0NIMl1bQ0gyXTI=

> <s_epik_cmdline>
J2VwaWtfcHl0aG9uJywgJy1waCcsICc3LjAnLCAnLXRuJywgJzgnLCAnLW1hJywgJzIwMCcsICctbWV0YWxfYmluZGluZycsICctaW1hZScsICc8aW5maWxlLm1hZT4nLCAnLW9tYWUnLCAnPG91dGZpbGUubWFlPic=

> <r_epik_Ionization_Penalty>
0.166233

> <r_epik_Ionization_Penalty_Charging>
0

> <r_epik_Ionization_Penalty_Neutral>
0.166233

> <r_epik_State_Penalty>
0.155475

> <r_epik_Charging_Adjusted_Penalty>
0.155475

> <i_epik_Tot_Q>
0

> <i_epik_Tot_abs_Q>
0

> <r_epik_Metal_State_Penalty>
0.121092

> <b_epik_Metal_Only>
0

> <s_lp_Force_Field>
OPLS_2005

> <r_lp_Energy>
13.2485

> <b_lp_Chiralities_Consistent>
1

> <s_lp_Variant>
AV-unprocessed.smi:695-1

> <Gold.Version>
5.8.1

> <Gold.Id.Protein>
6NUR|6NUR_protein|mol2

> <Gold.PLP.Fitness>
49.7773

> <Gold.PLP.PLP>
-42.6158

> <Gold.PLP.part.hbond>
-4.0000

> <Gold.PLP.part.metal>
0.0000

> <Gold.PLP.part.buried>
-3.6688

> <Gold.PLP.part.nonpolar>
-34.8744

> <Gold.PLP.part.repulsive>
0.1504

> <Gold.PLP.ligand.clash>
0.0000

> <Gold.PLP.ligand.torsion>
0.9223

> <Gold.PLP.Chemscore.Hbond>
2.9920

> <Gold.PLP.Chemscore.CHOScore>
0.0000

> <Gold.PLP.Chemscore.Metal>
0.0000

> <Gold.Chemscore.Hbonds>
donor molecule, donor type, donor heavy atom, donor atom, acceptor molecule, acceptor atom, score
      L1  H     3    24       P1  7948  1.00
      L1  H     6    25       P1  7948  1.00
      P1  H  7997  8009       L1    18  0.67

> <Gold.PLP.Chemscore.Internal.Correction>
0.0301

> <Gold.Rescore>
     Score         DG    S(hbond)    S(metal)    S(lipo)     H(rot)  DE(clash)    DE(int)     intcor
     15.83     -19.33       2.25        0.00      91.31       1.70       0.09       3.41       ----

> <Gold.Chemscore.Fitness>
15.8340

> <Gold.Chemscore.DG>
-19.3321

> <Gold.Chemscore.ZeroCoef>
-5.4800

> <Gold.Chemscore.Hbond>
2.2489

> <Gold.Chemscore.Metal>
0.0000

> <Gold.Chemscore.Lipo>
91.3122

> <Gold.Chemscore.Internal_Hbond>
0.0000

> <Gold.Chemscore.DEClash>
0.0889

> <Gold.Chemscore.DEInternal>
3.4092

> <Gold.Chemscore.Rot>
1.6963

> <Gold.Chemscore.Internal.Correction>
   9.000000E+99

> <Gold.Chemscore.Hbonds>
donor molecule, donor type, donor heavy atom, donor atom, acceptor molecule, acceptor atom, score
      L1  H     3    24       P1  7948  0.98
      L1  H     6    25       P1  7948  0.41
      P1  H  7997  8009       L1    18  0.16

> <Gold.Chemscore.Hbond.Weighted>
-7.5112

> <Gold.Chemscore.Metal.Weighted>
-0.0000

> <Gold.Chemscore.Lipo.Weighted>
-10.6835

> <Gold.Chemscore.Internal_Hbond.Weighted>
0.0000

> <Gold.Chemscore.DEClash.Weighted>
0.0889

> <Gold.Chemscore.DEInternal.Weighted>
3.4092

> <Gold.Chemscore.Rot.Weighted>
4.3426

> <Gold.Chemscore.Internal.Correction.Weighted>
   9.000000E+99

> <Gold.Protein.RotatedTorsions>
[ 6907 6896 6895 6894 ] final   67.93 input  -60.11 | X-H torsion
[ 7974 7965 7964 7962 ] final  -20.33 input  175.53 | X-H torsion
[ 8008 7997 7996 7995 ] final -169.37 input   59.86 | X-H torsion
[ 10167 10162 10161 10158 ] final  -45.11 input  -65.29 | X-H torsion
[ 10718 10713 10712 10709 ] final -168.35 input   66.30 | X-H torsion
[ 10763 10752 10751 10750 ] final  129.26 input  -60.55 | X-H torsion
[ 11005 11000 10999 10996 ] final -162.25 input  -57.11 | X-H torsion

> <Gold.Protein.ActiveResidues>
 VAL166  LYS551  ARG553  GLY616  TRP617  ASP618  TYR619  PRO620  LYS621  CYS622 
 ASP623  PHE694  ASN695  SER759  ASP760  ASP761  ALA762  ILE779  LEU786  VAL792 
 PHE793  MET794  SER795  GLU796  ALA797  LYS798  CYS799  TRP800  GLU811  SER814 

> <Gold.Protein.RotatedAtoms>
  152.4586  134.5236  159.9789 H   0  0  0  0  0  0  0  0  0  0  0  0  # atno 6907 bound_to 6896
  151.5291  133.3446  159.2923 H   0  0  0  0  0  0  0  0  0  0  0  0  # atno 6908 bound_to 6896
  150.8539  134.7902  159.7093 H   0  0  0  0  0  0  0  0  0  0  0  0  # atno 6909 bound_to 6896
  146.1794  140.4186  142.8500 H   0  0  0  0  0  0  0  0  0  0  0  0  # atno 7974 bound_to 7965
  155.9040  140.1046  157.1328 H   0  0  0  0  0  0  0  0  0  0  0  0  # atno 8008 bound_to 7997
  154.4030  140.1287  156.4537 H   0  0  0  0  0  0  0  0  0  0  0  0  # atno 8009 bound_to 7997
  155.7389  140.3467  155.5097 H   0  0  0  0  0  0  0  0  0  0  0  0  # atno 8010 bound_to 7997
  140.6871  143.2896  151.3592 H   0  0  0  0  0  0  0  0  0  0  0  0  # atno 10167 bound_to 10162
  156.6956  130.9176  151.3074 H   0  0  0  0  0  0  0  0  0  0  0  0  # atno 10718 bound_to 10713
  153.7390  135.3227  155.3300 H   0  0  0  0  0  0  0  0  0  0  0  0  # atno 10763 bound_to 10752
  154.8301  135.4540  154.1046 H   0  0  0  0  0  0  0  0  0  0  0  0  # atno 10764 bound_to 10752
  153.2215  135.6949  153.8076 H   0  0  0  0  0  0  0  0  0  0  0  0  # atno 10765 bound_to 10752
  140.6113  134.4846  157.5215 H   0  0  0  0  0  0  0  0  0  0  0  0  # atno 11005 bound_to 11000
  144.8290  140.6675  143.6303 LP  0  0  0  0  0  0  0  0  0  0  0  0  # atno 17320 bound_to 7965
  145.4119  139.1578  143.4121 LP  0  0  0  0  0  0  0  0  0  0  0  0  # atno 17321 bound_to 7965
  139.6239  144.0853  152.2416 LP  0  0  0  0  0  0  0  0  0  0  0  0  # atno 17342 bound_to 10162
  140.0306  144.6083  150.7491 LP  0  0  0  0  0  0  0  0  0  0  0  0  # atno 17343 bound_to 10162
  157.6992  130.9315  150.0736 LP  0  0  0  0  0  0  0  0  0  0  0  0  # atno 17370 bound_to 10713
  156.1766  130.3648  149.9092 LP  0  0  0  0  0  0  0  0  0  0  0  0  # atno 17371 bound_to 10713
  139.9191  134.8185  156.1269 LP  0  0  0  0  0  0  0  0  0  0  0  0  # atno 17394 bound_to 11000
  141.0806  133.6756  156.2328 LP  0  0  0  0  0  0  0  0  0  0  0  0  # atno 17395 bound_to 11000

$$$$
