AV-unprocessed.smi:587|AV-procd|sdf|3002|dock8
  -GOLD-   2262023513D 1   1.00000     0.00000
 Structure written by MMmdl.
 46 48  0  0  0  0  0  0  0  0  1 V2000
  151.7821  144.2592  161.4930 C   0  0  0  0  0  0  0  0  0  0  0  0
  152.0228  143.2292  160.5041 N   0  0  0  0  0  0  0  0  0  0  0  0
  152.7326  142.0546  160.7436 C   0  0  0  0  0  0  0  0  0  0  0  0
  153.2920  141.8689  161.9971 N   0  0  0  0  0  0  0  0  0  0  0  0
  152.9167  141.1186  159.7717 C   0  0  0  0  0  0  0  0  0  0  0  0
  153.6222  139.9307  159.9693 N   0  0  0  0  0  0  0  0  0  0  0  0
  154.9798  139.8836  160.5106 C   0  0  0  0  0  0  0  0  0  0  0  0
  155.9506  139.1832  159.5411 C   0  0  0  0  0  0  0  0  0  0  0  0
  155.4232  137.7976  159.1374 C   0  0  0  0  0  0  0  0  0  0  0  0
  153.9899  137.9102  158.5958 C   0  0  0  0  0  0  0  0  0  0  0  0
  153.0796  138.6213  159.6106 C   0  0  0  0  0  0  0  0  0  0  0  0
  152.3600  141.3199  158.4273 C   0  0  0  0  0  0  0  0  0  0  0  0
  152.4774  140.5007  157.5123 O   0  0  0  0  0  0  0  0  0  0  0  0
  151.6663  142.5315  158.2106 N   0  0  0  0  0  0  0  0  0  0  0  0
  151.1296  142.8124  156.8592 C   0  0  0  0  0  0  0  0  0  0  0  0
  150.0239  141.8377  156.4238 C   0  0  0  0  0  0  0  0  0  0  0  0
  150.2297  140.6238  156.3749 O   0  0  0  0  0  0  0  0  0  0  0  0
  148.8461  142.3967  156.1108 N   0  0  0  0  0  0  0  0  0  0  0  0
  147.6776  141.6895  155.6968 C   0  0  0  0  0  0  0  0  0  0  0  0
  147.6748  141.0789  154.3122 C   0  0  0  0  0  0  0  0  0  0  0  0
  146.8450  142.3017  154.5912 C   0  0  0  0  0  0  0  0  0  0  0  0
  151.5008  143.5021  159.2194 C   0  0  0  0  0  0  0  0  0  0  0  0
  150.9159  144.5628  158.9787 O   0  0  0  0  0  0  0  0  0  0  0  0
  152.0599  143.9043  162.4833 H   0  0  0  0  0  0  0  0  0  0  0  0
  150.7149  144.4892  161.4901 H   0  0  0  0  0  0  0  0  0  0  0  0
  152.3848  145.1241  161.2109 H   0  0  0  0  0  0  0  0  0  0  0  0
  153.1916  142.5634  162.7234 H   0  0  0  0  0  0  0  0  0  0  0  0
  153.7001  140.9874  162.2725 H   0  0  0  0  0  0  0  0  0  0  0  0
  155.3335  140.8916  160.7307 H   0  0  0  0  0  0  0  0  0  0  0  0
  154.9548  139.3524  161.4630 H   0  0  0  0  0  0  0  0  0  0  0  0
  156.0888  139.7915  158.6474 H   0  0  0  0  0  0  0  0  0  0  0  0
  156.9340  139.0890  160.0020 H   0  0  0  0  0  0  0  0  0  0  0  0
  156.0761  137.3482  158.3886 H   0  0  0  0  0  0  0  0  0  0  0  0
  155.4361  137.1340  160.0030 H   0  0  0  0  0  0  0  0  0  0  0  0
  153.9942  138.4661  157.6572 H   0  0  0  0  0  0  0  0  0  0  0  0
  153.5958  136.9192  158.3695 H   0  0  0  0  0  0  0  0  0  0  0  0
  152.9751  138.0200  160.5148 H   0  0  0  0  0  0  0  0  0  0  0  0
  152.0792  138.7279  159.1889 H   0  0  0  0  0  0  0  0  0  0  0  0
  150.7377  143.8287  156.7960 H   0  0  0  0  0  0  0  0  0  0  0  0
  151.9232  142.7939  156.1105 H   0  0  0  0  0  0  0  0  0  0  0  0
  148.7677  143.4012  156.1787 H   0  0  0  0  0  0  0  0  0  0  0  0
  147.1237  141.1474  156.4621 H   0  0  0  0  0  0  0  0  0  0  0  0
  148.5647  141.2043  153.6982 H   0  0  0  0  0  0  0  0  0  0  0  0
  147.1506  140.1339  154.1837 H   0  0  0  0  0  0  0  0  0  0  0  0
  145.7656  142.1744  154.6462 H   0  0  0  0  0  0  0  0  0  0  0  0
  147.1810  143.2435  154.1611 H   0  0  0  0  0  0  0  0  0  0  0  0
  1  2  1  0  0  0  0
  1 24  1  0  0  0  0
  1 25  1  0  0  0  0
  1 26  1  0  0  0  0
  2 22  1  0  0  0  0
  2  3  1  0  0  0  0
  3  4  1  0  0  0  0
  3  5  2  0  0  0  0
  4 27  1  0  0  0  0
  4 28  1  0  0  0  0
  5  6  1  0  0  0  0
  5 12  1  0  0  0  0
  6 11  1  0  0  0  0
  6  7  1  0  0  0  0
  7  8  1  0  0  0  0
  7 29  1  0  0  0  0
  7 30  1  0  0  0  0
  8  9  1  0  0  0  0
  8 31  1  0  0  0  0
  8 32  1  0  0  0  0
  9 10  1  0  0  0  0
  9 33  1  0  0  0  0
  9 34  1  0  0  0  0
 10 11  1  0  0  0  0
 10 35  1  0  0  0  0
 10 36  1  0  0  0  0
 11 37  1  0  0  0  0
 11 38  1  0  0  0  0
 12 13  2  0  0  0  0
 12 14  1  0  0  0  0
 14 15  1  0  0  0  0
 14 22  1  0  0  0  0
 15 16  1  0  0  0  0
 15 39  1  0  0  0  0
 15 40  1  0  0  0  0
 16 17  2  0  0  0  0
 16 18  1  0  0  0  0
 18 19  1  0  0  0  0
 18 41  1  0  0  0  0
 19 21  1  0  0  0  0
 19 20  1  0  0  0  0
 19 42  1  0  0  0  0
 20 21  1  0  0  0  0
 20 43  1  0  0  0  0
 20 44  1  0  0  0  0
 21 45  1  0  0  0  0
 21 46  1  0  0  0  0
 22 23  2  0  0  0  0
M  END
> <s_m_source_file>
AV-unprocessed.smi

> <i_m_source_file_index>
587

> <i_lp_mmshare_version>
43012

> <i_f3d_flags>
0

> <s_epik_input>
W0NIMl0xW0NIMl1bQ0gyXVtDSDJdW0NIMl1OMWMoYyhbTkgyXSluMltDSDNdKWMoPU8pbihjMj1PKVtDSDJdQyg9TylbTkhdW0NIXTNbQ0gyXVtDSDJdMw==

> <s_epik_cmdline>
J2VwaWtfcHl0aG9uJywgJy1waCcsICc3LjAnLCAnLXRuJywgJzgnLCAnLW1hJywgJzIwMCcsICctbWV0YWxfYmluZGluZycsICctaW1hZScsICc8aW5maWxlLm1hZT4nLCAnLW9tYWUnLCAnPG91dGZpbGUubWFlPic=

> <r_lp_tautomer_probability>
0.999881

> <r_epik_Ionization_Penalty>
0.00852669

> <r_epik_Ionization_Penalty_Charging>
2.6249e-08

> <r_epik_Ionization_Penalty_Neutral>
0.00852666

> <r_epik_State_Penalty>
0.00667057

> <r_epik_Charging_Adjusted_Penalty>
0.00667059

> <i_epik_Tot_Q>
0

> <i_epik_Tot_abs_Q>
0

> <r_epik_Metal_State_Penalty>
0.00667057

> <b_epik_Metal_Only>
0

> <s_lp_Force_Field>
OPLS_2005

> <r_lp_Energy>
38.4775

> <b_lp_Chiralities_Consistent>
1

> <s_lp_Variant>
AV-unprocessed.smi:587-1

> <Gold.Version>
5.8.1

> <Gold.Id.Protein>
6NUR|6NUR_protein|mol2

> <Gold.PLP.Fitness>
46.5715

> <Gold.PLP.PLP>
-41.1861

> <Gold.PLP.part.hbond>
-2.0000

> <Gold.PLP.part.metal>
0.0000

> <Gold.PLP.part.buried>
-7.1502

> <Gold.PLP.part.nonpolar>
-32.2750

> <Gold.PLP.part.repulsive>
0.3666

> <Gold.PLP.ligand.clash>
0.0022

> <Gold.PLP.ligand.torsion>
1.1549

> <Gold.PLP.Chemscore.Hbond>
1.9440

> <Gold.PLP.Chemscore.CHOScore>
0.0000

> <Gold.PLP.Chemscore.Metal>
0.0000

> <Gold.Chemscore.Hbonds>
donor molecule, donor type, donor heavy atom, donor atom, acceptor molecule, acceptor atom, score
      L1  H    18    41       P1  8028  0.71
      P1  H  7997  8008       L1    13  0.69

> <Gold.PLP.Chemscore.Internal.Correction>
1.8654

> <Gold.Rescore>
     Score         DG    S(hbond)    S(metal)    S(lipo)     H(rot)  DE(clash)    DE(int)     intcor
     10.67     -16.07       1.81        0.00      72.98       1.56       0.38       5.02       ----

> <Gold.Chemscore.Fitness>
10.6748

> <Gold.Chemscore.DG>
-16.0717

> <Gold.Chemscore.ZeroCoef>
-5.4800

> <Gold.Chemscore.Hbond>
1.8085

> <Gold.Chemscore.Metal>
0.0000

> <Gold.Chemscore.Lipo>
72.9822

> <Gold.Chemscore.Internal_Hbond>
0.0000

> <Gold.Chemscore.DEClash>
0.3792

> <Gold.Chemscore.DEInternal>
5.0178

> <Gold.Chemscore.Rot>
1.5577

> <Gold.Chemscore.Internal.Correction>
   9.000000E+99

> <Gold.Chemscore.Hbonds>
donor molecule, donor type, donor heavy atom, donor atom, acceptor molecule, acceptor atom, score
      L1  H    18    41       P1  8028  0.68
      P1  H  7997  8008       L1    13  0.64

> <Gold.Chemscore.Hbond.Weighted>
-6.0405

> <Gold.Chemscore.Metal.Weighted>
-0.0000

> <Gold.Chemscore.Lipo.Weighted>
-8.5389

> <Gold.Chemscore.Internal_Hbond.Weighted>
0.0000

> <Gold.Chemscore.DEClash.Weighted>
0.3792

> <Gold.Chemscore.DEInternal.Weighted>
5.0178

> <Gold.Chemscore.Rot.Weighted>
3.9877

> <Gold.Chemscore.Internal.Correction.Weighted>
   9.000000E+99

> <Gold.Protein.RotatedTorsions>
[ 6907 6896 6895 6894 ] final  -23.65 input  -60.11 | X-H torsion
[ 7974 7965 7964 7962 ] final   -9.02 input  175.53 | X-H torsion
[ 8008 7997 7996 7995 ] final  -66.09 input   59.86 | X-H torsion
[ 10167 10162 10161 10158 ] final  -93.35 input  -65.29 | X-H torsion
[ 10718 10713 10712 10709 ] final  147.06 input   66.30 | X-H torsion
[ 10763 10752 10751 10750 ] final   13.17 input  -60.55 | X-H torsion
[ 11005 11000 10999 10996 ] final -160.37 input  -57.11 | X-H torsion

> <Gold.Protein.ActiveResidues>
 VAL166  LYS551  ARG553  GLY616  TRP617  ASP618  TYR619  PRO620  LYS621  CYS622 
 ASP623  PHE694  ASN695  SER759  ASP760  ASP761  ALA762  ILE779  LEU786  VAL792 
 PHE793  MET794  SER795  GLU796  ALA797  LYS798  CYS799  TRP800  GLU811  SER814 

> <Gold.Protein.RotatedAtoms>
  151.2009  135.0442  159.8871 H   0  0  0  0  0  0  0  0  0  0  0  0  # atno 6907 bound_to 6896
  152.5432  134.0851  159.8262 H   0  0  0  0  0  0  0  0  0  0  0  0  # atno 6908 bound_to 6896
  151.0991  133.5209  159.2643 H   0  0  0  0  0  0  0  0  0  0  0  0  # atno 6909 bound_to 6896
  146.2264  140.2554  142.8349 H   0  0  0  0  0  0  0  0  0  0  0  0  # atno 7974 bound_to 7965
  154.4712  140.0920  156.7149 H   0  0  0  0  0  0  0  0  0  0  0  0  # atno 8008 bound_to 7997
  155.4719  140.3464  155.4308 H   0  0  0  0  0  0  0  0  0  0  0  0  # atno 8009 bound_to 7997
  156.1042  140.1430  156.9415 H   0  0  0  0  0  0  0  0  0  0  0  0  # atno 8010 bound_to 7997
  140.3255  143.3024  151.9999 H   0  0  0  0  0  0  0  0  0  0  0  0  # atno 10167 bound_to 10162
  157.3256  131.0911  151.1205 H   0  0  0  0  0  0  0  0  0  0  0  0  # atno 10718 bound_to 10713
  153.1748  135.6818  153.8558 H   0  0  0  0  0  0  0  0  0  0  0  0  # atno 10763 bound_to 10752
  153.7910  135.3169  155.3379 H   0  0  0  0  0  0  0  0  0  0  0  0  # atno 10764 bound_to 10752
  154.8022  135.4771  154.0396 H   0  0  0  0  0  0  0  0  0  0  0  0  # atno 10765 bound_to 10752
  140.6322  134.4639  157.5230 H   0  0  0  0  0  0  0  0  0  0  0  0  # atno 11005 bound_to 11000
  144.9379  140.8047  143.5648 LP  0  0  0  0  0  0  0  0  0  0  0  0  # atno 17320 bound_to 7965
  145.2504  139.2034  143.4945 LP  0  0  0  0  0  0  0  0  0  0  0  0  # atno 17321 bound_to 7965
  139.4866  144.6277  151.7132 LP  0  0  0  0  0  0  0  0  0  0  0  0  # atno 17342 bound_to 10162
  140.5445  144.0526  150.6101 LP  0  0  0  0  0  0  0  0  0  0  0  0  # atno 17343 bound_to 10162
  157.2473  130.6597  149.5916 LP  0  0  0  0  0  0  0  0  0  0  0  0  # atno 17370 bound_to 10713
  155.9690  130.4549  150.5869 LP  0  0  0  0  0  0  0  0  0  0  0  0  # atno 17371 bound_to 10713
  139.9112  134.8342  156.1524 LP  0  0  0  0  0  0  0  0  0  0  0  0  # atno 17394 bound_to 11000
  141.0667  133.6816  156.2059 LP  0  0  0  0  0  0  0  0  0  0  0  0  # atno 17395 bound_to 11000

$$$$
