AV-unprocessed.smi:456|AV-procd|sdf|2618|dock1
  -GOLD-   2262023 13D 1   1.00000     0.00000
 Structure written by MMmdl.
 33 35  0  0  0  0  0  0  0  0  2 V2000
  152.3927  139.7258  154.9238 O   0  0  0  0  0  0  0  0  0  0  0  0
  151.5880  139.0944  155.9015 C   0  0  1  0  0  0  0  0  0  0  0  0
  151.8315  139.7501  157.2748 C   0  0  0  0  0  0  0  0  0  0  0  0
  151.4631  141.1716  157.3018 N   0  0  0  0  0  0  0  0  0  0  0  0
  150.8202  141.9267  156.3702 C   0  0  0  0  0  0  0  0  0  0  0  0
  150.7188  143.1913  156.8659 N   0  3  0  0  0  0  0  0  0  0  0  0
  151.3069  143.2446  158.1320 C   0  0  0  0  0  0  0  0  0  0  0  0
  151.4523  144.2989  159.0276 C   0  0  0  0  0  0  0  0  0  0  0  0
  152.1078  144.0136  160.2437 C   0  0  0  0  0  0  0  0  0  0  0  0
  152.2752  145.0036  161.1519 F   0  0  0  0  0  0  0  0  0  0  0  0
  152.5913  142.7191  160.5311 C   0  0  0  0  0  0  0  0  0  0  0  0
  153.2150  142.4882  161.7105 F   0  0  0  0  0  0  0  0  0  0  0  0
  152.4387  141.6580  159.6145 C   0  0  0  0  0  0  0  0  0  0  0  0
  151.7880  141.9496  158.4169 C   0  0  0  0  0  0  0  0  0  0  0  0
  150.1125  139.1133  155.5358 C   0  0  0  0  0  0  0  0  0  0  0  0
  149.1863  138.3848  156.3131 C   0  0  0  0  0  0  0  0  0  0  0  0
  147.8161  138.4040  155.9881 C   0  0  0  0  0  0  0  0  0  0  0  0
  147.3633  139.1546  154.8861 C   0  0  0  0  0  0  0  0  0  0  0  0
  148.2818  139.8868  154.1095 C   0  0  0  0  0  0  0  0  0  0  0  0
  149.6523  139.8672  154.4334 C   0  0  0  0  0  0  0  0  0  0  0  0
  153.3002  139.5750  155.1411 H   0  0  0  0  0  0  0  0  0  0  0  0
  151.9133  138.0541  155.9434 H   0  0  0  0  0  0  0  0  0  0  0  0
  151.2485  139.2458  158.0469 H   0  0  0  0  0  0  0  0  0  0  0  0
  152.8778  139.6598  157.5702 H   0  0  0  0  0  0  0  0  0  0  0  0
  150.4597  141.5845  155.4107 H   0  0  0  0  0  0  0  0  0  0  0  0
  151.0846  145.2913  158.8116 H   0  0  0  0  0  0  0  0  0  0  0  0
  152.8133  140.6713  159.8430 H   0  0  0  0  0  0  0  0  0  0  0  0
  149.5226  137.8088  157.1629 H   0  0  0  0  0  0  0  0  0  0  0  0
  147.1119  137.8436  156.5855 H   0  0  0  0  0  0  0  0  0  0  0  0
  146.3124  139.1700  154.6377 H   0  0  0  0  0  0  0  0  0  0  0  0
  147.9348  140.4651  153.2657 H   0  0  0  0  0  0  0  0  0  0  0  0
  150.3484  140.4355  153.8338 H   0  0  0  0  0  0  0  0  0  0  0  0
  150.2811  143.9593  156.3729 H   0  0  0  0  0  0  0  0  0  0  0  0
  1  2  1  0  0  0  0
  1 21  1  0  0  0  0
  2  3  1  0  0  0  0
  2 15  1  0  0  0  0
  2 22  1  0  0  0  0
  3  4  1  0  0  0  0
  3 23  1  0  0  0  0
  3 24  1  0  0  0  0
  4 14  1  0  0  0  0
  4  5  1  0  0  0  0
  5  6  2  0  0  0  0
  5 25  1  0  0  0  0
  6  7  1  0  0  0  0
  6 33  1  0  0  0  0
  7 14  2  0  0  0  0
  7  8  1  0  0  0  0
  8  9  2  0  0  0  0
  8 26  1  0  0  0  0
  9 10  1  0  0  0  0
  9 11  1  0  0  0  0
 11 12  1  0  0  0  0
 11 13  2  0  0  0  0
 13 14  1  0  0  0  0
 13 27  1  0  0  0  0
 15 20  1  0  0  0  0
 15 16  2  0  0  0  0
 16 17  1  0  0  0  0
 16 28  1  0  0  0  0
 17 18  2  0  0  0  0
 17 29  1  0  0  0  0
 18 19  1  0  0  0  0
 18 30  1  0  0  0  0
 19 20  2  0  0  0  0
 19 31  1  0  0  0  0
 20 32  1  0  0  0  0
M  CHG  1   6   1
M  END
> <s_m_source_file>
AV-unprocessed.smi

> <i_m_source_file_index>
456

> <i_lp_mmshare_version>
43012

> <i_f3d_flags>
0

> <s_epik_input>
W2NIXTFbY0hdW2NIXVtjSF1bY0hdYzFbQ0BIXShbT0hdKVtDSDJdbihbY0hdbjIpYyhjMjMpW2NIXWMoRiljKEYpW2NIXTM=

> <s_epik_cmdline>
J2VwaWtfcHl0aG9uJywgJy1waCcsICc3LjAnLCAnLXRuJywgJzgnLCAnLW1hJywgJzIwMCcsICctbWV0YWxfYmluZGluZycsICctaW1hZScsICc8aW5maWxlLm1hZT4nLCAnLW9tYWUnLCAnPG91dGZpbGUubWFlPic=

> <r_epik_Ionization_Penalty>
2.16139

> <r_epik_Ionization_Penalty_Charging>
2.16138

> <r_epik_Ionization_Penalty_Neutral>
1.34362e-06

> <r_epik_State_Penalty>
2.30198

> <r_epik_Charging_Adjusted_Penalty>
4.46337

> <i_epik_Tot_Q>
1

> <i_epik_Tot_abs_Q>
1

> <r_epik_Metal_State_Penalty>
6.38245

> <b_epik_Metal_Only>
0

> <s_lp_Force_Field>
OPLS_2005

> <r_lp_Energy>
14.9755

> <b_lp_Chiralities_Consistent>
1

> <s_lp_Variant>
AV-unprocessed.smi:456-4

> <Gold.Version>
5.8.1

> <Gold.Id.Protein>
6NUR|6NUR_protein|mol2

> <Gold.PLP.Fitness>
48.6118

> <Gold.PLP.PLP>
-40.8377

> <Gold.PLP.part.hbond>
-2.1116

> <Gold.PLP.part.metal>
0.0000

> <Gold.PLP.part.buried>
-4.0301

> <Gold.PLP.part.nonpolar>
-34.7728

> <Gold.PLP.part.repulsive>
0.0299

> <Gold.PLP.ligand.clash>
0.0000

> <Gold.PLP.ligand.torsion>
0.1608

> <Gold.PLP.Chemscore.Hbond>
2.6880

> <Gold.PLP.Chemscore.CHOScore>
0.0000

> <Gold.PLP.Chemscore.Metal>
0.0000

> <Gold.Chemscore.Hbonds>
donor molecule, donor type, donor heavy atom, donor atom, acceptor molecule, acceptor atom, score
      L1  H     6    33       P1  8028  2.00
      P1  H  7989  7998       L1     1  0.69

> <Gold.PLP.Chemscore.Internal.Correction>
0.0317

> <Gold.Rescore>
     Score         DG    S(hbond)    S(metal)    S(lipo)     H(rot)  DE(clash)    DE(int)     intcor
     15.23     -17.13       1.70        0.00      95.22       2.03       0.71       1.18       ----

> <Gold.Chemscore.Fitness>
15.2338

> <Gold.Chemscore.DG>
-17.1257

> <Gold.Chemscore.ZeroCoef>
-5.4800

> <Gold.Chemscore.Hbond>
1.7037

> <Gold.Chemscore.Metal>
0.0000

> <Gold.Chemscore.Lipo>
95.2222

> <Gold.Chemscore.Internal_Hbond>
0.0000

> <Gold.Chemscore.DEClash>
0.7103

> <Gold.Chemscore.DEInternal>
1.1816

> <Gold.Chemscore.Rot>
2.0256

> <Gold.Chemscore.Internal.Correction>
   9.000000E+99

> <Gold.Chemscore.Hbonds>
donor molecule, donor type, donor heavy atom, donor atom, acceptor molecule, acceptor atom, score
      L1  H     6    33       P1  8028  0.97
      P1  H  7989  7998       L1     1  0.67

> <Gold.Chemscore.Hbond.Weighted>
-5.6902

> <Gold.Chemscore.Metal.Weighted>
-0.0000

> <Gold.Chemscore.Lipo.Weighted>
-11.1410

> <Gold.Chemscore.Internal_Hbond.Weighted>
0.0000

> <Gold.Chemscore.DEClash.Weighted>
0.7103

> <Gold.Chemscore.DEInternal.Weighted>
1.1816

> <Gold.Chemscore.Rot.Weighted>
5.1855

> <Gold.Chemscore.Internal.Correction.Weighted>
   9.000000E+99

> <Gold.Protein.RotatedTorsions>
[ 6907 6896 6895 6894 ] final  -51.80 input  -60.11 | X-H torsion
[ 7974 7965 7964 7962 ] final  -68.52 input  175.53 | X-H torsion
[ 8008 7997 7996 7995 ] final   63.16 input   59.86 | X-H torsion
[ 10167 10162 10161 10158 ] final   16.56 input  -65.29 | X-H torsion
[ 10718 10713 10712 10709 ] final -150.07 input   66.30 | X-H torsion
[ 10763 10752 10751 10750 ] final  -16.54 input  -60.55 | X-H torsion
[ 11005 11000 10999 10996 ] final -126.82 input  -57.11 | X-H torsion

> <Gold.Protein.ActiveResidues>
 VAL166  LYS551  ARG553  GLY616  TRP617  ASP618  TYR619  PRO620  LYS621  CYS622 
 ASP623  PHE694  ASN695  SER759  ASP760  ASP761  ALA762  ILE779  LEU786  VAL792 
 PHE793  MET794  SER795  GLU796  ALA797  LYS798  CYS799  TRP800  GLU811  SER814 

> <Gold.Protein.RotatedAtoms>
  150.8578  134.7921  159.7058 H   0  0  0  0  0  0  0  0  0  0  0  0  # atno 6907 bound_to 6896
  152.4624  134.5150  159.9775 H   0  0  0  0  0  0  0  0  0  0  0  0  # atno 6908 bound_to 6896
  151.5260  133.3419  159.2945 H   0  0  0  0  0  0  0  0  0  0  0  0  # atno 6909 bound_to 6896
  145.7155  140.9060  143.0658 H   0  0  0  0  0  0  0  0  0  0  0  0  # atno 7974 bound_to 7965
  155.6258  140.3496  155.4667 H   0  0  0  0  0  0  0  0  0  0  0  0  # atno 8008 bound_to 7997
  156.0043  140.1220  157.0541 H   0  0  0  0  0  0  0  0  0  0  0  0  # atno 8009 bound_to 7997
  154.4259  140.1094  156.5726 H   0  0  0  0  0  0  0  0  0  0  0  0  # atno 8010 bound_to 7997
  140.5789  143.9019  150.6773 H   0  0  0  0  0  0  0  0  0  0  0  0  # atno 10167 bound_to 10162
  156.4413  130.8123  151.2353 H   0  0  0  0  0  0  0  0  0  0  0  0  # atno 10718 bound_to 10713
  153.5602  135.7010  153.5551 H   0  0  0  0  0  0  0  0  0  0  0  0  # atno 10763 bound_to 10752
  153.3436  135.4014  155.1591 H   0  0  0  0  0  0  0  0  0  0  0  0  # atno 10764 bound_to 10752
  154.8649  135.3748  154.5118 H   0  0  0  0  0  0  0  0  0  0  0  0  # atno 10765 bound_to 10752
  140.9650  134.0883  157.3929 H   0  0  0  0  0  0  0  0  0  0  0  0  # atno 11005 bound_to 11000
  144.6930  139.9132  143.7464 LP  0  0  0  0  0  0  0  0  0  0  0  0  # atno 17320 bound_to 7965
  146.0673  139.3664  143.0544 LP  0  0  0  0  0  0  0  0  0  0  0  0  # atno 17321 bound_to 7965
  140.2513  143.3591  152.1403 LP  0  0  0  0  0  0  0  0  0  0  0  0  # atno 17342 bound_to 10162
  139.5158  144.6968  151.5606 LP  0  0  0  0  0  0  0  0  0  0  0  0  # atno 17343 bound_to 10162
  157.7506  131.0167  150.3556 LP  0  0  0  0  0  0  0  0  0  0  0  0  # atno 17370 bound_to 10713
  156.3914  130.3898  149.7027 LP  0  0  0  0  0  0  0  0  0  0  0  0  # atno 17371 bound_to 10713
  139.8891  135.0103  156.6662 LP  0  0  0  0  0  0  0  0  0  0  0  0  # atno 17394 bound_to 11000
  140.7412  133.8976  155.8279 LP  0  0  0  0  0  0  0  0  0  0  0  0  # atno 17395 bound_to 11000

$$$$
