AV-unprocessed.smi:1695|AV-procd|sdf|6797|dock6
  -GOLD-   22720 7563D 1   1.00000     0.00000
 Structure written by MMmdl.
 50 52  0  0  0  0  0  0  0  0  1 V2000
  152.8788  143.1418  161.7769 C   0  0  0  0  0  0  0  0  0  0  0  0
  152.3210  142.7421  160.4223 C   0  0  0  0  0  0  0  0  0  0  0  0
  152.4126  141.3929  160.0126 C   0  0  0  0  0  0  0  0  0  0  0  0
  151.9091  140.9806  158.7594 C   0  0  0  0  0  0  0  0  0  0  0  0
  151.8937  139.7310  158.1638 N   0  0  0  0  0  0  0  0  0  0  0  0
  151.2936  139.9937  157.0063 C   0  0  0  0  0  0  0  0  0  0  0  0
  150.9178  141.2675  156.7818 N   0  0  0  0  0  0  0  0  0  0  0  0
  150.2531  141.7917  155.6021 C   0  0  0  0  0  0  0  0  0  0  0  0
  149.4018  140.7286  154.8799 C   0  0  2  0  0  0  0  0  0  0  0  0
  150.2278  140.0405  153.9595 O   0  0  0  0  0  0  0  0  0  0  0  0
  148.2189  141.3634  154.1182 C   0  0  0  0  0  0  0  0  0  0  0  0
  147.1673  140.4343  153.7014 N   0  0  0  0  0  0  0  0  0  0  0  0
  146.7818  139.5083  154.7696 C   0  0  0  0  0  0  0  0  0  0  0  0
  145.6462  138.5590  154.3502 C   0  0  0  0  0  0  0  0  0  0  0  0
  146.0388  137.7597  153.0914 C   0  0  0  0  0  0  0  0  0  0  0  0
  144.8827  136.8748  152.6063 C   0  0  0  0  0  0  0  0  0  0  0  0
  143.7465  137.4898  152.2686 N   0  0  0  0  0  0  0  0  0  0  0  0
  145.0097  135.6537  152.5368 O   0  0  0  0  0  0  0  0  0  0  0  0
  146.4870  138.7433  151.9928 C   0  0  0  0  0  0  0  0  0  0  0  0
  147.5879  139.6773  152.5217 C   0  0  0  0  0  0  0  0  0  0  0  0
  151.3061  141.9632  157.9209 C   0  0  0  0  0  0  0  0  0  0  0  0
  151.2068  143.3081  158.3180 C   0  0  0  0  0  0  0  0  0  0  0  0
  151.7146  143.7029  159.5734 C   0  0  0  0  0  0  0  0  0  0  0  0
  151.6034  145.1581  159.9923 C   0  0  0  0  0  0  0  0  0  0  0  0
  153.3625  142.2998  162.2725 H   0  0  0  0  0  0  0  0  0  0  0  0
  152.0803  143.4998  162.4270 H   0  0  0  0  0  0  0  0  0  0  0  0
  153.6193  143.9343  161.6682 H   0  0  0  0  0  0  0  0  0  0  0  0
  152.8724  140.6604  160.6594 H   0  0  0  0  0  0  0  0  0  0  0  0
  151.1137  139.2149  156.2795 H   0  0  0  0  0  0  0  0  0  0  0  0
  149.6264  142.6285  155.9132 H   0  0  0  0  0  0  0  0  0  0  0  0
  151.0074  142.2004  154.9277 H   0  0  0  0  0  0  0  0  0  0  0  0
  149.0286  140.0177  155.6189 H   0  0  0  0  0  0  0  0  0  0  0  0
  149.7636  139.9671  153.1397 H   0  0  0  0  0  0  0  0  0  0  0  0
  147.7611  142.0940  154.7865 H   0  0  0  0  0  0  0  0  0  0  0  0
  148.5789  141.9424  153.2660 H   0  0  0  0  0  0  0  0  0  0  0  0
  147.6482  138.9247  155.0852 H   0  0  0  0  0  0  0  0  0  0  0  0
  146.4477  140.0654  155.6442 H   0  0  0  0  0  0  0  0  0  0  0  0
  145.4141  137.8797  155.1712 H   0  0  0  0  0  0  0  0  0  0  0  0
  144.7425  139.1427  154.1656 H   0  0  0  0  0  0  0  0  0  0  0  0
  146.8863  137.1198  153.3442 H   0  0  0  0  0  0  0  0  0  0  0  0
  142.9580  136.9508  151.9411 H   0  0  0  0  0  0  0  0  0  0  0  0
  143.6817  138.4949  152.3402 H   0  0  0  0  0  0  0  0  0  0  0  0
  146.8555  138.1971  151.1238 H   0  0  0  0  0  0  0  0  0  0  0  0
  145.6421  139.3424  151.6487 H   0  0  0  0  0  0  0  0  0  0  0  0
  147.8715  140.3664  151.7251 H   0  0  0  0  0  0  0  0  0  0  0  0
  148.4797  139.0932  152.7550 H   0  0  0  0  0  0  0  0  0  0  0  0
  150.7428  144.0287  157.6607 H   0  0  0  0  0  0  0  0  0  0  0  0
  151.0481  145.7420  159.2577 H   0  0  0  0  0  0  0  0  0  0  0  0
  152.5944  145.6009  160.0940 H   0  0  0  0  0  0  0  0  0  0  0  0
  151.0846  145.2448  160.9473 H   0  0  0  0  0  0  0  0  0  0  0  0
  1  2  1  0  0  0  0
  1 25  1  0  0  0  0
  1 26  1  0  0  0  0
  1 27  1  0  0  0  0
  2 23  1  0  0  0  0
  2  3  2  0  0  0  0
  3  4  1  0  0  0  0
  3 28  1  0  0  0  0
  4 21  2  0  0  0  0
  4  5  1  0  0  0  0
  5  6  2  0  0  0  0
  6  7  1  0  0  0  0
  6 29  1  0  0  0  0
  7  8  1  0  0  0  0
  7 21  1  0  0  0  0
  8  9  1  0  0  0  0
  8 30  1  0  0  0  0
  8 31  1  0  0  0  0
  9 10  1  0  0  0  0
  9 11  1  0  0  0  0
  9 32  1  0  0  0  0
 10 33  1  0  0  0  0
 11 12  1  0  0  0  0
 11 34  1  0  0  0  0
 11 35  1  0  0  0  0
 12 20  1  0  0  0  0
 12 13  1  0  0  0  0
 13 14  1  0  0  0  0
 13 36  1  0  0  0  0
 13 37  1  0  0  0  0
 14 15  1  0  0  0  0
 14 38  1  0  0  0  0
 14 39  1  0  0  0  0
 15 16  1  0  0  0  0
 15 19  1  0  0  0  0
 15 40  1  0  0  0  0
 16 17  1  0  0  0  0
 16 18  2  0  0  0  0
 17 41  1  0  0  0  0
 17 42  1  0  0  0  0
 19 20  1  0  0  0  0
 19 43  1  0  0  0  0
 19 44  1  0  0  0  0
 20 45  1  0  0  0  0
 20 46  1  0  0  0  0
 21 22  1  0  0  0  0
 22 23  2  0  0  0  0
 22 47  1  0  0  0  0
 23 24  1  0  0  0  0
 24 48  1  0  0  0  0
 24 49  1  0  0  0  0
 24 50  1  0  0  0  0
M  END
> <s_m_source_file>
AV-unprocessed.smi

> <i_m_source_file_index>
1695

> <i_lp_mmshare_version>
43012

> <i_f3d_flags>
0

> <s_epik_input>
W0NIM11jKFtjSF0xKWMoW0NIM10pW2NIXWMoYzEyKW4oW2NIXW4yKVtDSDJdW0NASF0oW09IXSlbQ0gyXU4zW0NIMl1bQ0gyXVtDSF0oQyg9TylbTkgyXSlbQ0gyXVtDSDJdMw==

> <s_epik_cmdline>
J2VwaWtfcHl0aG9uJywgJy1waCcsICc3LjAnLCAnLXRuJywgJzgnLCAnLW1hJywgJzIwMCcsICctbWV0YWxfYmluZGluZycsICctaW1hZScsICc8aW5maWxlLm1hZT4nLCAnLW9tYWUnLCAnPG91dGZpbGUubWFlPic=

> <r_epik_Ionization_Penalty>
1.9508

> <r_epik_Ionization_Penalty_Charging>
0

> <r_epik_Ionization_Penalty_Neutral>
1.9508

> <r_epik_State_Penalty>
2.03746

> <r_epik_Charging_Adjusted_Penalty>
2.03746

> <i_epik_Tot_Q>
0

> <i_epik_Tot_abs_Q>
0

> <r_epik_Metal_State_Penalty>
2.03012

> <b_epik_Metal_Only>
0

> <s_lp_Force_Field>
OPLS_2005

> <r_lp_Energy>
30.2081

> <b_lp_Chiralities_Consistent>
1

> <s_lp_Variant>
AV-unprocessed.smi:1695-9

> <Gold.Version>
5.8.1

> <Gold.Id.Protein>
6NUR|6NUR_protein|mol2

> <Gold.PLP.Fitness>
55.5355

> <Gold.PLP.PLP>
-48.4709

> <Gold.PLP.part.hbond>
-4.0000

> <Gold.PLP.part.metal>
0.0000

> <Gold.PLP.part.buried>
-3.0894

> <Gold.PLP.part.nonpolar>
-42.4597

> <Gold.PLP.part.repulsive>
0.2846

> <Gold.PLP.ligand.clash>
0.0000

> <Gold.PLP.ligand.torsion>
0.9403

> <Gold.PLP.Chemscore.Hbond>
2.9760

> <Gold.PLP.Chemscore.CHOScore>
0.0000

> <Gold.PLP.Chemscore.Metal>
0.0000

> <Gold.Chemscore.Hbonds>
donor molecule, donor type, donor heavy atom, donor atom, acceptor molecule, acceptor atom, score
      L1  H    10    33       P1  7957  1.00
      L1  H    17    42       P1 10175  1.00
      P1  H  7989  7998       L1    10  0.94

> <Gold.PLP.Chemscore.Internal.Correction>
0.0171

> <Gold.Rescore>
     Score         DG    S(hbond)    S(metal)    S(lipo)     H(rot)  DE(clash)    DE(int)     intcor
     19.72     -22.39       2.56        0.00     132.36       2.78       1.74       0.92       ----

> <Gold.Chemscore.Fitness>
19.7198

> <Gold.Chemscore.DG>
-22.3894

> <Gold.Chemscore.ZeroCoef>
-5.4800

> <Gold.Chemscore.Hbond>
2.5606

> <Gold.Chemscore.Metal>
0.0000

> <Gold.Chemscore.Lipo>
132.3625

> <Gold.Chemscore.Internal_Hbond>
0.0000

> <Gold.Chemscore.DEClash>
1.7448

> <Gold.Chemscore.DEInternal>
0.9248

> <Gold.Chemscore.Rot>
2.7849

> <Gold.Chemscore.Internal.Correction>
   9.000000E+99

> <Gold.Chemscore.Hbonds>
donor molecule, donor type, donor heavy atom, donor atom, acceptor molecule, acceptor atom, score
      L1  H    10    33       P1  7957  0.95
      L1  H    17    42       P1 10175  0.99
      P1  H  7989  7998       L1    10  0.25

> <Gold.Chemscore.Hbond.Weighted>
-8.5524

> <Gold.Chemscore.Metal.Weighted>
-0.0000

> <Gold.Chemscore.Lipo.Weighted>
-15.4864

> <Gold.Chemscore.Internal_Hbond.Weighted>
0.0000

> <Gold.Chemscore.DEClash.Weighted>
1.7448

> <Gold.Chemscore.DEInternal.Weighted>
0.9248

> <Gold.Chemscore.Rot.Weighted>
7.1294

> <Gold.Chemscore.Internal.Correction.Weighted>
   9.000000E+99

> <Gold.Protein.RotatedTorsions>
[ 6907 6896 6895 6894 ] final  -53.22 input  -60.11 | X-H torsion
[ 7974 7965 7964 7962 ] final  -93.52 input  175.53 | X-H torsion
[ 8008 7997 7996 7995 ] final   -9.13 input   59.86 | X-H torsion
[ 10167 10162 10161 10158 ] final -123.54 input  -65.29 | X-H torsion
[ 10718 10713 10712 10709 ] final  -53.92 input   66.30 | X-H torsion
[ 10763 10752 10751 10750 ] final  -48.41 input  -60.55 | X-H torsion
[ 11005 11000 10999 10996 ] final -119.30 input  -57.11 | X-H torsion

> <Gold.Protein.ActiveResidues>
 VAL166  LYS551  ARG553  GLY616  TRP617  ASP618  TYR619  PRO620  LYS621  CYS622 
 ASP623  PHE694  ASN695  SER759  ASP760  ASP761  ALA762  ILE779  LEU786  VAL792 
 PHE793  MET794  SER795  GLU796  ALA797  LYS798  CYS799  TRP800  GLU811  SER814 

> <Gold.Protein.RotatedAtoms>
  150.8446  134.7751  159.6959 H   0  0  0  0  0  0  0  0  0  0  0  0  # atno 6907 bound_to 6896
  152.4526  134.5358  159.9834 H   0  0  0  0  0  0  0  0  0  0  0  0  # atno 6908 bound_to 6896
  151.5491  133.3382  159.2985 H   0  0  0  0  0  0  0  0  0  0  0  0  # atno 6909 bound_to 6896
  145.3854  140.9522  143.2370 H   0  0  0  0  0  0  0  0  0  0  0  0  # atno 7974 bound_to 7965
  154.5676  140.2363  155.8240 H   0  0  0  0  0  0  0  0  0  0  0  0  # atno 8008 bound_to 7997
  156.2081  140.3034  155.9629 H   0  0  0  0  0  0  0  0  0  0  0  0  # atno 8009 bound_to 7997
  155.2772  140.0421  157.3003 H   0  0  0  0  0  0  0  0  0  0  0  0  # atno 8010 bound_to 7997
  140.0024  143.5526  152.2298 H   0  0  0  0  0  0  0  0  0  0  0  0  # atno 10167 bound_to 10162
  156.1494  130.4152  149.9970 H   0  0  0  0  0  0  0  0  0  0  0  0  # atno 10718 bound_to 10713
  154.0774  135.6596  153.4833 H   0  0  0  0  0  0  0  0  0  0  0  0  # atno 10763 bound_to 10752
  153.0368  135.5171  154.7507 H   0  0  0  0  0  0  0  0  0  0  0  0  # atno 10764 bound_to 10752
  154.6592  135.3012  154.9856 H   0  0  0  0  0  0  0  0  0  0  0  0  # atno 10765 bound_to 10752
  141.0225  134.0102  157.3261 H   0  0  0  0  0  0  0  0  0  0  0  0  # atno 11005 bound_to 11000
  144.8478  139.5370  143.6870 LP  0  0  0  0  0  0  0  0  0  0  0  0  # atno 17320 bound_to 7965
  146.2823  139.6909  142.9220 LP  0  0  0  0  0  0  0  0  0  0  0  0  # atno 17321 bound_to 7965
  139.6262  144.7637  151.2633 LP  0  0  0  0  0  0  0  0  0  0  0  0  # atno 17342 bound_to 10162
  140.7413  143.6560  150.8206 LP  0  0  0  0  0  0  0  0  0  0  0  0  # atno 17343 bound_to 10162
  156.7832  130.9229  151.3646 LP  0  0  0  0  0  0  0  0  0  0  0  0  # atno 17370 bound_to 10713
  157.6644  130.8994  149.9900 LP  0  0  0  0  0  0  0  0  0  0  0  0  # atno 17371 bound_to 10713
  139.9155  135.0196  156.7864 LP  0  0  0  0  0  0  0  0  0  0  0  0  # atno 17394 bound_to 11000
  140.6548  133.9699  155.7773 LP  0  0  0  0  0  0  0  0  0  0  0  0  # atno 17395 bound_to 11000

$$$$
