AV-unprocessed.smi:1517|AV-procd|sdf|6122|dock1
  -GOLD-   22720 6253D 1   1.00000     0.00000
 Structure written by MMmdl.
 41 43  0  0  0  0  0  0  0  0  1 V2000
  151.9216  137.0344  155.1194 O   0  0  0  0  0  0  0  0  0  0  0  0
  152.7779  137.9070  155.8230 C   0  0  0  0  0  0  0  0  0  0  0  0
  152.6090  139.3392  155.2970 C   0  0  0  0  0  0  0  0  0  0  0  0
  151.5770  140.0695  156.0104 N   0  0  0  0  0  0  0  0  0  0  0  0
  150.3493  140.5783  155.6031 C   0  0  0  0  0  0  0  0  0  0  0  0
  149.8746  140.4606  154.3645 N   0  0  0  0  0  0  0  0  0  0  0  0
  148.6563  141.1068  154.4537 C   0  0  0  0  0  0  0  0  0  0  0  0
  147.6600  141.3268  153.4758 C   0  0  0  0  0  0  0  0  0  0  0  0
  146.4785  142.0233  153.8043 C   0  0  0  0  0  0  0  0  0  0  0  0
  146.2763  142.5097  155.1121 C   0  0  0  0  0  0  0  0  0  0  0  0
  147.2556  142.3016  156.1022 C   0  0  0  0  0  0  0  0  0  0  0  0
  148.4329  141.6052  155.7700 C   0  0  0  0  0  0  0  0  0  0  0  0
  149.5633  141.2333  156.4914 N   0  0  0  0  0  0  0  0  0  0  0  0
  149.8081  141.5005  157.9031 C   0  0  0  0  0  0  0  0  0  0  0  0
  150.3583  142.9211  158.1381 C   0  0  2  0  0  0  0  0  0  0  0  0
  151.0895  143.3038  156.9906 O   0  0  0  0  0  0  0  0  0  0  0  0
  151.1853  143.0229  159.4155 C   0  0  0  0  0  0  0  0  0  0  0  0
  152.0520  141.9722  159.7916 C   0  0  0  0  0  0  0  0  0  0  0  0
  152.8137  142.0650  160.9723 C   0  0  0  0  0  0  0  0  0  0  0  0
  152.7085  143.2053  161.7905 C   0  0  0  0  0  0  0  0  0  0  0  0
  153.4383  143.2932  162.9275 F   0  0  0  0  0  0  0  0  0  0  0  0
  151.8384  144.2507  161.4291 C   0  0  0  0  0  0  0  0  0  0  0  0
  151.0790  144.1622  160.2463 C   0  0  0  0  0  0  0  0  0  0  0  0
  150.2427  145.1761  159.9175 F   0  0  0  0  0  0  0  0  0  0  0  0
  151.0490  137.1264  155.4702 H   0  0  0  0  0  0  0  0  0  0  0  0
  152.4889  137.8671  156.8735 H   0  0  0  0  0  0  0  0  0  0  0  0
  153.8119  137.5645  155.7623 H   0  0  0  0  0  0  0  0  0  0  0  0
  153.5506  139.8884  155.3305 H   0  0  0  0  0  0  0  0  0  0  0  0
  152.3090  139.3015  154.2492 H   0  0  0  0  0  0  0  0  0  0  0  0
  151.8017  140.2421  156.9796 H   0  0  0  0  0  0  0  0  0  0  0  0
  147.8050  140.9581  152.4712 H   0  0  0  0  0  0  0  0  0  0  0  0
  145.7236  142.1855  153.0490 H   0  0  0  0  0  0  0  0  0  0  0  0
  145.3683  143.0423  155.3552 H   0  0  0  0  0  0  0  0  0  0  0  0
  147.1032  142.6713  157.1055 H   0  0  0  0  0  0  0  0  0  0  0  0
  148.8974  141.3353  158.4797 H   0  0  0  0  0  0  0  0  0  0  0  0
  150.5273  140.7606  158.2571 H   0  0  0  0  0  0  0  0  0  0  0  0
  149.5225  143.6184  158.2032 H   0  0  0  0  0  0  0  0  0  0  0  0
  150.5098  143.7703  156.4077 H   0  0  0  0  0  0  0  0  0  0  0  0
  152.1368  141.0889  159.1755 H   0  0  0  0  0  0  0  0  0  0  0  0
  153.4762  141.2592  161.2522 H   0  0  0  0  0  0  0  0  0  0  0  0
  151.7527  145.1231  162.0601 H   0  0  0  0  0  0  0  0  0  0  0  0
  1  2  1  0  0  0  0
  1 25  1  0  0  0  0
  2  3  1  0  0  0  0
  2 26  1  0  0  0  0
  2 27  1  0  0  0  0
  3  4  1  0  0  0  0
  3 28  1  0  0  0  0
  3 29  1  0  0  0  0
  4  5  1  0  0  0  0
  4 30  1  0  0  0  0
  5 13  1  0  0  0  0
  5  6  2  0  0  0  0
  6  7  1  0  0  0  0
  7 12  2  0  0  0  0
  7  8  1  0  0  0  0
  8  9  2  0  0  0  0
  8 31  1  0  0  0  0
  9 10  1  0  0  0  0
  9 32  1  0  0  0  0
 10 11  2  0  0  0  0
 10 33  1  0  0  0  0
 11 12  1  0  0  0  0
 11 34  1  0  0  0  0
 12 13  1  0  0  0  0
 13 14  1  0  0  0  0
 14 15  1  0  0  0  0
 14 35  1  0  0  0  0
 14 36  1  0  0  0  0
 15 16  1  0  0  0  0
 15 17  1  0  0  0  0
 15 37  1  0  0  0  0
 16 38  1  0  0  0  0
 17 23  1  0  0  0  0
 17 18  2  0  0  0  0
 18 19  1  0  0  0  0
 18 39  1  0  0  0  0
 19 20  2  0  0  0  0
 19 40  1  0  0  0  0
 20 21  1  0  0  0  0
 20 22  1  0  0  0  0
 22 23  2  0  0  0  0
 22 41  1  0  0  0  0
 23 24  1  0  0  0  0
M  END
> <s_m_source_file>
AV-unprocessed.smi

> <i_m_source_file_index>
1517

> <i_lp_mmshare_version>
43012

> <i_f3d_flags>
0

> <s_epik_input>
W09IXVtDSDJdW0NIMl1bTkhdYyhuMSluKGMoYzEyKVtjSF1bY0hdW2NIXVtjSF0yKVtDSDJdW0NASF0oW09IXSljM1tjSF1bY0hdYyhGKVtjSF1jM0Y=

> <s_epik_cmdline>
J2VwaWtfcHl0aG9uJywgJy1waCcsICc3LjAnLCAnLXRuJywgJzgnLCAnLW1hJywgJzIwMCcsICctbWV0YWxfYmluZGluZycsICctaW1hZScsICc8aW5maWxlLm1hZT4nLCAnLW9tYWUnLCAnPG91dGZpbGUubWFlPic=

> <r_epik_Ionization_Penalty>
1.30972

> <r_epik_Ionization_Penalty_Charging>
0

> <r_epik_Ionization_Penalty_Neutral>
1.30972

> <r_epik_State_Penalty>
1.38438

> <r_epik_Charging_Adjusted_Penalty>
1.38438

> <i_epik_Tot_Q>
0

> <i_epik_Tot_abs_Q>
0

> <r_epik_Metal_State_Penalty>
0.00551145

> <b_epik_Metal_Only>
0

> <s_lp_Force_Field>
OPLS_2005

> <r_lp_Energy>
9.55996

> <b_lp_Chiralities_Consistent>
1

> <s_lp_Variant>
AV-unprocessed.smi:1517-3

> <Gold.Version>
5.8.1

> <Gold.Id.Protein>
6NUR|6NUR_protein|mol2

> <Gold.PLP.Fitness>
54.4219

> <Gold.PLP.PLP>
-49.5750

> <Gold.PLP.part.hbond>
-3.0000

> <Gold.PLP.part.metal>
0.0000

> <Gold.PLP.part.buried>
-4.2702

> <Gold.PLP.part.nonpolar>
-43.2064

> <Gold.PLP.part.repulsive>
0.2630

> <Gold.PLP.ligand.clash>
0.0000

> <Gold.PLP.ligand.torsion>
1.4734

> <Gold.PLP.Chemscore.Hbond>
2.5665

> <Gold.PLP.Chemscore.CHOScore>
0.0000

> <Gold.PLP.Chemscore.Metal>
0.0000

> <Gold.Chemscore.Hbonds>
donor molecule, donor type, donor heavy atom, donor atom, acceptor molecule, acceptor atom, score
      L1  H    16    38       P1  8028  1.00
      P1  H  7989  7998       L1     6  0.61
      P1  H 10752 10764       L1     1  0.99

> <Gold.PLP.Chemscore.Internal.Correction>
0.0944

> <Gold.Rescore>
     Score         DG    S(hbond)    S(metal)    S(lipo)     H(rot)  DE(clash)    DE(int)     intcor
     14.95     -18.34       1.96        0.00     124.53       3.22       2.01       1.38       ----

> <Gold.Chemscore.Fitness>
14.9531

> <Gold.Chemscore.DG>
-18.3410

> <Gold.Chemscore.ZeroCoef>
-5.4800

> <Gold.Chemscore.Hbond>
1.9560

> <Gold.Chemscore.Metal>
0.0000

> <Gold.Chemscore.Lipo>
124.5267

> <Gold.Chemscore.Internal_Hbond>
0.0000

> <Gold.Chemscore.DEClash>
2.0076

> <Gold.Chemscore.DEInternal>
1.3802

> <Gold.Chemscore.Rot>
3.2194

> <Gold.Chemscore.Internal.Correction>
   9.000000E+99

> <Gold.Chemscore.Hbonds>
donor molecule, donor type, donor heavy atom, donor atom, acceptor molecule, acceptor atom, score
      L1  H    16    38       P1  8028  0.95
      P1  H  7989  7998       L1     6  0.07
      P1  H 10752 10764       L1     1  0.56

> <Gold.Chemscore.Hbond.Weighted>
-6.5329

> <Gold.Chemscore.Metal.Weighted>
-0.0000

> <Gold.Chemscore.Lipo.Weighted>
-14.5696

> <Gold.Chemscore.Internal_Hbond.Weighted>
0.0000

> <Gold.Chemscore.DEClash.Weighted>
2.0076

> <Gold.Chemscore.DEInternal.Weighted>
1.3802

> <Gold.Chemscore.Rot.Weighted>
8.2416

> <Gold.Chemscore.Internal.Correction.Weighted>
   9.000000E+99

> <Gold.Protein.RotatedTorsions>
[ 6907 6896 6895 6894 ] final  -51.62 input  -60.11 | X-H torsion
[ 7974 7965 7964 7962 ] final  -76.69 input  175.53 | X-H torsion
[ 8008 7997 7996 7995 ] final  175.65 input   59.86 | X-H torsion
[ 10167 10162 10161 10158 ] final  -34.17 input  -65.29 | X-H torsion
[ 10718 10713 10712 10709 ] final   82.92 input   66.30 | X-H torsion
[ 10763 10752 10751 10750 ] final  -64.78 input  -60.55 | X-H torsion
[ 11005 11000 10999 10996 ] final -109.08 input  -57.11 | X-H torsion

> <Gold.Protein.ActiveResidues>
 VAL166  LYS551  ARG553  GLY616  TRP617  ASP618  TYR619  PRO620  LYS621  CYS622 
 ASP623  PHE694  ASN695  SER759  ASP760  ASP761  ALA762  ILE779  LEU786  VAL792 
 PHE793  MET794  SER795  GLU796  ALA797  LYS798  CYS799  TRP800  GLU811  SER814 

> <Gold.Protein.RotatedAtoms>
  150.8594  134.7942  159.7070 H   0  0  0  0  0  0  0  0  0  0  0  0  # atno 6907 bound_to 6896
  152.4636  134.5125  159.9768 H   0  0  0  0  0  0  0  0  0  0  0  0  # atno 6908 bound_to 6896
  151.5231  133.3424  159.2940 H   0  0  0  0  0  0  0  0  0  0  0  0  # atno 6909 bound_to 6896
  145.6096  140.9390  143.1197 H   0  0  0  0  0  0  0  0  0  0  0  0  # atno 7974 bound_to 7965
  156.0848  140.1403  156.9666 H   0  0  0  0  0  0  0  0  0  0  0  0  # atno 8008 bound_to 7997
  154.4606  140.0944  156.6932 H   0  0  0  0  0  0  0  0  0  0  0  0  # atno 8009 bound_to 7997
  155.5016  140.3451  155.4374 H   0  0  0  0  0  0  0  0  0  0  0  0  # atno 8010 bound_to 7997
  140.7191  143.3567  151.2045 H   0  0  0  0  0  0  0  0  0  0  0  0  # atno 10167 bound_to 10162
  157.6868  131.0069  150.2446 H   0  0  0  0  0  0  0  0  0  0  0  0  # atno 10718 bound_to 10713
  154.3352  135.6168  153.5570 H   0  0  0  0  0  0  0  0  0  0  0  0  # atno 10763 bound_to 10752
  152.9808  135.5756  154.4916 H   0  0  0  0  0  0  0  0  0  0  0  0  # atno 10764 bound_to 10752
  154.4610  135.2856  155.1690 H   0  0  0  0  0  0  0  0  0  0  0  0  # atno 10765 bound_to 10752
  141.0867  133.9126  157.2169 H   0  0  0  0  0  0  0  0  0  0  0  0  # atno 11005 bound_to 11000
  144.7275  139.7828  143.7359 LP  0  0  0  0  0  0  0  0  0  0  0  0  # atno 17320 bound_to 7965
  146.1515  139.4599  143.0046 LP  0  0  0  0  0  0  0  0  0  0  0  0  # atno 17321 bound_to 7965
  139.7110  143.9377  152.2947 LP  0  0  0  0  0  0  0  0  0  0  0  0  # atno 17342 bound_to 10162
  139.9102  144.6861  150.8570 LP  0  0  0  0  0  0  0  0  0  0  0  0  # atno 17343 bound_to 10162
  156.3054  130.3764  149.7711 LP  0  0  0  0  0  0  0  0  0  0  0  0  # atno 17370 bound_to 10713
  156.5328  130.8265  151.3243 LP  0  0  0  0  0  0  0  0  0  0  0  0  # atno 17371 bound_to 10713
  139.9686  135.0135  156.9453 LP  0  0  0  0  0  0  0  0  0  0  0  0  # atno 17394 bound_to 11000
  140.5346  134.0779  155.7325 LP  0  0  0  0  0  0  0  0  0  0  0  0  # atno 17395 bound_to 11000

$$$$
