AV-unprocessed.smi:794|AV-procd|sdf|3763|dock1
  -GOLD-   22720 1193D 1   1.00000     0.00000
 Structure written by MMmdl.
 41 43  0  0  0  0  0  0  0  0  1 V2000
  146.4203  142.4767  153.9918 C   0  0  0  0  0  0  0  0  0  0  0  0
  147.3039  141.2685  154.0497 C   0  0  0  0  0  0  0  0  0  0  0  0
  146.8416  140.0522  153.5388 N   0  0  0  0  0  0  0  0  0  0  0  0
  147.7456  139.0751  153.6629 C   0  0  0  0  0  0  0  0  0  0  0  0
  147.5480  137.7398  153.2245 N   0  0  0  0  0  0  0  0  0  0  0  0
  146.4272  137.0006  153.2894 C   0  0  0  0  0  0  0  0  0  0  0  0
  145.3582  137.3675  153.7783 O   0  0  0  0  0  0  0  0  0  0  0  0
  146.6157  135.7897  152.7471 N   0  0  0  0  0  0  0  0  0  0  0  0
  145.5993  134.7454  152.6522 C   0  0  1  0  0  0  0  0  0  0  0  0
  144.3125  135.2996  152.0023 C   0  0  2  0  0  0  0  0  0  0  0  0
  143.1569  134.3236  152.2867 C   0  0  0  0  0  0  0  0  0  0  0  0
  143.4952  133.1326  151.3701 C   0  0  0  0  0  0  0  0  0  0  0  0
  144.8103  133.5771  150.6937 C   0  0  1  0  0  0  0  0  0  0  0  0
  144.5523  135.0675  150.5129 C   0  0  0  0  0  0  0  0  0  0  0  0
  146.0000  133.6014  151.6860 C   0  0  2  0  0  0  0  0  0  0  0  0
  146.3282  132.2699  152.3891 C   0  0  0  0  0  0  0  0  0  0  0  0
  146.6246  131.2710  151.4365 O   0  0  0  0  0  0  0  0  0  0  0  0
  149.2396  139.5900  154.4256 S   0  0  0  0  0  0  0  0  0  0  0  0
  148.5794  141.2008  154.5617 C   0  0  0  0  0  0  0  0  0  0  0  0
  149.3762  142.3037  155.1752 C   0  0  0  0  0  0  0  0  0  0  0  0
  146.4388  143.0246  154.9340 H   0  0  0  0  0  0  0  0  0  0  0  0
  145.3827  142.2085  153.7903 H   0  0  0  0  0  0  0  0  0  0  0  0
  146.7435  143.1596  153.2059 H   0  0  0  0  0  0  0  0  0  0  0  0
  148.3508  137.3011  152.7981 H   0  0  0  0  0  0  0  0  0  0  0  0
  147.5268  135.5713  152.3712 H   0  0  0  0  0  0  0  0  0  0  0  0
  145.3797  134.3707  153.6541 H   0  0  0  0  0  0  0  0  0  0  0  0
  144.0821  136.3292  152.2789 H   0  0  0  0  0  0  0  0  0  0  0  0
  143.0985  134.0387  153.3378 H   0  0  0  0  0  0  0  0  0  0  0  0
  142.1986  134.7627  152.0067 H   0  0  0  0  0  0  0  0  0  0  0  0
  143.5814  132.1918  151.9118 H   0  0  0  0  0  0  0  0  0  0  0  0
  142.7116  133.0010  150.6229 H   0  0  0  0  0  0  0  0  0  0  0  0
  145.0268  133.0410  149.7692 H   0  0  0  0  0  0  0  0  0  0  0  0
  143.6795  135.2852  149.8947 H   0  0  0  0  0  0  0  0  0  0  0  0
  145.4115  135.6133  150.1195 H   0  0  0  0  0  0  0  0  0  0  0  0
  146.8874  133.9017  151.1244 H   0  0  0  0  0  0  0  0  0  0  0  0
  147.1991  132.3952  153.0328 H   0  0  0  0  0  0  0  0  0  0  0  0
  145.5147  131.9344  153.0310 H   0  0  0  0  0  0  0  0  0  0  0  0
  147.5560  131.2760  151.2760 H   0  0  0  0  0  0  0  0  0  0  0  0
  149.2986  143.2151  154.5823 H   0  0  0  0  0  0  0  0  0  0  0  0
  150.4315  142.0379  155.2419 H   0  0  0  0  0  0  0  0  0  0  0  0
  149.0195  142.5232  156.1817 H   0  0  0  0  0  0  0  0  0  0  0  0
  1  2  1  0  0  0  0
  1 21  1  0  0  0  0
  1 22  1  0  0  0  0
  1 23  1  0  0  0  0
  2 19  2  0  0  0  0
  2  3  1  0  0  0  0
  3  4  2  0  0  0  0
  4  5  1  0  0  0  0
  4 18  1  0  0  0  0
  5  6  1  0  0  0  0
  5 24  1  0  0  0  0
  6  7  2  0  0  0  0
  6  8  1  0  0  0  0
  8  9  1  0  0  0  0
  8 25  1  0  0  0  0
  9 15  1  0  0  0  0
  9 10  1  0  0  0  0
  9 26  1  0  0  0  0
 10 14  1  0  0  0  0
 10 11  1  0  0  0  0
 10 27  1  0  0  0  0
 11 12  1  0  0  0  0
 11 28  1  0  0  0  0
 11 29  1  0  0  0  0
 12 13  1  0  0  0  0
 12 30  1  0  0  0  0
 12 31  1  0  0  0  0
 13 14  1  0  0  0  0
 13 15  1  0  0  0  0
 13 32  1  0  0  0  0
 14 33  1  0  0  0  0
 14 34  1  0  0  0  0
 15 16  1  0  0  0  0
 15 35  1  0  0  0  0
 16 17  1  0  0  0  0
 16 36  1  0  0  0  0
 16 37  1  0  0  0  0
 17 38  1  0  0  0  0
 18 19  1  0  0  0  0
 19 20  1  0  0  0  0
 20 39  1  0  0  0  0
 20 40  1  0  0  0  0
 20 41  1  0  0  0  0
M  END
> <s_m_source_file>
AV-unprocessed.smi

> <i_m_source_file_index>
794

> <i_lp_mmshare_version>
43012

> <i_f3d_flags>
0

> <s_epik_input>
W0NIM11jMW5jKHNjMVtDSDNdKVtOSF1DKD1PKVtOSF1bQ0BIXShbQ0BASF0yMylbQ0BIXShbQ0gyXVtPSF0pW0NAQEhdKFtDSDJdMylbQ0gyXVtDSDJdMg==

> <s_epik_cmdline>
J2VwaWtfcHl0aG9uJywgJy1waCcsICc3LjAnLCAnLXRuJywgJzgnLCAnLW1hJywgJzIwMCcsICctbWV0YWxfYmluZGluZycsICctaW1hZScsICc8aW5maWxlLm1hZT4nLCAnLW9tYWUnLCAnPG91dGZpbGUubWFlPic=

> <r_lp_tautomer_probability>
0.999

> <r_epik_Ionization_Penalty>
0.000713029

> <r_epik_Ionization_Penalty_Charging>
0

> <r_epik_Ionization_Penalty_Neutral>
0.000713029

> <r_epik_State_Penalty>
0.000177984

> <r_epik_Charging_Adjusted_Penalty>
0.000177984

> <i_epik_Tot_Q>
0

> <i_epik_Tot_abs_Q>
0

> <r_epik_Metal_State_Penalty>
-0

> <b_epik_Metal_Only>
0

> <s_lp_Force_Field>
OPLS_2005

> <r_lp_Energy>
46.861

> <b_lp_Chiralities_Consistent>
1

> <s_lp_Variant>
AV-unprocessed.smi:794-8

> <Gold.Version>
5.8.1

> <Gold.Id.Protein>
6NUR|6NUR_protein|mol2

> <Gold.PLP.Fitness>
40.5072

> <Gold.PLP.PLP>
-32.5510

> <Gold.PLP.part.hbond>
-2.7365

> <Gold.PLP.part.metal>
0.0000

> <Gold.PLP.part.buried>
-0.1583

> <Gold.PLP.part.nonpolar>
-30.2797

> <Gold.PLP.part.repulsive>
0.3569

> <Gold.PLP.ligand.clash>
0.0000

> <Gold.PLP.ligand.torsion>
0.4038

> <Gold.PLP.Chemscore.Hbond>
2.9120

> <Gold.PLP.Chemscore.CHOScore>
0.0000

> <Gold.PLP.Chemscore.Metal>
0.0000

> <Gold.Chemscore.Hbonds>
donor molecule, donor type, donor heavy atom, donor atom, acceptor molecule, acceptor atom, score
      L1  H     5    24       P1  7948  1.00
      L1  H     8    25       P1  7948  0.90
      L1  H    17    38       P1 10747  1.00

> <Gold.PLP.Chemscore.Internal.Correction>
0.0277

> <Gold.Rescore>
     Score         DG    S(hbond)    S(metal)    S(lipo)     H(rot)  DE(clash)    DE(int)     intcor
     16.34     -19.65       2.85        0.00      78.80       1.78       1.67       1.64       ----

> <Gold.Chemscore.Fitness>
16.3400

> <Gold.Chemscore.DG>
-19.6511

> <Gold.Chemscore.ZeroCoef>
-5.4800

> <Gold.Chemscore.Hbond>
2.8464

> <Gold.Chemscore.Metal>
0.0000

> <Gold.Chemscore.Lipo>
78.8048

> <Gold.Chemscore.Internal_Hbond>
0.0000

> <Gold.Chemscore.DEClash>
1.6720

> <Gold.Chemscore.DEInternal>
1.6391

> <Gold.Chemscore.Rot>
1.7798

> <Gold.Chemscore.Internal.Correction>
   9.000000E+99

> <Gold.Chemscore.Hbonds>
donor molecule, donor type, donor heavy atom, donor atom, acceptor molecule, acceptor atom, score
      L1  H     5    24       P1  7948  0.89
      L1  H     8    25       P1  7948  0.88
      L1  H    17    38       P1 10747  0.95

> <Gold.Chemscore.Hbond.Weighted>
-9.5071

> <Gold.Chemscore.Metal.Weighted>
-0.0000

> <Gold.Chemscore.Lipo.Weighted>
-9.2202

> <Gold.Chemscore.Internal_Hbond.Weighted>
0.0000

> <Gold.Chemscore.DEClash.Weighted>
1.6720

> <Gold.Chemscore.DEInternal.Weighted>
1.6391

> <Gold.Chemscore.Rot.Weighted>
4.5562

> <Gold.Chemscore.Internal.Correction.Weighted>
   9.000000E+99

> <Gold.Protein.RotatedTorsions>
[ 6907 6896 6895 6894 ] final  151.10 input  -60.11 | X-H torsion
[ 7974 7965 7964 7962 ] final    0.86 input  175.53 | X-H torsion
[ 8008 7997 7996 7995 ] final   38.20 input   59.86 | X-H torsion
[ 10167 10162 10161 10158 ] final  126.59 input  -65.29 | X-H torsion
[ 10718 10713 10712 10709 ] final  -76.29 input   66.30 | X-H torsion
[ 10763 10752 10751 10750 ] final  147.67 input  -60.55 | X-H torsion
[ 11005 11000 10999 10996 ] final    5.73 input  -57.11 | X-H torsion

> <Gold.Protein.ActiveResidues>
 VAL166  LYS551  ARG553  GLY616  TRP617  ASP618  TYR619  PRO620  LYS621  CYS622 
 ASP623  PHE694  ASN695  SER759  ASP760  ASP761  ALA762  ILE779  LEU786  VAL792 
 PHE793  MET794  SER795  GLU796  ALA797  LYS798  CYS799  TRP800  GLU811  SER814 

> <Gold.Protein.RotatedAtoms>
  152.1054  133.4272  159.4605 H   0  0  0  0  0  0  0  0  0  0  0  0  # atno 6907 bound_to 6896
  150.6865  134.2711  159.4598 H   0  0  0  0  0  0  0  0  0  0  0  0  # atno 6908 bound_to 6896
  152.0575  134.9614  160.0625 H   0  0  0  0  0  0  0  0  0  0  0  0  # atno 6909 bound_to 6896
  146.2437  140.1074  142.8345 H   0  0  0  0  0  0  0  0  0  0  0  0  # atno 7974 bound_to 7965
  155.2163  140.3327  155.4321 H   0  0  0  0  0  0  0  0  0  0  0  0  # atno 8008 bound_to 7997
  156.2351  140.1868  156.7190 H   0  0  0  0  0  0  0  0  0  0  0  0  # atno 8009 bound_to 7997
  154.6044  140.0618  156.9397 H   0  0  0  0  0  0  0  0  0  0  0  0  # atno 8010 bound_to 7997
  139.5623  144.6889  151.4009 H   0  0  0  0  0  0  0  0  0  0  0  0  # atno 10167 bound_to 10162
  156.0180  130.4462  150.3171 H   0  0  0  0  0  0  0  0  0  0  0  0  # atno 10718 bound_to 10713
  154.0421  135.2889  155.3353 H   0  0  0  0  0  0  0  0  0  0  0  0  # atno 10763 bound_to 10752
  154.6922  135.5222  153.8412 H   0  0  0  0  0  0  0  0  0  0  0  0  # atno 10764 bound_to 10752
  153.0595  135.6608  154.0624 H   0  0  0  0  0  0  0  0  0  0  0  0  # atno 10765 bound_to 10752
  140.5674  134.0135  155.7995 H   0  0  0  0  0  0  0  0  0  0  0  0  # atno 11005 bound_to 11000
  145.0516  140.9022  143.4992 LP  0  0  0  0  0  0  0  0  0  0  0  0  # atno 17320 bound_to 7965
  145.1173  139.2717  143.5607 LP  0  0  0  0  0  0  0  0  0  0  0  0  # atno 17321 bound_to 7965
  140.6903  143.7876  150.7246 LP  0  0  0  0  0  0  0  0  0  0  0  0  # atno 17342 bound_to 10162
  140.1356  143.4486  152.2226 LP  0  0  0  0  0  0  0  0  0  0  0  0  # atno 17343 bound_to 10162
  157.1272  131.0262  151.2985 LP  0  0  0  0  0  0  0  0  0  0  0  0  # atno 17370 bound_to 10713
  157.4580  130.7637  149.7210 LP  0  0  0  0  0  0  0  0  0  0  0  0  # atno 17371 bound_to 10713
  141.1077  133.9666  157.2966 LP  0  0  0  0  0  0  0  0  0  0  0  0  # atno 17394 bound_to 11000
  139.9378  135.0194  156.8613 LP  0  0  0  0  0  0  0  0  0  0  0  0  # atno 17395 bound_to 11000

$$$$
