AV-unprocessed.smi:3265|AV-procd|sdf|12496|dock3
  -GOLD-   2272018393D 1   1.00000     0.00000
 Structure written by MMmdl.
 41 42  0  0  0  0  0  0  0  0  2 V2000
  153.8406  142.1824  161.0812 C   0  0  0  0  0  0  0  0  0  0  0  0
  153.1632  142.4350  159.7269 C   0  0  2  0  0  0  0  0  0  0  0  0
  152.6065  143.8655  159.6353 C   0  0  0  0  0  0  0  0  0  0  0  0
  151.9167  144.0803  158.2828 C   0  0  0  0  0  0  0  0  0  0  0  0
  150.8333  143.0169  158.0434 C   0  0  0  0  0  0  0  0  0  0  0  0
  151.3967  141.6450  158.1358 N   0  3  2  0  0  0  0  0  0  0  0  0
  150.3976  140.6065  157.7770 C   0  0  0  0  0  0  0  0  0  0  0  0
  150.8665  139.1849  158.1433 C   0  0  0  0  0  0  0  0  0  0  0  0
  149.7389  138.3001  158.4102 N   0  0  0  0  0  0  0  0  0  0  0  0
  149.8425  137.0070  158.7580 C   0  0  0  0  0  0  0  0  0  0  0  0
  150.9199  136.4199  158.8558 O   0  0  0  0  0  0  0  0  0  0  0  0
  148.5354  136.2560  159.0256 C   0  0  0  0  0  0  0  0  0  0  0  0
  148.4956  135.7084  160.3709 N   0  0  0  0  0  0  0  0  0  0  0  0
  148.4534  134.3846  160.7568 C   0  0  0  0  0  0  0  0  0  0  0  0
  148.4169  134.3597  162.1214 C   0  0  0  0  0  0  0  0  0  0  0  0
  148.4460  135.7349  162.4857 C   0  0  0  0  0  0  0  0  0  0  0  0
  148.4933  136.5395  161.4365 N   0  0  0  0  0  0  0  0  0  0  0  0
  152.0455  141.4080  159.4538 C   0  0  0  0  0  0  0  0  0  0  0  0
  153.1308  142.2757  161.9038 H   0  0  0  0  0  0  0  0  0  0  0  0
  154.6473  142.8948  161.2564 H   0  0  0  0  0  0  0  0  0  0  0  0
  154.2713  141.1817  161.1246 H   0  0  0  0  0  0  0  0  0  0  0  0
  153.9244  142.3181  158.9537 H   0  0  0  0  0  0  0  0  0  0  0  0
  151.8944  144.0415  160.4428 H   0  0  0  0  0  0  0  0  0  0  0  0
  153.4085  144.5937  159.7622 H   0  0  0  0  0  0  0  0  0  0  0  0
  151.4755  145.0768  158.2445 H   0  0  0  0  0  0  0  0  0  0  0  0
  152.6562  144.0387  157.4819 H   0  0  0  0  0  0  0  0  0  0  0  0
  150.0258  143.1302  158.7687 H   0  0  0  0  0  0  0  0  0  0  0  0
  150.3969  143.1719  157.0557 H   0  0  0  0  0  0  0  0  0  0  0  0
  149.4403  140.8336  158.2487 H   0  0  0  0  0  0  0  0  0  0  0  0
  150.2247  140.6427  156.7006 H   0  0  0  0  0  0  0  0  0  0  0  0
  151.4854  138.7682  157.3465 H   0  0  0  0  0  0  0  0  0  0  0  0
  151.4838  139.1970  159.0407 H   0  0  0  0  0  0  0  0  0  0  0  0
  148.8147  138.7036  158.3528 H   0  0  0  0  0  0  0  0  0  0  0  0
  147.6903  136.9324  158.8922 H   0  0  0  0  0  0  0  0  0  0  0  0
  148.4133  135.4433  158.3075 H   0  0  0  0  0  0  0  0  0  0  0  0
  148.4502  133.5796  160.0364 H   0  0  0  0  0  0  0  0  0  0  0  0
  148.3770  133.4915  162.7623 H   0  0  0  0  0  0  0  0  0  0  0  0
  148.4331  136.1695  163.4745 H   0  0  0  0  0  0  0  0  0  0  0  0
  152.4744  140.4072  159.4851 H   0  0  0  0  0  0  0  0  0  0  0  0
  151.2917  141.4518  160.2418 H   0  0  0  0  0  0  0  0  0  0  0  0
  152.1228  141.5941  157.4355 H   0  0  0  0  0  0  0  0  0  0  0  0
  1  2  1  0  0  0  0
  1 19  1  0  0  0  0
  1 20  1  0  0  0  0
  1 21  1  0  0  0  0
  2 18  1  0  0  0  0
  2  3  1  0  0  0  0
  2 22  1  0  0  0  0
  3  4  1  0  0  0  0
  3 23  1  0  0  0  0
  3 24  1  0  0  0  0
  4  5  1  0  0  0  0
  4 25  1  0  0  0  0
  4 26  1  0  0  0  0
  5  6  1  0  0  0  0
  5 27  1  0  0  0  0
  5 28  1  0  0  0  0
  6  7  1  0  0  0  0
  6 18  1  0  0  0  0
  6 41  1  0  0  0  0
  7  8  1  0  0  0  0
  7 29  1  0  0  0  0
  7 30  1  0  0  0  0
  8  9  1  0  0  0  0
  8 31  1  0  0  0  0
  8 32  1  0  0  0  0
  9 10  1  0  0  0  0
  9 33  1  0  0  0  0
 10 11  2  0  0  0  0
 10 12  1  0  0  0  0
 12 13  1  0  0  0  0
 12 34  1  0  0  0  0
 12 35  1  0  0  0  0
 13 17  1  0  0  0  0
 13 14  1  0  0  0  0
 14 15  2  0  0  0  0
 14 36  1  0  0  0  0
 15 16  1  0  0  0  0
 15 37  1  0  0  0  0
 16 17  2  0  0  0  0
 16 38  1  0  0  0  0
 18 39  1  0  0  0  0
 18 40  1  0  0  0  0
M  CHG  1   6   1
M  END
> <s_m_source_file>
AV-unprocessed.smi

> <i_m_source_file_index>
3265

> <i_lp_mmshare_version>
43012

> <i_f3d_flags>
0

> <s_epik_input>
W0NIM11bQ0BASF0xW0NIMl1bQ0gyXVtDSDJdTihbQ0gyXTEpW0NIMl1bQ0gyXVtOSF1DKD1PKVtDSDJdbjJbY0hdW2NIXVtjSF1uMg==

> <s_epik_cmdline>
J2VwaWtfcHl0aG9uJywgJy1waCcsICc3LjAnLCAnLXRuJywgJzgnLCAnLW1hJywgJzIwMCcsICctbWV0YWxfYmluZGluZycsICctaW1hZScsICc8aW5maWxlLm1hZT4nLCAnLW9tYWUnLCAnPG91dGZpbGUubWFlPic=

> <r_lp_tautomer_probability>
1

> <r_epik_Ionization_Penalty>
0.00231455

> <r_epik_Ionization_Penalty_Charging>
0.00230623

> <r_epik_Ionization_Penalty_Neutral>
8.31727e-06

> <r_epik_State_Penalty>
0.00159065

> <r_epik_Charging_Adjusted_Penalty>
0.00389688

> <i_epik_Tot_Q>
1

> <i_epik_Tot_abs_Q>
1

> <r_epik_Metal_State_Penalty>
-0

> <b_epik_Metal_Only>
0

> <s_lp_Force_Field>
OPLS_2005

> <r_lp_Energy>
16.3652

> <b_lp_Chiralities_Consistent>
1

> <s_lp_Variant>
AV-unprocessed.smi:3265-1

> <Gold.Version>
5.8.1

> <Gold.Id.Protein>
6NUR|6NUR_protein|mol2

> <Gold.PLP.Fitness>
50.8889

> <Gold.PLP.PLP>
-43.2593

> <Gold.PLP.part.hbond>
-3.0000

> <Gold.PLP.part.metal>
0.0000

> <Gold.PLP.part.buried>
-5.1726

> <Gold.PLP.part.nonpolar>
-35.1286

> <Gold.PLP.part.repulsive>
0.2617

> <Gold.PLP.ligand.clash>
0.0000

> <Gold.PLP.ligand.torsion>
0.3098

> <Gold.PLP.Chemscore.Hbond>
2.7360

> <Gold.PLP.Chemscore.CHOScore>
0.0000

> <Gold.PLP.Chemscore.Metal>
0.0000

> <Gold.Chemscore.Hbonds>
donor molecule, donor type, donor heavy atom, donor atom, acceptor molecule, acceptor atom, score
      P1  H  6896  6908       L1    11  0.94
      P1  H  6931  6943       L1    17  1.00

> <Gold.PLP.Chemscore.Internal.Correction>
0.0413

> <Gold.Rescore>
     Score         DG    S(hbond)    S(metal)    S(lipo)     H(rot)  DE(clash)    DE(int)     intcor
     20.46     -20.89       2.40        0.00     103.50       1.84       0.01       0.43       ----

> <Gold.Chemscore.Fitness>
20.4560

> <Gold.Chemscore.DG>
-20.8950

> <Gold.Chemscore.ZeroCoef>
-5.4800

> <Gold.Chemscore.Hbond>
2.3990

> <Gold.Chemscore.Metal>
0.0000

> <Gold.Chemscore.Lipo>
103.4979

> <Gold.Chemscore.Internal_Hbond>
0.0000

> <Gold.Chemscore.DEClash>
0.0073

> <Gold.Chemscore.DEInternal>
0.4316

> <Gold.Chemscore.Rot>
1.8386

> <Gold.Chemscore.Internal.Correction>
   9.000000E+99

> <Gold.Chemscore.Hbonds>
donor molecule, donor type, donor heavy atom, donor atom, acceptor molecule, acceptor atom, score
      P1  H  6896  6908       L1    11  0.91
      P1  H  6931  6943       L1    17  0.78

> <Gold.Chemscore.Hbond.Weighted>
-8.0126

> <Gold.Chemscore.Metal.Weighted>
-0.0000

> <Gold.Chemscore.Lipo.Weighted>
-12.1093

> <Gold.Chemscore.Internal_Hbond.Weighted>
0.0000

> <Gold.Chemscore.DEClash.Weighted>
0.0073

> <Gold.Chemscore.DEInternal.Weighted>
0.4316

> <Gold.Chemscore.Rot.Weighted>
4.7069

> <Gold.Chemscore.Internal.Correction.Weighted>
   9.000000E+99

> <Gold.Protein.RotatedTorsions>
[ 6907 6896 6895 6894 ] final -147.44 input  -60.11 | X-H torsion
[ 7974 7965 7964 7962 ] final   15.04 input  175.53 | X-H torsion
[ 8008 7997 7996 7995 ] final  -99.17 input   59.86 | X-H torsion
[ 10167 10162 10161 10158 ] final   82.40 input  -65.29 | X-H torsion
[ 10718 10713 10712 10709 ] final -113.37 input   66.30 | X-H torsion
[ 10763 10752 10751 10750 ] final -148.53 input  -60.55 | X-H torsion
[ 11005 11000 10999 10996 ] final   75.08 input  -57.11 | X-H torsion

> <Gold.Protein.ActiveResidues>
 VAL166  LYS551  ARG553  GLY616  TRP617  ASP618  TYR619  PRO620  LYS621  CYS622 
 ASP623  PHE694  ASN695  SER759  ASP760  ASP761  ALA762  ILE779  LEU786  VAL792 
 PHE793  MET794  SER795  GLU796  ALA797  LYS798  CYS799  TRP800  GLU811  SER814 

> <Gold.Protein.RotatedAtoms>
  151.1557  133.4878  159.2594 H   0  0  0  0  0  0  0  0  0  0  0  0  # atno 6907 bound_to 6896
  151.1507  135.0225  159.8677 H   0  0  0  0  0  0  0  0  0  0  0  0  # atno 6908 bound_to 6896
  152.5463  134.1441  159.8544 H   0  0  0  0  0  0  0  0  0  0  0  0  # atno 6909 bound_to 6896
  146.2289  139.8952  142.8548 H   0  0  0  0  0  0  0  0  0  0  0  0  # atno 7974 bound_to 7965
  154.8111  140.0450  157.1343 H   0  0  0  0  0  0  0  0  0  0  0  0  # atno 8008 bound_to 7997
  154.9367  140.3047  155.5121 H   0  0  0  0  0  0  0  0  0  0  0  0  # atno 8009 bound_to 7997
  156.2972  140.2313  156.4432 H   0  0  0  0  0  0  0  0  0  0  0  0  # atno 8010 bound_to 7997
  139.9292  144.6163  150.8362 H   0  0  0  0  0  0  0  0  0  0  0  0  # atno 10167 bound_to 10162
  156.0763  130.5970  150.8634 H   0  0  0  0  0  0  0  0  0  0  0  0  # atno 10718 bound_to 10713
  154.8228  135.3332  154.6988 H   0  0  0  0  0  0  0  0  0  0  0  0  # atno 10763 bound_to 10752
  153.7619  135.6932  153.4928 H   0  0  0  0  0  0  0  0  0  0  0  0  # atno 10764 bound_to 10752
  153.2104  135.4484  155.0323 H   0  0  0  0  0  0  0  0  0  0  0  0  # atno 10765 bound_to 10752
  139.9360  134.7488  156.1227 H   0  0  0  0  0  0  0  0  0  0  0  0  # atno 11005 bound_to 11000
  145.2378  140.9998  143.3953 LP  0  0  0  0  0  0  0  0  0  0  0  0  # atno 17320 bound_to 7965
  144.9477  139.4118  143.6418 LP  0  0  0  0  0  0  0  0  0  0  0  0  # atno 17321 bound_to 7965
  140.7642  143.3242  151.2553 LP  0  0  0  0  0  0  0  0  0  0  0  0  # atno 17342 bound_to 10162
  139.6796  143.9877  152.2801 LP  0  0  0  0  0  0  0  0  0  0  0  0  # atno 17343 bound_to 10162
  157.5859  131.0945  150.9196 LP  0  0  0  0  0  0  0  0  0  0  0  0  # atno 17370 bound_to 10713
  156.9382  130.5375  149.5280 LP  0  0  0  0  0  0  0  0  0  0  0  0  # atno 17371 bound_to 10713
  141.0974  133.6690  156.2676 LP  0  0  0  0  0  0  0  0  0  0  0  0  # atno 17394 bound_to 11000
  140.6074  134.5493  157.5528 LP  0  0  0  0  0  0  0  0  0  0  0  0  # atno 17395 bound_to 11000

$$$$
