AV-unprocessed.smi:2855|AV-procd|sdf|10987|dock4
  -GOLD-   2272015443D 1   1.00000     0.00000
 Structure written by MMmdl.
 46 47  0  0  0  0  0  0  0  0  2 V2000
  152.2248  144.2641  156.7883 C   0  0  0  0  0  0  0  0  0  0  0  0
  151.2161  144.1013  157.9394 C   0  0  2  0  0  0  0  0  0  0  0  0
  151.7243  144.7000  159.2640 C   0  0  0  0  0  0  0  0  0  0  0  0
  152.8258  143.8454  159.9134 C   0  0  0  0  0  0  0  0  0  0  0  0
  152.3689  142.3841  160.1362 C   0  0  2  0  0  0  0  0  0  0  0  0
  153.4261  141.5118  160.8790 C   0  0  0  0  0  0  0  0  0  0  0  0
  153.7590  142.0542  162.2794 C   0  0  0  0  0  0  0  0  0  0  0  0
  154.7135  141.2589  160.0728 C   0  0  0  0  0  0  0  0  0  0  0  0
  151.8800  141.7722  158.7948 C   0  0  1  0  0  0  0  0  0  0  0  0
  151.3633  140.4210  159.0011 N   0  0  0  0  0  0  0  0  0  0  0  0
  151.8485  139.3021  158.4421 C   0  0  0  0  0  0  0  0  0  0  0  0
  152.7621  139.2932  157.6165 O   0  0  0  0  0  0  0  0  0  0  0  0
  151.1844  137.9894  158.8738 C   0  0  0  0  0  0  0  0  0  0  0  0
  150.8907  137.1149  157.7279 N   0  0  0  0  0  0  0  0  0  0  0  0
  149.5417  136.8940  157.3994 C   0  0  0  0  0  0  0  0  0  0  0  0
  149.1818  136.1135  156.3627 C   0  0  0  0  0  0  0  0  0  0  0  0
  150.2342  135.4894  155.5704 C   0  0  0  0  0  0  0  0  0  0  0  0
  149.9240  134.7701  154.6228 O   0  0  0  0  0  0  0  0  0  0  0  0
  151.5285  135.7385  155.9258 N   0  5  0  0  0  0  0  0  0  0  0  0
  151.8799  136.5355  156.9821 C   0  0  0  0  0  0  0  0  0  0  0  0
  153.0548  136.7476  157.2852 O   0  0  0  0  0  0  0  0  0  0  0  0
  150.7810  142.6378  158.1453 C   0  0  0  0  0  0  0  0  0  0  0  0
  153.1586  143.7364  156.9804 H   0  0  0  0  0  0  0  0  0  0  0  0
  152.4679  145.3148  156.6287 H   0  0  0  0  0  0  0  0  0  0  0  0
  151.8157  143.8782  155.8542 H   0  0  0  0  0  0  0  0  0  0  0  0
  150.3288  144.6647  157.6481 H   0  0  0  0  0  0  0  0  0  0  0  0
  152.0869  145.7159  159.1032 H   0  0  0  0  0  0  0  0  0  0  0  0
  150.8890  144.7855  159.9601 H   0  0  0  0  0  0  0  0  0  0  0  0
  153.7188  143.8711  159.2893 H   0  0  0  0  0  0  0  0  0  0  0  0
  153.1039  144.3069  160.8601 H   0  0  0  0  0  0  0  0  0  0  0  0
  151.4968  142.4276  160.7912 H   0  0  0  0  0  0  0  0  0  0  0  0
  152.9776  140.5340  161.0558 H   0  0  0  0  0  0  0  0  0  0  0  0
  154.3183  142.9884  162.2327 H   0  0  0  0  0  0  0  0  0  0  0  0
  154.3675  141.3405  162.8358 H   0  0  0  0  0  0  0  0  0  0  0  0
  152.8540  142.2319  162.8605 H   0  0  0  0  0  0  0  0  0  0  0  0
  155.2537  142.1829  159.8687 H   0  0  0  0  0  0  0  0  0  0  0  0
  154.5058  140.7712  159.1208 H   0  0  0  0  0  0  0  0  0  0  0  0
  155.3890  140.6025  160.6221 H   0  0  0  0  0  0  0  0  0  0  0  0
  152.7267  141.7385  158.1088 H   0  0  0  0  0  0  0  0  0  0  0  0
  150.6090  140.3220  159.6648 H   0  0  0  0  0  0  0  0  0  0  0  0
  151.8143  137.4636  159.5940 H   0  0  0  0  0  0  0  0  0  0  0  0
  150.2705  138.2333  159.4166 H   0  0  0  0  0  0  0  0  0  0  0  0
  148.8253  137.3978  158.0314 H   0  0  0  0  0  0  0  0  0  0  0  0
  148.1409  135.9562  156.1219 H   0  0  0  0  0  0  0  0  0  0  0  0
  149.8927  142.6217  158.7790 H   0  0  0  0  0  0  0  0  0  0  0  0
  150.4767  142.2045  157.1915 H   0  0  0  0  0  0  0  0  0  0  0  0
  1  2  1  0  0  0  0
  1 23  1  0  0  0  0
  1 24  1  0  0  0  0
  1 25  1  0  0  0  0
  2 22  1  0  0  0  0
  2  3  1  0  0  0  0
  2 26  1  0  0  0  0
  3  4  1  0  0  0  0
  3 27  1  0  0  0  0
  3 28  1  0  0  0  0
  4  5  1  0  0  0  0
  4 29  1  0  0  0  0
  4 30  1  0  0  0  0
  5  6  1  0  0  0  0
  5  9  1  0  0  0  0
  5 31  1  0  0  0  0
  6  7  1  0  0  0  0
  6  8  1  0  0  0  0
  6 32  1  0  0  0  0
  7 33  1  0  0  0  0
  7 34  1  0  0  0  0
  7 35  1  0  0  0  0
  8 36  1  0  0  0  0
  8 37  1  0  0  0  0
  8 38  1  0  0  0  0
  9 10  1  0  0  0  0
  9 22  1  0  0  0  0
  9 39  1  0  0  0  0
 10 11  1  0  0  0  0
 10 40  1  0  0  0  0
 11 12  2  0  0  0  0
 11 13  1  0  0  0  0
 13 14  1  0  0  0  0
 13 41  1  0  0  0  0
 13 42  1  0  0  0  0
 14 20  1  0  0  0  0
 14 15  1  0  0  0  0
 15 16  2  0  0  0  0
 15 43  1  0  0  0  0
 16 17  1  0  0  0  0
 16 44  1  0  0  0  0
 17 18  2  0  0  0  0
 17 19  1  0  0  0  0
 19 20  1  0  0  0  0
 20 21  2  0  0  0  0
 22 45  1  0  0  0  0
 22 46  1  0  0  0  0
M  CHG  1  19  -1
M  END
> <s_m_source_file>
AV-unprocessed.smi

> <i_m_source_file_index>
2855

> <i_lp_mmshare_version>
43012

> <i_f3d_flags>
0

> <s_epik_input>
W0NIM11bQ0BASF0xW0NIMl1bQ0gyXVtDQEBIXShbQ0hdKFtDSDNdKVtDSDNdKVtDQEhdKFtDSDJdMSlbTkhdQyg9TylbQ0gyXW4yW2NIXVtjSF1jKD1PKVtuSF1jMj1P

> <s_epik_cmdline>
J2VwaWtfcHl0aG9uJywgJy1waCcsICc3LjAnLCAnLXRuJywgJzgnLCAnLW1hJywgJzIwMCcsICctbWV0YWxfYmluZGluZycsICctaW1hZScsICc8aW5maWxlLm1hZT4nLCAnLW9tYWUnLCAnPG91dGZpbGUubWFlPic=

> <r_lp_tautomer_probability>
0.999537

> <r_epik_Ionization_Penalty>
3.12102

> <r_epik_Ionization_Penalty_Charging>
2.9581e-08

> <r_epik_Ionization_Penalty_Neutral>
3.12102

> <r_epik_State_Penalty>
3.12011

> <r_epik_Charging_Adjusted_Penalty>
3.12011

> <i_epik_Tot_Q>
-1

> <i_epik_Tot_abs_Q>
1

> <r_epik_Metal_State_Penalty>
0.463583

> <b_epik_Metal_Only>
1

> <s_lp_Force_Field>
OPLS_2005

> <r_lp_Energy>
25.3875

> <b_lp_Chiralities_Consistent>
1

> <s_lp_Variant>
AV-unprocessed.smi:2855-11

> <Gold.Version>
5.8.1

> <Gold.Id.Protein>
6NUR|6NUR_protein|mol2

> <Gold.PLP.Fitness>
47.4027

> <Gold.PLP.PLP>
-38.8611

> <Gold.PLP.part.hbond>
-2.0000

> <Gold.PLP.part.metal>
0.0000

> <Gold.PLP.part.buried>
-6.2019

> <Gold.PLP.part.nonpolar>
-31.5409

> <Gold.PLP.part.repulsive>
0.4085

> <Gold.PLP.ligand.clash>
0.0000

> <Gold.PLP.ligand.torsion>
0.2650

> <Gold.PLP.Chemscore.Hbond>
3.0000

> <Gold.PLP.Chemscore.CHOScore>
0.0000

> <Gold.PLP.Chemscore.Metal>
0.0000

> <Gold.Chemscore.Hbonds>
donor molecule, donor type, donor heavy atom, donor atom, acceptor molecule, acceptor atom, score
      P1  H  7997  8010       L1    12  1.00
      P1  H 10752 10763       L1    19  2.00

> <Gold.PLP.Chemscore.Internal.Correction>
0.0716

> <Gold.Rescore>
     Score         DG    S(hbond)    S(metal)    S(lipo)     H(rot)  DE(clash)    DE(int)     intcor
     17.44     -21.01       1.79        0.00     121.28       1.81       1.81       1.76       ----

> <Gold.Chemscore.Fitness>
17.4406

> <Gold.Chemscore.DG>
-21.0116

> <Gold.Chemscore.ZeroCoef>
-5.4800

> <Gold.Chemscore.Hbond>
1.7891

> <Gold.Chemscore.Metal>
0.0000

> <Gold.Chemscore.Lipo>
121.2785

> <Gold.Chemscore.Internal_Hbond>
0.0000

> <Gold.Chemscore.DEClash>
1.8096

> <Gold.Chemscore.DEInternal>
1.7613

> <Gold.Chemscore.Rot>
1.8100

> <Gold.Chemscore.Internal.Correction>
   9.000000E+99

> <Gold.Chemscore.Hbonds>
donor molecule, donor type, donor heavy atom, donor atom, acceptor molecule, acceptor atom, score
      P1  H  7997  8010       L1    12  0.94
      P1  H 10752 10763       L1    19  0.29

> <Gold.Chemscore.Hbond.Weighted>
-5.9755

> <Gold.Chemscore.Metal.Weighted>
-0.0000

> <Gold.Chemscore.Lipo.Weighted>
-14.1896

> <Gold.Chemscore.Internal_Hbond.Weighted>
0.0000

> <Gold.Chemscore.DEClash.Weighted>
1.8096

> <Gold.Chemscore.DEInternal.Weighted>
1.7613

> <Gold.Chemscore.Rot.Weighted>
4.6335

> <Gold.Chemscore.Internal.Correction.Weighted>
   9.000000E+99

> <Gold.Protein.RotatedTorsions>
[ 6907 6896 6895 6894 ] final -114.90 input  -60.11 | X-H torsion
[ 7974 7965 7964 7962 ] final   82.37 input  175.53 | X-H torsion
[ 8008 7997 7996 7995 ] final   49.79 input   59.86 | X-H torsion
[ 10167 10162 10161 10158 ] final   -6.01 input  -65.29 | X-H torsion
[ 10718 10713 10712 10709 ] final -178.39 input   66.30 | X-H torsion
[ 10763 10752 10751 10750 ] final   96.43 input  -60.55 | X-H torsion
[ 11005 11000 10999 10996 ] final   98.25 input  -57.11 | X-H torsion

> <Gold.Protein.ActiveResidues>
 VAL166  LYS551  ARG553  GLY616  TRP617  ASP618  TYR619  PRO620  LYS621  CYS622 
 ASP623  PHE694  ASN695  SER759  ASP760  ASP761  ALA762  ILE779  LEU786  VAL792 
 PHE793  MET794  SER795  GLU796  ALA797  LYS798  CYS799  TRP800  GLU811  SER814 

> <Gold.Protein.RotatedAtoms>
  150.7937  133.8735  159.3265 H   0  0  0  0  0  0  0  0  0  0  0  0  # atno 6907 bound_to 6896
  151.6566  135.0993  160.0181 H   0  0  0  0  0  0  0  0  0  0  0  0  # atno 6908 bound_to 6896
  152.4015  133.6786  159.6356 H   0  0  0  0  0  0  0  0  0  0  0  0  # atno 6909 bound_to 6896
  145.6259  139.2395  143.2112 H   0  0  0  0  0  0  0  0  0  0  0  0  # atno 7974 bound_to 7965
  155.4080  140.3441  155.4261 H   0  0  0  0  0  0  0  0  0  0  0  0  # atno 8008 bound_to 7997
  156.1465  140.1558  156.8870 H   0  0  0  0  0  0  0  0  0  0  0  0  # atno 8009 bound_to 7997
  154.5015  140.0813  156.7789 H   0  0  0  0  0  0  0  0  0  0  0  0  # atno 8010 bound_to 7997
  140.6983  143.6242  150.8583 H   0  0  0  0  0  0  0  0  0  0  0  0  # atno 10167 bound_to 10162
  156.8435  130.9694  151.3098 H   0  0  0  0  0  0  0  0  0  0  0  0  # atno 10718 bound_to 10713
  153.2649  135.4218  155.0931 H   0  0  0  0  0  0  0  0  0  0  0  0  # atno 10763 bound_to 10752
  154.8434  135.3458  154.6325 H   0  0  0  0  0  0  0  0  0  0  0  0  # atno 10764 bound_to 10752
  153.6745  135.7042  153.5194 H   0  0  0  0  0  0  0  0  0  0  0  0  # atno 10765 bound_to 10752
  139.8773  134.9040  156.4428 H   0  0  0  0  0  0  0  0  0  0  0  0  # atno 11005 bound_to 11000
  146.1394  140.7078  142.9374 LP  0  0  0  0  0  0  0  0  0  0  0  0  # atno 17320 bound_to 7965
  144.7212  140.4380  143.7006 LP  0  0  0  0  0  0  0  0  0  0  0  0  # atno 17321 bound_to 7965
  139.9962  143.5793  152.2892 LP  0  0  0  0  0  0  0  0  0  0  0  0  # atno 17342 bound_to 10162
  139.6466  144.7658  151.2231 LP  0  0  0  0  0  0  0  0  0  0  0  0  # atno 17343 bound_to 10162
  157.6342  130.8753  149.9329 LP  0  0  0  0  0  0  0  0  0  0  0  0  # atno 17370 bound_to 10713
  156.0867  130.3667  150.0474 LP  0  0  0  0  0  0  0  0  0  0  0  0  # atno 17371 bound_to 10713
  140.8987  133.7795  155.9655 LP  0  0  0  0  0  0  0  0  0  0  0  0  # atno 17394 bound_to 11000
  140.8675  134.2767  157.5206 LP  0  0  0  0  0  0  0  0  0  0  0  0  # atno 17395 bound_to 11000

$$$$
