AV-unprocessed.smi:2510|AV-procd|sdf|9871|dock1
  -GOLD-   2272013503D 1   1.00000     0.00000
 Structure written by MMmdl.
 48 49  0  0  0  0  0  0  0  0  1 V2000
  146.5760  140.0898  157.2996 C   0  0  0  0  0  0  0  0  0  0  0  0
  146.4971  141.1382  156.1808 C   0  0  0  0  0  0  0  0  0  0  0  0
  147.7760  141.3080  155.3311 C   0  0  0  0  0  0  0  0  0  0  0  0
  147.6593  142.6528  154.5483 C   0  0  0  0  0  0  0  0  0  0  0  0
  146.2373  143.0960  154.1620 C   0  0  0  0  0  0  0  0  0  0  0  0
  149.0915  141.0857  156.1330 C   0  0  2  0  0  0  0  0  0  0  0  0
  149.7804  142.3022  156.5499 N   0  0  0  0  0  0  0  0  0  0  0  0
  151.0019  142.3286  157.1027 C   0  0  0  0  0  0  0  0  0  0  0  0
  151.7005  141.3262  157.2517 O   0  0  0  0  0  0  0  0  0  0  0  0
  151.5034  143.6907  157.5821 C   0  0  0  0  0  0  0  0  0  0  0  0
  151.9946  143.5799  159.0009 C   0  0  0  0  0  0  0  0  0  0  0  0
  153.0358  142.7465  159.5088 C   0  0  0  0  0  0  0  0  0  0  0  0
  153.0881  143.0433  160.8414 C   0  0  0  0  0  0  0  0  0  0  0  0
  153.9638  142.5296  161.9331 C   0  0  0  0  0  0  0  0  0  0  0  0
  152.1116  143.9865  161.0631 N   0  0  0  0  0  0  0  0  0  0  0  0
  151.4362  144.3208  159.9483 N   0  0  0  0  0  0  0  0  0  0  0  0
  149.7030  140.4410  154.8848 C   0  0  1  0  0  0  0  0  0  0  0  0
  150.7783  139.3726  155.0362 C   0  0  0  0  0  0  0  0  0  0  0  0
  148.2526  140.0648  154.5209 C   0  0  1  0  0  0  0  0  0  0  0  0
  147.8334  138.8450  155.1268 O   0  0  0  0  0  0  0  0  0  0  0  0
  146.5137  138.4679  154.7725 C   0  0  0  0  0  0  0  0  0  0  0  0
  151.8984  144.4058  161.9573 H   0  0  0  0  0  0  0  0  0  0  0  0
  145.7063  140.1640  157.9524 H   0  0  0  0  0  0  0  0  0  0  0  0
  147.4636  140.2268  157.9174 H   0  0  0  0  0  0  0  0  0  0  0  0
  146.5849  139.0766  156.9003 H   0  0  0  0  0  0  0  0  0  0  0  0
  145.6437  140.9113  155.5411 H   0  0  0  0  0  0  0  0  0  0  0  0
  146.2410  142.0906  156.6460 H   0  0  0  0  0  0  0  0  0  0  0  0
  148.1325  143.4598  155.1091 H   0  0  0  0  0  0  0  0  0  0  0  0
  148.2176  142.6126  153.6142 H   0  0  0  0  0  0  0  0  0  0  0  0
  146.2516  144.1137  153.7717 H   0  0  0  0  0  0  0  0  0  0  0  0
  145.5453  143.0776  155.0012 H   0  0  0  0  0  0  0  0  0  0  0  0
  145.8241  142.4635  153.3767 H   0  0  0  0  0  0  0  0  0  0  0  0
  148.9791  140.3562  156.9394 H   0  0  0  0  0  0  0  0  0  0  0  0
  149.2755  143.1718  156.4597 H   0  0  0  0  0  0  0  0  0  0  0  0
  152.2967  144.0351  156.9169 H   0  0  0  0  0  0  0  0  0  0  0  0
  150.7009  144.4263  157.5139 H   0  0  0  0  0  0  0  0  0  0  0  0
  153.6562  142.0449  158.9715 H   0  0  0  0  0  0  0  0  0  0  0  0
  154.8259  142.0018  161.5246 H   0  0  0  0  0  0  0  0  0  0  0  0
  153.4168  141.8379  162.5741 H   0  0  0  0  0  0  0  0  0  0  0  0
  154.3335  143.3468  162.5531 H   0  0  0  0  0  0  0  0  0  0  0  0
  150.0455  141.2148  154.1945 H   0  0  0  0  0  0  0  0  0  0  0  0
  150.4740  138.5922  155.7340 H   0  0  0  0  0  0  0  0  0  0  0  0
  151.7064  139.8026  155.4128 H   0  0  0  0  0  0  0  0  0  0  0  0
  151.0004  138.8970  154.0811 H   0  0  0  0  0  0  0  0  0  0  0  0
  148.0309  140.1024  153.4547 H   0  0  0  0  0  0  0  0  0  0  0  0
  146.2709  137.5107  155.2335 H   0  0  0  0  0  0  0  0  0  0  0  0
  146.4006  138.3601  153.6939 H   0  0  0  0  0  0  0  0  0  0  0  0
  145.7905  139.2035  155.1265 H   0  0  0  0  0  0  0  0  0  0  0  0
  1  2  1  0  0  0  0
  1 23  1  0  0  0  0
  1 24  1  0  0  0  0
  1 25  1  0  0  0  0
  2  3  1  0  0  0  0
  2 26  1  0  0  0  0
  2 27  1  0  0  0  0
  3 19  1  0  0  0  0
  3  4  1  0  0  0  0
  3  6  1  0  0  0  0
  4  5  1  0  0  0  0
  4 28  1  0  0  0  0
  4 29  1  0  0  0  0
  5 30  1  0  0  0  0
  5 31  1  0  0  0  0
  5 32  1  0  0  0  0
  6  7  1  0  0  0  0
  6 17  1  0  0  0  0
  6 33  1  0  0  0  0
  7  8  1  0  0  0  0
  7 34  1  0  0  0  0
  8  9  2  0  0  0  0
  8 10  1  0  0  0  0
 10 11  1  0  0  0  0
 10 35  1  0  0  0  0
 10 36  1  0  0  0  0
 11 16  2  0  0  0  0
 11 12  1  0  0  0  0
 12 13  2  0  0  0  0
 12 37  1  0  0  0  0
 13 14  1  0  0  0  0
 13 15  1  0  0  0  0
 14 38  1  0  0  0  0
 14 39  1  0  0  0  0
 14 40  1  0  0  0  0
 15 22  1  0  0  0  0
 15 16  1  0  0  0  0
 17 18  1  0  0  0  0
 17 19  1  0  0  0  0
 17 41  1  0  0  0  0
 18 42  1  0  0  0  0
 18 43  1  0  0  0  0
 18 44  1  0  0  0  0
 19 20  1  0  0  0  0
 19 45  1  0  0  0  0
 20 21  1  0  0  0  0
 21 46  1  0  0  0  0
 21 47  1  0  0  0  0
 21 48  1  0  0  0  0
M  END
> <s_m_source_file>
AV-unprocessed.smi

> <i_m_source_file_index>
2510

> <i_lp_mmshare_version>
43012

> <i_f3d_flags>
0

> <s_epik_input>
W0NIM11PW0NAQEhdMVtDQEhdKFtDSDNdKVtDQEBIXShDMShbQ0gyXVtDSDNdKVtDSDJdW0NIM10pW05IXUMoPU8pW0NIMl1jMltjSF1jKFtDSDNdKVtuSF1uMg==

> <s_epik_cmdline>
J2VwaWtfcHl0aG9uJywgJy1waCcsICc3LjAnLCAnLXRuJywgJzgnLCAnLW1hJywgJzIwMCcsICctbWV0YWxfYmluZGluZycsICctaW1hZScsICc8aW5maWxlLm1hZT4nLCAnLW9tYWUnLCAnPG91dGZpbGUubWFlPic=

> <r_lp_tautomer_probability>
0.5

> <r_epik_Ionization_Penalty>
9.73156e-05

> <r_epik_Ionization_Penalty_Charging>
0

> <r_epik_Ionization_Penalty_Neutral>
9.73156e-05

> <r_epik_State_Penalty>
0.41068

> <r_epik_Charging_Adjusted_Penalty>
0.41068

> <i_epik_Tot_Q>
0

> <i_epik_Tot_abs_Q>
0

> <r_epik_Metal_State_Penalty>
0.410699

> <b_epik_Metal_Only>
0

> <s_lp_Force_Field>
OPLS_2005

> <r_lp_Energy>
28.8176

> <b_lp_Chiralities_Consistent>
1

> <s_lp_Variant>
AV-unprocessed.smi:2510-2

> <Gold.Version>
5.8.1

> <Gold.Id.Protein>
6NUR|6NUR_protein|mol2

> <Gold.PLP.Fitness>
40.0612

> <Gold.PLP.PLP>
-38.4643

> <Gold.PLP.part.hbond>
-1.0000

> <Gold.PLP.part.metal>
0.0000

> <Gold.PLP.part.buried>
-1.9914

> <Gold.PLP.part.nonpolar>
-34.7691

> <Gold.PLP.part.repulsive>
0.3544

> <Gold.PLP.ligand.clash>
0.0000

> <Gold.PLP.ligand.torsion>
1.1105

> <Gold.PLP.Chemscore.Hbond>
1.0000

> <Gold.PLP.Chemscore.CHOScore>
0.0000

> <Gold.PLP.Chemscore.Metal>
0.0000

> <Gold.Chemscore.Hbonds>
donor molecule, donor type, donor heavy atom, donor atom, acceptor molecule, acceptor atom, score
      L1  H     7    34       P1  8028  1.00

> <Gold.PLP.Chemscore.Internal.Correction>
0.8179

> <Gold.Rescore>
     Score         DG    S(hbond)    S(metal)    S(lipo)     H(rot)  DE(clash)    DE(int)     intcor
     13.41     -16.65       1.00        0.00     106.63       1.81       0.39       2.85       ----

> <Gold.Chemscore.Fitness>
13.4103

> <Gold.Chemscore.DG>
-16.6462

> <Gold.Chemscore.ZeroCoef>
-5.4800

> <Gold.Chemscore.Hbond>
0.9955

> <Gold.Chemscore.Metal>
0.0000

> <Gold.Chemscore.Lipo>
106.6267

> <Gold.Chemscore.Internal_Hbond>
0.0000

> <Gold.Chemscore.DEClash>
0.3868

> <Gold.Chemscore.DEInternal>
2.8491

> <Gold.Chemscore.Rot>
1.8102

> <Gold.Chemscore.Internal.Correction>
   9.000000E+99

> <Gold.Chemscore.Hbonds>
donor molecule, donor type, donor heavy atom, donor atom, acceptor molecule, acceptor atom, score
      L1  H     7    34       P1  8028  0.98

> <Gold.Chemscore.Hbond.Weighted>
-3.3249

> <Gold.Chemscore.Metal.Weighted>
-0.0000

> <Gold.Chemscore.Lipo.Weighted>
-12.4753

> <Gold.Chemscore.Internal_Hbond.Weighted>
0.0000

> <Gold.Chemscore.DEClash.Weighted>
0.3868

> <Gold.Chemscore.DEInternal.Weighted>
2.8491

> <Gold.Chemscore.Rot.Weighted>
4.6341

> <Gold.Chemscore.Internal.Correction.Weighted>
   9.000000E+99

> <Gold.Protein.RotatedTorsions>
[ 6907 6896 6895 6894 ] final  -19.19 input  -60.11 | X-H torsion
[ 7974 7965 7964 7962 ] final   33.04 input  175.53 | X-H torsion
[ 8008 7997 7996 7995 ] final  -15.39 input   59.86 | X-H torsion
[ 10167 10162 10161 10158 ] final  121.16 input  -65.29 | X-H torsion
[ 10718 10713 10712 10709 ] final   10.70 input   66.30 | X-H torsion
[ 10763 10752 10751 10750 ] final  -88.71 input  -60.55 | X-H torsion
[ 11005 11000 10999 10996 ] final  -86.41 input  -57.11 | X-H torsion

> <Gold.Protein.ActiveResidues>
 VAL166  LYS551  ARG553  GLY616  TRP617  ASP618  TYR619  PRO620  LYS621  CYS622 
 ASP623  PHE694  ASN695  SER759  ASP760  ASP761  ALA762  ILE779  LEU786  VAL792 
 PHE793  MET794  SER795  GLU796  ALA797  LYS798  CYS799  TRP800  GLU811  SER814 

> <Gold.Protein.RotatedAtoms>
  151.2668  135.0672  159.9118 H   0  0  0  0  0  0  0  0  0  0  0  0  # atno 6907 bound_to 6896
  152.5357  134.0173  159.7976 H   0  0  0  0  0  0  0  0  0  0  0  0  # atno 6908 bound_to 6896
  151.0404  133.5661  159.2682 H   0  0  0  0  0  0  0  0  0  0  0  0  # atno 6909 bound_to 6896
  146.1447  139.6448  142.9139 H   0  0  0  0  0  0  0  0  0  0  0  0  # atno 7974 bound_to 7965
  154.5134  140.2197  155.9112 H   0  0  0  0  0  0  0  0  0  0  0  0  # atno 8008 bound_to 7997
  156.1579  140.3148  155.8724 H   0  0  0  0  0  0  0  0  0  0  0  0  # atno 8009 bound_to 7997
  155.3809  140.0472  157.3034 H   0  0  0  0  0  0  0  0  0  0  0  0  # atno 8010 bound_to 7997
  139.5937  144.7034  151.3229 H   0  0  0  0  0  0  0  0  0  0  0  0  # atno 10167 bound_to 10162
  156.9848  130.6020  149.5680 H   0  0  0  0  0  0  0  0  0  0  0  0  # atno 10718 bound_to 10713
  154.6474  135.5367  153.7861 H   0  0  0  0  0  0  0  0  0  0  0  0  # atno 10763 bound_to 10752
  153.0367  135.6474  154.1068 H   0  0  0  0  0  0  0  0  0  0  0  0  # atno 10764 bound_to 10752
  154.0988  135.2935  155.3236 H   0  0  0  0  0  0  0  0  0  0  0  0  # atno 10765 bound_to 10752
  141.1630  133.7453  156.9157 H   0  0  0  0  0  0  0  0  0  0  0  0  # atno 11005 bound_to 11000
  145.4966  141.0438  143.2563 LP  0  0  0  0  0  0  0  0  0  0  0  0  # atno 17320 bound_to 7965
  144.7832  139.6482  143.7145 LP  0  0  0  0  0  0  0  0  0  0  0  0  # atno 17321 bound_to 7965
  140.7194  143.7177  150.7720 LP  0  0  0  0  0  0  0  0  0  0  0  0  # atno 17342 bound_to 10162
  140.0739  143.5034  152.2566 LP  0  0  0  0  0  0  0  0  0  0  0  0  # atno 17343 bound_to 10162
  156.0230  130.5324  150.8328 LP  0  0  0  0  0  0  0  0  0  0  0  0  # atno 17370 bound_to 10713
  157.5500  131.0943  150.9708 LP  0  0  0  0  0  0  0  0  0  0  0  0  # atno 17371 bound_to 10713
  140.1486  134.9245  157.2563 LP  0  0  0  0  0  0  0  0  0  0  0  0  # atno 17394 bound_to 11000
  140.2750  134.3416  155.7361 LP  0  0  0  0  0  0  0  0  0  0  0  0  # atno 17395 bound_to 11000

$$$$
