AV-unprocessed.smi:3225|AV-procd|sdf|12312|dock8
  -GOLD-   2272018153D 1   1.00000     0.00000
 Structure written by MMmdl.
 41 42  0  0  0  0  0  0  0  0  2 V2000
  144.0939  136.5928  152.8649 C   0  0  0  0  0  0  0  0  0  0  0  0
  145.3961  136.0901  152.2202 C   0  0  1  0  0  0  0  0  0  0  0  0
  145.2084  135.6417  150.7564 C   0  0  0  0  0  0  0  0  0  0  0  0
  145.2021  134.1980  150.6016 N   0  0  0  0  0  0  0  0  0  0  0  0
  144.2231  133.3963  150.0525 C   0  0  0  0  0  0  0  0  0  0  0  0
  144.6688  132.1075  150.1205 C   0  0  0  0  0  0  0  0  0  0  0  0
  145.9503  132.2238  150.7280 C   0  0  0  0  0  0  0  0  0  0  0  0
  146.2673  133.4767  151.0130 N   0  0  0  0  0  0  0  0  0  0  0  0
  146.4306  137.1451  152.2911 N   0  3  0  0  0  0  0  0  0  0  0  0
  146.4782  137.8788  153.5717 C   0  0  0  0  0  0  0  0  0  0  0  0
  147.7630  138.7084  153.6862 C   0  0  0  0  0  0  0  0  0  0  0  0
  147.4745  140.2018  153.9140 C   0  0  0  0  0  0  0  0  0  0  0  0
  148.3634  140.7767  154.9206 N   0  0  0  0  0  0  0  0  0  0  0  0
  147.8247  141.4861  156.0693 C   0  0  0  0  0  0  0  0  0  0  0  0
  149.0354  141.7780  156.9686 C   0  0  0  0  0  0  0  0  0  0  0  0
  150.2750  141.4226  156.1401 C   0  0  0  0  0  0  0  0  0  0  0  0
  149.7002  140.7170  154.9244 C   0  0  0  0  0  0  0  0  0  0  0  0
  150.4029  140.1749  154.0725 O   0  0  0  0  0  0  0  0  0  0  0  0
  143.3350  135.8104  152.8960 H   0  0  0  0  0  0  0  0  0  0  0  0
  143.6787  137.4378  152.3148 H   0  0  0  0  0  0  0  0  0  0  0  0
  144.2653  136.9156  153.8925 H   0  0  0  0  0  0  0  0  0  0  0  0
  145.7324  135.2268  152.7973 H   0  0  0  0  0  0  0  0  0  0  0  0
  144.2712  136.0337  150.3581 H   0  0  0  0  0  0  0  0  0  0  0  0
  146.0058  136.0467  150.1316 H   0  0  0  0  0  0  0  0  0  0  0  0
  143.3004  133.8035  149.6660 H   0  0  0  0  0  0  0  0  0  0  0  0
  144.1581  131.2170  149.7849 H   0  0  0  0  0  0  0  0  0  0  0  0
  146.6549  131.4409  150.9677 H   0  0  0  0  0  0  0  0  0  0  0  0
  147.3322  136.7174  152.1346 H   0  0  0  0  0  0  0  0  0  0  0  0
  145.6065  138.5307  153.6433 H   0  0  0  0  0  0  0  0  0  0  0  0
  146.4205  137.1651  154.3949 H   0  0  0  0  0  0  0  0  0  0  0  0
  148.3701  138.3202  154.5053 H   0  0  0  0  0  0  0  0  0  0  0  0
  148.3563  138.5899  152.7781 H   0  0  0  0  0  0  0  0  0  0  0  0
  147.5876  140.7491  152.9773 H   0  0  0  0  0  0  0  0  0  0  0  0
  146.4385  140.3422  154.2268 H   0  0  0  0  0  0  0  0  0  0  0  0
  147.3511  142.4100  155.7349 H   0  0  0  0  0  0  0  0  0  0  0  0
  147.0762  140.8863  156.5888 H   0  0  0  0  0  0  0  0  0  0  0  0
  149.0514  142.8197  157.2910 H   0  0  0  0  0  0  0  0  0  0  0  0
  148.9963  141.1595  157.8661 H   0  0  0  0  0  0  0  0  0  0  0  0
  150.8137  142.3161  155.8232 H   0  0  0  0  0  0  0  0  0  0  0  0
  150.9612  140.7741  156.6856 H   0  0  0  0  0  0  0  0  0  0  0  0
  146.2589  137.8091  151.5496 H   0  0  0  0  0  0  0  0  0  0  0  0
  1  2  1  0  0  0  0
  1 19  1  0  0  0  0
  1 20  1  0  0  0  0
  1 21  1  0  0  0  0
  2  3  1  0  0  0  0
  2  9  1  0  0  0  0
  2 22  1  0  0  0  0
  3  4  1  0  0  0  0
  3 23  1  0  0  0  0
  3 24  1  0  0  0  0
  4  8  1  0  0  0  0
  4  5  1  0  0  0  0
  5  6  2  0  0  0  0
  5 25  1  0  0  0  0
  6  7  1  0  0  0  0
  6 26  1  0  0  0  0
  7  8  2  0  0  0  0
  7 27  1  0  0  0  0
  9 10  1  0  0  0  0
  9 28  1  0  0  0  0
  9 41  1  0  0  0  0
 10 11  1  0  0  0  0
 10 29  1  0  0  0  0
 10 30  1  0  0  0  0
 11 12  1  0  0  0  0
 11 31  1  0  0  0  0
 11 32  1  0  0  0  0
 12 13  1  0  0  0  0
 12 33  1  0  0  0  0
 12 34  1  0  0  0  0
 13 17  1  0  0  0  0
 13 14  1  0  0  0  0
 14 15  1  0  0  0  0
 14 35  1  0  0  0  0
 14 36  1  0  0  0  0
 15 16  1  0  0  0  0
 15 37  1  0  0  0  0
 15 38  1  0  0  0  0
 16 17  1  0  0  0  0
 16 39  1  0  0  0  0
 16 40  1  0  0  0  0
 17 18  2  0  0  0  0
M  CHG  1   9   1
M  END
> <s_m_source_file>
AV-unprocessed.smi

> <i_m_source_file_index>
3225

> <i_lp_mmshare_version>
43012

> <i_f3d_flags>
0

> <s_epik_input>
bjFbY0hdW2NIXVtjSF1uMVtDSDJdW0NAQEhdKFtDSDNdKVtOSF1bQ0gyXVtDSDJdW0NIMl1OMltDSDJdW0NIMl1bQ0gyXUMyPU8=

> <s_epik_cmdline>
J2VwaWtfcHl0aG9uJywgJy1waCcsICc3LjAnLCAnLXRuJywgJzgnLCAnLW1hJywgJzIwMCcsICctbWV0YWxfYmluZGluZycsICctaW1hZScsICc8aW5maWxlLm1hZT4nLCAnLW9tYWUnLCAnPG91dGZpbGUubWFlPic=

> <r_lp_tautomer_probability>
1

> <r_epik_Ionization_Penalty>
0.00490443

> <r_epik_Ionization_Penalty_Charging>
0.00490019

> <r_epik_Ionization_Penalty_Neutral>
4.24076e-06

> <r_epik_State_Penalty>
0.00355741

> <r_epik_Charging_Adjusted_Penalty>
0.0084576

> <i_epik_Tot_Q>
1

> <i_epik_Tot_abs_Q>
1

> <r_epik_Metal_State_Penalty>
-0

> <b_epik_Metal_Only>
0

> <s_lp_Force_Field>
OPLS_2005

> <r_lp_Energy>
22.636

> <b_lp_Chiralities_Consistent>
1

> <s_lp_Variant>
AV-unprocessed.smi:3225-2

> <Gold.Version>
5.8.1

> <Gold.Id.Protein>
6NUR|6NUR_protein|mol2

> <Gold.PLP.Fitness>
44.0940

> <Gold.PLP.PLP>
-32.1323

> <Gold.PLP.part.hbond>
-1.8046

> <Gold.PLP.part.metal>
0.0000

> <Gold.PLP.part.buried>
-5.2133

> <Gold.PLP.part.nonpolar>
-26.7688

> <Gold.PLP.part.repulsive>
0.9437

> <Gold.PLP.ligand.clash>
0.0000

> <Gold.PLP.ligand.torsion>
1.5488

> <Gold.PLP.Chemscore.Hbond>
3.0000

> <Gold.PLP.Chemscore.CHOScore>
2.0000

> <Gold.PLP.Chemscore.Metal>
0.0000

> <Gold.Chemscore.Hbonds>
donor molecule, donor type, donor heavy atom, donor atom, acceptor molecule, acceptor atom, score
      L1  H     9    28       P1  7948  2.00
      P1  H  7989  7998       L1    18  0.96
      L1  C     5    25       P1 10186  1.00
      L1  C     7    27       P1 10747  1.00

> <Gold.PLP.Chemscore.Internal.Correction>
0.0591

> <Gold.Rescore>
     Score         DG    S(hbond)    S(metal)    S(lipo)     H(rot)  DE(clash)    DE(int)     intcor
     13.46     -15.03       1.96        0.00      73.69       2.19       0.07       1.50       ----

> <Gold.Chemscore.Fitness>
13.4624

> <Gold.Chemscore.DG>
-15.0301

> <Gold.Chemscore.ZeroCoef>
-5.4800

> <Gold.Chemscore.Hbond>
1.9552

> <Gold.Chemscore.Metal>
0.0000

> <Gold.Chemscore.Lipo>
73.6937

> <Gold.Chemscore.Internal_Hbond>
0.0000

> <Gold.Chemscore.DEClash>
0.0711

> <Gold.Chemscore.DEInternal>
1.4966

> <Gold.Chemscore.Rot>
2.1884

> <Gold.Chemscore.Internal.Correction>
   9.000000E+99

> <Gold.Chemscore.Hbonds>
donor molecule, donor type, donor heavy atom, donor atom, acceptor molecule, acceptor atom, score
      L1  H     9    28       P1  7948  1.00
      P1  H  7989  7998       L1    18  0.86

> <Gold.Chemscore.Hbond.Weighted>
-6.5302

> <Gold.Chemscore.Metal.Weighted>
-0.0000

> <Gold.Chemscore.Lipo.Weighted>
-8.6222

> <Gold.Chemscore.Internal_Hbond.Weighted>
0.0000

> <Gold.Chemscore.DEClash.Weighted>
0.0711

> <Gold.Chemscore.DEInternal.Weighted>
1.4966

> <Gold.Chemscore.Rot.Weighted>
5.6023

> <Gold.Chemscore.Internal.Correction.Weighted>
   9.000000E+99

> <Gold.Protein.RotatedTorsions>
[ 6907 6896 6895 6894 ] final  -89.15 input  -60.11 | X-H torsion
[ 7974 7965 7964 7962 ] final -105.97 input  175.53 | X-H torsion
[ 8008 7997 7996 7995 ] final  150.60 input   59.86 | X-H torsion
[ 10167 10162 10161 10158 ] final  -87.43 input  -65.29 | X-H torsion
[ 10718 10713 10712 10709 ] final   22.48 input   66.30 | X-H torsion
[ 10763 10752 10751 10750 ] final   88.18 input  -60.55 | X-H torsion
[ 11005 11000 10999 10996 ] final   -4.13 input  -57.11 | X-H torsion

> <Gold.Protein.ActiveResidues>
 VAL166  LYS551  ARG553  GLY616  TRP617  ASP618  TYR619  PRO620  LYS621  CYS622 
 ASP623  PHE694  ASN695  SER759  ASP760  ASP761  ALA762  ILE779  LEU786  VAL792 
 PHE793  MET794  SER795  GLU796  ALA797  LYS798  CYS799  TRP800  GLU811  SER814 

> <Gold.Protein.RotatedAtoms>
  150.6872  134.2631  159.4557 H   0  0  0  0  0  0  0  0  0  0  0  0  # atno 6907 bound_to 6896
  152.0560  134.9622  160.0584 H   0  0  0  0  0  0  0  0  0  0  0  0  # atno 6908 bound_to 6896
  152.1067  133.4244  159.4649 H   0  0  0  0  0  0  0  0  0  0  0  0  # atno 6909 bound_to 6896
  145.2238  140.9144  143.3244 H   0  0  0  0  0  0  0  0  0  0  0  0  # atno 7974 bound_to 7965
  156.2709  140.2070  156.6042 H   0  0  0  0  0  0  0  0  0  0  0  0  # atno 8008 bound_to 7997
  154.6882  140.0533  157.0360 H   0  0  0  0  0  0  0  0  0  0  0  0  # atno 8009 bound_to 7997
  155.0903  140.3196  155.4578 H   0  0  0  0  0  0  0  0  0  0  0  0  # atno 8010 bound_to 7997
  140.3845  143.2733  151.9342 H   0  0  0  0  0  0  0  0  0  0  0  0  # atno 10167 bound_to 10162
  157.1530  130.6683  149.6018 H   0  0  0  0  0  0  0  0  0  0  0  0  # atno 10718 bound_to 10713
  153.1743  135.4516  154.9944 H   0  0  0  0  0  0  0  0  0  0  0  0  # atno 10763 bound_to 10752
  154.7987  135.3247  154.7606 H   0  0  0  0  0  0  0  0  0  0  0  0  # atno 10764 bound_to 10752
  153.8078  135.6957  153.4900 H   0  0  0  0  0  0  0  0  0  0  0  0  # atno 10765 bound_to 10752
  140.6769  133.9188  155.8530 H   0  0  0  0  0  0  0  0  0  0  0  0  # atno 11005 bound_to 11000
  144.9741  139.3850  143.6294 LP  0  0  0  0  0  0  0  0  0  0  0  0  # atno 17320 bound_to 7965
  146.3370  139.8851  142.8818 LP  0  0  0  0  0  0  0  0  0  0  0  0  # atno 17321 bound_to 7965
  139.4793  144.5787  151.7969 LP  0  0  0  0  0  0  0  0  0  0  0  0  # atno 17342 bound_to 10162
  140.4903  144.1319  150.5949 LP  0  0  0  0  0  0  0  0  0  0  0  0  # atno 17343 bound_to 10162
  155.9767  130.4738  150.6546 LP  0  0  0  0  0  0  0  0  0  0  0  0  # atno 17370 bound_to 10713
  157.4203  131.0836  151.1137 LP  0  0  0  0  0  0  0  0  0  0  0  0  # atno 17371 bound_to 10713
  141.0348  134.0704  157.3972 LP  0  0  0  0  0  0  0  0  0  0  0  0  # atno 17394 bound_to 11000
  139.8964  135.0145  156.7049 LP  0  0  0  0  0  0  0  0  0  0  0  0  # atno 17395 bound_to 11000

$$$$
