AV-unprocessed.smi:1522|AV-procd|sdf|6137|dock2
  -GOLD-   22720 6283D 1   1.00000     0.00000
 Structure written by MMmdl.
 34 35  0  0  0  0  0  0  0  0  3 V2000
  145.8944  133.9328  154.7014 C   0  0  0  0  0  0  0  0  0  0  0  0
  147.0798  134.5918  153.9596 C   0  0  1  0  0  0  0  0  0  0  0  0
  148.4232  133.9753  154.4165 C   0  0  0  0  0  0  0  0  0  0  0  0
  149.5028  134.9543  154.3921 N   0  0  0  0  0  0  0  0  0  0  0  0
  150.3753  135.1663  155.3852 C   0  0  0  0  0  0  0  0  0  0  0  0
  150.2985  134.5023  156.4213 O   0  0  0  0  0  0  0  0  0  0  0  0
  151.2790  136.1346  155.1149 N   0  5  0  0  0  0  0  0  0  0  0  0
  150.8669  137.3902  154.8745 C   0  0  0  0  0  0  0  0  0  0  0  0
  151.7205  138.3786  154.5625 N   0  0  0  0  0  0  0  0  0  0  0  0
  151.0899  139.5965  154.3472 N   0  0  0  0  0  0  0  0  0  0  0  0
  149.7694  139.4931  154.4958 C   0  0  0  0  0  0  0  0  0  0  0  0
  149.1759  137.8983  154.9078 S   0  0  0  0  0  0  0  0  0  0  0  0
  146.9214  134.4756  152.4809 N   0  3  0  0  0  0  0  0  0  0  0  0
  146.9372  133.0984  151.9403 C   0  0  0  0  0  0  0  0  0  0  0  0
  146.2837  133.2042  150.5675 C   0  0  0  0  0  0  0  0  0  0  0  0
  145.1877  134.2399  150.7890 C   0  0  0  0  0  0  0  0  0  0  0  0
  145.7163  135.1367  151.9172 C   0  0  0  0  0  0  0  0  0  0  0  0
  146.0034  134.0058  155.7836 H   0  0  0  0  0  0  0  0  0  0  0  0
  145.8116  132.8747  154.4510 H   0  0  0  0  0  0  0  0  0  0  0  0
  144.9442  134.4090  154.4610 H   0  0  0  0  0  0  0  0  0  0  0  0
  147.0856  135.6540  154.2102 H   0  0  0  0  0  0  0  0  0  0  0  0
  148.3263  133.5750  155.4271 H   0  0  0  0  0  0  0  0  0  0  0  0
  148.7147  133.1447  153.7729 H   0  0  0  0  0  0  0  0  0  0  0  0
  149.5984  135.5179  153.5601 H   0  0  0  0  0  0  0  0  0  0  0  0
  149.1408  140.3599  154.3575 H   0  0  0  0  0  0  0  0  0  0  0  0
  147.9476  132.6931  151.8790 H   0  0  0  0  0  0  0  0  0  0  0  0
  146.3433  132.4439  152.5809 H   0  0  0  0  0  0  0  0  0  0  0  0
  147.0068  133.5767  149.8405 H   0  0  0  0  0  0  0  0  0  0  0  0
  145.8998  132.2504  150.2043 H   0  0  0  0  0  0  0  0  0  0  0  0
  144.9536  134.7988  149.8824 H   0  0  0  0  0  0  0  0  0  0  0  0
  144.2735  133.7419  151.1152 H   0  0  0  0  0  0  0  0  0  0  0  0
  144.9388  135.2705  152.6707 H   0  0  0  0  0  0  0  0  0  0  0  0
  145.9915  136.1238  151.5441 H   0  0  0  0  0  0  0  0  0  0  0  0
  147.7135  134.9431  152.0636 H   0  0  0  0  0  0  0  0  0  0  0  0
  1  2  1  0  0  0  0
  1 18  1  0  0  0  0
  1 19  1  0  0  0  0
  1 20  1  0  0  0  0
  2  3  1  0  0  0  0
  2 13  1  0  0  0  0
  2 21  1  0  0  0  0
  3  4  1  0  0  0  0
  3 22  1  0  0  0  0
  3 23  1  0  0  0  0
  4  5  1  0  0  0  0
  4 24  1  0  0  0  0
  5  6  2  0  0  0  0
  5  7  1  0  0  0  0
  7  8  1  0  0  0  0
  8 12  1  0  0  0  0
  8  9  2  0  0  0  0
  9 10  1  0  0  0  0
 10 11  2  0  0  0  0
 11 12  1  0  0  0  0
 11 25  1  0  0  0  0
 13 17  1  0  0  0  0
 13 14  1  0  0  0  0
 13 34  1  0  0  0  0
 14 15  1  0  0  0  0
 14 26  1  0  0  0  0
 14 27  1  0  0  0  0
 15 16  1  0  0  0  0
 15 28  1  0  0  0  0
 15 29  1  0  0  0  0
 16 17  1  0  0  0  0
 16 30  1  0  0  0  0
 16 31  1  0  0  0  0
 17 32  1  0  0  0  0
 17 33  1  0  0  0  0
M  CHG  1   7  -1
M  CHG  1  13   1
M  END
> <s_m_source_file>
AV-unprocessed.smi

> <i_m_source_file_index>
1522

> <i_lp_mmshare_version>
43012

> <i_f3d_flags>
0

> <s_epik_input>
W0NIMl0xW0NIMl1bQ0gyXVtDSDJdTjFbQ0BIXShbQ0gzXSlbQ0gyXVtOSF1DKD1PKVtOSF1jMm5uW2NIXXMy

> <s_epik_cmdline>
J2VwaWtfcHl0aG9uJywgJy1waCcsICc3LjAnLCAnLXRuJywgJzgnLCAnLW1hJywgJzIwMCcsICctbWV0YWxfYmluZGluZycsICctaW1hZScsICc8aW5maWxlLm1hZT4nLCAnLW9tYWUnLCAnPG91dGZpbGUubWFlPic=

> <r_lp_tautomer_probability>
1

> <r_epik_Ionization_Penalty>
3.04208

> <r_epik_Ionization_Penalty_Charging>
3.00964

> <r_epik_Ionization_Penalty_Neutral>
0.0324455

> <r_epik_State_Penalty>
3.0051

> <r_epik_Charging_Adjusted_Penalty>
6.01474

> <i_epik_Tot_Q>
0

> <i_epik_Tot_abs_Q>
2

> <r_epik_Metal_State_Penalty>
0.454155

> <b_epik_Metal_Only>
1

> <s_lp_Force_Field>
OPLS_2005

> <r_lp_Energy>
23.3187

> <b_lp_Chiralities_Consistent>
1

> <s_lp_Variant>
AV-unprocessed.smi:1522-4

> <Gold.Version>
5.8.1

> <Gold.Id.Protein>
6NUR|6NUR_protein|mol2

> <Gold.PLP.Fitness>
41.1916

> <Gold.PLP.PLP>
-25.7831

> <Gold.PLP.part.hbond>
-4.0000

> <Gold.PLP.part.metal>
0.0000

> <Gold.PLP.part.buried>
-5.1532

> <Gold.PLP.part.nonpolar>
-17.5761

> <Gold.PLP.part.repulsive>
0.4146

> <Gold.PLP.ligand.clash>
0.0000

> <Gold.PLP.ligand.torsion>
1.0389

> <Gold.PLP.Chemscore.Hbond>
5.8000

> <Gold.PLP.Chemscore.CHOScore>
0.0000

> <Gold.PLP.Chemscore.Metal>
0.0000

> <Gold.Chemscore.Hbonds>
donor molecule, donor type, donor heavy atom, donor atom, acceptor molecule, acceptor atom, score
      L1  H     4    24       P1  7948  0.75
      L1  H    13    34       P1  7948  2.00
      P1  H  7989  7998       L1    10  1.00
      P1  H 10752 10764       L1     7  2.00

> <Gold.PLP.Chemscore.Internal.Correction>
0.0861

> <Gold.Rescore>
     Score         DG    S(hbond)    S(metal)    S(lipo)     H(rot)  DE(clash)    DE(int)     intcor
     15.33     -16.44       3.29        0.00      36.52       1.68       0.00       1.11       ----

> <Gold.Chemscore.Fitness>
15.3303

> <Gold.Chemscore.DG>
-16.4389

> <Gold.Chemscore.ZeroCoef>
-5.4800

> <Gold.Chemscore.Hbond>
3.2865

> <Gold.Chemscore.Metal>
0.0000

> <Gold.Chemscore.Lipo>
36.5200

> <Gold.Chemscore.Internal_Hbond>
0.0000

> <Gold.Chemscore.DEClash>
0.0000

> <Gold.Chemscore.DEInternal>
1.1086

> <Gold.Chemscore.Rot>
1.6762

> <Gold.Chemscore.Internal.Correction>
   9.000000E+99

> <Gold.Chemscore.Hbonds>
donor molecule, donor type, donor heavy atom, donor atom, acceptor molecule, acceptor atom, score
      L1  H     4    24       P1  7948  0.09
      L1  H    13    34       P1  7948  0.78
      P1  H  7989  7998       L1    10  0.94
      P1  H 10752 10764       L1     7  0.92

> <Gold.Chemscore.Hbond.Weighted>
-10.9770

> <Gold.Chemscore.Metal.Weighted>
-0.0000

> <Gold.Chemscore.Lipo.Weighted>
-4.2728

> <Gold.Chemscore.Internal_Hbond.Weighted>
0.0000

> <Gold.Chemscore.DEClash.Weighted>
0.0000

> <Gold.Chemscore.DEInternal.Weighted>
1.1086

> <Gold.Chemscore.Rot.Weighted>
4.2910

> <Gold.Chemscore.Internal.Correction.Weighted>
   9.000000E+99

> <Gold.Protein.RotatedTorsions>
[ 6907 6896 6895 6894 ] final  177.50 input  -60.11 | X-H torsion
[ 7974 7965 7964 7962 ] final   30.01 input  175.53 | X-H torsion
[ 8008 7997 7996 7995 ] final -153.66 input   59.86 | X-H torsion
[ 10167 10162 10161 10158 ] final  175.58 input  -65.29 | X-H torsion
[ 10718 10713 10712 10709 ] final  -21.59 input   66.30 | X-H torsion
[ 10763 10752 10751 10750 ] final  -55.96 input  -60.55 | X-H torsion
[ 11005 11000 10999 10996 ] final  -44.99 input  -57.11 | X-H torsion

> <Gold.Protein.ActiveResidues>
 VAL166  LYS551  ARG553  GLY616  TRP617  ASP618  TYR619  PRO620  LYS621  CYS622 
 ASP623  PHE694  ASN695  SER759  ASP760  ASP761  ALA762  ILE779  LEU786  VAL792 
 PHE793  MET794  SER795  GLU796  ALA797  LYS798  CYS799  TRP800  GLU811  SER814 

> <Gold.Protein.RotatedAtoms>
  151.7031  133.3311  159.3271 H   0  0  0  0  0  0  0  0  0  0  0  0  # atno 6907 bound_to 6896
  150.7727  134.6598  159.6343 H   0  0  0  0  0  0  0  0  0  0  0  0  # atno 6908 bound_to 6896
  152.3758  134.6669  160.0212 H   0  0  0  0  0  0  0  0  0  0  0  0  # atno 6909 bound_to 6896
  146.1638  139.6846  142.9015 H   0  0  0  0  0  0  0  0  0  0  0  0  # atno 7974 bound_to 7965
  155.6743  140.0737  157.2508 H   0  0  0  0  0  0  0  0  0  0  0  0  # atno 8008 bound_to 7997
  154.4117  140.1693  156.1965 H   0  0  0  0  0  0  0  0  0  0  0  0  # atno 8009 bound_to 7997
  155.9589  140.3371  155.6476 H   0  0  0  0  0  0  0  0  0  0  0  0  # atno 8010 bound_to 7997
  139.5182  144.3015  152.0374 H   0  0  0  0  0  0  0  0  0  0  0  0  # atno 10167 bound_to 10162
  156.5160  130.4621  149.6622 H   0  0  0  0  0  0  0  0  0  0  0  0  # atno 10718 bound_to 10713
  154.1991  135.6414  153.5082 H   0  0  0  0  0  0  0  0  0  0  0  0  # atno 10763 bound_to 10752
  153.0016  135.5447  154.6334 H   0  0  0  0  0  0  0  0  0  0  0  0  # atno 10764 bound_to 10752
  154.5743  135.2919  155.0770 H   0  0  0  0  0  0  0  0  0  0  0  0  # atno 10765 bound_to 10752
  141.0486  133.6751  156.2949 H   0  0  0  0  0  0  0  0  0  0  0  0  # atno 11005 bound_to 11000
  145.4521  141.0429  143.2799 LP  0  0  0  0  0  0  0  0  0  0  0  0  # atno 17320 bound_to 7965
  144.8063  139.6045  143.7049 LP  0  0  0  0  0  0  0  0  0  0  0  0  # atno 17321 bound_to 7965
  140.2463  144.4217  150.6240 LP  0  0  0  0  0  0  0  0  0  0  0  0  # atno 17342 bound_to 10162
  140.6256  143.2181  151.6603 LP  0  0  0  0  0  0  0  0  0  0  0  0  # atno 17343 bound_to 10162
  156.3194  130.7272  151.2181 LP  0  0  0  0  0  0  0  0  0  0  0  0  # atno 17370 bound_to 10713
  157.7444  131.0459  150.4869 LP  0  0  0  0  0  0  0  0  0  0  0  0  # atno 17371 bound_to 10713
  140.6099  134.5469  157.5532 LP  0  0  0  0  0  0  0  0  0  0  0  0  # atno 17394 bound_to 11000
  139.9332  134.7924  156.0874 LP  0  0  0  0  0  0  0  0  0  0  0  0  # atno 17395 bound_to 11000

$$$$
