AV-unprocessed.smi:203|AV-procd|sdf|1593|dock5
  -GOLD-   2262019493D 1   1.00000     0.00000
 Structure written by MMmdl.
 57 61  0  0  0  0  0  0  0  0  1 V2000
  153.6755  136.2984  160.7671 O   0  0  0  0  0  0  0  0  0  0  0  0
  153.1954  137.2468  160.1508 C   0  0  0  0  0  0  0  0  0  0  0  0
  153.5385  138.6978  160.4447 C   0  0  0  0  0  0  0  0  0  0  0  0
  152.9342  139.4368  159.2365 C   0  0  2  0  0  0  0  0  0  0  0  0
  152.4327  140.8937  159.4841 C   0  0  1  0  0  0  0  0  0  0  0  0
  153.3079  141.6766  160.4991 C   0  0  0  0  0  0  0  0  0  0  0  0
  152.7892  143.1043  160.7172 C   0  0  0  0  0  0  0  0  0  0  0  0
  152.6966  143.8370  159.3754 C   0  0  0  0  0  0  0  0  0  0  0  0
  151.8194  143.0455  158.3974 C   0  0  0  0  0  0  0  0  0  0  0  0
  152.3006  141.6732  158.2389 N   0  0  0  0  0  0  0  0  0  0  0  0
  151.6583  141.0789  157.2077 C   0  0  0  0  0  0  0  0  0  0  0  0
  152.4068  140.3240  156.3664 N   0  0  0  0  0  0  0  0  0  0  0  0
  151.8307  139.7121  155.3273 C   0  0  0  0  0  0  0  0  0  0  0  0
  150.5495  139.7294  154.9533 N   0  0  0  0  0  0  0  0  0  0  0  0
  149.7976  140.4974  155.7932 C   0  0  0  0  0  0  0  0  0  0  0  0
  150.2666  141.2046  156.9350 C   0  0  0  0  0  0  0  0  0  0  0  0
  149.2145  141.8835  157.5381 N   0  0  0  0  0  0  0  0  0  0  0  0
  148.1829  141.5996  156.7908 C   0  0  0  0  0  0  0  0  0  0  0  0
  148.4450  140.7788  155.7180 N   0  0  0  0  0  0  0  0  0  0  0  0
  147.4934  140.3280  154.7191 C   0  0  0  0  0  0  0  0  0  0  0  0
  146.0304  140.6391  155.1000 C   0  0  2  0  0  0  0  0  0  0  0  0
  145.2038  139.9811  154.1609 O   0  0  0  0  0  0  0  0  0  0  0  0
  145.6836  142.1450  155.1127 C   0  0  1  0  0  0  0  0  0  0  0  0
  145.9361  142.8728  153.7916 C   0  0  0  0  0  0  0  0  0  0  0  0
  145.0441  144.0990  153.8937 C   0  0  0  0  0  0  0  0  0  0  0  0
  144.0025  143.7068  154.9452 C   0  0  0  0  0  0  0  0  0  0  0  0
  144.2865  142.3515  155.2633 O   0  0  0  0  0  0  0  0  0  0  0  0
  151.9070  138.4542  158.6391 C   0  0  0  0  0  0  0  0  0  0  0  0
  152.3210  137.1613  159.1484 N   0  0  0  0  0  0  0  0  0  0  0  0
  153.0840  138.9816  161.3923 H   0  0  0  0  0  0  0  0  0  0  0  0
  154.6160  138.8471  160.5207 H   0  0  0  0  0  0  0  0  0  0  0  0
  153.7265  139.4781  158.4878 H   0  0  0  0  0  0  0  0  0  0  0  0
  151.4367  140.8214  159.9217 H   0  0  0  0  0  0  0  0  0  0  0  0
  153.3368  141.1748  161.4643 H   0  0  0  0  0  0  0  0  0  0  0  0
  154.3390  141.7339  160.1520 H   0  0  0  0  0  0  0  0  0  0  0  0
  151.8072  143.0734  161.1911 H   0  0  0  0  0  0  0  0  0  0  0  0
  153.4490  143.6448  161.3964 H   0  0  0  0  0  0  0  0  0  0  0  0
  152.2875  144.8372  159.5199 H   0  0  0  0  0  0  0  0  0  0  0  0
  153.6946  143.9645  158.9540 H   0  0  0  0  0  0  0  0  0  0  0  0
  150.7899  143.0269  158.7584 H   0  0  0  0  0  0  0  0  0  0  0  0
  151.8071  143.5521  157.4310 H   0  0  0  0  0  0  0  0  0  0  0  0
  152.4913  139.1262  154.7055 H   0  0  0  0  0  0  0  0  0  0  0  0
  147.1974  141.9913  156.9967 H   0  0  0  0  0  0  0  0  0  0  0  0
  147.7450  140.7938  153.7652 H   0  0  0  0  0  0  0  0  0  0  0  0
  147.6286  139.2541  154.5841 H   0  0  0  0  0  0  0  0  0  0  0  0
  145.8129  140.2136  156.0805 H   0  0  0  0  0  0  0  0  0  0  0  0
  145.0678  140.5578  153.4248 H   0  0  0  0  0  0  0  0  0  0  0  0
  146.2129  142.6518  155.9223 H   0  0  0  0  0  0  0  0  0  0  0  0
  146.9857  143.1249  153.6386 H   0  0  0  0  0  0  0  0  0  0  0  0
  145.6118  142.2528  152.9545 H   0  0  0  0  0  0  0  0  0  0  0  0
  145.6115  144.9676  154.2296 H   0  0  0  0  0  0  0  0  0  0  0  0
  144.5897  144.3438  152.9333 H   0  0  0  0  0  0  0  0  0  0  0  0
  144.1085  144.3193  155.8419 H   0  0  0  0  0  0  0  0  0  0  0  0
  142.9802  143.8095  154.5802 H   0  0  0  0  0  0  0  0  0  0  0  0
  150.8868  138.6385  158.9693 H   0  0  0  0  0  0  0  0  0  0  0  0
  151.9159  138.4697  157.5487 H   0  0  0  0  0  0  0  0  0  0  0  0
  151.9563  136.2915  158.7881 H   0  0  0  0  0  0  0  0  0  0  0  0
  1  2  2  0  0  0  0
  2 29  1  0  0  0  0
  2  3  1  0  0  0  0
  3  4  1  0  0  0  0
  3 30  1  0  0  0  0
  3 31  1  0  0  0  0
  4  5  1  0  0  0  0
  4 28  1  0  0  0  0
  4 32  1  0  0  0  0
  5 10  1  0  0  0  0
  5  6  1  0  0  0  0
  5 33  1  0  0  0  0
  6  7  1  0  0  0  0
  6 34  1  0  0  0  0
  6 35  1  0  0  0  0
  7  8  1  0  0  0  0
  7 36  1  0  0  0  0
  7 37  1  0  0  0  0
  8  9  1  0  0  0  0
  8 38  1  0  0  0  0
  8 39  1  0  0  0  0
  9 10  1  0  0  0  0
  9 40  1  0  0  0  0
  9 41  1  0  0  0  0
 10 11  1  0  0  0  0
 11 16  1  0  0  0  0
 11 12  2  0  0  0  0
 12 13  1  0  0  0  0
 13 14  2  0  0  0  0
 13 42  1  0  0  0  0
 14 15  1  0  0  0  0
 15 19  1  0  0  0  0
 15 16  2  0  0  0  0
 16 17  1  0  0  0  0
 17 18  2  0  0  0  0
 18 19  1  0  0  0  0
 18 43  1  0  0  0  0
 19 20  1  0  0  0  0
 20 21  1  0  0  0  0
 20 44  1  0  0  0  0
 20 45  1  0  0  0  0
 21 22  1  0  0  0  0
 21 23  1  0  0  0  0
 21 46  1  0  0  0  0
 22 47  1  0  0  0  0
 23 27  1  0  0  0  0
 23 24  1  0  0  0  0
 23 48  1  0  0  0  0
 24 25  1  0  0  0  0
 24 49  1  0  0  0  0
 24 50  1  0  0  0  0
 25 26  1  0  0  0  0
 25 51  1  0  0  0  0
 25 52  1  0  0  0  0
 26 27  1  0  0  0  0
 26 53  1  0  0  0  0
 26 54  1  0  0  0  0
 28 29  1  0  0  0  0
 28 55  1  0  0  0  0
 28 56  1  0  0  0  0
 29 57  1  0  0  0  0
M  END
> <s_m_source_file>
AV-unprocessed.smi

> <i_m_source_file_index>
203

> <i_lp_mmshare_version>
43012

> <i_f3d_flags>
0

> <s_epik_input>
Tz1DMVtDSDJdW0NASF0oW0NIMl1bTkhdMSlbQ0BASF0yW0NIMl1bQ0gyXVtDSDJdW0NIMl1OMmMobltjSF1uMyljKGMzNCluW2NIXW40W0NIMl1bQ0BIXShbT0hdKVtDQEBIXTVbQ0gyXVtDSDJdW0NIMl1PNQ==

> <s_epik_cmdline>
J2VwaWtfcHl0aG9uJywgJy1waCcsICc3LjAnLCAnLXRuJywgJzgnLCAnLW1hJywgJzIwMCcsICctbWV0YWxfYmluZGluZycsICctaW1hZScsICc8aW5maWxlLm1hZT4nLCAnLW9tYWUnLCAnPG91dGZpbGUubWFlPic=

> <r_lp_tautomer_probability>
1

> <r_epik_Ionization_Penalty>
0.00175146

> <r_epik_Ionization_Penalty_Charging>
0

> <r_epik_Ionization_Penalty_Neutral>
0.00175146

> <r_epik_State_Penalty>
0.00109045

> <r_epik_Charging_Adjusted_Penalty>
0.00109045

> <i_epik_Tot_Q>
0

> <i_epik_Tot_abs_Q>
0

> <r_epik_Metal_State_Penalty>
-0

> <b_epik_Metal_Only>
0

> <s_lp_Force_Field>
OPLS_2005

> <r_lp_Energy>
55.5443

> <b_lp_Chiralities_Consistent>
1

> <s_lp_Variant>
AV-unprocessed.smi:203-12

> <Gold.Version>
5.8.1

> <Gold.Id.Protein>
6NUR|6NUR_protein|mol2

> <Gold.PLP.Fitness>
48.7511

> <Gold.PLP.PLP>
-43.8647

> <Gold.PLP.part.hbond>
-2.8923

> <Gold.PLP.part.metal>
0.0000

> <Gold.PLP.part.buried>
-3.5764

> <Gold.PLP.part.nonpolar>
-38.4983

> <Gold.PLP.part.repulsive>
0.4606

> <Gold.PLP.ligand.clash>
0.0014

> <Gold.PLP.ligand.torsion>
1.1602

> <Gold.PLP.Chemscore.Hbond>
2.3095

> <Gold.PLP.Chemscore.CHOScore>
0.0000

> <Gold.PLP.Chemscore.Metal>
0.0000

> <Gold.Chemscore.Hbonds>
donor molecule, donor type, donor heavy atom, donor atom, acceptor molecule, acceptor atom, score
      L1  H    22    47       P1 10175  0.45
      P1  H  6896  6907       L1     1  0.71
      P1  H  7997  8008       L1    12  1.00

> <Gold.PLP.Chemscore.Internal.Correction>
0.2797

> <Gold.Rescore>
     Score         DG    S(hbond)    S(metal)    S(lipo)     H(rot)  DE(clash)    DE(int)     intcor
     12.75     -17.45       1.92        0.00     107.06       2.72       2.41       2.29       ----

> <Gold.Chemscore.Fitness>
12.7524

> <Gold.Chemscore.DG>
-17.4473

> <Gold.Chemscore.ZeroCoef>
-5.4800

> <Gold.Chemscore.Hbond>
1.9154

> <Gold.Chemscore.Metal>
0.0000

> <Gold.Chemscore.Lipo>
107.0553

> <Gold.Chemscore.Internal_Hbond>
0.0000

> <Gold.Chemscore.DEClash>
2.4052

> <Gold.Chemscore.DEInternal>
2.2897

> <Gold.Chemscore.Rot>
2.7171

> <Gold.Chemscore.Internal.Correction>
   9.000000E+99

> <Gold.Chemscore.Hbonds>
donor molecule, donor type, donor heavy atom, donor atom, acceptor molecule, acceptor atom, score
      L1  H    22    47       P1 10175  0.45
      P1  H  6896  6907       L1     1  0.16
      P1  H  7997  8008       L1    12  0.83

> <Gold.Chemscore.Hbond.Weighted>
-6.3975

> <Gold.Chemscore.Metal.Weighted>
-0.0000

> <Gold.Chemscore.Lipo.Weighted>
-12.5255

> <Gold.Chemscore.Internal_Hbond.Weighted>
0.0000

> <Gold.Chemscore.DEClash.Weighted>
2.4052

> <Gold.Chemscore.DEInternal.Weighted>
2.2897

> <Gold.Chemscore.Rot.Weighted>
6.9557

> <Gold.Chemscore.Internal.Correction.Weighted>
   9.000000E+99

> <Gold.Protein.RotatedTorsions>
[ 6907 6896 6895 6894 ] final   54.34 input  -60.11 | X-H torsion
[ 7974 7965 7964 7962 ] final  -51.22 input  175.53 | X-H torsion
[ 8008 7997 7996 7995 ] final  -48.72 input   59.86 | X-H torsion
[ 10167 10162 10161 10158 ] final -173.52 input  -65.29 | X-H torsion
[ 10718 10713 10712 10709 ] final  141.06 input   66.30 | X-H torsion
[ 10763 10752 10751 10750 ] final  -67.74 input  -60.55 | X-H torsion
[ 11005 11000 10999 10996 ] final  -28.26 input  -57.11 | X-H torsion

> <Gold.Protein.ActiveResidues>
 VAL166  LYS551  ARG553  GLY616  TRP617  ASP618  TYR619  PRO620  LYS621  CYS622 
 ASP623  PHE694  ASN695  SER759  ASP760  ASP761  ALA762  ILE779  LEU786  VAL792 
 PHE793  MET794  SER795  GLU796  ALA797  LYS798  CYS799  TRP800  GLU811  SER814 

> <Gold.Protein.RotatedAtoms>
  152.3429  134.7111  160.0258 H   0  0  0  0  0  0  0  0  0  0  0  0  # atno 6907 bound_to 6896
  151.7490  133.3321  159.3394 H   0  0  0  0  0  0  0  0  0  0  0  0  # atno 6908 bound_to 6896
  150.7490  134.6142  159.6146 H   0  0  0  0  0  0  0  0  0  0  0  0  # atno 6909 bound_to 6896
  145.9213  140.7831  142.9646 H   0  0  0  0  0  0  0  0  0  0  0  0  # atno 7974 bound_to 7965
  154.4033  140.1314  156.4385 H   0  0  0  0  0  0  0  0  0  0  0  0  # atno 8008 bound_to 7997
  155.7481  140.3488  155.5117 H   0  0  0  0  0  0  0  0  0  0  0  0  # atno 8009 bound_to 7997
  155.8975  140.1013  157.1364 H   0  0  0  0  0  0  0  0  0  0  0  0  # atno 8010 bound_to 7997
  139.5684  144.1701  152.1347 H   0  0  0  0  0  0  0  0  0  0  0  0  # atno 10167 bound_to 10162
  157.3963  131.1011  151.0596 H   0  0  0  0  0  0  0  0  0  0  0  0  # atno 10718 bound_to 10713
  154.3789  135.6078  153.5780 H   0  0  0  0  0  0  0  0  0  0  0  0  # atno 10763 bound_to 10752
  152.9788  135.5856  154.4433 H   0  0  0  0  0  0  0  0  0  0  0  0  # atno 10764 bound_to 10752
  154.4199  135.2845  155.1960 H   0  0  0  0  0  0  0  0  0  0  0  0  # atno 10765 bound_to 10752
  140.9192  133.7410  156.0778 H   0  0  0  0  0  0  0  0  0  0  0  0  # atno 11005 bound_to 11000
  144.6753  140.1980  143.7390 LP  0  0  0  0  0  0  0  0  0  0  0  0  # atno 17320 bound_to 7965
  145.8546  139.2192  143.1752 LP  0  0  0  0  0  0  0  0  0  0  0  0  # atno 17321 bound_to 7965
  140.1228  144.5358  150.6851 LP  0  0  0  0  0  0  0  0  0  0  0  0  # atno 17342 bound_to 10162
  140.6968  143.2409  151.4978 LP  0  0  0  0  0  0  0  0  0  0  0  0  # atno 17343 bound_to 10162
  157.1612  130.6226  149.5611 LP  0  0  0  0  0  0  0  0  0  0  0  0  # atno 17370 bound_to 10713
  155.9811  130.4816  150.6810 LP  0  0  0  0  0  0  0  0  0  0  0  0  # atno 17371 bound_to 10713
  140.8010  134.3509  157.5439 LP  0  0  0  0  0  0  0  0  0  0  0  0  # atno 17394 bound_to 11000
  139.8772  134.9197  156.3234 LP  0  0  0  0  0  0  0  0  0  0  0  0  # atno 17395 bound_to 11000

$$$$
