AV-unprocessed.smi:872|AV-procd|sdf|4013|dock2
  -GOLD-   22720 1503D 1   1.00000     0.00000
 Structure written by MMmdl.
 27 28  0  0  0  0  0  0  0  0  3 V2000
  152.8062  138.9940  155.8033 O   0  0  0  0  0  0  0  0  0  0  0  0
  151.8252  139.7432  155.6008 C   0  0  0  0  0  0  0  0  0  0  0  0
  151.0710  139.6139  154.6113 O   0  5  0  0  0  0  0  0  0  0  0  0
  151.5434  140.8409  156.5858 C   0  0  0  0  0  0  0  0  0  0  0  0
  150.7624  141.9591  156.2143 C   0  0  0  0  0  0  0  0  0  0  0  0
  150.5146  142.9411  157.1074 N   0  3  0  0  0  0  0  0  0  0  0  0
  150.9838  142.9159  158.3727 C   0  0  0  0  0  0  0  0  0  0  0  0
  151.7722  141.8277  158.8126 C   0  0  0  0  0  0  0  0  0  0  0  0
  152.2811  141.7625  160.1168 N   0  0  0  0  0  0  0  0  0  0  0  0
  153.5851  141.1160  160.1970 C   0  0  0  0  0  0  0  0  0  0  0  0
  154.0146  140.9780  161.6680 C   0  0  0  0  0  0  0  0  0  0  0  0
  154.0034  142.2601  162.2901 O   0  0  0  0  0  0  0  0  0  0  0  0
  152.7057  142.8486  162.2768 C   0  0  0  0  0  0  0  0  0  0  0  0
  152.2417  143.0376  160.8221 C   0  0  0  0  0  0  0  0  0  0  0  0
  152.0517  140.7827  157.9051 C   0  0  0  0  0  0  0  0  0  0  0  0
  150.3290  142.0997  155.2344 H   0  0  0  0  0  0  0  0  0  0  0  0
  150.7162  143.7620  158.9888 H   0  0  0  0  0  0  0  0  0  0  0  0
  153.5407  140.1329  159.7266 H   0  0  0  0  0  0  0  0  0  0  0  0
  154.3249  141.7030  159.6509 H   0  0  0  0  0  0  0  0  0  0  0  0
  153.3536  140.2955  162.2047 H   0  0  0  0  0  0  0  0  0  0  0  0
  155.0203  140.5615  161.7286 H   0  0  0  0  0  0  0  0  0  0  0  0
  152.0047  142.2224  162.8313 H   0  0  0  0  0  0  0  0  0  0  0  0
  152.7458  143.8111  162.7871 H   0  0  0  0  0  0  0  0  0  0  0  0
  152.8873  143.7603  160.3211 H   0  0  0  0  0  0  0  0  0  0  0  0
  151.2282  143.4405  160.8020 H   0  0  0  0  0  0  0  0  0  0  0  0
  152.6533  139.9443  158.2268 H   0  0  0  0  0  0  0  0  0  0  0  0
  149.9482  143.7364  156.8118 H   0  0  0  0  0  0  0  0  0  0  0  0
  1  2  2  0  0  0  0
  2  3  1  0  0  0  0
  2  4  1  0  0  0  0
  4 15  1  0  0  0  0
  4  5  2  0  0  0  0
  5  6  1  0  0  0  0
  5 16  1  0  0  0  0
  6  7  2  0  0  0  0
  6 27  1  0  0  0  0
  7  8  1  0  0  0  0
  7 17  1  0  0  0  0
  8  9  1  0  0  0  0
  8 15  2  0  0  0  0
  9 14  1  0  0  0  0
  9 10  1  0  0  0  0
 10 11  1  0  0  0  0
 10 18  1  0  0  0  0
 10 19  1  0  0  0  0
 11 12  1  0  0  0  0
 11 20  1  0  0  0  0
 11 21  1  0  0  0  0
 12 13  1  0  0  0  0
 13 14  1  0  0  0  0
 13 22  1  0  0  0  0
 13 23  1  0  0  0  0
 14 24  1  0  0  0  0
 14 25  1  0  0  0  0
 15 26  1  0  0  0  0
M  CHG  1   3  -1
M  CHG  1   6   1
M  END
> <s_m_source_file>
AV-unprocessed.smi

> <i_m_source_file_index>
872

> <i_lp_mmshare_version>
43012

> <i_f3d_flags>
0

> <s_epik_input>
Tz1DKFtPSF0pYzFbY0hdbltjSF1jKFtjSF0xKU4yW0NIMl1bQ0gyXU9bQ0gyXVtDSDJdMg==

> <s_epik_cmdline>
J2VwaWtfcHl0aG9uJywgJy1waCcsICc3LjAnLCAnLXRuJywgJzgnLCAnLW1hJywgJzIwMCcsICctbWV0YWxfYmluZGluZycsICctaW1hZScsICc8aW5maWxlLm1hZT4nLCAnLW9tYWUnLCAnPG91dGZpbGUubWFlPic=

> <r_epik_Ionization_Penalty>
1.67211

> <r_epik_Ionization_Penalty_Charging>
1.67211

> <r_epik_Ionization_Penalty_Neutral>
1.01163e-11

> <r_epik_State_Penalty>
1.7758

> <r_epik_Charging_Adjusted_Penalty>
3.44791

> <i_epik_Tot_Q>
0

> <i_epik_Tot_abs_Q>
2

> <r_epik_Metal_State_Penalty>
5.83824

> <b_epik_Metal_Only>
0

> <s_lp_Force_Field>
OPLS_2005

> <r_lp_Energy>
21.0429

> <b_lp_Chiralities_Consistent>
1

> <s_lp_Variant>
AV-unprocessed.smi:872-2

> <Gold.Version>
5.8.1

> <Gold.Id.Protein>
6NUR|6NUR_protein|mol2

> <Gold.PLP.Fitness>
47.8605

> <Gold.PLP.PLP>
-34.2701

> <Gold.PLP.part.hbond>
-4.0000

> <Gold.PLP.part.metal>
0.0000

> <Gold.PLP.part.buried>
-3.9132

> <Gold.PLP.part.nonpolar>
-25.4918

> <Gold.PLP.part.repulsive>
0.1229

> <Gold.PLP.ligand.clash>
0.0000

> <Gold.PLP.ligand.torsion>
0.7584

> <Gold.PLP.Chemscore.Hbond>
5.0000

> <Gold.PLP.Chemscore.CHOScore>
0.0000

> <Gold.PLP.Chemscore.Metal>
0.0000

> <Gold.Chemscore.Hbonds>
donor molecule, donor type, donor heavy atom, donor atom, acceptor molecule, acceptor atom, score
      L1  H     6    27       P1  8028  2.00
      P1  H  7989  7998       L1     3  1.00
      P1  H  7997  8008       L1     1  2.00

> <Gold.PLP.Chemscore.Internal.Correction>
0.1072

> <Gold.Rescore>
     Score         DG    S(hbond)    S(metal)    S(lipo)     H(rot)  DE(clash)    DE(int)     intcor
     20.06     -20.87       2.62        0.00      78.71       1.00       0.11       0.69       ----

> <Gold.Chemscore.Fitness>
20.0614

> <Gold.Chemscore.DG>
-20.8656

> <Gold.Chemscore.ZeroCoef>
-5.4800

> <Gold.Chemscore.Hbond>
2.6157

> <Gold.Chemscore.Metal>
0.0000

> <Gold.Chemscore.Lipo>
78.7107

> <Gold.Chemscore.Internal_Hbond>
0.0000

> <Gold.Chemscore.DEClash>
0.1117

> <Gold.Chemscore.DEInternal>
0.6925

> <Gold.Chemscore.Rot>
1.0000

> <Gold.Chemscore.Internal.Correction>
   9.000000E+99

> <Gold.Chemscore.Hbonds>
donor molecule, donor type, donor heavy atom, donor atom, acceptor molecule, acceptor atom, score
      L1  H     6    27       P1  8028  0.98
      P1  H  7989  7998       L1     3  0.45
      P1  H  7997  8008       L1     1  0.64

> <Gold.Chemscore.Hbond.Weighted>
-8.7365

> <Gold.Chemscore.Metal.Weighted>
-0.0000

> <Gold.Chemscore.Lipo.Weighted>
-9.2091

> <Gold.Chemscore.Internal_Hbond.Weighted>
0.0000

> <Gold.Chemscore.DEClash.Weighted>
0.1117

> <Gold.Chemscore.DEInternal.Weighted>
0.6925

> <Gold.Chemscore.Rot.Weighted>
2.5600

> <Gold.Chemscore.Internal.Correction.Weighted>
   9.000000E+99

> <Gold.Protein.RotatedTorsions>
[ 6907 6896 6895 6894 ] final   68.84 input  -60.11 | X-H torsion
[ 7974 7965 7964 7962 ] final   49.98 input  175.53 | X-H torsion
[ 8008 7997 7996 7995 ] final  -41.75 input   59.86 | X-H torsion
[ 10167 10162 10161 10158 ] final   -0.26 input  -65.29 | X-H torsion
[ 10718 10713 10712 10709 ] final  -14.90 input   66.30 | X-H torsion
[ 10763 10752 10751 10750 ] final -178.15 input  -60.55 | X-H torsion
[ 11005 11000 10999 10996 ] final  127.66 input  -57.11 | X-H torsion

> <Gold.Protein.ActiveResidues>
 VAL166  LYS551  ARG553  GLY616  TRP617  ASP618  TYR619  PRO620  LYS621  CYS622 
 ASP623  PHE694  ASN695  SER759  ASP760  ASP761  ALA762  ILE779  LEU786  VAL792 
 PHE793  MET794  SER795  GLU796  ALA797  LYS798  CYS799  TRP800  GLU811  SER814 

> <Gold.Protein.RotatedAtoms>
  152.4647  134.5103  159.9751 H   0  0  0  0  0  0  0  0  0  0  0  0  # atno 6907 bound_to 6896
  151.5143  133.3473  159.2898 H   0  0  0  0  0  0  0  0  0  0  0  0  # atno 6908 bound_to 6896
  150.8626  134.8010  159.7156 H   0  0  0  0  0  0  0  0  0  0  0  0  # atno 6909 bound_to 6896
  146.0057  139.4487  142.9987 H   0  0  0  0  0  0  0  0  0  0  0  0  # atno 7974 bound_to 7965
  154.4002  140.1491  156.3243 H   0  0  0  0  0  0  0  0  0  0  0  0  # atno 8008 bound_to 7997
  155.8501  140.3458  155.5666 H   0  0  0  0  0  0  0  0  0  0  0  0  # atno 8009 bound_to 7997
  155.7993  140.0868  157.1956 H   0  0  0  0  0  0  0  0  0  0  0  0  # atno 8010 bound_to 7997
  140.6759  143.6916  150.8023 H   0  0  0  0  0  0  0  0  0  0  0  0  # atno 10167 bound_to 10162
  156.6094  130.4845  149.6208 H   0  0  0  0  0  0  0  0  0  0  0  0  # atno 10718 bound_to 10713
  154.5513  135.2813  155.1006 H   0  0  0  0  0  0  0  0  0  0  0  0  # atno 10763 bound_to 10752
  154.2451  135.6350  153.5224 H   0  0  0  0  0  0  0  0  0  0  0  0  # atno 10764 bound_to 10752
  153.0003  135.5569  154.6080 H   0  0  0  0  0  0  0  0  0  0  0  0  # atno 10765 bound_to 10752
  139.9519  134.9620  156.8888 H   0  0  0  0  0  0  0  0  0  0  0  0  # atno 11005 bound_to 11000
  145.7420  141.0005  143.1296 LP  0  0  0  0  0  0  0  0  0  0  0  0  # atno 17320 bound_to 7965
  144.6935  139.9110  143.7463 LP  0  0  0  0  0  0  0  0  0  0  0  0  # atno 17321 bound_to 7965
  140.0609  143.5156  152.2628 LP  0  0  0  0  0  0  0  0  0  0  0  0  # atno 17342 bound_to 10162
  139.6052  144.7594  151.3078 LP  0  0  0  0  0  0  0  0  0  0  0  0  # atno 17343 bound_to 10162
  156.2403  130.6847  151.1549 LP  0  0  0  0  0  0  0  0  0  0  0  0  # atno 17370 bound_to 10713
  157.7258  131.0650  150.5936 LP  0  0  0  0  0  0  0  0  0  0  0  0  # atno 17371 bound_to 10713
  140.5698  134.0454  155.7426 LP  0  0  0  0  0  0  0  0  0  0  0  0  # atno 17394 bound_to 11000
  141.1184  133.9502  157.2778 LP  0  0  0  0  0  0  0  0  0  0  0  0  # atno 17395 bound_to 11000

$$$$
