AV-unprocessed.smi:2203|AV-procd|sdf|8935|dock10
  -GOLD-   2272012153D 1   1.00000     0.00000
 Structure written by MMmdl.
 48 49  0  0  0  0  0  0  0  0  1 V2000
  150.0038  140.1541  157.0309 C   0  0  0  0  0  0  0  0  0  0  0  0
  150.9510  140.5654  158.1217 C   0  0  0  0  0  0  0  0  0  0  0  0
  151.0665  141.8460  158.4283 N   0  0  0  0  0  0  0  0  0  0  0  0
  151.9706  141.8840  159.4292 N   0  0  0  0  0  0  0  0  0  0  0  0
  152.3341  143.1692  160.0078 C   0  0  0  0  0  0  0  0  0  0  0  0
  151.9257  144.3704  159.1280 C   0  0  0  0  0  0  0  0  0  0  0  0
  152.9996  144.6583  158.0690 C   0  0  0  0  0  0  0  0  0  0  0  0
  151.6141  145.6342  159.9482 C   0  0  0  0  0  0  0  0  0  0  0  0
  152.4187  140.6182  159.7615 C   0  0  0  0  0  0  0  0  0  0  0  0
  153.4157  140.3746  160.8495 C   0  0  0  0  0  0  0  0  0  0  0  0
  151.7826  139.7357  158.9298 C   0  0  0  0  0  0  0  0  0  0  0  0
  151.9142  138.2349  158.8755 C   0  0  0  0  0  0  0  0  0  0  0  0
  150.5473  137.6126  158.5927 C   0  0  0  0  0  0  0  0  0  0  0  0
  150.3681  136.9608  157.5640 O   0  0  0  0  0  0  0  0  0  0  0  0
  149.5961  137.8122  159.5159 N   0  0  0  0  0  0  0  0  0  0  0  0
  148.2421  137.2839  159.4324 C   0  0  0  0  0  0  0  0  0  0  0  0
  147.9158  136.4355  160.6688 C   0  0  2  0  0  0  0  0  0  0  0  0
  146.5565  135.7401  160.5937 C   0  0  0  0  0  0  0  0  0  0  0  0
  146.1989  135.6005  162.0554 C   0  0  0  0  0  0  0  0  0  0  0  0
  146.7131  136.9201  162.6198 C   0  0  0  0  0  0  0  0  0  0  0  0
  147.8556  137.2538  161.8367 O   0  0  0  0  0  0  0  0  0  0  0  0
  149.0666  139.7871  157.4494 H   0  0  0  0  0  0  0  0  0  0  0  0
  150.4294  139.3584  156.4196 H   0  0  0  0  0  0  0  0  0  0  0  0
  149.7687  140.9870  156.3672 H   0  0  0  0  0  0  0  0  0  0  0  0
  151.8722  143.2545  160.9930 H   0  0  0  0  0  0  0  0  0  0  0  0
  153.4107  143.1746  160.1788 H   0  0  0  0  0  0  0  0  0  0  0  0
  151.0150  144.1000  158.5931 H   0  0  0  0  0  0  0  0  0  0  0  0
  153.9453  144.9437  158.5307 H   0  0  0  0  0  0  0  0  0  0  0  0
  152.6934  145.4697  157.4079 H   0  0  0  0  0  0  0  0  0  0  0  0
  153.1833  143.7813  157.4475 H   0  0  0  0  0  0  0  0  0  0  0  0
  152.4760  145.9417  160.5412 H   0  0  0  0  0  0  0  0  0  0  0  0
  150.7791  145.4752  160.6304 H   0  0  0  0  0  0  0  0  0  0  0  0
  151.3440  146.4664  159.2979 H   0  0  0  0  0  0  0  0  0  0  0  0
  153.4674  139.3166  161.1065 H   0  0  0  0  0  0  0  0  0  0  0  0
  153.1504  140.9178  161.7562 H   0  0  0  0  0  0  0  0  0  0  0  0
  154.4116  140.6912  160.5401 H   0  0  0  0  0  0  0  0  0  0  0  0
  152.6240  137.9222  158.1087 H   0  0  0  0  0  0  0  0  0  0  0  0
  152.2964  137.8337  159.8145 H   0  0  0  0  0  0  0  0  0  0  0  0
  149.8249  138.3640  160.3298 H   0  0  0  0  0  0  0  0  0  0  0  0
  147.5256  138.1016  159.3383 H   0  0  0  0  0  0  0  0  0  0  0  0
  148.1589  136.6756  158.5307 H   0  0  0  0  0  0  0  0  0  0  0  0
  148.6902  135.6831  160.8275 H   0  0  0  0  0  0  0  0  0  0  0  0
  145.8241  136.3754  160.0930 H   0  0  0  0  0  0  0  0  0  0  0  0
  146.5958  134.7855  160.0685 H   0  0  0  0  0  0  0  0  0  0  0  0
  145.1326  135.4491  162.2258 H   0  0  0  0  0  0  0  0  0  0  0  0
  146.7410  134.7632  162.4970 H   0  0  0  0  0  0  0  0  0  0  0  0
  145.9658  137.7044  162.4930 H   0  0  0  0  0  0  0  0  0  0  0  0
  146.9591  136.8547  163.6798 H   0  0  0  0  0  0  0  0  0  0  0  0
  1  2  1  0  0  0  0
  1 22  1  0  0  0  0
  1 23  1  0  0  0  0
  1 24  1  0  0  0  0
  2 11  1  0  0  0  0
  2  3  2  0  0  0  0
  3  4  1  0  0  0  0
  4  5  1  0  0  0  0
  4  9  1  0  0  0  0
  5  6  1  0  0  0  0
  5 25  1  0  0  0  0
  5 26  1  0  0  0  0
  6  7  1  0  0  0  0
  6  8  1  0  0  0  0
  6 27  1  0  0  0  0
  7 28  1  0  0  0  0
  7 29  1  0  0  0  0
  7 30  1  0  0  0  0
  8 31  1  0  0  0  0
  8 32  1  0  0  0  0
  8 33  1  0  0  0  0
  9 10  1  0  0  0  0
  9 11  2  0  0  0  0
 10 34  1  0  0  0  0
 10 35  1  0  0  0  0
 10 36  1  0  0  0  0
 11 12  1  0  0  0  0
 12 13  1  0  0  0  0
 12 37  1  0  0  0  0
 12 38  1  0  0  0  0
 13 14  2  0  0  0  0
 13 15  1  0  0  0  0
 15 16  1  0  0  0  0
 15 39  1  0  0  0  0
 16 17  1  0  0  0  0
 16 40  1  0  0  0  0
 16 41  1  0  0  0  0
 17 21  1  0  0  0  0
 17 18  1  0  0  0  0
 17 42  1  0  0  0  0
 18 19  1  0  0  0  0
 18 43  1  0  0  0  0
 18 44  1  0  0  0  0
 19 20  1  0  0  0  0
 19 45  1  0  0  0  0
 19 46  1  0  0  0  0
 20 21  1  0  0  0  0
 20 47  1  0  0  0  0
 20 48  1  0  0  0  0
M  END
> <s_m_source_file>
AV-unprocessed.smi

> <i_m_source_file_index>
2203

> <i_lp_mmshare_version>
43012

> <i_f3d_flags>
0

> <s_epik_input>
W0NIM11jMW5uKFtDSDJdW0NIXShbQ0gzXSlbQ0gzXSljKFtDSDNdKWMxW0NIMl1DKD1PKVtOSF1bQ0gyXVtDQEBIXTJbQ0gyXVtDSDJdW0NIMl1PMg==

> <s_epik_cmdline>
J2VwaWtfcHl0aG9uJywgJy1waCcsICc3LjAnLCAnLXRuJywgJzgnLCAnLW1hJywgJzIwMCcsICctbWV0YWxfYmluZGluZycsICctaW1hZScsICc8aW5maWxlLm1hZT4nLCAnLW9tYWUnLCAnPG91dGZpbGUubWFlPic=

> <r_lp_tautomer_probability>
1

> <r_epik_Ionization_Penalty>
0.00306713

> <r_epik_Ionization_Penalty_Charging>
0

> <r_epik_Ionization_Penalty_Neutral>
0.00306713

> <r_epik_State_Penalty>
0.00215672

> <r_epik_Charging_Adjusted_Penalty>
0.00215672

> <i_epik_Tot_Q>
0

> <i_epik_Tot_abs_Q>
0

> <r_epik_Metal_State_Penalty>
-0

> <b_epik_Metal_Only>
0

> <s_lp_Force_Field>
OPLS_2005

> <r_lp_Energy>
15.5636

> <b_lp_Chiralities_Consistent>
1

> <s_lp_Variant>
AV-unprocessed.smi:2203-1

> <Gold.Version>
5.8.1

> <Gold.Id.Protein>
6NUR|6NUR_protein|mol2

> <Gold.PLP.Fitness>
47.6292

> <Gold.PLP.PLP>
-46.4598

> <Gold.PLP.part.hbond>
-0.9723

> <Gold.PLP.part.metal>
0.0000

> <Gold.PLP.part.buried>
-7.1949

> <Gold.PLP.part.nonpolar>
-39.9602

> <Gold.PLP.part.repulsive>
0.8812

> <Gold.PLP.ligand.clash>
0.0000

> <Gold.PLP.ligand.torsion>
0.8887

> <Gold.PLP.Chemscore.Hbond>
0.9588

> <Gold.PLP.Chemscore.CHOScore>
0.0000

> <Gold.PLP.Chemscore.Metal>
0.0000

> <Gold.Chemscore.Hbonds>
donor molecule, donor type, donor heavy atom, donor atom, acceptor molecule, acceptor atom, score
      P1  H  6931  6943       L1    21  1.00
      P1  H  6934  6947       L1    21  0.48

> <Gold.PLP.Chemscore.Internal.Correction>
0.0707

> <Gold.Rescore>
     Score         DG    S(hbond)    S(metal)    S(lipo)     H(rot)  DE(clash)    DE(int)     intcor
     17.78     -18.33       0.97        0.00     117.86       1.63       0.02       0.52       ----

> <Gold.Chemscore.Fitness>
17.7821

> <Gold.Chemscore.DG>
-18.3274

> <Gold.Chemscore.ZeroCoef>
-5.4800

> <Gold.Chemscore.Hbond>
0.9694

> <Gold.Chemscore.Metal>
0.0000

> <Gold.Chemscore.Lipo>
117.8634

> <Gold.Chemscore.Internal_Hbond>
0.0000

> <Gold.Chemscore.DEClash>
0.0216

> <Gold.Chemscore.DEInternal>
0.5237

> <Gold.Chemscore.Rot>
1.6329

> <Gold.Chemscore.Internal.Correction>
   9.000000E+99

> <Gold.Chemscore.Hbonds>
donor molecule, donor type, donor heavy atom, donor atom, acceptor molecule, acceptor atom, score
      P1  H  6931  6943       L1    21  0.78
      P1  H  6934  6947       L1    21  0.03

> <Gold.Chemscore.Hbond.Weighted>
-3.2377

> <Gold.Chemscore.Metal.Weighted>
-0.0000

> <Gold.Chemscore.Lipo.Weighted>
-13.7900

> <Gold.Chemscore.Internal_Hbond.Weighted>
0.0000

> <Gold.Chemscore.DEClash.Weighted>
0.0216

> <Gold.Chemscore.DEInternal.Weighted>
0.5237

> <Gold.Chemscore.Rot.Weighted>
4.1803

> <Gold.Chemscore.Internal.Correction.Weighted>
   9.000000E+99

> <Gold.Protein.RotatedTorsions>
[ 6907 6896 6895 6894 ] final  162.96 input  -60.11 | X-H torsion
[ 7974 7965 7964 7962 ] final  140.80 input  175.53 | X-H torsion
[ 8008 7997 7996 7995 ] final -133.70 input   59.86 | X-H torsion
[ 10167 10162 10161 10158 ] final  117.26 input  -65.29 | X-H torsion
[ 10718 10713 10712 10709 ] final  101.29 input   66.30 | X-H torsion
[ 10763 10752 10751 10750 ] final  114.52 input  -60.55 | X-H torsion
[ 11005 11000 10999 10996 ] final -150.11 input  -57.11 | X-H torsion

> <Gold.Protein.ActiveResidues>
 VAL166  LYS551  ARG553  GLY616  TRP617  ASP618  TYR619  PRO620  LYS621  CYS622 
 ASP623  PHE694  ASN695  SER759  ASP760  ASP761  ALA762  ILE779  LEU786  VAL792 
 PHE793  MET794  SER795  GLU796  ALA797  LYS798  CYS799  TRP800  GLU811  SER814 

> <Gold.Protein.RotatedAtoms>
  151.9324  133.3615  159.3935 H   0  0  0  0  0  0  0  0  0  0  0  0  # atno 6907 bound_to 6896
  150.7014  134.4523  159.5351 H   0  0  0  0  0  0  0  0  0  0  0  0  # atno 6908 bound_to 6896
  152.2166  134.8452  160.0542 H   0  0  0  0  0  0  0  0  0  0  0  0  # atno 6909 bound_to 6896
  144.9154  139.5238  143.5689 H   0  0  0  0  0  0  0  0  0  0  0  0  # atno 7974 bound_to 7965
  155.3498  140.0476  157.3046 H   0  0  0  0  0  0  0  0  0  0  0  0  # atno 8008 bound_to 7997
  154.5233  140.2232  155.8900 H   0  0  0  0  0  0  0  0  0  0  0  0  # atno 8009 bound_to 7997
  156.1713  140.3095  155.8984 H   0  0  0  0  0  0  0  0  0  0  0  0  # atno 8010 bound_to 7997
  139.6191  144.7097  151.2675 H   0  0  0  0  0  0  0  0  0  0  0  0  # atno 10167 bound_to 10162
  157.6833  131.0722  150.5230 H   0  0  0  0  0  0  0  0  0  0  0  0  # atno 10718 bound_to 10713
  153.5084  135.3623  155.2575 H   0  0  0  0  0  0  0  0  0  0  0  0  # atno 10763 bound_to 10752
  154.8743  135.4017  154.3397 H   0  0  0  0  0  0  0  0  0  0  0  0  # atno 10764 bound_to 10752
  153.4045  135.7076  153.6469 H   0  0  0  0  0  0  0  0  0  0  0  0  # atno 10765 bound_to 10752
  140.7437  134.3485  157.5142 H   0  0  0  0  0  0  0  0  0  0  0  0  # atno 11005 bound_to 11000
  146.3179  139.7992  142.8969 LP  0  0  0  0  0  0  0  0  0  0  0  0  # atno 17320 bound_to 7965
  145.3385  141.0282  143.3406 LP  0  0  0  0  0  0  0  0  0  0  0  0  # atno 17321 bound_to 7965
  140.7370  143.6691  150.8097 LP  0  0  0  0  0  0  0  0  0  0  0  0  # atno 17342 bound_to 10162
  140.0298  143.5455  152.2765 LP  0  0  0  0  0  0  0  0  0  0  0  0  # atno 17343 bound_to 10162
  156.5543  130.4239  149.6093 LP  0  0  0  0  0  0  0  0  0  0  0  0  # atno 17370 bound_to 10713
  156.2876  130.7106  151.1946 LP  0  0  0  0  0  0  0  0  0  0  0  0  # atno 17371 bound_to 10713
  139.8801  134.9097  156.2997 LP  0  0  0  0  0  0  0  0  0  0  0  0  # atno 17394 bound_to 11000
  140.9813  133.7265  156.0677 LP  0  0  0  0  0  0  0  0  0  0  0  0  # atno 17395 bound_to 11000

$$$$
