AV-unprocessed.smi:1947|AV-procd|sdf|7867|dock7
  -GOLD-   2272010 13D 1   1.00000     0.00000
 Structure written by MMmdl.
 39 40  0  0  0  0  0  0  0  0  1 V2000
  145.3195  135.7540  151.4710 C   0  0  0  0  0  0  0  0  0  0  0  0
  145.0712  134.3693  150.8508 C   0  0  2  0  0  0  0  0  0  0  0  0
  143.8251  133.6873  151.4493 C   0  0  0  0  0  0  0  0  0  0  0  0
  143.5703  132.3158  150.8037 C   0  0  0  0  0  0  0  0  0  0  0  0
  144.8013  131.4044  150.9236 C   0  0  0  0  0  0  0  0  0  0  0  0
  146.0536  132.0741  150.3325 C   0  0  0  0  0  0  0  0  0  0  0  0
  146.3124  133.4564  150.9609 C   0  0  2  0  0  0  0  0  0  0  0  0
  146.6277  133.2795  152.3361 O   0  0  0  0  0  0  0  0  0  0  0  0
  147.8076  132.5289  152.5741 C   0  0  0  0  0  0  0  0  0  0  0  0
  148.4111  132.9666  153.9181 C   0  0  0  0  0  0  0  0  0  0  0  0
  148.8845  134.3466  153.8765 N   0  0  0  0  0  0  0  0  0  0  0  0
  149.7541  134.8965  154.7352 C   0  0  0  0  0  0  0  0  0  0  0  0
  150.2045  134.3072  155.7176 O   0  0  0  0  0  0  0  0  0  0  0  0
  150.0628  136.1512  154.3712 N   0  0  0  0  0  0  0  0  0  0  0  0
  151.0146  137.0200  154.9599 C   0  0  0  0  0  0  0  0  0  0  0  0
  151.9846  136.4767  155.7048 N   0  0  0  0  0  0  0  0  0  0  0  0
  152.8401  137.4388  156.2277 N   0  0  0  0  0  0  0  0  0  0  0  0
  152.4798  138.6714  155.8574 C   0  0  0  0  0  0  0  0  0  0  0  0
  151.0589  138.7809  154.8335 S   0  0  0  0  0  0  0  0  0  0  0  0
  145.4981  135.6860  152.5443 H   0  0  0  0  0  0  0  0  0  0  0  0
  144.4624  136.4106  151.3201 H   0  0  0  0  0  0  0  0  0  0  0  0
  146.1875  136.2360  151.0203 H   0  0  0  0  0  0  0  0  0  0  0  0
  144.8776  134.5276  149.7888 H   0  0  0  0  0  0  0  0  0  0  0  0
  143.9492  133.5668  152.5264 H   0  0  0  0  0  0  0  0  0  0  0  0
  142.9500  134.3231  151.3108 H   0  0  0  0  0  0  0  0  0  0  0  0
  142.7086  131.8393  151.2720 H   0  0  0  0  0  0  0  0  0  0  0  0
  143.3157  132.4492  149.7516 H   0  0  0  0  0  0  0  0  0  0  0  0
  144.9753  131.1629  151.9730 H   0  0  0  0  0  0  0  0  0  0  0  0
  144.6133  130.4573  150.4176 H   0  0  0  0  0  0  0  0  0  0  0  0
  146.9218  131.4297  150.4731 H   0  0  0  0  0  0  0  0  0  0  0  0
  145.9265  132.1861  149.2552 H   0  0  0  0  0  0  0  0  0  0  0  0
  147.1377  133.9357  150.4305 H   0  0  0  0  0  0  0  0  0  0  0  0
  147.5766  131.4629  152.5930 H   0  0  0  0  0  0  0  0  0  0  0  0
  148.5245  132.6933  151.7683 H   0  0  0  0  0  0  0  0  0  0  0  0
  147.6553  132.8940  154.7004 H   0  0  0  0  0  0  0  0  0  0  0  0
  149.2255  132.3000  154.2059 H   0  0  0  0  0  0  0  0  0  0  0  0
  148.5654  134.9082  153.1008 H   0  0  0  0  0  0  0  0  0  0  0  0
  149.5917  136.5133  153.5552 H   0  0  0  0  0  0  0  0  0  0  0  0
  153.0547  139.5225  156.1912 H   0  0  0  0  0  0  0  0  0  0  0  0
  1  2  1  0  0  0  0
  1 20  1  0  0  0  0
  1 21  1  0  0  0  0
  1 22  1  0  0  0  0
  2  7  1  0  0  0  0
  2  3  1  0  0  0  0
  2 23  1  0  0  0  0
  3  4  1  0  0  0  0
  3 24  1  0  0  0  0
  3 25  1  0  0  0  0
  4  5  1  0  0  0  0
  4 26  1  0  0  0  0
  4 27  1  0  0  0  0
  5  6  1  0  0  0  0
  5 28  1  0  0  0  0
  5 29  1  0  0  0  0
  6  7  1  0  0  0  0
  6 30  1  0  0  0  0
  6 31  1  0  0  0  0
  7  8  1  0  0  0  0
  7 32  1  0  0  0  0
  8  9  1  0  0  0  0
  9 10  1  0  0  0  0
  9 33  1  0  0  0  0
  9 34  1  0  0  0  0
 10 11  1  0  0  0  0
 10 35  1  0  0  0  0
 10 36  1  0  0  0  0
 11 12  1  0  0  0  0
 11 37  1  0  0  0  0
 12 13  2  0  0  0  0
 12 14  1  0  0  0  0
 14 15  1  0  0  0  0
 14 38  1  0  0  0  0
 15 19  1  0  0  0  0
 15 16  2  0  0  0  0
 16 17  1  0  0  0  0
 17 18  2  0  0  0  0
 18 19  1  0  0  0  0
 18 39  1  0  0  0  0
M  END
> <s_m_source_file>
AV-unprocessed.smi

> <i_m_source_file_index>
1947

> <i_lp_mmshare_version>
43012

> <i_f3d_flags>
0

> <s_epik_input>
W0NIM11bQ0BASF0xW0NIMl1bQ0gyXVtDSDJdW0NIMl1bQ0BIXTFPW0NIMl1bQ0gyXVtOSF1DKD1PKVtOSF1jMm5uW2NIXXMy

> <s_epik_cmdline>
J2VwaWtfcHl0aG9uJywgJy1waCcsICc3LjAnLCAnLXRuJywgJzgnLCAnLW1hJywgJzIwMCcsICctbWV0YWxfYmluZGluZycsICctaW1hZScsICc8aW5maWxlLm1hZT4nLCAnLW9tYWUnLCAnPG91dGZpbGUubWFlPic=

> <r_lp_tautomer_probability>
1

> <r_epik_Ionization_Penalty>
0.00220897

> <r_epik_Ionization_Penalty_Charging>
0

> <r_epik_Ionization_Penalty_Neutral>
0.00220897

> <r_epik_State_Penalty>
-0

> <r_epik_Charging_Adjusted_Penalty>
0

> <i_epik_Tot_Q>
0

> <i_epik_Tot_abs_Q>
0

> <r_epik_Metal_State_Penalty>
0.345002

> <b_epik_Metal_Only>
0

> <s_lp_Force_Field>
OPLS_2005

> <r_lp_Energy>
8.93842

> <b_lp_Chiralities_Consistent>
1

> <s_lp_Variant>
AV-unprocessed.smi:1947-3

> <Gold.Version>
5.8.1

> <Gold.Id.Protein>
6NUR|6NUR_protein|mol2

> <Gold.PLP.Fitness>
46.4461

> <Gold.PLP.PLP>
-38.3264

> <Gold.PLP.part.hbond>
-4.8497

> <Gold.PLP.part.metal>
0.0000

> <Gold.PLP.part.buried>
-3.2836

> <Gold.PLP.part.nonpolar>
-31.1536

> <Gold.PLP.part.repulsive>
0.2603

> <Gold.PLP.ligand.clash>
0.0000

> <Gold.PLP.ligand.torsion>
0.4032

> <Gold.PLP.Chemscore.Hbond>
2.9680

> <Gold.PLP.Chemscore.CHOScore>
0.0000

> <Gold.PLP.Chemscore.Metal>
0.0000

> <Gold.Chemscore.Hbonds>
donor molecule, donor type, donor heavy atom, donor atom, acceptor molecule, acceptor atom, score
      L1  H    11    37       P1  7948  0.94
      L1  H    14    38       P1  7948  0.96
      P1  H 10752 10763       L1    16  1.00

> <Gold.PLP.Chemscore.Internal.Correction>
0.0221

> <Gold.Rescore>
     Score         DG    S(hbond)    S(metal)    S(lipo)     H(rot)  DE(clash)    DE(int)     intcor
     14.98     -16.71       2.13        0.00      77.72       1.94       0.01       1.72       ----

> <Gold.Chemscore.Fitness>
14.9776

> <Gold.Chemscore.DG>
-16.7132

> <Gold.Chemscore.ZeroCoef>
-5.4800

> <Gold.Chemscore.Hbond>
2.1265

> <Gold.Chemscore.Metal>
0.0000

> <Gold.Chemscore.Lipo>
77.7204

> <Gold.Chemscore.Internal_Hbond>
0.0000

> <Gold.Chemscore.DEClash>
0.0147

> <Gold.Chemscore.DEInternal>
1.7208

> <Gold.Chemscore.Rot>
1.9385

> <Gold.Chemscore.Internal.Correction>
   9.000000E+99

> <Gold.Chemscore.Hbonds>
donor molecule, donor type, donor heavy atom, donor atom, acceptor molecule, acceptor atom, score
      L1  H    11    37       P1  7948  0.50
      L1  H    14    38       P1  7948  0.56
      P1  H 10752 10763       L1    16  0.23

> <Gold.Chemscore.Hbond.Weighted>
-7.1024

> <Gold.Chemscore.Metal.Weighted>
-0.0000

> <Gold.Chemscore.Lipo.Weighted>
-9.0933

> <Gold.Chemscore.Internal_Hbond.Weighted>
0.0000

> <Gold.Chemscore.DEClash.Weighted>
0.0147

> <Gold.Chemscore.DEInternal.Weighted>
1.7208

> <Gold.Chemscore.Rot.Weighted>
4.9625

> <Gold.Chemscore.Internal.Correction.Weighted>
   9.000000E+99

> <Gold.Protein.RotatedTorsions>
[ 6907 6896 6895 6894 ] final  -98.85 input  -60.11 | X-H torsion
[ 7974 7965 7964 7962 ] final  -35.36 input  175.53 | X-H torsion
[ 8008 7997 7996 7995 ] final -108.70 input   59.86 | X-H torsion
[ 10167 10162 10161 10158 ] final  159.98 input  -65.29 | X-H torsion
[ 10718 10713 10712 10709 ] final   93.29 input   66.30 | X-H torsion
[ 10763 10752 10751 10750 ] final   60.99 input  -60.55 | X-H torsion
[ 11005 11000 10999 10996 ] final  -32.40 input  -57.11 | X-H torsion

> <Gold.Protein.ActiveResidues>
 VAL166  LYS551  ARG553  GLY616  TRP617  ASP618  TYR619  PRO620  LYS621  CYS622 
 ASP623  PHE694  ASN695  SER759  ASP760  ASP761  ALA762  ILE779  LEU786  VAL792 
 PHE793  MET794  SER795  GLU796  ALA797  LYS798  CYS799  TRP800  GLU811  SER814 

> <Gold.Protein.RotatedAtoms>
  150.7060  134.1130  159.4006 H   0  0  0  0  0  0  0  0  0  0  0  0  # atno 6907 bound_to 6896
  151.9117  135.0334  160.0524 H   0  0  0  0  0  0  0  0  0  0  0  0  # atno 6908 bound_to 6896
  152.2330  133.5038  159.5263 H   0  0  0  0  0  0  0  0  0  0  0  0  # atno 6909 bound_to 6896
  146.0752  140.6150  142.8934 H   0  0  0  0  0  0  0  0  0  0  0  0  # atno 7974 bound_to 7965
  154.9482  140.0401  157.2131 H   0  0  0  0  0  0  0  0  0  0  0  0  # atno 8008 bound_to 7997
  154.8003  140.2850  155.5904 H   0  0  0  0  0  0  0  0  0  0  0  0  # atno 8009 bound_to 7997
  156.2960  140.2556  156.2870 H   0  0  0  0  0  0  0  0  0  0  0  0  # atno 8010 bound_to 7997
  139.4836  144.4678  151.8618 H   0  0  0  0  0  0  0  0  0  0  0  0  # atno 10167 bound_to 10162
  157.6955  131.0473  150.4011 H   0  0  0  0  0  0  0  0  0  0  0  0  # atno 10718 bound_to 10713
  152.9937  135.5516  154.5962 H   0  0  0  0  0  0  0  0  0  0  0  0  # atno 10763 bound_to 10752
  154.5313  135.2814  155.1179 H   0  0  0  0  0  0  0  0  0  0  0  0  # atno 10764 bound_to 10752
  154.2493  135.6402  153.5287 H   0  0  0  0  0  0  0  0  0  0  0  0  # atno 10765 bound_to 10752
  140.9549  133.7198  156.1278 H   0  0  0  0  0  0  0  0  0  0  0  0  # atno 11005 bound_to 11000
  144.7257  140.4517  143.6975 LP  0  0  0  0  0  0  0  0  0  0  0  0  # atno 17320 bound_to 7965
  145.6318  139.1537  143.2964 LP  0  0  0  0  0  0  0  0  0  0  0  0  # atno 17321 bound_to 7965
  140.4145  144.2326  150.5888 LP  0  0  0  0  0  0  0  0  0  0  0  0  # atno 17342 bound_to 10162
  140.4934  143.2340  151.8785 LP  0  0  0  0  0  0  0  0  0  0  0  0  # atno 17343 bound_to 10162
  156.4405  130.3990  149.6701 LP  0  0  0  0  0  0  0  0  0  0  0  0  # atno 17370 bound_to 10713
  156.3886  130.7615  151.2615 LP  0  0  0  0  0  0  0  0  0  0  0  0  # atno 17371 bound_to 10713
  140.7550  134.4003  157.5535 LP  0  0  0  0  0  0  0  0  0  0  0  0  # atno 17394 bound_to 11000
  139.8859  134.8924  156.2616 LP  0  0  0  0  0  0  0  0  0  0  0  0  # atno 17395 bound_to 11000

$$$$
