AV-unprocessed.smi:2438|AV-procd|sdf|9601|dock6
  -GOLD-   2272013233D 1   1.00000     0.00000
 Structure written by MMmdl.
 44 45  0  0  0  0  0  0  0  0  2 V2000
  151.1199  140.0842  155.1535 C   0  0  0  0  0  0  0  0  0  0  0  0
  149.8851  139.3523  155.4081 N   0  0  0  0  0  0  0  0  0  0  0  0
  150.0062  137.9049  155.5157 C   0  0  0  0  0  0  0  0  0  0  0  0
  148.7468  139.7694  154.6894 C   0  0  0  0  0  0  0  0  0  0  0  0
  148.1878  138.8937  153.8226 N   0  0  0  0  0  0  0  0  0  0  0  0
  147.0979  139.2448  153.1331 C   0  0  0  0  0  0  0  0  0  0  0  0
  146.5173  140.4452  153.2537 N   0  3  0  0  0  0  0  0  0  0  0  0
  147.0392  141.3600  154.1052 C   0  0  0  0  0  0  0  0  0  0  0  0
  148.1887  141.0577  154.8748 C   0  0  0  0  0  0  0  0  0  0  0  0
  148.8172  141.9799  155.7619 N   0  0  0  0  0  0  0  0  0  0  0  0
  149.3866  141.7537  156.9578 C   0  0  0  0  0  0  0  0  0  0  0  0
  149.4716  140.6567  157.5081 O   0  0  0  0  0  0  0  0  0  0  0  0
  149.8674  142.8899  157.4821 N   0  0  0  0  0  0  0  0  0  0  0  0
  150.5410  143.0216  158.7715 C   0  0  2  0  0  0  0  0  0  0  0  0
  151.1112  144.4438  158.9170 C   0  0  0  0  0  0  0  0  0  0  0  0
  151.8993  144.5965  160.2262 C   0  0  0  0  0  0  0  0  0  0  0  0
  153.0105  143.5405  160.3348 C   0  0  0  0  0  0  0  0  0  0  0  0
  152.4505  142.1080  160.2043 C   0  0  2  0  0  0  0  0  0  0  0  0
  153.5568  141.0404  160.3309 C   0  0  0  0  0  0  0  0  0  0  0  0
  153.9894  140.9517  161.5890 F   0  0  0  0  0  0  0  0  0  0  0  0
  153.0895  139.8512  159.9513 F   0  0  0  0  0  0  0  0  0  0  0  0
  154.5851  141.3532  159.5426 F   0  0  0  0  0  0  0  0  0  0  0  0
  151.6574  141.9666  158.8868 C   0  0  0  0  0  0  0  0  0  0  0  0
  150.9422  141.1605  155.1530 H   0  0  0  0  0  0  0  0  0  0  0  0
  151.5505  139.8020  154.1918 H   0  0  0  0  0  0  0  0  0  0  0  0
  151.8530  139.8672  155.9307 H   0  0  0  0  0  0  0  0  0  0  0  0
  149.0815  137.4441  155.8634 H   0  0  0  0  0  0  0  0  0  0  0  0
  150.7949  137.6427  156.2216 H   0  0  0  0  0  0  0  0  0  0  0  0
  150.2597  137.4714  154.5475 H   0  0  0  0  0  0  0  0  0  0  0  0
  146.6461  138.5527  152.4377 H   0  0  0  0  0  0  0  0  0  0  0  0
  146.5132  142.3017  154.1143 H   0  0  0  0  0  0  0  0  0  0  0  0
  148.8705  142.9293  155.4217 H   0  0  0  0  0  0  0  0  0  0  0  0
  149.7526  143.7395  156.9489 H   0  0  0  0  0  0  0  0  0  0  0  0
  149.8351  142.8543  159.5872 H   0  0  0  0  0  0  0  0  0  0  0  0
  151.7658  144.6694  158.0736 H   0  0  0  0  0  0  0  0  0  0  0  0
  150.3039  145.1766  158.8861 H   0  0  0  0  0  0  0  0  0  0  0  0
  152.3301  145.5964  160.2852 H   0  0  0  0  0  0  0  0  0  0  0  0
  151.2205  144.5022  161.0748 H   0  0  0  0  0  0  0  0  0  0  0  0
  153.7566  143.7186  159.5592 H   0  0  0  0  0  0  0  0  0  0  0  0
  153.5258  143.6569  161.2886 H   0  0  0  0  0  0  0  0  0  0  0  0
  151.7523  141.9500  161.0281 H   0  0  0  0  0  0  0  0  0  0  0  0
  151.2208  140.9693  158.8229 H   0  0  0  0  0  0  0  0  0  0  0  0
  152.3386  142.0587  158.0395 H   0  0  0  0  0  0  0  0  0  0  0  0
  145.6896  140.6815  152.7057 H   0  0  0  0  0  0  0  0  0  0  0  0
  1  2  1  0  0  0  0
  1 24  1  0  0  0  0
  1 25  1  0  0  0  0
  1 26  1  0  0  0  0
  2  3  1  0  0  0  0
  2  4  1  0  0  0  0
  3 27  1  0  0  0  0
  3 28  1  0  0  0  0
  3 29  1  0  0  0  0
  4  9  1  0  0  0  0
  4  5  2  0  0  0  0
  5  6  1  0  0  0  0
  6  7  2  0  0  0  0
  6 30  1  0  0  0  0
  7  8  1  0  0  0  0
  7 44  1  0  0  0  0
  8  9  2  0  0  0  0
  8 31  1  0  0  0  0
  9 10  1  0  0  0  0
 10 11  1  0  0  0  0
 10 32  1  0  0  0  0
 11 12  2  0  0  0  0
 11 13  1  0  0  0  0
 13 14  1  0  0  0  0
 13 33  1  0  0  0  0
 14 23  1  0  0  0  0
 14 15  1  0  0  0  0
 14 34  1  0  0  0  0
 15 16  1  0  0  0  0
 15 35  1  0  0  0  0
 15 36  1  0  0  0  0
 16 17  1  0  0  0  0
 16 37  1  0  0  0  0
 16 38  1  0  0  0  0
 17 18  1  0  0  0  0
 17 39  1  0  0  0  0
 17 40  1  0  0  0  0
 18 19  1  0  0  0  0
 18 23  1  0  0  0  0
 18 41  1  0  0  0  0
 19 20  1  0  0  0  0
 19 21  1  0  0  0  0
 19 22  1  0  0  0  0
 23 42  1  0  0  0  0
 23 43  1  0  0  0  0
M  CHG  1   7   1
M  END
> <s_m_source_file>
AV-unprocessed.smi

> <i_m_source_file_index>
2438

> <i_lp_mmshare_version>
43012

> <i_f3d_flags>
0

> <s_epik_input>
W0NIM11OKFtDSDNdKWMxbltjSF1uW2NIXWMxW05IXUMoPU8pW05IXVtDQEBIXTJbQ0gyXVtDSDJdW0NIMl1bQ0BASF0oQyhGKShGKUYpW0NIMl0y

> <s_epik_cmdline>
J2VwaWtfcHl0aG9uJywgJy1waCcsICc3LjAnLCAnLXRuJywgJzgnLCAnLW1hJywgJzIwMCcsICctbWV0YWxfYmluZGluZycsICctaW1hZScsICc8aW5maWxlLm1hZT4nLCAnLW9tYWUnLCAnPG91dGZpbGUubWFlPic=

> <r_lp_tautomer_probability>
0.999336

> <r_epik_Ionization_Penalty>
2.11643

> <r_epik_Ionization_Penalty_Charging>
2.11639

> <r_epik_Ionization_Penalty_Neutral>
4.47523e-05

> <r_epik_State_Penalty>
2.25369

> <r_epik_Charging_Adjusted_Penalty>
4.37008

> <i_epik_Tot_Q>
1

> <i_epik_Tot_abs_Q>
1

> <r_epik_Metal_State_Penalty>
2.27019

> <b_epik_Metal_Only>
0

> <s_lp_Force_Field>
OPLS_2005

> <r_lp_Energy>
18.5992

> <b_lp_Chiralities_Consistent>
1

> <s_lp_Variant>
AV-unprocessed.smi:2438-7

> <Gold.Version>
5.8.1

> <Gold.Id.Protein>
6NUR|6NUR_protein|mol2

> <Gold.PLP.Fitness>
51.8590

> <Gold.PLP.PLP>
-41.6383

> <Gold.PLP.part.hbond>
-3.0000

> <Gold.PLP.part.metal>
0.0000

> <Gold.PLP.part.buried>
-4.7736

> <Gold.PLP.part.nonpolar>
-35.0118

> <Gold.PLP.part.repulsive>
0.3943

> <Gold.PLP.ligand.clash>
0.0000

> <Gold.PLP.ligand.torsion>
0.9991

> <Gold.PLP.Chemscore.Hbond>
3.9520

> <Gold.PLP.Chemscore.CHOScore>
0.0000

> <Gold.PLP.Chemscore.Metal>
0.0000

> <Gold.Chemscore.Hbonds>
donor molecule, donor type, donor heavy atom, donor atom, acceptor molecule, acceptor atom, score
      L1  H     7    44       P1 10175  1.92
      L1  H    10    32       P1  8028  1.00
      L1  H    13    33       P1  8028  1.00

> <Gold.PLP.Chemscore.Internal.Correction>
0.3629

> <Gold.Rescore>
     Score         DG    S(hbond)    S(metal)    S(lipo)     H(rot)  DE(clash)    DE(int)     intcor
     14.33     -22.36       2.87        0.00      90.97       1.31       1.91       6.11       ----

> <Gold.Chemscore.Fitness>
14.3344

> <Gold.Chemscore.DG>
-22.3562

> <Gold.Chemscore.ZeroCoef>
-5.4800

> <Gold.Chemscore.Hbond>
2.8685

> <Gold.Chemscore.Metal>
0.0000

> <Gold.Chemscore.Lipo>
90.9702

> <Gold.Chemscore.Internal_Hbond>
0.0000

> <Gold.Chemscore.DEClash>
1.9150

> <Gold.Chemscore.DEInternal>
6.1068

> <Gold.Chemscore.Rot>
1.3078

> <Gold.Chemscore.Internal.Correction>
   9.000000E+99

> <Gold.Chemscore.Hbonds>
donor molecule, donor type, donor heavy atom, donor atom, acceptor molecule, acceptor atom, score
      L1  H     7    44       P1 10175  0.39
      L1  H    10    32       P1  8028  0.97
      L1  H    13    33       P1  8028  0.92

> <Gold.Chemscore.Hbond.Weighted>
-9.5807

> <Gold.Chemscore.Metal.Weighted>
-0.0000

> <Gold.Chemscore.Lipo.Weighted>
-10.6435

> <Gold.Chemscore.Internal_Hbond.Weighted>
0.0000

> <Gold.Chemscore.DEClash.Weighted>
1.9150

> <Gold.Chemscore.DEInternal.Weighted>
6.1068

> <Gold.Chemscore.Rot.Weighted>
3.3481

> <Gold.Chemscore.Internal.Correction.Weighted>
   9.000000E+99

> <Gold.Protein.RotatedTorsions>
[ 6907 6896 6895 6894 ] final  -67.32 input  -60.11 | X-H torsion
[ 7974 7965 7964 7962 ] final  -26.57 input  175.53 | X-H torsion
[ 8008 7997 7996 7995 ] final  111.51 input   59.86 | X-H torsion
[ 10167 10162 10161 10158 ] final  176.08 input  -65.29 | X-H torsion
[ 10718 10713 10712 10709 ] final   42.41 input   66.30 | X-H torsion
[ 10763 10752 10751 10750 ] final   92.14 input  -60.55 | X-H torsion
[ 11005 11000 10999 10996 ] final -143.13 input  -57.11 | X-H torsion

> <Gold.Protein.ActiveResidues>
 VAL166  LYS551  ARG553  GLY616  TRP617  ASP618  TYR619  PRO620  LYS621  CYS622 
 ASP623  PHE694  ASN695  SER759  ASP760  ASP761  ALA762  ILE779  LEU786  VAL792 
 PHE793  MET794  SER795  GLU796  ALA797  LYS798  CYS799  TRP800  GLU811  SER814 

> <Gold.Protein.RotatedAtoms>
  150.7416  134.5898  159.5981 H   0  0  0  0  0  0  0  0  0  0  0  0  # atno 6907 bound_to 6896
  152.3289  134.7282  160.0304 H   0  0  0  0  0  0  0  0  0  0  0  0  # atno 6908 bound_to 6896
  151.7773  133.3310  159.3498 H   0  0  0  0  0  0  0  0  0  0  0  0  # atno 6909 bound_to 6896
  146.1416  140.5038  142.8649 H   0  0  0  0  0  0  0  0  0  0  0  0  # atno 7974 bound_to 7965
  156.2128  140.3018  155.9772 H   0  0  0  0  0  0  0  0  0  0  0  0  # atno 8008 bound_to 7997
  155.2680  140.0432  157.3021 H   0  0  0  0  0  0  0  0  0  0  0  0  # atno 8009 bound_to 7997
  154.5725  140.2352  155.8179 H   0  0  0  0  0  0  0  0  0  0  0  0  # atno 8010 bound_to 7997
  139.5201  144.2957  152.0424 H   0  0  0  0  0  0  0  0  0  0  0  0  # atno 10167 bound_to 10162
  157.4045  130.7879  149.7377 H   0  0  0  0  0  0  0  0  0  0  0  0  # atno 10718 bound_to 10713
  153.2159  135.4372  155.0434 H   0  0  0  0  0  0  0  0  0  0  0  0  # atno 10763 bound_to 10752
  154.8225  135.3344  154.6999 H   0  0  0  0  0  0  0  0  0  0  0  0  # atno 10764 bound_to 10752
  153.7434  135.7003  153.5017 H   0  0  0  0  0  0  0  0  0  0  0  0  # atno 10765 bound_to 10752
  140.8156  134.2692  157.4922 H   0  0  0  0  0  0  0  0  0  0  0  0  # atno 11005 bound_to 11000
  144.7799  140.5818  143.6612 LP  0  0  0  0  0  0  0  0  0  0  0  0  # atno 17320 bound_to 7965
  145.5033  139.1482  143.3645 LP  0  0  0  0  0  0  0  0  0  0  0  0  # atno 17321 bound_to 7965
  140.2406  144.4273  150.6261 LP  0  0  0  0  0  0  0  0  0  0  0  0  # atno 17342 bound_to 10162
  140.6293  143.2185  151.6530 LP  0  0  0  0  0  0  0  0  0  0  0  0  # atno 17343 bound_to 10162
  155.9832  130.4002  150.3373 LP  0  0  0  0  0  0  0  0  0  0  0  0  # atno 17370 bound_to 10713
  157.1504  131.0319  151.2887 LP  0  0  0  0  0  0  0  0  0  0  0  0  # atno 17371 bound_to 10713
  139.8711  134.9507  156.4064 LP  0  0  0  0  0  0  0  0  0  0  0  0  # atno 17394 bound_to 11000
  140.9152  133.7683  155.9840 LP  0  0  0  0  0  0  0  0  0  0  0  0  # atno 17395 bound_to 11000

$$$$
