AV-unprocessed.smi:2226|AV-procd|sdf|9014|dock6
  -GOLD-   2272012213D 1   1.00000     0.00000
 Structure written by MMmdl.
 40 42  0  0  0  0  0  0  0  0  2 V2000
  145.6584  143.1335  154.1014 C   0  0  0  0  0  0  0  0  0  0  0  0
  145.9124  141.6730  154.0986 N   0  3  2  0  0  0  0  0  0  0  0  0
  145.8841  141.0325  155.4362 C   0  0  1  0  0  0  0  0  0  0  0  0
  145.7254  139.5044  155.2565 C   0  0  0  0  0  0  0  0  0  0  0  0
  146.7744  138.8746  154.3175 C   0  0  0  0  0  0  0  0  0  0  0  0
  147.0353  139.7365  153.0653 C   0  0  0  0  0  0  0  0  0  0  0  0
  147.1268  141.2527  153.3577 C   0  0  2  0  0  0  0  0  0  0  0  0
  148.4163  141.6958  154.0930 C   0  0  0  0  0  0  0  0  0  0  0  0
  148.4704  141.3121  155.5899 C   0  0  1  0  0  0  0  0  0  0  0  0
  149.4502  142.1614  156.2658 N   0  0  0  0  0  0  0  0  0  0  0  0
  150.6130  141.7687  156.8089 C   0  0  0  0  0  0  0  0  0  0  0  0
  150.9785  140.5893  156.7845 O   0  0  0  0  0  0  0  0  0  0  0  0
  151.2666  142.8630  157.3572 N   0  0  0  0  0  0  0  0  0  0  0  0
  151.8948  142.7500  158.4875 C   0  0  0  0  0  0  0  0  0  0  0  0
  152.0874  141.6872  159.3665 N   0  0  0  0  0  0  0  0  0  0  0  0
  152.8390  142.1339  160.4171 C   0  0  0  0  0  0  0  0  0  0  0  0
  153.1095  143.4194  160.2127 C   0  0  0  0  0  0  0  0  0  0  0  0
  152.5452  143.8242  159.0404 O   0  0  0  0  0  0  0  0  0  0  0  0
  147.1012  141.4630  156.2923 C   0  0  0  0  0  0  0  0  0  0  0  0
  146.4365  143.6883  154.6249 H   0  0  0  0  0  0  0  0  0  0  0  0
  144.7056  143.3526  154.5840 H   0  0  0  0  0  0  0  0  0  0  0  0
  145.6040  143.5117  153.0803 H   0  0  0  0  0  0  0  0  0  0  0  0
  144.9865  141.3775  155.9514 H   0  0  0  0  0  0  0  0  0  0  0  0
  145.7407  139.0026  156.2246 H   0  0  0  0  0  0  0  0  0  0  0  0
  144.7366  139.3123  154.8379 H   0  0  0  0  0  0  0  0  0  0  0  0
  147.7023  138.6914  154.8526 H   0  0  0  0  0  0  0  0  0  0  0  0
  146.4383  137.8834  154.0115 H   0  0  0  0  0  0  0  0  0  0  0  0
  147.9346  139.3915  152.5540 H   0  0  0  0  0  0  0  0  0  0  0  0
  146.2148  139.5744  152.3648 H   0  0  0  0  0  0  0  0  0  0  0  0
  147.1163  141.7550  152.3893 H   0  0  0  0  0  0  0  0  0  0  0  0
  149.2941  141.3008  153.5802 H   0  0  0  0  0  0  0  0  0  0  0  0
  148.4981  142.7799  154.0030 H   0  0  0  0  0  0  0  0  0  0  0  0
  148.7840  140.2747  155.6678 H   0  0  0  0  0  0  0  0  0  0  0  0
  149.2251  143.1439  156.3281 H   0  0  0  0  0  0  0  0  0  0  0  0
  151.7512  140.7381  159.2846 H   0  0  0  0  0  0  0  0  0  0  0  0
  153.1075  141.4650  161.2215 H   0  0  0  0  0  0  0  0  0  0  0  0
  153.6647  144.1513  160.7805 H   0  0  0  0  0  0  0  0  0  0  0  0
  146.9614  142.5079  156.5728 H   0  0  0  0  0  0  0  0  0  0  0  0
  147.1089  140.9143  157.2348 H   0  0  0  0  0  0  0  0  0  0  0  0
  145.1334  141.2784  153.5910 H   0  0  0  0  0  0  0  0  0  0  0  0
  1  2  1  0  0  0  0
  1 20  1  0  0  0  0
  1 21  1  0  0  0  0
  1 22  1  0  0  0  0
  2  7  1  0  0  0  0
  2  3  1  0  0  0  0
  2 40  1  0  0  0  0
  3 19  1  0  0  0  0
  3  4  1  0  0  0  0
  3 23  1  0  0  0  0
  4  5  1  0  0  0  0
  4 24  1  0  0  0  0
  4 25  1  0  0  0  0
  5  6  1  0  0  0  0
  5 26  1  0  0  0  0
  5 27  1  0  0  0  0
  6  7  1  0  0  0  0
  6 28  1  0  0  0  0
  6 29  1  0  0  0  0
  7  8  1  0  0  0  0
  7 30  1  0  0  0  0
  8  9  1  0  0  0  0
  8 31  1  0  0  0  0
  8 32  1  0  0  0  0
  9 10  1  0  0  0  0
  9 19  1  0  0  0  0
  9 33  1  0  0  0  0
 10 34  1  0  0  0  0
 10 11  1  0  0  0  0
 11 13  1  0  0  0  0
 11 12  2  0  0  0  0
 13 14  2  0  0  0  0
 14 18  1  0  0  0  0
 14 15  1  0  0  0  0
 15 35  1  0  0  0  0
 15 16  1  0  0  0  0
 16 36  1  0  0  0  0
 16 17  2  0  0  0  0
 17 37  1  0  0  0  0
 17 18  1  0  0  0  0
 19 38  1  0  0  0  0
 19 39  1  0  0  0  0
M  CHG  1   2   1
M  END
> <s_m_source_file>
AV-unprocessed.smi

> <i_m_source_file_index>
2226

> <i_lp_mmshare_version>
43012

> <i_f3d_flags>
0

> <s_epik_input>
W0NIMl0xW0NIMl1bQ0gyXVtDQEhdKE4oW0NIM10pW0NIXTEyKVtDSDJdW0NASF0oW0NIMl0yKVtOSF1DKD1PKVtOSF1jM25bY0hdW2NIXW8z

> <s_epik_cmdline>
J2VwaWtfcHl0aG9uJywgJy1waCcsICc3LjAnLCAnLXRuJywgJzgnLCAnLW1hJywgJzIwMCcsICctbWV0YWxfYmluZGluZycsICctaW1hZScsICc8aW5maWxlLm1hZT4nLCAnLW9tYWUnLCAnPG91dGZpbGUubWFlPic=

> <r_lp_tautomer_probability>
0.107061

> <r_epik_Ionization_Penalty>
1.08307

> <r_epik_Ionization_Penalty_Charging>
1.08272

> <r_epik_Ionization_Penalty_Neutral>
0.000345913

> <r_epik_State_Penalty>
2.5744

> <r_epik_Charging_Adjusted_Penalty>
3.65713

> <i_epik_Tot_Q>
1

> <i_epik_Tot_abs_Q>
1

> <r_epik_Metal_State_Penalty>
3.72133

> <b_epik_Metal_Only>
0

> <s_lp_Force_Field>
OPLS_2005

> <r_lp_Energy>
58.9785

> <b_lp_Chiralities_Consistent>
1

> <s_lp_Variant>
AV-unprocessed.smi:2226-14

> <Gold.Version>
5.8.1

> <Gold.Id.Protein>
6NUR|6NUR_protein|mol2

> <Gold.PLP.Fitness>
40.1637

> <Gold.PLP.PLP>
-31.8206

> <Gold.PLP.part.hbond>
-2.0000

> <Gold.PLP.part.metal>
0.0000

> <Gold.PLP.part.buried>
-5.5085

> <Gold.PLP.part.nonpolar>
-24.1785

> <Gold.PLP.part.repulsive>
0.3205

> <Gold.PLP.ligand.clash>
0.0000

> <Gold.PLP.ligand.torsion>
0.3314

> <Gold.PLP.Chemscore.Hbond>
3.0000

> <Gold.PLP.Chemscore.CHOScore>
0.0000

> <Gold.PLP.Chemscore.Metal>
0.0000

> <Gold.Chemscore.Hbonds>
donor molecule, donor type, donor heavy atom, donor atom, acceptor molecule, acceptor atom, score
      L1  H     2    40       P1 10175  2.00
      L1  H    10    34       P1  8028  1.00

> <Gold.PLP.Chemscore.Internal.Correction>
0.0058

> <Gold.Rescore>
     Score         DG    S(hbond)    S(metal)    S(lipo)     H(rot)  DE(clash)    DE(int)     intcor
     16.76     -17.13       1.93        0.00      66.27       1.00       0.10       0.26       ----

> <Gold.Chemscore.Fitness>
16.7629

> <Gold.Chemscore.DG>
-17.1262

> <Gold.Chemscore.ZeroCoef>
-5.4800

> <Gold.Chemscore.Hbond>
1.9320

> <Gold.Chemscore.Metal>
0.0000

> <Gold.Chemscore.Lipo>
66.2666

> <Gold.Chemscore.Internal_Hbond>
0.0000

> <Gold.Chemscore.DEClash>
0.1006

> <Gold.Chemscore.DEInternal>
0.2626

> <Gold.Chemscore.Rot>
1.0000

> <Gold.Chemscore.Internal.Correction>
   9.000000E+99

> <Gold.Chemscore.Hbonds>
donor molecule, donor type, donor heavy atom, donor atom, acceptor molecule, acceptor atom, score
      L1  H     2    40       P1 10175  0.34
      L1  H    10    34       P1  8028  0.98

> <Gold.Chemscore.Hbond.Weighted>
-6.4530

> <Gold.Chemscore.Metal.Weighted>
-0.0000

> <Gold.Chemscore.Lipo.Weighted>
-7.7532

> <Gold.Chemscore.Internal_Hbond.Weighted>
0.0000

> <Gold.Chemscore.DEClash.Weighted>
0.1006

> <Gold.Chemscore.DEInternal.Weighted>
0.2626

> <Gold.Chemscore.Rot.Weighted>
2.5600

> <Gold.Chemscore.Internal.Correction.Weighted>
   9.000000E+99

> <Gold.Protein.RotatedTorsions>
[ 6907 6896 6895 6894 ] final  -90.38 input  -60.11 | X-H torsion
[ 7974 7965 7964 7962 ] final  -26.83 input  175.53 | X-H torsion
[ 8008 7997 7996 7995 ] final  160.59 input   59.86 | X-H torsion
[ 10167 10162 10161 10158 ] final    6.72 input  -65.29 | X-H torsion
[ 10718 10713 10712 10709 ] final -116.77 input   66.30 | X-H torsion
[ 10763 10752 10751 10750 ] final   75.14 input  -60.55 | X-H torsion
[ 11005 11000 10999 10996 ] final -135.77 input  -57.11 | X-H torsion

> <Gold.Protein.ActiveResidues>
 VAL166  LYS551  ARG553  GLY616  TRP617  ASP618  TYR619  PRO620  LYS621  CYS622 
 ASP623  PHE694  ASN695  SER759  ASP760  ASP761  ALA762  ILE779  LEU786  VAL792 
 PHE793  MET794  SER795  GLU796  ALA797  LYS798  CYS799  TRP800  GLU811  SER814 

> <Gold.Protein.RotatedAtoms>
  150.6881  134.2441  159.4483 H   0  0  0  0  0  0  0  0  0  0  0  0  # atno 6907 bound_to 6896
  152.0383  134.9724  160.0583 H   0  0  0  0  0  0  0  0  0  0  0  0  # atno 6908 bound_to 6896
  152.1236  133.4332  159.4724 H   0  0  0  0  0  0  0  0  0  0  0  0  # atno 6909 bound_to 6896
  146.1399  140.5071  142.8656 H   0  0  0  0  0  0  0  0  0  0  0  0  # atno 7974 bound_to 7965
  156.2162  140.1800  156.7584 H   0  0  0  0  0  0  0  0  0  0  0  0  # atno 8008 bound_to 7997
  154.5795  140.0668  156.9112 H   0  0  0  0  0  0  0  0  0  0  0  0  # atno 8009 bound_to 7997
  155.2528  140.3330  155.4283 H   0  0  0  0  0  0  0  0  0  0  0  0  # atno 8010 bound_to 7997
  140.6412  143.7770  150.7430 H   0  0  0  0  0  0  0  0  0  0  0  0  # atno 10167 bound_to 10162
  156.0987  130.6153  150.9078 H   0  0  0  0  0  0  0  0  0  0  0  0  # atno 10718 bound_to 10713
  153.0635  135.4999  154.8146 H   0  0  0  0  0  0  0  0  0  0  0  0  # atno 10763 bound_to 10752
  154.6918  135.2986  154.9471 H   0  0  0  0  0  0  0  0  0  0  0  0  # atno 10764 bound_to 10752
  154.0223  135.6740  153.4826 H   0  0  0  0  0  0  0  0  0  0  0  0  # atno 10765 bound_to 10752
  140.8867  134.1863  157.4555 H   0  0  0  0  0  0  0  0  0  0  0  0  # atno 11005 bound_to 11000
  144.7781  140.5782  143.6624 LP  0  0  0  0  0  0  0  0  0  0  0  0  # atno 17320 bound_to 7965
  145.5070  139.1481  143.3625 LP  0  0  0  0  0  0  0  0  0  0  0  0  # atno 17321 bound_to 7965
  140.1402  143.4448  152.2198 LP  0  0  0  0  0  0  0  0  0  0  0  0  # atno 17342 bound_to 10162
  139.5621  144.7412  151.4126 LP  0  0  0  0  0  0  0  0  0  0  0  0  # atno 17343 bound_to 10162
  157.6153  131.0933  150.8722 LP  0  0  0  0  0  0  0  0  0  0  0  0  # atno 17370 bound_to 10713
  156.8855  130.5194  149.5289 LP  0  0  0  0  0  0  0  0  0  0  0  0  # atno 17371 bound_to 10713
  139.8725  134.9841  156.5225 LP  0  0  0  0  0  0  0  0  0  0  0  0  # atno 17394 bound_to 11000
  140.8396  133.8216  155.9062 LP  0  0  0  0  0  0  0  0  0  0  0  0  # atno 17395 bound_to 11000

$$$$
