AV-unprocessed.smi:870|AV-procd|sdf|4009|dock6
  -GOLD-   22720 1493D 1   1.00000     0.00000
 Structure written by MMmdl.
 47 49  0  0  0  0  0  0  0  0  2 V2000
  147.4424  141.8537  153.7383 C   0  0  0  0  0  0  0  0  0  0  0  0
  148.6468  141.7378  154.4756 O   0  0  0  0  0  0  0  0  0  0  0  0
  148.4857  140.9772  155.6618 C   0  0  0  0  0  0  0  0  0  0  0  0
  149.6024  141.2064  156.6270 C   0  0  0  0  0  0  0  0  0  0  0  0
  150.1866  142.4045  156.9119 N   0  3  0  0  0  0  0  0  0  0  0  0
  151.1957  142.2258  157.8587 C   0  0  0  0  0  0  0  0  0  0  0  0
  152.0587  143.1409  158.4537 C   0  0  0  0  0  0  0  0  0  0  0  0
  152.9779  142.6265  159.3914 C   0  0  0  0  0  0  0  0  0  0  0  0
  153.0140  141.2526  159.7064 C   0  0  0  0  0  0  0  0  0  0  0  0
  152.1344  140.3344  159.0960 C   0  0  0  0  0  0  0  0  0  0  0  0
  151.2295  140.8503  158.1681 C   0  0  0  0  0  0  0  0  0  0  0  0
  150.2295  140.2613  157.3842 N   0  0  0  0  0  0  0  0  0  0  0  0
  149.9973  138.8101  157.4618 C   0  0  0  0  0  0  0  0  0  0  0  0
  149.6457  138.3350  158.8860 C   0  0  2  0  0  0  0  0  0  0  0  0
  150.7539  137.6784  159.4673 O   0  0  0  0  0  0  0  0  0  0  0  0
  148.4471  137.3760  158.9031 C   0  0  0  0  0  0  0  0  0  0  0  0
  148.0102  137.2180  160.2461 O   0  0  0  0  0  0  0  0  0  0  0  0
  147.6593  135.9569  160.6813 C   0  0  0  0  0  0  0  0  0  0  0  0
  147.6219  134.8155  159.8401 C   0  0  0  0  0  0  0  0  0  0  0  0
  147.2542  133.5583  160.3557 C   0  0  0  0  0  0  0  0  0  0  0  0
  146.9201  133.4233  161.7149 C   0  0  0  0  0  0  0  0  0  0  0  0
  146.9535  134.5482  162.5588 C   0  0  0  0  0  0  0  0  0  0  0  0
  147.3211  135.8104  162.0471 C   0  0  0  0  0  0  0  0  0  0  0  0
  147.3499  137.0142  162.9702 C   0  0  0  0  0  0  0  0  0  0  0  0
  147.6180  142.4458  152.8402 H   0  0  0  0  0  0  0  0  0  0  0  0
  146.6685  142.3519  154.3235 H   0  0  0  0  0  0  0  0  0  0  0  0
  147.0731  140.8750  153.4294 H   0  0  0  0  0  0  0  0  0  0  0  0
  147.5440  141.2396  156.1457 H   0  0  0  0  0  0  0  0  0  0  0  0
  148.4466  139.9140  155.4205 H   0  0  0  0  0  0  0  0  0  0  0  0
  152.0316  144.1940  158.2154 H   0  0  0  0  0  0  0  0  0  0  0  0
  153.6683  143.2989  159.8798 H   0  0  0  0  0  0  0  0  0  0  0  0
  153.7303  140.8954  160.4320 H   0  0  0  0  0  0  0  0  0  0  0  0
  152.1686  139.2852  159.3500 H   0  0  0  0  0  0  0  0  0  0  0  0
  149.1773  138.5806  156.7804 H   0  0  0  0  0  0  0  0  0  0  0  0
  150.8674  138.2824  157.0710 H   0  0  0  0  0  0  0  0  0  0  0  0
  149.4146  139.1976  159.5119 H   0  0  0  0  0  0  0  0  0  0  0  0
  150.7436  137.8419  160.3979 H   0  0  0  0  0  0  0  0  0  0  0  0
  147.6437  137.7682  158.2768 H   0  0  0  0  0  0  0  0  0  0  0  0
  148.7476  136.4060  158.5029 H   0  0  0  0  0  0  0  0  0  0  0  0
  147.8722  134.8766  158.7920 H   0  0  0  0  0  0  0  0  0  0  0  0
  147.2287  132.6958  159.7061 H   0  0  0  0  0  0  0  0  0  0  0  0
  146.6381  132.4583  162.1098 H   0  0  0  0  0  0  0  0  0  0  0  0
  146.6944  134.4373  163.6015 H   0  0  0  0  0  0  0  0  0  0  0  0
  147.0681  136.7445  163.9884 H   0  0  0  0  0  0  0  0  0  0  0  0
  146.6561  137.7778  162.6175 H   0  0  0  0  0  0  0  0  0  0  0  0
  148.3511  137.4455  162.9989 H   0  0  0  0  0  0  0  0  0  0  0  0
  149.9097  143.2794  156.4852 H   0  0  0  0  0  0  0  0  0  0  0  0
  1  2  1  0  0  0  0
  1 25  1  0  0  0  0
  1 26  1  0  0  0  0
  1 27  1  0  0  0  0
  2  3  1  0  0  0  0
  3  4  1  0  0  0  0
  3 28  1  0  0  0  0
  3 29  1  0  0  0  0
  4 12  1  0  0  0  0
  4  5  2  0  0  0  0
  5  6  1  0  0  0  0
  5 47  1  0  0  0  0
  6 11  2  0  0  0  0
  6  7  1  0  0  0  0
  7  8  2  0  0  0  0
  7 30  1  0  0  0  0
  8  9  1  0  0  0  0
  8 31  1  0  0  0  0
  9 10  2  0  0  0  0
  9 32  1  0  0  0  0
 10 11  1  0  0  0  0
 10 33  1  0  0  0  0
 11 12  1  0  0  0  0
 12 13  1  0  0  0  0
 13 14  1  0  0  0  0
 13 34  1  0  0  0  0
 13 35  1  0  0  0  0
 14 15  1  0  0  0  0
 14 16  1  0  0  0  0
 14 36  1  0  0  0  0
 15 37  1  0  0  0  0
 16 17  1  0  0  0  0
 16 38  1  0  0  0  0
 16 39  1  0  0  0  0
 17 18  1  0  0  0  0
 18 23  1  0  0  0  0
 18 19  2  0  0  0  0
 19 20  1  0  0  0  0
 19 40  1  0  0  0  0
 20 21  2  0  0  0  0
 20 41  1  0  0  0  0
 21 22  1  0  0  0  0
 21 42  1  0  0  0  0
 22 23  2  0  0  0  0
 22 43  1  0  0  0  0
 23 24  1  0  0  0  0
 24 44  1  0  0  0  0
 24 45  1  0  0  0  0
 24 46  1  0  0  0  0
M  CHG  1   5   1
M  END
> <s_m_source_file>
AV-unprocessed.smi

> <i_m_source_file_index>
870

> <i_lp_mmshare_version>
43012

> <i_f3d_flags>
0

> <s_epik_input>
W2NIXTFbY0hdW2NIXVtjSF1jKGMxMiluKGMobjIpW0NIMl1PW0NIM10pW0NIMl1bQ0BIXShbT0hdKVtDSDJdT2MzW2NIXVtjSF1bY0hdW2NIXWMzW0NIM10=

> <s_epik_cmdline>
J2VwaWtfcHl0aG9uJywgJy1waCcsICc3LjAnLCAnLXRuJywgJzgnLCAnLW1hJywgJzIwMCcsICctbWV0YWxfYmluZGluZycsICctaW1hZScsICc8aW5maWxlLm1hZT4nLCAnLW9tYWUnLCAnPG91dGZpbGUubWFlPic=

> <r_lp_tautomer_probability>
1

> <r_epik_Ionization_Penalty>
1.55338

> <r_epik_Ionization_Penalty_Charging>
1.55338

> <r_epik_Ionization_Penalty_Neutral>
2.3993e-06

> <r_epik_State_Penalty>
1.64778

> <r_epik_Charging_Adjusted_Penalty>
3.20115

> <i_epik_Tot_Q>
1

> <i_epik_Tot_abs_Q>
1

> <r_epik_Metal_State_Penalty>
5.70266

> <b_epik_Metal_Only>
0

> <s_lp_Force_Field>
OPLS_2005

> <r_lp_Energy>
18.2102

> <b_lp_Chiralities_Consistent>
1

> <s_lp_Variant>
AV-unprocessed.smi:870-3

> <Gold.Version>
5.8.1

> <Gold.Id.Protein>
6NUR|6NUR_protein|mol2

> <Gold.PLP.Fitness>
56.8736

> <Gold.PLP.PLP>
-50.3819

> <Gold.PLP.part.hbond>
-3.7594

> <Gold.PLP.part.metal>
0.0000

> <Gold.PLP.part.buried>
-5.1379

> <Gold.PLP.part.nonpolar>
-41.6286

> <Gold.PLP.part.repulsive>
0.1865

> <Gold.PLP.ligand.clash>
0.0000

> <Gold.PLP.ligand.torsion>
1.3692

> <Gold.PLP.Chemscore.Hbond>
3.0376

> <Gold.PLP.Chemscore.CHOScore>
0.0000

> <Gold.PLP.Chemscore.Metal>
0.0000

> <Gold.Chemscore.Hbonds>
donor molecule, donor type, donor heavy atom, donor atom, acceptor molecule, acceptor atom, score
      L1  H     5    47       P1  8028  2.00
      P1  H  6931  6943       L1    17  0.39
      P1  H  6934  6947       L1    17  0.62

> <Gold.PLP.Chemscore.Internal.Correction>
0.1175

> <Gold.Rescore>
     Score         DG    S(hbond)    S(metal)    S(lipo)     H(rot)  DE(clash)    DE(int)     intcor
     18.28     -20.66       1.77        0.00     132.64       2.45       0.12       2.26       ----

> <Gold.Chemscore.Fitness>
18.2765

> <Gold.Chemscore.DG>
-20.6562

> <Gold.Chemscore.ZeroCoef>
-5.4800

> <Gold.Chemscore.Hbond>
1.7748

> <Gold.Chemscore.Metal>
0.0000

> <Gold.Chemscore.Lipo>
132.6383

> <Gold.Chemscore.Internal_Hbond>
0.0000

> <Gold.Chemscore.DEClash>
0.1229

> <Gold.Chemscore.DEInternal>
2.2568

> <Gold.Chemscore.Rot>
2.4494

> <Gold.Chemscore.Internal.Correction>
   9.000000E+99

> <Gold.Chemscore.Hbonds>
donor molecule, donor type, donor heavy atom, donor atom, acceptor molecule, acceptor atom, score
      L1  H     5    47       P1  8028  0.99
      P1  H  6931  6943       L1    17  0.26
      P1  H  6934  6947       L1    17  0.42

> <Gold.Chemscore.Hbond.Weighted>
-5.9280

> <Gold.Chemscore.Metal.Weighted>
-0.0000

> <Gold.Chemscore.Lipo.Weighted>
-15.5187

> <Gold.Chemscore.Internal_Hbond.Weighted>
0.0000

> <Gold.Chemscore.DEClash.Weighted>
0.1229

> <Gold.Chemscore.DEInternal.Weighted>
2.2568

> <Gold.Chemscore.Rot.Weighted>
6.2704

> <Gold.Chemscore.Internal.Correction.Weighted>
   9.000000E+99

> <Gold.Protein.RotatedTorsions>
[ 6907 6896 6895 6894 ] final   87.04 input  -60.11 | X-H torsion
[ 7974 7965 7964 7962 ] final   33.60 input  175.53 | X-H torsion
[ 8008 7997 7996 7995 ] final  -95.89 input   59.86 | X-H torsion
[ 10167 10162 10161 10158 ] final    8.84 input  -65.29 | X-H torsion
[ 10718 10713 10712 10709 ] final  -29.03 input   66.30 | X-H torsion
[ 10763 10752 10751 10750 ] final  -69.15 input  -60.55 | X-H torsion
[ 11005 11000 10999 10996 ] final  -91.46 input  -57.11 | X-H torsion

> <Gold.Protein.ActiveResidues>
 VAL166  LYS551  ARG553  GLY616  TRP617  ASP618  TYR619  PRO620  LYS621  CYS622 
 ASP623  PHE694  ASN695  SER759  ASP760  ASP761  ALA762  ILE779  LEU786  VAL792 
 PHE793  MET794  SER795  GLU796  ALA797  LYS798  CYS799  TRP800  GLU811  SER814 

> <Gold.Protein.RotatedAtoms>
  152.5404  134.2339  159.8835 H   0  0  0  0  0  0  0  0  0  0  0  0  # atno 6907 bound_to 6896
  151.2309  133.4444  159.2611 H   0  0  0  0  0  0  0  0  0  0  0  0  # atno 6908 bound_to 6896
  151.0716  134.9815  159.8367 H   0  0  0  0  0  0  0  0  0  0  0  0  # atno 6909 bound_to 6896
  146.1409  139.6376  142.9163 H   0  0  0  0  0  0  0  0  0  0  0  0  # atno 7974 bound_to 7965
  154.7672  140.0476  157.1022 H   0  0  0  0  0  0  0  0  0  0  0  0  # atno 8008 bound_to 7997
  154.9865  140.3108  155.4905 H   0  0  0  0  0  0  0  0  0  0  0  0  # atno 8009 bound_to 7997
  156.2915  140.2226  156.4967 H   0  0  0  0  0  0  0  0  0  0  0  0  # atno 8010 bound_to 7997
  140.6290  143.8036  150.7271 H   0  0  0  0  0  0  0  0  0  0  0  0  # atno 10167 bound_to 10162
  156.4176  130.4420  149.7207 H   0  0  0  0  0  0  0  0  0  0  0  0  # atno 10718 bound_to 10713
  154.3993  135.6034  153.5888 H   0  0  0  0  0  0  0  0  0  0  0  0  # atno 10763 bound_to 10752
  152.9788  135.5902  154.4203 H   0  0  0  0  0  0  0  0  0  0  0  0  # atno 10764 bound_to 10752
  154.3999  135.2843  155.2081 H   0  0  0  0  0  0  0  0  0  0  0  0  # atno 10765 bound_to 10752
  141.1544  133.7757  156.9882 H   0  0  0  0  0  0  0  0  0  0  0  0  # atno 11005 bound_to 11000
  145.5048  141.0437  143.2520 LP  0  0  0  0  0  0  0  0  0  0  0  0  # atno 17320 bound_to 7965
  144.7792  139.6563  143.7162 LP  0  0  0  0  0  0  0  0  0  0  0  0  # atno 17321 bound_to 7965
  140.1643  143.4249  152.2045 LP  0  0  0  0  0  0  0  0  0  0  0  0  # atno 17342 bound_to 10162
  139.5507  144.7335  151.4445 LP  0  0  0  0  0  0  0  0  0  0  0  0  # atno 17343 bound_to 10162
  156.4161  130.7745  151.2761 LP  0  0  0  0  0  0  0  0  0  0  0  0  # atno 17370 bound_to 10713
  157.7508  131.0197  150.3678 LP  0  0  0  0  0  0  0  0  0  0  0  0  # atno 17371 bound_to 10713
  140.1020  134.9529  157.1937 LP  0  0  0  0  0  0  0  0  0  0  0  0  # atno 17394 bound_to 11000
  140.3306  134.2814  155.7229 LP  0  0  0  0  0  0  0  0  0  0  0  0  # atno 17395 bound_to 11000

$$$$
