AV-unprocessed.smi:109|AV-procd|sdf|1057|dock7
  -GOLD-   2262018123D 1   1.00000     0.00000
 Structure written by MMmdl.
 58 61  0  0  0  0  0  0  0  0  1 V2000
  153.1846  138.9188  156.7100 O   0  0  0  0  0  0  0  0  0  0  0  0
  153.0094  139.3757  158.0339 C   0  0  0  0  0  0  0  0  0  0  0  0
  151.5201  139.6564  158.2965 C   0  0  0  0  0  0  0  0  0  0  0  0
  150.9855  140.9547  157.6411 C   0  0  2  0  0  0  0  0  0  0  0  0
  151.0821  140.8445  156.1831 N   0  0  0  0  0  0  0  0  0  0  0  0
  150.3980  139.9128  155.4806 C   0  0  0  0  0  0  0  0  0  0  0  0
  150.6977  139.6379  154.1846 N   0  0  0  0  0  0  0  0  0  0  0  0
  149.9933  138.7223  153.5133 C   0  0  0  0  0  0  0  0  0  0  0  0
  148.9698  137.9796  153.9403 N   0  0  0  0  0  0  0  0  0  0  0  0
  148.6670  138.2466  155.2437 C   0  0  0  0  0  0  0  0  0  0  0  0
  149.3306  139.1916  156.0756 C   0  0  0  0  0  0  0  0  0  0  0  0
  148.7512  139.1952  157.3377 N   0  0  0  0  0  0  0  0  0  0  0  0
  147.7992  138.3050  157.2510 C   0  0  0  0  0  0  0  0  0  0  0  0
  147.6793  137.6852  156.0268 N   0  0  0  0  0  0  0  0  0  0  0  0
  146.6816  136.6490  155.6231 C   0  0  1  0  0  0  0  0  0  0  0  0
  145.8342  136.4247  156.7103 O   0  0  0  0  0  0  0  0  0  0  0  0
  144.4979  136.2435  156.2563 C   0  0  2  0  0  0  0  0  0  0  0  0
  144.2743  134.7444  155.9614 C   0  0  0  0  0  0  0  0  0  0  0  0
  142.9184  134.4912  155.6582 O   0  0  0  0  0  0  0  0  0  0  0  0
  144.4283  137.1950  155.0540 C   0  0  2  0  0  0  0  0  0  0  0  0
  143.3738  136.9361  154.1444 O   0  0  0  0  0  0  0  0  0  0  0  0
  145.8243  137.1246  154.4363 C   0  0  2  0  0  0  0  0  0  0  0  0
  145.8841  136.2023  153.3638 O   0  0  0  0  0  0  0  0  0  0  0  0
  151.7324  142.2360  158.1139 C   0  0  0  0  0  0  0  0  0  0  0  0
  152.1598  142.1799  159.6029 C   0  0  0  0  0  0  0  0  0  0  0  0
  152.8634  143.4675  160.0630 C   0  0  0  0  0  0  0  0  0  0  0  0
  151.9909  144.7036  159.8155 C   0  0  0  0  0  0  0  0  0  0  0  0
  151.5847  144.7887  158.3396 C   0  0  0  0  0  0  0  0  0  0  0  0
  150.8712  143.5054  157.8862 C   0  0  0  0  0  0  0  0  0  0  0  0
  147.2729  135.7578  155.4063 H   0  0  0  0  0  0  0  0  0  0  0  0
  143.8171  136.5625  157.0466 H   0  0  0  0  0  0  0  0  0  0  0  0
  144.2768  138.2040  155.4380 H   0  0  0  0  0  0  0  0  0  0  0  0
  146.1497  138.1016  154.0761 H   0  0  0  0  0  0  0  0  0  0  0  0
  153.0341  137.9860  156.6912 H   0  0  0  0  0  0  0  0  0  0  0  0
  153.3963  138.6174  158.7146 H   0  0  0  0  0  0  0  0  0  0  0  0
  153.6016  140.2798  158.1768 H   0  0  0  0  0  0  0  0  0  0  0  0
  150.9721  138.7972  157.9138 H   0  0  0  0  0  0  0  0  0  0  0  0
  151.3354  139.6845  159.3712 H   0  0  0  0  0  0  0  0  0  0  0  0
  149.9460  141.0753  157.9460 H   0  0  0  0  0  0  0  0  0  0  0  0
  151.7039  141.5062  155.7406 H   0  0  0  0  0  0  0  0  0  0  0  0
  150.2905  138.5639  152.4870 H   0  0  0  0  0  0  0  0  0  0  0  0
  147.1519  138.0757  158.0851 H   0  0  0  0  0  0  0  0  0  0  0  0
  144.9084  134.3859  155.1512 H   0  0  0  0  0  0  0  0  0  0  0  0
  144.5257  134.1552  156.8435 H   0  0  0  0  0  0  0  0  0  0  0  0
  142.8245  133.5747  155.4467 H   0  0  0  0  0  0  0  0  0  0  0  0
  143.3843  137.6046  153.4760 H   0  0  0  0  0  0  0  0  0  0  0  0
  146.3616  136.6064  152.6549 H   0  0  0  0  0  0  0  0  0  0  0  0
  152.6392  142.3357  157.5148 H   0  0  0  0  0  0  0  0  0  0  0  0
  151.2861  141.9977  160.2300 H   0  0  0  0  0  0  0  0  0  0  0  0
  152.8480  141.3554  159.7804 H   0  0  0  0  0  0  0  0  0  0  0  0
  153.1119  143.3958  161.1223 H   0  0  0  0  0  0  0  0  0  0  0  0
  153.8095  143.5754  159.5311 H   0  0  0  0  0  0  0  0  0  0  0  0
  151.0987  144.6554  160.4410 H   0  0  0  0  0  0  0  0  0  0  0  0
  152.5287  145.6055  160.1085 H   0  0  0  0  0  0  0  0  0  0  0  0
  150.9346  145.6500  158.1838 H   0  0  0  0  0  0  0  0  0  0  0  0
  152.4696  144.9533  157.7235 H   0  0  0  0  0  0  0  0  0  0  0  0
  150.6116  143.6141  156.8333 H   0  0  0  0  0  0  0  0  0  0  0  0
  149.9265  143.4078  158.4232 H   0  0  0  0  0  0  0  0  0  0  0  0
  1  2  1  0  0  0  0
  1 34  1  0  0  0  0
  2  3  1  0  0  0  0
  2 35  1  0  0  0  0
  2 36  1  0  0  0  0
  3  4  1  0  0  0  0
  3 37  1  0  0  0  0
  3 38  1  0  0  0  0
  4  5  1  0  0  0  0
  4 24  1  0  0  0  0
  4 39  1  0  0  0  0
  5  6  1  0  0  0  0
  5 40  1  0  0  0  0
  6 11  1  0  0  0  0
  6  7  2  0  0  0  0
  7  8  1  0  0  0  0
  8  9  2  0  0  0  0
  8 41  1  0  0  0  0
  9 10  1  0  0  0  0
 10 14  1  0  0  0  0
 10 11  2  0  0  0  0
 11 12  1  0  0  0  0
 12 13  2  0  0  0  0
 13 14  1  0  0  0  0
 13 42  1  0  0  0  0
 14 15  1  0  0  0  0
 15 30  1  0  0  0  0
 15 22  1  0  0  0  0
 15 16  1  0  0  0  0
 16 17  1  0  0  0  0
 17 31  1  0  0  0  0
 17 18  1  0  0  0  0
 17 20  1  0  0  0  0
 18 19  1  0  0  0  0
 18 43  1  0  0  0  0
 18 44  1  0  0  0  0
 19 45  1  0  0  0  0
 20 32  1  0  0  0  0
 20 21  1  0  0  0  0
 20 22  1  0  0  0  0
 21 46  1  0  0  0  0
 22 33  1  0  0  0  0
 22 23  1  0  0  0  0
 23 47  1  0  0  0  0
 24 29  1  0  0  0  0
 24 25  1  0  0  0  0
 24 48  1  0  0  0  0
 25 26  1  0  0  0  0
 25 49  1  0  0  0  0
 25 50  1  0  0  0  0
 26 27  1  0  0  0  0
 26 51  1  0  0  0  0
 26 52  1  0  0  0  0
 27 28  1  0  0  0  0
 27 53  1  0  0  0  0
 27 54  1  0  0  0  0
 28 29  1  0  0  0  0
 28 55  1  0  0  0  0
 28 56  1  0  0  0  0
 29 57  1  0  0  0  0
 29 58  1  0  0  0  0
M  END
> <s_m_source_file>
AV-unprocessed.smi

> <i_m_source_file_index>
109

> <i_lp_mmshare_version>
43012

> <i_f3d_flags>
0

> <s_epik_input>
W0NIMl0xW0NIMl1bQ0gyXVtDSDJdW0NIMl1bQ0hdMVtDQEhdKFtDSDJdW0NIMl1bT0hdKVtOSF1jKG5bY0hdbjIpYyhjMjMpbltjSF1uM1tDQEBIXTRPW0NASF0oW0NIMl1bT0hdKVtDQEBIXShbT0hdKVtDQEhdNFtPSF0=

> <s_epik_cmdline>
J2VwaWtfcHl0aG9uJywgJy1waCcsICc3LjAnLCAnLXRuJywgJzgnLCAnLW1hJywgJzIwMCcsICctbWV0YWxfYmluZGluZycsICctaW1hZScsICc8aW5maWxlLm1hZT4nLCAnLW9tYWUnLCAnPG91dGZpbGUubWFlPic=

> <r_lp_tautomer_probability>
1

> <r_epik_Ionization_Penalty>
0.000793976

> <r_epik_Ionization_Penalty_Charging>
0

> <r_epik_Ionization_Penalty_Neutral>
0.000793976

> <r_epik_State_Penalty>
-0

> <r_epik_Charging_Adjusted_Penalty>
0

> <i_epik_Tot_Q>
0

> <i_epik_Tot_abs_Q>
0

> <r_epik_Metal_State_Penalty>
-0

> <b_epik_Metal_Only>
0

> <s_epik_Chemistry_Notes>
This compound contains an acetal/aminal-like group ( X-CH(R)-Y where X, Y are N, S, or O) that may be acid/base labile, releasing an aldehyde.

> <s_lp_Force_Field>
OPLS_2005

> <r_lp_Energy>
58.5181

> <b_lp_Chiralities_Consistent>
1

> <s_lp_Variant>
AV-unprocessed.smi:109-27

> <Gold.Version>
5.8.1

> <Gold.Id.Protein>
6NUR|6NUR_protein|mol2

> <Gold.PLP.Fitness>
50.1045

> <Gold.PLP.PLP>
-36.2553

> <Gold.PLP.part.hbond>
-4.4561

> <Gold.PLP.part.metal>
0.0000

> <Gold.PLP.part.buried>
-7.8907

> <Gold.PLP.part.nonpolar>
-26.4575

> <Gold.PLP.part.repulsive>
1.8077

> <Gold.PLP.ligand.clash>
0.0000

> <Gold.PLP.ligand.torsion>
0.6252

> <Gold.PLP.Chemscore.Hbond>
3.9750

> <Gold.PLP.Chemscore.CHOScore>
0.9803

> <Gold.PLP.Chemscore.Metal>
0.0000

> <Gold.Chemscore.Hbonds>
donor molecule, donor type, donor heavy atom, donor atom, acceptor molecule, acceptor atom, score
      L1  H    19    45       P1 10957  1.00
      P1  H  7989  7998       L1     7  1.00
      L1  C     8    41       P1  7948  0.19
      L1  C     8    41       P1  7949  0.03
      L1  C     8    41       P1  7957  0.52

> <Gold.PLP.Chemscore.Internal.Correction>
0.2335

> <Gold.Rescore>
     Score         DG    S(hbond)    S(metal)    S(lipo)     H(rot)  DE(clash)    DE(int)     intcor
     10.69     -12.77       3.30        0.00      87.78       5.47       0.01       2.07       ----

> <Gold.Chemscore.Fitness>
10.6922

> <Gold.Chemscore.DG>
-12.7711

> <Gold.Chemscore.ZeroCoef>
-5.4800

> <Gold.Chemscore.Hbond>
3.2977

> <Gold.Chemscore.Metal>
0.0000

> <Gold.Chemscore.Lipo>
87.7810

> <Gold.Chemscore.Internal_Hbond>
0.0000

> <Gold.Chemscore.DEClash>
0.0108

> <Gold.Chemscore.DEInternal>
2.0680

> <Gold.Chemscore.Rot>
5.4662

> <Gold.Chemscore.Internal.Correction>
   9.000000E+99

> <Gold.Chemscore.Hbonds>
donor molecule, donor type, donor heavy atom, donor atom, acceptor molecule, acceptor atom, score
      L1  H    19    45       P1 10957  1.00
      P1  H  7989  7998       L1     7  0.82

> <Gold.Chemscore.Hbond.Weighted>
-11.0142

> <Gold.Chemscore.Metal.Weighted>
-0.0000

> <Gold.Chemscore.Lipo.Weighted>
-10.2704

> <Gold.Chemscore.Internal_Hbond.Weighted>
0.0000

> <Gold.Chemscore.DEClash.Weighted>
0.0108

> <Gold.Chemscore.DEInternal.Weighted>
2.0680

> <Gold.Chemscore.Rot.Weighted>
13.9935

> <Gold.Chemscore.Internal.Correction.Weighted>
   9.000000E+99

> <Gold.Protein.RotatedTorsions>
[ 6907 6896 6895 6894 ] final  -84.17 input  -60.11 | X-H torsion
[ 7974 7965 7964 7962 ] final  -74.30 input  175.53 | X-H torsion
[ 8008 7997 7996 7995 ] final  -73.75 input   59.86 | X-H torsion
[ 10167 10162 10161 10158 ] final -160.42 input  -65.29 | X-H torsion
[ 10718 10713 10712 10709 ] final  -68.00 input   66.30 | X-H torsion
[ 10763 10752 10751 10750 ] final  -14.00 input  -60.55 | X-H torsion
[ 11005 11000 10999 10996 ] final  -69.85 input  -57.11 | X-H torsion

> <Gold.Protein.ActiveResidues>
 VAL166  LYS551  ARG553  GLY616  TRP617  ASP618  TYR619  PRO620  LYS621  CYS622 
 ASP623  PHE694  ASN695  SER759  ASP760  ASP761  ALA762  ILE779  LEU786  VAL792 
 PHE793  MET794  SER795  GLU796  ALA797  LYS798  CYS799  TRP800  GLU811  SER814 

> <Gold.Protein.RotatedAtoms>
  150.6879  134.3399  159.4863 H   0  0  0  0  0  0  0  0  0  0  0  0  # atno 6907 bound_to 6896
  152.1254  134.9172  160.0570 H   0  0  0  0  0  0  0  0  0  0  0  0  # atno 6908 bound_to 6896
  152.0362  133.3923  159.4355 H   0  0  0  0  0  0  0  0  0  0  0  0  # atno 6909 bound_to 6896
  145.6409  140.9311  143.1036 H   0  0  0  0  0  0  0  0  0  0  0  0  # atno 7974 bound_to 7965
  154.5273  140.0773  156.8282 H   0  0  0  0  0  0  0  0  0  0  0  0  # atno 8008 bound_to 7997
  155.3448  140.3409  155.4221 H   0  0  0  0  0  0  0  0  0  0  0  0  # atno 8009 bound_to 7997
  156.1745  140.1631  156.8374 H   0  0  0  0  0  0  0  0  0  0  0  0  # atno 8010 bound_to 7997
  139.6541  144.0031  152.2182 H   0  0  0  0  0  0  0  0  0  0  0  0  # atno 10167 bound_to 10162
  156.0528  130.4287  150.1937 H   0  0  0  0  0  0  0  0  0  0  0  0  # atno 10718 bound_to 10713
  153.5218  135.7015  153.5728 H   0  0  0  0  0  0  0  0  0  0  0  0  # atno 10763 bound_to 10752
  153.3773  135.3929  155.1832 H   0  0  0  0  0  0  0  0  0  0  0  0  # atno 10764 bound_to 10752
  154.8694  135.3826  154.4707 H   0  0  0  0  0  0  0  0  0  0  0  0  # atno 10765 bound_to 10752
  141.1562  133.6775  156.6662 H   0  0  0  0  0  0  0  0  0  0  0  0  # atno 11005 bound_to 11000
  144.7158  139.8203  143.7399 LP  0  0  0  0  0  0  0  0  0  0  0  0  # atno 17320 bound_to 7965
  146.1282  139.4312  143.0185 LP  0  0  0  0  0  0  0  0  0  0  0  0  # atno 17321 bound_to 7965
  139.9753  144.6466  150.7951 LP  0  0  0  0  0  0  0  0  0  0  0  0  # atno 17342 bound_to 10162
  140.7551  143.3040  151.3009 LP  0  0  0  0  0  0  0  0  0  0  0  0  # atno 17343 bound_to 10162
  157.0018  130.9924  151.3389 LP  0  0  0  0  0  0  0  0  0  0  0  0  # atno 17370 bound_to 10713
  157.5470  130.8157  149.8098 LP  0  0  0  0  0  0  0  0  0  0  0  0  # atno 17371 bound_to 10713
  140.3209  134.8008  157.4252 LP  0  0  0  0  0  0  0  0  0  0  0  0  # atno 17394 bound_to 11000
  140.1097  134.5361  155.8277 LP  0  0  0  0  0  0  0  0  0  0  0  0  # atno 17395 bound_to 11000

$$$$
