AV-unprocessed.smi:639|AV-procd|sdf|3149|dock3
  -GOLD-   22720 0 73D 1   1.00000     0.00000
 Structure written by MMmdl.
 23 24  0  0  0  0  0  0  0  0  2 V2000
  152.1620  145.0576  159.0989 C   0  0  0  0  0  0  0  0  0  0  0  0
  152.3388  143.6268  159.2239 N   0  0  0  0  0  0  0  0  0  0  0  0
  151.9401  142.6317  158.3585 C   0  0  0  0  0  0  0  0  0  0  0  0
  152.3265  141.4323  158.8936 C   0  0  0  0  0  0  0  0  0  0  0  0
  152.1436  140.0268  158.3475 C   0  0  2  0  0  0  0  0  0  0  0  0
  152.7183  138.9751  159.3164 C   0  0  0  0  0  0  0  0  0  0  0  0
  152.7313  139.8529  157.0265 N   0  5  0  0  0  0  0  0  0  0  0  0
  151.7436  139.5782  156.1415 C   0  0  0  0  0  0  0  0  0  0  0  0
  151.8493  139.3810  154.9331 O   0  0  0  0  0  0  0  0  0  0  0  0
  150.5579  139.5369  156.7565 N   0  0  0  0  0  0  0  0  0  0  0  0
  150.6707  139.7696  158.0605 C   0  0  0  0  0  0  0  0  0  0  0  0
  149.7659  139.7757  158.8951 O   0  0  0  0  0  0  0  0  0  0  0  0
  152.9675  141.8190  160.1083 C   0  0  0  0  0  0  0  0  0  0  0  0
  152.9712  143.1275  160.3041 N   0  0  0  0  0  0  0  0  0  0  0  0
  151.6231  145.2886  158.1796 H   0  0  0  0  0  0  0  0  0  0  0  0
  153.1354  145.5482  159.0717 H   0  0  0  0  0  0  0  0  0  0  0  0
  151.5922  145.4353  159.9483 H   0  0  0  0  0  0  0  0  0  0  0  0
  151.4190  142.8543  157.4388 H   0  0  0  0  0  0  0  0  0  0  0  0
  152.2441  139.0329  160.2969 H   0  0  0  0  0  0  0  0  0  0  0  0
  153.7893  139.1208  159.4625 H   0  0  0  0  0  0  0  0  0  0  0  0
  152.5737  137.9600  158.9433 H   0  0  0  0  0  0  0  0  0  0  0  0
  149.6860  139.3393  156.2889 H   0  0  0  0  0  0  0  0  0  0  0  0
  153.4275  141.1845  160.8514 H   0  0  0  0  0  0  0  0  0  0  0  0
  1  2  1  0  0  0  0
  1 15  1  0  0  0  0
  1 16  1  0  0  0  0
  1 17  1  0  0  0  0
  2 14  1  0  0  0  0
  2  3  1  0  0  0  0
  3  4  2  0  0  0  0
  3 18  1  0  0  0  0
  4  5  1  0  0  0  0
  4 13  1  0  0  0  0
  5 11  1  0  0  0  0
  5  6  1  0  0  0  0
  5  7  1  0  0  0  0
  6 19  1  0  0  0  0
  6 20  1  0  0  0  0
  6 21  1  0  0  0  0
  7  8  1  0  0  0  0
  8  9  2  0  0  0  0
  8 10  1  0  0  0  0
 10 11  1  0  0  0  0
 10 22  1  0  0  0  0
 11 12  2  0  0  0  0
 13 14  2  0  0  0  0
 13 23  1  0  0  0  0
M  CHG  1   7  -1
M  END
> <s_m_source_file>
AV-unprocessed.smi

> <i_m_source_file_index>
639

> <i_lp_mmshare_version>
43012

> <i_f3d_flags>
0

> <s_epik_input>
W0NIM11uMVtjSF1jKFtjSF1uMSlbQ0BAXTIoW0NIM10pW05IXUMoPU8pW05IXUMyPU8=

> <s_epik_cmdline>
J2VwaWtfcHl0aG9uJywgJy1waCcsICc3LjAnLCAnLXRuJywgJzgnLCAnLW1hJywgJzIwMCcsICctbWV0YWxfYmluZGluZycsICctaW1hZScsICc8aW5maWxlLm1hZT4nLCAnLW9tYWUnLCAnPG91dGZpbGUubWFlPic=

> <r_lp_tautomer_probability>
1

> <r_epik_Ionization_Penalty>
4.83415

> <r_epik_Ionization_Penalty_Charging>
4.8337

> <r_epik_Ionization_Penalty_Neutral>
0.000449923

> <r_epik_State_Penalty>
4.85653

> <r_epik_Charging_Adjusted_Penalty>
9.69023

> <i_epik_Tot_Q>
-1

> <i_epik_Tot_abs_Q>
1

> <r_epik_Metal_State_Penalty>
1.31841

> <b_epik_Metal_Only>
1

> <s_lp_Force_Field>
OPLS_2005

> <r_lp_Energy>
8.78459

> <b_lp_Chiralities_Consistent>
1

> <s_lp_Variant>
AV-unprocessed.smi:639-6

> <Gold.Version>
5.8.1

> <Gold.Id.Protein>
6NUR|6NUR_protein|mol2

> <Gold.PLP.Fitness>
35.7619

> <Gold.PLP.PLP>
-26.7995

> <Gold.PLP.part.hbond>
-2.7593

> <Gold.PLP.part.metal>
0.0000

> <Gold.PLP.part.buried>
-2.1059

> <Gold.PLP.part.nonpolar>
-21.4737

> <Gold.PLP.part.repulsive>
0.0812

> <Gold.PLP.ligand.clash>
0.0000

> <Gold.PLP.ligand.torsion>
0.0357

> <Gold.PLP.Chemscore.Hbond>
2.9920

> <Gold.PLP.Chemscore.CHOScore>
0.0000

> <Gold.PLP.Chemscore.Metal>
0.0000

> <Gold.Chemscore.Hbonds>
donor molecule, donor type, donor heavy atom, donor atom, acceptor molecule, acceptor atom, score
      P1  H  7989  7998       L1     9  0.91
      P1  H  7997  8009       L1     7  1.92

> <Gold.PLP.Chemscore.Internal.Correction>
0.0578

> <Gold.Rescore>
     Score         DG    S(hbond)    S(metal)    S(lipo)     H(rot)  DE(clash)    DE(int)     intcor
     15.45     -15.49       1.97        0.00      51.18       1.00       0.00       0.03       ----

> <Gold.Chemscore.Fitness>
15.4543

> <Gold.Chemscore.DG>
-15.4889

> <Gold.Chemscore.ZeroCoef>
-5.4800

> <Gold.Chemscore.Hbond>
1.9703

> <Gold.Chemscore.Metal>
0.0000

> <Gold.Chemscore.Lipo>
51.1801

> <Gold.Chemscore.Internal_Hbond>
0.0000

> <Gold.Chemscore.DEClash>
0.0037

> <Gold.Chemscore.DEInternal>
0.0309

> <Gold.Chemscore.Rot>
1.0000

> <Gold.Chemscore.Internal.Correction>
   9.000000E+99

> <Gold.Chemscore.Hbonds>
donor molecule, donor type, donor heavy atom, donor atom, acceptor molecule, acceptor atom, score
      P1  H  7989  7998       L1     9  0.83
      P1  H  7997  8009       L1     7  0.85

> <Gold.Chemscore.Hbond.Weighted>
-6.5809

> <Gold.Chemscore.Metal.Weighted>
-0.0000

> <Gold.Chemscore.Lipo.Weighted>
-5.9881

> <Gold.Chemscore.Internal_Hbond.Weighted>
0.0000

> <Gold.Chemscore.DEClash.Weighted>
0.0037

> <Gold.Chemscore.DEInternal.Weighted>
0.0309

> <Gold.Chemscore.Rot.Weighted>
2.5600

> <Gold.Chemscore.Internal.Correction.Weighted>
   9.000000E+99

> <Gold.Protein.RotatedTorsions>
[ 6907 6896 6895 6894 ] final -119.68 input  -60.11 | X-H torsion
[ 7974 7965 7964 7962 ] final  133.55 input  175.53 | X-H torsion
[ 8008 7997 7996 7995 ] final -160.20 input   59.86 | X-H torsion
[ 10167 10162 10161 10158 ] final  103.92 input  -65.29 | X-H torsion
[ 10718 10713 10712 10709 ] final   98.16 input   66.30 | X-H torsion
[ 10763 10752 10751 10750 ] final  -43.13 input  -60.55 | X-H torsion
[ 11005 11000 10999 10996 ] final    0.81 input  -57.11 | X-H torsion

> <Gold.Protein.ActiveResidues>
 VAL166  LYS551  ARG553  GLY616  TRP617  ASP618  TYR619  PRO620  LYS621  CYS622 
 ASP623  PHE694  ASN695  SER759  ASP760  ASP761  ALA762  ILE779  LEU786  VAL792 
 PHE793  MET794  SER795  GLU796  ALA797  LYS798  CYS799  TRP800  GLU811  SER814 

> <Gold.Protein.RotatedAtoms>
  150.8326  133.8066  159.3092 H   0  0  0  0  0  0  0  0  0  0  0  0  # atno 6907 bound_to 6896
  151.5791  135.1057  160.0022 H   0  0  0  0  0  0  0  0  0  0  0  0  # atno 6908 bound_to 6896
  152.4403  133.7395  159.6689 H   0  0  0  0  0  0  0  0  0  0  0  0  # atno 6909 bound_to 6896
  144.9854  139.4461  143.5366 H   0  0  0  0  0  0  0  0  0  0  0  0  # atno 7974 bound_to 7965
  155.7739  140.0855  157.2094 H   0  0  0  0  0  0  0  0  0  0  0  0  # atno 8008 bound_to 7997
  154.3994  140.1520  156.3031 H   0  0  0  0  0  0  0  0  0  0  0  0  # atno 8009 bound_to 7997
  155.8720  140.3425  155.5830 H   0  0  0  0  0  0  0  0  0  0  0  0  # atno 8010 bound_to 7997
  139.7221  144.7056  151.0856 H   0  0  0  0  0  0  0  0  0  0  0  0  # atno 10167 bound_to 10162
  157.6900  131.0631  150.4754 H   0  0  0  0  0  0  0  0  0  0  0  0  # atno 10718 bound_to 10713
  153.9905  135.6706  153.4754 H   0  0  0  0  0  0  0  0  0  0  0  0  # atno 10763 bound_to 10752
  153.0707  135.4976  154.8294 H   0  0  0  0  0  0  0  0  0  0  0  0  # atno 10764 bound_to 10752
  154.7112  135.3097  154.9157 H   0  0  0  0  0  0  0  0  0  0  0  0  # atno 10765 bound_to 10752
  140.6224  133.9649  155.8232 H   0  0  0  0  0  0  0  0  0  0  0  0  # atno 11005 bound_to 11000
  146.3418  139.9152  142.8774 LP  0  0  0  0  0  0  0  0  0  0  0  0  # atno 17320 bound_to 7965
  145.2361  140.9992  143.3962 LP  0  0  0  0  0  0  0  0  0  0  0  0  # atno 17321 bound_to 7965
  140.7756  143.5152  150.9603 LP  0  0  0  0  0  0  0  0  0  0  0  0  # atno 17342 bound_to 10162
  139.8839  143.7037  152.3153 LP  0  0  0  0  0  0  0  0  0  0  0  0  # atno 17343 bound_to 10162
  156.5089  130.4134  149.6312 LP  0  0  0  0  0  0  0  0  0  0  0  0  # atno 17370 bound_to 10713
  156.3259  130.7305  151.2226 LP  0  0  0  0  0  0  0  0  0  0  0  0  # atno 17371 bound_to 10713
  141.0733  134.0173  157.3495 LP  0  0  0  0  0  0  0  0  0  0  0  0  # atno 17394 bound_to 11000
  139.9148  135.0195  156.7837 LP  0  0  0  0  0  0  0  0  0  0  0  0  # atno 17395 bound_to 11000

$$$$
