AV-unprocessed.smi:148|AV-procd|sdf|1211|dock1
  -GOLD-   2262018383D 1   1.00000     0.00000
 Structure written by MMmdl.
 63 67  0  0  0  0  0  0  0  0  1 V2000
  146.9854  142.0102  154.3202 O   0  0  0  0  0  0  0  0  0  0  0  0
  148.2485  141.4243  154.0833 C   0  0  0  0  0  0  0  0  0  0  0  0
  148.1904  139.8942  154.3041 C   0  0  1  0  0  0  0  0  0  0  0  0
  147.7964  139.5736  155.7675 C   0  0  0  0  0  0  0  0  0  0  0  0
  148.7811  140.0146  156.7394 N   0  0  0  0  0  0  0  0  0  0  0  0
  148.5335  140.5519  157.9825 C   0  0  0  0  0  0  0  0  0  0  0  0
  149.5951  140.8698  158.6717 N   0  0  0  0  0  0  0  0  0  0  0  0
  150.6538  140.5334  157.8366 C   0  0  0  0  0  0  0  0  0  0  0  0
  152.0712  140.6119  157.9435 C   0  0  0  0  0  0  0  0  0  0  0  0
  152.7381  141.0912  159.0172 N   0  0  0  0  0  0  0  0  0  0  0  0
  153.4403  140.0024  159.6959 C   0  0  0  0  0  0  0  0  0  0  0  0
  154.4091  140.5381  160.7569 C   0  0  0  0  0  0  0  0  0  0  0  0
  153.6651  141.4402  161.7459 C   0  0  0  0  0  0  0  0  0  0  0  0
  152.9548  142.5714  160.9904 C   0  0  0  0  0  0  0  0  0  0  0  0
  152.0035  142.0264  159.8905 C   0  0  1  0  0  0  0  0  0  0  0  0
  151.2668  143.1546  159.0903 C   0  0  2  0  0  0  0  0  0  0  0  0
  152.1616  143.8745  158.0541 C   0  0  0  0  0  0  0  0  0  0  0  0
  152.1132  145.3747  158.3781 C   0  0  0  0  0  0  0  0  0  0  0  0
  151.6063  145.4676  159.8162 C   0  0  0  0  0  0  0  0  0  0  0  0
  150.6347  144.2938  159.9206 C   0  0  2  0  0  0  0  0  0  0  0  0
  150.3033  143.9595  161.2534 O   0  0  0  0  0  0  0  0  0  0  0  0
  152.8149  140.1676  156.9010 N   0  0  0  0  0  0  0  0  0  0  0  0
  152.2129  139.6866  155.8091 C   0  0  0  0  0  0  0  0  0  0  0  0
  150.9069  139.5589  155.5629 N   0  0  0  0  0  0  0  0  0  0  0  0
  150.1586  139.9964  156.6160 C   0  0  0  0  0  0  0  0  0  0  0  0
  147.2990  139.1521  153.2692 C   0  0  2  0  0  0  0  0  0  0  0  0
  147.0182  137.6802  153.5783 C   0  0  0  0  0  0  0  0  0  0  0  0
  147.4377  136.9448  152.3067 C   0  0  0  0  0  0  0  0  0  0  0  0
  147.3093  137.9268  151.2919 O   0  0  0  0  0  0  0  0  0  0  0  0
  147.8304  139.1313  151.8286 C   0  0  0  0  0  0  0  0  0  0  0  0
  146.5225  141.4834  154.9536 H   0  0  0  0  0  0  0  0  0  0  0  0
  148.5602  141.6662  153.0675 H   0  0  0  0  0  0  0  0  0  0  0  0
  148.9606  141.9013  154.7550 H   0  0  0  0  0  0  0  0  0  0  0  0
  149.2014  139.5130  154.1510 H   0  0  0  0  0  0  0  0  0  0  0  0
  146.8479  140.0482  156.0212 H   0  0  0  0  0  0  0  0  0  0  0  0
  147.6457  138.5006  155.8918 H   0  0  0  0  0  0  0  0  0  0  0  0
  147.5345  140.6953  158.3683 H   0  0  0  0  0  0  0  0  0  0  0  0
  152.7126  139.3379  160.1644 H   0  0  0  0  0  0  0  0  0  0  0  0
  153.9936  139.4053  158.9692 H   0  0  0  0  0  0  0  0  0  0  0  0
  154.8817  139.7097  161.2849 H   0  0  0  0  0  0  0  0  0  0  0  0
  155.2097  141.0999  160.2740 H   0  0  0  0  0  0  0  0  0  0  0  0
  152.9351  140.8540  162.3054 H   0  0  0  0  0  0  0  0  0  0  0  0
  154.3611  141.8541  162.4758 H   0  0  0  0  0  0  0  0  0  0  0  0
  152.4080  143.1729  161.7141 H   0  0  0  0  0  0  0  0  0  0  0  0
  153.7084  143.2280  160.5568 H   0  0  0  0  0  0  0  0  0  0  0  0
  151.2411  141.4376  160.4009 H   0  0  0  0  0  0  0  0  0  0  0  0
  150.4327  142.6970  158.5578 H   0  0  0  0  0  0  0  0  0  0  0  0
  153.1896  143.5160  158.0908 H   0  0  0  0  0  0  0  0  0  0  0  0
  151.8113  143.6888  157.0380 H   0  0  0  0  0  0  0  0  0  0  0  0
  153.0803  145.8608  158.2474 H   0  0  0  0  0  0  0  0  0  0  0  0
  151.4051  145.8678  157.7109 H   0  0  0  0  0  0  0  0  0  0  0  0
  152.4384  145.3480  160.5098 H   0  0  0  0  0  0  0  0  0  0  0  0
  151.1312  146.4253  160.0307 H   0  0  0  0  0  0  0  0  0  0  0  0
  149.7058  144.5926  159.4314 H   0  0  0  0  0  0  0  0  0  0  0  0
  150.5945  143.0768  161.4229 H   0  0  0  0  0  0  0  0  0  0  0  0
  152.8719  139.3559  155.0198 H   0  0  0  0  0  0  0  0  0  0  0  0
  146.3205  139.6327  153.2443 H   0  0  0  0  0  0  0  0  0  0  0  0
  147.5368  137.3009  154.4584 H   0  0  0  0  0  0  0  0  0  0  0  0
  145.9506  137.5400  153.7533 H   0  0  0  0  0  0  0  0  0  0  0  0
  148.4789  136.6242  152.3717 H   0  0  0  0  0  0  0  0  0  0  0  0
  146.8214  136.0691  152.1025 H   0  0  0  0  0  0  0  0  0  0  0  0
  147.5053  139.9966  151.2508 H   0  0  0  0  0  0  0  0  0  0  0  0
  148.9185  139.0886  151.7872 H   0  0  0  0  0  0  0  0  0  0  0  0
  1  2  1  0  0  0  0
  1 31  1  0  0  0  0
  2  3  1  0  0  0  0
  2 32  1  0  0  0  0
  2 33  1  0  0  0  0
  3  4  1  0  0  0  0
  3 26  1  0  0  0  0
  3 34  1  0  0  0  0
  4  5  1  0  0  0  0
  4 35  1  0  0  0  0
  4 36  1  0  0  0  0
  5 25  1  0  0  0  0
  5  6  1  0  0  0  0
  6  7  2  0  0  0  0
  6 37  1  0  0  0  0
  7  8  1  0  0  0  0
  8 25  2  0  0  0  0
  8  9  1  0  0  0  0
  9 10  1  0  0  0  0
  9 22  2  0  0  0  0
 10 15  1  0  0  0  0
 10 11  1  0  0  0  0
 11 12  1  0  0  0  0
 11 38  1  0  0  0  0
 11 39  1  0  0  0  0
 12 13  1  0  0  0  0
 12 40  1  0  0  0  0
 12 41  1  0  0  0  0
 13 14  1  0  0  0  0
 13 42  1  0  0  0  0
 13 43  1  0  0  0  0
 14 15  1  0  0  0  0
 14 44  1  0  0  0  0
 14 45  1  0  0  0  0
 15 16  1  0  0  0  0
 15 46  1  0  0  0  0
 16 20  1  0  0  0  0
 16 17  1  0  0  0  0
 16 47  1  0  0  0  0
 17 18  1  0  0  0  0
 17 48  1  0  0  0  0
 17 49  1  0  0  0  0
 18 19  1  0  0  0  0
 18 50  1  0  0  0  0
 18 51  1  0  0  0  0
 19 20  1  0  0  0  0
 19 52  1  0  0  0  0
 19 53  1  0  0  0  0
 20 21  1  0  0  0  0
 20 54  1  0  0  0  0
 21 55  1  0  0  0  0
 22 23  1  0  0  0  0
 23 24  2  0  0  0  0
 23 56  1  0  0  0  0
 24 25  1  0  0  0  0
 26 30  1  0  0  0  0
 26 27  1  0  0  0  0
 26 57  1  0  0  0  0
 27 28  1  0  0  0  0
 27 58  1  0  0  0  0
 27 59  1  0  0  0  0
 28 29  1  0  0  0  0
 28 60  1  0  0  0  0
 28 61  1  0  0  0  0
 29 30  1  0  0  0  0
 30 62  1  0  0  0  0
 30 63  1  0  0  0  0
M  END
> <s_m_source_file>
AV-unprocessed.smi

> <i_m_source_file_index>
148

> <i_lp_mmshare_version>
43012

> <i_f3d_flags>
0

> <s_epik_input>
W0NIMl0xT1tDSDJdW0NIMl1bQ0BIXTFbQ0BIXShbQ0gyXVtPSF0pW0NIMl1uKFtjSF1uMiljKGMyMyluW2NIXW5jM040W0NIMl1bQ0gyXVtDSDJdW0NIMl1bQ0BIXTRbQ0BASF01W0NIMl1bQ0gyXVtDSDJdW0NASF01W09IXQ==

> <s_epik_cmdline>
J2VwaWtfcHl0aG9uJywgJy1waCcsICc3LjAnLCAnLXRuJywgJzgnLCAnLW1hJywgJzIwMCcsICctbWV0YWxfYmluZGluZycsICctaW1hZScsICc8aW5maWxlLm1hZT4nLCAnLW9tYWUnLCAnPG91dGZpbGUubWFlPic=

> <r_lp_tautomer_probability>
1

> <r_epik_Ionization_Penalty>
0.00556303

> <r_epik_Ionization_Penalty_Charging>
0

> <r_epik_Ionization_Penalty_Neutral>
0.00556303

> <r_epik_State_Penalty>
0.00401767

> <r_epik_Charging_Adjusted_Penalty>
0.00401767

> <i_epik_Tot_Q>
0

> <i_epik_Tot_abs_Q>
0

> <r_epik_Metal_State_Penalty>
-0

> <b_epik_Metal_Only>
0

> <s_lp_Force_Field>
OPLS_2005

> <r_lp_Energy>
71.509

> <b_lp_Chiralities_Consistent>
1

> <s_lp_Variant>
AV-unprocessed.smi:148-10

> <Gold.Version>
5.8.1

> <Gold.Id.Protein>
6NUR|6NUR_protein|mol2

> <Gold.PLP.Fitness>
51.6749

> <Gold.PLP.PLP>
-48.7564

> <Gold.PLP.part.hbond>
-5.5537

> <Gold.PLP.part.metal>
0.0000

> <Gold.PLP.part.buried>
3.4475

> <Gold.PLP.part.nonpolar>
-46.4340

> <Gold.PLP.part.repulsive>
0.4141

> <Gold.PLP.ligand.clash>
1.0127

> <Gold.PLP.ligand.torsion>
1.0889

> <Gold.PLP.Chemscore.Hbond>
1.8613

> <Gold.PLP.Chemscore.CHOScore>
0.0000

> <Gold.PLP.Chemscore.Metal>
0.0000

> <Gold.Chemscore.Hbonds>
donor molecule, donor type, donor heavy atom, donor atom, acceptor molecule, acceptor atom, score
      P1  H  7954  7966       L1    29  0.95
      P1  H  7997  8009       L1    22  1.00

> <Gold.PLP.Chemscore.Internal.Correction>
0.5252

> <Gold.Rescore>
     Score         DG    S(hbond)    S(metal)    S(lipo)     H(rot)  DE(clash)    DE(int)     intcor
      6.52     -17.33       0.81        0.00     150.82       3.32       4.59       6.23       ----

> <Gold.Chemscore.Fitness>
6.5156

> <Gold.Chemscore.DG>
-17.3334

> <Gold.Chemscore.ZeroCoef>
-5.4800

> <Gold.Chemscore.Hbond>
0.8106

> <Gold.Chemscore.Metal>
0.0000

> <Gold.Chemscore.Lipo>
150.8198

> <Gold.Chemscore.Internal_Hbond>
0.0000

> <Gold.Chemscore.DEClash>
4.5851

> <Gold.Chemscore.DEInternal>
6.2327

> <Gold.Chemscore.Rot>
3.3203

> <Gold.Chemscore.Internal.Correction>
   9.000000E+99

> <Gold.Chemscore.Hbonds>
donor molecule, donor type, donor heavy atom, donor atom, acceptor molecule, acceptor atom, score
      P1  H  7954  7966       L1    29  0.21
      P1  H  7997  8009       L1    22  0.47

> <Gold.Chemscore.Hbond.Weighted>
-2.7075

> <Gold.Chemscore.Metal.Weighted>
-0.0000

> <Gold.Chemscore.Lipo.Weighted>
-17.6459

> <Gold.Chemscore.Internal_Hbond.Weighted>
0.0000

> <Gold.Chemscore.DEClash.Weighted>
4.5851

> <Gold.Chemscore.DEInternal.Weighted>
6.2327

> <Gold.Chemscore.Rot.Weighted>
8.5000

> <Gold.Chemscore.Internal.Correction.Weighted>
   9.000000E+99

> <Gold.Protein.RotatedTorsions>
[ 6907 6896 6895 6894 ] final  153.74 input  -60.11 | X-H torsion
[ 7974 7965 7964 7962 ] final -151.53 input  175.53 | X-H torsion
[ 8008 7997 7996 7995 ] final -174.96 input   59.86 | X-H torsion
[ 10167 10162 10161 10158 ] final  -39.98 input  -65.29 | X-H torsion
[ 10718 10713 10712 10709 ] final  -81.82 input   66.30 | X-H torsion
[ 10763 10752 10751 10750 ] final   -4.91 input  -60.55 | X-H torsion
[ 11005 11000 10999 10996 ] final  149.65 input  -57.11 | X-H torsion

> <Gold.Protein.ActiveResidues>
 VAL166  LYS551  ARG553  GLY616  TRP617  ASP618  TYR619  PRO620  LYS621  CYS622 
 ASP623  PHE694  ASN695  SER759  ASP760  ASP761  ALA762  ILE779  LEU786  VAL792 
 PHE793  MET794  SER795  GLU796  ALA797  LYS798  CYS799  TRP800  GLU811  SER814 

> <Gold.Protein.RotatedAtoms>
  152.0683  133.4094  159.4447 H   0  0  0  0  0  0  0  0  0  0  0  0  # atno 6907 bound_to 6896
  150.6864  134.3121  159.4760 H   0  0  0  0  0  0  0  0  0  0  0  0  # atno 6908 bound_to 6896
  152.0949  134.9381  160.0621 H   0  0  0  0  0  0  0  0  0  0  0  0  # atno 6909 bound_to 6896
  144.7845  140.4785  143.5816 H   0  0  0  0  0  0  0  0  0  0  0  0  # atno 7974 bound_to 7965
  155.9766  140.1173  157.0765 H   0  0  0  0  0  0  0  0  0  0  0  0  # atno 8008 bound_to 7997
  154.4171  140.1153  156.5446 H   0  0  0  0  0  0  0  0  0  0  0  0  # atno 8009 bound_to 7997
  155.6527  140.3473  155.4756 H   0  0  0  0  0  0  0  0  0  0  0  0  # atno 8010 bound_to 7997
  140.7048  143.3181  151.2859 H   0  0  0  0  0  0  0  0  0  0  0  0  # atno 10167 bound_to 10162
  156.0043  130.4615  150.4011 H   0  0  0  0  0  0  0  0  0  0  0  0  # atno 10718 bound_to 10713
  153.3913  135.7002  153.6492 H   0  0  0  0  0  0  0  0  0  0  0  0  # atno 10763 bound_to 10752
  153.5063  135.3641  155.2565 H   0  0  0  0  0  0  0  0  0  0  0  0  # atno 10764 bound_to 10752
  154.8702  135.4124  154.3231 H   0  0  0  0  0  0  0  0  0  0  0  0  # atno 10765 bound_to 10752
  140.1063  134.8952  157.1870 H   0  0  0  0  0  0  0  0  0  0  0  0  # atno 11005 bound_to 11000
  145.5960  139.1499  143.3156 LP  0  0  0  0  0  0  0  0  0  0  0  0  # atno 17320 bound_to 7965
  146.2070  140.6083  142.9077 LP  0  0  0  0  0  0  0  0  0  0  0  0  # atno 17321 bound_to 7965
  139.6626  144.0162  152.2702 LP  0  0  0  0  0  0  0  0  0  0  0  0  # atno 17342 bound_to 10162
  139.9734  144.6478  150.7967 LP  0  0  0  0  0  0  0  0  0  0  0  0  # atno 17343 bound_to 10162
  157.2080  131.0454  151.2614 LP  0  0  0  0  0  0  0  0  0  0  0  0  # atno 17370 bound_to 10713
  157.3915  130.7284  149.6701 LP  0  0  0  0  0  0  0  0  0  0  0  0  # atno 17371 bound_to 10713
  140.3152  134.2979  155.7258 LP  0  0  0  0  0  0  0  0  0  0  0  0  # atno 17394 bound_to 11000
  141.2119  133.7675  156.9832 LP  0  0  0  0  0  0  0  0  0  0  0  0  # atno 17395 bound_to 11000

$$$$
