AV-unprocessed.smi:2855|AV-procd|sdf|10991|dock3
  -GOLD-   2272015443D 1   1.00000     0.00000
 Structure written by MMmdl.
 46 47  0  0  0  0  0  0  0  0  2 V2000
  150.7499  138.6745  155.2470 C   0  0  0  0  0  0  0  0  0  0  0  0
  149.6948  139.3059  154.3280 C   0  0  2  0  0  0  0  0  0  0  0  0
  149.4099  140.7705  154.7185 C   0  0  0  0  0  0  0  0  0  0  0  0
  148.2950  141.3877  153.8529 C   0  0  0  0  0  0  0  0  0  0  0  0
  146.9769  140.5762  153.9328 C   0  0  2  0  0  0  0  0  0  0  0  0
  146.2766  140.6732  155.3345 C   0  0  0  0  0  0  0  0  0  0  0  0
  144.9488  139.8957  155.4306 C   0  0  0  0  0  0  0  0  0  0  0  0
  146.0039  142.1320  155.7542 C   0  0  0  0  0  0  0  0  0  0  0  0
  147.3263  139.1446  153.4203 C   0  0  2  0  0  0  0  0  0  0  0  0
  146.1778  138.2630  153.2344 N   0  0  0  0  0  0  0  0  0  0  0  0
  145.8030  137.7014  152.0747 C   0  0  0  0  0  0  0  0  0  0  0  0
  146.4092  137.8730  151.0160 O   0  0  0  0  0  0  0  0  0  0  0  0
  144.5350  136.8380  152.1370 C   0  0  0  0  0  0  0  0  0  0  0  0
  144.7411  135.4546  151.6791 N   0  0  0  0  0  0  0  0  0  0  0  0
  145.9683  135.1499  151.0642 C   0  0  0  0  0  0  0  0  0  0  0  0
  146.2505  133.9117  150.6163 C   0  0  0  0  0  0  0  0  0  0  0  0
  145.2431  132.8714  150.7827 C   0  0  0  0  0  0  0  0  0  0  0  0
  145.4807  131.7367  150.3733 O   0  0  0  0  0  0  0  0  0  0  0  0
  144.0706  133.2150  151.3923 N   0  5  0  0  0  0  0  0  0  0  0  0
  143.7991  134.4779  151.8466 C   0  0  0  0  0  0  0  0  0  0  0  0
  142.7363  134.7651  152.3986 O   0  0  0  0  0  0  0  0  0  0  0  0
  148.3965  138.4737  154.3021 C   0  0  0  0  0  0  0  0  0  0  0  0
  150.4081  138.6472  156.2822 H   0  0  0  0  0  0  0  0  0  0  0  0
  151.6826  139.2382  155.2193 H   0  0  0  0  0  0  0  0  0  0  0  0
  150.9735  137.6516  154.9433 H   0  0  0  0  0  0  0  0  0  0  0  0
  150.1031  139.3089  153.3161 H   0  0  0  0  0  0  0  0  0  0  0  0
  149.1359  140.8295  155.7720 H   0  0  0  0  0  0  0  0  0  0  0  0
  150.3197  141.3618  154.6107 H   0  0  0  0  0  0  0  0  0  0  0  0
  148.1446  142.4334  154.1150 H   0  0  0  0  0  0  0  0  0  0  0  0
  148.6343  141.4131  152.8163 H   0  0  0  0  0  0  0  0  0  0  0  0
  146.2942  141.0279  153.2119 H   0  0  0  0  0  0  0  0  0  0  0  0
  146.9388  140.2543  156.0914 H   0  0  0  0  0  0  0  0  0  0  0  0
  144.2880  140.1293  154.5952 H   0  0  0  0  0  0  0  0  0  0  0  0
  144.4126  140.1348  156.3494 H   0  0  0  0  0  0  0  0  0  0  0  0
  145.1074  138.8190  155.4543 H   0  0  0  0  0  0  0  0  0  0  0  0
  145.4358  142.6653  154.9913 H   0  0  0  0  0  0  0  0  0  0  0  0
  146.9247  142.6832  155.9406 H   0  0  0  0  0  0  0  0  0  0  0  0
  145.4338  142.1786  156.6824 H   0  0  0  0  0  0  0  0  0  0  0  0
  147.7708  139.2504  152.4282 H   0  0  0  0  0  0  0  0  0  0  0  0
  145.6207  138.0656  154.0529 H   0  0  0  0  0  0  0  0  0  0  0  0
  144.1464  136.8492  153.1569 H   0  0  0  0  0  0  0  0  0  0  0  0
  143.7639  137.3189  151.5332 H   0  0  0  0  0  0  0  0  0  0  0  0
  146.6608  135.9753  150.9871 H   0  0  0  0  0  0  0  0  0  0  0  0
  147.1998  133.6930  150.1496 H   0  0  0  0  0  0  0  0  0  0  0  0
  148.6173  137.4777  153.9157 H   0  0  0  0  0  0  0  0  0  0  0  0
  148.0186  138.3280  155.3143 H   0  0  0  0  0  0  0  0  0  0  0  0
  1  2  1  0  0  0  0
  1 23  1  0  0  0  0
  1 24  1  0  0  0  0
  1 25  1  0  0  0  0
  2 22  1  0  0  0  0
  2  3  1  0  0  0  0
  2 26  1  0  0  0  0
  3  4  1  0  0  0  0
  3 27  1  0  0  0  0
  3 28  1  0  0  0  0
  4  5  1  0  0  0  0
  4 29  1  0  0  0  0
  4 30  1  0  0  0  0
  5  6  1  0  0  0  0
  5  9  1  0  0  0  0
  5 31  1  0  0  0  0
  6  7  1  0  0  0  0
  6  8  1  0  0  0  0
  6 32  1  0  0  0  0
  7 33  1  0  0  0  0
  7 34  1  0  0  0  0
  7 35  1  0  0  0  0
  8 36  1  0  0  0  0
  8 37  1  0  0  0  0
  8 38  1  0  0  0  0
  9 10  1  0  0  0  0
  9 22  1  0  0  0  0
  9 39  1  0  0  0  0
 10 11  1  0  0  0  0
 10 40  1  0  0  0  0
 11 12  2  0  0  0  0
 11 13  1  0  0  0  0
 13 14  1  0  0  0  0
 13 41  1  0  0  0  0
 13 42  1  0  0  0  0
 14 20  1  0  0  0  0
 14 15  1  0  0  0  0
 15 16  2  0  0  0  0
 15 43  1  0  0  0  0
 16 17  1  0  0  0  0
 16 44  1  0  0  0  0
 17 18  2  0  0  0  0
 17 19  1  0  0  0  0
 19 20  1  0  0  0  0
 20 21  2  0  0  0  0
 22 45  1  0  0  0  0
 22 46  1  0  0  0  0
M  CHG  1  19  -1
M  END
> <s_m_source_file>
AV-unprocessed.smi

> <i_m_source_file_index>
2855

> <i_lp_mmshare_version>
43012

> <i_f3d_flags>
0

> <s_epik_input>
W0NIM11bQ0BASF0xW0NIMl1bQ0gyXVtDQEBIXShbQ0hdKFtDSDNdKVtDSDNdKVtDQEhdKFtDSDJdMSlbTkhdQyg9TylbQ0gyXW4yW2NIXVtjSF1jKD1PKVtuSF1jMj1P

> <s_epik_cmdline>
J2VwaWtfcHl0aG9uJywgJy1waCcsICc3LjAnLCAnLXRuJywgJzgnLCAnLW1hJywgJzIwMCcsICctbWV0YWxfYmluZGluZycsICctaW1hZScsICc8aW5maWxlLm1hZT4nLCAnLW9tYWUnLCAnPG91dGZpbGUubWFlPic=

> <r_lp_tautomer_probability>
0.999537

> <r_epik_Ionization_Penalty>
3.12102

> <r_epik_Ionization_Penalty_Charging>
2.9581e-08

> <r_epik_Ionization_Penalty_Neutral>
3.12102

> <r_epik_State_Penalty>
3.12011

> <r_epik_Charging_Adjusted_Penalty>
3.12011

> <i_epik_Tot_Q>
-1

> <i_epik_Tot_abs_Q>
1

> <r_epik_Metal_State_Penalty>
0.463583

> <b_epik_Metal_Only>
1

> <s_lp_Force_Field>
OPLS_2005

> <r_lp_Energy>
28.6833

> <b_lp_Chiralities_Consistent>
1

> <s_lp_Variant>
AV-unprocessed.smi:2855-15

> <Gold.Version>
5.8.1

> <Gold.Id.Protein>
6NUR|6NUR_protein|mol2

> <Gold.PLP.Fitness>
36.9645

> <Gold.PLP.PLP>
-31.1575

> <Gold.PLP.part.hbond>
-1.0000

> <Gold.PLP.part.metal>
0.0000

> <Gold.PLP.part.buried>
-3.6308

> <Gold.PLP.part.nonpolar>
-29.1329

> <Gold.PLP.part.repulsive>
2.6623

> <Gold.PLP.ligand.clash>
0.0282

> <Gold.PLP.ligand.torsion>
0.1281

> <Gold.PLP.Chemscore.Hbond>
1.0000

> <Gold.PLP.Chemscore.CHOScore>
1.0000

> <Gold.PLP.Chemscore.Metal>
0.0000

> <Gold.Chemscore.Hbonds>
donor molecule, donor type, donor heavy atom, donor atom, acceptor molecule, acceptor atom, score
      P1  H  7954  7966       L1    12  0.88
      L1  C    15    43       P1  7948  1.00

> <Gold.PLP.Chemscore.Internal.Correction>
0.0915

> <Gold.Rescore>
     Score         DG    S(hbond)    S(metal)    S(lipo)     H(rot)  DE(clash)    DE(int)     intcor
      9.18     -12.19       0.99        0.00      68.64       1.81       1.20       1.81       ----

> <Gold.Chemscore.Fitness>
9.1752

> <Gold.Chemscore.DG>
-12.1858

> <Gold.Chemscore.ZeroCoef>
-5.4800

> <Gold.Chemscore.Hbond>
0.9906

> <Gold.Chemscore.Metal>
0.0000

> <Gold.Chemscore.Lipo>
68.6390

> <Gold.Chemscore.Internal_Hbond>
0.0000

> <Gold.Chemscore.DEClash>
1.2010

> <Gold.Chemscore.DEInternal>
1.8097

> <Gold.Chemscore.Rot>
1.8100

> <Gold.Chemscore.Internal.Correction>
   9.000000E+99

> <Gold.Chemscore.Hbonds>
donor molecule, donor type, donor heavy atom, donor atom, acceptor molecule, acceptor atom, score
      P1  H  7954  7966       L1    12  0.85

> <Gold.Chemscore.Hbond.Weighted>
-3.3086

> <Gold.Chemscore.Metal.Weighted>
-0.0000

> <Gold.Chemscore.Lipo.Weighted>
-8.0308

> <Gold.Chemscore.Internal_Hbond.Weighted>
0.0000

> <Gold.Chemscore.DEClash.Weighted>
1.2010

> <Gold.Chemscore.DEInternal.Weighted>
1.8097

> <Gold.Chemscore.Rot.Weighted>
4.6335

> <Gold.Chemscore.Internal.Correction.Weighted>
   9.000000E+99

> <Gold.Protein.RotatedTorsions>
[ 6907 6896 6895 6894 ] final  -53.08 input  -60.11 | X-H torsion
[ 7974 7965 7964 7962 ] final  118.45 input  175.53 | X-H torsion
[ 8008 7997 7996 7995 ] final  -69.84 input   59.86 | X-H torsion
[ 10167 10162 10161 10158 ] final   -1.68 input  -65.29 | X-H torsion
[ 10718 10713 10712 10709 ] final -117.80 input   66.30 | X-H torsion
[ 10763 10752 10751 10750 ] final  174.19 input  -60.55 | X-H torsion
[ 11005 11000 10999 10996 ] final  125.48 input  -57.11 | X-H torsion

> <Gold.Protein.ActiveResidues>
 VAL166  LYS551  ARG553  GLY616  TRP617  ASP618  TYR619  PRO620  LYS621  CYS622 
 ASP623  PHE694  ASN695  SER759  ASP760  ASP761  ALA762  ILE779  LEU786  VAL792 
 PHE793  MET794  SER795  GLU796  ALA797  LYS798  CYS799  TRP800  GLU811  SER814 

> <Gold.Protein.RotatedAtoms>
  150.8459  134.7768  159.6969 H   0  0  0  0  0  0  0  0  0  0  0  0  # atno 6907 bound_to 6896
  152.4536  134.5337  159.9828 H   0  0  0  0  0  0  0  0  0  0  0  0  # atno 6908 bound_to 6896
  151.5467  133.3386  159.2981 H   0  0  0  0  0  0  0  0  0  0  0  0  # atno 6909 bound_to 6896
  145.1551  139.3187  143.4546 H   0  0  0  0  0  0  0  0  0  0  0  0  # atno 7974 bound_to 7965
  154.4968  140.0846  156.7713 H   0  0  0  0  0  0  0  0  0  0  0  0  # atno 8008 bound_to 7997
  155.4098  140.3441  155.4244 H   0  0  0  0  0  0  0  0  0  0  0  0  # atno 8009 bound_to 7997
  156.1404  140.1527  156.8917 H   0  0  0  0  0  0  0  0  0  0  0  0  # atno 8010 bound_to 7997
  140.6820  143.6746  150.8156 H   0  0  0  0  0  0  0  0  0  0  0  0  # atno 10167 bound_to 10162
  156.1060  130.6210  150.9210 H   0  0  0  0  0  0  0  0  0  0  0  0  # atno 10718 bound_to 10713
  154.4504  135.2764  155.1785 H   0  0  0  0  0  0  0  0  0  0  0  0  # atno 10763 bound_to 10752
  154.3614  135.6128  153.5696 H   0  0  0  0  0  0  0  0  0  0  0  0  # atno 10764 bound_to 10752
  152.9847  135.5835  154.4848 H   0  0  0  0  0  0  0  0  0  0  0  0  # atno 10765 bound_to 10752
  139.9409  134.9635  156.8565 H   0  0  0  0  0  0  0  0  0  0  0  0  # atno 11005 bound_to 11000
  146.3490  140.1640  142.8590 LP  0  0  0  0  0  0  0  0  0  0  0  0  # atno 17320 bound_to 7965
  145.0390  140.8930  143.5064 LP  0  0  0  0  0  0  0  0  0  0  0  0  # atno 17321 bound_to 7965
  140.0448  143.5309  152.2701 LP  0  0  0  0  0  0  0  0  0  0  0  0  # atno 17342 bound_to 10162
  139.6150  144.7617  151.2867 LP  0  0  0  0  0  0  0  0  0  0  0  0  # atno 17343 bound_to 10162
  157.6236  131.0927  150.8575 LP  0  0  0  0  0  0  0  0  0  0  0  0  # atno 17370 bound_to 10713
  156.8694  130.5141  149.5298 LP  0  0  0  0  0  0  0  0  0  0  0  0  # atno 17371 bound_to 10713
  140.5955  134.0221  155.7516 LP  0  0  0  0  0  0  0  0  0  0  0  0  # atno 17394 bound_to 11000
  141.1042  133.9719  157.3025 LP  0  0  0  0  0  0  0  0  0  0  0  0  # atno 17395 bound_to 11000

$$$$
