AV-unprocessed.smi:2735|AV-procd|sdf|10542|dock4
  -GOLD-   2272014593D 1   1.00000     0.00000
 Structure written by MMmdl.
 42 42  0  0  0  0  0  0  0  0  2 V2000
  154.0884  140.6799  161.2445 C   0  0  0  0  0  0  0  0  0  0  0  0
  153.2201  141.6398  160.4857 C   0  0  0  0  0  0  0  0  0  0  0  0
  153.0899  143.0435  160.6705 C   0  0  0  0  0  0  0  0  0  0  0  0
  152.1678  143.4234  159.7366 C   0  0  0  0  0  0  0  0  0  0  0  0
  151.5951  144.7745  159.4565 C   0  0  0  0  0  0  0  0  0  0  0  0
  151.8031  142.2834  159.0372 N   0  0  0  0  0  0  0  0  0  0  0  0
  150.8004  142.1329  157.9805 C   0  0  1  0  0  0  0  0  0  0  0  0
  151.0559  143.0927  156.7997 C   0  0  0  0  0  0  0  0  0  0  0  0
  150.7021  140.6588  157.5494 C   0  0  0  0  0  0  0  0  0  0  0  0
  150.3705  139.7828  158.3491 O   0  0  0  0  0  0  0  0  0  0  0  0
  150.9861  140.4091  156.2618 N   0  0  0  0  0  0  0  0  0  0  0  0
  150.8883  139.1168  155.5900 C   0  0  1  0  0  0  0  0  0  0  0  0
  150.0863  139.3025  154.2785 C   0  0  0  0  0  0  0  0  0  0  0  0
  148.6604  139.8794  154.4521 C   0  0  0  0  0  0  0  0  0  0  0  0
  147.6484  139.2650  153.4713 C   0  0  0  0  0  0  0  0  0  0  0  0
  148.6770  141.4096  154.3211 C   0  0  0  0  0  0  0  0  0  0  0  0
  152.2956  138.6117  155.2337 C   0  0  0  0  0  0  0  0  0  0  0  0
  152.5407  137.4081  155.4676 O   0  0  0  0  0  0  0  0  0  0  0  0
  153.1000  139.4279  154.7289 O   0  5  0  0  0  0  0  0  0  0  0  0
  152.4478  141.1912  159.5113 N   0  0  0  0  0  0  0  0  0  0  0  0
  150.3951  138.3850  156.2318 H   0  0  0  0  0  0  0  0  0  0  0  0
  154.3138  141.0598  162.2408 H   0  0  0  0  0  0  0  0  0  0  0  0
  155.0344  140.5170  160.7285 H   0  0  0  0  0  0  0  0  0  0  0  0
  153.6013  139.7115  161.3644 H   0  0  0  0  0  0  0  0  0  0  0  0
  153.5895  143.6755  161.3897 H   0  0  0  0  0  0  0  0  0  0  0  0
  152.0146  145.5219  160.1300 H   0  0  0  0  0  0  0  0  0  0  0  0
  150.5133  144.7757  159.5911 H   0  0  0  0  0  0  0  0  0  0  0  0
  151.8128  145.0855  158.4347 H   0  0  0  0  0  0  0  0  0  0  0  0
  149.8304  142.3999  158.4003 H   0  0  0  0  0  0  0  0  0  0  0  0
  150.2535  143.0324  156.0636 H   0  0  0  0  0  0  0  0  0  0  0  0
  151.9925  142.8704  156.2864 H   0  0  0  0  0  0  0  0  0  0  0  0
  151.1046  144.1263  157.1436 H   0  0  0  0  0  0  0  0  0  0  0  0
  151.2697  141.1877  155.6862 H   0  0  0  0  0  0  0  0  0  0  0  0
  150.6394  139.9618  153.6066 H   0  0  0  0  0  0  0  0  0  0  0  0
  150.0194  138.3431  153.7629 H   0  0  0  0  0  0  0  0  0  0  0  0
  148.3146  139.6573  155.4623 H   0  0  0  0  0  0  0  0  0  0  0  0
  147.9611  139.4087  152.4367 H   0  0  0  0  0  0  0  0  0  0  0  0
  146.6644  139.7201  153.5886 H   0  0  0  0  0  0  0  0  0  0  0  0
  147.5260  138.1952  153.6404 H   0  0  0  0  0  0  0  0  0  0  0  0
  149.0040  141.7191  153.3279 H   0  0  0  0  0  0  0  0  0  0  0  0
  149.3524  141.8594  155.0494 H   0  0  0  0  0  0  0  0  0  0  0  0
  147.6856  141.8302  154.4915 H   0  0  0  0  0  0  0  0  0  0  0  0
  1  2  1  0  0  0  0
  1 22  1  0  0  0  0
  1 23  1  0  0  0  0
  1 24  1  0  0  0  0
  2 20  2  0  0  0  0
  2  3  1  0  0  0  0
  3  4  2  0  0  0  0
  3 25  1  0  0  0  0
  4  5  1  0  0  0  0
  4  6  1  0  0  0  0
  5 26  1  0  0  0  0
  5 27  1  0  0  0  0
  5 28  1  0  0  0  0
  6  7  1  0  0  0  0
  6 20  1  0  0  0  0
  7  8  1  0  0  0  0
  7  9  1  0  0  0  0
  7 29  1  0  0  0  0
  8 30  1  0  0  0  0
  8 31  1  0  0  0  0
  8 32  1  0  0  0  0
  9 10  2  0  0  0  0
  9 11  1  0  0  0  0
 11 12  1  0  0  0  0
 11 33  1  0  0  0  0
 12 21  1  0  0  0  0
 12 13  1  0  0  0  0
 12 17  1  0  0  0  0
 13 14  1  0  0  0  0
 13 34  1  0  0  0  0
 13 35  1  0  0  0  0
 14 15  1  0  0  0  0
 14 16  1  0  0  0  0
 14 36  1  0  0  0  0
 15 37  1  0  0  0  0
 15 38  1  0  0  0  0
 15 39  1  0  0  0  0
 16 40  1  0  0  0  0
 16 41  1  0  0  0  0
 16 42  1  0  0  0  0
 17 18  2  0  0  0  0
 17 19  1  0  0  0  0
M  CHG  1  19  -1
M  END
> <s_m_source_file>
AV-unprocessed.smi

> <i_m_source_file_index>
2735

> <i_lp_mmshare_version>
43012

> <i_f3d_flags>
0

> <s_epik_input>
W0NIM11jMVtjSF1jKFtDSDNdKW4objEpW0NASF0oW0NIM10pQyg9TylbTkhdW0NASF0oQyg9TylbT0hdKVtDSDJdW0NIXShbQ0gzXSlbQ0gzXQ==

> <s_epik_cmdline>
J2VwaWtfcHl0aG9uJywgJy1waCcsICc3LjAnLCAnLXRuJywgJzgnLCAnLW1hJywgJzIwMCcsICctbWV0YWxfYmluZGluZycsICctaW1hZScsICc8aW5maWxlLm1hZT4nLCAnLW9tYWUnLCAnPG91dGZpbGUubWFlPic=

> <r_lp_tautomer_probability>
1

> <r_epik_Ionization_Penalty>
0.0012303

> <r_epik_Ionization_Penalty_Charging>
0.000186407

> <r_epik_Ionization_Penalty_Neutral>
0.0010439

> <r_epik_State_Penalty>
-0

> <r_epik_Charging_Adjusted_Penalty>
0.000186407

> <i_epik_Tot_Q>
-1

> <i_epik_Tot_abs_Q>
1

> <r_epik_Metal_State_Penalty>
-0

> <b_epik_Metal_Only>
0

> <s_lp_Force_Field>
OPLS_2005

> <r_lp_Energy>
6.48876

> <b_lp_Chiralities_Consistent>
1

> <s_lp_Variant>
AV-unprocessed.smi:2735-2

> <Gold.Version>
5.8.1

> <Gold.Id.Protein>
6NUR|6NUR_protein|mol2

> <Gold.PLP.Fitness>
51.3808

> <Gold.PLP.PLP>
-43.6212

> <Gold.PLP.part.hbond>
-3.0000

> <Gold.PLP.part.metal>
0.0000

> <Gold.PLP.part.buried>
-2.6709

> <Gold.PLP.part.nonpolar>
-38.2075

> <Gold.PLP.part.repulsive>
0.1559

> <Gold.PLP.ligand.clash>
0.4419

> <Gold.PLP.ligand.torsion>
1.0076

> <Gold.PLP.Chemscore.Hbond>
3.3236

> <Gold.PLP.Chemscore.CHOScore>
0.0000

> <Gold.PLP.Chemscore.Metal>
0.0000

> <Gold.Chemscore.Hbonds>
donor molecule, donor type, donor heavy atom, donor atom, acceptor molecule, acceptor atom, score
      P1  H  7989  7998       L1    19  0.07
      P1  H  7997  8008       L1    19  2.00
      P1  H 10752 10765       L1    18  1.25

> <Gold.PLP.Chemscore.Internal.Correction>
0.2457

> <Gold.Rescore>
     Score         DG    S(hbond)    S(metal)    S(lipo)     H(rot)  DE(clash)    DE(int)     intcor
     15.16     -18.15       1.77        0.00     106.69       2.24       0.39       2.60       ----

> <Gold.Chemscore.Fitness>
15.1627

> <Gold.Chemscore.DG>
-18.1472

> <Gold.Chemscore.ZeroCoef>
-5.4800

> <Gold.Chemscore.Hbond>
1.7711

> <Gold.Chemscore.Metal>
0.0000

> <Gold.Chemscore.Lipo>
106.6934

> <Gold.Chemscore.Internal_Hbond>
0.0000

> <Gold.Chemscore.DEClash>
0.3893

> <Gold.Chemscore.DEInternal>
2.5953

> <Gold.Chemscore.Rot>
2.2388

> <Gold.Chemscore.Internal.Correction>
   9.000000E+99

> <Gold.Chemscore.Hbonds>
donor molecule, donor type, donor heavy atom, donor atom, acceptor molecule, acceptor atom, score
      P1  H  7989  7998       L1    19  0.03
      P1  H  7997  8008       L1    19  0.96
      P1  H 10752 10765       L1    18  0.59

> <Gold.Chemscore.Hbond.Weighted>
-5.9155

> <Gold.Chemscore.Metal.Weighted>
-0.0000

> <Gold.Chemscore.Lipo.Weighted>
-12.4831

> <Gold.Chemscore.Internal_Hbond.Weighted>
0.0000

> <Gold.Chemscore.DEClash.Weighted>
0.3893

> <Gold.Chemscore.DEInternal.Weighted>
2.5953

> <Gold.Chemscore.Rot.Weighted>
5.7314

> <Gold.Chemscore.Internal.Correction.Weighted>
   9.000000E+99

> <Gold.Protein.RotatedTorsions>
[ 6907 6896 6895 6894 ] final   59.18 input  -60.11 | X-H torsion
[ 7974 7965 7964 7962 ] final   72.17 input  175.53 | X-H torsion
[ 8008 7997 7996 7995 ] final  -13.38 input   59.86 | X-H torsion
[ 10167 10162 10161 10158 ] final  -45.01 input  -65.29 | X-H torsion
[ 10718 10713 10712 10709 ] final -119.42 input   66.30 | X-H torsion
[ 10763 10752 10751 10750 ] final -171.73 input  -60.55 | X-H torsion
[ 11005 11000 10999 10996 ] final  -30.03 input  -57.11 | X-H torsion

> <Gold.Protein.ActiveResidues>
 VAL166  LYS551  ARG553  GLY616  TRP617  ASP618  TYR619  PRO620  LYS621  CYS622 
 ASP623  PHE694  ASN695  SER759  ASP760  ASP761  ALA762  ILE779  LEU786  VAL792 
 PHE793  MET794  SER795  GLU796  ALA797  LYS798  CYS799  TRP800  GLU811  SER814 

> <Gold.Protein.RotatedAtoms>
  152.3892  134.6469  160.0113 H   0  0  0  0  0  0  0  0  0  0  0  0  # atno 6907 bound_to 6896
  151.6708  133.3308  159.3204 H   0  0  0  0  0  0  0  0  0  0  0  0  # atno 6908 bound_to 6896
  150.7811  134.6800  159.6483 H   0  0  0  0  0  0  0  0  0  0  0  0  # atno 6909 bound_to 6896
  145.7567  139.2783  143.1400 H   0  0  0  0  0  0  0  0  0  0  0  0  # atno 7974 bound_to 7965
  154.5298  140.2251  155.8826 H   0  0  0  0  0  0  0  0  0  0  0  0  # atno 8008 bound_to 7997
  156.1751  140.3113  155.9008 H   0  0  0  0  0  0  0  0  0  0  0  0  # atno 8009 bound_to 7997
  155.3476  140.0454  157.3036 H   0  0  0  0  0  0  0  0  0  0  0  0  # atno 8010 bound_to 7997
  140.6875  143.2901  151.3577 H   0  0  0  0  0  0  0  0  0  0  0  0  # atno 10167 bound_to 10162
  156.1179  130.6300  150.9413 H   0  0  0  0  0  0  0  0  0  0  0  0  # atno 10718 bound_to 10713
  154.6272  135.2882  155.0258 H   0  0  0  0  0  0  0  0  0  0  0  0  # atno 10763 bound_to 10752
  154.1432  135.6515  153.4950 H   0  0  0  0  0  0  0  0  0  0  0  0  # atno 10764 bound_to 10752
  153.0263  135.5338  154.7085 H   0  0  0  0  0  0  0  0  0  0  0  0  # atno 10765 bound_to 10752
  140.9348  133.7316  156.0988 H   0  0  0  0  0  0  0  0  0  0  0  0  # atno 11005 bound_to 11000
  146.0304  140.8264  142.9879 LP  0  0  0  0  0  0  0  0  0  0  0  0  # atno 17320 bound_to 7965
  144.6838  140.2760  143.7299 LP  0  0  0  0  0  0  0  0  0  0  0  0  # atno 17321 bound_to 7965
  139.6246  144.0840  152.2422 LP  0  0  0  0  0  0  0  0  0  0  0  0  # atno 17342 bound_to 10162
  140.0295  144.6092  150.7500 LP  0  0  0  0  0  0  0  0  0  0  0  0  # atno 17343 bound_to 10162
  157.6363  131.0915  150.8342 LP  0  0  0  0  0  0  0  0  0  0  0  0  # atno 17370 bound_to 10713
  156.8443  130.5058  149.5318 LP  0  0  0  0  0  0  0  0  0  0  0  0  # atno 17371 bound_to 10713
  140.7814  134.3721  157.5486 LP  0  0  0  0  0  0  0  0  0  0  0  0  # atno 17394 bound_to 11000
  139.8805  134.9084  156.2967 LP  0  0  0  0  0  0  0  0  0  0  0  0  # atno 17395 bound_to 11000

$$$$
