AV-unprocessed.smi:431|AV-procd|sdf|2548|dock3
  -GOLD-   2262022513D 1   1.00000     0.00000
 Structure written by MMmdl.
 43 44  0  0  0  0  0  0  0  0  1 V2000
  147.4640  135.9378  155.0424 C   0  0  0  0  0  0  0  0  0  0  0  0
  148.3621  135.3953  156.1651 C   0  0  0  0  0  0  0  0  0  0  0  0
  149.7326  134.8700  155.6831 C   0  0  1  0  0  0  0  0  0  0  0  0
  149.5688  133.9319  154.4749 C   0  0  0  0  0  0  0  0  0  0  0  0
  150.6958  136.0133  155.3299 C   0  0  0  0  0  0  0  0  0  0  0  0
  151.7718  136.1210  155.9190 O   0  0  0  0  0  0  0  0  0  0  0  0
  150.2914  136.8618  154.3717 N   0  0  0  0  0  0  0  0  0  0  0  0
  151.0252  138.0354  153.9086 C   0  0  0  0  0  0  0  0  0  0  0  0
  151.2958  139.0370  155.0188 C   0  0  0  0  0  0  0  0  0  0  0  0
  150.5360  140.2180  155.1259 C   0  0  0  0  0  0  0  0  0  0  0  0
  150.8131  141.1170  156.1735 C   0  0  0  0  0  0  0  0  0  0  0  0
  151.8514  140.8154  157.0875 C   0  0  0  0  0  0  0  0  0  0  0  0
  152.1464  141.6993  158.1488 N   0  0  0  0  0  0  0  0  0  0  0  0
  151.5562  143.0366  158.1131 C   0  0  0  0  0  0  0  0  0  0  0  0
  152.2170  143.9430  159.1652 C   0  0  0  0  0  0  0  0  0  0  0  0
  152.1231  143.3352  160.4490 O   0  0  0  0  0  0  0  0  0  0  0  0
  152.8008  142.0840  160.4925 C   0  0  0  0  0  0  0  0  0  0  0  0
  152.1642  141.1102  159.4859 C   0  0  0  0  0  0  0  0  0  0  0  0
  152.5803  139.6768  156.9791 N   0  0  0  0  0  0  0  0  0  0  0  0
  152.3105  138.8184  155.9734 C   0  0  0  0  0  0  0  0  0  0  0  0
  146.5404  136.3470  155.4518 H   0  0  0  0  0  0  0  0  0  0  0  0
  147.1893  135.1581  154.3318 H   0  0  0  0  0  0  0  0  0  0  0  0
  147.9632  136.7348  154.4910 H   0  0  0  0  0  0  0  0  0  0  0  0
  148.5251  136.1958  156.8874 H   0  0  0  0  0  0  0  0  0  0  0  0
  147.8295  134.6121  156.7067 H   0  0  0  0  0  0  0  0  0  0  0  0
  150.1732  134.2855  156.4928 H   0  0  0  0  0  0  0  0  0  0  0  0
  150.5335  133.5602  154.1265 H   0  0  0  0  0  0  0  0  0  0  0  0
  149.0840  134.4361  153.6379 H   0  0  0  0  0  0  0  0  0  0  0  0
  148.9611  133.0645  154.7338 H   0  0  0  0  0  0  0  0  0  0  0  0
  149.3939  136.6912  153.9418 H   0  0  0  0  0  0  0  0  0  0  0  0
  151.9727  137.7522  153.4472 H   0  0  0  0  0  0  0  0  0  0  0  0
  150.4366  138.5094  153.1225 H   0  0  0  0  0  0  0  0  0  0  0  0
  149.7447  140.4326  154.4227 H   0  0  0  0  0  0  0  0  0  0  0  0
  150.2179  142.0122  156.2715 H   0  0  0  0  0  0  0  0  0  0  0  0
  151.6829  143.4813  157.1251 H   0  0  0  0  0  0  0  0  0  0  0  0
  150.4846  142.9627  158.3034 H   0  0  0  0  0  0  0  0  0  0  0  0
  153.2625  144.1309  158.9149 H   0  0  0  0  0  0  0  0  0  0  0  0
  151.7177  144.9117  159.1934 H   0  0  0  0  0  0  0  0  0  0  0  0
  153.8616  142.2248  160.2789 H   0  0  0  0  0  0  0  0  0  0  0  0
  152.7312  141.6783  161.5018 H   0  0  0  0  0  0  0  0  0  0  0  0
  151.1395  140.8844  159.7834 H   0  0  0  0  0  0  0  0  0  0  0  0
  152.7145  140.1710  159.5090 H   0  0  0  0  0  0  0  0  0  0  0  0
  152.9250  137.9314  155.9336 H   0  0  0  0  0  0  0  0  0  0  0  0
  1  2  1  0  0  0  0
  1 21  1  0  0  0  0
  1 22  1  0  0  0  0
  1 23  1  0  0  0  0
  2  3  1  0  0  0  0
  2 24  1  0  0  0  0
  2 25  1  0  0  0  0
  3  4  1  0  0  0  0
  3  5  1  0  0  0  0
  3 26  1  0  0  0  0
  4 27  1  0  0  0  0
  4 28  1  0  0  0  0
  4 29  1  0  0  0  0
  5  6  2  0  0  0  0
  5  7  1  0  0  0  0
  7  8  1  0  0  0  0
  7 30  1  0  0  0  0
  8  9  1  0  0  0  0
  8 31  1  0  0  0  0
  8 32  1  0  0  0  0
  9 20  1  0  0  0  0
  9 10  2  0  0  0  0
 10 11  1  0  0  0  0
 10 33  1  0  0  0  0
 11 12  2  0  0  0  0
 11 34  1  0  0  0  0
 12 13  1  0  0  0  0
 12 19  1  0  0  0  0
 13 18  1  0  0  0  0
 13 14  1  0  0  0  0
 14 15  1  0  0  0  0
 14 35  1  0  0  0  0
 14 36  1  0  0  0  0
 15 16  1  0  0  0  0
 15 37  1  0  0  0  0
 15 38  1  0  0  0  0
 16 17  1  0  0  0  0
 17 18  1  0  0  0  0
 17 39  1  0  0  0  0
 17 40  1  0  0  0  0
 18 41  1  0  0  0  0
 18 42  1  0  0  0  0
 19 20  2  0  0  0  0
 20 43  1  0  0  0  0
M  END
> <s_m_source_file>
AV-unprocessed.smi

> <i_m_source_file_index>
431

> <i_lp_mmshare_version>
43012

> <i_f3d_flags>
0

> <s_epik_input>
W0NIM11bQ0gyXVtDQEhdKFtDSDNdKUMoPU8pW05IXVtDSDJdYzFbY0hdW2NIXWMobltjSF0xKU4yW0NIMl1bQ0gyXU9bQ0gyXVtDSDJdMg==

> <s_epik_cmdline>
J2VwaWtfcHl0aG9uJywgJy1waCcsICc3LjAnLCAnLXRuJywgJzgnLCAnLW1hJywgJzIwMCcsICctbWV0YWxfYmluZGluZycsICctaW1hZScsICc8aW5maWxlLm1hZT4nLCAnLW9tYWUnLCAnPG91dGZpbGUubWFlPic=

> <r_lp_tautomer_probability>
1

> <r_epik_Ionization_Penalty>
0.00513882

> <r_epik_Ionization_Penalty_Charging>
0

> <r_epik_Ionization_Penalty_Neutral>
0.00513882

> <r_epik_State_Penalty>
0.00374265

> <r_epik_Charging_Adjusted_Penalty>
0.00374265

> <i_epik_Tot_Q>
0

> <i_epik_Tot_abs_Q>
0

> <r_epik_Metal_State_Penalty>
-0

> <b_epik_Metal_Only>
0

> <s_lp_Force_Field>
OPLS_2005

> <r_lp_Energy>
17.352

> <b_lp_Chiralities_Consistent>
1

> <s_lp_Variant>
AV-unprocessed.smi:431-2

> <Gold.Version>
5.8.1

> <Gold.Id.Protein>
6NUR|6NUR_protein|mol2

> <Gold.PLP.Fitness>
43.9040

> <Gold.PLP.PLP>
-37.1737

> <Gold.PLP.part.hbond>
-3.8347

> <Gold.PLP.part.metal>
0.0000

> <Gold.PLP.part.buried>
-2.6193

> <Gold.PLP.part.nonpolar>
-30.9003

> <Gold.PLP.part.repulsive>
0.1431

> <Gold.PLP.ligand.clash>
0.0000

> <Gold.PLP.ligand.torsion>
0.5205

> <Gold.PLP.Chemscore.Hbond>
2.4597

> <Gold.PLP.Chemscore.CHOScore>
0.0000

> <Gold.PLP.Chemscore.Metal>
0.0000

> <Gold.Chemscore.Hbonds>
donor molecule, donor type, donor heavy atom, donor atom, acceptor molecule, acceptor atom, score
      L1  H     7    30       P1  7948  0.38
      P1  H  7997  8009       L1    19  0.95
      P1  H 10752 10763       L1     6  1.00

> <Gold.PLP.Chemscore.Internal.Correction>
0.3922

> <Gold.Rescore>
     Score         DG    S(hbond)    S(metal)    S(lipo)     H(rot)  DE(clash)    DE(int)     intcor
     16.38     -17.70       1.72        0.00      91.30       1.64       0.56       0.76       ----

> <Gold.Chemscore.Fitness>
16.3832

> <Gold.Chemscore.DG>
-17.6983

> <Gold.Chemscore.ZeroCoef>
-5.4800

> <Gold.Chemscore.Hbond>
1.7176

> <Gold.Chemscore.Metal>
0.0000

> <Gold.Chemscore.Lipo>
91.2969

> <Gold.Chemscore.Internal_Hbond>
0.0000

> <Gold.Chemscore.DEClash>
0.5597

> <Gold.Chemscore.DEInternal>
0.7554

> <Gold.Chemscore.Rot>
1.6407

> <Gold.Chemscore.Internal.Correction>
   9.000000E+99

> <Gold.Chemscore.Hbonds>
donor molecule, donor type, donor heavy atom, donor atom, acceptor molecule, acceptor atom, score
      L1  H     7    30       P1  7948  0.34
      P1  H  7997  8009       L1    19  0.16
      P1  H 10752 10763       L1     6  0.78

> <Gold.Chemscore.Hbond.Weighted>
-5.7367

> <Gold.Chemscore.Metal.Weighted>
-0.0000

> <Gold.Chemscore.Lipo.Weighted>
-10.6817

> <Gold.Chemscore.Internal_Hbond.Weighted>
0.0000

> <Gold.Chemscore.DEClash.Weighted>
0.5597

> <Gold.Chemscore.DEInternal.Weighted>
0.7554

> <Gold.Chemscore.Rot.Weighted>
4.2001

> <Gold.Chemscore.Internal.Correction.Weighted>
   9.000000E+99

> <Gold.Protein.RotatedTorsions>
[ 6907 6896 6895 6894 ] final -106.75 input  -60.11 | X-H torsion
[ 7974 7965 7964 7962 ] final   17.10 input  175.53 | X-H torsion
[ 8008 7997 7996 7995 ] final -172.97 input   59.86 | X-H torsion
[ 10167 10162 10161 10158 ] final -131.14 input  -65.29 | X-H torsion
[ 10718 10713 10712 10709 ] final  117.80 input   66.30 | X-H torsion
[ 10763 10752 10751 10750 ] final   83.41 input  -60.55 | X-H torsion
[ 11005 11000 10999 10996 ] final  -47.05 input  -57.11 | X-H torsion

> <Gold.Protein.ActiveResidues>
 VAL166  LYS551  ARG553  GLY616  TRP617  ASP618  TYR619  PRO620  LYS621  CYS622 
 ASP623  PHE694  ASN695  SER759  ASP760  ASP761  ALA762  ILE779  LEU786  VAL792 
 PHE793  MET794  SER795  GLU796  ALA797  LYS798  CYS799  TRP800  GLU811  SER814 

> <Gold.Protein.RotatedAtoms>
  150.7406  133.9930  159.3612 H   0  0  0  0  0  0  0  0  0  0  0  0  # atno 6907 bound_to 6896
  151.7879  135.0742  160.0392 H   0  0  0  0  0  0  0  0  0  0  0  0  # atno 6908 bound_to 6896
  152.3228  133.5836  159.5792 H   0  0  0  0  0  0  0  0  0  0  0  0  # atno 6909 bound_to 6896
  146.2229  139.8652  142.8597 H   0  0  0  0  0  0  0  0  0  0  0  0  # atno 7974 bound_to 7965
  155.9514  140.1127  157.0974 H   0  0  0  0  0  0  0  0  0  0  0  0  # atno 8008 bound_to 7997
  154.4110  140.1200  156.5124 H   0  0  0  0  0  0  0  0  0  0  0  0  # atno 8009 bound_to 7997
  155.6837  140.3473  155.4868 H   0  0  0  0  0  0  0  0  0  0  0  0  # atno 8010 bound_to 7997
  139.9220  143.6371  152.2551 H   0  0  0  0  0  0  0  0  0  0  0  0  # atno 10167 bound_to 10162
  157.6073  131.1041  150.7666 H   0  0  0  0  0  0  0  0  0  0  0  0  # atno 10718 bound_to 10713
  153.1288  135.4692  154.9316 H   0  0  0  0  0  0  0  0  0  0  0  0  # atno 10763 bound_to 10752
  154.7645  135.3141  154.8315 H   0  0  0  0  0  0  0  0  0  0  0  0  # atno 10764 bound_to 10752
  153.8862  135.6889  153.4817 H   0  0  0  0  0  0  0  0  0  0  0  0  # atno 10765 bound_to 10752
  141.0617  133.6707  156.3242 H   0  0  0  0  0  0  0  0  0  0  0  0  # atno 11005 bound_to 11000
  145.2664  141.0094  143.3797 LP  0  0  0  0  0  0  0  0  0  0  0  0  # atno 17320 bound_to 7965
  144.9258  139.4357  143.6519 LP  0  0  0  0  0  0  0  0  0  0  0  0  # atno 17321 bound_to 7965
  139.6854  144.7652  151.1534 LP  0  0  0  0  0  0  0  0  0  0  0  0  # atno 17342 bound_to 10162
  140.7660  143.5665  150.9042 LP  0  0  0  0  0  0  0  0  0  0  0  0  # atno 17343 bound_to 10162
  156.8051  130.4934  149.5364 LP  0  0  0  0  0  0  0  0  0  0  0  0  # atno 17370 bound_to 10713
  156.1163  130.6077  151.0126 LP  0  0  0  0  0  0  0  0  0  0  0  0  # atno 17371 bound_to 10713
  140.5855  134.5702  157.5489 LP  0  0  0  0  0  0  0  0  0  0  0  0  # atno 17394 bound_to 11000
  139.9438  134.7738  156.0611 LP  0  0  0  0  0  0  0  0  0  0  0  0  # atno 17395 bound_to 11000

$$$$
