AV-unprocessed.smi:1021|AV-procd|sdf|4456|dock2
  -GOLD-   22720 2423D 1   1.00000     0.00000
 Structure written by MMmdl.
 43 45  0  0  0  0  0  0  0  0  2 V2000
  149.2635  141.1724  153.0932 O   0  0  0  0  0  0  0  0  0  0  0  0
  148.6224  140.8029  154.2954 C   0  0  0  0  0  0  0  0  0  0  0  0
  149.1576  141.6366  155.4679 C   0  0  0  0  0  0  0  0  0  0  0  0
  150.2234  140.8998  156.2940 C   0  0  0  0  0  0  0  0  0  0  0  0
  150.7206  141.7400  157.4247 C   0  0  0  0  0  0  0  0  0  0  0  0
  150.5718  143.0901  157.5359 N   0  3  0  0  0  0  0  0  0  0  0  0
  151.1697  143.5364  158.7149 C   0  0  0  0  0  0  0  0  0  0  0  0
  151.2724  144.8129  159.2591 C   0  0  0  0  0  0  0  0  0  0  0  0
  151.9545  144.9237  160.4885 C   0  0  0  0  0  0  0  0  0  0  0  0
  152.5035  143.7934  161.1285 C   0  0  0  0  0  0  0  0  0  0  0  0
  152.3937  142.5043  160.5666 C   0  0  0  0  0  0  0  0  0  0  0  0
  151.7162  142.4038  159.3518 C   0  0  0  0  0  0  0  0  0  0  0  0
  151.4146  141.3185  158.5222 N   0  0  0  0  0  0  0  0  0  0  0  0
  151.8513  139.9711  158.9209 C   0  0  0  0  0  0  0  0  0  0  0  0
  153.3836  139.8547  159.0541 C   0  0  2  0  0  0  0  0  0  0  0  0
  153.8773  139.2066  157.9005 O   0  0  0  0  0  0  0  0  0  0  0  0
  153.7987  139.1515  160.3392 C   0  0  0  0  0  0  0  0  0  0  0  0
  153.4134  137.8117  160.5608 C   0  0  0  0  0  0  0  0  0  0  0  0
  153.8148  137.1415  161.7325 C   0  0  0  0  0  0  0  0  0  0  0  0
  154.6031  137.8074  162.6903 C   0  0  0  0  0  0  0  0  0  0  0  0
  154.9907  137.1620  163.8156 F   0  0  0  0  0  0  0  0  0  0  0  0
  154.9896  139.1442  162.4760 C   0  0  0  0  0  0  0  0  0  0  0  0
  154.5894  139.8148  161.3039 C   0  0  0  0  0  0  0  0  0  0  0  0
  149.4010  140.3940  152.5747 H   0  0  0  0  0  0  0  0  0  0  0  0
  147.5446  140.9290  154.1883 H   0  0  0  0  0  0  0  0  0  0  0  0
  148.8070  139.7435  154.4738 H   0  0  0  0  0  0  0  0  0  0  0  0
  149.5900  142.5546  155.0687 H   0  0  0  0  0  0  0  0  0  0  0  0
  148.3317  141.9439  156.1107 H   0  0  0  0  0  0  0  0  0  0  0  0
  149.8174  139.9716  156.6973 H   0  0  0  0  0  0  0  0  0  0  0  0
  151.0633  140.6190  155.6599 H   0  0  0  0  0  0  0  0  0  0  0  0
  150.8535  145.6803  158.7700 H   0  0  0  0  0  0  0  0  0  0  0  0
  152.0588  145.8952  160.9497 H   0  0  0  0  0  0  0  0  0  0  0  0
  153.0197  143.9172  162.0694 H   0  0  0  0  0  0  0  0  0  0  0  0
  152.8175  141.6442  161.0637 H   0  0  0  0  0  0  0  0  0  0  0  0
  151.3641  139.7195  159.8636 H   0  0  0  0  0  0  0  0  0  0  0  0
  151.4704  139.2638  158.1828 H   0  0  0  0  0  0  0  0  0  0  0  0
  153.8233  140.8527  159.0520 H   0  0  0  0  0  0  0  0  0  0  0  0
  153.1501  139.0216  157.3258 H   0  0  0  0  0  0  0  0  0  0  0  0
  152.8159  137.2904  159.8273 H   0  0  0  0  0  0  0  0  0  0  0  0
  153.5197  136.1155  161.8959 H   0  0  0  0  0  0  0  0  0  0  0  0
  155.5960  139.6550  163.2094 H   0  0  0  0  0  0  0  0  0  0  0  0
  154.9004  140.8370  161.1453 H   0  0  0  0  0  0  0  0  0  0  0  0
  150.0943  143.6625  156.8514 H   0  0  0  0  0  0  0  0  0  0  0  0
  1  2  1  0  0  0  0
  1 24  1  0  0  0  0
  2  3  1  0  0  0  0
  2 25  1  0  0  0  0
  2 26  1  0  0  0  0
  3  4  1  0  0  0  0
  3 27  1  0  0  0  0
  3 28  1  0  0  0  0
  4  5  1  0  0  0  0
  4 29  1  0  0  0  0
  4 30  1  0  0  0  0
  5 13  1  0  0  0  0
  5  6  2  0  0  0  0
  6  7  1  0  0  0  0
  6 43  1  0  0  0  0
  7 12  2  0  0  0  0
  7  8  1  0  0  0  0
  8  9  2  0  0  0  0
  8 31  1  0  0  0  0
  9 10  1  0  0  0  0
  9 32  1  0  0  0  0
 10 11  2  0  0  0  0
 10 33  1  0  0  0  0
 11 12  1  0  0  0  0
 11 34  1  0  0  0  0
 12 13  1  0  0  0  0
 13 14  1  0  0  0  0
 14 15  1  0  0  0  0
 14 35  1  0  0  0  0
 14 36  1  0  0  0  0
 15 16  1  0  0  0  0
 15 17  1  0  0  0  0
 15 37  1  0  0  0  0
 16 38  1  0  0  0  0
 17 23  1  0  0  0  0
 17 18  2  0  0  0  0
 18 19  1  0  0  0  0
 18 39  1  0  0  0  0
 19 20  2  0  0  0  0
 19 40  1  0  0  0  0
 20 21  1  0  0  0  0
 20 22  1  0  0  0  0
 22 23  2  0  0  0  0
 22 41  1  0  0  0  0
 23 42  1  0  0  0  0
M  CHG  1   6   1
M  END
> <s_m_source_file>
AV-unprocessed.smi

> <i_m_source_file_index>
1021

> <i_lp_mmshare_version>
43012

> <i_f3d_flags>
0

> <s_epik_input>
W09IXVtDSDJdW0NIMl1bQ0gyXWMobjEpbihjKGMxMilbY0hdW2NIXVtjSF1bY0hdMilbQ0gyXVtDQEhdKFtPSF0pYzNbY0hdW2NIXWMoRilbY0hdW2NIXTM=

> <s_epik_cmdline>
J2VwaWtfcHl0aG9uJywgJy1waCcsICc3LjAnLCAnLXRuJywgJzgnLCAnLW1hJywgJzIwMCcsICctbWV0YWxfYmluZGluZycsICctaW1hZScsICc8aW5maWxlLm1hZT4nLCAnLW9tYWUnLCAnPG91dGZpbGUubWFlPic=

> <r_epik_Ionization_Penalty>
0.786441

> <r_epik_Ionization_Penalty_Charging>
0.786439

> <r_epik_Ionization_Penalty_Neutral>
1.96029e-06

> <r_epik_State_Penalty>
0.816472

> <r_epik_Charging_Adjusted_Penalty>
1.60291

> <i_epik_Tot_Q>
1

> <i_epik_Tot_abs_Q>
1

> <r_epik_Metal_State_Penalty>
4.73733

> <b_epik_Metal_Only>
0

> <s_lp_Force_Field>
OPLS_2005

> <r_lp_Energy>
17.0058

> <b_lp_Chiralities_Consistent>
1

> <s_lp_Variant>
AV-unprocessed.smi:1021-3

> <Gold.Version>
5.8.1

> <Gold.Id.Protein>
6NUR|6NUR_protein|mol2

> <Gold.PLP.Fitness>
63.3322

> <Gold.PLP.PLP>
-51.3557

> <Gold.PLP.part.hbond>
-4.1176

> <Gold.PLP.part.metal>
0.0000

> <Gold.PLP.part.buried>
-6.1532

> <Gold.PLP.part.nonpolar>
-42.5857

> <Gold.PLP.part.repulsive>
0.0152

> <Gold.PLP.ligand.clash>
0.0000

> <Gold.PLP.ligand.torsion>
1.1278

> <Gold.PLP.Chemscore.Hbond>
4.6984

> <Gold.PLP.Chemscore.CHOScore>
0.0000

> <Gold.PLP.Chemscore.Metal>
0.0000

> <Gold.Chemscore.Hbonds>
donor molecule, donor type, donor heavy atom, donor atom, acceptor molecule, acceptor atom, score
      L1  H     1    24       P1  7957  0.64
      L1  H     6    43       P1  8028  2.00
      P1  H  7997  8008       L1    16  0.78
      P1  H  8011  8017       L1     1  1.00

> <Gold.PLP.Chemscore.Internal.Correction>
0.1369

> <Gold.Rescore>
     Score         DG    S(hbond)    S(metal)    S(lipo)     H(rot)  DE(clash)    DE(int)     intcor
     23.01     -24.14       3.18        0.00     137.86       3.16       0.05       1.08       ----

> <Gold.Chemscore.Fitness>
23.0107

> <Gold.Chemscore.DG>
-24.1391

> <Gold.Chemscore.ZeroCoef>
-5.4800

> <Gold.Chemscore.Hbond>
3.1796

> <Gold.Chemscore.Metal>
0.0000

> <Gold.Chemscore.Lipo>
137.8638

> <Gold.Chemscore.Internal_Hbond>
0.0000

> <Gold.Chemscore.DEClash>
0.0530

> <Gold.Chemscore.DEInternal>
1.0754

> <Gold.Chemscore.Rot>
3.1604

> <Gold.Chemscore.Internal.Correction>
   9.000000E+99

> <Gold.Chemscore.Hbonds>
donor molecule, donor type, donor heavy atom, donor atom, acceptor molecule, acceptor atom, score
      L1  H     1    24       P1  7957  0.64
      L1  H     6    43       P1  8028  0.97
      P1  H  7997  8008       L1    16  0.46
      P1  H  8011  8017       L1     1  0.67

> <Gold.Chemscore.Hbond.Weighted>
-10.6197

> <Gold.Chemscore.Metal.Weighted>
-0.0000

> <Gold.Chemscore.Lipo.Weighted>
-16.1301

> <Gold.Chemscore.Internal_Hbond.Weighted>
0.0000

> <Gold.Chemscore.DEClash.Weighted>
0.0530

> <Gold.Chemscore.DEInternal.Weighted>
1.0754

> <Gold.Chemscore.Rot.Weighted>
8.0907

> <Gold.Chemscore.Internal.Correction.Weighted>
   9.000000E+99

> <Gold.Protein.RotatedTorsions>
[ 6907 6896 6895 6894 ] final  103.94 input  -60.11 | X-H torsion
[ 7974 7965 7964 7962 ] final  147.42 input  175.53 | X-H torsion
[ 8008 7997 7996 7995 ] final -107.55 input   59.86 | X-H torsion
[ 10167 10162 10161 10158 ] final  -26.90 input  -65.29 | X-H torsion
[ 10718 10713 10712 10709 ] final -127.83 input   66.30 | X-H torsion
[ 10763 10752 10751 10750 ] final   89.68 input  -60.55 | X-H torsion
[ 11005 11000 10999 10996 ] final -123.67 input  -57.11 | X-H torsion

> <Gold.Protein.ActiveResidues>
 VAL166  LYS551  ARG553  GLY616  TRP617  ASP618  TYR619  PRO620  LYS621  CYS622 
 ASP623  PHE694  ASN695  SER759  ASP760  ASP761  ALA762  ILE779  LEU786  VAL792 
 PHE793  MET794  SER795  GLU796  ALA797  LYS798  CYS799  TRP800  GLU811  SER814 

> <Gold.Protein.RotatedAtoms>
  152.5280  133.9751  159.7780 H   0  0  0  0  0  0  0  0  0  0  0  0  # atno 6907 bound_to 6896
  151.0016  133.6043  159.2701 H   0  0  0  0  0  0  0  0  0  0  0  0  # atno 6908 bound_to 6896
  151.3150  135.0810  159.9339 H   0  0  0  0  0  0  0  0  0  0  0  0  # atno 6909 bound_to 6896
  144.8593  139.6027  143.5938 H   0  0  0  0  0  0  0  0  0  0  0  0  # atno 7974 bound_to 7965
  154.9311  140.0405  157.2048 H   0  0  0  0  0  0  0  0  0  0  0  0  # atno 8008 bound_to 7997
  154.8160  140.2876  155.5798 H   0  0  0  0  0  0  0  0  0  0  0  0  # atno 8009 bound_to 7997
  156.2976  140.2528  156.3058 H   0  0  0  0  0  0  0  0  0  0  0  0  # atno 8010 bound_to 7997
  140.7280  143.4138  151.1061 H   0  0  0  0  0  0  0  0  0  0  0  0  # atno 10167 bound_to 10162
  156.1893  130.6785  151.0404 H   0  0  0  0  0  0  0  0  0  0  0  0  # atno 10718 bound_to 10713
  153.1896  135.4461  155.0132 H   0  0  0  0  0  0  0  0  0  0  0  0  # atno 10763 bound_to 10752
  154.8082  135.3283  154.7379 H   0  0  0  0  0  0  0  0  0  0  0  0  # atno 10764 bound_to 10752
  153.7834  135.6976  153.4939 H   0  0  0  0  0  0  0  0  0  0  0  0  # atno 10765 bound_to 10752
  140.9901  134.0551  157.3664 H   0  0  0  0  0  0  0  0  0  0  0  0  # atno 11005 bound_to 11000
  146.2848  139.6973  142.9203 LP  0  0  0  0  0  0  0  0  0  0  0  0  # atno 17320 bound_to 7965
  145.4344  141.0417  143.2892 LP  0  0  0  0  0  0  0  0  0  0  0  0  # atno 17321 bound_to 7965
  139.7775  143.8403  152.3132 LP  0  0  0  0  0  0  0  0  0  0  0  0  # atno 17342 bound_to 10162
  139.8343  144.7239  150.9411 LP  0  0  0  0  0  0  0  0  0  0  0  0  # atno 17343 bound_to 10162
  157.6919  131.0807  150.7082 LP  0  0  0  0  0  0  0  0  0  0  0  0  # atno 17370 bound_to 10713
  156.7139  130.4660  149.5540 LP  0  0  0  0  0  0  0  0  0  0  0  0  # atno 17371 bound_to 10713
  139.8988  135.0156  156.7167 LP  0  0  0  0  0  0  0  0  0  0  0  0  # atno 17394 bound_to 11000
  140.7053  133.9270  155.8050 LP  0  0  0  0  0  0  0  0  0  0  0  0  # atno 17395 bound_to 11000

$$$$
