AV-unprocessed.smi:1244|AV-procd|sdf|5225|dock9
  -GOLD-   22720 4323D 1   1.00000     0.00000
 Structure written by MMmdl.
 55 57  0  0  0  0  0  0  0  0  2 V2000
  146.5253  129.5594  151.5582 C   0  0  0  0  0  0  0  0  0  0  0  0
  145.6351  130.6963  152.0719 C   0  0  1  0  0  0  0  0  0  0  0  0
  146.3068  131.4933  153.2058 C   0  0  0  0  0  0  0  0  0  0  0  0
  145.4469  132.6246  153.6262 N   0  3  1  0  0  0  0  0  0  0  0  0
  146.0268  133.3895  154.7576 C   0  0  0  0  0  0  0  0  0  0  0  0
  144.9910  134.3090  155.4303 C   0  0  0  0  0  0  0  0  0  0  0  0
  145.1756  134.3440  156.8762 N   0  0  0  0  0  0  0  0  0  0  0  0
  144.1824  134.2891  157.7745 C   0  0  0  0  0  0  0  0  0  0  0  0
  142.9953  134.1899  157.4647 O   0  0  0  0  0  0  0  0  0  0  0  0
  144.6589  134.3456  159.0295 N   0  0  0  0  0  0  0  0  0  0  0  0
  143.9424  134.2516  160.2568 C   0  0  0  0  0  0  0  0  0  0  0  0
  142.5502  133.9900  160.2921 C   0  0  0  0  0  0  0  0  0  0  0  0
  141.8814  133.9721  161.5279 C   0  0  0  0  0  0  0  0  0  0  0  0
  142.6251  134.2346  162.6898 C   0  0  0  0  0  0  0  0  0  0  0  0
  143.9460  134.5005  162.6731 N   0  0  0  0  0  0  0  0  0  0  0  0
  144.6092  134.5061  161.4905 C   0  0  0  0  0  0  0  0  0  0  0  0
  145.9960  134.7791  161.5394 N   0  0  0  0  0  0  0  0  0  0  0  0
  146.5411  135.9613  160.8805 C   0  0  0  0  0  0  0  0  0  0  0  0
  147.9439  136.1247  161.4584 C   0  0  0  0  0  0  0  0  0  0  0  0
  147.7564  135.6701  162.9025 C   0  0  0  0  0  0  0  0  0  0  0  0
  146.6974  134.5668  162.8022 C   0  0  0  0  0  0  0  0  0  0  0  0
  145.1040  133.4727  152.4580 C   0  0  0  0  0  0  0  0  0  0  0  0
  144.4695  132.6239  151.3399 C   0  0  1  0  0  0  0  0  0  0  0  0
  144.1809  133.4497  150.0817 C   0  0  0  0  0  0  0  0  0  0  0  0
  145.3646  131.5751  150.9857 O   0  0  0  0  0  0  0  0  0  0  0  0
  146.7539  128.8500  152.3537 H   0  0  0  0  0  0  0  0  0  0  0  0
  147.4693  129.9415  151.1685 H   0  0  0  0  0  0  0  0  0  0  0  0
  146.0319  129.0104  150.7558 H   0  0  0  0  0  0  0  0  0  0  0  0
  144.6972  130.2668  152.4285 H   0  0  0  0  0  0  0  0  0  0  0  0
  146.4902  130.8355  154.0562 H   0  0  0  0  0  0  0  0  0  0  0  0
  147.2759  131.8746  152.8790 H   0  0  0  0  0  0  0  0  0  0  0  0
  146.3977  132.6928  155.5111 H   0  0  0  0  0  0  0  0  0  0  0  0
  146.8929  133.9565  154.4120 H   0  0  0  0  0  0  0  0  0  0  0  0
  145.0397  135.3239  155.0341 H   0  0  0  0  0  0  0  0  0  0  0  0
  143.9836  133.9455  155.2260 H   0  0  0  0  0  0  0  0  0  0  0  0
  146.1235  134.4184  157.2161 H   0  0  0  0  0  0  0  0  0  0  0  0
  145.6643  134.3490  159.1219 H   0  0  0  0  0  0  0  0  0  0  0  0
  141.9768  133.8256  159.3931 H   0  0  0  0  0  0  0  0  0  0  0  0
  140.8210  133.7749  161.5815 H   0  0  0  0  0  0  0  0  0  0  0  0
  142.1471  134.2377  163.6582 H   0  0  0  0  0  0  0  0  0  0  0  0
  146.5601  135.8395  159.7974 H   0  0  0  0  0  0  0  0  0  0  0  0
  145.9472  136.8450  161.1169 H   0  0  0  0  0  0  0  0  0  0  0  0
  148.6397  135.4595  160.9450 H   0  0  0  0  0  0  0  0  0  0  0  0
  148.3221  137.1438  161.3754 H   0  0  0  0  0  0  0  0  0  0  0  0
  148.6826  135.3283  163.3656 H   0  0  0  0  0  0  0  0  0  0  0  0
  147.3687  136.4975  163.4984 H   0  0  0  0  0  0  0  0  0  0  0  0
  146.0203  134.5856  163.6573 H   0  0  0  0  0  0  0  0  0  0  0  0
  147.1823  133.5909  162.7750 H   0  0  0  0  0  0  0  0  0  0  0  0
  144.4107  134.2600  152.7528 H   0  0  0  0  0  0  0  0  0  0  0  0
  146.0056  133.9646  152.0887 H   0  0  0  0  0  0  0  0  0  0  0  0
  143.5317  132.1914  151.6933 H   0  0  0  0  0  0  0  0  0  0  0  0
  143.4908  134.2657  150.2969 H   0  0  0  0  0  0  0  0  0  0  0  0
  143.7319  132.8318  149.3040 H   0  0  0  0  0  0  0  0  0  0  0  0
  145.0954  133.8828  149.6753 H   0  0  0  0  0  0  0  0  0  0  0  0
  144.5867  132.2152  153.9620 H   0  0  0  0  0  0  0  0  0  0  0  0
  1  2  1  0  0  0  0
  1 26  1  0  0  0  0
  1 27  1  0  0  0  0
  1 28  1  0  0  0  0
  2 25  1  0  0  0  0
  2  3  1  0  0  0  0
  2 29  1  0  0  0  0
  3  4  1  0  0  0  0
  3 30  1  0  0  0  0
  3 31  1  0  0  0  0
  4  5  1  0  0  0  0
  4 22  1  0  0  0  0
  4 55  1  0  0  0  0
  5  6  1  0  0  0  0
  5 32  1  0  0  0  0
  5 33  1  0  0  0  0
  6  7  1  0  0  0  0
  6 34  1  0  0  0  0
  6 35  1  0  0  0  0
  7  8  1  0  0  0  0
  7 36  1  0  0  0  0
  8  9  2  0  0  0  0
  8 10  1  0  0  0  0
 10 11  1  0  0  0  0
 10 37  1  0  0  0  0
 11 16  1  0  0  0  0
 11 12  2  0  0  0  0
 12 13  1  0  0  0  0
 12 38  1  0  0  0  0
 13 14  2  0  0  0  0
 13 39  1  0  0  0  0
 14 15  1  0  0  0  0
 14 40  1  0  0  0  0
 15 16  2  0  0  0  0
 16 17  1  0  0  0  0
 17 21  1  0  0  0  0
 17 18  1  0  0  0  0
 18 19  1  0  0  0  0
 18 41  1  0  0  0  0
 18 42  1  0  0  0  0
 19 20  1  0  0  0  0
 19 43  1  0  0  0  0
 19 44  1  0  0  0  0
 20 21  1  0  0  0  0
 20 45  1  0  0  0  0
 20 46  1  0  0  0  0
 21 47  1  0  0  0  0
 21 48  1  0  0  0  0
 22 23  1  0  0  0  0
 22 49  1  0  0  0  0
 22 50  1  0  0  0  0
 23 24  1  0  0  0  0
 23 25  1  0  0  0  0
 23 51  1  0  0  0  0
 24 52  1  0  0  0  0
 24 53  1  0  0  0  0
 24 54  1  0  0  0  0
M  CHG  1   4   1
M  END
> <s_m_source_file>
AV-unprocessed.smi

> <i_m_source_file_index>
1244

> <i_lp_mmshare_version>
43012

> <i_f3d_flags>
0

> <s_epik_input>
W0NIM11bQ0BASF0xW0NIMl1OKFtDSDJdW0NASF0oTzEpW0NIM10pW0NIMl1bQ0gyXVtOSF1DKD1PKVtOSF1jMltjSF1bY0hdW2NIXW5jMk4zW0NIMl1bQ0gyXVtDSDJdW0NIMl0z

> <s_epik_cmdline>
J2VwaWtfcHl0aG9uJywgJy1waCcsICc3LjAnLCAnLXRuJywgJzgnLCAnLW1hJywgJzIwMCcsICctbWV0YWxfYmluZGluZycsICctaW1hZScsICc8aW5maWxlLm1hZT4nLCAnLW9tYWUnLCAnPG91dGZpbGUubWFlPic=

> <r_lp_tautomer_probability>
1

> <r_epik_Ionization_Penalty>
0.684913

> <r_epik_Ionization_Penalty_Charging>
0.602531

> <r_epik_Ionization_Penalty_Neutral>
0.0823829

> <r_epik_State_Penalty>
0.678827

> <r_epik_Charging_Adjusted_Penalty>
1.28136

> <i_epik_Tot_Q>
1

> <i_epik_Tot_abs_Q>
1

> <r_epik_Metal_State_Penalty>
0.67806

> <b_epik_Metal_Only>
0

> <s_lp_Force_Field>
OPLS_2005

> <r_lp_Energy>
42.8464

> <b_lp_Chiralities_Consistent>
1

> <s_lp_Variant>
AV-unprocessed.smi:1244-5

> <Gold.Version>
5.8.1

> <Gold.Id.Protein>
6NUR|6NUR_protein|mol2

> <Gold.PLP.Fitness>
43.5464

> <Gold.PLP.PLP>
-36.3934

> <Gold.PLP.part.hbond>
-2.0000

> <Gold.PLP.part.metal>
0.0000

> <Gold.PLP.part.buried>
-5.9073

> <Gold.PLP.part.nonpolar>
-28.4929

> <Gold.PLP.part.repulsive>
0.2607

> <Gold.PLP.ligand.clash>
0.0000

> <Gold.PLP.ligand.torsion>
0.7703

> <Gold.PLP.Chemscore.Hbond>
2.7760

> <Gold.PLP.Chemscore.CHOScore>
0.0000

> <Gold.PLP.Chemscore.Metal>
0.0000

> <Gold.Chemscore.Hbonds>
donor molecule, donor type, donor heavy atom, donor atom, acceptor molecule, acceptor atom, score
      L1  H     4    55       P1 10957  1.40
      P1  H 11000 11005       L1     9  0.98

> <Gold.PLP.Chemscore.Internal.Correction>
0.3657

> <Gold.Rescore>
     Score         DG    S(hbond)    S(metal)    S(lipo)     H(rot)  DE(clash)    DE(int)     intcor
     15.80     -17.94       1.63        0.00      94.89       1.60       0.06       2.08       ----

> <Gold.Chemscore.Fitness>
15.7982

> <Gold.Chemscore.DG>
-17.9399

> <Gold.Chemscore.ZeroCoef>
-5.4800

> <Gold.Chemscore.Hbond>
1.6313

> <Gold.Chemscore.Metal>
0.0000

> <Gold.Chemscore.Lipo>
94.8871

> <Gold.Chemscore.Internal_Hbond>
0.0000

> <Gold.Chemscore.DEClash>
0.0601

> <Gold.Chemscore.DEInternal>
2.0816

> <Gold.Chemscore.Rot>
1.5978

> <Gold.Chemscore.Internal.Correction>
   9.000000E+99

> <Gold.Chemscore.Hbonds>
donor molecule, donor type, donor heavy atom, donor atom, acceptor molecule, acceptor atom, score
      L1  H     4    55       P1 10957  0.14
      P1  H 11000 11005       L1     9  0.93

> <Gold.Chemscore.Hbond.Weighted>
-5.4486

> <Gold.Chemscore.Metal.Weighted>
-0.0000

> <Gold.Chemscore.Lipo.Weighted>
-11.1018

> <Gold.Chemscore.Internal_Hbond.Weighted>
0.0000

> <Gold.Chemscore.DEClash.Weighted>
0.0601

> <Gold.Chemscore.DEInternal.Weighted>
2.0816

> <Gold.Chemscore.Rot.Weighted>
4.0905

> <Gold.Chemscore.Internal.Correction.Weighted>
   9.000000E+99

> <Gold.Protein.RotatedTorsions>
[ 6907 6896 6895 6894 ] final  171.21 input  -60.11 | X-H torsion
[ 7974 7965 7964 7962 ] final -142.50 input  175.53 | X-H torsion
[ 8008 7997 7996 7995 ] final -117.40 input   59.86 | X-H torsion
[ 10167 10162 10161 10158 ] final  168.06 input  -65.29 | X-H torsion
[ 10718 10713 10712 10709 ] final   39.19 input   66.30 | X-H torsion
[ 10763 10752 10751 10750 ] final   27.81 input  -60.55 | X-H torsion
[ 11005 11000 10999 10996 ] final -103.54 input  -57.11 | X-H torsion

> <Gold.Protein.ActiveResidues>
 VAL166  LYS551  ARG553  GLY616  TRP617  ASP618  TYR619  PRO620  LYS621  CYS622 
 ASP623  PHE694  ASN695  SER759  ASP760  ASP761  ALA762  ILE779  LEU786  VAL792 
 PHE793  MET794  SER795  GLU796  ALA797  LYS798  CYS799  TRP800  GLU811  SER814 

> <Gold.Protein.RotatedAtoms>
  151.8038  133.3373  159.3534 H   0  0  0  0  0  0  0  0  0  0  0  0  # atno 6907 bound_to 6896
  150.7349  134.5729  159.5909 H   0  0  0  0  0  0  0  0  0  0  0  0  # atno 6908 bound_to 6896
  152.3124  134.7482  160.0384 H   0  0  0  0  0  0  0  0  0  0  0  0  # atno 6909 bound_to 6896
  144.8439  140.5950  143.5434 H   0  0  0  0  0  0  0  0  0  0  0  0  # atno 7974 bound_to 7965
  155.0830  140.0394  157.2645 H   0  0  0  0  0  0  0  0  0  0  0  0  # atno 8008 bound_to 7997
  154.6891  140.2649  155.6805 H   0  0  0  0  0  0  0  0  0  0  0  0  # atno 8009 bound_to 7997
  156.2722  140.2763  156.1463 H   0  0  0  0  0  0  0  0  0  0  0  0  # atno 8010 bound_to 7997
  139.4959  144.3855  151.9575 H   0  0  0  0  0  0  0  0  0  0  0  0  # atno 10167 bound_to 10162
  157.3676  130.7684  149.7095 H   0  0  0  0  0  0  0  0  0  0  0  0  # atno 10718 bound_to 10713
  153.0531  135.6528  154.0643 H   0  0  0  0  0  0  0  0  0  0  0  0  # atno 10763 bound_to 10752
  154.0327  135.2910  155.3368 H   0  0  0  0  0  0  0  0  0  0  0  0  # atno 10764 bound_to 10752
  154.6832  135.5312  153.8357 H   0  0  0  0  0  0  0  0  0  0  0  0  # atno 10765 bound_to 10752
  141.1141  133.8649  157.1499 H   0  0  0  0  0  0  0  0  0  0  0  0  # atno 11005 bound_to 11000
  145.4637  139.1510  143.3852 LP  0  0  0  0  0  0  0  0  0  0  0  0  # atno 17320 bound_to 7965
  146.2727  140.4768  142.8808 LP  0  0  0  0  0  0  0  0  0  0  0  0  # atno 17321 bound_to 7965
  140.3292  144.3336  150.5991 LP  0  0  0  0  0  0  0  0  0  0  0  0  # atno 17342 bound_to 10162
  140.5659  143.2186  151.7685 LP  0  0  0  0  0  0  0  0  0  0  0  0  # atno 17343 bound_to 10162
  155.9749  130.4096  150.3887 LP  0  0  0  0  0  0  0  0  0  0  0  0  # atno 17370 bound_to 10713
  157.1974  131.0430  151.2668 LP  0  0  0  0  0  0  0  0  0  0  0  0  # atno 17371 bound_to 10713
  140.0052  135.0011  157.0277 LP  0  0  0  0  0  0  0  0  0  0  0  0  # atno 17394 bound_to 11000
  140.4694  134.1402  155.7201 LP  0  0  0  0  0  0  0  0  0  0  0  0  # atno 17395 bound_to 11000

$$$$
