AV-unprocessed.smi:1620|AV-procd|sdf|6491|dock1
  -GOLD-   22720 7153D 1   1.00000     0.00000
 Structure written by MMmdl.
 40 40  0  0  0  0  0  0  0  0  1 V2000
  147.8015  133.0631  160.9068 C   0  0  0  0  0  0  0  0  0  0  0  0
  147.3696  134.0580  161.9991 C   0  0  0  0  0  0  0  0  0  0  0  0
  145.9898  133.6482  162.5480 C   0  0  0  0  0  0  0  0  0  0  0  0
  147.4064  135.5321  161.5008 C   0  0  2  0  0  0  0  0  0  0  0  0
  147.2974  136.5866  162.6232 C   0  0  0  0  0  0  0  0  0  0  0  0
  146.3964  135.7917  160.4421 N   0  0  0  0  0  0  0  0  0  0  0  0
  145.0145  135.9690  160.9090 C   0  0  0  0  0  0  0  0  0  0  0  0
  146.6634  135.9938  159.1241 C   0  0  0  0  0  0  0  0  0  0  0  0
  145.7996  135.8908  158.2512 O   0  0  0  0  0  0  0  0  0  0  0  0
  147.9609  136.2247  158.8446 N   0  0  0  0  0  0  0  0  0  0  0  0
  148.5495  136.4666  157.5778 C   0  0  0  0  0  0  0  0  0  0  0  0
  147.9106  136.2323  156.3326 C   0  0  0  0  0  0  0  0  0  0  0  0
  148.7033  136.5483  155.3199 N   0  0  0  0  0  0  0  0  0  0  0  0
  149.8531  136.9825  155.8953 N   0  0  0  0  0  0  0  0  0  0  0  0
  150.9595  137.4117  155.0591 C   0  0  0  0  0  0  0  0  0  0  0  0
  150.5788  138.6366  154.2259 C   0  0  0  0  0  0  0  0  0  0  0  0
  149.7336  138.4436  153.2098 N   0  0  0  0  0  0  0  0  0  0  0  0
  151.0416  139.7425  154.4970 O   0  0  0  0  0  0  0  0  0  0  0  0
  149.7932  136.9437  157.2747 C   0  0  0  0  0  0  0  0  0  0  0  0
  147.1637  133.1393  160.0256 H   0  0  0  0  0  0  0  0  0  0  0  0
  147.7443  132.0357  161.2678 H   0  0  0  0  0  0  0  0  0  0  0  0
  148.8315  133.2284  160.5921 H   0  0  0  0  0  0  0  0  0  0  0  0
  148.0812  133.9540  162.8184 H   0  0  0  0  0  0  0  0  0  0  0  0
  145.2148  133.7509  161.7879 H   0  0  0  0  0  0  0  0  0  0  0  0
  145.6985  134.2518  163.4074 H   0  0  0  0  0  0  0  0  0  0  0  0
  145.9926  132.6091  162.8783 H   0  0  0  0  0  0  0  0  0  0  0  0
  148.4096  135.6879  161.1044 H   0  0  0  0  0  0  0  0  0  0  0  0
  148.1707  136.5670  163.2745 H   0  0  0  0  0  0  0  0  0  0  0  0
  146.4200  136.4315  163.2509 H   0  0  0  0  0  0  0  0  0  0  0  0
  147.2371  137.5935  162.2087 H   0  0  0  0  0  0  0  0  0  0  0  0
  144.3056  135.4693  160.2467 H   0  0  0  0  0  0  0  0  0  0  0  0
  144.7588  137.0289  160.9426 H   0  0  0  0  0  0  0  0  0  0  0  0
  144.8514  135.5557  161.9035 H   0  0  0  0  0  0  0  0  0  0  0  0
  148.5934  136.2350  159.6316 H   0  0  0  0  0  0  0  0  0  0  0  0
  146.9192  135.8530  156.1335 H   0  0  0  0  0  0  0  0  0  0  0  0
  151.8278  137.6311  155.6828 H   0  0  0  0  0  0  0  0  0  0  0  0
  151.2392  136.5885  154.4003 H   0  0  0  0  0  0  0  0  0  0  0  0
  149.4476  139.2251  152.6379 H   0  0  0  0  0  0  0  0  0  0  0  0
  149.3768  137.5177  153.0227 H   0  0  0  0  0  0  0  0  0  0  0  0
  150.6246  137.2512  157.8918 H   0  0  0  0  0  0  0  0  0  0  0  0
  1  2  1  0  0  0  0
  1 20  1  0  0  0  0
  1 21  1  0  0  0  0
  1 22  1  0  0  0  0
  2  3  1  0  0  0  0
  2  4  1  0  0  0  0
  2 23  1  0  0  0  0
  3 24  1  0  0  0  0
  3 25  1  0  0  0  0
  3 26  1  0  0  0  0
  4  5  1  0  0  0  0
  4  6  1  0  0  0  0
  4 27  1  0  0  0  0
  5 28  1  0  0  0  0
  5 29  1  0  0  0  0
  5 30  1  0  0  0  0
  6  7  1  0  0  0  0
  6  8  1  0  0  0  0
  7 31  1  0  0  0  0
  7 32  1  0  0  0  0
  7 33  1  0  0  0  0
  8  9  2  0  0  0  0
  8 10  1  0  0  0  0
 10 11  1  0  0  0  0
 10 34  1  0  0  0  0
 11 19  2  0  0  0  0
 11 12  1  0  0  0  0
 12 13  2  0  0  0  0
 12 35  1  0  0  0  0
 13 14  1  0  0  0  0
 14 15  1  0  0  0  0
 14 19  1  0  0  0  0
 15 16  1  0  0  0  0
 15 36  1  0  0  0  0
 15 37  1  0  0  0  0
 16 17  1  0  0  0  0
 16 18  2  0  0  0  0
 17 38  1  0  0  0  0
 17 39  1  0  0  0  0
 19 40  1  0  0  0  0
M  END
> <s_m_source_file>
AV-unprocessed.smi

> <i_m_source_file_index>
1620

> <i_lp_mmshare_version>
43012

> <i_f3d_flags>
0

> <s_epik_input>
W0NIM11bQ0hdKFtDSDNdKVtDQEhdKFtDSDNdKU4oW0NIM10pQyg9TylbTkhdYzFbY0hdbm4oW2NIXTEpW0NIMl1DKD1PKVtOSDJd

> <s_epik_cmdline>
J2VwaWtfcHl0aG9uJywgJy1waCcsICc3LjAnLCAnLXRuJywgJzgnLCAnLW1hJywgJzIwMCcsICctbWV0YWxfYmluZGluZycsICctaW1hZScsICc8aW5maWxlLm1hZT4nLCAnLW9tYWUnLCAnPG91dGZpbGUubWFlPic=

> <r_lp_tautomer_probability>
1

> <r_epik_Ionization_Penalty>
4.85642e-05

> <r_epik_Ionization_Penalty_Charging>
0

> <r_epik_Ionization_Penalty_Neutral>
4.85642e-05

> <r_epik_State_Penalty>
-0

> <r_epik_Charging_Adjusted_Penalty>
0

> <i_epik_Tot_Q>
0

> <i_epik_Tot_abs_Q>
0

> <r_epik_Metal_State_Penalty>
-0

> <b_epik_Metal_Only>
0

> <s_lp_Force_Field>
OPLS_2005

> <r_lp_Energy>
32.3257

> <b_lp_Chiralities_Consistent>
1

> <s_lp_Variant>
AV-unprocessed.smi:1620-1

> <Gold.Version>
5.8.1

> <Gold.Id.Protein>
6NUR|6NUR_protein|mol2

> <Gold.PLP.Fitness>
34.2606

> <Gold.PLP.PLP>
-26.3535

> <Gold.PLP.part.hbond>
-3.2959

> <Gold.PLP.part.metal>
0.0000

> <Gold.PLP.part.buried>
-3.6802

> <Gold.PLP.part.nonpolar>
-19.2343

> <Gold.PLP.part.repulsive>
0.3871

> <Gold.PLP.ligand.clash>
0.0000

> <Gold.PLP.ligand.torsion>
0.6541

> <Gold.PLP.Chemscore.Hbond>
2.9920

> <Gold.PLP.Chemscore.CHOScore>
0.0000

> <Gold.PLP.Chemscore.Metal>
0.0000

> <Gold.Chemscore.Hbonds>
donor molecule, donor type, donor heavy atom, donor atom, acceptor molecule, acceptor atom, score
      L1  H    17    38       P1  7957  0.93
      L1  H    17    39       P1  7948  0.98
      P1  H  7989  7998       L1    18  1.00

> <Gold.PLP.Chemscore.Internal.Correction>
0.2392

> <Gold.Rescore>
     Score         DG    S(hbond)    S(metal)    S(lipo)     H(rot)  DE(clash)    DE(int)     intcor
     13.72     -15.81       2.79        0.00      54.65       2.10       0.00       2.09       ----

> <Gold.Chemscore.Fitness>
13.7212

> <Gold.Chemscore.DG>
-15.8147

> <Gold.Chemscore.ZeroCoef>
-5.4800

> <Gold.Chemscore.Hbond>
2.7924

> <Gold.Chemscore.Metal>
0.0000

> <Gold.Chemscore.Lipo>
54.6516

> <Gold.Chemscore.Internal_Hbond>
0.0000

> <Gold.Chemscore.DEClash>
0.0000

> <Gold.Chemscore.DEInternal>
2.0935

> <Gold.Chemscore.Rot>
2.1039

> <Gold.Chemscore.Internal.Correction>
   9.000000E+99

> <Gold.Chemscore.Hbonds>
donor molecule, donor type, donor heavy atom, donor atom, acceptor molecule, acceptor atom, score
      L1  H    17    38       P1  7957  0.89
      L1  H    17    39       P1  7948  0.87
      P1  H  7989  7998       L1    18  0.99

> <Gold.Chemscore.Hbond.Weighted>
-9.3265

> <Gold.Chemscore.Metal.Weighted>
-0.0000

> <Gold.Chemscore.Lipo.Weighted>
-6.3942

> <Gold.Chemscore.Internal_Hbond.Weighted>
0.0000

> <Gold.Chemscore.DEClash.Weighted>
0.0000

> <Gold.Chemscore.DEInternal.Weighted>
2.0935

> <Gold.Chemscore.Rot.Weighted>
5.3860

> <Gold.Chemscore.Internal.Correction.Weighted>
   9.000000E+99

> <Gold.Protein.RotatedTorsions>
[ 6907 6896 6895 6894 ] final  -72.22 input  -60.11 | X-H torsion
[ 7974 7965 7964 7962 ] final  112.73 input  175.53 | X-H torsion
[ 8008 7997 7996 7995 ] final  -31.43 input   59.86 | X-H torsion
[ 10167 10162 10161 10158 ] final   25.65 input  -65.29 | X-H torsion
[ 10718 10713 10712 10709 ] final   19.72 input   66.30 | X-H torsion
[ 10763 10752 10751 10750 ] final  100.18 input  -60.55 | X-H torsion
[ 11005 11000 10999 10996 ] final  144.58 input  -57.11 | X-H torsion

> <Gold.Protein.ActiveResidues>
 VAL166  LYS551  ARG553  GLY616  TRP617  ASP618  TYR619  PRO620  LYS621  CYS622 
 ASP623  PHE694  ASN695  SER759  ASP760  ASP761  ALA762  ILE779  LEU786  VAL792 
 PHE793  MET794  SER795  GLU796  ALA797  LYS798  CYS799  TRP800  GLU811  SER814 

> <Gold.Protein.RotatedAtoms>
  150.7179  134.5195  159.5646 H   0  0  0  0  0  0  0  0  0  0  0  0  # atno 6907 bound_to 6896
  152.2753  134.7885  160.0416 H   0  0  0  0  0  0  0  0  0  0  0  0  # atno 6908 bound_to 6896
  151.8551  133.3411  159.3722 H   0  0  0  0  0  0  0  0  0  0  0  0  # atno 6909 bound_to 6896
  145.2258  139.2841  143.4194 H   0  0  0  0  0  0  0  0  0  0  0  0  # atno 7974 bound_to 7965
  154.4214  140.1764  156.1565 H   0  0  0  0  0  0  0  0  0  0  0  0  # atno 8008 bound_to 7997
  155.9873  140.3372  155.6695 H   0  0  0  0  0  0  0  0  0  0  0  0  # atno 8009 bound_to 7997
  155.6420  140.0681  157.2606 H   0  0  0  0  0  0  0  0  0  0  0  0  # atno 8010 bound_to 7997
  140.5089  144.0193  150.6364 H   0  0  0  0  0  0  0  0  0  0  0  0  # atno 10167 bound_to 10162
  157.1144  130.6522  149.5906 H   0  0  0  0  0  0  0  0  0  0  0  0  # atno 10718 bound_to 10713
  153.3107  135.4088  155.1333 H   0  0  0  0  0  0  0  0  0  0  0  0  # atno 10763 bound_to 10752
  154.8575  135.3563  154.5728 H   0  0  0  0  0  0  0  0  0  0  0  0  # atno 10764 bound_to 10752
  153.6157  135.7066  153.5388 H   0  0  0  0  0  0  0  0  0  0  0  0  # atno 10765 bound_to 10752
  140.0643  134.9187  157.1238 H   0  0  0  0  0  0  0  0  0  0  0  0  # atno 11005 bound_to 11000
  146.3365  140.2578  142.8601 LP  0  0  0  0  0  0  0  0  0  0  0  0  # atno 17320 bound_to 7965
  144.9722  140.8380  143.5448 LP  0  0  0  0  0  0  0  0  0  0  0  0  # atno 17321 bound_to 7965
  140.3510  143.2963  152.0487 LP  0  0  0  0  0  0  0  0  0  0  0  0  # atno 17342 bound_to 10162
  139.4891  144.6373  151.6948 LP  0  0  0  0  0  0  0  0  0  0  0  0  # atno 17343 bound_to 10162
  155.9843  130.4867  150.6975 LP  0  0  0  0  0  0  0  0  0  0  0  0  # atno 17370 bound_to 10713
  157.4531  131.0875  151.0825 LP  0  0  0  0  0  0  0  0  0  0  0  0  # atno 17371 bound_to 10713
  140.3722  134.2378  155.7177 LP  0  0  0  0  0  0  0  0  0  0  0  0  # atno 17394 bound_to 11000
  141.1986  133.8031  157.0573 LP  0  0  0  0  0  0  0  0  0  0  0  0  # atno 17395 bound_to 11000

$$$$
