AV-unprocessed.smi:2734|AV-procd|sdf|10537|dock2
  -GOLD-   2272014583D 1   1.00000     0.00000
 Structure written by MMmdl.
 40 42  0  0  0  0  0  0  0  0  1 V2000
  151.5624  144.4294  157.9204 C   0  0  0  0  0  0  0  0  0  0  0  0
  152.2990  143.4853  158.8543 C   0  0  0  0  0  0  0  0  0  0  0  0
  152.6190  142.1845  158.4039 C   0  0  0  0  0  0  0  0  0  0  0  0
  153.3047  141.2766  159.2404 C   0  0  0  0  0  0  0  0  0  0  0  0
  153.7144  139.9747  159.0094 N   0  0  0  0  0  0  0  0  0  0  0  0
  154.2971  139.6683  160.1653 C   0  0  0  0  0  0  0  0  0  0  0  0
  154.3124  140.6194  161.1190 N   0  0  0  0  0  0  0  0  0  0  0  0
  154.8837  140.5198  162.4501 C   0  0  0  0  0  0  0  0  0  0  0  0
  155.6075  139.1799  162.6811 C   0  0  2  0  0  0  0  0  0  0  0  0
  154.6537  138.1635  162.9245 O   0  0  0  0  0  0  0  0  0  0  0  0
  156.5842  139.2523  163.8655 C   0  0  0  0  0  0  0  0  0  0  0  0
  155.7423  139.6776  165.4213 S   0  0  0  0  0  0  0  0  0  0  0  0
  155.8212  141.4402  165.3350 C   0  0  0  0  0  0  0  0  0  0  0  0
  156.1709  142.1676  164.2801 N   0  0  0  0  0  0  0  0  0  0  0  0
  156.0724  143.4721  164.7254 N   0  0  0  0  0  0  0  0  0  0  0  0
  155.6893  143.5183  165.9680 N   0  0  0  0  0  0  0  0  0  0  0  0
  155.5246  142.2350  166.3707 N   0  0  0  0  0  0  0  0  0  0  0  0
  155.0980  141.9226  167.7201 C   0  0  0  0  0  0  0  0  0  0  0  0
  153.6628  141.7090  160.5506 C   0  0  0  0  0  0  0  0  0  0  0  0
  153.3498  143.0000  161.0107 C   0  0  0  0  0  0  0  0  0  0  0  0
  152.6660  143.8951  160.1615 C   0  0  0  0  0  0  0  0  0  0  0  0
  152.3353  145.2886  160.6660 C   0  0  0  0  0  0  0  0  0  0  0  0
  151.3432  143.9536  156.9642 H   0  0  0  0  0  0  0  0  0  0  0  0
  152.1644  145.3166  157.7224 H   0  0  0  0  0  0  0  0  0  0  0  0
  150.6164  144.7433  158.3617 H   0  0  0  0  0  0  0  0  0  0  0  0
  152.3403  141.8720  157.4084 H   0  0  0  0  0  0  0  0  0  0  0  0
  154.7409  138.6969  160.3281 H   0  0  0  0  0  0  0  0  0  0  0  0
  155.5772  141.3510  162.5828 H   0  0  0  0  0  0  0  0  0  0  0  0
  154.0884  140.6570  163.1845 H   0  0  0  0  0  0  0  0  0  0  0  0
  156.1614  138.9145  161.7797 H   0  0  0  0  0  0  0  0  0  0  0  0
  154.4247  138.1818  163.8414 H   0  0  0  0  0  0  0  0  0  0  0  0
  157.0723  138.2854  163.9946 H   0  0  0  0  0  0  0  0  0  0  0  0
  157.3678  139.9843  163.6650 H   0  0  0  0  0  0  0  0  0  0  0  0
  155.8940  141.3909  168.2414 H   0  0  0  0  0  0  0  0  0  0  0  0
  154.2088  141.2925  167.6878 H   0  0  0  0  0  0  0  0  0  0  0  0
  154.8636  142.8355  168.2689 H   0  0  0  0  0  0  0  0  0  0  0  0
  153.6357  143.2982  162.0085 H   0  0  0  0  0  0  0  0  0  0  0  0
  152.6992  145.4405  161.6826 H   0  0  0  0  0  0  0  0  0  0  0  0
  151.2568  145.4477  160.6693 H   0  0  0  0  0  0  0  0  0  0  0  0
  152.7958  146.0446  160.0297 H   0  0  0  0  0  0  0  0  0  0  0  0
  1  2  1  0  0  0  0
  1 23  1  0  0  0  0
  1 24  1  0  0  0  0
  1 25  1  0  0  0  0
  2 21  1  0  0  0  0
  2  3  2  0  0  0  0
  3  4  1  0  0  0  0
  3 26  1  0  0  0  0
  4 19  2  0  0  0  0
  4  5  1  0  0  0  0
  5  6  2  0  0  0  0
  6  7  1  0  0  0  0
  6 27  1  0  0  0  0
  7  8  1  0  0  0  0
  7 19  1  0  0  0  0
  8  9  1  0  0  0  0
  8 28  1  0  0  0  0
  8 29  1  0  0  0  0
  9 10  1  0  0  0  0
  9 11  1  0  0  0  0
  9 30  1  0  0  0  0
 10 31  1  0  0  0  0
 11 12  1  0  0  0  0
 11 32  1  0  0  0  0
 11 33  1  0  0  0  0
 12 13  1  0  0  0  0
 13 17  1  0  0  0  0
 13 14  2  0  0  0  0
 14 15  1  0  0  0  0
 15 16  2  0  0  0  0
 16 17  1  0  0  0  0
 17 18  1  0  0  0  0
 18 34  1  0  0  0  0
 18 35  1  0  0  0  0
 18 36  1  0  0  0  0
 19 20  1  0  0  0  0
 20 21  2  0  0  0  0
 20 37  1  0  0  0  0
 21 22  1  0  0  0  0
 22 38  1  0  0  0  0
 22 39  1  0  0  0  0
 22 40  1  0  0  0  0
M  END
> <s_m_source_file>
AV-unprocessed.smi

> <i_m_source_file_index>
2734

> <i_lp_mmshare_version>
43012

> <i_f3d_flags>
0

> <s_epik_input>
W0NIM11jKFtjSF0xKWMoW0NIM10pW2NIXWMoYzEyKW4oW2NIXW4yKVtDSDJdW0NASF0oW09IXSlbQ0gyXVNjM25ubm4zW0NIM10=

> <s_epik_cmdline>
J2VwaWtfcHl0aG9uJywgJy1waCcsICc3LjAnLCAnLXRuJywgJzgnLCAnLW1hJywgJzIwMCcsICctbWV0YWxfYmluZGluZycsICctaW1hZScsICc8aW5maWxlLm1hZT4nLCAnLW9tYWUnLCAnPG91dGZpbGUubWFlPic=

> <r_lp_tautomer_probability>
1

> <r_epik_Ionization_Penalty>
0.105517

> <r_epik_Ionization_Penalty_Charging>
0

> <r_epik_Ionization_Penalty_Neutral>
0.105517

> <r_epik_State_Penalty>
0.0953887

> <r_epik_Charging_Adjusted_Penalty>
0.0953887

> <i_epik_Tot_Q>
0

> <i_epik_Tot_abs_Q>
0

> <r_epik_Metal_State_Penalty>
0.0808533

> <b_epik_Metal_Only>
0

> <s_lp_Force_Field>
OPLS_2005

> <r_lp_Energy>
9.5145

> <b_lp_Chiralities_Consistent>
1

> <s_lp_Variant>
AV-unprocessed.smi:2734-1

> <Gold.Version>
5.8.1

> <Gold.Id.Protein>
6NUR|6NUR_protein|mol2

> <Gold.PLP.Fitness>
49.2009

> <Gold.PLP.PLP>
-46.9779

> <Gold.PLP.part.hbond>
-2.8996

> <Gold.PLP.part.metal>
0.0000

> <Gold.PLP.part.buried>
-5.2941

> <Gold.PLP.part.nonpolar>
-37.3497

> <Gold.PLP.part.repulsive>
0.0135

> <Gold.PLP.ligand.clash>
0.0000

> <Gold.PLP.ligand.torsion>
0.4673

> <Gold.PLP.Chemscore.Hbond>
0.9913

> <Gold.PLP.Chemscore.CHOScore>
0.0000

> <Gold.PLP.Chemscore.Metal>
0.0000

> <Gold.Chemscore.Hbonds>
donor molecule, donor type, donor heavy atom, donor atom, acceptor molecule, acceptor atom, score
      P1  H  7997  8009       L1     5  0.83

> <Gold.PLP.Chemscore.Internal.Correction>
0.1838

> <Gold.Rescore>
     Score         DG    S(hbond)    S(metal)    S(lipo)     H(rot)  DE(clash)    DE(int)     intcor
     11.18     -14.36       0.81        0.00     115.00       2.85       1.42       1.77       ----

> <Gold.Chemscore.Fitness>
11.1806

> <Gold.Chemscore.DG>
-14.3620

> <Gold.Chemscore.ZeroCoef>
-5.4800

> <Gold.Chemscore.Hbond>
0.8116

> <Gold.Chemscore.Metal>
0.0000

> <Gold.Chemscore.Lipo>
115.0000

> <Gold.Chemscore.Internal_Hbond>
0.0000

> <Gold.Chemscore.DEClash>
1.4162

> <Gold.Chemscore.DEInternal>
1.7652

> <Gold.Chemscore.Rot>
2.8452

> <Gold.Chemscore.Internal.Correction>
   9.000000E+99

> <Gold.Chemscore.Hbonds>
donor molecule, donor type, donor heavy atom, donor atom, acceptor molecule, acceptor atom, score
      P1  H  7997  8009       L1     5  0.42

> <Gold.Chemscore.Hbond.Weighted>
-2.7107

> <Gold.Chemscore.Metal.Weighted>
-0.0000

> <Gold.Chemscore.Lipo.Weighted>
-13.4550

> <Gold.Chemscore.Internal_Hbond.Weighted>
0.0000

> <Gold.Chemscore.DEClash.Weighted>
1.4162

> <Gold.Chemscore.DEInternal.Weighted>
1.7652

> <Gold.Chemscore.Rot.Weighted>
7.2837

> <Gold.Chemscore.Internal.Correction.Weighted>
   9.000000E+99

> <Gold.Protein.RotatedTorsions>
[ 6907 6896 6895 6894 ] final  -64.48 input  -60.11 | X-H torsion
[ 7974 7965 7964 7962 ] final -102.18 input  175.53 | X-H torsion
[ 8008 7997 7996 7995 ] final  136.75 input   59.86 | X-H torsion
[ 10167 10162 10161 10158 ] final   15.43 input  -65.29 | X-H torsion
[ 10718 10713 10712 10709 ] final  128.54 input   66.30 | X-H torsion
[ 10763 10752 10751 10750 ] final   -7.16 input  -60.55 | X-H torsion
[ 11005 11000 10999 10996 ] final -158.22 input  -57.11 | X-H torsion

> <Gold.Protein.ActiveResidues>
 VAL166  LYS551  ARG553  GLY616  TRP617  ASP618  TYR619  PRO620  LYS621  CYS622 
 ASP623  PHE694  ASN695  SER759  ASP760  ASP761  ALA762  ILE779  LEU786  VAL792 
 PHE793  MET794  SER795  GLU796  ALA797  LYS798  CYS799  TRP800  GLU811  SER814 

> <Gold.Protein.RotatedAtoms>
  150.7583  134.6292  159.6177 H   0  0  0  0  0  0  0  0  0  0  0  0  # atno 6907 bound_to 6896
  152.3575  134.6916  160.0226 H   0  0  0  0  0  0  0  0  0  0  0  0  # atno 6908 bound_to 6896
  151.7317  133.3282  159.3378 H   0  0  0  0  0  0  0  0  0  0  0  0  # atno 6909 bound_to 6896
  145.2720  140.9301  143.2981 H   0  0  0  0  0  0  0  0  0  0  0  0  # atno 7974 bound_to 7965
  156.3003  140.2437  156.3797 H   0  0  0  0  0  0  0  0  0  0  0  0  # atno 8008 bound_to 7997
  154.8713  140.0416  157.1746 H   0  0  0  0  0  0  0  0  0  0  0  0  # atno 8009 bound_to 7997
  154.8793  140.2947  155.5439 H   0  0  0  0  0  0  0  0  0  0  0  0  # atno 8010 bound_to 7997
  140.5868  143.8874  150.6837 H   0  0  0  0  0  0  0  0  0  0  0  0  # atno 10167 bound_to 10162
  157.5236  131.1098  150.9117 H   0  0  0  0  0  0  0  0  0  0  0  0  # atno 10718 bound_to 10713
  153.4224  135.7010  153.6285 H   0  0  0  0  0  0  0  0  0  0  0  0  # atno 10763 bound_to 10752
  153.4734  135.3709  155.2403 H   0  0  0  0  0  0  0  0  0  0  0  0  # atno 10764 bound_to 10752
  154.8722  135.4048  154.3595 H   0  0  0  0  0  0  0  0  0  0  0  0  # atno 10765 bound_to 10752
  140.6560  134.4400  157.5235 H   0  0  0  0  0  0  0  0  0  0  0  0  # atno 11005 bound_to 11000
  144.9327  139.4280  143.6487 LP  0  0  0  0  0  0  0  0  0  0  0  0  # atno 17320 bound_to 7965
  146.3243  139.8246  142.8920 LP  0  0  0  0  0  0  0  0  0  0  0  0  # atno 17321 bound_to 7965
  140.2387  143.3680  152.1505 LP  0  0  0  0  0  0  0  0  0  0  0  0  # atno 17342 bound_to 10162
  139.5202  144.7030  151.5437 LP  0  0  0  0  0  0  0  0  0  0  0  0  # atno 17343 bound_to 10162
  156.9720  130.5494  149.5291 LP  0  0  0  0  0  0  0  0  0  0  0  0  # atno 17370 bound_to 10713
  156.0371  130.5457  150.8679 LP  0  0  0  0  0  0  0  0  0  0  0  0  # atno 17371 bound_to 10713
  139.9029  134.8514  156.1821 LP  0  0  0  0  0  0  0  0  0  0  0  0  # atno 17394 bound_to 11000
  141.0501  133.6893  156.1756 LP  0  0  0  0  0  0  0  0  0  0  0  0  # atno 17395 bound_to 11000

$$$$
