AV-unprocessed.smi:1637|AV-procd|sdf|6545|dock3
  -GOLD-   22720 7233D 1   1.00000     0.00000
 Structure written by MMmdl.
 38 39  0  0  0  0  0  0  0  0  1 V2000
  151.4737  140.5857  155.9253 C   0  0  0  0  0  0  0  0  0  0  0  0
  150.5864  141.4118  155.1794 O   0  0  0  0  0  0  0  0  0  0  0  0
  149.4094  140.8592  154.7176 C   0  0  0  0  0  0  0  0  0  0  0  0
  148.2904  141.6984  154.5508 C   0  0  0  0  0  0  0  0  0  0  0  0
  147.0859  141.1444  154.0762 C   0  0  0  0  0  0  0  0  0  0  0  0
  147.0368  139.7591  153.7867 C   0  0  0  0  0  0  0  0  0  0  0  0
  145.8959  139.0691  153.2909 N   0  0  0  0  0  0  0  0  0  0  0  0
  145.7480  137.7680  152.9869 C   0  0  0  0  0  0  0  0  0  0  0  0
  146.6265  136.9095  153.0585 O   0  0  0  0  0  0  0  0  0  0  0  0
  144.4973  137.5108  152.5779 N   0  0  0  0  0  0  0  0  0  0  0  0
  143.9869  136.2073  152.1491 C   0  0  1  0  0  0  0  0  0  0  0  0
  144.9810  135.5438  151.1696 C   0  0  0  0  0  0  0  0  0  0  0  0
  144.3469  134.4810  150.2580 C   0  0  0  0  0  0  0  0  0  0  0  0
  143.7661  133.2633  150.9921 C   0  0  0  0  0  0  0  0  0  0  0  0
  142.5680  133.6011  151.8959 C   0  0  0  0  0  0  0  0  0  0  0  0
  142.9743  134.1789  153.1710 N   0  0  0  0  0  0  0  0  0  0  0  0
  143.6227  135.3370  153.3668 C   0  0  0  0  0  0  0  0  0  0  0  0
  143.9295  135.6963  154.5034 O   0  0  0  0  0  0  0  0  0  0  0  0
  148.2142  139.0083  153.9852 C   0  0  0  0  0  0  0  0  0  0  0  0
  149.3719  139.5331  154.4385 N   0  0  0  0  0  0  0  0  0  0  0  0
  152.3479  141.1673  156.2170 H   0  0  0  0  0  0  0  0  0  0  0  0
  151.8224  139.7389  155.3326 H   0  0  0  0  0  0  0  0  0  0  0  0
  151.0037  140.2156  156.8375 H   0  0  0  0  0  0  0  0  0  0  0  0
  148.3557  142.7521  154.7792 H   0  0  0  0  0  0  0  0  0  0  0  0
  146.2397  141.7982  153.9404 H   0  0  0  0  0  0  0  0  0  0  0  0
  145.0840  139.6482  153.1344 H   0  0  0  0  0  0  0  0  0  0  0  0
  143.8432  138.2791  152.5406 H   0  0  0  0  0  0  0  0  0  0  0  0
  143.0514  136.3927  151.6176 H   0  0  0  0  0  0  0  0  0  0  0  0
  145.4169  136.3053  150.5215 H   0  0  0  0  0  0  0  0  0  0  0  0
  145.8187  135.1130  151.7201 H   0  0  0  0  0  0  0  0  0  0  0  0
  143.5697  134.9431  149.6478 H   0  0  0  0  0  0  0  0  0  0  0  0
  145.1053  134.1321  149.5564 H   0  0  0  0  0  0  0  0  0  0  0  0
  143.4358  132.5453  150.2405 H   0  0  0  0  0  0  0  0  0  0  0  0
  144.5442  132.7576  151.5655 H   0  0  0  0  0  0  0  0  0  0  0  0
  141.8617  134.2585  151.3869 H   0  0  0  0  0  0  0  0  0  0  0  0
  142.0229  132.6845  152.1220 H   0  0  0  0  0  0  0  0  0  0  0  0
  142.7513  133.6368  153.9933 H   0  0  0  0  0  0  0  0  0  0  0  0
  148.2307  137.9491  153.7729 H   0  0  0  0  0  0  0  0  0  0  0  0
  1  2  1  0  0  0  0
  1 21  1  0  0  0  0
  1 22  1  0  0  0  0
  1 23  1  0  0  0  0
  2  3  1  0  0  0  0
  3 20  1  0  0  0  0
  3  4  2  0  0  0  0
  4  5  1  0  0  0  0
  4 24  1  0  0  0  0
  5  6  2  0  0  0  0
  5 25  1  0  0  0  0
  6  7  1  0  0  0  0
  6 19  1  0  0  0  0
  7  8  1  0  0  0  0
  7 26  1  0  0  0  0
  8  9  2  0  0  0  0
  8 10  1  0  0  0  0
 10 11  1  0  0  0  0
 10 27  1  0  0  0  0
 11 17  1  0  0  0  0
 11 12  1  0  0  0  0
 11 28  1  0  0  0  0
 12 13  1  0  0  0  0
 12 29  1  0  0  0  0
 12 30  1  0  0  0  0
 13 14  1  0  0  0  0
 13 31  1  0  0  0  0
 13 32  1  0  0  0  0
 14 15  1  0  0  0  0
 14 33  1  0  0  0  0
 14 34  1  0  0  0  0
 15 16  1  0  0  0  0
 15 35  1  0  0  0  0
 15 36  1  0  0  0  0
 16 17  1  0  0  0  0
 16 37  1  0  0  0  0
 17 18  2  0  0  0  0
 19 20  2  0  0  0  0
 19 38  1  0  0  0  0
M  END
> <s_m_source_file>
AV-unprocessed.smi

> <i_m_source_file_index>
1637

> <i_lp_mmshare_version>
43012

> <i_f3d_flags>
0

> <s_epik_input>
W0NIM11PYzFbY0hdW2NIXWMoW2NIXW4xKVtOSF1DKD1PKVtOSF1bQ0BASF0yW0NIMl1bQ0gyXVtDSDJdW0NIMl1bTkhdQzI9Tw==

> <s_epik_cmdline>
J2VwaWtfcHl0aG9uJywgJy1waCcsICc3LjAnLCAnLXRuJywgJzgnLCAnLW1hJywgJzIwMCcsICctbWV0YWxfYmluZGluZycsICctaW1hZScsICc8aW5maWxlLm1hZT4nLCAnLW9tYWUnLCAnPG91dGZpbGUubWFlPic=

> <r_lp_tautomer_probability>
1

> <r_epik_Ionization_Penalty>
8.30847e-05

> <r_epik_Ionization_Penalty_Charging>
0

> <r_epik_Ionization_Penalty_Neutral>
8.30847e-05

> <r_epik_State_Penalty>
-0

> <r_epik_Charging_Adjusted_Penalty>
0

> <i_epik_Tot_Q>
0

> <i_epik_Tot_abs_Q>
0

> <r_epik_Metal_State_Penalty>
-0

> <b_epik_Metal_Only>
0

> <s_lp_Force_Field>
OPLS_2005

> <r_lp_Energy>
13.0177

> <b_lp_Chiralities_Consistent>
1

> <s_lp_Variant>
AV-unprocessed.smi:1637-2

> <Gold.Version>
5.8.1

> <Gold.Id.Protein>
6NUR|6NUR_protein|mol2

> <Gold.PLP.Fitness>
38.2684

> <Gold.PLP.PLP>
-29.3784

> <Gold.PLP.part.hbond>
-4.9429

> <Gold.PLP.part.metal>
0.0000

> <Gold.PLP.part.buried>
-0.2914

> <Gold.PLP.part.nonpolar>
-27.1390

> <Gold.PLP.part.repulsive>
3.1984

> <Gold.PLP.ligand.clash>
0.0000

> <Gold.PLP.ligand.torsion>
0.6017

> <Gold.PLP.Chemscore.Hbond>
2.6478

> <Gold.PLP.Chemscore.CHOScore>
0.7057

> <Gold.PLP.Chemscore.Metal>
0.0000

> <Gold.Chemscore.Hbonds>
donor molecule, donor type, donor heavy atom, donor atom, acceptor molecule, acceptor atom, score
      L1  H     7    26       P1 10175  1.00
      L1  H    10    27       P1 10175  0.61
      L1  H    16    37       P1 10957  0.90
      P1  H  7989  7998       L1     2  0.14
      L1  C    19    38       P1  7948  0.68

> <Gold.PLP.Chemscore.Internal.Correction>
0.0329

> <Gold.Rescore>
     Score         DG    S(hbond)    S(metal)    S(lipo)     H(rot)  DE(clash)    DE(int)     intcor
     12.83     -17.84       2.59        0.00      60.34       1.31       2.13       2.88       ----

> <Gold.Chemscore.Fitness>
12.8322

> <Gold.Chemscore.DG>
-17.8382

> <Gold.Chemscore.ZeroCoef>
-5.4800

> <Gold.Chemscore.Hbond>
2.5896

> <Gold.Chemscore.Metal>
0.0000

> <Gold.Chemscore.Lipo>
60.3416

> <Gold.Chemscore.Internal_Hbond>
0.0000

> <Gold.Chemscore.DEClash>
2.1286

> <Gold.Chemscore.DEInternal>
2.8774

> <Gold.Chemscore.Rot>
1.3090

> <Gold.Chemscore.Internal.Correction>
   9.000000E+99

> <Gold.Chemscore.Hbonds>
donor molecule, donor type, donor heavy atom, donor atom, acceptor molecule, acceptor atom, score
      L1  H     7    26       P1 10175  1.00
      L1  H    10    27       P1 10175  0.59
      L1  H    16    37       P1 10957  0.82

> <Gold.Chemscore.Hbond.Weighted>
-8.6492

> <Gold.Chemscore.Metal.Weighted>
-0.0000

> <Gold.Chemscore.Lipo.Weighted>
-7.0600

> <Gold.Chemscore.Internal_Hbond.Weighted>
0.0000

> <Gold.Chemscore.DEClash.Weighted>
2.1286

> <Gold.Chemscore.DEInternal.Weighted>
2.8774

> <Gold.Chemscore.Rot.Weighted>
3.3509

> <Gold.Chemscore.Internal.Correction.Weighted>
   9.000000E+99

> <Gold.Protein.RotatedTorsions>
[ 6907 6896 6895 6894 ] final  -73.17 input  -60.11 | X-H torsion
[ 7974 7965 7964 7962 ] final -128.88 input  175.53 | X-H torsion
[ 8008 7997 7996 7995 ] final -136.36 input   59.86 | X-H torsion
[ 10167 10162 10161 10158 ] final  173.89 input  -65.29 | X-H torsion
[ 10718 10713 10712 10709 ] final -106.89 input   66.30 | X-H torsion
[ 10763 10752 10751 10750 ] final  -99.47 input  -60.55 | X-H torsion
[ 11005 11000 10999 10996 ] final   75.45 input  -57.11 | X-H torsion

> <Gold.Protein.ActiveResidues>
 VAL166  LYS551  ARG553  GLY616  TRP617  ASP618  TYR619  PRO620  LYS621  CYS622 
 ASP623  PHE694  ASN695  SER759  ASP760  ASP761  ALA762  ILE779  LEU786  VAL792 
 PHE793  MET794  SER795  GLU796  ALA797  LYS798  CYS799  TRP800  GLU811  SER814 

> <Gold.Protein.RotatedAtoms>
  150.7140  134.5056  159.5581 H   0  0  0  0  0  0  0  0  0  0  0  0  # atno 6907 bound_to 6896
  152.2644  134.7997  160.0434 H   0  0  0  0  0  0  0  0  0  0  0  0  # atno 6908 bound_to 6896
  151.8700  133.3438  159.3768 H   0  0  0  0  0  0  0  0  0  0  0  0  # atno 6909 bound_to 6896
  144.9626  140.7463  143.4719 H   0  0  0  0  0  0  0  0  0  0  0  0  # atno 7974 bound_to 7965
  155.3939  140.0501  157.3039 H   0  0  0  0  0  0  0  0  0  0  0  0  # atno 8008 bound_to 7997
  154.5023  140.2161  155.9283 H   0  0  0  0  0  0  0  0  0  0  0  0  # atno 8009 bound_to 7997
  156.1482  140.3141  155.8610 H   0  0  0  0  0  0  0  0  0  0  0  0  # atno 8010 bound_to 7997
  139.5123  144.3209  152.0203 H   0  0  0  0  0  0  0  0  0  0  0  0  # atno 10167 bound_to 10162
  156.0411  130.5635  150.7745 H   0  0  0  0  0  0  0  0  0  0  0  0  # atno 10718 bound_to 10713
  154.7500  135.4971  153.9273 H   0  0  0  0  0  0  0  0  0  0  0  0  # atno 10763 bound_to 10752
  153.1133  135.6714  153.9469 H   0  0  0  0  0  0  0  0  0  0  0  0  # atno 10764 bound_to 10752
  153.9222  135.3087  155.3426 H   0  0  0  0  0  0  0  0  0  0  0  0  # atno 10765 bound_to 10752
  139.9343  134.7518  156.1272 H   0  0  0  0  0  0  0  0  0  0  0  0  # atno 11005 bound_to 11000
  145.2677  139.1967  143.4858 LP  0  0  0  0  0  0  0  0  0  0  0  0  # atno 17320 bound_to 7965
  146.3358  140.2618  142.8602 LP  0  0  0  0  0  0  0  0  0  0  0  0  # atno 17321 bound_to 7965
  140.2651  144.4025  150.6171 LP  0  0  0  0  0  0  0  0  0  0  0  0  # atno 17342 bound_to 10162
  140.6129  143.2170  151.6850 LP  0  0  0  0  0  0  0  0  0  0  0  0  # atno 17343 bound_to 10162
  157.5230  131.0932  151.0054 LP  0  0  0  0  0  0  0  0  0  0  0  0  # atno 17370 bound_to 10713
  157.0380  130.5738  149.5352 LP  0  0  0  0  0  0  0  0  0  0  0  0  # atno 17371 bound_to 10713
  141.0949  133.6699  156.2623 LP  0  0  0  0  0  0  0  0  0  0  0  0  # atno 17394 bound_to 11000
  140.6117  134.5452  157.5534 LP  0  0  0  0  0  0  0  0  0  0  0  0  # atno 17395 bound_to 11000

$$$$
