AV-unprocessed.smi:1216|AV-procd|sdf|5101|dock7
  -GOLD-   22720 4153D 1   1.00000     0.00000
 Structure written by MMmdl.
 42 43  0  0  0  0  0  0  0  0  1 V2000
  143.8831  137.0335  152.8047 C   0  0  0  0  0  0  0  0  0  0  0  0
  145.2101  136.4700  152.2788 C   0  0  1  0  0  0  0  0  0  0  0  0
  145.0455  135.8716  150.8656 C   0  0  0  0  0  0  0  0  0  0  0  0
  145.2612  134.4365  150.8347 N   0  0  0  0  0  0  0  0  0  0  0  0
  146.4198  133.7549  151.1842 C   0  0  0  0  0  0  0  0  0  0  0  0
  146.1582  132.4160  151.0015 C   0  0  0  0  0  0  0  0  0  0  0  0
  144.8558  132.2518  150.5363 N   0  0  0  0  0  0  0  0  0  0  0  0
  144.3883  133.4911  150.4602 C   0  0  0  0  0  0  0  0  0  0  0  0
  146.2120  137.5355  152.2795 N   0  0  0  0  0  0  0  0  0  0  0  0
  146.5487  138.2945  153.3342 C   0  0  0  0  0  0  0  0  0  0  0  0
  146.0366  138.1705  154.4478 O   0  0  0  0  0  0  0  0  0  0  0  0
  147.6524  139.3313  153.0849 C   0  0  0  0  0  0  0  0  0  0  0  0
  148.6582  139.3781  154.1568 N   0  0  0  0  0  0  0  0  0  0  0  0
  148.8446  138.1463  154.9402 C   0  0  0  0  0  0  0  0  0  0  0  0
  150.2069  137.4549  154.7027 C   0  0  0  0  0  0  0  0  0  0  0  0
  151.3855  138.3800  154.3411 C   0  0  0  0  0  0  0  0  0  0  0  0
  151.6056  139.5643  155.3054 C   0  0  0  0  0  0  0  0  0  0  0  0
  150.3858  140.4805  155.5650 C   0  0  0  0  0  0  0  0  0  0  0  0
  149.3555  140.5110  154.4240 C   0  0  0  0  0  0  0  0  0  0  0  0
  149.1983  141.5591  153.7971 O   0  0  0  0  0  0  0  0  0  0  0  0
  143.1231  136.2541  152.8655 H   0  0  0  0  0  0  0  0  0  0  0  0
  143.4999  137.8220  152.1562 H   0  0  0  0  0  0  0  0  0  0  0  0
  144.0033  137.4525  153.8044 H   0  0  0  0  0  0  0  0  0  0  0  0
  145.5131  135.6753  152.9632 H   0  0  0  0  0  0  0  0  0  0  0  0
  144.0395  136.0649  150.4913 H   0  0  0  0  0  0  0  0  0  0  0  0
  145.7347  136.3457  150.1654 H   0  0  0  0  0  0  0  0  0  0  0  0
  147.3072  134.2641  151.5295 H   0  0  0  0  0  0  0  0  0  0  0  0
  146.8025  131.5649  151.1659 H   0  0  0  0  0  0  0  0  0  0  0  0
  143.3848  133.7167  150.1299 H   0  0  0  0  0  0  0  0  0  0  0  0
  146.6906  137.7066  151.4070 H   0  0  0  0  0  0  0  0  0  0  0  0
  148.1334  139.0994  152.1338 H   0  0  0  0  0  0  0  0  0  0  0  0
  147.1989  140.3146  152.9453 H   0  0  0  0  0  0  0  0  0  0  0  0
  148.7241  138.3733  155.9996 H   0  0  0  0  0  0  0  0  0  0  0  0
  148.0436  137.4354  154.7328 H   0  0  0  0  0  0  0  0  0  0  0  0
  150.4608  136.8663  155.5848 H   0  0  0  0  0  0  0  0  0  0  0  0
  150.0922  136.7341  153.8926 H   0  0  0  0  0  0  0  0  0  0  0  0
  152.2986  137.7855  154.3002 H   0  0  0  0  0  0  0  0  0  0  0  0
  151.2504  138.7576  153.3267 H   0  0  0  0  0  0  0  0  0  0  0  0
  151.9589  139.1793  156.2626 H   0  0  0  0  0  0  0  0  0  0  0  0
  152.4231  140.1723  154.9165 H   0  0  0  0  0  0  0  0  0  0  0  0
  149.8835  140.1839  156.4856 H   0  0  0  0  0  0  0  0  0  0  0  0
  150.7367  141.4954  155.7559 H   0  0  0  0  0  0  0  0  0  0  0  0
  1  2  1  0  0  0  0
  1 21  1  0  0  0  0
  1 22  1  0  0  0  0
  1 23  1  0  0  0  0
  2  3  1  0  0  0  0
  2  9  1  0  0  0  0
  2 24  1  0  0  0  0
  3  4  1  0  0  0  0
  3 25  1  0  0  0  0
  3 26  1  0  0  0  0
  4  8  1  0  0  0  0
  4  5  1  0  0  0  0
  5  6  2  0  0  0  0
  5 27  1  0  0  0  0
  6  7  1  0  0  0  0
  6 28  1  0  0  0  0
  7  8  2  0  0  0  0
  8 29  1  0  0  0  0
  9 10  1  0  0  0  0
  9 30  1  0  0  0  0
 10 11  2  0  0  0  0
 10 12  1  0  0  0  0
 12 13  1  0  0  0  0
 12 31  1  0  0  0  0
 12 32  1  0  0  0  0
 13 19  1  0  0  0  0
 13 14  1  0  0  0  0
 14 15  1  0  0  0  0
 14 33  1  0  0  0  0
 14 34  1  0  0  0  0
 15 16  1  0  0  0  0
 15 35  1  0  0  0  0
 15 36  1  0  0  0  0
 16 17  1  0  0  0  0
 16 37  1  0  0  0  0
 16 38  1  0  0  0  0
 17 18  1  0  0  0  0
 17 39  1  0  0  0  0
 17 40  1  0  0  0  0
 18 19  1  0  0  0  0
 18 41  1  0  0  0  0
 18 42  1  0  0  0  0
 19 20  2  0  0  0  0
M  END
> <s_m_source_file>
AV-unprocessed.smi

> <i_m_source_file_index>
1216

> <i_lp_mmshare_version>
43012

> <i_f3d_flags>
0

> <s_epik_input>
W2NIXTFuW2NIXVtjSF1uMVtDSDJdW0NAQEhdKFtDSDNdKVtOSF1DKD1PKVtDSDJdTjJbQ0gyXVtDSDJdW0NIMl1bQ0gyXVtDSDJdQzI9Tw==

> <s_epik_cmdline>
J2VwaWtfcHl0aG9uJywgJy1waCcsICc3LjAnLCAnLXRuJywgJzgnLCAnLW1hJywgJzIwMCcsICctbWV0YWxfYmluZGluZycsICctaW1hZScsICc8aW5maWxlLm1hZT4nLCAnLW9tYWUnLCAnPG91dGZpbGUubWFlPic=

> <r_lp_tautomer_probability>
1

> <r_epik_Ionization_Penalty>
0.623868

> <r_epik_Ionization_Penalty_Charging>
0.623868

> <r_epik_Ionization_Penalty_Neutral>
4.50838e-08

> <r_epik_State_Penalty>
0.640129

> <r_epik_Charging_Adjusted_Penalty>
1.264

> <i_epik_Tot_Q>
0

> <i_epik_Tot_abs_Q>
0

> <r_epik_Metal_State_Penalty>
0.307431

> <b_epik_Metal_Only>
0

> <s_lp_Force_Field>
OPLS_2005

> <r_lp_Energy>
20.3142

> <b_lp_Chiralities_Consistent>
1

> <s_lp_Variant>
AV-unprocessed.smi:1216-4

> <Gold.Version>
5.8.1

> <Gold.Id.Protein>
6NUR|6NUR_protein|mol2

> <Gold.PLP.Fitness>
45.9433

> <Gold.PLP.PLP>
-37.4403

> <Gold.PLP.part.hbond>
-2.9305

> <Gold.PLP.part.metal>
0.0000

> <Gold.PLP.part.buried>
-0.7962

> <Gold.PLP.part.nonpolar>
-33.8330

> <Gold.PLP.part.repulsive>
0.8781

> <Gold.PLP.ligand.clash>
0.0000

> <Gold.PLP.ligand.torsion>
1.3348

> <Gold.PLP.Chemscore.Hbond>
0.7200

> <Gold.PLP.Chemscore.CHOScore>
3.0000

> <Gold.PLP.Chemscore.Metal>
0.0000

> <Gold.Chemscore.Hbonds>
donor molecule, donor type, donor heavy atom, donor atom, acceptor molecule, acceptor atom, score
      P1  H  8011  8017       L1    20  0.72
      L1  C     5    27       P1  7948  1.00
      L1  C     6    28       P1 10747  1.00
      L1  C     8    29       P1 10186  0.96

> <Gold.PLP.Chemscore.Internal.Correction>
0.0125

> <Gold.Rescore>
     Score         DG    S(hbond)    S(metal)    S(lipo)     H(rot)  DE(clash)    DE(int)     intcor
      6.03     -10.47       0.73        0.00      68.48       2.13       0.93       3.50       ----

> <Gold.Chemscore.Fitness>
6.0317

> <Gold.Chemscore.DG>
-10.4702

> <Gold.Chemscore.ZeroCoef>
-5.4800

> <Gold.Chemscore.Hbond>
0.7307

> <Gold.Chemscore.Metal>
0.0000

> <Gold.Chemscore.Lipo>
68.4807

> <Gold.Chemscore.Internal_Hbond>
0.0000

> <Gold.Chemscore.DEClash>
0.9338

> <Gold.Chemscore.DEInternal>
3.5047

> <Gold.Chemscore.Rot>
2.1338

> <Gold.Chemscore.Internal.Correction>
   9.000000E+99

> <Gold.Chemscore.Hbonds>
donor molecule, donor type, donor heavy atom, donor atom, acceptor molecule, acceptor atom, score
      P1  H  8011  8017       L1    20  0.72

> <Gold.Chemscore.Hbond.Weighted>
-2.4405

> <Gold.Chemscore.Metal.Weighted>
-0.0000

> <Gold.Chemscore.Lipo.Weighted>
-8.0122

> <Gold.Chemscore.Internal_Hbond.Weighted>
0.0000

> <Gold.Chemscore.DEClash.Weighted>
0.9338

> <Gold.Chemscore.DEInternal.Weighted>
3.5047

> <Gold.Chemscore.Rot.Weighted>
5.4625

> <Gold.Chemscore.Internal.Correction.Weighted>
   9.000000E+99

> <Gold.Protein.RotatedTorsions>
[ 6907 6896 6895 6894 ] final   34.43 input  -60.11 | X-H torsion
[ 7974 7965 7964 7962 ] final  -80.39 input  175.53 | X-H torsion
[ 8008 7997 7996 7995 ] final -152.55 input   59.86 | X-H torsion
[ 10167 10162 10161 10158 ] final   74.72 input  -65.29 | X-H torsion
[ 10718 10713 10712 10709 ] final   40.43 input   66.30 | X-H torsion
[ 10763 10752 10751 10750 ] final -149.76 input  -60.55 | X-H torsion
[ 11005 11000 10999 10996 ] final  -88.19 input  -57.11 | X-H torsion

> <Gold.Protein.ActiveResidues>
 VAL166  LYS551  ARG553  GLY616  TRP617  ASP618  TYR619  PRO620  LYS621  CYS622 
 ASP623  PHE694  ASN695  SER759  ASP760  ASP761  ALA762  ILE779  LEU786  VAL792 
 PHE793  MET794  SER795  GLU796  ALA797  LYS798  CYS799  TRP800  GLU811  SER814 

> <Gold.Protein.RotatedAtoms>
  152.1022  134.9333  160.0569 H   0  0  0  0  0  0  0  0  0  0  0  0  # atno 6907 bound_to 6896
  152.0543  133.4028  159.4399 H   0  0  0  0  0  0  0  0  0  0  0  0  # atno 6908 bound_to 6896
  150.6840  134.3193  159.4823 H   0  0  0  0  0  0  0  0  0  0  0  0  # atno 6909 bound_to 6896
  145.5605  140.9483  143.1450 H   0  0  0  0  0  0  0  0  0  0  0  0  # atno 7974 bound_to 7965
  155.6569  140.0718  157.2567 H   0  0  0  0  0  0  0  0  0  0  0  0  # atno 8008 bound_to 7997
  154.4150  140.1723  156.1785 H   0  0  0  0  0  0  0  0  0  0  0  0  # atno 8009 bound_to 7997
  155.9730  140.3360  155.6596 H   0  0  0  0  0  0  0  0  0  0  0  0  # atno 8010 bound_to 7997
  140.0107  144.5616  150.7661 H   0  0  0  0  0  0  0  0  0  0  0  0  # atno 10167 bound_to 10162
  157.3821  130.7759  149.7201 H   0  0  0  0  0  0  0  0  0  0  0  0  # atno 10718 bound_to 10713
  154.8158  135.3301  154.7179 H   0  0  0  0  0  0  0  0  0  0  0  0  # atno 10763 bound_to 10752
  153.7820  135.6917  153.4891 H   0  0  0  0  0  0  0  0  0  0  0  0  # atno 10764 bound_to 10752
  153.1974  135.4528  155.0172 H   0  0  0  0  0  0  0  0  0  0  0  0  # atno 10765 bound_to 10752
  141.1605  133.7555  156.9415 H   0  0  0  0  0  0  0  0  0  0  0  0  # atno 11005 bound_to 11000
  144.7485  139.7256  143.7282 LP  0  0  0  0  0  0  0  0  0  0  0  0  # atno 17320 bound_to 7965
  146.1854  139.5067  142.9839 LP  0  0  0  0  0  0  0  0  0  0  0  0  # atno 17321 bound_to 7965
  140.7382  143.2776  151.3695 LP  0  0  0  0  0  0  0  0  0  0  0  0  # atno 17342 bound_to 10162
  139.6207  144.0912  152.2388 LP  0  0  0  0  0  0  0  0  0  0  0  0  # atno 17343 bound_to 10162
  155.9778  130.4058  150.3688 LP  0  0  0  0  0  0  0  0  0  0  0  0  # atno 17370 bound_to 10713
  157.1793  131.0388  151.2756 LP  0  0  0  0  0  0  0  0  0  0  0  0  # atno 17371 bound_to 10713
  140.1318  134.9351  157.2348 LP  0  0  0  0  0  0  0  0  0  0  0  0  # atno 17394 bound_to 11000
  140.2943  134.3204  155.7306 LP  0  0  0  0  0  0  0  0  0  0  0  0  # atno 17395 bound_to 11000

$$$$
