AV-unprocessed.smi:3228|AV-procd|sdf|12319|dock7
  -GOLD-   2272018163D 1   1.00000     0.00000
 Structure written by MMmdl.
 31 32  0  0  0  0  0  0  0  0  1 V2000
  150.9077  140.8350  155.5234 O   0  0  0  0  0  0  0  0  0  0  0  0
  150.1281  141.7823  155.6301 C   0  0  0  0  0  0  0  0  0  0  0  0
  150.4012  142.8882  156.3372 N   0  0  0  0  0  0  0  0  0  0  0  0
  151.6392  143.1289  157.0713 C   0  0  0  0  0  0  0  0  0  0  0  0
  151.4501  144.1481  158.2130 C   0  0  2  0  0  0  0  0  0  0  0  0
  152.7079  144.3769  159.0660 C   0  0  0  0  0  0  0  0  0  0  0  0
  152.2159  144.7674  160.4691 C   0  0  0  0  0  0  0  0  0  0  0  0
  150.6895  144.6223  160.4494 C   0  0  0  0  0  0  0  0  0  0  0  0
  150.3909  143.7355  159.2398 C   0  0  1  0  0  0  0  0  0  0  0  0
  149.0760  143.9344  158.7638 O   0  0  0  0  0  0  0  0  0  0  0  0
  148.9083  141.8532  155.0688 N   0  0  0  0  0  0  0  0  0  0  0  0
  148.2601  140.8899  154.2520 C   0  0  0  0  0  0  0  0  0  0  0  0
  147.1825  141.1405  153.4988 N   0  0  0  0  0  0  0  0  0  0  0  0
  146.7563  140.0081  152.8000 C   0  0  0  0  0  0  0  0  0  0  0  0
  147.5264  138.8962  153.0347 C   0  0  0  0  0  0  0  0  0  0  0  0
  148.8258  139.2292  154.1486 S   0  0  0  0  0  0  0  0  0  0  0  0
  149.7035  143.6171  156.3715 H   0  0  0  0  0  0  0  0  0  0  0  0
  152.0245  142.1868  157.4646 H   0  0  0  0  0  0  0  0  0  0  0  0
  152.3847  143.4932  156.3641 H   0  0  0  0  0  0  0  0  0  0  0  0
  151.1552  145.1107  157.7907 H   0  0  0  0  0  0  0  0  0  0  0  0
  153.2917  143.4579  159.1335 H   0  0  0  0  0  0  0  0  0  0  0  0
  153.3549  145.1397  158.6317 H   0  0  0  0  0  0  0  0  0  0  0  0
  152.6538  144.1031  161.2151 H   0  0  0  0  0  0  0  0  0  0  0  0
  152.5073  145.7857  160.7290 H   0  0  0  0  0  0  0  0  0  0  0  0
  150.2953  144.2090  161.3784 H   0  0  0  0  0  0  0  0  0  0  0  0
  150.2402  145.6071  160.3106 H   0  0  0  0  0  0  0  0  0  0  0  0
  150.5212  142.6876  159.5141 H   0  0  0  0  0  0  0  0  0  0  0  0
  149.0352  144.7761  158.3356 H   0  0  0  0  0  0  0  0  0  0  0  0
  148.3813  142.6957  155.2459 H   0  0  0  0  0  0  0  0  0  0  0  0
  145.8930  140.0827  152.1551 H   0  0  0  0  0  0  0  0  0  0  0  0
  147.4086  137.9057  152.6211 H   0  0  0  0  0  0  0  0  0  0  0  0
  1  2  2  0  0  0  0
  2  3  1  0  0  0  0
  2 11  1  0  0  0  0
  3  4  1  0  0  0  0
  3 17  1  0  0  0  0
  4  5  1  0  0  0  0
  4 18  1  0  0  0  0
  4 19  1  0  0  0  0
  5  9  1  0  0  0  0
  5  6  1  0  0  0  0
  5 20  1  0  0  0  0
  6  7  1  0  0  0  0
  6 21  1  0  0  0  0
  6 22  1  0  0  0  0
  7  8  1  0  0  0  0
  7 23  1  0  0  0  0
  7 24  1  0  0  0  0
  8  9  1  0  0  0  0
  8 25  1  0  0  0  0
  8 26  1  0  0  0  0
  9 10  1  0  0  0  0
  9 27  1  0  0  0  0
 10 28  1  0  0  0  0
 11 12  1  0  0  0  0
 11 29  1  0  0  0  0
 12 16  1  0  0  0  0
 12 13  2  0  0  0  0
 13 14  1  0  0  0  0
 14 15  2  0  0  0  0
 14 30  1  0  0  0  0
 15 16  1  0  0  0  0
 15 31  1  0  0  0  0
M  END
> <s_m_source_file>
AV-unprocessed.smi

> <i_m_source_file_index>
3228

> <i_lp_mmshare_version>
43012

> <i_f3d_flags>
0

> <s_epik_input>
czFbY0hdW2NIXW5jMVtOSF1DKD1PKVtOSF1bQ0gyXVtDQEBIXTJbQ0gyXVtDSDJdW0NIMl1bQ0BIXTJbT0hd

> <s_epik_cmdline>
J2VwaWtfcHl0aG9uJywgJy1waCcsICc3LjAnLCAnLXRuJywgJzgnLCAnLW1hJywgJzIwMCcsICctbWV0YWxfYmluZGluZycsICctaW1hZScsICc8aW5maWxlLm1hZT4nLCAnLW9tYWUnLCAnPG91dGZpbGUubWFlPic=

> <r_lp_tautomer_probability>
0.999

> <r_epik_Ionization_Penalty>
0.000399498

> <r_epik_Ionization_Penalty_Charging>
0

> <r_epik_Ionization_Penalty_Neutral>
0.000399498

> <r_epik_State_Penalty>
0.000177984

> <r_epik_Charging_Adjusted_Penalty>
0.000177984

> <i_epik_Tot_Q>
0

> <i_epik_Tot_abs_Q>
0

> <r_epik_Metal_State_Penalty>
0.0060793

> <b_epik_Metal_Only>
0

> <s_lp_Force_Field>
OPLS_2005

> <r_lp_Energy>
20.7116

> <b_lp_Chiralities_Consistent>
1

> <s_lp_Variant>
AV-unprocessed.smi:3228-1

> <Gold.Version>
5.8.1

> <Gold.Id.Protein>
6NUR|6NUR_protein|mol2

> <Gold.PLP.Fitness>
45.8122

> <Gold.PLP.PLP>
-31.2138

> <Gold.PLP.part.hbond>
-4.5699

> <Gold.PLP.part.metal>
0.0000

> <Gold.PLP.part.buried>
-0.5785

> <Gold.PLP.part.nonpolar>
-25.0891

> <Gold.PLP.part.repulsive>
0.5102

> <Gold.PLP.ligand.clash>
0.0000

> <Gold.PLP.ligand.torsion>
0.2236

> <Gold.PLP.Chemscore.Hbond>
3.0147

> <Gold.PLP.Chemscore.CHOScore>
2.0000

> <Gold.PLP.Chemscore.Metal>
0.0000

> <Gold.Chemscore.Hbonds>
donor molecule, donor type, donor heavy atom, donor atom, acceptor molecule, acceptor atom, score
      L1  H     3    17       P1  8028  1.00
      L1  H    10    28       P1  8029  0.88
      L1  H    11    29       P1  8028  0.57
      P1  H  7989  7998       L1     1  0.56
      L1  C    14    30       P1 10175  1.00
      L1  C    15    31       P1  7948  1.00

> <Gold.PLP.Chemscore.Internal.Correction>
0.0015

> <Gold.Rescore>
     Score         DG    S(hbond)    S(metal)    S(lipo)     H(rot)  DE(clash)    DE(int)     intcor
     15.65     -18.51       2.39        0.00      84.13       1.88       0.40       2.46       ----

> <Gold.Chemscore.Fitness>
15.6488

> <Gold.Chemscore.DG>
-18.5103

> <Gold.Chemscore.ZeroCoef>
-5.4800

> <Gold.Chemscore.Hbond>
2.3941

> <Gold.Chemscore.Metal>
0.0000

> <Gold.Chemscore.Lipo>
84.1296

> <Gold.Chemscore.Internal_Hbond>
0.0000

> <Gold.Chemscore.DEClash>
0.4050

> <Gold.Chemscore.DEInternal>
2.4566

> <Gold.Chemscore.Rot>
1.8786

> <Gold.Chemscore.Internal.Correction>
   9.000000E+99

> <Gold.Chemscore.Hbonds>
donor molecule, donor type, donor heavy atom, donor atom, acceptor molecule, acceptor atom, score
      L1  H     3    17       P1  8028  0.89
      L1  H    10    28       P1  8029  0.52
      L1  H    11    29       P1  8028  0.56
      P1  H  7989  7998       L1     1  0.31

> <Gold.Chemscore.Hbond.Weighted>
-7.9963

> <Gold.Chemscore.Metal.Weighted>
-0.0000

> <Gold.Chemscore.Lipo.Weighted>
-9.8432

> <Gold.Chemscore.Internal_Hbond.Weighted>
0.0000

> <Gold.Chemscore.DEClash.Weighted>
0.4050

> <Gold.Chemscore.DEInternal.Weighted>
2.4566

> <Gold.Chemscore.Rot.Weighted>
4.8091

> <Gold.Chemscore.Internal.Correction.Weighted>
   9.000000E+99

> <Gold.Protein.RotatedTorsions>
[ 6907 6896 6895 6894 ] final    8.16 input  -60.11 | X-H torsion
[ 7974 7965 7964 7962 ] final   21.17 input  175.53 | X-H torsion
[ 8008 7997 7996 7995 ] final   48.19 input   59.86 | X-H torsion
[ 10167 10162 10161 10158 ] final  167.22 input  -65.29 | X-H torsion
[ 10718 10713 10712 10709 ] final  157.24 input   66.30 | X-H torsion
[ 10763 10752 10751 10750 ] final  128.86 input  -60.55 | X-H torsion
[ 11005 11000 10999 10996 ] final  177.01 input  -57.11 | X-H torsion

> <Gold.Protein.ActiveResidues>
 VAL166  LYS551  ARG553  GLY616  TRP617  ASP618  TYR619  PRO620  LYS621  CYS622 
 ASP623  PHE694  ASN695  SER759  ASP760  ASP761  ALA762  ILE779  LEU786  VAL792 
 PHE793  MET794  SER795  GLU796  ALA797  LYS798  CYS799  TRP800  GLU811  SER814 

> <Gold.Protein.RotatedAtoms>
  151.7016  135.0929  160.0251 H   0  0  0  0  0  0  0  0  0  0  0  0  # atno 6907 bound_to 6896
  152.3717  133.6423  159.6100 H   0  0  0  0  0  0  0  0  0  0  0  0  # atno 6908 bound_to 6896
  150.7678  133.9176  159.3429 H   0  0  0  0  0  0  0  0  0  0  0  0  # atno 6909 bound_to 6896
  146.2082  139.8065  142.8709 H   0  0  0  0  0  0  0  0  0  0  0  0  # atno 7974 bound_to 7965
  155.3815  140.3429  155.4247 H   0  0  0  0  0  0  0  0  0  0  0  0  # atno 8008 bound_to 7997
  156.1608  140.1600  156.8649 H   0  0  0  0  0  0  0  0  0  0  0  0  # atno 8009 bound_to 7997
  154.5138  140.0783  156.8023 H   0  0  0  0  0  0  0  0  0  0  0  0  # atno 8010 bound_to 7997
  139.4941  144.3945  151.9480 H   0  0  0  0  0  0  0  0  0  0  0  0  # atno 10167 bound_to 10162
  157.1941  131.0661  151.2062 H   0  0  0  0  0  0  0  0  0  0  0  0  # atno 10718 bound_to 10713
  153.7324  135.3236  155.3288 H   0  0  0  0  0  0  0  0  0  0  0  0  # atno 10763 bound_to 10752
  154.8322  135.4525  154.1108 H   0  0  0  0  0  0  0  0  0  0  0  0  # atno 10764 bound_to 10752
  153.2260  135.6954  153.8026 H   0  0  0  0  0  0  0  0  0  0  0  0  # atno 10765 bound_to 10752
  140.3794  134.6960  157.4441 H   0  0  0  0  0  0  0  0  0  0  0  0  # atno 11005 bound_to 11000
  145.3241  141.0251  143.3483 LP  0  0  0  0  0  0  0  0  0  0  0  0  # atno 17320 bound_to 7965
  144.8845  139.4858  143.6707 LP  0  0  0  0  0  0  0  0  0  0  0  0  # atno 17321 bound_to 7965
  140.3383  144.3234  150.5972 LP  0  0  0  0  0  0  0  0  0  0  0  0  # atno 17342 bound_to 10162
  140.5587  143.2195  151.7802 LP  0  0  0  0  0  0  0  0  0  0  0  0  # atno 17343 bound_to 10162
  157.3831  130.7242  149.6644 LP  0  0  0  0  0  0  0  0  0  0  0  0  # atno 17370 bound_to 10713
  155.9708  130.4167  150.4243 LP  0  0  0  0  0  0  0  0  0  0  0  0  # atno 17371 bound_to 10713
  140.0490  134.6157  155.8885 LP  0  0  0  0  0  0  0  0  0  0  0  0  # atno 17394 bound_to 11000
  141.1928  133.6577  156.5521 LP  0  0  0  0  0  0  0  0  0  0  0  0  # atno 17395 bound_to 11000

$$$$
