AV-unprocessed.smi:2321|AV-procd|sdf|9284|dock2
  -GOLD-   2272012503D 1   1.00000     0.00000
 Structure written by MMmdl.
 36 37  0  0  0  0  0  0  0  0  1 V2000
  146.8034  138.0605  155.2521 O   0  0  0  0  0  0  0  0  0  0  0  0
  147.4564  137.5671  154.3353 C   0  0  0  0  0  0  0  0  0  0  0  0
  148.7071  137.9362  153.9961 N   0  0  0  0  0  0  0  0  0  0  0  0
  149.5305  138.9423  154.5691 C   0  0  0  0  0  0  0  0  0  0  0  0
  149.0554  140.1967  155.0223 C   0  0  0  0  0  0  0  0  0  0  0  0
  149.9759  141.1008  155.5896 C   0  0  0  0  0  0  0  0  0  0  0  0
  151.2914  140.8331  155.7314 N   0  0  0  0  0  0  0  0  0  0  0  0
  151.7378  139.6308  155.3102 C   0  0  0  0  0  0  0  0  0  0  0  0
  150.9024  138.6551  154.7310 C   0  0  0  0  0  0  0  0  0  0  0  0
  151.4143  137.4650  154.3335 F   0  0  0  0  0  0  0  0  0  0  0  0
  146.9372  136.5998  153.5568 N   0  0  0  0  0  0  0  0  0  0  0  0
  145.6161  135.9670  153.6408 C   0  0  1  0  0  0  0  0  0  0  0  0
  144.5835  136.7879  152.8448 C   0  0  0  0  0  0  0  0  0  0  0  0
  144.7988  136.6781  151.3260 C   0  0  0  0  0  0  0  0  0  0  0  0
  144.8123  135.2119  150.8671 C   0  0  0  0  0  0  0  0  0  0  0  0
  145.8760  134.3884  151.6231 C   0  0  2  0  0  0  0  0  0  0  0  0
  145.9104  132.9189  151.1549 C   0  0  0  0  0  0  0  0  0  0  0  0
  146.1848  132.8418  149.8523 F   0  0  0  0  0  0  0  0  0  0  0  0
  146.8404  132.2453  151.8317 F   0  0  0  0  0  0  0  0  0  0  0  0
  144.7309  132.3410  151.3818 F   0  0  0  0  0  0  0  0  0  0  0  0
  145.6497  134.5023  153.1477 C   0  0  0  0  0  0  0  0  0  0  0  0
  149.0865  137.4915  153.1730 H   0  0  0  0  0  0  0  0  0  0  0  0
  148.0153  140.4765  154.9594 H   0  0  0  0  0  0  0  0  0  0  0  0
  149.6440  142.0651  155.9449 H   0  0  0  0  0  0  0  0  0  0  0  0
  152.7926  139.4397  155.4402 H   0  0  0  0  0  0  0  0  0  0  0  0
  147.5251  136.2746  152.8028 H   0  0  0  0  0  0  0  0  0  0  0  0
  145.2969  135.9776  154.6844 H   0  0  0  0  0  0  0  0  0  0  0  0
  143.5819  136.4294  153.0860 H   0  0  0  0  0  0  0  0  0  0  0  0
  144.6117  137.8340  153.1526 H   0  0  0  0  0  0  0  0  0  0  0  0
  144.0125  137.2220  150.8019 H   0  0  0  0  0  0  0  0  0  0  0  0
  145.7388  137.1567  151.0489 H   0  0  0  0  0  0  0  0  0  0  0  0
  143.8255  134.7741  151.0225 H   0  0  0  0  0  0  0  0  0  0  0  0
  145.0000  135.1726  149.7938 H   0  0  0  0  0  0  0  0  0  0  0  0
  146.8517  134.8207  151.3957 H   0  0  0  0  0  0  0  0  0  0  0  0
  146.4161  133.9413  153.6827 H   0  0  0  0  0  0  0  0  0  0  0  0
  144.7028  134.0260  153.4042 H   0  0  0  0  0  0  0  0  0  0  0  0
  1  2  2  0  0  0  0
  2  3  1  0  0  0  0
  2 11  1  0  0  0  0
  3  4  1  0  0  0  0
  3 22  1  0  0  0  0
  4  9  1  0  0  0  0
  4  5  2  0  0  0  0
  5  6  1  0  0  0  0
  5 23  1  0  0  0  0
  6  7  2  0  0  0  0
  6 24  1  0  0  0  0
  7  8  1  0  0  0  0
  8  9  2  0  0  0  0
  8 25  1  0  0  0  0
  9 10  1  0  0  0  0
 11 12  1  0  0  0  0
 11 26  1  0  0  0  0
 12 21  1  0  0  0  0
 12 13  1  0  0  0  0
 12 27  1  0  0  0  0
 13 14  1  0  0  0  0
 13 28  1  0  0  0  0
 13 29  1  0  0  0  0
 14 15  1  0  0  0  0
 14 30  1  0  0  0  0
 14 31  1  0  0  0  0
 15 16  1  0  0  0  0
 15 32  1  0  0  0  0
 15 33  1  0  0  0  0
 16 17  1  0  0  0  0
 16 21  1  0  0  0  0
 16 34  1  0  0  0  0
 17 18  1  0  0  0  0
 17 19  1  0  0  0  0
 17 20  1  0  0  0  0
 21 35  1  0  0  0  0
 21 36  1  0  0  0  0
M  END
> <s_m_source_file>
AV-unprocessed.smi

> <i_m_source_file_index>
2321

> <i_lp_mmshare_version>
43012

> <i_f3d_flags>
0

> <s_epik_input>
RkMoRikoRilbQ0BASF0oW0NIMl0xKVtDSDJdW0NIMl1bQ0gyXVtDQEhdMVtOSF1DKD1PKVtOSF1jMltjSF1bY0hdbltjSF1jMkY=

> <s_epik_cmdline>
J2VwaWtfcHl0aG9uJywgJy1waCcsICc3LjAnLCAnLXRuJywgJzgnLCAnLW1hJywgJzIwMCcsICctbWV0YWxfYmluZGluZycsICctaW1hZScsICc8aW5maWxlLm1hZT4nLCAnLW9tYWUnLCAnPG91dGZpbGUubWFlPic=

> <r_epik_Ionization_Penalty>
0.00319438

> <r_epik_Ionization_Penalty_Charging>
0

> <r_epik_Ionization_Penalty_Neutral>
0.00319438

> <r_epik_State_Penalty>
0.00222511

> <r_epik_Charging_Adjusted_Penalty>
0.00222511

> <i_epik_Tot_Q>
0

> <i_epik_Tot_abs_Q>
0

> <r_epik_Metal_State_Penalty>
-0

> <b_epik_Metal_Only>
0

> <s_lp_Force_Field>
OPLS_2005

> <r_lp_Energy>
25.9848

> <b_lp_Chiralities_Consistent>
1

> <s_lp_Variant>
AV-unprocessed.smi:2321-4

> <Gold.Version>
5.8.1

> <Gold.Id.Protein>
6NUR|6NUR_protein|mol2

> <Gold.PLP.Fitness>
42.6358

> <Gold.PLP.PLP>
-34.9773

> <Gold.PLP.part.hbond>
-3.0000

> <Gold.PLP.part.metal>
0.0000

> <Gold.PLP.part.buried>
2.3419

> <Gold.PLP.part.nonpolar>
-33.8957

> <Gold.PLP.part.repulsive>
0.0957

> <Gold.PLP.ligand.clash>
0.0000

> <Gold.PLP.ligand.torsion>
0.6813

> <Gold.PLP.Chemscore.Hbond>
2.0000

> <Gold.PLP.Chemscore.CHOScore>
1.0000

> <Gold.PLP.Chemscore.Metal>
0.0000

> <Gold.Chemscore.Hbonds>
donor molecule, donor type, donor heavy atom, donor atom, acceptor molecule, acceptor atom, score
      L1  H     3    22       P1  7948  1.00
      L1  H    11    26       P1  7948  1.00
      L1  C     6    24       P1  8028  0.39

> <Gold.PLP.Chemscore.Internal.Correction>
0.0211

> <Gold.Rescore>
     Score         DG    S(hbond)    S(metal)    S(lipo)     H(rot)  DE(clash)    DE(int)     intcor
     14.99     -17.11       1.94        0.00      66.04       1.00       1.47       0.66       ----

> <Gold.Chemscore.Fitness>
14.9879

> <Gold.Chemscore.DG>
-17.1112

> <Gold.Chemscore.ZeroCoef>
-5.4800

> <Gold.Chemscore.Hbond>
1.9357

> <Gold.Chemscore.Metal>
0.0000

> <Gold.Chemscore.Lipo>
66.0353

> <Gold.Chemscore.Internal_Hbond>
0.0000

> <Gold.Chemscore.DEClash>
1.4660

> <Gold.Chemscore.DEInternal>
0.6573

> <Gold.Chemscore.Rot>
1.0000

> <Gold.Chemscore.Internal.Correction>
   9.000000E+99

> <Gold.Chemscore.Hbonds>
donor molecule, donor type, donor heavy atom, donor atom, acceptor molecule, acceptor atom, score
      L1  H     3    22       P1  7948  0.95
      L1  H    11    26       P1  7948  0.98

> <Gold.Chemscore.Hbond.Weighted>
-6.4651

> <Gold.Chemscore.Metal.Weighted>
-0.0000

> <Gold.Chemscore.Lipo.Weighted>
-7.7261

> <Gold.Chemscore.Internal_Hbond.Weighted>
0.0000

> <Gold.Chemscore.DEClash.Weighted>
1.4660

> <Gold.Chemscore.DEInternal.Weighted>
0.6573

> <Gold.Chemscore.Rot.Weighted>
2.5600

> <Gold.Chemscore.Internal.Correction.Weighted>
   9.000000E+99

> <Gold.Protein.RotatedTorsions>
[ 6907 6896 6895 6894 ] final -157.46 input  -60.11 | X-H torsion
[ 7974 7965 7964 7962 ] final  -20.13 input  175.53 | X-H torsion
[ 8008 7997 7996 7995 ] final   93.61 input   59.86 | X-H torsion
[ 10167 10162 10161 10158 ] final -129.29 input  -65.29 | X-H torsion
[ 10718 10713 10712 10709 ] final  -11.81 input   66.30 | X-H torsion
[ 10763 10752 10751 10750 ] final -164.01 input  -60.55 | X-H torsion
[ 11005 11000 10999 10996 ] final   92.59 input  -57.11 | X-H torsion

> <Gold.Protein.ActiveResidues>
 VAL166  LYS551  ARG553  GLY616  TRP617  ASP618  TYR619  PRO620  LYS621  CYS622 
 ASP623  PHE694  ASN695  SER759  ASP760  ASP761  ALA762  ILE779  LEU786  VAL792 
 PHE793  MET794  SER795  GLU796  ALA797  LYS798  CYS799  TRP800  GLU811  SER814 

> <Gold.Protein.RotatedAtoms>
  151.3033  133.4113  159.2641 H   0  0  0  0  0  0  0  0  0  0  0  0  # atno 6907 bound_to 6896
  151.0177  134.9446  159.8052 H   0  0  0  0  0  0  0  0  0  0  0  0  # atno 6908 bound_to 6896
  152.5316  134.2996  159.9126 H   0  0  0  0  0  0  0  0  0  0  0  0  # atno 6909 bound_to 6896
  146.1804  140.4160  142.8497 H   0  0  0  0  0  0  0  0  0  0  0  0  # atno 7974 bound_to 7965
  156.0487  140.3310  155.7326 H   0  0  0  0  0  0  0  0  0  0  0  0  # atno 8008 bound_to 7997
  155.5634  140.0621  157.2841 H   0  0  0  0  0  0  0  0  0  0  0  0  # atno 8009 bound_to 7997
  154.4426  140.1873  156.0794 H   0  0  0  0  0  0  0  0  0  0  0  0  # atno 8010 bound_to 7997
  139.9413  143.6159  152.2502 H   0  0  0  0  0  0  0  0  0  0  0  0  # atno 10167 bound_to 10162
  156.6536  130.4962  149.6053 H   0  0  0  0  0  0  0  0  0  0  0  0  # atno 10718 bound_to 10713
  154.7069  135.2998  154.9256 H   0  0  0  0  0  0  0  0  0  0  0  0  # atno 10763 bound_to 10752
  154.0171  135.6687  153.4773 H   0  0  0  0  0  0  0  0  0  0  0  0  # atno 10764 bound_to 10752
  153.0724  135.5053  154.8245 H   0  0  0  0  0  0  0  0  0  0  0  0  # atno 10765 bound_to 10752
  139.8821  134.8741  156.3594 H   0  0  0  0  0  0  0  0  0  0  0  0  # atno 11005 bound_to 11000
  144.8306  140.6700  143.6293 LP  0  0  0  0  0  0  0  0  0  0  0  0  # atno 17320 bound_to 7965
  145.4091  139.1583  143.4135 LP  0  0  0  0  0  0  0  0  0  0  0  0  # atno 17321 bound_to 7965
  139.6702  144.7661  151.1798 LP  0  0  0  0  0  0  0  0  0  0  0  0  # atno 17342 bound_to 10162
  140.7610  143.5877  150.8829 LP  0  0  0  0  0  0  0  0  0  0  0  0  # atno 17343 bound_to 10162
  156.2065  130.6652  151.1224 LP  0  0  0  0  0  0  0  0  0  0  0  0  # atno 17370 bound_to 10713
  157.7133  131.0723  150.6422 LP  0  0  0  0  0  0  0  0  0  0  0  0  # atno 17371 bound_to 10713
  140.9539  133.7432  156.0310 LP  0  0  0  0  0  0  0  0  0  0  0  0  # atno 17394 bound_to 11000
  140.8072  134.3441  157.5422 LP  0  0  0  0  0  0  0  0  0  0  0  0  # atno 17395 bound_to 11000

$$$$
