AV-unprocessed.smi:2259|AV-procd|sdf|9130|dock3
  -GOLD-   2272012333D 1   1.00000     0.00000
 Structure written by MMmdl.
 39 40  0  0  0  0  0  0  0  0  1 V2000
  153.3286  139.8236  159.7916 C   0  0  0  0  0  0  0  0  0  0  0  0
  152.3946  140.3649  158.7239 C   0  0  0  0  0  0  0  0  0  0  0  0
  152.0420  139.4625  157.7164 N   0  0  0  0  0  0  0  0  0  0  0  0
  151.2576  139.8380  156.7600 C   0  0  0  0  0  0  0  0  0  0  0  0
  150.7413  141.1438  156.6968 N   0  0  0  0  0  0  0  0  0  0  0  0
  149.8564  141.4508  155.5577 C   0  0  0  0  0  0  0  0  0  0  0  0
  149.3090  140.1880  154.8513 C   0  0  2  0  0  0  0  0  0  0  0  0
  150.2258  139.8571  153.8282 O   0  0  0  0  0  0  0  0  0  0  0  0
  147.9218  140.3835  154.2126 C   0  0  0  0  0  0  0  0  0  0  0  0
  147.0224  140.8568  155.2064 O   0  0  0  0  0  0  0  0  0  0  0  0
  146.1934  141.9118  154.8898 C   0  0  0  0  0  0  0  0  0  0  0  0
  145.2257  142.2742  155.8492 C   0  0  0  0  0  0  0  0  0  0  0  0
  144.3351  143.3388  155.6110 C   0  0  0  0  0  0  0  0  0  0  0  0
  144.4042  144.0581  154.4016 C   0  0  0  0  0  0  0  0  0  0  0  0
  143.4856  145.1566  154.1521 C   0  0  0  0  0  0  0  0  0  0  0  0
  142.7545  146.0311  153.9536 N   0  0  0  0  0  0  0  0  0  0  0  0
  145.3680  143.7075  153.4356 C   0  0  0  0  0  0  0  0  0  0  0  0
  146.2575  142.6416  153.6755 C   0  0  0  0  0  0  0  0  0  0  0  0
  151.0184  142.0795  157.6508 C   0  0  0  0  0  0  0  0  0  0  0  0
  150.5400  143.2142  157.6022 O   0  0  0  0  0  0  0  0  0  0  0  0
  151.9204  141.6403  158.7280 C   0  0  0  0  0  0  0  0  0  0  0  0
  152.2702  142.6667  159.7985 C   0  0  0  0  0  0  0  0  0  0  0  0
  152.8630  139.8885  160.7754 H   0  0  0  0  0  0  0  0  0  0  0  0
  154.2597  140.3908  159.8075 H   0  0  0  0  0  0  0  0  0  0  0  0
  153.5776  138.7774  159.6086 H   0  0  0  0  0  0  0  0  0  0  0  0
  150.9571  139.1717  155.9495 H   0  0  0  0  0  0  0  0  0  0  0  0
  149.0230  142.0902  155.8562 H   0  0  0  0  0  0  0  0  0  0  0  0
  150.4179  142.0527  154.8403 H   0  0  0  0  0  0  0  0  0  0  0  0
  149.2748  139.3576  155.5572 H   0  0  0  0  0  0  0  0  0  0  0  0
  149.7851  139.9227  152.9950 H   0  0  0  0  0  0  0  0  0  0  0  0
  147.9775  141.1388  153.4287 H   0  0  0  0  0  0  0  0  0  0  0  0
  147.5709  139.4553  153.7578 H   0  0  0  0  0  0  0  0  0  0  0  0
  145.1644  141.7284  156.7795 H   0  0  0  0  0  0  0  0  0  0  0  0
  143.6011  143.5975  156.3608 H   0  0  0  0  0  0  0  0  0  0  0  0
  145.4311  144.2530  152.5049 H   0  0  0  0  0  0  0  0  0  0  0  0
  146.9814  142.4047  152.9110 H   0  0  0  0  0  0  0  0  0  0  0  0
  152.7425  143.5379  159.3436 H   0  0  0  0  0  0  0  0  0  0  0  0
  152.9528  142.2829  160.5549 H   0  0  0  0  0  0  0  0  0  0  0  0
  151.3664  142.9995  160.3098 H   0  0  0  0  0  0  0  0  0  0  0  0
  1  2  1  0  0  0  0
  1 23  1  0  0  0  0
  1 24  1  0  0  0  0
  1 25  1  0  0  0  0
  2 21  2  0  0  0  0
  2  3  1  0  0  0  0
  3  4  2  0  0  0  0
  4  5  1  0  0  0  0
  4 26  1  0  0  0  0
  5  6  1  0  0  0  0
  5 19  1  0  0  0  0
  6  7  1  0  0  0  0
  6 27  1  0  0  0  0
  6 28  1  0  0  0  0
  7  8  1  0  0  0  0
  7  9  1  0  0  0  0
  7 29  1  0  0  0  0
  8 30  1  0  0  0  0
  9 10  1  0  0  0  0
  9 31  1  0  0  0  0
  9 32  1  0  0  0  0
 10 11  1  0  0  0  0
 11 18  1  0  0  0  0
 11 12  2  0  0  0  0
 12 13  1  0  0  0  0
 12 33  1  0  0  0  0
 13 14  2  0  0  0  0
 13 34  1  0  0  0  0
 14 15  1  0  0  0  0
 14 17  1  0  0  0  0
 15 16  3  0  0  0  0
 17 18  2  0  0  0  0
 17 35  1  0  0  0  0
 18 36  1  0  0  0  0
 19 20  2  0  0  0  0
 19 21  1  0  0  0  0
 21 22  1  0  0  0  0
 22 37  1  0  0  0  0
 22 38  1  0  0  0  0
 22 39  1  0  0  0  0
M  END
> <s_m_source_file>
AV-unprocessed.smi

> <i_m_source_file_index>
2259

> <i_lp_mmshare_version>
43012

> <i_f3d_flags>
0

> <s_epik_input>
W0NIM11jMW5bY0hdbihjKD1PKWMxW0NIM10pW0NIMl1bQ0BIXShbT0hdKVtDSDJdT2MyW2NIXVtjSF1jKEMjTilbY0hdW2NIXTI=

> <s_epik_cmdline>
J2VwaWtfcHl0aG9uJywgJy1waCcsICc3LjAnLCAnLXRuJywgJzgnLCAnLW1hJywgJzIwMCcsICctbWV0YWxfYmluZGluZycsICctaW1hZScsICc8aW5maWxlLm1hZT4nLCAnLW9tYWUnLCAnPG91dGZpbGUubWFlPic=

> <r_lp_tautomer_probability>
1

> <r_epik_Ionization_Penalty>
3.47921e-05

> <r_epik_Ionization_Penalty_Charging>
7.82631e-08

> <r_epik_Ionization_Penalty_Neutral>
3.47138e-05

> <r_epik_State_Penalty>
-0

> <r_epik_Charging_Adjusted_Penalty>
7.82631e-08

> <i_epik_Tot_Q>
0

> <i_epik_Tot_abs_Q>
0

> <r_epik_Metal_State_Penalty>
-0

> <b_epik_Metal_Only>
0

> <s_lp_Force_Field>
OPLS_2005

> <r_lp_Energy>
23.7954

> <b_lp_Chiralities_Consistent>
1

> <s_lp_Variant>
AV-unprocessed.smi:2259-1

> <Gold.Version>
5.8.1

> <Gold.Id.Protein>
6NUR|6NUR_protein|mol2

> <Gold.PLP.Fitness>
47.4072

> <Gold.PLP.PLP>
-43.4882

> <Gold.PLP.part.hbond>
-4.0000

> <Gold.PLP.part.metal>
0.0000

> <Gold.PLP.part.buried>
-8.2852

> <Gold.PLP.part.nonpolar>
-32.8164

> <Gold.PLP.part.repulsive>
1.2865

> <Gold.PLP.ligand.clash>
0.0000

> <Gold.PLP.ligand.torsion>
0.9946

> <Gold.PLP.Chemscore.Hbond>
1.9440

> <Gold.PLP.Chemscore.CHOScore>
0.0000

> <Gold.PLP.Chemscore.Metal>
0.0000

> <Gold.Chemscore.Hbonds>
donor molecule, donor type, donor heavy atom, donor atom, acceptor molecule, acceptor atom, score
      L1  H     8    30       P1  7957  1.00
      P1  H  7989  7998       L1     8  0.84

> <Gold.PLP.Chemscore.Internal.Correction>
0.0762

> <Gold.Rescore>
     Score         DG    S(hbond)    S(metal)    S(lipo)     H(rot)  DE(clash)    DE(int)     intcor
     12.11     -13.19       1.42        0.00      83.40       2.66       0.13       0.94       ----

> <Gold.Chemscore.Fitness>
12.1131

> <Gold.Chemscore.DG>
-13.1880

> <Gold.Chemscore.ZeroCoef>
-5.4800

> <Gold.Chemscore.Hbond>
1.4224

> <Gold.Chemscore.Metal>
0.0000

> <Gold.Chemscore.Lipo>
83.3978

> <Gold.Chemscore.Internal_Hbond>
0.0000

> <Gold.Chemscore.DEClash>
0.1329

> <Gold.Chemscore.DEInternal>
0.9420

> <Gold.Chemscore.Rot>
2.6563

> <Gold.Chemscore.Internal.Correction>
   9.000000E+99

> <Gold.Chemscore.Hbonds>
donor molecule, donor type, donor heavy atom, donor atom, acceptor molecule, acceptor atom, score
      L1  H     8    30       P1  7957  0.99
      P1  H  7989  7998       L1     8  0.16

> <Gold.Chemscore.Hbond.Weighted>
-4.7507

> <Gold.Chemscore.Metal.Weighted>
-0.0000

> <Gold.Chemscore.Lipo.Weighted>
-9.7575

> <Gold.Chemscore.Internal_Hbond.Weighted>
0.0000

> <Gold.Chemscore.DEClash.Weighted>
0.1329

> <Gold.Chemscore.DEInternal.Weighted>
0.9420

> <Gold.Chemscore.Rot.Weighted>
6.8002

> <Gold.Chemscore.Internal.Correction.Weighted>
   9.000000E+99

> <Gold.Protein.RotatedTorsions>
[ 6907 6896 6895 6894 ] final   36.62 input  -60.11 | X-H torsion
[ 7974 7965 7964 7962 ] final  174.79 input  175.53 | X-H torsion
[ 8008 7997 7996 7995 ] final   12.13 input   59.86 | X-H torsion
[ 10167 10162 10161 10158 ] final   98.16 input  -65.29 | X-H torsion
[ 10718 10713 10712 10709 ] final    4.43 input   66.30 | X-H torsion
[ 10763 10752 10751 10750 ] final  111.66 input  -60.55 | X-H torsion
[ 11005 11000 10999 10996 ] final   82.60 input  -57.11 | X-H torsion

> <Gold.Protein.ActiveResidues>
 VAL166  LYS551  ARG553  GLY616  TRP617  ASP618  TYR619  PRO620  LYS621  CYS622 
 ASP623  PHE694  ASN695  SER759  ASP760  ASP761  ALA762  ILE779  LEU786  VAL792 
 PHE793  MET794  SER795  GLU796  ALA797  LYS798  CYS799  TRP800  GLU811  SER814 

> <Gold.Protein.RotatedAtoms>
  152.1322  134.9126  160.0557 H   0  0  0  0  0  0  0  0  0  0  0  0  # atno 6907 bound_to 6896
  152.0226  133.3900  159.4272 H   0  0  0  0  0  0  0  0  0  0  0  0  # atno 6908 bound_to 6896
  150.6857  134.3530  159.4961 H   0  0  0  0  0  0  0  0  0  0  0  0  # atno 6909 bound_to 6896
  144.7214  139.9850  143.6439 H   0  0  0  0  0  0  0  0  0  0  0  0  # atno 7974 bound_to 7965
  154.8164  140.2876  155.5817 H   0  0  0  0  0  0  0  0  0  0  0  0  # atno 8008 bound_to 7997
  156.2993  140.2558  156.2993 H   0  0  0  0  0  0  0  0  0  0  0  0  # atno 8009 bound_to 7997
  154.9388  140.0382  157.2075 H   0  0  0  0  0  0  0  0  0  0  0  0  # atno 8010 bound_to 7997
  139.7734  144.6914  151.0124 H   0  0  0  0  0  0  0  0  0  0  0  0  # atno 10167 bound_to 10162
  156.8925  130.5692  149.5649 H   0  0  0  0  0  0  0  0  0  0  0  0  # atno 10718 bound_to 10713
  153.4666  135.3710  155.2368 H   0  0  0  0  0  0  0  0  0  0  0  0  # atno 10763 bound_to 10752
  154.8757  135.3921  154.3862 H   0  0  0  0  0  0  0  0  0  0  0  0  # atno 10764 bound_to 10752
  153.4443  135.7084  153.6213 H   0  0  0  0  0  0  0  0  0  0  0  0  # atno 10765 bound_to 10752
  139.9058  134.8083  156.2196 H   0  0  0  0  0  0  0  0  0  0  0  0  # atno 11005 bound_to 11000
  146.0458  139.3464  143.0670 LP  0  0  0  0  0  0  0  0  0  0  0  0  # atno 17320 bound_to 7965
  145.8278  140.9646  143.0865 LP  0  0  0  0  0  0  0  0  0  0  0  0  # atno 17321 bound_to 7965
  140.7815  143.4563  151.0341 LP  0  0  0  0  0  0  0  0  0  0  0  0  # atno 17342 bound_to 10162
  139.8246  143.7773  152.3178 LP  0  0  0  0  0  0  0  0  0  0  0  0  # atno 17343 bound_to 10162
  156.0622  130.5672  150.9215 LP  0  0  0  0  0  0  0  0  0  0  0  0  # atno 17370 bound_to 10713
  157.6075  131.0938  150.8854 LP  0  0  0  0  0  0  0  0  0  0  0  0  # atno 17371 bound_to 10713
  141.0414  133.6936  156.1604 LP  0  0  0  0  0  0  0  0  0  0  0  0  # atno 17394 bound_to 11000
  140.6950  134.4625  157.5588 LP  0  0  0  0  0  0  0  0  0  0  0  0  # atno 17395 bound_to 11000

$$$$
