AV-unprocessed.smi:2775|AV-procd|sdf|10693|dock4
  -GOLD-   2272015133D 1   1.00000     0.00000
 Structure written by MMmdl.
 42 45  0  0  0  0  0  0  0  0  1 V2000
  156.4116  143.2440  167.1411 C   0  0  0  0  0  0  0  0  0  0  0  0
  156.0282  142.3000  166.0170 C   0  0  0  0  0  0  0  0  0  0  0  0
  156.5439  141.0542  166.0968 N   0  0  0  0  0  0  0  0  0  0  0  0
  156.2284  140.1736  165.1253 C   0  0  0  0  0  0  0  0  0  0  0  0
  155.3963  140.4877  164.0339 C   0  0  0  0  0  0  0  0  0  0  0  0
  154.8653  141.7965  163.9398 C   0  0  0  0  0  0  0  0  0  0  0  0
  154.0035  142.2313  162.8958 N   0  0  0  0  0  0  0  0  0  0  0  0
  153.9878  141.8979  161.5907 C   0  0  0  0  0  0  0  0  0  0  0  0
  154.7687  141.1179  161.0506 O   0  0  0  0  0  0  0  0  0  0  0  0
  153.0222  142.5155  160.8877 N   0  0  0  0  0  0  0  0  0  0  0  0
  152.7373  142.3734  159.4587 C   0  0  1  0  0  0  0  0  0  0  0  0
  151.6016  141.3704  159.1823 C   0  0  2  0  0  0  0  0  0  0  0  0
  151.8886  140.1106  158.4111 C   0  0  0  0  0  0  0  0  0  0  0  0
  151.4654  140.4776  156.9858 C   0  0  0  0  0  0  0  0  0  0  0  0
  151.5161  141.9020  156.9495 O   0  0  0  0  0  0  0  0  0  0  0  0
  151.0245  142.3811  158.1974 C   0  0  2  0  0  0  0  0  0  0  0  0
  151.8558  143.4884  158.8565 C   0  0  0  0  0  0  0  0  0  0  0  0
  151.1623  144.5640  159.7146 C   0  0  0  0  0  0  0  0  0  0  0  0
  152.1755  145.5828  159.1855 C   0  0  0  0  0  0  0  0  0  0  0  0
  152.4634  144.6265  158.0244 C   0  0  0  0  0  0  0  0  0  0  0  0
  155.1823  142.7196  164.9640 C   0  0  0  0  0  0  0  0  0  0  0  0
  154.5507  144.3329  164.9274 Cl  0  0  0  0  0  0  0  0  0  0  0  0
  156.9305  144.1160  166.7429 H   0  0  0  0  0  0  0  0  0  0  0  0
  157.0698  142.7614  167.8649 H   0  0  0  0  0  0  0  0  0  0  0  0
  155.5207  143.5836  167.6697 H   0  0  0  0  0  0  0  0  0  0  0  0
  156.6483  139.1833  165.2233 H   0  0  0  0  0  0  0  0  0  0  0  0
  155.1794  139.7200  163.3084 H   0  0  0  0  0  0  0  0  0  0  0  0
  153.3293  142.9311  163.1698 H   0  0  0  0  0  0  0  0  0  0  0  0
  152.4227  143.1482  161.3979 H   0  0  0  0  0  0  0  0  0  0  0  0
  153.6116  142.1615  158.8391 H   0  0  0  0  0  0  0  0  0  0  0  0
  150.9426  141.2371  160.0425 H   0  0  0  0  0  0  0  0  0  0  0  0
  152.9501  139.8637  158.4488 H   0  0  0  0  0  0  0  0  0  0  0  0
  151.3316  139.2520  158.7868 H   0  0  0  0  0  0  0  0  0  0  0  0
  152.1102  140.0337  156.2273 H   0  0  0  0  0  0  0  0  0  0  0  0
  150.4408  140.1545  156.7958 H   0  0  0  0  0  0  0  0  0  0  0  0
  149.9398  142.4877  158.2450 H   0  0  0  0  0  0  0  0  0  0  0  0
  150.1477  144.7786  159.3758 H   0  0  0  0  0  0  0  0  0  0  0  0
  151.1919  144.4116  160.7932 H   0  0  0  0  0  0  0  0  0  0  0  0
  151.7452  146.5400  158.8899 H   0  0  0  0  0  0  0  0  0  0  0  0
  153.0303  145.7143  159.8495 H   0  0  0  0  0  0  0  0  0  0  0  0
  153.5210  144.5066  157.7879 H   0  0  0  0  0  0  0  0  0  0  0  0
  151.8753  144.8560  157.1345 H   0  0  0  0  0  0  0  0  0  0  0  0
  1  2  1  0  0  0  0
  1 23  1  0  0  0  0
  1 24  1  0  0  0  0
  1 25  1  0  0  0  0
  2 21  1  0  0  0  0
  2  3  2  0  0  0  0
  3  4  1  0  0  0  0
  4  5  2  0  0  0  0
  4 26  1  0  0  0  0
  5  6  1  0  0  0  0
  5 27  1  0  0  0  0
  6  7  1  0  0  0  0
  6 21  2  0  0  0  0
  7  8  1  0  0  0  0
  7 28  1  0  0  0  0
  8  9  2  0  0  0  0
  8 10  1  0  0  0  0
 10 11  1  0  0  0  0
 10 29  1  0  0  0  0
 11 17  1  0  0  0  0
 11 12  1  0  0  0  0
 11 30  1  0  0  0  0
 12 16  1  0  0  0  0
 12 13  1  0  0  0  0
 12 31  1  0  0  0  0
 13 14  1  0  0  0  0
 13 32  1  0  0  0  0
 13 33  1  0  0  0  0
 14 15  1  0  0  0  0
 14 34  1  0  0  0  0
 14 35  1  0  0  0  0
 15 16  1  0  0  0  0
 16 17  1  0  0  0  0
 16 36  1  0  0  0  0
 17 20  1  0  0  0  0
 17 18  1  0  0  0  0
 18 19  1  0  0  0  0
 18 37  1  0  0  0  0
 18 38  1  0  0  0  0
 19 20  1  0  0  0  0
 19 39  1  0  0  0  0
 19 40  1  0  0  0  0
 20 41  1  0  0  0  0
 20 42  1  0  0  0  0
 21 22  1  0  0  0  0
M  END
> <s_m_source_file>
AV-unprocessed.smi

> <i_m_source_file_index>
2775

> <i_lp_mmshare_version>
43012

> <i_f3d_flags>
0

> <s_epik_input>
W0NIM11jMW5bY0hdW2NIXWMoYzFDbClbTkhdQyg9TylbTkhdW0NAQEhdMltDQEhdKFtDSDJdW0NIMl1PMylbQ0BASF0zQzI0W0NIMl1bQ0gyXVtDSDJdNA==

> <s_epik_cmdline>
J2VwaWtfcHl0aG9uJywgJy1waCcsICc3LjAnLCAnLXRuJywgJzgnLCAnLW1hJywgJzIwMCcsICctbWV0YWxfYmluZGluZycsICctaW1hZScsICc8aW5maWxlLm1hZT4nLCAnLW9tYWUnLCAnPG91dGZpbGUubWFlPic=

> <r_epik_Ionization_Penalty>
0.01026

> <r_epik_Ionization_Penalty_Charging>
0

> <r_epik_Ionization_Penalty_Neutral>
0.01026

> <r_epik_State_Penalty>
0.00780685

> <r_epik_Charging_Adjusted_Penalty>
0.00780685

> <i_epik_Tot_Q>
0

> <i_epik_Tot_abs_Q>
0

> <r_epik_Metal_State_Penalty>
0.00767411

> <b_epik_Metal_Only>
0

> <s_lp_Force_Field>
OPLS_2005

> <r_lp_Energy>
55.7344

> <b_lp_Chiralities_Consistent>
1

> <s_lp_Variant>
AV-unprocessed.smi:2775-6

> <Gold.Version>
5.8.1

> <Gold.Id.Protein>
6NUR|6NUR_protein|mol2

> <Gold.PLP.Fitness>
44.0266

> <Gold.PLP.PLP>
-44.8563

> <Gold.PLP.part.hbond>
-2.0000

> <Gold.PLP.part.metal>
0.0000

> <Gold.PLP.part.buried>
-1.3947

> <Gold.PLP.part.nonpolar>
-38.9744

> <Gold.PLP.part.repulsive>
0.1364

> <Gold.PLP.ligand.clash>
0.0000

> <Gold.PLP.ligand.torsion>
0.5119

> <Gold.PLP.Chemscore.Hbond>
0.0000

> <Gold.PLP.Chemscore.CHOScore>
0.0000

> <Gold.PLP.Chemscore.Metal>
0.0000

> <Gold.PLP.Chemscore.Internal.Correction>
0.1940

> <Gold.Rescore>
     Score         DG    S(hbond)    S(metal)    S(lipo)     H(rot)  DE(clash)    DE(int)     intcor
     17.71     -18.49       0.00        0.00     133.07       1.00       0.27       0.51       ----

> <Gold.Chemscore.Fitness>
17.7104

> <Gold.Chemscore.DG>
-18.4892

> <Gold.Chemscore.ZeroCoef>
-5.4800

> <Gold.Chemscore.Hbond>
0.0000

> <Gold.Chemscore.Metal>
0.0000

> <Gold.Chemscore.Lipo>
133.0700

> <Gold.Chemscore.Internal_Hbond>
0.0000

> <Gold.Chemscore.DEClash>
0.2669

> <Gold.Chemscore.DEInternal>
0.5119

> <Gold.Chemscore.Rot>
1.0000

> <Gold.Chemscore.Internal.Correction>
   9.000000E+99

> <Gold.Chemscore.Hbond.Weighted>
-0.0000

> <Gold.Chemscore.Metal.Weighted>
-0.0000

> <Gold.Chemscore.Lipo.Weighted>
-15.5692

> <Gold.Chemscore.Internal_Hbond.Weighted>
0.0000

> <Gold.Chemscore.DEClash.Weighted>
0.2669

> <Gold.Chemscore.DEInternal.Weighted>
0.5119

> <Gold.Chemscore.Rot.Weighted>
2.5600

> <Gold.Chemscore.Internal.Correction.Weighted>
   9.000000E+99

> <Gold.Protein.RotatedTorsions>
[ 6907 6896 6895 6894 ] final  110.76 input  -60.11 | X-H torsion
[ 7974 7965 7964 7962 ] final  138.35 input  175.53 | X-H torsion
[ 8008 7997 7996 7995 ] final  110.03 input   59.86 | X-H torsion
[ 10167 10162 10161 10158 ] final  -18.26 input  -65.29 | X-H torsion
[ 10718 10713 10712 10709 ] final   33.42 input   66.30 | X-H torsion
[ 10763 10752 10751 10750 ] final  120.11 input  -60.55 | X-H torsion
[ 11005 11000 10999 10996 ] final   56.28 input  -57.11 | X-H torsion

> <Gold.Protein.ActiveResidues>
 VAL166  LYS551  ARG553  GLY616  TRP617  ASP618  TYR619  PRO620  LYS621  CYS622 
 ASP623  PHE694  ASN695  SER759  ASP760  ASP761  ALA762  ILE779  LEU786  VAL792 
 PHE793  MET794  SER795  GLU796  ALA797  LYS798  CYS799  TRP800  GLU811  SER814 

> <Gold.Protein.RotatedAtoms>
  152.5004  133.8755  159.7319 H   0  0  0  0  0  0  0  0  0  0  0  0  # atno 6907 bound_to 6896
  150.9230  133.6848  159.2834 H   0  0  0  0  0  0  0  0  0  0  0  0  # atno 6908 bound_to 6896
  151.4218  135.1003  159.9669 H   0  0  0  0  0  0  0  0  0  0  0  0  # atno 6909 bound_to 6896
  144.9381  139.4965  143.5585 H   0  0  0  0  0  0  0  0  0  0  0  0  # atno 7974 bound_to 7965
  156.2023  140.3046  155.9553 H   0  0  0  0  0  0  0  0  0  0  0  0  # atno 8008 bound_to 7997
  155.2924  140.0442  157.3041 H   0  0  0  0  0  0  0  0  0  0  0  0  # atno 8009 bound_to 7997
  154.5587  140.2313  155.8378 H   0  0  0  0  0  0  0  0  0  0  0  0  # atno 8010 bound_to 7997
  140.7257  143.4934  150.9962 H   0  0  0  0  0  0  0  0  0  0  0  0  # atno 10167 bound_to 10162
  157.2977  130.7335  149.6648 H   0  0  0  0  0  0  0  0  0  0  0  0  # atno 10718 bound_to 10713
  153.5935  135.3461  155.2919 H   0  0  0  0  0  0  0  0  0  0  0  0  # atno 10763 bound_to 10752
  154.8648  135.4210  154.2490 H   0  0  0  0  0  0  0  0  0  0  0  0  # atno 10764 bound_to 10752
  153.3303  135.7044  153.7025 H   0  0  0  0  0  0  0  0  0  0  0  0  # atno 10765 bound_to 10752
  140.0541  134.5694  155.9228 H   0  0  0  0  0  0  0  0  0  0  0  0  # atno 11005 bound_to 11000
  146.3274  139.8380  142.8896 LP  0  0  0  0  0  0  0  0  0  0  0  0  # atno 17320 bound_to 7965
  145.3035  141.0201  143.3595 LP  0  0  0  0  0  0  0  0  0  0  0  0  # atno 17321 bound_to 7965
  139.8639  143.7278  152.3171 LP  0  0  0  0  0  0  0  0  0  0  0  0  # atno 17342 bound_to 10162
  139.7504  144.7536  151.0516 LP  0  0  0  0  0  0  0  0  0  0  0  0  # atno 17343 bound_to 10162
  155.9670  130.4289  150.4811 LP  0  0  0  0  0  0  0  0  0  0  0  0  # atno 17370 bound_to 10713
  157.2785  131.0602  151.2213 LP  0  0  0  0  0  0  0  0  0  0  0  0  # atno 17371 bound_to 10713
  141.1944  133.6583  156.5594 LP  0  0  0  0  0  0  0  0  0  0  0  0  # atno 17394 bound_to 11000
  140.3871  134.7473  157.4698 LP  0  0  0  0  0  0  0  0  0  0  0  0  # atno 17395 bound_to 11000

$$$$
