AV-unprocessed.smi:1671|AV-procd|sdf|6700|dock4
  -GOLD-   22720 7433D 1   1.00000     0.00000
 Structure written by MMmdl.
 44 45  0  0  0  0  0  0  0  0  1 V2000
  147.9816  132.8560  154.4978 C   0  0  0  0  0  0  0  0  0  0  0  0
  149.3481  133.9251  153.9696 S   0  0  0  0  0  0  0  0  0  0  0  0
  149.6457  134.8825  155.4861 C   0  0  1  0  0  0  0  0  0  0  0  0
  150.1769  133.9644  156.5980 C   0  0  0  0  0  0  0  0  0  0  0  0
  150.5953  136.0617  155.2422 C   0  0  0  0  0  0  0  0  0  0  0  0
  151.6097  136.1971  155.9272 O   0  0  0  0  0  0  0  0  0  0  0  0
  150.2572  136.9079  154.2565 N   0  0  0  0  0  0  0  0  0  0  0  0
  151.0259  138.0852  153.8663 C   0  0  0  0  0  0  0  0  0  0  0  0
  151.2896  139.0690  154.9976 C   0  0  0  0  0  0  0  0  0  0  0  0
  150.5068  140.2280  155.1833 C   0  0  0  0  0  0  0  0  0  0  0  0
  150.8121  141.0957  156.2489 C   0  0  0  0  0  0  0  0  0  0  0  0
  151.8958  140.7857  157.1048 C   0  0  0  0  0  0  0  0  0  0  0  0
  152.2180  141.6390  158.1828 N   0  0  0  0  0  0  0  0  0  0  0  0
  152.1839  141.0808  159.5332 C   0  0  0  0  0  0  0  0  0  0  0  0
  152.8392  142.0505  160.5298 C   0  0  0  0  0  0  0  0  0  0  0  0
  152.2106  143.3249  160.4419 O   0  0  0  0  0  0  0  0  0  0  0  0
  152.3519  143.9048  159.1481 C   0  0  2  0  0  0  0  0  0  0  0  0
  151.7289  145.3043  159.1778 C   0  0  0  0  0  0  0  0  0  0  0  0
  151.6770  142.9936  158.1043 C   0  0  0  0  0  0  0  0  0  0  0  0
  152.6546  139.6784  156.9129 N   0  0  0  0  0  0  0  0  0  0  0  0
  152.3568  138.8493  155.8907 C   0  0  0  0  0  0  0  0  0  0  0  0
  147.7241  132.1591  153.7006 H   0  0  0  0  0  0  0  0  0  0  0  0
  147.0969  133.4470  154.7339 H   0  0  0  0  0  0  0  0  0  0  0  0
  148.2646  132.2816  155.3798 H   0  0  0  0  0  0  0  0  0  0  0  0
  148.6815  135.2728  155.8160 H   0  0  0  0  0  0  0  0  0  0  0  0
  150.3703  134.5216  157.5155 H   0  0  0  0  0  0  0  0  0  0  0  0
  151.1050  133.4727  156.3038 H   0  0  0  0  0  0  0  0  0  0  0  0
  149.4533  133.1844  156.8363 H   0  0  0  0  0  0  0  0  0  0  0  0
  149.4096  136.7228  153.7399 H   0  0  0  0  0  0  0  0  0  0  0  0
  151.9719  137.7730  153.4202 H   0  0  0  0  0  0  0  0  0  0  0  0
  150.4741  138.6062  153.0836 H   0  0  0  0  0  0  0  0  0  0  0  0
  149.6851  140.4582  154.5213 H   0  0  0  0  0  0  0  0  0  0  0  0
  150.2241  141.9908  156.3861 H   0  0  0  0  0  0  0  0  0  0  0  0
  151.1483  140.8941  159.8209 H   0  0  0  0  0  0  0  0  0  0  0  0
  152.7090  140.1253  159.5618 H   0  0  0  0  0  0  0  0  0  0  0  0
  152.7335  141.6718  161.5464 H   0  0  0  0  0  0  0  0  0  0  0  0
  153.9087  142.1451  160.3352 H   0  0  0  0  0  0  0  0  0  0  0  0
  153.4137  144.0038  158.9151 H   0  0  0  0  0  0  0  0  0  0  0  0
  151.8217  145.7955  158.2089 H   0  0  0  0  0  0  0  0  0  0  0  0
  152.2221  145.9345  159.9183 H   0  0  0  0  0  0  0  0  0  0  0  0
  150.6692  145.2594  159.4310 H   0  0  0  0  0  0  0  0  0  0  0  0
  151.8165  143.4258  157.1146 H   0  0  0  0  0  0  0  0  0  0  0  0
  150.6013  142.9508  158.2815 H   0  0  0  0  0  0  0  0  0  0  0  0
  152.9915  137.9818  155.7851 H   0  0  0  0  0  0  0  0  0  0  0  0
  1  2  1  0  0  0  0
  1 22  1  0  0  0  0
  1 23  1  0  0  0  0
  1 24  1  0  0  0  0
  2  3  1  0  0  0  0
  3  4  1  0  0  0  0
  3  5  1  0  0  0  0
  3 25  1  0  0  0  0
  4 26  1  0  0  0  0
  4 27  1  0  0  0  0
  4 28  1  0  0  0  0
  5  6  2  0  0  0  0
  5  7  1  0  0  0  0
  7  8  1  0  0  0  0
  7 29  1  0  0  0  0
  8  9  1  0  0  0  0
  8 30  1  0  0  0  0
  8 31  1  0  0  0  0
  9 21  1  0  0  0  0
  9 10  2  0  0  0  0
 10 11  1  0  0  0  0
 10 32  1  0  0  0  0
 11 12  2  0  0  0  0
 11 33  1  0  0  0  0
 12 13  1  0  0  0  0
 12 20  1  0  0  0  0
 13 19  1  0  0  0  0
 13 14  1  0  0  0  0
 14 15  1  0  0  0  0
 14 34  1  0  0  0  0
 14 35  1  0  0  0  0
 15 16  1  0  0  0  0
 15 36  1  0  0  0  0
 15 37  1  0  0  0  0
 16 17  1  0  0  0  0
 17 18  1  0  0  0  0
 17 19  1  0  0  0  0
 17 38  1  0  0  0  0
 18 39  1  0  0  0  0
 18 40  1  0  0  0  0
 18 41  1  0  0  0  0
 19 42  1  0  0  0  0
 19 43  1  0  0  0  0
 20 21  2  0  0  0  0
 21 44  1  0  0  0  0
M  END
> <s_m_source_file>
AV-unprocessed.smi

> <i_m_source_file_index>
1671

> <i_lp_mmshare_version>
43012

> <i_f3d_flags>
0

> <s_epik_input>
W0NIM11TW0NASF0oW0NIM10pQyg9TylbTkhdW0NIMl1jMVtjSF1bY0hdYyhuW2NIXTEpTjJbQ0gyXVtDSDJdT1tDQEBIXShbQ0gzXSlbQ0gyXTI=

> <s_epik_cmdline>
J2VwaWtfcHl0aG9uJywgJy1waCcsICc3LjAnLCAnLXRuJywgJzgnLCAnLW1hJywgJzIwMCcsICctbWV0YWxfYmluZGluZycsICctaW1hZScsICc8aW5maWxlLm1hZT4nLCAnLW9tYWUnLCAnPG91dGZpbGUubWFlPic=

> <r_lp_tautomer_probability>
1

> <r_epik_Ionization_Penalty>
0.00480033

> <r_epik_Ionization_Penalty_Charging>
0

> <r_epik_Ionization_Penalty_Neutral>
0.00480033

> <r_epik_State_Penalty>
0.00347981

> <r_epik_Charging_Adjusted_Penalty>
0.00347981

> <i_epik_Tot_Q>
0

> <i_epik_Tot_abs_Q>
0

> <r_epik_Metal_State_Penalty>
-0

> <b_epik_Metal_Only>
0

> <s_lp_Force_Field>
OPLS_2005

> <r_lp_Energy>
15.0592

> <b_lp_Chiralities_Consistent>
1

> <s_lp_Variant>
AV-unprocessed.smi:1671-4

> <Gold.Version>
5.8.1

> <Gold.Id.Protein>
6NUR|6NUR_protein|mol2

> <Gold.PLP.Fitness>
50.7606

> <Gold.PLP.PLP>
-43.8254

> <Gold.PLP.part.hbond>
-3.9425

> <Gold.PLP.part.metal>
0.0000

> <Gold.PLP.part.buried>
-3.3673

> <Gold.PLP.part.nonpolar>
-36.5364

> <Gold.PLP.part.repulsive>
0.1327

> <Gold.PLP.ligand.clash>
0.0000

> <Gold.PLP.ligand.torsion>
0.6557

> <Gold.PLP.Chemscore.Hbond>
2.6220

> <Gold.PLP.Chemscore.CHOScore>
0.0000

> <Gold.PLP.Chemscore.Metal>
0.0000

> <Gold.Chemscore.Hbonds>
donor molecule, donor type, donor heavy atom, donor atom, acceptor molecule, acceptor atom, score
      L1  H     7    29       P1  7948  0.69
      P1  H  7997  8008       L1    20  0.90
      P1  H 10752 10763       L1     6  1.00

> <Gold.PLP.Chemscore.Internal.Correction>
0.3807

> <Gold.Rescore>
     Score         DG    S(hbond)    S(metal)    S(lipo)     H(rot)  DE(clash)    DE(int)     intcor
     18.66     -21.21       2.02        0.00     112.42       1.63       0.55       2.00       ----

> <Gold.Chemscore.Fitness>
18.6610

> <Gold.Chemscore.DG>
-21.2114

> <Gold.Chemscore.ZeroCoef>
-5.4800

> <Gold.Chemscore.Hbond>
2.0191

> <Gold.Chemscore.Metal>
0.0000

> <Gold.Chemscore.Lipo>
112.4200

> <Gold.Chemscore.Internal_Hbond>
0.0000

> <Gold.Chemscore.DEClash>
0.5526

> <Gold.Chemscore.DEInternal>
1.9979

> <Gold.Chemscore.Rot>
1.6272

> <Gold.Chemscore.Internal.Correction>
   9.000000E+99

> <Gold.Chemscore.Hbonds>
donor molecule, donor type, donor heavy atom, donor atom, acceptor molecule, acceptor atom, score
      L1  H     7    29       P1  7948  0.61
      P1  H  7997  8008       L1    20  0.14
      P1  H 10752 10763       L1     6  0.70

> <Gold.Chemscore.Hbond.Weighted>
-6.7440

> <Gold.Chemscore.Metal.Weighted>
-0.0000

> <Gold.Chemscore.Lipo.Weighted>
-13.1531

> <Gold.Chemscore.Internal_Hbond.Weighted>
0.0000

> <Gold.Chemscore.DEClash.Weighted>
0.5526

> <Gold.Chemscore.DEInternal.Weighted>
1.9979

> <Gold.Chemscore.Rot.Weighted>
4.1657

> <Gold.Chemscore.Internal.Correction.Weighted>
   9.000000E+99

> <Gold.Protein.RotatedTorsions>
[ 6907 6896 6895 6894 ] final   32.04 input  -60.11 | X-H torsion
[ 7974 7965 7964 7962 ] final    1.78 input  175.53 | X-H torsion
[ 8008 7997 7996 7995 ] final  -43.85 input   59.86 | X-H torsion
[ 10167 10162 10161 10158 ] final -157.69 input  -65.29 | X-H torsion
[ 10718 10713 10712 10709 ] final   56.48 input   66.30 | X-H torsion
[ 10763 10752 10751 10750 ] final   84.39 input  -60.55 | X-H torsion
[ 11005 11000 10999 10996 ] final  179.50 input  -57.11 | X-H torsion

> <Gold.Protein.ActiveResidues>
 VAL166  LYS551  ARG553  GLY616  TRP617  ASP618  TYR619  PRO620  LYS621  CYS622 
 ASP623  PHE694  ASN695  SER759  ASP760  ASP761  ALA762  ILE779  LEU786  VAL792 
 PHE793  MET794  SER795  GLU796  ALA797  LYS798  CYS799  TRP800  GLU811  SER814 

> <Gold.Protein.RotatedAtoms>
  152.0688  134.9547  160.0574 H   0  0  0  0  0  0  0  0  0  0  0  0  # atno 6907 bound_to 6896
  152.0881  133.4181  159.4539 H   0  0  0  0  0  0  0  0  0  0  0  0  # atno 6908 bound_to 6896
  150.6836  134.2824  159.4676 H   0  0  0  0  0  0  0  0  0  0  0  0  # atno 6909 bound_to 6896
  146.2441  140.0935  142.8351 H   0  0  0  0  0  0  0  0  0  0  0  0  # atno 7974 bound_to 7965
  154.3997  140.1437  156.3587 H   0  0  0  0  0  0  0  0  0  0  0  0  # atno 8008 bound_to 7997
  155.8201  140.3469  155.5488 H   0  0  0  0  0  0  0  0  0  0  0  0  # atno 8009 bound_to 7997
  155.8296  140.0910  157.1791 H   0  0  0  0  0  0  0  0  0  0  0  0  # atno 8010 bound_to 7997
  139.6750  143.9678  152.2305 H   0  0  0  0  0  0  0  0  0  0  0  0  # atno 10167 bound_to 10162
  157.5434  130.8714  149.8856 H   0  0  0  0  0  0  0  0  0  0  0  0  # atno 10718 bound_to 10713
  153.1378  135.4656  154.9449 H   0  0  0  0  0  0  0  0  0  0  0  0  # atno 10763 bound_to 10752
  154.7721  135.3162  154.8171 H   0  0  0  0  0  0  0  0  0  0  0  0  # atno 10764 bound_to 10752
  153.8700  135.6904  153.4829 H   0  0  0  0  0  0  0  0  0  0  0  0  # atno 10765 bound_to 10752
  140.4069  134.6727  157.4593 H   0  0  0  0  0  0  0  0  0  0  0  0  # atno 11005 bound_to 11000
  145.0630  140.9101  143.4927 LP  0  0  0  0  0  0  0  0  0  0  0  0  # atno 17320 bound_to 7965
  145.1054  139.2793  143.5665 LP  0  0  0  0  0  0  0  0  0  0  0  0  # atno 17321 bound_to 7965
  139.9453  144.6655  150.8225 LP  0  0  0  0  0  0  0  0  0  0  0  0  # atno 17342 bound_to 10162
  140.7632  143.3217  151.2606 LP  0  0  0  0  0  0  0  0  0  0  0  0  # atno 17343 bound_to 10162
  156.0516  130.3716  150.1189 LP  0  0  0  0  0  0  0  0  0  0  0  0  # atno 17370 bound_to 10713
  156.9367  130.9731  151.3523 LP  0  0  0  0  0  0  0  0  0  0  0  0  # atno 17371 bound_to 10713
  140.0296  134.6426  155.9125 LP  0  0  0  0  0  0  0  0  0  0  0  0  # atno 17394 bound_to 11000
  141.1836  133.6551  156.5122 LP  0  0  0  0  0  0  0  0  0  0  0  0  # atno 17395 bound_to 11000

$$$$
