AV-unprocessed.smi:3163|AV-procd|sdf|12077|dock8
  -GOLD-   2272017503D 1   1.00000     0.00000
 Structure written by MMmdl.
 37 38  0  0  0  0  0  0  0  0  3 V2000
  143.5960  132.0995  150.6499 C   0  0  0  0  0  0  0  0  0  0  0  0
  143.4353  133.5516  150.8738 N   0  3  1  0  0  0  0  0  0  0  0  0
  143.5056  133.9568  152.2943 C   0  0  0  0  0  0  0  0  0  0  0  0
  144.1117  135.3580  152.2875 C   0  0  0  0  0  0  0  0  0  0  0  0
  145.1107  135.2837  151.1358 C   0  0  2  0  0  0  0  0  0  0  0  0
  145.5611  136.6612  150.6125 C   0  0  0  0  0  0  0  0  0  0  0  0
  146.6476  137.2253  151.4084 N   0  0  0  0  0  0  0  0  0  0  0  0
  146.6090  138.3937  152.0654 C   0  0  0  0  0  0  0  0  0  0  0  0
  145.6396  139.1513  152.0444 O   0  0  0  0  0  0  0  0  0  0  0  0
  147.7625  138.6252  152.7161 N   0  0  0  0  0  0  0  0  0  0  0  0
  148.1173  139.7393  153.5255 C   0  0  0  0  0  0  0  0  0  0  0  0
  147.2579  140.8606  153.5051 C   0  0  0  0  0  0  0  0  0  0  0  0
  147.5743  141.9949  154.2803 C   0  0  0  0  0  0  0  0  0  0  0  0
  148.6989  142.0062  155.0273 N   0  3  0  0  0  0  0  0  0  0  0  0
  149.5585  140.9656  155.0679 C   0  0  0  0  0  0  0  0  0  0  0  0
  149.2947  139.8036  154.3142 C   0  0  0  0  0  0  0  0  0  0  0  0
  144.3833  134.3976  150.1116 C   0  0  0  0  0  0  0  0  0  0  0  0
  144.5856  131.7613  150.9593 H   0  0  0  0  0  0  0  0  0  0  0  0
  143.4665  131.8604  149.5939 H   0  0  0  0  0  0  0  0  0  0  0  0
  142.8486  131.5420  151.2153 H   0  0  0  0  0  0  0  0  0  0  0  0
  142.5243  133.9260  152.7686 H   0  0  0  0  0  0  0  0  0  0  0  0
  144.1644  133.2812  152.8429 H   0  0  0  0  0  0  0  0  0  0  0  0
  143.3388  136.0983  152.0742 H   0  0  0  0  0  0  0  0  0  0  0  0
  144.5779  135.6203  153.2378 H   0  0  0  0  0  0  0  0  0  0  0  0
  145.9863  134.7399  151.4951 H   0  0  0  0  0  0  0  0  0  0  0  0
  145.8404  136.6028  149.5589 H   0  0  0  0  0  0  0  0  0  0  0  0
  144.7245  137.3586  150.6649 H   0  0  0  0  0  0  0  0  0  0  0  0
  147.4879  136.6696  151.4789 H   0  0  0  0  0  0  0  0  0  0  0  0
  148.4946  137.9447  152.5733 H   0  0  0  0  0  0  0  0  0  0  0  0
  146.3590  140.8543  152.9054 H   0  0  0  0  0  0  0  0  0  0  0  0
  146.9671  142.8874  154.3229 H   0  0  0  0  0  0  0  0  0  0  0  0
  150.4298  141.0944  155.6936 H   0  0  0  0  0  0  0  0  0  0  0  0
  150.0069  138.9936  154.3472 H   0  0  0  0  0  0  0  0  0  0  0  0
  145.0867  133.8147  149.5152 H   0  0  0  0  0  0  0  0  0  0  0  0
  143.7951  135.0051  149.4233 H   0  0  0  0  0  0  0  0  0  0  0  0
  142.5128  133.8022  150.5472 H   0  0  0  0  0  0  0  0  0  0  0  0
  148.9112  142.8375  155.5798 H   0  0  0  0  0  0  0  0  0  0  0  0
  1  2  1  0  0  0  0
  1 18  1  0  0  0  0
  1 19  1  0  0  0  0
  1 20  1  0  0  0  0
  2 17  1  0  0  0  0
  2  3  1  0  0  0  0
  2 36  1  0  0  0  0
  3  4  1  0  0  0  0
  3 21  1  0  0  0  0
  3 22  1  0  0  0  0
  4  5  1  0  0  0  0
  4 23  1  0  0  0  0
  4 24  1  0  0  0  0
  5  6  1  0  0  0  0
  5 17  1  0  0  0  0
  5 25  1  0  0  0  0
  6  7  1  0  0  0  0
  6 26  1  0  0  0  0
  6 27  1  0  0  0  0
  7  8  1  0  0  0  0
  7 28  1  0  0  0  0
  8  9  2  0  0  0  0
  8 10  1  0  0  0  0
 10 11  1  0  0  0  0
 10 29  1  0  0  0  0
 11 16  1  0  0  0  0
 11 12  2  0  0  0  0
 12 13  1  0  0  0  0
 12 30  1  0  0  0  0
 13 14  2  0  0  0  0
 13 31  1  0  0  0  0
 14 15  1  0  0  0  0
 14 37  1  0  0  0  0
 15 16  2  0  0  0  0
 15 32  1  0  0  0  0
 16 33  1  0  0  0  0
 17 34  1  0  0  0  0
 17 35  1  0  0  0  0
M  CHG  1   2   1
M  CHG  1  14   1
M  END
> <s_m_source_file>
AV-unprocessed.smi

> <i_m_source_file_index>
3163

> <i_lp_mmshare_version>
43012

> <i_f3d_flags>
0

> <s_epik_input>
W0NIM11OMVtDSDJdW0NIMl1bQ0BIXShbQ0gyXTEpW0NIMl1bTkhdQyg9TylbTkhdYzJbY0hdW2NIXW5bY0hdW2NIXTI=

> <s_epik_cmdline>
J2VwaWtfcHl0aG9uJywgJy1waCcsICc3LjAnLCAnLXRuJywgJzgnLCAnLW1hJywgJzIwMCcsICctbWV0YWxfYmluZGluZycsICctaW1hZScsICc8aW5maWxlLm1hZT4nLCAnLW9tYWUnLCAnPG91dGZpbGUubWFlPic=

> <r_epik_Ionization_Penalty>
1.09034

> <r_epik_Ionization_Penalty_Charging>
1.09032

> <r_epik_Ionization_Penalty_Neutral>
1.86664e-05

> <r_epik_State_Penalty>
1.14521

> <r_epik_Charging_Adjusted_Penalty>
2.23553

> <i_epik_Tot_Q>
2

> <i_epik_Tot_abs_Q>
2

> <r_epik_Metal_State_Penalty>
1.23399

> <b_epik_Metal_Only>
0

> <s_lp_Force_Field>
OPLS_2005

> <r_lp_Energy>
39.8127

> <b_lp_Chiralities_Consistent>
1

> <s_lp_Variant>
AV-unprocessed.smi:3163-7

> <Gold.Version>
5.8.1

> <Gold.Id.Protein>
6NUR|6NUR_protein|mol2

> <Gold.PLP.Fitness>
44.9253

> <Gold.PLP.PLP>
-27.8292

> <Gold.PLP.part.hbond>
-4.8587

> <Gold.PLP.part.metal>
0.0000

> <Gold.PLP.part.buried>
2.6369

> <Gold.PLP.part.nonpolar>
-33.5752

> <Gold.PLP.part.repulsive>
6.7452

> <Gold.PLP.ligand.clash>
0.0000

> <Gold.PLP.ligand.torsion>
0.2592

> <Gold.PLP.Chemscore.Hbond>
5.8708

> <Gold.PLP.Chemscore.CHOScore>
0.0000

> <Gold.PLP.Chemscore.Metal>
0.0000

> <Gold.Chemscore.Hbonds>
donor molecule, donor type, donor heavy atom, donor atom, acceptor molecule, acceptor atom, score
      L1  H     2    36       P1 10186  2.00
      L1  H     7    28       P1  7948  1.00
      L1  H    10    29       P1  7948  0.94
      L1  H    14    37       P1  8028  1.82

> <Gold.PLP.Chemscore.Internal.Correction>
0.0022

> <Gold.Rescore>
     Score         DG    S(hbond)    S(metal)    S(lipo)     H(rot)  DE(clash)    DE(int)     intcor
     16.60     -24.03       3.82        0.00      77.34       1.27       5.77       1.66       ----

> <Gold.Chemscore.Fitness>
16.5992

> <Gold.Chemscore.DG>
-24.0315

> <Gold.Chemscore.ZeroCoef>
-5.4800

> <Gold.Chemscore.Hbond>
3.8202

> <Gold.Chemscore.Metal>
0.0000

> <Gold.Chemscore.Lipo>
77.3368

> <Gold.Chemscore.Internal_Hbond>
0.0000

> <Gold.Chemscore.DEClash>
5.7743

> <Gold.Chemscore.DEInternal>
1.6580

> <Gold.Chemscore.Rot>
1.2721

> <Gold.Chemscore.Internal.Correction>
   9.000000E+99

> <Gold.Chemscore.Hbonds>
donor molecule, donor type, donor heavy atom, donor atom, acceptor molecule, acceptor atom, score
      L1  H     2    36       P1 10186  0.92
      L1  H     7    28       P1  7948  0.94
      L1  H    10    29       P1  7948  0.91
      L1  H    14    37       P1  8028  0.89

> <Gold.Chemscore.Hbond.Weighted>
-12.7596

> <Gold.Chemscore.Metal.Weighted>
-0.0000

> <Gold.Chemscore.Lipo.Weighted>
-9.0484

> <Gold.Chemscore.Internal_Hbond.Weighted>
0.0000

> <Gold.Chemscore.DEClash.Weighted>
5.7743

> <Gold.Chemscore.DEInternal.Weighted>
1.6580

> <Gold.Chemscore.Rot.Weighted>
3.2565

> <Gold.Chemscore.Internal.Correction.Weighted>
   9.000000E+99

> <Gold.Protein.RotatedTorsions>
[ 6907 6896 6895 6894 ] final  129.33 input  -60.11 | X-H torsion
[ 7974 7965 7964 7962 ] final  -94.06 input  175.53 | X-H torsion
[ 8008 7997 7996 7995 ] final   13.10 input   59.86 | X-H torsion
[ 10167 10162 10161 10158 ] final -169.94 input  -65.29 | X-H torsion
[ 10718 10713 10712 10709 ] final  162.09 input   66.30 | X-H torsion
[ 10763 10752 10751 10750 ] final   85.49 input  -60.55 | X-H torsion
[ 11005 11000 10999 10996 ] final  -88.94 input  -57.11 | X-H torsion

> <Gold.Protein.ActiveResidues>
 VAL166  LYS551  ARG553  GLY616  TRP617  ASP618  TYR619  PRO620  LYS621  CYS622 
 ASP623  PHE694  ASN695  SER759  ASP760  ASP761  ALA762  ILE779  LEU786  VAL792 
 PHE793  MET794  SER795  GLU796  ALA797  LYS798  CYS799  TRP800  GLU811  SER814 

> <Gold.Protein.RotatedAtoms>
  152.3634  133.6326  159.6032 H   0  0  0  0  0  0  0  0  0  0  0  0  # atno 6907 bound_to 6896
  150.7617  133.9386  159.3458 H   0  0  0  0  0  0  0  0  0  0  0  0  # atno 6908 bound_to 6896
  151.7221  135.0893  160.0337 H   0  0  0  0  0  0  0  0  0  0  0  0  # atno 6909 bound_to 6896
  145.3783  140.9514  143.2408 H   0  0  0  0  0  0  0  0  0  0  0  0  # atno 7974 bound_to 7965
  154.8298  140.2897  155.5730 H   0  0  0  0  0  0  0  0  0  0  0  0  # atno 8008 bound_to 7997
  156.3004  140.2534  156.3151 H   0  0  0  0  0  0  0  0  0  0  0  0  # atno 8009 bound_to 7997
  154.9244  140.0385  157.2004 H   0  0  0  0  0  0  0  0  0  0  0  0  # atno 8010 bound_to 7997
  139.5892  144.1250  152.1613 H   0  0  0  0  0  0  0  0  0  0  0  0  # atno 10167 bound_to 10162
  157.1274  131.0508  151.2387 H   0  0  0  0  0  0  0  0  0  0  0  0  # atno 10718 bound_to 10713
  153.1480  135.4615  154.9594 H   0  0  0  0  0  0  0  0  0  0  0  0  # atno 10763 bound_to 10752
  154.7802  135.3186  154.8009 H   0  0  0  0  0  0  0  0  0  0  0  0  # atno 10764 bound_to 10752
  153.8519  135.6920  153.4845 H   0  0  0  0  0  0  0  0  0  0  0  0  # atno 10765 bound_to 10752
  141.1593  133.7600  156.9524 H   0  0  0  0  0  0  0  0  0  0  0  0  # atno 11005 bound_to 11000
  144.8526  139.5299  143.6849 LP  0  0  0  0  0  0  0  0  0  0  0  0  # atno 17320 bound_to 7965
  146.2854  139.6989  142.9199 LP  0  0  0  0  0  0  0  0  0  0  0  0  # atno 17321 bound_to 7965
  140.0821  144.5692  150.7115 LP  0  0  0  0  0  0  0  0  0  0  0  0  # atno 17342 bound_to 10162
  140.7158  143.2544  151.4438 LP  0  0  0  0  0  0  0  0  0  0  0  0  # atno 17343 bound_to 10162
  157.4423  130.7551  149.7079 LP  0  0  0  0  0  0  0  0  0  0  0  0  # atno 17370 bound_to 10713
  155.9815  130.4018  150.3467 LP  0  0  0  0  0  0  0  0  0  0  0  0  # atno 17371 bound_to 10713
  140.1248  134.9394  157.2255 LP  0  0  0  0  0  0  0  0  0  0  0  0  # atno 17394 bound_to 11000
  140.3026  134.3114  155.7286 LP  0  0  0  0  0  0  0  0  0  0  0  0  # atno 17395 bound_to 11000

$$$$
