AV-unprocessed.smi:345|AV-procd|sdf|2391|dock10
  -GOLD-   2262022323D 1   1.00000     0.00000
 Structure written by MMmdl.
 34 36  0  0  0  0  0  0  0  0  1 V2000
  150.3108  130.3223  154.1582 C   0  0  0  0  0  0  0  0  0  0  0  0
  150.3297  131.7805  154.4651 C   0  0  0  0  0  0  0  0  0  0  0  0
  149.9391  132.8852  153.7614 C   0  0  0  0  0  0  0  0  0  0  0  0
  150.2297  133.9517  154.6530 C   0  0  0  0  0  0  0  0  0  0  0  0
  149.9546  135.2957  154.2936 N   0  0  0  0  0  0  0  0  0  0  0  0
  150.2369  136.4060  154.9963 C   0  0  0  0  0  0  0  0  0  0  0  0
  150.8220  136.4287  156.0794 O   0  0  0  0  0  0  0  0  0  0  0  0
  149.7956  137.5047  154.3659 N   0  0  0  0  0  0  0  0  0  0  0  0
  149.9128  138.8737  154.8578 C   0  0  0  0  0  0  0  0  0  0  0  0
  148.9853  139.8357  154.1319 C   0  0  0  0  0  0  0  0  0  0  0  0
  148.8028  141.2590  154.6048 C   0  0  0  0  0  0  0  0  0  0  0  0
  147.6681  140.2693  154.7317 C   0  0  0  0  0  0  0  0  0  0  0  0
  151.3457  139.3697  154.7809 C   0  0  0  0  0  0  0  0  0  0  0  0
  152.3813  138.9250  155.7858 C   0  0  0  0  0  0  0  0  0  0  0  0
  151.8945  140.3567  155.7843 C   0  0  0  0  0  0  0  0  0  0  0  0
  150.7564  133.5367  155.7948 N   0  0  0  0  0  0  0  0  0  0  0  0
  150.8229  132.1430  155.6803 O   0  0  0  0  0  0  0  0  0  0  0  0
  149.9695  130.1426  153.1386 H   0  0  0  0  0  0  0  0  0  0  0  0
  149.6398  129.7946  154.8360 H   0  0  0  0  0  0  0  0  0  0  0  0
  151.3065  129.8912  154.2634 H   0  0  0  0  0  0  0  0  0  0  0  0
  149.5107  132.9206  152.7708 H   0  0  0  0  0  0  0  0  0  0  0  0
  149.4752  135.4245  153.4150 H   0  0  0  0  0  0  0  0  0  0  0  0
  149.3321  137.3856  153.4770 H   0  0  0  0  0  0  0  0  0  0  0  0
  149.6326  138.8784  155.9135 H   0  0  0  0  0  0  0  0  0  0  0  0
  148.9877  139.7024  153.0515 H   0  0  0  0  0  0  0  0  0  0  0  0
  149.3026  141.5618  155.5223 H   0  0  0  0  0  0  0  0  0  0  0  0
  148.7139  142.0326  153.8450 H   0  0  0  0  0  0  0  0  0  0  0  0
  146.8230  140.3811  154.0558 H   0  0  0  0  0  0  0  0  0  0  0  0
  147.4215  139.9194  155.7320 H   0  0  0  0  0  0  0  0  0  0  0  0
  151.7050  139.4933  153.7606 H   0  0  0  0  0  0  0  0  0  0  0  0
  152.0544  138.2856  156.6035 H   0  0  0  0  0  0  0  0  0  0  0  0
  153.3882  138.7361  155.4196 H   0  0  0  0  0  0  0  0  0  0  0  0
  152.5751  141.1206  155.4142 H   0  0  0  0  0  0  0  0  0  0  0  0
  151.2513  140.6638  156.6063 H   0  0  0  0  0  0  0  0  0  0  0  0
  1  2  1  0  0  0  0
  1 18  1  0  0  0  0
  1 19  1  0  0  0  0
  1 20  1  0  0  0  0
  2 17  1  0  0  0  0
  2  3  2  0  0  0  0
  3  4  1  0  0  0  0
  3 21  1  0  0  0  0
  4  5  1  0  0  0  0
  4 16  2  0  0  0  0
  5  6  1  0  0  0  0
  5 22  1  0  0  0  0
  6  7  2  0  0  0  0
  6  8  1  0  0  0  0
  8  9  1  0  0  0  0
  8 23  1  0  0  0  0
  9 10  1  0  0  0  0
  9 13  1  0  0  0  0
  9 24  1  0  0  0  0
 10 12  1  0  0  0  0
 10 11  1  0  0  0  0
 10 25  1  0  0  0  0
 11 12  1  0  0  0  0
 11 26  1  0  0  0  0
 11 27  1  0  0  0  0
 12 28  1  0  0  0  0
 12 29  1  0  0  0  0
 13 15  1  0  0  0  0
 13 14  1  0  0  0  0
 13 30  1  0  0  0  0
 14 15  1  0  0  0  0
 14 31  1  0  0  0  0
 14 32  1  0  0  0  0
 15 33  1  0  0  0  0
 15 34  1  0  0  0  0
 16 17  1  0  0  0  0
M  END
> <s_m_source_file>
AV-unprocessed.smi

> <i_m_source_file_index>
345

> <i_lp_mmshare_version>
43012

> <i_f3d_flags>
0

> <s_epik_input>
W0NIM11jMVtjSF1jKG5vMSlbTkhdQyg9TylbTkhdW0NIXShbQ0hdMltDSDJdW0NIMl0yKVtDSF0zW0NIMl1bQ0gyXTM=

> <s_epik_cmdline>
J2VwaWtfcHl0aG9uJywgJy1waCcsICc3LjAnLCAnLXRuJywgJzgnLCAnLW1hJywgJzIwMCcsICctbWV0YWxfYmluZGluZycsICctaW1hZScsICc8aW5maWxlLm1hZT4nLCAnLW9tYWUnLCAnPG91dGZpbGUubWFlPic=

> <r_lp_tautomer_probability>
1

> <r_epik_Ionization_Penalty>
2.39082e-05

> <r_epik_Ionization_Penalty_Charging>
0

> <r_epik_Ionization_Penalty_Neutral>
2.39082e-05

> <r_epik_State_Penalty>
-0

> <r_epik_Charging_Adjusted_Penalty>
0

> <i_epik_Tot_Q>
0

> <i_epik_Tot_abs_Q>
0

> <r_epik_Metal_State_Penalty>
-0

> <b_epik_Metal_Only>
0

> <s_lp_Force_Field>
OPLS_2005

> <r_lp_Energy>
21.3823

> <b_lp_Chiralities_Consistent>
1

> <s_lp_Variant>
AV-unprocessed.smi:345-1

> <Gold.Version>
5.8.1

> <Gold.Id.Protein>
6NUR|6NUR_protein|mol2

> <Gold.PLP.Fitness>
35.7996

> <Gold.PLP.PLP>
-30.3382

> <Gold.PLP.part.hbond>
-2.0055

> <Gold.PLP.part.metal>
0.0000

> <Gold.PLP.part.buried>
-0.4658

> <Gold.PLP.part.nonpolar>
-27.2286

> <Gold.PLP.part.repulsive>
0.0821

> <Gold.PLP.ligand.clash>
0.0000

> <Gold.PLP.ligand.torsion>
1.3247

> <Gold.PLP.Chemscore.Hbond>
2.0000

> <Gold.PLP.Chemscore.CHOScore>
0.0000

> <Gold.PLP.Chemscore.Metal>
0.0000

> <Gold.Chemscore.Hbonds>
donor molecule, donor type, donor heavy atom, donor atom, acceptor molecule, acceptor atom, score
      L1  H     5    22       P1  7948  0.75
      L1  H     8    23       P1  7948  0.98

> <Gold.PLP.Chemscore.Internal.Correction>
2.1107

> <Gold.Rescore>
     Score         DG    S(hbond)    S(metal)    S(lipo)     H(rot)  DE(clash)    DE(int)     intcor
     11.62     -14.50       1.61        0.00      62.25       1.42       0.21       2.67       ----

> <Gold.Chemscore.Fitness>
11.6192

> <Gold.Chemscore.DG>
-14.4974

> <Gold.Chemscore.ZeroCoef>
-5.4800

> <Gold.Chemscore.Hbond>
1.6061

> <Gold.Chemscore.Metal>
0.0000

> <Gold.Chemscore.Lipo>
62.2543

> <Gold.Chemscore.Internal_Hbond>
0.0000

> <Gold.Chemscore.DEClash>
0.2074

> <Gold.Chemscore.DEInternal>
2.6709

> <Gold.Chemscore.Rot>
1.4183

> <Gold.Chemscore.Internal.Correction>
   9.000000E+99

> <Gold.Chemscore.Hbonds>
donor molecule, donor type, donor heavy atom, donor atom, acceptor molecule, acceptor atom, score
      L1  H     5    22       P1  7948  0.09
      L1  H     8    23       P1  7948  0.88

> <Gold.Chemscore.Hbond.Weighted>
-5.3645

> <Gold.Chemscore.Metal.Weighted>
-0.0000

> <Gold.Chemscore.Lipo.Weighted>
-7.2838

> <Gold.Chemscore.Internal_Hbond.Weighted>
0.0000

> <Gold.Chemscore.DEClash.Weighted>
0.2074

> <Gold.Chemscore.DEInternal.Weighted>
2.6709

> <Gold.Chemscore.Rot.Weighted>
3.6308

> <Gold.Chemscore.Internal.Correction.Weighted>
   9.000000E+99

> <Gold.Protein.RotatedTorsions>
[ 6907 6896 6895 6894 ] final   -0.77 input  -60.11 | X-H torsion
[ 7974 7965 7964 7962 ] final   34.03 input  175.53 | X-H torsion
[ 8008 7997 7996 7995 ] final -104.17 input   59.86 | X-H torsion
[ 10167 10162 10161 10158 ] final   91.75 input  -65.29 | X-H torsion
[ 10718 10713 10712 10709 ] final   76.50 input   66.30 | X-H torsion
[ 10763 10752 10751 10750 ] final  -79.44 input  -60.55 | X-H torsion
[ 11005 11000 10999 10996 ] final  -57.94 input  -57.11 | X-H torsion

> <Gold.Protein.ActiveResidues>
 VAL166  LYS551  ARG553  GLY616  TRP617  ASP618  TYR619  PRO620  LYS621  CYS622 
 ASP623  PHE694  ASN695  SER759  ASP760  ASP761  ALA762  ILE779  LEU786  VAL792 
 PHE793  MET794  SER795  GLU796  ALA797  LYS798  CYS799  TRP800  GLU811  SER814 

> <Gold.Protein.RotatedAtoms>
  151.5569  135.1066  159.9962 H   0  0  0  0  0  0  0  0  0  0  0  0  # atno 6907 bound_to 6896
  152.4465  133.7542  159.6722 H   0  0  0  0  0  0  0  0  0  0  0  0  # atno 6908 bound_to 6896
  150.8382  133.7911  159.3095 H   0  0  0  0  0  0  0  0  0  0  0  0  # atno 6909 bound_to 6896
  146.1381  139.6321  142.9182 H   0  0  0  0  0  0  0  0  0  0  0  0  # atno 7974 bound_to 7965
  154.8815  140.0419  157.1785 H   0  0  0  0  0  0  0  0  0  0  0  0  # atno 8008 bound_to 7997
  154.8634  140.2947  155.5504 H   0  0  0  0  0  0  0  0  0  0  0  0  # atno 8009 bound_to 7997
  156.2998  140.2442  156.3612 H   0  0  0  0  0  0  0  0  0  0  0  0  # atno 8010 bound_to 7997
  139.8344  144.6671  150.9360 H   0  0  0  0  0  0  0  0  0  0  0  0  # atno 10167 bound_to 10162
  157.6676  130.9777  150.1506 H   0  0  0  0  0  0  0  0  0  0  0  0  # atno 10718 bound_to 10713
  154.5386  135.5695  153.6820 H   0  0  0  0  0  0  0  0  0  0  0  0  # atno 10763 bound_to 10752
  152.9957  135.6222  154.2532 H   0  0  0  0  0  0  0  0  0  0  0  0  # atno 10764 bound_to 10752
  154.2462  135.2860  155.2814 H   0  0  0  0  0  0  0  0  0  0  0  0  # atno 10765 bound_to 10752
  141.1186  133.6611  156.4845 H   0  0  0  0  0  0  0  0  0  0  0  0  # atno 11005 bound_to 11000
  145.5110  141.0435  143.2487 LP  0  0  0  0  0  0  0  0  0  0  0  0  # atno 17320 bound_to 7965
  144.7761  139.6626  143.7174 LP  0  0  0  0  0  0  0  0  0  0  0  0  # atno 17321 bound_to 7965
  140.7804  143.3970  151.1212 LP  0  0  0  0  0  0  0  0  0  0  0  0  # atno 17342 bound_to 10162
  139.7621  143.8619  152.3102 LP  0  0  0  0  0  0  0  0  0  0  0  0  # atno 17343 bound_to 10162
  156.2306  130.3682  149.8449 LP  0  0  0  0  0  0  0  0  0  0  0  0  # atno 17370 bound_to 10713
  156.6277  130.8652  151.3489 LP  0  0  0  0  0  0  0  0  0  0  0  0  # atno 17371 bound_to 10713
  140.4574  134.6873  157.5069 LP  0  0  0  0  0  0  0  0  0  0  0  0  # atno 17394 bound_to 11000
  140.0126  134.6667  155.9358 LP  0  0  0  0  0  0  0  0  0  0  0  0  # atno 17395 bound_to 11000

$$$$
