AV-unprocessed.smi:59|AV-procd|sdf|588|dock2
  -GOLD-   2262016483D 1   1.00000     0.00000
 Structure written by MMmdl.
 29 30  0  0  0  0  0  0  0  0  2 V2000
  150.2768  141.7943  156.7062 C   0  0  0  0  0  0  0  0  0  0  0  0
  150.4359  140.4073  156.2768 N   0  0  0  0  0  0  0  0  0  0  0  0
  150.1827  139.9613  155.0397 C   0  0  0  0  0  0  0  0  0  0  0  0
  149.8821  140.6540  154.0667 O   0  0  0  0  0  0  0  0  0  0  0  0
  150.2714  138.4412  154.9864 C   0  0  1  0  0  0  0  0  0  0  0  0
  150.8709  138.0078  153.7758 O   0  0  0  0  0  0  0  0  0  0  0  0
  151.0031  138.0884  156.3083 C   0  0  1  0  0  0  0  0  0  0  0  0
  152.5125  137.8092  156.0968 C   0  0  0  0  0  0  0  0  0  0  0  0
  152.9543  136.6774  156.3992 O   0  0  0  0  0  0  0  0  0  0  0  0
  153.1948  138.7424  155.6196 O   0  5  0  0  0  0  0  0  0  0  0  0
  150.7056  139.3198  157.2192 C   0  0  1  0  0  0  0  0  0  0  0  0
  151.7648  139.6271  158.2652 C   0  0  0  0  0  0  0  0  0  0  0  0
  152.3144  138.7185  159.2147 C   0  0  0  0  0  0  0  0  0  0  0  0
  153.2277  139.2716  159.9961 N   0  0  0  0  0  0  0  0  0  0  0  0
  153.3065  140.5468  159.5660 N   0  0  0  0  0  0  0  0  0  0  0  0
  154.2351  141.4581  160.1990 C   0  0  0  0  0  0  0  0  0  0  0  0
  152.4373  140.7905  158.5257 C   0  0  0  0  0  0  0  0  0  0  0  0
  149.2555  138.0461  155.0173 H   0  0  0  0  0  0  0  0  0  0  0  0
  150.5664  137.1933  156.7541 H   0  0  0  0  0  0  0  0  0  0  0  0
  149.7581  139.1296  157.7262 H   0  0  0  0  0  0  0  0  0  0  0  0
  151.1507  142.3799  156.4204 H   0  0  0  0  0  0  0  0  0  0  0  0
  150.1569  141.8626  157.7876 H   0  0  0  0  0  0  0  0  0  0  0  0
  149.3965  142.2494  156.2501 H   0  0  0  0  0  0  0  0  0  0  0  0
  150.1842  137.7711  153.1718 H   0  0  0  0  0  0  0  0  0  0  0  0
  152.0737  137.6756  159.3586 H   0  0  0  0  0  0  0  0  0  0  0  0
  154.2155  142.4232  159.6920 H   0  0  0  0  0  0  0  0  0  0  0  0
  155.2456  141.0519  160.1468 H   0  0  0  0  0  0  0  0  0  0  0  0
  153.9574  141.5998  161.2438 H   0  0  0  0  0  0  0  0  0  0  0  0
  152.3738  141.7595  158.0532 H   0  0  0  0  0  0  0  0  0  0  0  0
  1  2  1  0  0  0  0
  1 21  1  0  0  0  0
  1 22  1  0  0  0  0
  1 23  1  0  0  0  0
  2 11  1  0  0  0  0
  2  3  1  0  0  0  0
  3  4  2  0  0  0  0
  3  5  1  0  0  0  0
  5 18  1  0  0  0  0
  5  6  1  0  0  0  0
  5  7  1  0  0  0  0
  6 24  1  0  0  0  0
  7 19  1  0  0  0  0
  7  8  1  0  0  0  0
  7 11  1  0  0  0  0
  8  9  2  0  0  0  0
  8 10  1  0  0  0  0
 11 20  1  0  0  0  0
 11 12  1  0  0  0  0
 12 17  2  0  0  0  0
 12 13  1  0  0  0  0
 13 14  2  0  0  0  0
 13 25  1  0  0  0  0
 14 15  1  0  0  0  0
 15 16  1  0  0  0  0
 15 17  1  0  0  0  0
 16 26  1  0  0  0  0
 16 27  1  0  0  0  0
 16 28  1  0  0  0  0
 17 29  1  0  0  0  0
M  CHG  1  10  -1
M  END
> <s_m_source_file>
AV-unprocessed.smi

> <i_m_source_file_index>
59

> <i_lp_mmshare_version>
43012

> <i_f3d_flags>
0

> <s_epik_input>
W0NIM11OMUMoPU8pW0NASF0oW09IXSlbQ0BIXShDKD1PKVtPSF0pW0NASF0xYzJbY0hdbm4oW0NIM10pW2NIXTI=

> <s_epik_cmdline>
J2VwaWtfcHl0aG9uJywgJy1waCcsICc3LjAnLCAnLXRuJywgJzgnLCAnLW1hJywgJzIwMCcsICctbWV0YWxfYmluZGluZycsICctaW1hZScsICc8aW5maWxlLm1hZT4nLCAnLW9tYWUnLCAnPG91dGZpbGUubWFlPic=

> <r_lp_tautomer_probability>
1

> <r_epik_Ionization_Penalty>
0.00173515

> <r_epik_Ionization_Penalty_Charging>
0.00120567

> <r_epik_Ionization_Penalty_Neutral>
0.000529476

> <r_epik_State_Penalty>
-0

> <r_epik_Charging_Adjusted_Penalty>
0.00120567

> <i_epik_Tot_Q>
-1

> <i_epik_Tot_abs_Q>
1

> <r_epik_Metal_State_Penalty>
-0

> <b_epik_Metal_Only>
0

> <s_lp_Force_Field>
OPLS_2005

> <r_lp_Energy>
6.9214

> <b_lp_Chiralities_Consistent>
1

> <s_lp_Variant>
AV-unprocessed.smi:59-4

> <Gold.Version>
5.8.1

> <Gold.Id.Protein>
6NUR|6NUR_protein|mol2

> <Gold.PLP.Fitness>
41.0866

> <Gold.PLP.PLP>
-25.8763

> <Gold.PLP.part.hbond>
-4.6947

> <Gold.PLP.part.metal>
0.0000

> <Gold.PLP.part.buried>
-5.9574

> <Gold.PLP.part.nonpolar>
-17.7687

> <Gold.PLP.part.repulsive>
1.3311

> <Gold.PLP.ligand.clash>
0.0782

> <Gold.PLP.ligand.torsion>
0.0975

> <Gold.PLP.Chemscore.Hbond>
5.1564

> <Gold.PLP.Chemscore.CHOScore>
0.0000

> <Gold.PLP.Chemscore.Metal>
0.0000

> <Gold.Chemscore.Hbonds>
donor molecule, donor type, donor heavy atom, donor atom, acceptor molecule, acceptor atom, score
      L1  H     6    24       P1  7948  0.28
      P1  H  7989  7998       L1     4  0.52
      P1  H  7997  8010       L1    10  2.00
      P1  H 10752 10765       L1     9  1.89

> <Gold.PLP.Chemscore.Internal.Correction>
0.0144

> <Gold.Rescore>
     Score         DG    S(hbond)    S(metal)    S(lipo)     H(rot)  DE(clash)    DE(int)     intcor
     10.79     -12.92       2.15        0.00      47.43       2.06       0.34       1.80       ----

> <Gold.Chemscore.Fitness>
10.7853

> <Gold.Chemscore.DG>
-12.9239

> <Gold.Chemscore.ZeroCoef>
-5.4800

> <Gold.Chemscore.Hbond>
2.1493

> <Gold.Chemscore.Metal>
0.0000

> <Gold.Chemscore.Lipo>
47.4275

> <Gold.Chemscore.Internal_Hbond>
0.0000

> <Gold.Chemscore.DEClash>
0.3387

> <Gold.Chemscore.DEInternal>
1.7998

> <Gold.Chemscore.Rot>
2.0639

> <Gold.Chemscore.Internal.Correction>
   9.000000E+99

> <Gold.Chemscore.Hbonds>
donor molecule, donor type, donor heavy atom, donor atom, acceptor molecule, acceptor atom, score
      L1  H     6    24       P1  7948  0.06
      P1  H  7989  7998       L1     4  0.08
      P1  H  7997  8010       L1    10  0.97
      P1  H  8011  8017       L1     4  0.03
      P1  H 10752 10765       L1     9  0.91

> <Gold.Chemscore.Hbond.Weighted>
-7.1785

> <Gold.Chemscore.Metal.Weighted>
-0.0000

> <Gold.Chemscore.Lipo.Weighted>
-5.5490

> <Gold.Chemscore.Internal_Hbond.Weighted>
0.0000

> <Gold.Chemscore.DEClash.Weighted>
0.3387

> <Gold.Chemscore.DEInternal.Weighted>
1.7998

> <Gold.Chemscore.Rot.Weighted>
5.2837

> <Gold.Chemscore.Internal.Correction.Weighted>
   9.000000E+99

> <Gold.Protein.RotatedTorsions>
[ 6907 6896 6895 6894 ] final -132.35 input  -60.11 | X-H torsion
[ 7974 7965 7964 7962 ] final -139.97 input  175.53 | X-H torsion
[ 8008 7997 7996 7995 ] final   86.76 input   59.86 | X-H torsion
[ 10167 10162 10161 10158 ] final  -99.66 input  -65.29 | X-H torsion
[ 10718 10713 10712 10709 ] final -156.37 input   66.30 | X-H torsion
[ 10763 10752 10751 10750 ] final -129.51 input  -60.55 | X-H torsion
[ 11005 11000 10999 10996 ] final   42.84 input  -57.11 | X-H torsion

> <Gold.Protein.ActiveResidues>
 VAL166  LYS551  ARG553  GLY616  TRP617  ASP618  TYR619  PRO620  LYS621  CYS622 
 ASP623  PHE694  ASN695  SER759  ASP760  ASP761  ALA762  ILE779  LEU786  VAL792 
 PHE793  MET794  SER795  GLU796  ALA797  LYS798  CYS799  TRP800  GLU811  SER814 

> <Gold.Protein.RotatedAtoms>
  150.9614  133.6441  159.2753 H   0  0  0  0  0  0  0  0  0  0  0  0  # atno 6907 bound_to 6896
  151.3763  135.0930  159.9491 H   0  0  0  0  0  0  0  0  0  0  0  0  # atno 6908 bound_to 6896
  152.5149  133.9157  159.7564 H   0  0  0  0  0  0  0  0  0  0  0  0  # atno 6909 bound_to 6896
  144.8634  140.6255  143.5313 H   0  0  0  0  0  0  0  0  0  0  0  0  # atno 7974 bound_to 7965
  155.9669  140.3389  155.6540 H   0  0  0  0  0  0  0  0  0  0  0  0  # atno 8008 bound_to 7997
  155.6725  140.0728  157.2533 H   0  0  0  0  0  0  0  0  0  0  0  0  # atno 8009 bound_to 7997
  154.4156  140.1689  156.1882 H   0  0  0  0  0  0  0  0  0  0  0  0  # atno 8010 bound_to 7997
  140.2601  143.3413  152.0633 H   0  0  0  0  0  0  0  0  0  0  0  0  # atno 10167 bound_to 10162
  156.5255  130.8497  151.2697 H   0  0  0  0  0  0  0  0  0  0  0  0  # atno 10718 bound_to 10713
  154.8757  135.3893  154.3931 H   0  0  0  0  0  0  0  0  0  0  0  0  # atno 10763 bound_to 10752
  153.4664  135.7029  153.6024 H   0  0  0  0  0  0  0  0  0  0  0  0  # atno 10764 bound_to 10752
  153.4500  135.3836  155.2246 H   0  0  0  0  0  0  0  0  0  0  0  0  # atno 10765 bound_to 10752
  140.1701  134.4232  155.8262 H   0  0  0  0  0  0  0  0  0  0  0  0  # atno 11005 bound_to 11000
  145.4268  139.1555  143.4044 LP  0  0  0  0  0  0  0  0  0  0  0  0  # atno 17320 bound_to 7965
  146.2878  140.4382  142.8751 LP  0  0  0  0  0  0  0  0  0  0  0  0  # atno 17321 bound_to 7965
  139.5019  144.6724  151.6211 LP  0  0  0  0  0  0  0  0  0  0  0  0  # atno 17342 bound_to 10162
  140.5972  143.9674  150.6362 LP  0  0  0  0  0  0  0  0  0  0  0  0  # atno 17343 bound_to 10162
  157.7430  130.9902  150.2559 LP  0  0  0  0  0  0  0  0  0  0  0  0  # atno 17370 bound_to 10713
  156.3109  130.3771  149.7663 LP  0  0  0  0  0  0  0  0  0  0  0  0  # atno 17371 bound_to 10713
  141.2217  133.6952  156.7749 LP  0  0  0  0  0  0  0  0  0  0  0  0  # atno 17394 bound_to 11000
  140.2387  134.8630  157.3551 LP  0  0  0  0  0  0  0  0  0  0  0  0  # atno 17395 bound_to 11000

$$$$
