AV-unprocessed.smi:2850|AV-procd|sdf|10965|dock5
  -GOLD-   2272015413D 1   1.00000     0.00000
 Structure written by MMmdl.
 45 46  0  0  0  0  0  0  0  0  2 V2000
  151.3136  141.2144  157.6787 C   0  0  0  0  0  0  0  0  0  0  0  0
  150.7598  142.1529  156.2282 S   0  0  0  0  0  0  0  0  0  0  0  0
  149.8288  141.0462  155.2127 C   0  0  0  0  0  0  0  0  0  0  0  0
  148.4775  141.3056  154.9227 C   0  0  0  0  0  0  0  0  0  0  0  0
  147.8106  140.3773  154.1044 C   0  0  0  0  0  0  0  0  0  0  0  0
  148.5436  139.2665  153.6401 C   0  0  0  0  0  0  0  0  0  0  0  0
  147.9013  138.3317  152.8156 N   0  0  0  0  0  0  0  0  0  0  0  0
  146.4704  138.4009  152.5402 C   0  0  0  0  0  0  0  0  0  0  0  0
  145.7428  137.0632  152.7713 C   0  0  2  0  0  0  0  0  0  0  0  0
  145.6101  136.2200  151.4861 C   0  0  0  0  0  0  0  0  0  0  0  0
  144.8368  134.9844  151.7536 N   0  3  2  0  0  0  0  0  0  0  0  0
  144.7542  134.0963  150.5657 C   0  0  0  0  0  0  0  0  0  0  0  0
  145.8335  132.9919  150.5576 C   0  0  0  0  0  0  0  0  0  0  0  0
  145.7656  132.1294  149.2858 C   0  0  0  0  0  0  0  0  0  0  0  0
  145.7120  132.1100  151.8093 C   0  0  0  0  0  0  0  0  0  0  0  0
  143.5178  135.3207  152.3432 C   0  0  0  0  0  0  0  0  0  0  0  0
  143.7002  136.1991  153.5915 C   0  0  0  0  0  0  0  0  0  0  0  0
  144.4373  137.3664  153.2510 O   0  0  0  0  0  0  0  0  0  0  0  0
  149.8485  139.0821  153.9648 N   0  0  0  0  0  0  0  0  0  0  0  0
  150.4881  139.9631  154.7420 N   0  0  0  0  0  0  0  0  0  0  0  0
  151.8937  141.8570  158.3409 H   0  0  0  0  0  0  0  0  0  0  0  0
  151.9413  140.3761  157.3757 H   0  0  0  0  0  0  0  0  0  0  0  0
  150.4580  140.8296  158.2341 H   0  0  0  0  0  0  0  0  0  0  0  0
  147.9731  142.1785  155.3098 H   0  0  0  0  0  0  0  0  0  0  0  0
  146.7722  140.5173  153.8421 H   0  0  0  0  0  0  0  0  0  0  0  0
  148.4397  137.5879  152.3950 H   0  0  0  0  0  0  0  0  0  0  0  0
  146.0221  139.1832  153.1539 H   0  0  0  0  0  0  0  0  0  0  0  0
  146.3387  138.7166  151.5048 H   0  0  0  0  0  0  0  0  0  0  0  0
  146.2700  136.4885  153.5344 H   0  0  0  0  0  0  0  0  0  0  0  0
  145.1189  136.7974  150.7009 H   0  0  0  0  0  0  0  0  0  0  0  0
  146.6009  135.9525  151.1170 H   0  0  0  0  0  0  0  0  0  0  0  0
  143.7556  133.6597  150.5134 H   0  0  0  0  0  0  0  0  0  0  0  0
  144.8712  134.6933  149.6598 H   0  0  0  0  0  0  0  0  0  0  0  0
  146.8192  133.4548  150.5968 H   0  0  0  0  0  0  0  0  0  0  0  0
  144.7971  131.6372  149.1905 H   0  0  0  0  0  0  0  0  0  0  0  0
  146.5315  131.3533  149.2980 H   0  0  0  0  0  0  0  0  0  0  0  0
  145.9259  132.7263  148.3876 H   0  0  0  0  0  0  0  0  0  0  0  0
  144.7504  131.5968  151.8416 H   0  0  0  0  0  0  0  0  0  0  0  0
  145.8040  132.7025  152.7200 H   0  0  0  0  0  0  0  0  0  0  0  0
  146.4943  131.3507  151.8330 H   0  0  0  0  0  0  0  0  0  0  0  0
  142.9094  135.8452  151.6049 H   0  0  0  0  0  0  0  0  0  0  0  0
  142.9771  134.4161  152.6187 H   0  0  0  0  0  0  0  0  0  0  0  0
  142.7287  136.4975  153.9858 H   0  0  0  0  0  0  0  0  0  0  0  0
  144.2100  135.6494  154.3845 H   0  0  0  0  0  0  0  0  0  0  0  0
  145.3551  134.4757  152.4559 H   0  0  0  0  0  0  0  0  0  0  0  0
  1  2  1  0  0  0  0
  1 21  1  0  0  0  0
  1 22  1  0  0  0  0
  1 23  1  0  0  0  0
  2  3  1  0  0  0  0
  3 20  1  0  0  0  0
  3  4  2  0  0  0  0
  4  5  1  0  0  0  0
  4 24  1  0  0  0  0
  5  6  2  0  0  0  0
  5 25  1  0  0  0  0
  6  7  1  0  0  0  0
  6 19  1  0  0  0  0
  7  8  1  0  0  0  0
  7 26  1  0  0  0  0
  8  9  1  0  0  0  0
  8 27  1  0  0  0  0
  8 28  1  0  0  0  0
  9 18  1  0  0  0  0
  9 10  1  0  0  0  0
  9 29  1  0  0  0  0
 10 11  1  0  0  0  0
 10 30  1  0  0  0  0
 10 31  1  0  0  0  0
 11 12  1  0  0  0  0
 11 16  1  0  0  0  0
 11 45  1  0  0  0  0
 12 13  1  0  0  0  0
 12 32  1  0  0  0  0
 12 33  1  0  0  0  0
 13 14  1  0  0  0  0
 13 15  1  0  0  0  0
 13 34  1  0  0  0  0
 14 35  1  0  0  0  0
 14 36  1  0  0  0  0
 14 37  1  0  0  0  0
 15 38  1  0  0  0  0
 15 39  1  0  0  0  0
 15 40  1  0  0  0  0
 16 17  1  0  0  0  0
 16 41  1  0  0  0  0
 16 42  1  0  0  0  0
 17 18  1  0  0  0  0
 17 43  1  0  0  0  0
 17 44  1  0  0  0  0
 19 20  2  0  0  0  0
M  CHG  1  11   1
M  END
> <s_m_source_file>
AV-unprocessed.smi

> <i_m_source_file_index>
2850

> <i_lp_mmshare_version>
43012

> <i_f3d_flags>
0

> <s_epik_input>
W0NIM11TYzFbY0hdW2NIXWMobm4xKVtOSF1bQ0gyXVtDQEBIXTJbQ0gyXU4oW0NIMl1bQ0gyXU8yKVtDSDJdW0NIXShbQ0gzXSlbQ0gzXQ==

> <s_epik_cmdline>
J2VwaWtfcHl0aG9uJywgJy1waCcsICc3LjAnLCAnLXRuJywgJzgnLCAnLW1hJywgJzIwMCcsICctbWV0YWxfYmluZGluZycsICctaW1hZScsICc8aW5maWxlLm1hZT4nLCAnLW9tYWUnLCAnPG91dGZpbGUubWFlPic=

> <r_lp_tautomer_probability>
0.999978

> <r_epik_Ionization_Penalty>
0.0874875

> <r_epik_Ionization_Penalty_Charging>
0.0831532

> <r_epik_Ionization_Penalty_Neutral>
0.00433433

> <r_epik_State_Penalty>
0.0738301

> <r_epik_Charging_Adjusted_Penalty>
0.156983

> <i_epik_Tot_Q>
1

> <i_epik_Tot_abs_Q>
1

> <r_epik_Metal_State_Penalty>
0.073888

> <b_epik_Metal_Only>
0

> <s_lp_Force_Field>
OPLS_2005

> <r_lp_Energy>
24.5925

> <b_lp_Chiralities_Consistent>
1

> <s_lp_Variant>
AV-unprocessed.smi:2850-1

> <Gold.Version>
5.8.1

> <Gold.Id.Protein>
6NUR|6NUR_protein|mol2

> <Gold.PLP.Fitness>
40.0144

> <Gold.PLP.PLP>
-36.2538

> <Gold.PLP.part.hbond>
-2.9930

> <Gold.PLP.part.metal>
0.0000

> <Gold.PLP.part.buried>
-3.9428

> <Gold.PLP.part.nonpolar>
-30.9939

> <Gold.PLP.part.repulsive>
1.3417

> <Gold.PLP.ligand.clash>
0.0000

> <Gold.PLP.ligand.torsion>
1.0434

> <Gold.PLP.Chemscore.Hbond>
1.9000

> <Gold.PLP.Chemscore.CHOScore>
0.0000

> <Gold.PLP.Chemscore.Metal>
0.0000

> <Gold.Chemscore.Hbonds>
donor molecule, donor type, donor heavy atom, donor atom, acceptor molecule, acceptor atom, score
      L1  H     7    26       P1  7948  0.98
      P1  H  7989  7998       L1    20  0.90

> <Gold.PLP.Chemscore.Internal.Correction>
0.1475

> <Gold.Rescore>
     Score         DG    S(hbond)    S(metal)    S(lipo)     H(rot)  DE(clash)    DE(int)     intcor
     13.73     -14.85       1.01        0.00      86.25       1.60       0.02       1.10       ----

> <Gold.Chemscore.Fitness>
13.7305

> <Gold.Chemscore.DG>
-14.8504

> <Gold.Chemscore.ZeroCoef>
-5.4800

> <Gold.Chemscore.Hbond>
1.0108

> <Gold.Chemscore.Metal>
0.0000

> <Gold.Chemscore.Lipo>
86.2495

> <Gold.Chemscore.Internal_Hbond>
0.0000

> <Gold.Chemscore.DEClash>
0.0201

> <Gold.Chemscore.DEInternal>
1.0999

> <Gold.Chemscore.Rot>
1.6003

> <Gold.Chemscore.Internal.Correction>
   9.000000E+99

> <Gold.Chemscore.Hbonds>
donor molecule, donor type, donor heavy atom, donor atom, acceptor molecule, acceptor atom, score
      L1  H     7    26       P1  7948  0.92
      P1  H  7989  7998       L1    20  0.06

> <Gold.Chemscore.Hbond.Weighted>
-3.3761

> <Gold.Chemscore.Metal.Weighted>
-0.0000

> <Gold.Chemscore.Lipo.Weighted>
-10.0912

> <Gold.Chemscore.Internal_Hbond.Weighted>
0.0000

> <Gold.Chemscore.DEClash.Weighted>
0.0201

> <Gold.Chemscore.DEInternal.Weighted>
1.0999

> <Gold.Chemscore.Rot.Weighted>
4.0968

> <Gold.Chemscore.Internal.Correction.Weighted>
   9.000000E+99

> <Gold.Protein.RotatedTorsions>
[ 6907 6896 6895 6894 ] final -158.02 input  -60.11 | X-H torsion
[ 7974 7965 7964 7962 ] final  155.85 input  175.53 | X-H torsion
[ 8008 7997 7996 7995 ] final  146.07 input   59.86 | X-H torsion
[ 10167 10162 10161 10158 ] final  158.07 input  -65.29 | X-H torsion
[ 10718 10713 10712 10709 ] final   25.68 input   66.30 | X-H torsion
[ 10763 10752 10751 10750 ] final  110.49 input  -60.55 | X-H torsion
[ 11005 11000 10999 10996 ] final  -68.98 input  -57.11 | X-H torsion

> <Gold.Protein.ActiveResidues>
 VAL166  LYS551  ARG553  GLY616  TRP617  ASP618  TYR619  PRO620  LYS621  CYS622 
 ASP623  PHE694  ASN695  SER759  ASP760  ASP761  ALA762  ILE779  LEU786  VAL792 
 PHE793  MET794  SER795  GLU796  ALA797  LYS798  CYS799  TRP800  GLU811  SER814 

> <Gold.Protein.RotatedAtoms>
  151.3117  133.4078  159.2647 H   0  0  0  0  0  0  0  0  0  0  0  0  # atno 6907 bound_to 6896
  151.0109  134.9396  159.8017 H   0  0  0  0  0  0  0  0  0  0  0  0  # atno 6908 bound_to 6896
  152.5300  134.3081  159.9156 H   0  0  0  0  0  0  0  0  0  0  0  0  # atno 6909 bound_to 6896
  144.7999  139.7124  143.6186 H   0  0  0  0  0  0  0  0  0  0  0  0  # atno 7974 bound_to 7965
  156.2866  140.2192  156.5318 H   0  0  0  0  0  0  0  0  0  0  0  0  # atno 8008 bound_to 7997
  154.7443  140.0485  157.0860 H   0  0  0  0  0  0  0  0  0  0  0  0  # atno 8009 bound_to 7997
  155.0191  140.3122  155.4803 H   0  0  0  0  0  0  0  0  0  0  0  0  # atno 8010 bound_to 7997
  139.4825  144.4858  151.8379 H   0  0  0  0  0  0  0  0  0  0  0  0  # atno 10167 bound_to 10162
  157.1967  130.6871  149.6171 H   0  0  0  0  0  0  0  0  0  0  0  0  # atno 10718 bound_to 10713
  153.4497  135.3746  155.2277 H   0  0  0  0  0  0  0  0  0  0  0  0  # atno 10763 bound_to 10752
  154.8756  135.3883  154.4053 H   0  0  0  0  0  0  0  0  0  0  0  0  # atno 10764 bound_to 10752
  153.4610  135.7086  153.6114 H   0  0  0  0  0  0  0  0  0  0  0  0  # atno 10765 bound_to 10752
  141.1544  133.6753  156.6529 H   0  0  0  0  0  0  0  0  0  0  0  0  # atno 11005 bound_to 11000
  146.2278  139.5755  142.9576 LP  0  0  0  0  0  0  0  0  0  0  0  0  # atno 17320 bound_to 7965
  145.5579  141.0407  143.2242 LP  0  0  0  0  0  0  0  0  0  0  0  0  # atno 17321 bound_to 7965
  140.4338  144.2079  150.5888 LP  0  0  0  0  0  0  0  0  0  0  0  0  # atno 17342 bound_to 10162
  140.4752  143.2398  151.9033 LP  0  0  0  0  0  0  0  0  0  0  0  0  # atno 17343 bound_to 10162
  155.9705  130.4596  150.6043 LP  0  0  0  0  0  0  0  0  0  0  0  0  # atno 17370 bound_to 10713
  157.3807  131.0780  151.1479 LP  0  0  0  0  0  0  0  0  0  0  0  0  # atno 17371 bound_to 10713
  140.3307  134.7931  157.4323 LP  0  0  0  0  0  0  0  0  0  0  0  0  # atno 17394 bound_to 11000
  140.1019  134.5461  155.8345 LP  0  0  0  0  0  0  0  0  0  0  0  0  # atno 17395 bound_to 11000

$$$$
