AV-unprocessed.smi:912|AV-procd|sdf|4142|dock4
  -GOLD-   22720 2 43D 1   1.00000     0.00000
 Structure written by MMmdl.
 27 27  0  0  0  0  0  0  0  0  2 V2000
  145.0609  134.2936  155.8348 C   0  0  0  0  0  0  0  0  0  0  0  0
  144.9288  133.5313  154.5709 N   0  3  0  0  0  0  0  0  0  0  0  0
  144.8936  134.2945  153.2892 C   0  0  1  0  0  0  0  0  0  0  0  0
  143.6932  135.2772  153.2907 C   0  0  0  0  0  0  0  0  0  0  0  0
  146.2439  135.0421  153.1437 C   0  0  0  0  0  0  0  0  0  0  0  0
  146.4372  135.7756  152.0409 N   0  0  0  0  0  0  0  0  0  0  0  0
  147.1144  134.9508  154.0075 O   0  0  0  0  0  0  0  0  0  0  0  0
  144.7407  133.3280  152.0953 C   0  0  0  0  0  0  0  0  0  0  0  0
  145.7892  132.4773  151.6600 C   0  0  0  0  0  0  0  0  0  0  0  0
  145.5657  131.6212  150.5627 C   0  0  0  0  0  0  0  0  0  0  0  0
  144.3976  131.5612  149.8920 N   0  0  0  0  0  0  0  0  0  0  0  0
  143.3967  132.3660  150.3023 C   0  0  0  0  0  0  0  0  0  0  0  0
  143.5164  133.2569  151.3867 C   0  0  0  0  0  0  0  0  0  0  0  0
  145.1729  133.5952  156.6639 H   0  0  0  0  0  0  0  0  0  0  0  0
  144.1743  134.8947  156.0353 H   0  0  0  0  0  0  0  0  0  0  0  0
  145.9348  134.9448  155.8315 H   0  0  0  0  0  0  0  0  0  0  0  0
  145.7031  132.8855  154.5157 H   0  0  0  0  0  0  0  0  0  0  0  0
  143.6175  135.8313  152.3548 H   0  0  0  0  0  0  0  0  0  0  0  0
  143.7628  136.0244  154.0815 H   0  0  0  0  0  0  0  0  0  0  0  0
  142.7515  134.7441  153.4259 H   0  0  0  0  0  0  0  0  0  0  0  0
  147.3133  136.2552  151.8922 H   0  0  0  0  0  0  0  0  0  0  0  0
  145.7098  135.8233  151.3415 H   0  0  0  0  0  0  0  0  0  0  0  0
  146.7574  132.4576  152.1363 H   0  0  0  0  0  0  0  0  0  0  0  0
  146.3503  130.9662  150.2141 H   0  0  0  0  0  0  0  0  0  0  0  0
  142.4715  132.3001  149.7491 H   0  0  0  0  0  0  0  0  0  0  0  0
  142.6759  133.8777  151.6608 H   0  0  0  0  0  0  0  0  0  0  0  0
  144.0754  132.9942  154.6288 H   0  0  0  0  0  0  0  0  0  0  0  0
  1  2  1  0  0  0  0
  1 14  1  0  0  0  0
  1 15  1  0  0  0  0
  1 16  1  0  0  0  0
  2  3  1  0  0  0  0
  2 17  1  0  0  0  0
  2 27  1  0  0  0  0
  3  4  1  0  0  0  0
  3  5  1  0  0  0  0
  3  8  1  0  0  0  0
  4 18  1  0  0  0  0
  4 19  1  0  0  0  0
  4 20  1  0  0  0  0
  5  6  1  0  0  0  0
  5  7  2  0  0  0  0
  6 21  1  0  0  0  0
  6 22  1  0  0  0  0
  8 13  1  0  0  0  0
  8  9  2  0  0  0  0
  9 10  1  0  0  0  0
  9 23  1  0  0  0  0
 10 11  2  0  0  0  0
 10 24  1  0  0  0  0
 11 12  1  0  0  0  0
 12 13  2  0  0  0  0
 12 25  1  0  0  0  0
 13 26  1  0  0  0  0
M  CHG  1   2   1
M  END
> <s_m_source_file>
AV-unprocessed.smi

> <i_m_source_file_index>
912

> <i_lp_mmshare_version>
43012

> <i_f3d_flags>
0

> <s_epik_input>
W0NIM11bTkhdW0NAQF0oW0NIM10pKEMoPU8pW05IMl0pYzFbY0hdW2NIXW5bY0hdW2NIXTE=

> <s_epik_cmdline>
J2VwaWtfcHl0aG9uJywgJy1waCcsICc3LjAnLCAnLXRuJywgJzgnLCAnLW1hJywgJzIwMCcsICctbWV0YWxfYmluZGluZycsICctaW1hZScsICc8aW5maWxlLm1hZT4nLCAnLW9tYWUnLCAnPG91dGZpbGUubWFlPic=

> <r_epik_Ionization_Penalty>
0.8426

> <r_epik_Ionization_Penalty_Charging>
0.842363

> <r_epik_Ionization_Penalty_Neutral>
0.000236815

> <r_epik_State_Penalty>
0.498415

> <r_epik_Charging_Adjusted_Penalty>
1.34078

> <i_epik_Tot_Q>
1

> <i_epik_Tot_abs_Q>
1

> <r_epik_Metal_State_Penalty>
0.661775

> <b_epik_Metal_Only>
0

> <s_lp_Force_Field>
OPLS_2005

> <r_lp_Energy>
11.5285

> <b_lp_Chiralities_Consistent>
1

> <s_lp_Variant>
AV-unprocessed.smi:912-3

> <Gold.Version>
5.8.1

> <Gold.Id.Protein>
6NUR|6NUR_protein|mol2

> <Gold.PLP.Fitness>
34.9432

> <Gold.PLP.PLP>
-18.5477

> <Gold.PLP.part.hbond>
-3.0000

> <Gold.PLP.part.metal>
0.0000

> <Gold.PLP.part.buried>
-2.5692

> <Gold.PLP.part.nonpolar>
-14.0260

> <Gold.PLP.part.repulsive>
0.2860

> <Gold.PLP.ligand.clash>
0.0000

> <Gold.PLP.ligand.torsion>
0.4392

> <Gold.PLP.Chemscore.Hbond>
3.2939

> <Gold.PLP.Chemscore.CHOScore>
2.4600

> <Gold.PLP.Chemscore.Metal>
0.0000

> <Gold.Chemscore.Hbonds>
donor molecule, donor type, donor heavy atom, donor atom, acceptor molecule, acceptor atom, score
      L1  H     2    27       P1 10957  2.00
      L1  H     6    21       P1  7948  0.99
      P1  H 10785 10796       L1    11  0.33
      L1  C    10    24       P1 10747  0.79
      L1  C    12    25       P1 10186  0.69
      L1  C    12    25       P1 10952  0.94

> <Gold.PLP.Chemscore.Internal.Correction>
0.0123

> <Gold.Rescore>
     Score         DG    S(hbond)    S(metal)    S(lipo)     H(rot)  DE(clash)    DE(int)     intcor
     13.22     -15.14       2.73        0.00      44.49       1.83       0.13       1.79       ----

> <Gold.Chemscore.Fitness>
13.2190

> <Gold.Chemscore.DG>
-15.1389

> <Gold.Chemscore.ZeroCoef>
-5.4800

> <Gold.Chemscore.Hbond>
2.7337

> <Gold.Chemscore.Metal>
0.0000

> <Gold.Chemscore.Lipo>
44.4896

> <Gold.Chemscore.Internal_Hbond>
0.0000

> <Gold.Chemscore.DEClash>
0.1343

> <Gold.Chemscore.DEInternal>
1.7856

> <Gold.Chemscore.Rot>
1.8270

> <Gold.Chemscore.Internal.Correction>
   9.000000E+99

> <Gold.Chemscore.Hbonds>
donor molecule, donor type, donor heavy atom, donor atom, acceptor molecule, acceptor atom, score
      L1  H     2    27       P1 10957  1.00
      L1  H     6    21       P1  7948  0.94
      P1  H 10785 10796       L1    11  0.07

> <Gold.Chemscore.Hbond.Weighted>
-9.1307

> <Gold.Chemscore.Metal.Weighted>
-0.0000

> <Gold.Chemscore.Lipo.Weighted>
-5.2053

> <Gold.Chemscore.Internal_Hbond.Weighted>
0.0000

> <Gold.Chemscore.DEClash.Weighted>
0.1343

> <Gold.Chemscore.DEInternal.Weighted>
1.7856

> <Gold.Chemscore.Rot.Weighted>
4.6771

> <Gold.Chemscore.Internal.Correction.Weighted>
   9.000000E+99

> <Gold.Protein.RotatedTorsions>
[ 6907 6896 6895 6894 ] final   21.22 input  -60.11 | X-H torsion
[ 7974 7965 7964 7962 ] final -179.02 input  175.53 | X-H torsion
[ 8008 7997 7996 7995 ] final    7.37 input   59.86 | X-H torsion
[ 10167 10162 10161 10158 ] final -165.78 input  -65.29 | X-H torsion
[ 10718 10713 10712 10709 ] final -100.29 input   66.30 | X-H torsion
[ 10763 10752 10751 10750 ] final  -82.23 input  -60.55 | X-H torsion
[ 11005 11000 10999 10996 ] final   10.29 input  -57.11 | X-H torsion

> <Gold.Protein.ActiveResidues>
 VAL166  LYS551  ARG553  GLY616  TRP617  ASP618  TYR619  PRO620  LYS621  CYS622 
 ASP623  PHE694  ASN695  SER759  ASP760  ASP761  ALA762  ILE779  LEU786  VAL792 
 PHE793  MET794  SER795  GLU796  ALA797  LYS798  CYS799  TRP800  GLU811  SER814 

> <Gold.Protein.RotatedAtoms>
  151.9084  135.0349  160.0512 H   0  0  0  0  0  0  0  0  0  0  0  0  # atno 6907 bound_to 6896
  152.2300  133.5046  159.5219 H   0  0  0  0  0  0  0  0  0  0  0  0  # atno 6908 bound_to 6896
  150.7023  134.1146  159.4055 H   0  0  0  0  0  0  0  0  0  0  0  0  # atno 6909 bound_to 6896
  144.7134  140.0780  143.6427 H   0  0  0  0  0  0  0  0  0  0  0  0  # atno 7974 bound_to 7965
  154.7529  140.2770  155.6277 H   0  0  0  0  0  0  0  0  0  0  0  0  # atno 8008 bound_to 7997
  156.2899  140.2675  156.2214 H   0  0  0  0  0  0  0  0  0  0  0  0  # atno 8009 bound_to 7997
  155.0114  140.0372  157.2390 H   0  0  0  0  0  0  0  0  0  0  0  0  # atno 8010 bound_to 7997
  139.6159  144.0721  152.1887 H   0  0  0  0  0  0  0  0  0  0  0  0  # atno 10167 bound_to 10162
  156.0158  130.5321  150.6795 H   0  0  0  0  0  0  0  0  0  0  0  0  # atno 10718 bound_to 10713
  154.5732  135.5598  153.7115 H   0  0  0  0  0  0  0  0  0  0  0  0  # atno 10763 bound_to 10752
  153.0056  135.6302  154.2085 H   0  0  0  0  0  0  0  0  0  0  0  0  # atno 10764 bound_to 10752
  154.2025  135.2877  155.2966 H   0  0  0  0  0  0  0  0  0  0  0  0  # atno 10765 bound_to 10752
  140.5161  134.0604  155.7831 H   0  0  0  0  0  0  0  0  0  0  0  0  # atno 11005 bound_to 11000
  145.9726  139.2881  143.1090 LP  0  0  0  0  0  0  0  0  0  0  0  0  # atno 17320 bound_to 7965
  145.9099  140.9187  143.0459 LP  0  0  0  0  0  0  0  0  0  0  0  0  # atno 17321 bound_to 7965
  140.0351  144.6051  150.7456 LP  0  0  0  0  0  0  0  0  0  0  0  0  # atno 17342 bound_to 10162
  140.7350  143.2736  151.3811 LP  0  0  0  0  0  0  0  0  0  0  0  0  # atno 17343 bound_to 10162
  157.4500  131.0871  151.0855 LP  0  0  0  0  0  0  0  0  0  0  0  0  # atno 17370 bound_to 10713
  157.1374  130.6128  149.5546 LP  0  0  0  0  0  0  0  0  0  0  0  0  # atno 17371 bound_to 10713
  141.1359  133.9222  157.2434 LP  0  0  0  0  0  0  0  0  0  0  0  0  # atno 17394 bound_to 11000
  139.9632  135.0149  156.9316 LP  0  0  0  0  0  0  0  0  0  0  0  0  # atno 17395 bound_to 11000

$$$$
