AV-unprocessed.smi:2562|AV-procd|sdf|10046|dock1
  -GOLD-   2272014 93D 1   1.00000     0.00000
 Structure written by MMmdl.
 30 31  0  0  0  0  0  0  0  0  1 V2000
  152.1957  145.1427  158.8794 C   0  0  0  0  0  0  0  0  0  0  0  0
  151.8403  144.2282  157.7023 C   0  0  0  0  0  0  0  0  0  0  0  0
  150.9737  143.0335  158.1255 C   0  0  0  0  0  0  0  0  0  0  0  0
  150.9322  141.9587  157.0892 C   0  0  0  0  0  0  0  0  0  0  0  0
  150.3920  142.1485  155.8838 N   0  0  0  0  0  0  0  0  0  0  0  0
  150.4892  141.0091  155.1673 N   0  0  0  0  0  0  0  0  0  0  0  0
  151.0794  140.1838  156.0336 C   0  0  0  0  0  0  0  0  0  0  0  0
  151.4433  138.7778  155.6672 C   0  0  2  0  0  0  0  0  0  0  0  0
  151.0886  138.4495  154.2036 C   0  0  0  0  0  0  0  0  0  0  0  0
  151.3735  137.0444  153.9161 N   0  0  0  0  0  0  0  0  0  0  0  0
  150.6922  136.1623  154.8628 C   0  0  0  0  0  0  0  0  0  0  0  0
  151.0527  136.5467  156.3092 C   0  0  0  0  0  0  0  0  0  0  0  0
  150.7188  137.9116  156.5385 O   0  0  0  0  0  0  0  0  0  0  0  0
  151.3956  140.7240  157.2498 N   0  0  0  0  0  0  0  0  0  0  0  0
  149.9748  142.9941  155.5216 H   0  0  0  0  0  0  0  0  0  0  0  0
  152.8100  145.9804  158.5487 H   0  0  0  0  0  0  0  0  0  0  0  0
  152.7539  144.6015  159.6438 H   0  0  0  0  0  0  0  0  0  0  0  0
  151.2984  145.5515  159.3448 H   0  0  0  0  0  0  0  0  0  0  0  0
  151.3163  144.8096  156.9426 H   0  0  0  0  0  0  0  0  0  0  0  0
  152.7583  143.8683  157.2362 H   0  0  0  0  0  0  0  0  0  0  0  0
  151.3468  142.6102  159.0591 H   0  0  0  0  0  0  0  0  0  0  0  0
  149.9526  143.3637  158.3208 H   0  0  0  0  0  0  0  0  0  0  0  0
  152.5140  138.6439  155.8334 H   0  0  0  0  0  0  0  0  0  0  0  0
  150.0327  138.6558  154.0239 H   0  0  0  0  0  0  0  0  0  0  0  0
  151.6533  139.0918  153.5275 H   0  0  0  0  0  0  0  0  0  0  0  0
  151.0761  136.8240  152.9710 H   0  0  0  0  0  0  0  0  0  0  0  0
  149.6128  136.2324  154.7244 H   0  0  0  0  0  0  0  0  0  0  0  0
  150.9658  135.1246  154.6715 H   0  0  0  0  0  0  0  0  0  0  0  0
  150.4967  135.9257  157.0115 H   0  0  0  0  0  0  0  0  0  0  0  0
  152.1127  136.3783  156.5067 H   0  0  0  0  0  0  0  0  0  0  0  0
  1  2  1  0  0  0  0
  1 16  1  0  0  0  0
  1 17  1  0  0  0  0
  1 18  1  0  0  0  0
  2  3  1  0  0  0  0
  2 19  1  0  0  0  0
  2 20  1  0  0  0  0
  3 21  1  0  0  0  0
  3 22  1  0  0  0  0
  3  4  1  0  0  0  0
  4 14  2  0  0  0  0
  4  5  1  0  0  0  0
  5  6  1  0  0  0  0
  5 15  1  0  0  0  0
  6  7  2  0  0  0  0
  7 14  1  0  0  0  0
  7  8  1  0  0  0  0
  8 13  1  0  0  0  0
  8  9  1  0  0  0  0
  8 23  1  0  0  0  0
  9 10  1  0  0  0  0
  9 24  1  0  0  0  0
  9 25  1  0  0  0  0
 10 11  1  0  0  0  0
 10 26  1  0  0  0  0
 11 12  1  0  0  0  0
 11 27  1  0  0  0  0
 11 28  1  0  0  0  0
 12 13  1  0  0  0  0
 12 29  1  0  0  0  0
 12 30  1  0  0  0  0
M  END
> <s_m_source_file>
AV-unprocessed.smi

> <i_m_source_file_index>
2562

> <i_lp_mmshare_version>
43012

> <i_f3d_flags>
0

> <s_epik_input>
W0NIM11bQ0gyXVtDSDJdYzFuW25IXWMobjEpW0NAQEhdMltDSDJdW05IXVtDSDJdW0NIMl1PMg==

> <s_epik_cmdline>
J2VwaWtfcHl0aG9uJywgJy1waCcsICc3LjAnLCAnLXRuJywgJzgnLCAnLW1hJywgJzIwMCcsICctbWV0YWxfYmluZGluZycsICctaW1hZScsICc8aW5maWxlLm1hZT4nLCAnLW9tYWUnLCAnPG91dGZpbGUubWFlPic=

> <r_epik_Ionization_Penalty>
1.10136

> <r_epik_Ionization_Penalty_Charging>
0

> <r_epik_Ionization_Penalty_Neutral>
1.10136

> <r_epik_State_Penalty>
1.43987

> <r_epik_Charging_Adjusted_Penalty>
1.43987

> <i_epik_Tot_Q>
0

> <i_epik_Tot_abs_Q>
0

> <r_epik_Metal_State_Penalty>
1.55976

> <b_epik_Metal_Only>
0

> <s_lp_Force_Field>
OPLS_2005

> <r_lp_Energy>
11.7633

> <b_lp_Chiralities_Consistent>
1

> <s_lp_Variant>
AV-unprocessed.smi:2562-5

> <Gold.Version>
5.8.1

> <Gold.Id.Protein>
6NUR|6NUR_protein|mol2

> <Gold.PLP.Fitness>
37.8416

> <Gold.PLP.PLP>
-29.0663

> <Gold.PLP.part.hbond>
-4.1420

> <Gold.PLP.part.metal>
0.0000

> <Gold.PLP.part.buried>
-3.4819

> <Gold.PLP.part.nonpolar>
-21.5802

> <Gold.PLP.part.repulsive>
0.2233

> <Gold.PLP.ligand.clash>
0.0000

> <Gold.PLP.ligand.torsion>
0.0994

> <Gold.PLP.Chemscore.Hbond>
2.9862

> <Gold.PLP.Chemscore.CHOScore>
0.0000

> <Gold.PLP.Chemscore.Metal>
0.0000

> <Gold.Chemscore.Hbonds>
donor molecule, donor type, donor heavy atom, donor atom, acceptor molecule, acceptor atom, score
      L1  H     5    15       P1  8028  0.98
      L1  H    10    26       P1  7949  1.00
      P1  H  7989  7998       L1     6  0.72
      P1  H 10752 10765       L1    10  0.27

> <Gold.PLP.Chemscore.Internal.Correction>
0.0156

> <Gold.Rescore>
     Score         DG    S(hbond)    S(metal)    S(lipo)     H(rot)  DE(clash)    DE(int)     intcor
     15.86     -16.02       2.26        0.00      57.82       1.48       0.03       0.14       ----

> <Gold.Chemscore.Fitness>
15.8574

> <Gold.Chemscore.DG>
-16.0250

> <Gold.Chemscore.ZeroCoef>
-5.4800

> <Gold.Chemscore.Hbond>
2.2638

> <Gold.Chemscore.Metal>
0.0000

> <Gold.Chemscore.Lipo>
57.8172

> <Gold.Chemscore.Internal_Hbond>
0.0000

> <Gold.Chemscore.DEClash>
0.0272

> <Gold.Chemscore.DEInternal>
0.1403

> <Gold.Chemscore.Rot>
1.4769

> <Gold.Chemscore.Internal.Correction>
   9.000000E+99

> <Gold.Chemscore.Hbonds>
donor molecule, donor type, donor heavy atom, donor atom, acceptor molecule, acceptor atom, score
      L1  H     5    15       P1  8028  0.89
      L1  H    10    26       P1  7949  0.34
      P1  H  7989  7998       L1     6  0.33

> <Gold.Chemscore.Hbond.Weighted>
-7.5611

> <Gold.Chemscore.Metal.Weighted>
-0.0000

> <Gold.Chemscore.Lipo.Weighted>
-6.7646

> <Gold.Chemscore.Internal_Hbond.Weighted>
0.0000

> <Gold.Chemscore.DEClash.Weighted>
0.0272

> <Gold.Chemscore.DEInternal.Weighted>
0.1403

> <Gold.Chemscore.Rot.Weighted>
3.7808

> <Gold.Chemscore.Internal.Correction.Weighted>
   9.000000E+99

> <Gold.Protein.RotatedTorsions>
[ 6907 6896 6895 6894 ] final -147.21 input  -60.11 | X-H torsion
[ 7974 7965 7964 7962 ] final   28.52 input  175.53 | X-H torsion
[ 8008 7997 7996 7995 ] final   59.91 input   59.86 | X-H torsion
[ 10167 10162 10161 10158 ] final  151.35 input  -65.29 | X-H torsion
[ 10718 10713 10712 10709 ] final   54.57 input   66.30 | X-H torsion
[ 10763 10752 10751 10750 ] final  144.30 input  -60.55 | X-H torsion
[ 11005 11000 10999 10996 ] final  -29.16 input  -57.11 | X-H torsion

> <Gold.Protein.ActiveResidues>
 VAL166  LYS551  ARG553  GLY616  TRP617  ASP618  TYR619  PRO620  LYS621  CYS622 
 ASP623  PHE694  ASN695  SER759  ASP760  ASP761  ALA762  ILE779  LEU786  VAL792 
 PHE793  MET794  SER795  GLU796  ALA797  LYS798  CYS799  TRP800  GLU811  SER814 

> <Gold.Protein.RotatedAtoms>
  151.1525  133.4898  159.2594 H   0  0  0  0  0  0  0  0  0  0  0  0  # atno 6907 bound_to 6896
  151.1539  135.0240  159.8690 H   0  0  0  0  0  0  0  0  0  0  0  0  # atno 6908 bound_to 6896
  152.5463  134.1406  159.8530 H   0  0  0  0  0  0  0  0  0  0  0  0  # atno 6909 bound_to 6896
  146.1724  139.7044  142.8958 H   0  0  0  0  0  0  0  0  0  0  0  0  # atno 7974 bound_to 7965
  155.5738  140.3490  155.4522 H   0  0  0  0  0  0  0  0  0  0  0  0  # atno 8008 bound_to 7997
  156.0424  140.1299  157.0166 H   0  0  0  0  0  0  0  0  0  0  0  0  # atno 8009 bound_to 7997
  154.4398  140.1021  156.6242 H   0  0  0  0  0  0  0  0  0  0  0  0  # atno 8010 bound_to 7997
  139.4841  144.5448  151.7503 H   0  0  0  0  0  0  0  0  0  0  0  0  # atno 10167 bound_to 10162
  157.5269  130.8603  149.8633 H   0  0  0  0  0  0  0  0  0  0  0  0  # atno 10718 bound_to 10713
  153.9866  135.2936  155.3415 H   0  0  0  0  0  0  0  0  0  0  0  0  # atno 10763 bound_to 10752
  154.7239  135.5097  153.8858 H   0  0  0  0  0  0  0  0  0  0  0  0  # atno 10764 bound_to 10752
  153.0829  135.6684  154.0123 H   0  0  0  0  0  0  0  0  0  0  0  0  # atno 10765 bound_to 10752
  140.9271  133.7361  156.0884 H   0  0  0  0  0  0  0  0  0  0  0  0  # atno 11005 bound_to 11000
  145.4304  141.0414  143.2913 LP  0  0  0  0  0  0  0  0  0  0  0  0  # atno 17320 bound_to 7965
  144.8183  139.5837  143.6998 LP  0  0  0  0  0  0  0  0  0  0  0  0  # atno 17321 bound_to 7965
  140.4993  144.1194  150.5967 LP  0  0  0  0  0  0  0  0  0  0  0  0  # atno 17342 bound_to 10162
  140.4081  143.2670  151.9866 LP  0  0  0  0  0  0  0  0  0  0  0  0  # atno 17343 bound_to 10162
  156.0393  130.3743  150.1477 LP  0  0  0  0  0  0  0  0  0  0  0  0  # atno 17370 bound_to 10713
  156.9663  130.9820  151.3468 LP  0  0  0  0  0  0  0  0  0  0  0  0  # atno 17371 bound_to 10713
  140.7911  134.3616  157.5464 LP  0  0  0  0  0  0  0  0  0  0  0  0  # atno 17394 bound_to 11000
  139.8788  134.9141  156.3098 LP  0  0  0  0  0  0  0  0  0  0  0  0  # atno 17395 bound_to 11000

$$$$
