AV-unprocessed.smi:107|AV-procd|sdf|1015|dock1
  -GOLD-   2262018 13D 1   1.00000     0.00000
 Structure written by MMmdl.
 31 32  0  0  0  0  0  0  0  0  1 V2000
  150.9910  145.1098  158.9938 C   0  0  0  0  0  0  0  0  0  0  0  0
  151.2098  143.6279  158.7372 C   0  0  0  0  0  0  0  0  0  0  0  0
  150.3833  142.8961  157.9471 C   0  0  0  0  0  0  0  0  0  0  0  0
  150.5599  141.5437  157.6896 N   0  0  0  0  0  0  0  0  0  0  0  0
  149.6060  140.7880  156.7927 C   0  0  2  0  0  0  0  0  0  0  0  0
  150.3059  140.3470  155.5059 C   0  0  0  0  0  0  0  0  0  0  0  0
  149.2116  140.5514  154.4793 C   0  0  2  0  0  0  0  0  0  0  0  0
  149.7648  140.7614  153.1963 O   0  0  0  0  0  0  0  0  0  0  0  0
  148.4957  141.7921  155.0221 C   0  0  1  0  0  0  0  0  0  0  0  0
  147.0308  141.9351  154.5810 C   0  0  0  0  0  0  0  0  0  0  0  0
  146.7873  143.2328  154.0813 O   0  0  0  0  0  0  0  0  0  0  0  0
  148.5490  141.6321  156.4385 O   0  0  0  0  0  0  0  0  0  0  0  0
  151.6665  140.8726  158.2502 C   0  0  0  0  0  0  0  0  0  0  0  0
  151.9076  139.6841  158.0432 O   0  0  0  0  0  0  0  0  0  0  0  0
  152.5129  141.6219  159.0656 N   0  0  0  0  0  0  0  0  0  0  0  0
  152.3643  142.9786  159.3641 C   0  0  0  0  0  0  0  0  0  0  0  0
  153.1780  143.5303  160.1030 O   0  0  0  0  0  0  0  0  0  0  0  0
  153.3047  141.1446  159.4716 H   0  0  0  0  0  0  0  0  0  0  0  0
  150.0968  145.4795  158.4914 H   0  0  0  0  0  0  0  0  0  0  0  0
  151.8415  145.6880  158.6311 H   0  0  0  0  0  0  0  0  0  0  0  0
  150.8771  145.3002  160.0615 H   0  0  0  0  0  0  0  0  0  0  0  0
  149.5460  143.4002  157.4890 H   0  0  0  0  0  0  0  0  0  0  0  0
  149.1852  139.9591  157.3637 H   0  0  0  0  0  0  0  0  0  0  0  0
  151.1546  141.0036  155.3048 H   0  0  0  0  0  0  0  0  0  0  0  0
  150.6604  139.3184  155.5789 H   0  0  0  0  0  0  0  0  0  0  0  0
  148.5422  139.6902  154.4680 H   0  0  0  0  0  0  0  0  0  0  0  0
  149.4525  140.0792  152.6210 H   0  0  0  0  0  0  0  0  0  0  0  0
  149.0579  142.6930  154.7702 H   0  0  0  0  0  0  0  0  0  0  0  0
  146.7751  141.1951  153.8220 H   0  0  0  0  0  0  0  0  0  0  0  0
  146.3673  141.7679  155.4297 H   0  0  0  0  0  0  0  0  0  0  0  0
  147.5027  143.7934  154.3406 H   0  0  0  0  0  0  0  0  0  0  0  0
  1  2  1  0  0  0  0
  1 19  1  0  0  0  0
  1 20  1  0  0  0  0
  1 21  1  0  0  0  0
  2 16  1  0  0  0  0
  2  3  2  0  0  0  0
  3  4  1  0  0  0  0
  3 22  1  0  0  0  0
  4  5  1  0  0  0  0
  4 13  1  0  0  0  0
  5 12  1  0  0  0  0
  5  6  1  0  0  0  0
  5 23  1  0  0  0  0
  6  7  1  0  0  0  0
  6 24  1  0  0  0  0
  6 25  1  0  0  0  0
  7  8  1  0  0  0  0
  7  9  1  0  0  0  0
  7 26  1  0  0  0  0
  8 27  1  0  0  0  0
  9 10  1  0  0  0  0
  9 12  1  0  0  0  0
  9 28  1  0  0  0  0
 10 11  1  0  0  0  0
 10 29  1  0  0  0  0
 10 30  1  0  0  0  0
 11 31  1  0  0  0  0
 13 14  2  0  0  0  0
 13 15  1  0  0  0  0
 15 18  1  0  0  0  0
 15 16  1  0  0  0  0
 16 17  2  0  0  0  0
M  END
> <s_m_source_file>
AV-unprocessed.smi

> <i_m_source_file_index>
107

> <i_lp_mmshare_version>
43012

> <i_f3d_flags>
0

> <s_epik_input>
Tz1jMVtuSF1jKD1PKW4oW2NIXWMxW0NIM10pW0NAQEhdMltDSDJdW0NAQEhdKFtPSF0pW0NASF0oTzIpW0NIMl1bT0hd

> <s_epik_cmdline>
J2VwaWtfcHl0aG9uJywgJy1waCcsICc3LjAnLCAnLXRuJywgJzgnLCAnLW1hJywgJzIwMCcsICctbWV0YWxfYmluZGluZycsICctaW1hZScsICc8aW5maWxlLm1hZT4nLCAnLW9tYWUnLCAnPG91dGZpbGUubWFlPic=

> <r_lp_tautomer_probability>
0.999537

> <r_epik_Ionization_Penalty>
0.00121888

> <r_epik_Ionization_Penalty_Charging>
0.00121876

> <r_epik_Ionization_Penalty_Neutral>
1.19946e-07

> <r_epik_State_Penalty>
0.000805124

> <r_epik_Charging_Adjusted_Penalty>
0.00202389

> <i_epik_Tot_Q>
0

> <i_epik_Tot_abs_Q>
0

> <r_epik_Metal_State_Penalty>
0.662472

> <b_epik_Metal_Only>
0

> <s_epik_Chemistry_Notes>
This compound contains an acetal/aminal-like group ( X-CH(R)-Y where X, Y are N, S, or O) that may be acid/base labile, releasing an aldehyde.

> <s_lp_Force_Field>
OPLS_2005

> <r_lp_Energy>
24.0727

> <b_lp_Chiralities_Consistent>
1

> <s_lp_Variant>
AV-unprocessed.smi:107-3

> <Gold.Version>
5.8.1

> <Gold.Id.Protein>
6NUR|6NUR_protein|mol2

> <Gold.PLP.Fitness>
39.0211

> <Gold.PLP.PLP>
-30.0604

> <Gold.PLP.part.hbond>
-3.1802

> <Gold.PLP.part.metal>
0.0000

> <Gold.PLP.part.buried>
-0.5716

> <Gold.PLP.part.nonpolar>
-24.5398

> <Gold.PLP.part.repulsive>
0.2254

> <Gold.PLP.ligand.clash>
0.0000

> <Gold.PLP.ligand.torsion>
0.7712

> <Gold.PLP.Chemscore.Hbond>
2.4984

> <Gold.PLP.Chemscore.CHOScore>
1.0000

> <Gold.PLP.Chemscore.Metal>
0.0000

> <Gold.Chemscore.Hbonds>
donor molecule, donor type, donor heavy atom, donor atom, acceptor molecule, acceptor atom, score
      L1  H     8    27       P1  7957  0.43
      L1  H    11    31       P1  8028  0.74
      P1  H  7989  7998       L1     8  0.24
      P1  H  8011  8017       L1     8  1.00
      L1  C     3    22       P1  8028  1.00

> <Gold.PLP.Chemscore.Internal.Correction>
0.0079

> <Gold.Rescore>
     Score         DG    S(hbond)    S(metal)    S(lipo)     H(rot)  DE(clash)    DE(int)     intcor
      9.01      -9.96       1.54        0.00      53.87       2.73       0.01       0.94       ----

> <Gold.Chemscore.Fitness>
9.0143

> <Gold.Chemscore.DG>
-9.9647

> <Gold.Chemscore.ZeroCoef>
-5.4800

> <Gold.Chemscore.Hbond>
1.5446

> <Gold.Chemscore.Metal>
0.0000

> <Gold.Chemscore.Lipo>
53.8693

> <Gold.Chemscore.Internal_Hbond>
0.0000

> <Gold.Chemscore.DEClash>
0.0143

> <Gold.Chemscore.DEInternal>
0.9360

> <Gold.Chemscore.Rot>
2.7253

> <Gold.Chemscore.Internal.Correction>
   9.000000E+99

> <Gold.Chemscore.Hbonds>
donor molecule, donor type, donor heavy atom, donor atom, acceptor molecule, acceptor atom, score
      L1  H     8    27       P1  7957  0.43
      L1  H    11    31       P1  8028  0.10
      P1  H  7989  7998       L1     8  0.13
      P1  H  8011  8017       L1     8  0.78

> <Gold.Chemscore.Hbond.Weighted>
-5.1588

> <Gold.Chemscore.Metal.Weighted>
-0.0000

> <Gold.Chemscore.Lipo.Weighted>
-6.3027

> <Gold.Chemscore.Internal_Hbond.Weighted>
0.0000

> <Gold.Chemscore.DEClash.Weighted>
0.0143

> <Gold.Chemscore.DEInternal.Weighted>
0.9360

> <Gold.Chemscore.Rot.Weighted>
6.9769

> <Gold.Chemscore.Internal.Correction.Weighted>
   9.000000E+99

> <Gold.Protein.RotatedTorsions>
[ 6907 6896 6895 6894 ] final    3.95 input  -60.11 | X-H torsion
[ 7974 7965 7964 7962 ] final -172.07 input  175.53 | X-H torsion
[ 8008 7997 7996 7995 ] final  -10.46 input   59.86 | X-H torsion
[ 10167 10162 10161 10158 ] final   14.11 input  -65.29 | X-H torsion
[ 10718 10713 10712 10709 ] final  111.16 input   66.30 | X-H torsion
[ 10763 10752 10751 10750 ] final  121.74 input  -60.55 | X-H torsion
[ 11005 11000 10999 10996 ] final  -14.25 input  -57.11 | X-H torsion

> <Gold.Protein.ActiveResidues>
 VAL166  LYS551  ARG553  GLY616  TRP617  ASP618  TYR619  PRO620  LYS621  CYS622 
 ASP623  PHE694  ASN695  SER759  ASP760  ASP761  ALA762  ILE779  LEU786  VAL792 
 PHE793  MET794  SER795  GLU796  ALA797  LYS798  CYS799  TRP800  GLU811  SER814 

> <Gold.Protein.RotatedAtoms>
  151.6335  135.1020  160.0126 H   0  0  0  0  0  0  0  0  0  0  0  0  # atno 6907 bound_to 6896
  152.4093  133.6935  159.6392 H   0  0  0  0  0  0  0  0  0  0  0  0  # atno 6908 bound_to 6896
  150.7985  133.8569  159.3262 H   0  0  0  0  0  0  0  0  0  0  0  0  # atno 6909 bound_to 6896
  144.7150  140.1827  143.6356 H   0  0  0  0  0  0  0  0  0  0  0  0  # atno 7974 bound_to 7965
  154.5552  140.2328  155.8421 H   0  0  0  0  0  0  0  0  0  0  0  0  # atno 8008 bound_to 7997
  156.1982  140.3059  155.9432 H   0  0  0  0  0  0  0  0  0  0  0  0  # atno 8009 bound_to 7997
  155.2993  140.0430  157.3019 H   0  0  0  0  0  0  0  0  0  0  0  0  # atno 8010 bound_to 7997
  140.5958  143.8705  150.6916 H   0  0  0  0  0  0  0  0  0  0  0  0  # atno 10167 bound_to 10162
  157.6459  131.0945  150.6707 H   0  0  0  0  0  0  0  0  0  0  0  0  # atno 10718 bound_to 10713
  153.6188  135.3417  155.3004 H   0  0  0  0  0  0  0  0  0  0  0  0  # atno 10763 bound_to 10752
  154.8604  135.4268  154.2229 H   0  0  0  0  0  0  0  0  0  0  0  0  # atno 10764 bound_to 10752
  153.3097  135.7030  153.7199 H   0  0  0  0  0  0  0  0  0  0  0  0  # atno 10765 bound_to 10752
  140.7844  133.8337  155.9322 H   0  0  0  0  0  0  0  0  0  0  0  0  # atno 11005 bound_to 11000
  145.8841  139.2339  143.1588 LP  0  0  0  0  0  0  0  0  0  0  0  0  # atno 17320 bound_to 7965
  145.9966  140.8557  143.0039 LP  0  0  0  0  0  0  0  0  0  0  0  0  # atno 17321 bound_to 7965
  140.2239  143.3788  152.1621 LP  0  0  0  0  0  0  0  0  0  0  0  0  # atno 17342 bound_to 10162
  139.5257  144.7099  151.5239 LP  0  0  0  0  0  0  0  0  0  0  0  0  # atno 17343 bound_to 10162
  156.7024  130.4627  149.5569 LP  0  0  0  0  0  0  0  0  0  0  0  0  # atno 17370 bound_to 10713
  156.1786  130.6484  151.0924 LP  0  0  0  0  0  0  0  0  0  0  0  0  # atno 17371 bound_to 10713
  140.9451  134.1851  157.4769 LP  0  0  0  0  0  0  0  0  0  0  0  0  # atno 17394 bound_to 11000
  139.8738  134.9887  156.5424 LP  0  0  0  0  0  0  0  0  0  0  0  0  # atno 17395 bound_to 11000

$$$$
