AV-unprocessed.smi:763|AV-procd|sdf|3635|dock10
  -GOLD-   22720 1 33D 1   1.00000     0.00000
 Structure written by MMmdl.
 44 45  0  0  0  0  0  0  0  0  1 V2000
  156.0169  138.0327  158.8832 C   0  0  0  0  0  0  0  0  0  0  0  0
  156.3520  139.4080  158.9795 O   0  0  0  0  0  0  0  0  0  0  0  0
  156.7190  139.8215  160.2885 C   0  0  0  0  0  0  0  0  0  0  0  0
  155.5022  139.9388  161.2170 C   0  0  0  0  0  0  0  0  0  0  0  0
  154.3302  139.8110  160.4208 O   0  0  0  0  0  0  0  0  0  0  0  0
  153.5173  140.9100  160.2328 C   0  0  0  0  0  0  0  0  0  0  0  0
  153.8357  142.0525  160.8934 N   0  0  0  0  0  0  0  0  0  0  0  0
  153.0384  143.1300  160.7469 C   0  0  0  0  0  0  0  0  0  0  0  0
  151.8836  143.1288  159.9442 C   0  0  0  0  0  0  0  0  0  0  0  0
  151.5522  141.9472  159.2569 C   0  0  0  0  0  0  0  0  0  0  0  0
  152.3803  140.8136  159.3883 C   0  0  0  0  0  0  0  0  0  0  0  0
  152.0279  139.6548  158.6838 N   0  0  0  0  0  0  0  0  0  0  0  0
  150.6838  139.3743  157.6201 S   0  0  0  0  0  0  0  0  0  0  0  0
  150.6055  137.9141  157.4536 O   0  0  0  0  0  0  0  0  0  0  0  0
  149.5633  140.1283  158.2025 O   0  0  0  0  0  0  0  0  0  0  0  0
  151.2782  140.1610  156.0335 C   0  0  1  0  0  0  0  0  0  0  0  0
  151.3884  139.1114  154.9085 C   0  0  0  0  0  0  0  0  0  0  0  0
  150.0056  138.6542  154.4115 C   0  0  0  0  0  0  0  0  0  0  0  0
  149.1732  139.8498  153.9203 C   0  0  0  0  0  0  0  0  0  0  0  0
  149.0341  140.9269  155.0086 C   0  0  0  0  0  0  0  0  0  0  0  0
  150.4143  141.3531  155.5511 C   0  0  1  0  0  0  0  0  0  0  0  0
  150.2754  142.3251  156.5666 O   0  0  0  0  0  0  0  0  0  0  0  0
  155.8037  137.7838  157.8438 H   0  0  0  0  0  0  0  0  0  0  0  0
  155.1312  137.7887  159.4692 H   0  0  0  0  0  0  0  0  0  0  0  0
  156.8416  137.4009  159.2152 H   0  0  0  0  0  0  0  0  0  0  0  0
  157.4761  139.1601  160.7130 H   0  0  0  0  0  0  0  0  0  0  0  0
  157.1854  140.8028  160.1958 H   0  0  0  0  0  0  0  0  0  0  0  0
  155.5349  139.1472  161.9673 H   0  0  0  0  0  0  0  0  0  0  0  0
  155.5040  140.9001  161.7321 H   0  0  0  0  0  0  0  0  0  0  0  0
  153.3275  144.0182  161.2890 H   0  0  0  0  0  0  0  0  0  0  0  0
  151.2690  144.0123  159.8567 H   0  0  0  0  0  0  0  0  0  0  0  0
  150.6732  141.9160  158.6298 H   0  0  0  0  0  0  0  0  0  0  0  0
  152.5090  138.8210  158.9871 H   0  0  0  0  0  0  0  0  0  0  0  0
  152.2864  140.5212  156.2395 H   0  0  0  0  0  0  0  0  0  0  0  0
  151.9415  139.5403  154.0720 H   0  0  0  0  0  0  0  0  0  0  0  0
  151.9731  138.2533  155.2397 H   0  0  0  0  0  0  0  0  0  0  0  0
  150.1242  137.9314  153.6038 H   0  0  0  0  0  0  0  0  0  0  0  0
  149.4726  138.1370  155.2100 H   0  0  0  0  0  0  0  0  0  0  0  0
  149.6471  140.2837  153.0389 H   0  0  0  0  0  0  0  0  0  0  0  0
  148.1861  139.5116  153.6040 H   0  0  0  0  0  0  0  0  0  0  0  0
  148.5161  141.7932  154.5957 H   0  0  0  0  0  0  0  0  0  0  0  0
  148.3944  140.5514  155.8052 H   0  0  0  0  0  0  0  0  0  0  0  0
  150.9500  141.8413  154.7359 H   0  0  0  0  0  0  0  0  0  0  0  0
  150.0355  143.1466  156.1659 H   0  0  0  0  0  0  0  0  0  0  0  0
  1  2  1  0  0  0  0
  1 23  1  0  0  0  0
  1 24  1  0  0  0  0
  1 25  1  0  0  0  0
  2  3  1  0  0  0  0
  3  4  1  0  0  0  0
  3 26  1  0  0  0  0
  3 27  1  0  0  0  0
  4  5  1  0  0  0  0
  4 28  1  0  0  0  0
  4 29  1  0  0  0  0
  5  6  1  0  0  0  0
  6 11  1  0  0  0  0
  6  7  2  0  0  0  0
  7  8  1  0  0  0  0
  8  9  2  0  0  0  0
  8 30  1  0  0  0  0
  9 10  1  0  0  0  0
  9 31  1  0  0  0  0
 10 11  2  0  0  0  0
 10 32  1  0  0  0  0
 11 12  1  0  0  0  0
 12 13  1  0  0  0  0
 12 33  1  0  0  0  0
 13 14  2  0  0  0  0
 13 15  2  0  0  0  0
 13 16  1  0  0  0  0
 16 21  1  0  0  0  0
 16 17  1  0  0  0  0
 16 34  1  0  0  0  0
 17 18  1  0  0  0  0
 17 35  1  0  0  0  0
 17 36  1  0  0  0  0
 18 19  1  0  0  0  0
 18 37  1  0  0  0  0
 18 38  1  0  0  0  0
 19 20  1  0  0  0  0
 19 39  1  0  0  0  0
 19 40  1  0  0  0  0
 20 21  1  0  0  0  0
 20 41  1  0  0  0  0
 20 42  1  0  0  0  0
 21 22  1  0  0  0  0
 21 43  1  0  0  0  0
 22 44  1  0  0  0  0
M  END
> <s_m_source_file>
AV-unprocessed.smi

> <i_m_source_file_index>
763

> <i_lp_mmshare_version>
43012

> <i_f3d_flags>
0

> <s_epik_input>
W0NIM11PW0NIMl1bQ0gyXU9jMW5bY0hdW2NIXVtjSF1jMVtOSF1TKD1PKSg9TylbQ0BASF0yW0NIMl1bQ0gyXVtDSDJdW0NIMl1bQ0BIXTJbT0hd

> <s_epik_cmdline>
J2VwaWtfcHl0aG9uJywgJy1waCcsICc3LjAnLCAnLXRuJywgJzgnLCAnLW1hJywgJzIwMCcsICctbWV0YWxfYmluZGluZycsICctaW1hZScsICc8aW5maWxlLm1hZT4nLCAnLW9tYWUnLCAnPG91dGZpbGUubWFlPic=

> <r_epik_Ionization_Penalty>
0.124685

> <r_epik_Ionization_Penalty_Charging>
0

> <r_epik_Ionization_Penalty_Neutral>
0.124685

> <r_epik_State_Penalty>
0.114154

> <r_epik_Charging_Adjusted_Penalty>
0.114154

> <i_epik_Tot_Q>
0

> <i_epik_Tot_abs_Q>
0

> <r_epik_Metal_State_Penalty>
0.443785

> <b_epik_Metal_Only>
0

> <s_lp_Force_Field>
OPLS_2005

> <r_lp_Energy>
7.3887

> <b_lp_Chiralities_Consistent>
1

> <s_lp_Variant>
AV-unprocessed.smi:763-2

> <Gold.Version>
5.8.1

> <Gold.Id.Protein>
6NUR|6NUR_protein|mol2

> <Gold.PLP.Fitness>
40.4291

> <Gold.PLP.PLP>
-35.9494

> <Gold.PLP.part.hbond>
-2.0000

> <Gold.PLP.part.metal>
0.0000

> <Gold.PLP.part.buried>
-2.2933

> <Gold.PLP.part.nonpolar>
-30.8975

> <Gold.PLP.part.repulsive>
0.1572

> <Gold.PLP.ligand.clash>
0.0000

> <Gold.PLP.ligand.torsion>
1.4325

> <Gold.PLP.Chemscore.Hbond>
2.0000

> <Gold.PLP.Chemscore.CHOScore>
0.0000

> <Gold.PLP.Chemscore.Metal>
0.0000

> <Gold.Chemscore.Hbonds>
donor molecule, donor type, donor heavy atom, donor atom, acceptor molecule, acceptor atom, score
      L1  H    22    44       P1  8028  1.00
      P1  H  7997  8008       L1     2  0.95

> <Gold.PLP.Chemscore.Internal.Correction>
1.3448

> <Gold.Rescore>
     Score         DG    S(hbond)    S(metal)    S(lipo)     H(rot)  DE(clash)    DE(int)     intcor
     13.66     -16.64       1.98        0.00      91.40       2.41       0.13       2.86       ----

> <Gold.Chemscore.Fitness>
13.6550

> <Gold.Chemscore.DG>
-16.6411

> <Gold.Chemscore.ZeroCoef>
-5.4800

> <Gold.Chemscore.Hbond>
1.9836

> <Gold.Chemscore.Metal>
0.0000

> <Gold.Chemscore.Lipo>
91.3966

> <Gold.Chemscore.Internal_Hbond>
0.0000

> <Gold.Chemscore.DEClash>
0.1290

> <Gold.Chemscore.DEInternal>
2.8571

> <Gold.Chemscore.Rot>
2.4052

> <Gold.Chemscore.Internal.Correction>
   9.000000E+99

> <Gold.Chemscore.Hbonds>
donor molecule, donor type, donor heavy atom, donor atom, acceptor molecule, acceptor atom, score
      L1  H    22    44       P1  8028  0.95
      P1  H  7997  8008       L1     2  0.21

> <Gold.Chemscore.Hbond.Weighted>
-6.6251

> <Gold.Chemscore.Metal.Weighted>
-0.0000

> <Gold.Chemscore.Lipo.Weighted>
-10.6934

> <Gold.Chemscore.Internal_Hbond.Weighted>
0.0000

> <Gold.Chemscore.DEClash.Weighted>
0.1290

> <Gold.Chemscore.DEInternal.Weighted>
2.8571

> <Gold.Chemscore.Rot.Weighted>
6.1574

> <Gold.Chemscore.Internal.Correction.Weighted>
   9.000000E+99

> <Gold.Protein.RotatedTorsions>
[ 6907 6896 6895 6894 ] final -127.09 input  -60.11 | X-H torsion
[ 7974 7965 7964 7962 ] final  120.82 input  175.53 | X-H torsion
[ 8008 7997 7996 7995 ] final -144.29 input   59.86 | X-H torsion
[ 10167 10162 10161 10158 ] final   17.05 input  -65.29 | X-H torsion
[ 10718 10713 10712 10709 ] final  -94.86 input   66.30 | X-H torsion
[ 10763 10752 10751 10750 ] final  -50.83 input  -60.55 | X-H torsion
[ 11005 11000 10999 10996 ] final  -75.39 input  -57.11 | X-H torsion

> <Gold.Protein.ActiveResidues>
 VAL166  LYS551  ARG553  GLY616  TRP617  ASP618  TYR619  PRO620  LYS621  CYS622 
 ASP623  PHE694  ASN695  SER759  ASP760  ASP761  ALA762  ILE779  LEU786  VAL792 
 PHE793  MET794  SER795  GLU796  ALA797  LYS798  CYS799  TRP800  GLU811  SER814 

> <Gold.Protein.RotatedAtoms>
  150.9036  133.7086  159.2872 H   0  0  0  0  0  0  0  0  0  0  0  0  # atno 6907 bound_to 6896
  151.4596  135.1036  159.9731 H   0  0  0  0  0  0  0  0  0  0  0  0  # atno 6908 bound_to 6896
  152.4891  133.8403  159.7204 H   0  0  0  0  0  0  0  0  0  0  0  0  # atno 6909 bound_to 6896
  145.1266  139.3354  143.4686 H   0  0  0  0  0  0  0  0  0  0  0  0  # atno 7974 bound_to 7965
  155.5246  140.0594  157.2900 H   0  0  0  0  0  0  0  0  0  0  0  0  # atno 8008 bound_to 7997
  154.4506  140.1946  156.0478 H   0  0  0  0  0  0  0  0  0  0  0  0  # atno 8009 bound_to 7997
  156.0695  140.3262  155.7562 H   0  0  0  0  0  0  0  0  0  0  0  0  # atno 8010 bound_to 7997
  140.5753  143.9083  150.6745 H   0  0  0  0  0  0  0  0  0  0  0  0  # atno 10167 bound_to 10162
  156.0033  130.5085  150.5989 H   0  0  0  0  0  0  0  0  0  0  0  0  # atno 10718 bound_to 10713
  154.1166  135.6541  153.4895 H   0  0  0  0  0  0  0  0  0  0  0  0  # atno 10763 bound_to 10752
  153.0239  135.5260  154.7138 H   0  0  0  0  0  0  0  0  0  0  0  0  # atno 10764 bound_to 10752
  154.6334  135.2979  155.0160 H   0  0  0  0  0  0  0  0  0  0  0  0  # atno 10765 bound_to 10752
  141.1645  133.6945  156.7509 H   0  0  0  0  0  0  0  0  0  0  0  0  # atno 11005 bound_to 11000
  146.3517  140.1248  142.8599 LP  0  0  0  0  0  0  0  0  0  0  0  0  # atno 17320 bound_to 7965
  145.0681  140.9136  143.4898 LP  0  0  0  0  0  0  0  0  0  0  0  0  # atno 17321 bound_to 7965
  140.2569  143.3552  152.1357 LP  0  0  0  0  0  0  0  0  0  0  0  0  # atno 17342 bound_to 10162
  139.5139  144.6940  151.5681 LP  0  0  0  0  0  0  0  0  0  0  0  0  # atno 17343 bound_to 10162
  157.3841  131.0785  151.1451 LP  0  0  0  0  0  0  0  0  0  0  0  0  # atno 17370 bound_to 10713
  157.2164  130.6461  149.5794 LP  0  0  0  0  0  0  0  0  0  0  0  0  # atno 17371 bound_to 10713
  140.2604  134.8471  157.3753 LP  0  0  0  0  0  0  0  0  0  0  0  0  # atno 17394 bound_to 11000
  140.1616  134.4721  155.7891 LP  0  0  0  0  0  0  0  0  0  0  0  0  # atno 17395 bound_to 11000

$$$$
