AV-unprocessed.smi:334|AV-procd|sdf|2364|dock8
  -GOLD-   2262022283D 1   1.00000     0.00000
 Structure written by MMmdl.
 44 46  0  0  0  0  0  0  0  0  3 V2000
  147.2940  142.3927  157.3604 C   0  0  0  0  0  0  0  0  0  0  0  0
  148.3978  141.5383  156.7130 C   0  0  2  0  0  0  0  0  0  0  0  0
  149.7060  142.1245  156.9983 N   0  0  0  0  0  0  0  0  0  0  0  0
  150.1439  142.5078  158.2072 C   0  0  0  0  0  0  0  0  0  0  0  0
  149.4664  142.4136  159.2317 O   0  0  0  0  0  0  0  0  0  0  0  0
  151.5615  143.0972  158.2444 C   0  0  0  0  0  0  0  0  0  0  0  0
  152.2629  142.8662  159.5188 N   0  0  0  0  0  0  0  0  0  0  0  0
  153.3633  141.9869  159.4908 C   0  0  0  0  0  0  0  0  0  0  0  0
  154.0835  141.7056  160.5943 C   0  0  0  0  0  0  0  0  0  0  0  0
  155.2154  140.8063  160.5453 N   0  3  0  0  0  0  0  0  0  0  0  0
  155.3847  140.1279  159.5372 O   0  0  0  0  0  0  0  0  0  0  0  0
  155.9718  140.7477  161.5101 O   0  5  0  0  0  0  0  0  0  0  0  0
  153.6884  142.3402  161.8369 C   0  0  0  0  0  0  0  0  0  0  0  0
  152.6403  143.1865  161.8691 C   0  0  0  0  0  0  0  0  0  0  0  0
  151.8627  143.4971  160.6649 C   0  0  0  0  0  0  0  0  0  0  0  0
  150.9102  144.2767  160.6860 O   0  0  0  0  0  0  0  0  0  0  0  0
  148.2212  141.4103  155.1815 C   0  0  1  0  0  0  0  0  0  0  0  0
  149.2888  140.5424  154.4757 C   0  0  0  0  0  0  0  0  0  0  0  0
  148.4442  139.5913  153.6074 C   0  0  1  0  0  0  0  0  0  0  0  0
  147.7810  138.5388  154.5147 C   0  0  0  0  0  0  0  0  0  0  0  0
  146.6918  139.3537  155.2354 C   0  0  0  0  0  0  0  0  0  0  0  0
  146.9010  140.7763  154.6765 C   0  0  2  0  0  0  0  0  0  0  0  0
  147.2592  140.4708  153.2255 C   0  0  0  0  0  0  0  0  0  0  0  0
  146.3107  141.9455  157.2153 H   0  0  0  0  0  0  0  0  0  0  0  0
  147.2691  143.3971  156.9365 H   0  0  0  0  0  0  0  0  0  0  0  0
  147.4463  142.4891  158.4360 H   0  0  0  0  0  0  0  0  0  0  0  0
  148.3708  140.5419  157.1553 H   0  0  0  0  0  0  0  0  0  0  0  0
  150.3288  142.2421  156.2123 H   0  0  0  0  0  0  0  0  0  0  0  0
  152.1370  142.6872  157.4123 H   0  0  0  0  0  0  0  0  0  0  0  0
  151.4927  144.1669  158.0408 H   0  0  0  0  0  0  0  0  0  0  0  0
  153.5798  141.5725  158.5167 H   0  0  0  0  0  0  0  0  0  0  0  0
  154.2300  142.1422  162.7503 H   0  0  0  0  0  0  0  0  0  0  0  0
  152.3636  143.6488  162.8052 H   0  0  0  0  0  0  0  0  0  0  0  0
  148.2766  142.4161  154.7599 H   0  0  0  0  0  0  0  0  0  0  0  0
  149.9385  141.1640  153.8585 H   0  0  0  0  0  0  0  0  0  0  0  0
  149.9236  139.9928  155.1722 H   0  0  0  0  0  0  0  0  0  0  0  0
  148.9921  139.1617  152.7682 H   0  0  0  0  0  0  0  0  0  0  0  0
  147.3335  137.7386  153.9237 H   0  0  0  0  0  0  0  0  0  0  0  0
  148.4893  138.0857  155.2095 H   0  0  0  0  0  0  0  0  0  0  0  0
  145.7033  138.9823  154.9625 H   0  0  0  0  0  0  0  0  0  0  0  0
  146.7668  139.2954  156.3204 H   0  0  0  0  0  0  0  0  0  0  0  0
  146.0319  141.4237  154.7967 H   0  0  0  0  0  0  0  0  0  0  0  0
  147.5439  141.3545  152.6513 H   0  0  0  0  0  0  0  0  0  0  0  0
  146.4757  139.9333  152.6882 H   0  0  0  0  0  0  0  0  0  0  0  0
  1  2  1  0  0  0  0
  1 24  1  0  0  0  0
  1 25  1  0  0  0  0
  1 26  1  0  0  0  0
  2  3  1  0  0  0  0
  2 17  1  0  0  0  0
  2 27  1  0  0  0  0
  3  4  1  0  0  0  0
  3 28  1  0  0  0  0
  4  5  2  0  0  0  0
  4  6  1  0  0  0  0
  6  7  1  0  0  0  0
  6 29  1  0  0  0  0
  6 30  1  0  0  0  0
  7 15  1  0  0  0  0
  7  8  1  0  0  0  0
  8  9  2  0  0  0  0
  8 31  1  0  0  0  0
  9 10  1  0  0  0  0
  9 13  1  0  0  0  0
 10 11  2  0  0  0  0
 10 12  1  0  0  0  0
 13 14  2  0  0  0  0
 13 32  1  0  0  0  0
 14 15  1  0  0  0  0
 14 33  1  0  0  0  0
 15 16  2  0  0  0  0
 17 22  1  0  0  0  0
 17 18  1  0  0  0  0
 17 34  1  0  0  0  0
 18 19  1  0  0  0  0
 18 35  1  0  0  0  0
 18 36  1  0  0  0  0
 19 23  1  0  0  0  0
 19 20  1  0  0  0  0
 19 37  1  0  0  0  0
 20 21  1  0  0  0  0
 20 38  1  0  0  0  0
 20 39  1  0  0  0  0
 21 22  1  0  0  0  0
 21 40  1  0  0  0  0
 21 41  1  0  0  0  0
 22 23  1  0  0  0  0
 22 42  1  0  0  0  0
 23 43  1  0  0  0  0
 23 44  1  0  0  0  0
M  CHG  1  10   1
M  CHG  1  12  -1
M  END
> <s_m_source_file>
AV-unprocessed.smi

> <i_m_source_file_index>
334

> <i_lp_mmshare_version>
43012

> <i_f3d_flags>
0

> <s_epik_input>
W0NIMl0xW0NIMl1bQ0BIXShbQ0gyXTIpW0NAQEhdKFtDSDJdW0NAQEhdMTIpW0NASF0oW0NIM10pW05IXUMoPU8pW0NIMl1uM1tjSF1jKFtOK10oPU8pW08tXSlbY0hdW2NIXWMzPU8=

> <s_epik_cmdline>
J2VwaWtfcHl0aG9uJywgJy1waCcsICc3LjAnLCAnLXRuJywgJzgnLCAnLW1hJywgJzIwMCcsICctbWV0YWxfYmluZGluZycsICctaW1hZScsICc8aW5maWxlLm1hZT4nLCAnLW9tYWUnLCAnPG91dGZpbGUubWFlPic=

> <r_lp_tautomer_probability>
1

> <r_epik_Ionization_Penalty>
2.17081e-08

> <r_epik_Ionization_Penalty_Charging>
8.1195e-11

> <r_epik_Ionization_Penalty_Neutral>
2.16269e-08

> <r_epik_State_Penalty>
-0

> <r_epik_Charging_Adjusted_Penalty>
8.1195e-11

> <i_epik_Tot_Q>
0

> <i_epik_Tot_abs_Q>
2

> <r_epik_Metal_State_Penalty>
-0

> <b_epik_Metal_Only>
0

> <s_lp_Force_Field>
OPLS_2005

> <r_lp_Energy>
62.3999

> <b_lp_Chiralities_Consistent>
1

> <s_lp_Variant>
AV-unprocessed.smi:334-3

> <Gold.Version>
5.8.1

> <Gold.Id.Protein>
6NUR|6NUR_protein|mol2

> <Gold.PLP.Fitness>
45.7620

> <Gold.PLP.PLP>
-43.9109

> <Gold.PLP.part.hbond>
-4.0000

> <Gold.PLP.part.metal>
0.0000

> <Gold.PLP.part.buried>
-0.9088

> <Gold.PLP.part.nonpolar>
-38.0054

> <Gold.PLP.part.repulsive>
0.2324

> <Gold.PLP.ligand.clash>
0.0000

> <Gold.PLP.ligand.torsion>
0.5949

> <Gold.PLP.Chemscore.Hbond>
1.0000

> <Gold.PLP.Chemscore.CHOScore>
0.0000

> <Gold.PLP.Chemscore.Metal>
0.0000

> <Gold.Chemscore.Hbonds>
donor molecule, donor type, donor heavy atom, donor atom, acceptor molecule, acceptor atom, score
      P1  H  7997  8009       L1    11  0.57

> <Gold.PLP.Chemscore.Internal.Correction>
0.0407

> <Gold.Rescore>
     Score         DG    S(hbond)    S(metal)    S(lipo)     H(rot)  DE(clash)    DE(int)     intcor
     10.66     -15.81       1.00        0.00      97.89       1.75       1.27       3.88       ----

> <Gold.Chemscore.Fitness>
10.6629

> <Gold.Chemscore.DG>
-15.8102

> <Gold.Chemscore.ZeroCoef>
-5.4800

> <Gold.Chemscore.Hbond>
1.0031

> <Gold.Chemscore.Metal>
0.0000

> <Gold.Chemscore.Lipo>
97.8888

> <Gold.Chemscore.Internal_Hbond>
0.0000

> <Gold.Chemscore.DEClash>
1.2659

> <Gold.Chemscore.DEInternal>
3.8814

> <Gold.Chemscore.Rot>
1.7474

> <Gold.Chemscore.Internal.Correction>
   9.000000E+99

> <Gold.Chemscore.Hbonds>
donor molecule, donor type, donor heavy atom, donor atom, acceptor molecule, acceptor atom, score
      P1  H  7997  8009       L1    11  0.54

> <Gold.Chemscore.Hbond.Weighted>
-3.3505

> <Gold.Chemscore.Metal.Weighted>
-0.0000

> <Gold.Chemscore.Lipo.Weighted>
-11.4530

> <Gold.Chemscore.Internal_Hbond.Weighted>
0.0000

> <Gold.Chemscore.DEClash.Weighted>
1.2659

> <Gold.Chemscore.DEInternal.Weighted>
3.8814

> <Gold.Chemscore.Rot.Weighted>
4.4733

> <Gold.Chemscore.Internal.Correction.Weighted>
   9.000000E+99

> <Gold.Protein.RotatedTorsions>
[ 6907 6896 6895 6894 ] final  169.42 input  -60.11 | X-H torsion
[ 7974 7965 7964 7962 ] final  -18.70 input  175.53 | X-H torsion
[ 8008 7997 7996 7995 ] final  116.25 input   59.86 | X-H torsion
[ 10167 10162 10161 10158 ] final    6.00 input  -65.29 | X-H torsion
[ 10718 10713 10712 10709 ] final   78.60 input   66.30 | X-H torsion
[ 10763 10752 10751 10750 ] final   60.96 input  -60.55 | X-H torsion
[ 11005 11000 10999 10996 ] final  120.71 input  -57.11 | X-H torsion

> <Gold.Protein.ActiveResidues>
 VAL166  LYS551  ARG553  GLY616  TRP617  ASP618  TYR619  PRO620  LYS621  CYS622 
 ASP623  PHE694  ASN695  SER759  ASP760  ASP761  ALA762  ILE779  LEU786  VAL792 
 PHE793  MET794  SER795  GLU796  ALA797  LYS798  CYS799  TRP800  GLU811  SER814 

> <Gold.Protein.RotatedAtoms>
  151.8322  133.3410  159.3616 H   0  0  0  0  0  0  0  0  0  0  0  0  # atno 6907 bound_to 6896
  150.7260  134.5472  159.5786 H   0  0  0  0  0  0  0  0  0  0  0  0  # atno 6908 bound_to 6896
  152.2927  134.7703  160.0425 H   0  0  0  0  0  0  0  0  0  0  0  0  # atno 6909 bound_to 6896
  146.1879  140.3958  142.8469 H   0  0  0  0  0  0  0  0  0  0  0  0  # atno 7974 bound_to 7965
  156.2428  140.2921  156.0494 H   0  0  0  0  0  0  0  0  0  0  0  0  # atno 8008 bound_to 7997
  155.1898  140.0406  157.2915 H   0  0  0  0  0  0  0  0  0  0  0  0  # atno 8009 bound_to 7997
  154.6202  140.2474  155.7566 H   0  0  0  0  0  0  0  0  0  0  0  0  # atno 8010 bound_to 7997
  140.6452  143.7679  150.7488 H   0  0  0  0  0  0  0  0  0  0  0  0  # atno 10167 bound_to 10162
  157.6750  130.9876  150.1810 H   0  0  0  0  0  0  0  0  0  0  0  0  # atno 10718 bound_to 10713
  152.9936  135.5518  154.5957 H   0  0  0  0  0  0  0  0  0  0  0  0  # atno 10763 bound_to 10752
  154.5309  135.2813  155.1183 H   0  0  0  0  0  0  0  0  0  0  0  0  # atno 10764 bound_to 10752
  154.2498  135.6401  153.5289 H   0  0  0  0  0  0  0  0  0  0  0  0  # atno 10765 bound_to 10752
  139.9196  134.9636  156.7848 H   0  0  0  0  0  0  0  0  0  0  0  0  # atno 11005 bound_to 11000
  144.8431  140.6888  143.6216 LP  0  0  0  0  0  0  0  0  0  0  0  0  # atno 17320 bound_to 7965
  145.3883  139.1622  143.4243 LP  0  0  0  0  0  0  0  0  0  0  0  0  # atno 17321 bound_to 7965
  140.1319  143.4518  152.2249 LP  0  0  0  0  0  0  0  0  0  0  0  0  # atno 17342 bound_to 10162
  139.5662  144.7436  151.4016 LP  0  0  0  0  0  0  0  0  0  0  0  0  # atno 17343 bound_to 10162
  156.2543  130.3704  149.8199 LP  0  0  0  0  0  0  0  0  0  0  0  0  # atno 17370 bound_to 10713
  156.5962  130.8527  151.3420 LP  0  0  0  0  0  0  0  0  0  0  0  0  # atno 17371 bound_to 10713
  140.6514  133.9727  155.7757 LP  0  0  0  0  0  0  0  0  0  0  0  0  # atno 17394 bound_to 11000
  141.0705  134.0212  157.3533 LP  0  0  0  0  0  0  0  0  0  0  0  0  # atno 17395 bound_to 11000

$$$$
