AV-unprocessed.smi:1469|AV-procd|sdf|5959|dock9
  -GOLD-   22720 6 43D 1   1.00000     0.00000
 Structure written by MMmdl.
 41 42  0  0  0  0  0  0  0  0  2 V2000
  145.8438  136.1875  150.5334 C   0  0  0  0  0  0  0  0  0  0  0  0
  145.5697  136.5003  152.0189 C   0  0  1  0  0  0  0  0  0  0  0  0
  145.6090  135.2067  152.8724 C   0  0  0  0  0  0  0  0  0  0  0  0
  146.8891  134.5037  152.8018 N   0  0  0  0  0  0  0  0  0  0  0  0
  147.1070  133.2409  153.1995 C   0  0  0  0  0  0  0  0  0  0  0  0
  146.2211  132.5143  153.6509 O   0  0  0  0  0  0  0  0  0  0  0  0
  148.5430  132.7229  153.0350 C   0  0  0  0  0  0  0  0  0  0  0  0
  149.3831  132.9439  154.2238 N   0  0  0  0  0  0  0  0  0  0  0  0
  149.5890  134.2789  154.6258 C   0  0  0  0  0  0  0  0  0  0  0  0
  150.3384  134.5908  155.6951 C   0  0  0  0  0  0  0  0  0  0  0  0
  150.9421  133.5136  156.4431 C   0  0  0  0  0  0  0  0  0  0  0  0
  150.7540  132.2333  156.0655 C   0  0  0  0  0  0  0  0  0  0  0  0
  149.9383  131.8880  154.8955 C   0  0  0  0  0  0  0  0  0  0  0  0
  149.7646  130.7217  154.5399 O   0  0  0  0  0  0  0  0  0  0  0  0
  146.5034  137.5402  152.5407 N   0  3  0  0  0  0  0  0  0  0  0  0
  146.5672  138.7951  151.7609 C   0  0  0  0  0  0  0  0  0  0  0  0
  147.1603  139.8225  152.7177 C   0  0  0  0  0  0  0  0  0  0  0  0
  146.5430  139.4400  154.0581 C   0  0  0  0  0  0  0  0  0  0  0  0
  146.2876  137.9296  153.9575 C   0  0  0  0  0  0  0  0  0  0  0  0
  145.2152  135.3681  150.1836 H   0  0  0  0  0  0  0  0  0  0  0  0
  146.8823  135.9014  150.3671 H   0  0  0  0  0  0  0  0  0  0  0  0
  145.6291  137.0425  149.8922 H   0  0  0  0  0  0  0  0  0  0  0  0
  144.5569  136.9021  152.0790 H   0  0  0  0  0  0  0  0  0  0  0  0
  145.4372  135.4501  153.9210 H   0  0  0  0  0  0  0  0  0  0  0  0
  144.7869  134.5435  152.5971 H   0  0  0  0  0  0  0  0  0  0  0  0
  147.6783  135.0276  152.4517 H   0  0  0  0  0  0  0  0  0  0  0  0
  148.4934  131.6603  152.7934 H   0  0  0  0  0  0  0  0  0  0  0  0
  149.0015  133.1925  152.1623 H   0  0  0  0  0  0  0  0  0  0  0  0
  149.1086  135.0253  154.0102 H   0  0  0  0  0  0  0  0  0  0  0  0
  150.4882  135.6201  155.9864 H   0  0  0  0  0  0  0  0  0  0  0  0
  151.5483  133.7349  157.3090 H   0  0  0  0  0  0  0  0  0  0  0  0
  151.2142  131.4403  156.6369 H   0  0  0  0  0  0  0  0  0  0  0  0
  147.1670  138.6844  150.8571 H   0  0  0  0  0  0  0  0  0  0  0  0
  145.5608  139.1010  151.4696 H   0  0  0  0  0  0  0  0  0  0  0  0
  148.2442  139.7063  152.7610 H   0  0  0  0  0  0  0  0  0  0  0  0
  146.9422  140.8506  152.4264 H   0  0  0  0  0  0  0  0  0  0  0  0
  147.1837  139.7021  154.9007 H   0  0  0  0  0  0  0  0  0  0  0  0
  145.5951  139.9642  154.1880 H   0  0  0  0  0  0  0  0  0  0  0  0
  145.2716  137.7071  154.2869 H   0  0  0  0  0  0  0  0  0  0  0  0
  146.9726  137.3672  154.5929 H   0  0  0  0  0  0  0  0  0  0  0  0
  147.4327  137.1463  152.4989 H   0  0  0  0  0  0  0  0  0  0  0  0
  1  2  1  0  0  0  0
  1 20  1  0  0  0  0
  1 21  1  0  0  0  0
  1 22  1  0  0  0  0
  2  3  1  0  0  0  0
  2 15  1  0  0  0  0
  2 23  1  0  0  0  0
  3  4  1  0  0  0  0
  3 24  1  0  0  0  0
  3 25  1  0  0  0  0
  4  5  1  0  0  0  0
  4 26  1  0  0  0  0
  5  6  2  0  0  0  0
  5  7  1  0  0  0  0
  7  8  1  0  0  0  0
  7 27  1  0  0  0  0
  7 28  1  0  0  0  0
  8 13  1  0  0  0  0
  8  9  1  0  0  0  0
  9 10  2  0  0  0  0
  9 29  1  0  0  0  0
 10 11  1  0  0  0  0
 10 30  1  0  0  0  0
 11 12  2  0  0  0  0
 11 31  1  0  0  0  0
 12 13  1  0  0  0  0
 12 32  1  0  0  0  0
 13 14  2  0  0  0  0
 15 19  1  0  0  0  0
 15 16  1  0  0  0  0
 15 41  1  0  0  0  0
 16 17  1  0  0  0  0
 16 33  1  0  0  0  0
 16 34  1  0  0  0  0
 17 18  1  0  0  0  0
 17 35  1  0  0  0  0
 17 36  1  0  0  0  0
 18 19  1  0  0  0  0
 18 37  1  0  0  0  0
 18 38  1  0  0  0  0
 19 39  1  0  0  0  0
 19 40  1  0  0  0  0
M  CHG  1  15   1
M  END
> <s_m_source_file>
AV-unprocessed.smi

> <i_m_source_file_index>
1469

> <i_lp_mmshare_version>
43012

> <i_f3d_flags>
0

> <s_epik_input>
W0NIMl0xW0NIMl1bQ0gyXVtDSDJdTjFbQ0BIXShbQ0gzXSlbQ0gyXVtOSF1DKD1PKVtDSDJdbjJbY0hdW2NIXVtjSF1bY0hdYzI9Tw==

> <s_epik_cmdline>
J2VwaWtfcHl0aG9uJywgJy1waCcsICc3LjAnLCAnLXRuJywgJzgnLCAnLW1hJywgJzIwMCcsICctbWV0YWxfYmluZGluZycsICctaW1hZScsICc8aW5maWxlLm1hZT4nLCAnLW9tYWUnLCAnPG91dGZpbGUubWFlPic=

> <r_lp_tautomer_probability>
1

> <r_epik_Ionization_Penalty>
0.00497231

> <r_epik_Ionization_Penalty_Charging>
0.00497223

> <r_epik_Ionization_Penalty_Neutral>
8.2288e-08

> <r_epik_State_Penalty>
0.0036131

> <r_epik_Charging_Adjusted_Penalty>
0.00858533

> <i_epik_Tot_Q>
1

> <i_epik_Tot_abs_Q>
1

> <r_epik_Metal_State_Penalty>
-0

> <b_epik_Metal_Only>
0

> <s_lp_Force_Field>
OPLS_2005

> <r_lp_Energy>
47.1466

> <b_lp_Chiralities_Consistent>
1

> <s_lp_Variant>
AV-unprocessed.smi:1469-2

> <Gold.Version>
5.8.1

> <Gold.Id.Protein>
6NUR|6NUR_protein|mol2

> <Gold.PLP.Fitness>
43.1589

> <Gold.PLP.PLP>
-32.0726

> <Gold.PLP.part.hbond>
-2.0000

> <Gold.PLP.part.metal>
0.0000

> <Gold.PLP.part.buried>
-1.1560

> <Gold.PLP.part.nonpolar>
-29.5685

> <Gold.PLP.part.repulsive>
0.2269

> <Gold.PLP.ligand.clash>
0.0000

> <Gold.PLP.ligand.torsion>
0.4945

> <Gold.PLP.Chemscore.Hbond>
3.0000

> <Gold.PLP.Chemscore.CHOScore>
1.0000

> <Gold.PLP.Chemscore.Metal>
0.0000

> <Gold.Chemscore.Hbonds>
donor molecule, donor type, donor heavy atom, donor atom, acceptor molecule, acceptor atom, score
      L1  H     4    26       P1  7948  1.00
      L1  H    15    41       P1  7948  2.00
      L1  C     9    29       P1  7948  1.00

> <Gold.PLP.Chemscore.Internal.Correction>
0.0753

> <Gold.Rescore>
     Score         DG    S(hbond)    S(metal)    S(lipo)     H(rot)  DE(clash)    DE(int)     intcor
     14.40     -15.38       1.95        0.00      70.30       1.89       0.47       0.51       ----

> <Gold.Chemscore.Fitness>
14.3989

> <Gold.Chemscore.DG>
-15.3769

> <Gold.Chemscore.ZeroCoef>
-5.4800

> <Gold.Chemscore.Hbond>
1.9478

> <Gold.Chemscore.Metal>
0.0000

> <Gold.Chemscore.Lipo>
70.2992

> <Gold.Chemscore.Internal_Hbond>
0.0000

> <Gold.Chemscore.DEClash>
0.4660

> <Gold.Chemscore.DEInternal>
0.5121

> <Gold.Chemscore.Rot>
1.8882

> <Gold.Chemscore.Internal.Correction>
   9.000000E+99

> <Gold.Chemscore.Hbonds>
donor molecule, donor type, donor heavy atom, donor atom, acceptor molecule, acceptor atom, score
      L1  H     4    26       P1  7948  0.97
      L1  H    15    41       P1  7948  1.00

> <Gold.Chemscore.Hbond.Weighted>
-6.5057

> <Gold.Chemscore.Metal.Weighted>
-0.0000

> <Gold.Chemscore.Lipo.Weighted>
-8.2250

> <Gold.Chemscore.Internal_Hbond.Weighted>
0.0000

> <Gold.Chemscore.DEClash.Weighted>
0.4660

> <Gold.Chemscore.DEInternal.Weighted>
0.5121

> <Gold.Chemscore.Rot.Weighted>
4.8338

> <Gold.Chemscore.Internal.Correction.Weighted>
   9.000000E+99

> <Gold.Protein.RotatedTorsions>
[ 6907 6896 6895 6894 ] final  -23.96 input  -60.11 | X-H torsion
[ 7974 7965 7964 7962 ] final   58.06 input  175.53 | X-H torsion
[ 8008 7997 7996 7995 ] final  -33.29 input   59.86 | X-H torsion
[ 10167 10162 10161 10158 ] final   44.40 input  -65.29 | X-H torsion
[ 10718 10713 10712 10709 ] final  120.24 input   66.30 | X-H torsion
[ 10763 10752 10751 10750 ] final  -49.41 input  -60.55 | X-H torsion
[ 11005 11000 10999 10996 ] final   80.36 input  -57.11 | X-H torsion

> <Gold.Protein.ActiveResidues>
 VAL166  LYS551  ARG553  GLY616  TRP617  ASP618  TYR619  PRO620  LYS621  CYS622 
 ASP623  PHE694  ASN695  SER759  ASP760  ASP761  ALA762  ILE779  LEU786  VAL792 
 PHE793  MET794  SER795  GLU796  ALA797  LYS798  CYS799  TRP800  GLU811  SER814 

> <Gold.Protein.RotatedAtoms>
  151.1965  135.0424  159.8853 H   0  0  0  0  0  0  0  0  0  0  0  0  # atno 6907 bound_to 6896
  152.5436  134.0898  159.8282 H   0  0  0  0  0  0  0  0  0  0  0  0  # atno 6908 bound_to 6896
  151.1033  133.5180  159.2641 H   0  0  0  0  0  0  0  0  0  0  0  0  # atno 6909 bound_to 6896
  145.9223  139.3739  143.0471 H   0  0  0  0  0  0  0  0  0  0  0  0  # atno 7974 bound_to 7965
  154.4153  140.1714  156.1865 H   0  0  0  0  0  0  0  0  0  0  0  0  # atno 8008 bound_to 7997
  155.9639  140.3391  155.6491 H   0  0  0  0  0  0  0  0  0  0  0  0  # atno 8009 bound_to 7997
  155.6713  140.0712  157.2510 H   0  0  0  0  0  0  0  0  0  0  0  0  # atno 8010 bound_to 7997
  140.3346  144.2546  150.6163 H   0  0  0  0  0  0  0  0  0  0  0  0  # atno 10167 bound_to 10162
  157.5904  131.1065  150.8008 H   0  0  0  0  0  0  0  0  0  0  0  0  # atno 10718 bound_to 10713
  154.0936  135.6574  153.4856 H   0  0  0  0  0  0  0  0  0  0  0  0  # atno 10763 bound_to 10752
  153.0313  135.5208  154.7356 H   0  0  0  0  0  0  0  0  0  0  0  0  # atno 10764 bound_to 10752
  154.6487  135.2998  154.9983 H   0  0  0  0  0  0  0  0  0  0  0  0  # atno 10765 bound_to 10752
  139.9137  134.7914  156.1899 H   0  0  0  0  0  0  0  0  0  0  0  0  # atno 11005 bound_to 11000
  145.8534  140.9516  143.0738 LP  0  0  0  0  0  0  0  0  0  0  0  0  # atno 17320 bound_to 7965
  144.6754  140.0436  143.7480 LP  0  0  0  0  0  0  0  0  0  0  0  0  # atno 17321 bound_to 7965
  140.5365  143.2232  151.8154 LP  0  0  0  0  0  0  0  0  0  0  0  0  # atno 17342 bound_to 10162
  139.4850  144.4654  151.9490 LP  0  0  0  0  0  0  0  0  0  0  0  0  # atno 17343 bound_to 10162
  156.8432  130.5055  149.5319 LP  0  0  0  0  0  0  0  0  0  0  0  0  # atno 17370 bound_to 10713
  156.0959  130.5931  150.9812 LP  0  0  0  0  0  0  0  0  0  0  0  0  # atno 17371 bound_to 10713
  141.0590  133.6851  156.1916 LP  0  0  0  0  0  0  0  0  0  0  0  0  # atno 17394 bound_to 11000
  140.6691  134.4887  157.5586 LP  0  0  0  0  0  0  0  0  0  0  0  0  # atno 17395 bound_to 11000

$$$$
