AV-unprocessed.smi:767|AV-procd|sdf|3666|dock1
  -GOLD-   22720 1 73D 1   1.00000     0.00000
 Structure written by MMmdl.
 48 50  0  0  0  0  0  0  0  0  2 V2000
  151.1511  143.5348  159.2294 C   0  0  0  0  0  0  0  0  0  0  0  0
  151.2246  142.4007  158.2290 C   0  0  0  0  0  0  0  0  0  0  0  0
  151.8926  141.1893  158.5092 C   0  0  0  0  0  0  0  0  0  0  0  0
  151.9241  140.1771  157.5273 C   0  0  0  0  0  0  0  0  0  0  0  0
  151.2868  140.3961  156.2863 C   0  0  0  0  0  0  0  0  0  0  0  0
  151.3141  139.3318  155.2074 C   0  0  0  0  0  0  0  0  0  0  0  0
  149.9203  139.0854  154.6078 C   0  0  0  0  0  0  0  0  0  0  0  0
  149.7281  137.6851  154.2508 N   0  0  0  0  0  0  0  0  0  0  0  0
  150.1307  136.6454  154.9940 C   0  0  0  0  0  0  0  0  0  0  0  0
  150.6992  136.7543  156.0807 O   0  0  0  0  0  0  0  0  0  0  0  0
  149.8487  135.4744  154.4086 N   0  0  0  0  0  0  0  0  0  0  0  0
  150.1847  134.1640  154.9748 C   0  0  1  0  0  0  0  0  0  0  0  0
  149.5977  133.9552  156.3734 C   0  0  1  0  0  0  0  0  0  0  0  0
  149.0478  134.8312  157.4402 C   0  0  0  0  0  0  0  0  0  0  0  0
  147.8452  133.9293  157.8305 C   0  0  0  0  0  0  0  0  0  0  0  0
  147.7747  132.8955  156.8148 O   0  0  0  0  0  0  0  0  0  0  0  0
  148.3344  133.5062  155.6690 C   0  0  2  0  0  0  0  0  0  0  0  0
  149.2423  132.9724  154.5385 C   0  0  0  0  0  0  0  0  0  0  0  0
  148.6412  133.0342  153.1297 C   0  0  0  0  0  0  0  0  0  0  0  0
  149.7969  131.5450  154.6948 C   0  0  0  0  0  0  0  0  0  0  0  0
  150.6330  141.6266  156.0628 C   0  0  0  0  0  0  0  0  0  0  0  0
  150.6259  142.5712  157.0287 N   0  3  0  0  0  0  0  0  0  0  0  0
  151.6473  143.2683  160.1629 H   0  0  0  0  0  0  0  0  0  0  0  0
  150.1120  143.7774  159.4538 H   0  0  0  0  0  0  0  0  0  0  0  0
  151.6351  144.4264  158.8294 H   0  0  0  0  0  0  0  0  0  0  0  0
  152.3774  141.0348  159.4622 H   0  0  0  0  0  0  0  0  0  0  0  0
  152.4347  139.2458  157.7256 H   0  0  0  0  0  0  0  0  0  0  0  0
  152.0141  139.6376  154.4286 H   0  0  0  0  0  0  0  0  0  0  0  0
  151.7100  138.4070  155.6296 H   0  0  0  0  0  0  0  0  0  0  0  0
  149.1500  139.3592  155.3294 H   0  0  0  0  0  0  0  0  0  0  0  0
  149.7633  139.7175  153.7317 H   0  0  0  0  0  0  0  0  0  0  0  0
  149.2699  137.4947  153.3714 H   0  0  0  0  0  0  0  0  0  0  0  0
  149.3807  135.4824  153.5143 H   0  0  0  0  0  0  0  0  0  0  0  0
  151.2466  133.9178  154.9225 H   0  0  0  0  0  0  0  0  0  0  0  0
  150.1331  133.1290  156.8477 H   0  0  0  0  0  0  0  0  0  0  0  0
  149.7434  134.9837  158.2657 H   0  0  0  0  0  0  0  0  0  0  0  0
  148.7259  135.8003  157.0563 H   0  0  0  0  0  0  0  0  0  0  0  0
  147.9814  133.4696  158.8096 H   0  0  0  0  0  0  0  0  0  0  0  0
  146.9188  134.5046  157.8529 H   0  0  0  0  0  0  0  0  0  0  0  0
  147.6970  134.3289  155.3285 H   0  0  0  0  0  0  0  0  0  0  0  0
  147.9356  132.2207  152.9578 H   0  0  0  0  0  0  0  0  0  0  0  0
  149.4147  132.9679  152.3639 H   0  0  0  0  0  0  0  0  0  0  0  0
  148.0958  133.9621  152.9576 H   0  0  0  0  0  0  0  0  0  0  0  0
  148.9960  130.8057  154.6657 H   0  0  0  0  0  0  0  0  0  0  0  0
  150.3359  131.3867  155.6274 H   0  0  0  0  0  0  0  0  0  0  0  0
  150.4929  131.3024  153.8912 H   0  0  0  0  0  0  0  0  0  0  0  0
  150.1230  141.8847  155.1460 H   0  0  0  0  0  0  0  0  0  0  0  0
  150.1488  143.4537  156.8429 H   0  0  0  0  0  0  0  0  0  0  0  0
  1  2  1  0  0  0  0
  1 23  1  0  0  0  0
  1 24  1  0  0  0  0
  1 25  1  0  0  0  0
  2 22  1  0  0  0  0
  2  3  2  0  0  0  0
  3  4  1  0  0  0  0
  3 26  1  0  0  0  0
  4  5  2  0  0  0  0
  4 27  1  0  0  0  0
  5  6  1  0  0  0  0
  5 21  1  0  0  0  0
  6  7  1  0  0  0  0
  6 28  1  0  0  0  0
  6 29  1  0  0  0  0
  7  8  1  0  0  0  0
  7 30  1  0  0  0  0
  7 31  1  0  0  0  0
  8  9  1  0  0  0  0
  8 32  1  0  0  0  0
  9 10  2  0  0  0  0
  9 11  1  0  0  0  0
 11 12  1  0  0  0  0
 11 33  1  0  0  0  0
 12 18  1  0  0  0  0
 12 13  1  0  0  0  0
 12 34  1  0  0  0  0
 13 17  1  0  0  0  0
 13 14  1  0  0  0  0
 13 35  1  0  0  0  0
 14 15  1  0  0  0  0
 14 36  1  0  0  0  0
 14 37  1  0  0  0  0
 15 16  1  0  0  0  0
 15 38  1  0  0  0  0
 15 39  1  0  0  0  0
 16 17  1  0  0  0  0
 17 18  1  0  0  0  0
 17 40  1  0  0  0  0
 18 19  1  0  0  0  0
 18 20  1  0  0  0  0
 19 41  1  0  0  0  0
 19 42  1  0  0  0  0
 19 43  1  0  0  0  0
 20 44  1  0  0  0  0
 20 45  1  0  0  0  0
 20 46  1  0  0  0  0
 21 22  2  0  0  0  0
 21 47  1  0  0  0  0
 22 48  1  0  0  0  0
M  CHG  1  22   1
M  END
> <s_m_source_file>
AV-unprocessed.smi

> <i_m_source_file_index>
767

> <i_lp_mmshare_version>
43012

> <i_f3d_flags>
0

> <s_epik_input>
W0NIM11jMVtjSF1bY0hdYyhbY0hdbjEpW0NIMl1bQ0gyXVtOSF1DKD1PKVtOSF1bQ0BIXTJDKFtDSDNdKShbQ0gzXSlbQ0BIXShbQ0BASF0yMylPW0NIMl1bQ0gyXTM=

> <s_epik_cmdline>
J2VwaWtfcHl0aG9uJywgJy1waCcsICc3LjAnLCAnLXRuJywgJzgnLCAnLW1hJywgJzIwMCcsICctbWV0YWxfYmluZGluZycsICctaW1hZScsICc8aW5maWxlLm1hZT4nLCAnLW9tYWUnLCAnPG91dGZpbGUubWFlPic=

> <r_epik_Ionization_Penalty>
1.41853

> <r_epik_Ionization_Penalty_Charging>
1.41848

> <r_epik_Ionization_Penalty_Neutral>
5.17407e-05

> <r_epik_State_Penalty>
1.50205

> <r_epik_Charging_Adjusted_Penalty>
2.92053

> <i_epik_Tot_Q>
1

> <i_epik_Tot_abs_Q>
1

> <r_epik_Metal_State_Penalty>
1.5544

> <b_epik_Metal_Only>
0

> <s_lp_Force_Field>
OPLS_2005

> <r_lp_Energy>
64.9812

> <b_lp_Chiralities_Consistent>
1

> <s_lp_Variant>
AV-unprocessed.smi:767-10

> <Gold.Version>
5.8.1

> <Gold.Id.Protein>
6NUR|6NUR_protein|mol2

> <Gold.PLP.Fitness>
47.9498

> <Gold.PLP.PLP>
-37.0831

> <Gold.PLP.part.hbond>
-3.3866

> <Gold.PLP.part.metal>
0.0000

> <Gold.PLP.part.buried>
-4.3387

> <Gold.PLP.part.nonpolar>
-30.1894

> <Gold.PLP.part.repulsive>
0.1545

> <Gold.PLP.ligand.clash>
0.0000

> <Gold.PLP.ligand.torsion>
0.6825

> <Gold.PLP.Chemscore.Hbond>
3.9760

> <Gold.PLP.Chemscore.CHOScore>
0.0000

> <Gold.PLP.Chemscore.Metal>
0.0000

> <Gold.Chemscore.Hbonds>
donor molecule, donor type, donor heavy atom, donor atom, acceptor molecule, acceptor atom, score
      L1  H     8    32       P1  7948  0.96
      L1  H    11    33       P1  7948  1.00
      L1  H    22    48       P1  8028  1.46

> <Gold.PLP.Chemscore.Internal.Correction>
0.3037

> <Gold.Rescore>
     Score         DG    S(hbond)    S(metal)    S(lipo)     H(rot)  DE(clash)    DE(int)     intcor
     18.47     -20.71       2.38        0.00      95.56       1.52       0.21       2.03       ----

> <Gold.Chemscore.Fitness>
18.4667

> <Gold.Chemscore.DG>
-20.7074

> <Gold.Chemscore.ZeroCoef>
-5.4800

> <Gold.Chemscore.Hbond>
2.3790

> <Gold.Chemscore.Metal>
0.0000

> <Gold.Chemscore.Lipo>
95.5635

> <Gold.Chemscore.Internal_Hbond>
0.0000

> <Gold.Chemscore.DEClash>
0.2058

> <Gold.Chemscore.DEInternal>
2.0349

> <Gold.Chemscore.Rot>
1.5233

> <Gold.Chemscore.Internal.Correction>
   9.000000E+99

> <Gold.Chemscore.Hbonds>
donor molecule, donor type, donor heavy atom, donor atom, acceptor molecule, acceptor atom, score
      L1  H     8    32       P1  7948  0.89
      L1  H    11    33       P1  7948  0.25
      L1  H    22    48       P1  8028  0.71

> <Gold.Chemscore.Hbond.Weighted>
-7.9460

> <Gold.Chemscore.Metal.Weighted>
-0.0000

> <Gold.Chemscore.Lipo.Weighted>
-11.1809

> <Gold.Chemscore.Internal_Hbond.Weighted>
0.0000

> <Gold.Chemscore.DEClash.Weighted>
0.2058

> <Gold.Chemscore.DEInternal.Weighted>
2.0349

> <Gold.Chemscore.Rot.Weighted>
3.8995

> <Gold.Chemscore.Internal.Correction.Weighted>
   9.000000E+99

> <Gold.Protein.RotatedTorsions>
[ 6907 6896 6895 6894 ] final   76.65 input  -60.11 | X-H torsion
[ 7974 7965 7964 7962 ] final  -92.60 input  175.53 | X-H torsion
[ 8008 7997 7996 7995 ] final   65.16 input   59.86 | X-H torsion
[ 10167 10162 10161 10158 ] final -148.55 input  -65.29 | X-H torsion
[ 10718 10713 10712 10709 ] final -117.20 input   66.30 | X-H torsion
[ 10763 10752 10751 10750 ] final -155.23 input  -60.55 | X-H torsion
[ 11005 11000 10999 10996 ] final   37.44 input  -57.11 | X-H torsion

> <Gold.Protein.ActiveResidues>
 VAL166  LYS551  ARG553  GLY616  TRP617  ASP618  TYR619  PRO620  LYS621  CYS622 
 ASP623  PHE694  ASN695  SER759  ASP760  ASP761  ALA762  ILE779  LEU786  VAL792 
 PHE793  MET794  SER795  GLU796  ALA797  LYS798  CYS799  TRP800  GLU811  SER814 

> <Gold.Protein.RotatedAtoms>
  152.5083  134.3936  159.9392 H   0  0  0  0  0  0  0  0  0  0  0  0  # atno 6907 bound_to 6896
  151.3897  133.3786  159.2727 H   0  0  0  0  0  0  0  0  0  0  0  0  # atno 6908 bound_to 6896
  150.9442  134.8869  159.7690 H   0  0  0  0  0  0  0  0  0  0  0  0  # atno 6909 bound_to 6896
  145.3977  140.9534  143.2305 H   0  0  0  0  0  0  0  0  0  0  0  0  # atno 7974 bound_to 7965
  155.6573  140.3497  155.4770 H   0  0  0  0  0  0  0  0  0  0  0  0  # atno 8008 bound_to 7997
  155.9798  140.1172  157.0760 H   0  0  0  0  0  0  0  0  0  0  0  0  # atno 8009 bound_to 7997
  154.4188  140.1140  156.5405 H   0  0  0  0  0  0  0  0  0  0  0  0  # atno 8010 bound_to 7997
  139.7522  143.8502  152.2589 H   0  0  0  0  0  0  0  0  0  0  0  0  # atno 10167 bound_to 10162
  156.1017  130.6177  150.9133 H   0  0  0  0  0  0  0  0  0  0  0  0  # atno 10718 bound_to 10713
  154.7802  135.3172  154.8006 H   0  0  0  0  0  0  0  0  0  0  0  0  # atno 10763 bound_to 10752
  153.8720  135.6843  153.4778 H   0  0  0  0  0  0  0  0  0  0  0  0  # atno 10764 bound_to 10752
  153.1436  135.4728  154.9470 H   0  0  0  0  0  0  0  0  0  0  0  0  # atno 10765 bound_to 10752
  140.2225  134.3624  155.7998 H   0  0  0  0  0  0  0  0  0  0  0  0  # atno 11005 bound_to 11000
  144.8396  139.5494  143.6906 LP  0  0  0  0  0  0  0  0  0  0  0  0  # atno 17320 bound_to 7965
  146.2767  139.6771  142.9258 LP  0  0  0  0  0  0  0  0  0  0  0  0  # atno 17321 bound_to 7965
  139.8483  144.7177  150.9245 LP  0  0  0  0  0  0  0  0  0  0  0  0  # atno 17342 bound_to 10162
  140.7799  143.3921  151.1291 LP  0  0  0  0  0  0  0  0  0  0  0  0  # atno 17343 bound_to 10162
  157.6188  131.0931  150.8661 LP  0  0  0  0  0  0  0  0  0  0  0  0  # atno 17370 bound_to 10713
  156.8788  130.5172  149.5292 LP  0  0  0  0  0  0  0  0  0  0  0  0  # atno 17371 bound_to 10713
  141.2222  133.7201  156.8599 LP  0  0  0  0  0  0  0  0  0  0  0  0  # atno 17394 bound_to 11000
  140.1834  134.9017  157.2976 LP  0  0  0  0  0  0  0  0  0  0  0  0  # atno 17395 bound_to 11000

$$$$
