AV-unprocessed.smi:2252|AV-procd|sdf|9105|dock3
  -GOLD-   2272012303D 1   1.00000     0.00000
 Structure written by MMmdl.
 45 47  0  0  0  0  0  0  0  0  2 V2000
  153.0408  142.2919  160.2050 C   0  0  0  0  0  0  0  0  0  0  0  0
  152.2518  143.1940  159.3884 N   0  0  0  0  0  0  0  0  0  0  0  0
  152.1957  144.5752  159.5201 C   0  0  0  0  0  0  0  0  0  0  0  0
  151.3375  145.0294  158.5479 C   0  0  0  0  0  0  0  0  0  0  0  0
  150.8597  143.9493  157.8137 N   0  0  0  0  0  0  0  0  0  0  0  0
  151.4340  142.8839  158.3639 C   0  0  0  0  0  0  0  0  0  0  0  0
  151.2204  141.4848  157.8767 C   0  0  0  0  0  0  0  0  0  0  0  0
  150.3115  141.4294  156.6374 C   0  0  0  0  0  0  0  0  0  0  0  0
  149.7671  140.0937  156.4242 N   0  0  0  0  0  0  0  0  0  0  0  0
  149.9910  139.3353  155.3399 C   0  0  0  0  0  0  0  0  0  0  0  0
  150.6983  139.6944  154.3981 O   0  0  0  0  0  0  0  0  0  0  0  0
  149.3251  137.9514  155.3170 C   0  0  2  0  0  0  0  0  0  0  0  0
  150.4285  136.8721  155.3349 C   0  0  0  0  0  0  0  0  0  0  0  0
  151.7609  137.1224  156.0076 C   0  0  0  0  0  0  0  0  0  0  0  0
  151.6848  137.0325  154.5051 C   0  0  0  0  0  0  0  0  0  0  0  0
  148.4269  137.7946  154.1376 N   0  3  0  0  0  0  0  0  0  0  0  0
  147.3102  136.8422  154.3158 C   0  0  0  0  0  0  0  0  0  0  0  0
  146.2746  137.1930  153.2426 C   0  0  0  0  0  0  0  0  0  0  0  0
  146.6341  138.6045  152.7683 C   0  0  0  0  0  0  0  0  0  0  0  0
  147.7999  139.0445  153.6550 C   0  0  0  0  0  0  0  0  0  0  0  0
  153.6849  142.8588  160.8777 H   0  0  0  0  0  0  0  0  0  0  0  0
  153.6638  141.6626  159.5689 H   0  0  0  0  0  0  0  0  0  0  0  0
  152.3797  141.6607  160.7994 H   0  0  0  0  0  0  0  0  0  0  0  0
  152.7575  145.1075  160.2734 H   0  0  0  0  0  0  0  0  0  0  0  0
  151.0305  146.0397  158.3214 H   0  0  0  0  0  0  0  0  0  0  0  0
  152.1827  141.0192  157.6630 H   0  0  0  0  0  0  0  0  0  0  0  0
  150.7805  140.9078  158.6911 H   0  0  0  0  0  0  0  0  0  0  0  0
  149.4990  142.1530  156.7250 H   0  0  0  0  0  0  0  0  0  0  0  0
  150.8791  141.7067  155.7487 H   0  0  0  0  0  0  0  0  0  0  0  0
  149.1833  139.7181  157.1578 H   0  0  0  0  0  0  0  0  0  0  0  0
  148.7172  137.8459  156.2180 H   0  0  0  0  0  0  0  0  0  0  0  0
  150.0442  135.8553  155.4006 H   0  0  0  0  0  0  0  0  0  0  0  0
  151.9376  138.1048  156.4410 H   0  0  0  0  0  0  0  0  0  0  0  0
  152.2166  136.2899  156.5398 H   0  0  0  0  0  0  0  0  0  0  0  0
  152.0926  136.1408  154.0333 H   0  0  0  0  0  0  0  0  0  0  0  0
  151.8107  137.9556  153.9425 H   0  0  0  0  0  0  0  0  0  0  0  0
  147.6445  135.8070  154.2399 H   0  0  0  0  0  0  0  0  0  0  0  0
  146.8678  136.9821  155.3034 H   0  0  0  0  0  0  0  0  0  0  0  0
  146.3333  136.4928  152.4085 H   0  0  0  0  0  0  0  0  0  0  0  0
  145.2610  137.1429  153.6425 H   0  0  0  0  0  0  0  0  0  0  0  0
  146.9501  138.5726  151.7249 H   0  0  0  0  0  0  0  0  0  0  0  0
  145.7910  139.2930  152.8356 H   0  0  0  0  0  0  0  0  0  0  0  0
  147.4174  139.6125  154.5048 H   0  0  0  0  0  0  0  0  0  0  0  0
  148.5047  139.6793  153.1167 H   0  0  0  0  0  0  0  0  0  0  0  0
  148.9887  137.4413  153.3758 H   0  0  0  0  0  0  0  0  0  0  0  0
  1  2  1  0  0  0  0
  1 21  1  0  0  0  0
  1 22  1  0  0  0  0
  1 23  1  0  0  0  0
  2  6  1  0  0  0  0
  2  3  1  0  0  0  0
  3  4  2  0  0  0  0
  3 24  1  0  0  0  0
  4  5  1  0  0  0  0
  4 25  1  0  0  0  0
  5  6  2  0  0  0  0
  6  7  1  0  0  0  0
  7  8  1  0  0  0  0
  7 26  1  0  0  0  0
  7 27  1  0  0  0  0
  8  9  1  0  0  0  0
  8 28  1  0  0  0  0
  8 29  1  0  0  0  0
  9 10  1  0  0  0  0
  9 30  1  0  0  0  0
 10 11  2  0  0  0  0
 10 12  1  0  0  0  0
 12 13  1  0  0  0  0
 12 16  1  0  0  0  0
 12 31  1  0  0  0  0
 13 15  1  0  0  0  0
 13 14  1  0  0  0  0
 13 32  1  0  0  0  0
 14 15  1  0  0  0  0
 14 33  1  0  0  0  0
 14 34  1  0  0  0  0
 15 35  1  0  0  0  0
 15 36  1  0  0  0  0
 16 20  1  0  0  0  0
 16 17  1  0  0  0  0
 16 45  1  0  0  0  0
 17 18  1  0  0  0  0
 17 37  1  0  0  0  0
 17 38  1  0  0  0  0
 18 19  1  0  0  0  0
 18 39  1  0  0  0  0
 18 40  1  0  0  0  0
 19 20  1  0  0  0  0
 19 41  1  0  0  0  0
 19 42  1  0  0  0  0
 20 43  1  0  0  0  0
 20 44  1  0  0  0  0
M  CHG  1  16   1
M  END
> <s_m_source_file>
AV-unprocessed.smi

> <i_m_source_file_index>
2252

> <i_lp_mmshare_version>
43012

> <i_f3d_flags>
0

> <s_epik_input>
W0NIM11uMVtjSF1bY0hdbmMxW0NIMl1bQ0gyXVtOSF1DKD1PKVtDQEhdKFtDSF0yW0NIMl1bQ0gyXTIpTjNbQ0gyXVtDSDJdW0NIMl1bQ0gyXTM=

> <s_epik_cmdline>
J2VwaWtfcHl0aG9uJywgJy1waCcsICc3LjAnLCAnLXRuJywgJzgnLCAnLW1hJywgJzIwMCcsICctbWV0YWxfYmluZGluZycsICctaW1hZScsICc8aW5maWxlLm1hZT4nLCAnLW9tYWUnLCAnPG91dGZpbGUubWFlPic=

> <r_lp_tautomer_probability>
1

> <r_epik_Ionization_Penalty>
1.07437

> <r_epik_Ionization_Penalty_Charging>
1.07435

> <r_epik_Ionization_Penalty_Neutral>
2.35578e-05

> <r_epik_State_Penalty>
1.18204

> <r_epik_Charging_Adjusted_Penalty>
2.25639

> <i_epik_Tot_Q>
1

> <i_epik_Tot_abs_Q>
1

> <r_epik_Metal_State_Penalty>
0.433434

> <b_epik_Metal_Only>
0

> <s_lp_Force_Field>
OPLS_2005

> <r_lp_Energy>
33.5931

> <b_lp_Chiralities_Consistent>
1

> <s_lp_Variant>
AV-unprocessed.smi:2252-3

> <Gold.Version>
5.8.1

> <Gold.Id.Protein>
6NUR|6NUR_protein|mol2

> <Gold.PLP.Fitness>
43.4813

> <Gold.PLP.PLP>
-36.0087

> <Gold.PLP.part.hbond>
-2.0000

> <Gold.PLP.part.metal>
0.0000

> <Gold.PLP.part.buried>
-0.9995

> <Gold.PLP.part.nonpolar>
-33.9110

> <Gold.PLP.part.repulsive>
0.3137

> <Gold.PLP.ligand.clash>
0.0000

> <Gold.PLP.ligand.torsion>
1.3120

> <Gold.PLP.Chemscore.Hbond>
2.9840

> <Gold.PLP.Chemscore.CHOScore>
0.0000

> <Gold.PLP.Chemscore.Metal>
0.0000

> <Gold.Chemscore.Hbonds>
donor molecule, donor type, donor heavy atom, donor atom, acceptor molecule, acceptor atom, score
      L1  H    16    45       P1  7948  1.76
      P1  H  7989  7998       L1    11  1.00

> <Gold.PLP.Chemscore.Internal.Correction>
1.1446

> <Gold.Rescore>
     Score         DG    S(hbond)    S(metal)    S(lipo)     H(rot)  DE(clash)    DE(int)     intcor
     14.28     -17.37       1.90        0.00      90.02       1.95       0.40       2.70       ----

> <Gold.Chemscore.Fitness>
14.2768

> <Gold.Chemscore.DG>
-17.3722

> <Gold.Chemscore.ZeroCoef>
-5.4800

> <Gold.Chemscore.Hbond>
1.9007

> <Gold.Chemscore.Metal>
0.0000

> <Gold.Chemscore.Lipo>
90.0174

> <Gold.Chemscore.Internal_Hbond>
0.0000

> <Gold.Chemscore.DEClash>
0.3973

> <Gold.Chemscore.DEInternal>
2.6981

> <Gold.Chemscore.Rot>
1.9485

> <Gold.Chemscore.Internal.Correction>
   9.000000E+99

> <Gold.Chemscore.Hbonds>
donor molecule, donor type, donor heavy atom, donor atom, acceptor molecule, acceptor atom, score
      L1  H    16    45       P1  7948  0.86
      P1  H  7989  7998       L1    11  1.00

> <Gold.Chemscore.Hbond.Weighted>
-6.3482

> <Gold.Chemscore.Metal.Weighted>
-0.0000

> <Gold.Chemscore.Lipo.Weighted>
-10.5320

> <Gold.Chemscore.Internal_Hbond.Weighted>
0.0000

> <Gold.Chemscore.DEClash.Weighted>
0.3973

> <Gold.Chemscore.DEInternal.Weighted>
2.6981

> <Gold.Chemscore.Rot.Weighted>
4.9881

> <Gold.Chemscore.Internal.Correction.Weighted>
   9.000000E+99

> <Gold.Protein.RotatedTorsions>
[ 6907 6896 6895 6894 ] final -178.09 input  -60.11 | X-H torsion
[ 7974 7965 7964 7962 ] final   33.93 input  175.53 | X-H torsion
[ 8008 7997 7996 7995 ] final -105.43 input   59.86 | X-H torsion
[ 10167 10162 10161 10158 ] final   78.94 input  -65.29 | X-H torsion
[ 10718 10713 10712 10709 ] final  -41.28 input   66.30 | X-H torsion
[ 10763 10752 10751 10750 ] final  -85.55 input  -60.55 | X-H torsion
[ 11005 11000 10999 10996 ] final   99.65 input  -57.11 | X-H torsion

> <Gold.Protein.ActiveResidues>
 VAL166  LYS551  ARG553  GLY616  TRP617  ASP618  TYR619  PRO620  LYS621  CYS622 
 ASP623  PHE694  ASN695  SER759  ASP760  ASP761  ALA762  ILE779  LEU786  VAL792 
 PHE793  MET794  SER795  GLU796  ALA797  LYS798  CYS799  TRP800  GLU811  SER814 

> <Gold.Protein.RotatedAtoms>
  151.6316  133.3331  159.3109 H   0  0  0  0  0  0  0  0  0  0  0  0  # atno 6907 bound_to 6896
  150.8053  134.7178  159.6650 H   0  0  0  0  0  0  0  0  0  0  0  0  # atno 6908 bound_to 6896
  152.4148  134.6065  160.0065 H   0  0  0  0  0  0  0  0  0  0  0  0  # atno 6909 bound_to 6896
  146.1387  139.6333  142.9177 H   0  0  0  0  0  0  0  0  0  0  0  0  # atno 7974 bound_to 7965
  154.8997  140.0413  157.1886 H   0  0  0  0  0  0  0  0  0  0  0  0  # atno 8008 bound_to 7997
  154.8456  140.2921  155.5610 H   0  0  0  0  0  0  0  0  0  0  0  0  # atno 8009 bound_to 7997
  156.2994  140.2474  156.3406 H   0  0  0  0  0  0  0  0  0  0  0  0  # atno 8010 bound_to 7997
  139.9656  144.5930  150.8032 H   0  0  0  0  0  0  0  0  0  0  0  0  # atno 10167 bound_to 10162
  156.2720  130.4208  149.8427 H   0  0  0  0  0  0  0  0  0  0  0  0  # atno 10718 bound_to 10713
  154.6124  135.5481  153.7487 H   0  0  0  0  0  0  0  0  0  0  0  0  # atno 10763 bound_to 10752
  153.0201  135.6392  154.1560 H   0  0  0  0  0  0  0  0  0  0  0  0  # atno 10764 bound_to 10752
  154.1497  135.2903  155.3119 H   0  0  0  0  0  0  0  0  0  0  0  0  # atno 10765 bound_to 10752
  139.8770  134.9105  156.4637 H   0  0  0  0  0  0  0  0  0  0  0  0  # atno 11005 bound_to 11000
  145.5096  141.0436  143.2495 LP  0  0  0  0  0  0  0  0  0  0  0  0  # atno 17320 bound_to 7965
  144.7768  139.6612  143.7171 LP  0  0  0  0  0  0  0  0  0  0  0  0  # atno 17321 bound_to 7965
  140.7539  143.3017  151.3064 LP  0  0  0  0  0  0  0  0  0  0  0  0  # atno 17342 bound_to 10162
  139.6520  144.0344  152.2633 LP  0  0  0  0  0  0  0  0  0  0  0  0  # atno 17343 bound_to 10162
  156.5905  130.8504  151.3407 LP  0  0  0  0  0  0  0  0  0  0  0  0  # atno 17370 bound_to 10713
  157.7287  130.9660  150.1754 LP  0  0  0  0  0  0  0  0  0  0  0  0  # atno 17371 bound_to 10713
  140.8845  133.7893  155.9503 LP  0  0  0  0  0  0  0  0  0  0  0  0  # atno 17394 bound_to 11000
  140.8819  134.2601  157.5140 LP  0  0  0  0  0  0  0  0  0  0  0  0  # atno 17395 bound_to 11000

$$$$
