AV-unprocessed.smi:67|AV-procd|sdf|631|dock9
  -GOLD-   2262016523D 1   1.00000     0.00000
 Structure written by MMmdl.
 49 51  0  0  0  0  0  0  0  0  3 V2000
  147.6239  140.0638  155.6087 O   0  0  0  0  0  0  0  0  0  0  0  0
  148.3804  140.1344  154.4120 C   0  0  1  0  0  0  0  0  0  0  0  0
  149.8321  140.5272  154.7744 C   0  0  0  0  0  0  0  0  0  0  0  0
  150.4144  139.6619  155.8368 N   0  3  2  0  0  0  0  0  0  0  0  0
  150.4174  140.3130  157.1724 C   0  0  0  0  0  0  0  0  0  0  0  0
  150.8849  139.3386  158.2683 C   0  0  0  0  0  0  0  0  0  0  0  0
  152.2673  138.7443  157.9550 C   0  0  2  0  0  0  0  0  0  0  0  0
  153.2206  139.8023  158.0343 O   0  0  0  0  0  0  0  0  0  0  0  0
  153.1965  140.6769  159.1017 C   0  0  0  0  0  0  0  0  0  0  0  0
  153.6687  140.3762  160.4041 C   0  0  0  0  0  0  0  0  0  0  0  0
  153.5937  141.3392  161.4283 C   0  0  0  0  0  0  0  0  0  0  0  0
  153.0499  142.6102  161.1682 C   0  0  0  0  0  0  0  0  0  0  0  0
  152.5790  142.9277  159.8768 C   0  0  0  0  0  0  0  0  0  0  0  0
  151.9799  144.2945  159.5809 C   0  0  0  0  0  0  0  0  0  0  0  0
  152.6120  144.8663  158.5554 F   0  0  0  0  0  0  0  0  0  0  0  0
  150.6933  144.1508  159.2663 F   0  0  0  0  0  0  0  0  0  0  0  0
  152.0756  145.1062  160.6347 F   0  0  0  0  0  0  0  0  0  0  0  0
  152.6516  141.9544  158.8574 C   0  0  0  0  0  0  0  0  0  0  0  0
  152.2430  138.1188  156.5456 C   0  0  0  0  0  0  0  0  0  0  0  0
  151.7575  139.1270  155.4907 C   0  0  0  0  0  0  0  0  0  0  0  0
  148.2292  138.8267  153.6276 C   0  0  0  0  0  0  0  0  0  0  0  0
  146.8756  138.9692  152.9309 C   0  0  0  0  0  0  0  0  0  0  0  0
  146.6983  140.4123  152.6844 N   0  3  0  0  0  0  0  0  0  0  0  0
  147.6985  141.1538  153.4810 C   0  0  0  0  0  0  0  0  0  0  0  0
  146.7710  140.4432  155.4564 H   0  0  0  0  0  0  0  0  0  0  0  0
  150.4695  140.5119  153.8889 H   0  0  0  0  0  0  0  0  0  0  0  0
  149.8257  141.5669  155.1063 H   0  0  0  0  0  0  0  0  0  0  0  0
  151.0607  141.1943  157.1487 H   0  0  0  0  0  0  0  0  0  0  0  0
  149.4118  140.6603  157.4135 H   0  0  0  0  0  0  0  0  0  0  0  0
  150.9074  139.8459  159.2334 H   0  0  0  0  0  0  0  0  0  0  0  0
  150.1579  138.5310  158.3650 H   0  0  0  0  0  0  0  0  0  0  0  0
  152.4748  137.9875  158.7118 H   0  0  0  0  0  0  0  0  0  0  0  0
  154.0935  139.4152  160.6485 H   0  0  0  0  0  0  0  0  0  0  0  0
  153.9534  141.1005  162.4185 H   0  0  0  0  0  0  0  0  0  0  0  0
  152.9946  143.3361  161.9660 H   0  0  0  0  0  0  0  0  0  0  0  0
  152.2828  142.1895  157.8696 H   0  0  0  0  0  0  0  0  0  0  0  0
  153.2267  137.7425  156.2668 H   0  0  0  0  0  0  0  0  0  0  0  0
  151.5794  137.2533  156.5475 H   0  0  0  0  0  0  0  0  0  0  0  0
  151.7305  138.6364  154.5191 H   0  0  0  0  0  0  0  0  0  0  0  0
  152.4685  139.9504  155.4046 H   0  0  0  0  0  0  0  0  0  0  0  0
  149.0092  138.7580  152.8679 H   0  0  0  0  0  0  0  0  0  0  0  0
  148.2915  137.9343  154.2521 H   0  0  0  0  0  0  0  0  0  0  0  0
  146.8155  138.3927  152.0075 H   0  0  0  0  0  0  0  0  0  0  0  0
  146.0761  138.6315  153.5915 H   0  0  0  0  0  0  0  0  0  0  0  0
  146.8407  140.6128  151.7046 H   0  0  0  0  0  0  0  0  0  0  0  0
  147.2464  141.9906  154.0154 H   0  0  0  0  0  0  0  0  0  0  0  0
  148.4236  141.5704  152.7806 H   0  0  0  0  0  0  0  0  0  0  0  0
  145.7635  140.6860  152.9529 H   0  0  0  0  0  0  0  0  0  0  0  0
  149.7941  138.8685  155.9196 H   0  0  0  0  0  0  0  0  0  0  0  0
  1  2  1  0  0  0  0
  1 25  1  0  0  0  0
  2 24  1  0  0  0  0
  2  3  1  0  0  0  0
  2 21  1  0  0  0  0
  3  4  1  0  0  0  0
  3 26  1  0  0  0  0
  3 27  1  0  0  0  0
  4 20  1  0  0  0  0
  4  5  1  0  0  0  0
  4 49  1  0  0  0  0
  5  6  1  0  0  0  0
  5 28  1  0  0  0  0
  5 29  1  0  0  0  0
  6  7  1  0  0  0  0
  6 30  1  0  0  0  0
  6 31  1  0  0  0  0
  7  8  1  0  0  0  0
  7 19  1  0  0  0  0
  7 32  1  0  0  0  0
  8  9  1  0  0  0  0
  9 18  1  0  0  0  0
  9 10  2  0  0  0  0
 10 11  1  0  0  0  0
 10 33  1  0  0  0  0
 11 12  2  0  0  0  0
 11 34  1  0  0  0  0
 12 13  1  0  0  0  0
 12 35  1  0  0  0  0
 13 14  1  0  0  0  0
 13 18  2  0  0  0  0
 14 15  1  0  0  0  0
 14 16  1  0  0  0  0
 14 17  1  0  0  0  0
 18 36  1  0  0  0  0
 19 20  1  0  0  0  0
 19 37  1  0  0  0  0
 19 38  1  0  0  0  0
 20 39  1  0  0  0  0
 20 40  1  0  0  0  0
 21 22  1  0  0  0  0
 21 41  1  0  0  0  0
 21 42  1  0  0  0  0
 22 23  1  0  0  0  0
 22 43  1  0  0  0  0
 22 44  1  0  0  0  0
 23 24  1  0  0  0  0
 23 45  1  0  0  0  0
 23 48  1  0  0  0  0
 24 46  1  0  0  0  0
 24 47  1  0  0  0  0
M  CHG  1   4   1
M  CHG  1  23   1
M  END
> <s_m_source_file>
AV-unprocessed.smi

> <i_m_source_file_index>
67

> <i_lp_mmshare_version>
43012

> <i_f3d_flags>
0

> <s_epik_input>
W0NIMl0xW05IXVtDSDJdW0NIMl1bQ0BAXTEoW09IXSlbQ0gyXU4yW0NIMl1bQ0gyXVtDSF0oW0NIMl1bQ0gyXTIpT2MzW2NIXVtjSF1bY0hdYyhDKEYpKEYpRilbY0hdMw==

> <s_epik_cmdline>
J2VwaWtfcHl0aG9uJywgJy1waCcsICc3LjAnLCAnLXRuJywgJzgnLCAnLW1hJywgJzIwMCcsICctbWV0YWxfYmluZGluZycsICctaW1hZScsICc8aW5maWxlLm1hZT4nLCAnLW9tYWUnLCAnPG91dGZpbGUubWFlPic=

> <r_lp_tautomer_probability>
1

> <r_epik_Ionization_Penalty>
0.0989853

> <r_epik_Ionization_Penalty_Charging>
0.0989662

> <r_epik_Ionization_Penalty_Neutral>
1.91014e-05

> <r_epik_State_Penalty>
0.0852826

> <r_epik_Charging_Adjusted_Penalty>
0.184249

> <i_epik_Tot_Q>
2

> <i_epik_Tot_abs_Q>
2

> <r_epik_Metal_State_Penalty>
0.0849414

> <b_epik_Metal_Only>
0

> <s_lp_Force_Field>
OPLS_2005

> <r_lp_Energy>
57.962

> <b_lp_Chiralities_Consistent>
1

> <s_lp_Variant>
AV-unprocessed.smi:67-3

> <Gold.Version>
5.8.1

> <Gold.Id.Protein>
6NUR|6NUR_protein|mol2

> <Gold.PLP.Fitness>
60.5001

> <Gold.PLP.PLP>
-53.3438

> <Gold.PLP.part.hbond>
-2.1497

> <Gold.PLP.part.metal>
0.0000

> <Gold.PLP.part.buried>
-3.3771

> <Gold.PLP.part.nonpolar>
-46.9417

> <Gold.PLP.part.repulsive>
0.0915

> <Gold.PLP.ligand.clash>
0.6512

> <Gold.PLP.ligand.torsion>
1.0878

> <Gold.PLP.Chemscore.Hbond>
2.9520

> <Gold.PLP.Chemscore.CHOScore>
0.0000

> <Gold.PLP.Chemscore.Metal>
0.0000

> <Gold.Chemscore.Hbonds>
donor molecule, donor type, donor heavy atom, donor atom, acceptor molecule, acceptor atom, score
      L1  H    23    48       P1 10175  1.29
      P1  H  7997  8010       L1     8  1.00

> <Gold.PLP.Chemscore.Internal.Correction>
1.1272

> <Gold.Rescore>
     Score         DG    S(hbond)    S(metal)    S(lipo)     H(rot)  DE(clash)    DE(int)     intcor
     19.83     -21.17       1.74        0.00     133.27       2.24       0.42       0.92       ----

> <Gold.Chemscore.Fitness>
19.8350

> <Gold.Chemscore.DG>
-21.1700

> <Gold.Chemscore.ZeroCoef>
-5.4800

> <Gold.Chemscore.Hbond>
1.7425

> <Gold.Chemscore.Metal>
0.0000

> <Gold.Chemscore.Lipo>
133.2676

> <Gold.Chemscore.Internal_Hbond>
0.0000

> <Gold.Chemscore.DEClash>
0.4153

> <Gold.Chemscore.DEInternal>
0.9197

> <Gold.Chemscore.Rot>
2.2352

> <Gold.Chemscore.Internal.Correction>
   9.000000E+99

> <Gold.Chemscore.Hbonds>
donor molecule, donor type, donor heavy atom, donor atom, acceptor molecule, acceptor atom, score
      L1  H    23    48       P1 10175  0.41
      P1  H  7997  8010       L1     8  0.91

> <Gold.Chemscore.Hbond.Weighted>
-5.8198

> <Gold.Chemscore.Metal.Weighted>
-0.0000

> <Gold.Chemscore.Lipo.Weighted>
-15.5923

> <Gold.Chemscore.Internal_Hbond.Weighted>
0.0000

> <Gold.Chemscore.DEClash.Weighted>
0.4153

> <Gold.Chemscore.DEInternal.Weighted>
0.9197

> <Gold.Chemscore.Rot.Weighted>
5.7221

> <Gold.Chemscore.Internal.Correction.Weighted>
   9.000000E+99

> <Gold.Protein.RotatedTorsions>
[ 6907 6896 6895 6894 ] final  -83.36 input  -60.11 | X-H torsion
[ 7974 7965 7964 7962 ] final  -37.16 input  175.53 | X-H torsion
[ 8008 7997 7996 7995 ] final   49.25 input   59.86 | X-H torsion
[ 10167 10162 10161 10158 ] final -107.43 input  -65.29 | X-H torsion
[ 10718 10713 10712 10709 ] final   94.20 input   66.30 | X-H torsion
[ 10763 10752 10751 10750 ] final   74.56 input  -60.55 | X-H torsion
[ 11005 11000 10999 10996 ] final  -89.39 input  -57.11 | X-H torsion

> <Gold.Protein.ActiveResidues>
 VAL166  LYS551  ARG553  GLY616  TRP617  ASP618  TYR619  PRO620  LYS621  CYS622 
 ASP623  PHE694  ASN695  SER759  ASP760  ASP761  ALA762  ILE779  LEU786  VAL792 
 PHE793  MET794  SER795  GLU796  ALA797  LYS798  CYS799  TRP800  GLU811  SER814 

> <Gold.Protein.RotatedAtoms>
  150.6886  134.3524  159.4914 H   0  0  0  0  0  0  0  0  0  0  0  0  # atno 6907 bound_to 6896
  152.1364  134.9093  160.0565 H   0  0  0  0  0  0  0  0  0  0  0  0  # atno 6908 bound_to 6896
  152.0244  133.3877  159.4308 H   0  0  0  0  0  0  0  0  0  0  0  0  # atno 6909 bound_to 6896
  146.0599  140.6363  142.9002 H   0  0  0  0  0  0  0  0  0  0  0  0  # atno 7974 bound_to 7965
  155.3992  140.3437  155.4256 H   0  0  0  0  0  0  0  0  0  0  0  0  # atno 8008 bound_to 7997
  156.1513  140.1572  156.8797 H   0  0  0  0  0  0  0  0  0  0  0  0  # atno 8009 bound_to 7997
  154.5055  140.0803  156.7867 H   0  0  0  0  0  0  0  0  0  0  0  0  # atno 8010 bound_to 7997
  140.1771  143.3996  152.1310 H   0  0  0  0  0  0  0  0  0  0  0  0  # atno 10167 bound_to 10162
  157.6949  131.0504  150.4150 H   0  0  0  0  0  0  0  0  0  0  0  0  # atno 10718 bound_to 10713
  153.0595  135.5021  154.8060 H   0  0  0  0  0  0  0  0  0  0  0  0  # atno 10763 bound_to 10752
  154.6860  135.2976  154.9549 H   0  0  0  0  0  0  0  0  0  0  0  0  # atno 10764 bound_to 10752
  154.0320  135.6728  153.4834 H   0  0  0  0  0  0  0  0  0  0  0  0  # atno 10765 bound_to 10752
  141.1585  133.7627  156.9588 H   0  0  0  0  0  0  0  0  0  0  0  0  # atno 11005 bound_to 11000
  144.7169  140.4240  143.7038 LP  0  0  0  0  0  0  0  0  0  0  0  0  # atno 17320 bound_to 7965
  145.6578  139.1576  143.2825 LP  0  0  0  0  0  0  0  0  0  0  0  0  # atno 17321 bound_to 7965
  139.5312  144.7161  151.5049 LP  0  0  0  0  0  0  0  0  0  0  0  0  # atno 17342 bound_to 10162
  140.6544  143.8630  150.6819 LP  0  0  0  0  0  0  0  0  0  0  0  0  # atno 17343 bound_to 10162
  156.4531  130.4016  149.6623 LP  0  0  0  0  0  0  0  0  0  0  0  0  # atno 17370 bound_to 10713
  156.3766  130.7557  151.2546 LP  0  0  0  0  0  0  0  0  0  0  0  0  # atno 17371 bound_to 10713
  140.1207  134.9419  157.2199 LP  0  0  0  0  0  0  0  0  0  0  0  0  # atno 17394 bound_to 11000
  140.3076  134.3061  155.7274 LP  0  0  0  0  0  0  0  0  0  0  0  0  # atno 17395 bound_to 11000

$$$$
