AV-unprocessed.smi:193|AV-procd|sdf|1504|dock6
  -GOLD-   2262019333D 1   1.00000     0.00000
 Structure written by MMmdl.
 62 66  0  0  0  0  0  0  0  0  2 V2000
  149.5948  142.8913  158.1663 C   0  0  0  0  0  0  0  0  0  0  0  0
  150.3932  141.6044  157.9019 C   0  0  2  0  0  0  0  0  0  0  0  0
  151.7971  141.7327  158.5296 C   0  0  0  0  0  0  0  0  0  0  0  0
  152.4460  140.4520  158.8192 N   0  0  0  0  0  0  0  0  0  0  0  0
  153.4594  140.4362  159.7243 C   0  0  0  0  0  0  0  0  0  0  0  0
  153.3203  141.1334  160.8832 N   0  0  0  0  0  0  0  0  0  0  0  0
  154.3072  141.1521  161.7838 C   0  0  0  0  0  0  0  0  0  0  0  0
  155.4976  140.5529  161.7290 N   0  0  0  0  0  0  0  0  0  0  0  0
  155.6416  139.8423  160.5744 C   0  0  0  0  0  0  0  0  0  0  0  0
  154.6795  139.7250  159.5313 C   0  0  0  0  0  0  0  0  0  0  0  0
  155.1721  138.8983  158.5272 N   0  0  0  0  0  0  0  0  0  0  0  0
  156.3607  138.5598  158.9457 C   0  0  0  0  0  0  0  0  0  0  0  0
  156.7302  139.0955  160.1586 N   0  0  0  0  0  0  0  0  0  0  0  0
  157.9964  138.8991  160.8479 C   0  0  0  0  0  0  0  0  0  0  0  0
  158.9047  140.1545  160.8625 C   0  0  0  0  0  0  0  0  0  0  0  0
  158.4746  140.9894  161.9237 O   0  0  0  0  0  0  0  0  0  0  0  0
  160.3701  139.7537  161.1249 C   0  0  0  0  0  0  0  0  0  0  0  0
  161.3346  140.9437  160.9750 C   0  0  0  0  0  0  0  0  0  0  0  0
  161.1817  141.5346  159.6904 O   0  0  0  0  0  0  0  0  0  0  0  0
  159.8835  142.0785  159.4876 C   0  0  0  0  0  0  0  0  0  0  0  0
  158.8259  140.9621  159.5480 C   0  0  0  0  0  0  0  0  0  0  0  0
  152.2878  139.2808  157.9578 C   0  0  0  0  0  0  0  0  0  0  0  0
  152.2411  139.6239  156.4637 C   0  0  0  0  0  0  0  0  0  0  0  0
  150.8626  139.9564  156.0328 N   0  3  2  0  0  0  0  0  0  0  0  0
  150.6580  139.6696  154.5933 C   0  0  2  0  0  0  0  0  0  0  0  0
  149.3911  138.9010  154.2915 C   0  0  0  0  0  0  0  0  0  0  0  0
  150.7300  138.2005  154.2148 C   0  0  2  0  0  0  0  0  0  0  0  0
  151.0713  137.0976  155.2008 C   0  0  0  0  0  0  0  0  0  0  0  0
  150.4575  141.3405  156.3808 C   0  0  0  0  0  0  0  0  0  0  0  0
  150.0785  143.7586  157.7153 H   0  0  0  0  0  0  0  0  0  0  0  0
  149.4983  143.0829  159.2355 H   0  0  0  0  0  0  0  0  0  0  0  0
  148.5855  142.8227  157.7594 H   0  0  0  0  0  0  0  0  0  0  0  0
  149.8498  140.7929  158.3889 H   0  0  0  0  0  0  0  0  0  0  0  0
  152.4449  142.3408  157.8966 H   0  0  0  0  0  0  0  0  0  0  0  0
  151.7037  142.2695  159.4752 H   0  0  0  0  0  0  0  0  0  0  0  0
  154.1178  141.7321  162.6751 H   0  0  0  0  0  0  0  0  0  0  0  0
  157.0099  137.9142  158.3718 H   0  0  0  0  0  0  0  0  0  0  0  0
  157.7859  138.5699  161.8668 H   0  0  0  0  0  0  0  0  0  0  0  0
  158.5148  138.0704  160.3640 H   0  0  0  0  0  0  0  0  0  0  0  0
  157.7471  140.5724  162.3593 H   0  0  0  0  0  0  0  0  0  0  0  0
  160.4741  139.3112  162.1165 H   0  0  0  0  0  0  0  0  0  0  0  0
  160.6656  138.9805  160.4143 H   0  0  0  0  0  0  0  0  0  0  0  0
  161.1662  141.6892  161.7538 H   0  0  0  0  0  0  0  0  0  0  0  0
  162.3644  140.6033  161.0832 H   0  0  0  0  0  0  0  0  0  0  0  0
  159.6807  142.8529  160.2287 H   0  0  0  0  0  0  0  0  0  0  0  0
  159.8558  142.5632  158.5117 H   0  0  0  0  0  0  0  0  0  0  0  0
  158.9826  140.2901  158.7035 H   0  0  0  0  0  0  0  0  0  0  0  0
  157.8339  141.3957  159.4157 H   0  0  0  0  0  0  0  0  0  0  0  0
  153.1362  138.6106  158.0999 H   0  0  0  0  0  0  0  0  0  0  0  0
  151.4033  138.7176  158.2582 H   0  0  0  0  0  0  0  0  0  0  0  0
  152.9495  140.4100  156.1967 H   0  0  0  0  0  0  0  0  0  0  0  0
  152.5629  138.7348  155.9203 H   0  0  0  0  0  0  0  0  0  0  0  0
  151.0058  140.4359  153.9023 H   0  0  0  0  0  0  0  0  0  0  0  0
  148.7334  138.6450  155.1205 H   0  0  0  0  0  0  0  0  0  0  0  0
  148.8873  139.1129  153.3504 H   0  0  0  0  0  0  0  0  0  0  0  0
  151.1026  138.0018  153.2118 H   0  0  0  0  0  0  0  0  0  0  0  0
  150.6036  137.2697  156.1705 H   0  0  0  0  0  0  0  0  0  0  0  0
  152.1509  137.0368  155.3385 H   0  0  0  0  0  0  0  0  0  0  0  0
  150.7192  136.1388  154.8199 H   0  0  0  0  0  0  0  0  0  0  0  0
  149.4654  141.5094  155.9601 H   0  0  0  0  0  0  0  0  0  0  0  0
  151.1186  142.0575  155.8912 H   0  0  0  0  0  0  0  0  0  0  0  0
  150.2433  139.3326  156.5301 H   0  0  0  0  0  0  0  0  0  0  0  0
  1  2  1  0  0  0  0
  1 30  1  0  0  0  0
  1 31  1  0  0  0  0
  1 32  1  0  0  0  0
  2 29  1  0  0  0  0
  2  3  1  0  0  0  0
  2 33  1  0  0  0  0
  3  4  1  0  0  0  0
  3 34  1  0  0  0  0
  3 35  1  0  0  0  0
  4  5  1  0  0  0  0
  4 22  1  0  0  0  0
  5 10  1  0  0  0  0
  5  6  2  0  0  0  0
  6  7  1  0  0  0  0
  7  8  2  0  0  0  0
  7 36  1  0  0  0  0
  8  9  1  0  0  0  0
  9 13  1  0  0  0  0
  9 10  2  0  0  0  0
 10 11  1  0  0  0  0
 11 12  2  0  0  0  0
 12 13  1  0  0  0  0
 12 37  1  0  0  0  0
 13 14  1  0  0  0  0
 14 15  1  0  0  0  0
 14 38  1  0  0  0  0
 14 39  1  0  0  0  0
 15 21  1  0  0  0  0
 15 16  1  0  0  0  0
 15 17  1  0  0  0  0
 16 40  1  0  0  0  0
 17 18  1  0  0  0  0
 17 41  1  0  0  0  0
 17 42  1  0  0  0  0
 18 19  1  0  0  0  0
 18 43  1  0  0  0  0
 18 44  1  0  0  0  0
 19 20  1  0  0  0  0
 20 21  1  0  0  0  0
 20 45  1  0  0  0  0
 20 46  1  0  0  0  0
 21 47  1  0  0  0  0
 21 48  1  0  0  0  0
 22 23  1  0  0  0  0
 22 49  1  0  0  0  0
 22 50  1  0  0  0  0
 23 24  1  0  0  0  0
 23 51  1  0  0  0  0
 23 52  1  0  0  0  0
 24 25  1  0  0  0  0
 24 29  1  0  0  0  0
 24 62  1  0  0  0  0
 25 27  1  0  0  0  0
 25 26  1  0  0  0  0
 25 53  1  0  0  0  0
 26 27  1  0  0  0  0
 26 54  1  0  0  0  0
 26 55  1  0  0  0  0
 27 28  1  0  0  0  0
 27 56  1  0  0  0  0
 28 57  1  0  0  0  0
 28 58  1  0  0  0  0
 28 59  1  0  0  0  0
 29 60  1  0  0  0  0
 29 61  1  0  0  0  0
M  CHG  1  24   1
M  END
> <s_m_source_file>
AV-unprocessed.smi

> <i_m_source_file_index>
193

> <i_lp_mmshare_version>
43012

> <i_f3d_flags>
0

> <s_epik_input>
W0NIM11bQ0BASF0xW0NIMl1bQ0BIXTFOKFtDSDJdMilbQ0gyXVtDSDJdTihbQ0gyXVtDQEhdMltDSDNdKWMobltjSF1uMyljKGMzNCluW2NIXW40W0NIMl1DNShbT0hdKVtDSDJdW0NIMl1PW0NIMl1bQ0gyXTU=

> <s_epik_cmdline>
J2VwaWtfcHl0aG9uJywgJy1waCcsICc3LjAnLCAnLXRuJywgJzgnLCAnLW1hJywgJzIwMCcsICctbWV0YWxfYmluZGluZycsICctaW1hZScsICc8aW5maWxlLm1hZT4nLCAnLW9tYWUnLCAnPG91dGZpbGUubWFlPic=

> <r_lp_tautomer_probability>
1

> <r_epik_Ionization_Penalty>
0.0540825

> <r_epik_Ionization_Penalty_Charging>
0.0538476

> <r_epik_Ionization_Penalty_Neutral>
0.000234891

> <r_epik_State_Penalty>
0.0200719

> <r_epik_Charging_Adjusted_Penalty>
0.0739194

> <i_epik_Tot_Q>
1

> <i_epik_Tot_abs_Q>
1

> <r_epik_Metal_State_Penalty>
0.0199414

> <b_epik_Metal_Only>
0

> <s_lp_Force_Field>
OPLS_2005

> <r_lp_Energy>
56.2911

> <b_lp_Chiralities_Consistent>
1

> <s_lp_Variant>
AV-unprocessed.smi:193-9

> <Gold.Version>
5.8.1

> <Gold.Id.Protein>
6NUR|6NUR_protein|mol2

> <Gold.PLP.Fitness>
43.3219

> <Gold.PLP.PLP>
-42.3304

> <Gold.PLP.part.hbond>
-2.9201

> <Gold.PLP.part.metal>
0.0000

> <Gold.PLP.part.buried>
-3.5446

> <Gold.PLP.part.nonpolar>
-35.8126

> <Gold.PLP.part.repulsive>
0.2242

> <Gold.PLP.ligand.clash>
0.0000

> <Gold.PLP.ligand.torsion>
1.6630

> <Gold.PLP.Chemscore.Hbond>
1.0000

> <Gold.PLP.Chemscore.CHOScore>
0.0000

> <Gold.PLP.Chemscore.Metal>
0.0000

> <Gold.Chemscore.Hbonds>
donor molecule, donor type, donor heavy atom, donor atom, acceptor molecule, acceptor atom, score
      P1  H  7997  8008       L1    11  0.85

> <Gold.PLP.Chemscore.Internal.Correction>
1.3175

> <Gold.Rescore>
     Score         DG    S(hbond)    S(metal)    S(lipo)     H(rot)  DE(clash)    DE(int)     intcor
     10.88     -13.77       0.77        0.00      90.99       1.93       0.13       2.76       ----

> <Gold.Chemscore.Fitness>
10.8802

> <Gold.Chemscore.DG>
-13.7673

> <Gold.Chemscore.ZeroCoef>
-5.4800

> <Gold.Chemscore.Hbond>
0.7723

> <Gold.Chemscore.Metal>
0.0000

> <Gold.Chemscore.Lipo>
90.9929

> <Gold.Chemscore.Internal_Hbond>
0.0000

> <Gold.Chemscore.DEClash>
0.1299

> <Gold.Chemscore.DEInternal>
2.7573

> <Gold.Chemscore.Rot>
1.9290

> <Gold.Chemscore.Internal.Correction>
   9.000000E+99

> <Gold.Chemscore.Hbonds>
donor molecule, donor type, donor heavy atom, donor atom, acceptor molecule, acceptor atom, score
      P1  H  7997  8008       L1    11  0.13

> <Gold.Chemscore.Hbond.Weighted>
-2.5794

> <Gold.Chemscore.Metal.Weighted>
-0.0000

> <Gold.Chemscore.Lipo.Weighted>
-10.6462

> <Gold.Chemscore.Internal_Hbond.Weighted>
0.0000

> <Gold.Chemscore.DEClash.Weighted>
0.1299

> <Gold.Chemscore.DEInternal.Weighted>
2.7573

> <Gold.Chemscore.Rot.Weighted>
4.9383

> <Gold.Chemscore.Internal.Correction.Weighted>
   9.000000E+99

> <Gold.Protein.RotatedTorsions>
[ 6907 6896 6895 6894 ] final   68.15 input  -60.11 | X-H torsion
[ 7974 7965 7964 7962 ] final  -64.54 input  175.53 | X-H torsion
[ 8008 7997 7996 7995 ] final -123.40 input   59.86 | X-H torsion
[ 10167 10162 10161 10158 ] final -121.07 input  -65.29 | X-H torsion
[ 10718 10713 10712 10709 ] final   71.34 input   66.30 | X-H torsion
[ 10763 10752 10751 10750 ] final   17.98 input  -60.55 | X-H torsion
[ 11005 11000 10999 10996 ] final  132.43 input  -57.11 | X-H torsion

> <Gold.Protein.ActiveResidues>
 VAL166  LYS551  ARG553  GLY616  TRP617  ASP618  TYR619  PRO620  LYS621  CYS622 
 ASP623  PHE694  ASN695  SER759  ASP760  ASP761  ALA762  ILE779  LEU786  VAL792 
 PHE793  MET794  SER795  GLU796  ALA797  LYS798  CYS799  TRP800  GLU811  SER814 

> <Gold.Protein.RotatedAtoms>
  152.4601  134.5204  159.9780 H   0  0  0  0  0  0  0  0  0  0  0  0  # atno 6907 bound_to 6896
  151.5255  133.3452  159.2917 H   0  0  0  0  0  0  0  0  0  0  0  0  # atno 6908 bound_to 6896
  150.8560  134.7929  159.7108 H   0  0  0  0  0  0  0  0  0  0  0  0  # atno 6909 bound_to 6896
  145.7655  140.8840  143.0408 H   0  0  0  0  0  0  0  0  0  0  0  0  # atno 7974 bound_to 7965
  155.1800  140.0410  157.2880 H   0  0  0  0  0  0  0  0  0  0  0  0  # atno 8008 bound_to 7997
  154.6210  140.2501  155.7522 H   0  0  0  0  0  0  0  0  0  0  0  0  # atno 8009 bound_to 7997
  156.2433  140.2895  156.0518 H   0  0  0  0  0  0  0  0  0  0  0  0  # atno 8010 bound_to 7997
  140.0290  143.5268  152.2185 H   0  0  0  0  0  0  0  0  0  0  0  0  # atno 10167 bound_to 10162
  157.6447  130.9523  150.0776 H   0  0  0  0  0  0  0  0  0  0  0  0  # atno 10718 bound_to 10713
  153.1290  135.6736  153.9209 H   0  0  0  0  0  0  0  0  0  0  0  0  # atno 10763 bound_to 10752
  153.8702  135.3070  155.3443 H   0  0  0  0  0  0  0  0  0  0  0  0  # atno 10764 bound_to 10752
  154.7690  135.4949  153.9693 H   0  0  0  0  0  0  0  0  0  0  0  0  # atno 10765 bound_to 10752
  139.9789  134.9554  156.9580 H   0  0  0  0  0  0  0  0  0  0  0  0  # atno 11005 bound_to 11000
  144.6822  139.9782  143.7483 LP  0  0  0  0  0  0  0  0  0  0  0  0  # atno 17320 bound_to 7965
  146.0222  139.3261  143.0806 LP  0  0  0  0  0  0  0  0  0  0  0  0  # atno 17321 bound_to 7965
  139.6089  144.7603  151.2998 LP  0  0  0  0  0  0  0  0  0  0  0  0  # atno 17342 bound_to 10162
  140.7310  143.6863  150.7959 LP  0  0  0  0  0  0  0  0  0  0  0  0  # atno 17343 bound_to 10162
  156.1762  130.3648  149.9098 LP  0  0  0  0  0  0  0  0  0  0  0  0  # atno 17370 bound_to 10713
  156.7061  130.8952  151.3604 LP  0  0  0  0  0  0  0  0  0  0  0  0  # atno 17371 bound_to 10713
  140.5136  134.0977  155.7276 LP  0  0  0  0  0  0  0  0  0  0  0  0  # atno 17394 bound_to 11000
  141.1464  133.9048  157.2206 LP  0  0  0  0  0  0  0  0  0  0  0  0  # atno 17395 bound_to 11000

$$$$
