AV-unprocessed.smi:2988|AV-procd|sdf|11387|dock8
  -GOLD-   2272016313D 1   1.00000     0.00000
 Structure written by MMmdl.
 37 38  0  0  0  0  0  0  0  0  1 V2000
  151.6709  144.6059  157.5131 C   0  0  0  0  0  0  0  0  0  0  0  0
  151.6768  143.7744  158.8090 C   0  0  2  0  0  0  0  0  0  0  0  0
  152.1925  144.6212  159.9908 C   0  0  0  0  0  0  0  0  0  0  0  0
  152.1974  143.8282  161.3066 C   0  0  0  0  0  0  0  0  0  0  0  0
  153.0209  142.5404  161.1711 C   0  0  0  0  0  0  0  0  0  0  0  0
  152.5078  141.6799  160.0075 C   0  0  0  0  0  0  0  0  0  0  0  0
  152.4979  142.4647  158.6809 C   0  0  1  0  0  0  0  0  0  0  0  0
  151.9545  141.6061  157.6293 N   0  0  0  0  0  0  0  0  0  0  0  0
  152.2982  140.3293  157.3990 C   0  0  0  0  0  0  0  0  0  0  0  0
  153.1159  139.7116  158.0825 O   0  0  0  0  0  0  0  0  0  0  0  0
  151.5974  139.6464  156.2160 C   0  0  0  0  0  0  0  0  0  0  0  0
  150.2567  140.1893  155.9520 N   0  0  0  0  0  0  0  0  0  0  0  0
  150.0438  140.5546  154.6343 N   0  0  0  0  0  0  0  0  0  0  0  0
  148.9092  141.0602  154.2918 C   0  0  0  0  0  0  0  0  0  0  0  0
  147.8358  141.2583  155.2406 C   0  0  0  0  0  0  0  0  0  0  0  0
  146.3352  141.9414  154.7220 Cl  0  0  0  0  0  0  0  0  0  0  0  0
  148.0525  140.8906  156.5284 C   0  0  0  0  0  0  0  0  0  0  0  0
  146.8152  141.0946  157.7207 Cl  0  0  0  0  0  0  0  0  0  0  0  0
  149.3336  140.3113  156.9555 C   0  0  0  0  0  0  0  0  0  0  0  0
  149.5687  139.9633  158.1136 O   0  0  0  0  0  0  0  0  0  0  0  0
  152.6845  144.8627  157.2039 H   0  0  0  0  0  0  0  0  0  0  0  0
  151.1182  145.5360  157.6467 H   0  0  0  0  0  0  0  0  0  0  0  0
  151.1984  144.0683  156.6912 H   0  0  0  0  0  0  0  0  0  0  0  0
  150.6420  143.5049  159.0262 H   0  0  0  0  0  0  0  0  0  0  0  0
  153.2026  144.9735  159.7770 H   0  0  0  0  0  0  0  0  0  0  0  0
  151.5754  145.5127  160.1087 H   0  0  0  0  0  0  0  0  0  0  0  0
  152.6012  144.4443  162.1106 H   0  0  0  0  0  0  0  0  0  0  0  0
  151.1736  143.5813  161.5903 H   0  0  0  0  0  0  0  0  0  0  0  0
  154.0697  142.7910  161.0070 H   0  0  0  0  0  0  0  0  0  0  0  0
  152.9797  141.9721  162.1010 H   0  0  0  0  0  0  0  0  0  0  0  0
  153.1309  140.7898  159.9099 H   0  0  0  0  0  0  0  0  0  0  0  0
  151.5010  141.3276  160.2370 H   0  0  0  0  0  0  0  0  0  0  0  0
  153.5310  142.7302  158.4488 H   0  0  0  0  0  0  0  0  0  0  0  0
  151.2708  142.0250  157.0158 H   0  0  0  0  0  0  0  0  0  0  0  0
  152.2343  139.7595  155.3369 H   0  0  0  0  0  0  0  0  0  0  0  0
  151.5320  138.5710  156.3936 H   0  0  0  0  0  0  0  0  0  0  0  0
  148.6974  141.3659  153.2672 H   0  0  0  0  0  0  0  0  0  0  0  0
  1  2  1  0  0  0  0
  1 21  1  0  0  0  0
  1 22  1  0  0  0  0
  1 23  1  0  0  0  0
  2  7  1  0  0  0  0
  2  3  1  0  0  0  0
  2 24  1  0  0  0  0
  3  4  1  0  0  0  0
  3 25  1  0  0  0  0
  3 26  1  0  0  0  0
  4  5  1  0  0  0  0
  4 27  1  0  0  0  0
  4 28  1  0  0  0  0
  5  6  1  0  0  0  0
  5 29  1  0  0  0  0
  5 30  1  0  0  0  0
  6  7  1  0  0  0  0
  6 31  1  0  0  0  0
  6 32  1  0  0  0  0
  7  8  1  0  0  0  0
  7 33  1  0  0  0  0
  8  9  1  0  0  0  0
  8 34  1  0  0  0  0
  9 10  2  0  0  0  0
  9 11  1  0  0  0  0
 11 12  1  0  0  0  0
 11 35  1  0  0  0  0
 11 36  1  0  0  0  0
 12 19  1  0  0  0  0
 12 13  1  0  0  0  0
 13 14  2  0  0  0  0
 14 15  1  0  0  0  0
 14 37  1  0  0  0  0
 15 16  1  0  0  0  0
 15 17  2  0  0  0  0
 17 18  1  0  0  0  0
 17 19  1  0  0  0  0
 19 20  2  0  0  0  0
M  END
> <s_m_source_file>
AV-unprocessed.smi

> <i_m_source_file_index>
2988

> <i_lp_mmshare_version>
43012

> <i_f3d_flags>
0

> <s_epik_input>
W0NIM11bQ0BASF0xW0NIMl1bQ0gyXVtDSDJdW0NIMl1bQ0BIXTFbTkhdQyg9TylbQ0gyXW4ybltjSF1jKENsKWMoQ2wpYzI9Tw==

> <s_epik_cmdline>
J2VwaWtfcHl0aG9uJywgJy1waCcsICc3LjAnLCAnLXRuJywgJzgnLCAnLW1hJywgJzIwMCcsICctbWV0YWxfYmluZGluZycsICctaW1hZScsICc8aW5maWxlLm1hZT4nLCAnLW9tYWUnLCAnPG91dGZpbGUubWFlPic=

> <r_lp_tautomer_probability>
1

> <r_epik_Ionization_Penalty>
1.90782e-08

> <r_epik_Ionization_Penalty_Charging>
3.13143e-11

> <r_epik_Ionization_Penalty_Neutral>
1.90469e-08

> <r_epik_State_Penalty>
-0

> <r_epik_Charging_Adjusted_Penalty>
3.13143e-11

> <i_epik_Tot_Q>
0

> <i_epik_Tot_abs_Q>
0

> <r_epik_Metal_State_Penalty>
-0

> <b_epik_Metal_Only>
0

> <s_lp_Force_Field>
OPLS_2005

> <r_lp_Energy>
24.1537

> <b_lp_Chiralities_Consistent>
1

> <s_lp_Variant>
AV-unprocessed.smi:2988-1

> <Gold.Version>
5.8.1

> <Gold.Id.Protein>
6NUR|6NUR_protein|mol2

> <Gold.PLP.Fitness>
48.1828

> <Gold.PLP.PLP>
-41.4041

> <Gold.PLP.part.hbond>
-2.0000

> <Gold.PLP.part.metal>
0.0000

> <Gold.PLP.part.buried>
-3.2843

> <Gold.PLP.part.nonpolar>
-35.7204

> <Gold.PLP.part.repulsive>
0.1874

> <Gold.PLP.ligand.clash>
0.0039

> <Gold.PLP.ligand.torsion>
0.5836

> <Gold.PLP.Chemscore.Hbond>
1.7429

> <Gold.PLP.Chemscore.CHOScore>
0.9055

> <Gold.PLP.Chemscore.Metal>
0.0000

> <Gold.Chemscore.Hbonds>
donor molecule, donor type, donor heavy atom, donor atom, acceptor molecule, acceptor atom, score
      P1  H  7989  7998       L1    13  0.88
      P1  H  7997  8008       L1    10  1.00
      L1  C    14    37       P1  7957  0.63

> <Gold.PLP.Chemscore.Internal.Correction>
0.0047

> <Gold.Rescore>
     Score         DG    S(hbond)    S(metal)    S(lipo)     H(rot)  DE(clash)    DE(int)     intcor
     14.23     -17.41       0.96        0.00     107.40       1.50       0.03       3.14       ----

> <Gold.Chemscore.Fitness>
14.2328

> <Gold.Chemscore.DG>
-17.4078

> <Gold.Chemscore.ZeroCoef>
-5.4800

> <Gold.Chemscore.Hbond>
0.9571

> <Gold.Chemscore.Metal>
0.0000

> <Gold.Chemscore.Lipo>
107.3952

> <Gold.Chemscore.Internal_Hbond>
0.0000

> <Gold.Chemscore.DEClash>
0.0303

> <Gold.Chemscore.DEInternal>
3.1447

> <Gold.Chemscore.Rot>
1.4977

> <Gold.Chemscore.Internal.Correction>
   9.000000E+99

> <Gold.Chemscore.Hbonds>
donor molecule, donor type, donor heavy atom, donor atom, acceptor molecule, acceptor atom, score
      P1  H  7989  7998       L1    13  0.80
      P1  H  7997  8008       L1    10  0.33

> <Gold.Chemscore.Hbond.Weighted>
-3.1967

> <Gold.Chemscore.Metal.Weighted>
-0.0000

> <Gold.Chemscore.Lipo.Weighted>
-12.5652

> <Gold.Chemscore.Internal_Hbond.Weighted>
0.0000

> <Gold.Chemscore.DEClash.Weighted>
0.0303

> <Gold.Chemscore.DEInternal.Weighted>
3.1447

> <Gold.Chemscore.Rot.Weighted>
3.8341

> <Gold.Chemscore.Internal.Correction.Weighted>
   9.000000E+99

> <Gold.Protein.RotatedTorsions>
[ 6907 6896 6895 6894 ] final  127.59 input  -60.11 | X-H torsion
[ 7974 7965 7964 7962 ] final -172.77 input  175.53 | X-H torsion
[ 8008 7997 7996 7995 ] final  -97.87 input   59.86 | X-H torsion
[ 10167 10162 10161 10158 ] final  146.24 input  -65.29 | X-H torsion
[ 10718 10713 10712 10709 ] final   96.95 input   66.30 | X-H torsion
[ 10763 10752 10751 10750 ] final -153.19 input  -60.55 | X-H torsion
[ 11005 11000 10999 10996 ] final -113.33 input  -57.11 | X-H torsion

> <Gold.Protein.ActiveResidues>
 VAL166  LYS551  ARG553  GLY616  TRP617  ASP618  TYR619  PRO620  LYS621  CYS622 
 ASP623  PHE694  ASN695  SER759  ASP760  ASP761  ALA762  ILE779  LEU786  VAL792 
 PHE793  MET794  SER795  GLU796  ALA797  LYS798  CYS799  TRP800  GLU811  SER814 

> <Gold.Protein.RotatedAtoms>
  152.3798  133.6531  159.6152 H   0  0  0  0  0  0  0  0  0  0  0  0  # atno 6907 bound_to 6896
  150.7732  133.9132  159.3384 H   0  0  0  0  0  0  0  0  0  0  0  0  # atno 6908 bound_to 6896
  151.6940  135.0943  160.0290 H   0  0  0  0  0  0  0  0  0  0  0  0  # atno 6909 bound_to 6896
  144.7143  140.1723  143.6366 H   0  0  0  0  0  0  0  0  0  0  0  0  # atno 7974 bound_to 7965
  154.7935  140.0459  157.1219 H   0  0  0  0  0  0  0  0  0  0  0  0  # atno 8008 bound_to 7997
  154.9562  140.3071  155.5032 H   0  0  0  0  0  0  0  0  0  0  0  0  # atno 8009 bound_to 7997
  156.2953  140.2279  156.4644 H   0  0  0  0  0  0  0  0  0  0  0  0  # atno 8010 bound_to 7997
  139.4911  144.5844  151.6808 H   0  0  0  0  0  0  0  0  0  0  0  0  # atno 10167 bound_to 10162
  157.6920  131.0594  150.4569 H   0  0  0  0  0  0  0  0  0  0  0  0  # atno 10718 bound_to 10713
  154.7944  135.3218  154.7702 H   0  0  0  0  0  0  0  0  0  0  0  0  # atno 10763 bound_to 10752
  153.8383  135.6873  153.4810 H   0  0  0  0  0  0  0  0  0  0  0  0  # atno 10764 bound_to 10752
  153.1628  135.4654  154.9737 H   0  0  0  0  0  0  0  0  0  0  0  0  # atno 10765 bound_to 10752
  141.0621  133.9519  157.2648 H   0  0  0  0  0  0  0  0  0  0  0  0  # atno 11005 bound_to 11000
  145.8933  139.2388  143.1537 LP  0  0  0  0  0  0  0  0  0  0  0  0  # atno 17320 bound_to 7965
  145.9882  140.8625  143.0079 LP  0  0  0  0  0  0  0  0  0  0  0  0  # atno 17321 bound_to 7965
  140.5457  144.0508  150.6106 LP  0  0  0  0  0  0  0  0  0  0  0  0  # atno 17342 bound_to 10162
  140.3545  143.2944  152.0451 LP  0  0  0  0  0  0  0  0  0  0  0  0  # atno 17343 bound_to 10162
  156.4916  130.4096  149.6403 LP  0  0  0  0  0  0  0  0  0  0  0  0  # atno 17370 bound_to 10713
  156.3412  130.7383  151.2328 LP  0  0  0  0  0  0  0  0  0  0  0  0  # atno 17371 bound_to 10713
  139.9442  135.0186  156.8801 LP  0  0  0  0  0  0  0  0  0  0  0  0  # atno 17394 bound_to 11000
  140.5848  134.0317  155.7477 LP  0  0  0  0  0  0  0  0  0  0  0  0  # atno 17395 bound_to 11000

$$$$
