AV-unprocessed.smi:1413|AV-procd|sdf|5755|dock4
  -GOLD-   22720 5393D 1   1.00000     0.00000
 Structure written by MMmdl.
 53 55  0  0  0  0  0  0  0  0  1 V2000
  151.3738  144.9692  158.3214 C   0  0  0  0  0  0  0  0  0  0  0  0
  151.9165  143.5596  158.0646 C   0  0  2  0  0  0  0  0  0  0  0  0
  150.8584  142.6387  157.4264 C   0  0  0  0  0  0  0  0  0  0  0  0
  151.3705  141.2762  157.3126 N   0  0  0  0  0  0  0  0  0  0  0  0
  150.6207  140.4064  156.4918 C   0  0  0  0  0  0  0  0  0  0  0  0
  149.4786  139.7507  157.0081 C   0  0  0  0  0  0  0  0  0  0  0  0
  148.7428  138.8915  156.1700 C   0  0  0  0  0  0  0  0  0  0  0  0
  149.1656  138.6965  154.8411 C   0  0  0  0  0  0  0  0  0  0  0  0
  148.3931  137.8416  154.0093 N   0  0  0  0  0  0  0  0  0  0  0  0
  147.1064  137.4800  154.1524 C   0  0  0  0  0  0  0  0  0  0  0  0
  146.3500  137.8830  155.0356 O   0  0  0  0  0  0  0  0  0  0  0  0
  146.7344  136.6269  153.1867 N   0  0  0  0  0  0  0  0  0  0  0  0
  145.3988  136.0570  153.0121 C   0  0  1  0  0  0  0  0  0  0  0  0
  144.3844  137.2049  152.9039 C   0  0  0  0  0  0  0  0  0  0  0  0
  145.3556  135.1394  151.7724 C   0  0  1  0  0  0  0  0  0  0  0  0
  146.3505  133.9786  151.7853 C   0  0  0  0  0  0  0  0  0  0  0  0
  145.7268  132.9732  150.8322 C   0  0  0  0  0  0  0  0  0  0  0  0
  144.2554  133.3932  150.7614 C   0  0  0  0  0  0  0  0  0  0  0  0
  144.1156  134.4528  151.6987 O   0  0  0  0  0  0  0  0  0  0  0  0
  150.3108  139.4051  154.4075 C   0  0  0  0  0  0  0  0  0  0  0  0
  151.0159  140.2334  155.2067 N   0  0  0  0  0  0  0  0  0  0  0  0
  151.8957  140.7506  158.5705 C   0  0  0  0  0  0  0  0  0  0  0  0
  152.9295  141.7231  159.1674 C   0  0  2  0  0  0  0  0  0  0  0  0
  153.4261  141.2647  160.5426 C   0  0  0  0  0  0  0  0  0  0  0  0
  152.3312  143.0085  159.3118 O   0  0  0  0  0  0  0  0  0  0  0  0
  151.0483  145.4402  157.3936 H   0  0  0  0  0  0  0  0  0  0  0  0
  152.1389  145.6055  158.7668 H   0  0  0  0  0  0  0  0  0  0  0  0
  150.5225  144.9459  159.0023 H   0  0  0  0  0  0  0  0  0  0  0  0
  152.7813  143.6375  157.4029 H   0  0  0  0  0  0  0  0  0  0  0  0
  149.9568  142.6216  158.0401 H   0  0  0  0  0  0  0  0  0  0  0  0
  150.5726  143.0422  156.4559 H   0  0  0  0  0  0  0  0  0  0  0  0
  149.1510  139.9102  158.0245 H   0  0  0  0  0  0  0  0  0  0  0  0
  147.8637  138.3896  156.5471 H   0  0  0  0  0  0  0  0  0  0  0  0
  148.8609  137.5030  153.1814 H   0  0  0  0  0  0  0  0  0  0  0  0
  147.4288  136.3557  152.5063 H   0  0  0  0  0  0  0  0  0  0  0  0
  145.1324  135.4663  153.8903 H   0  0  0  0  0  0  0  0  0  0  0  0
  143.3671  136.8241  152.8090 H   0  0  0  0  0  0  0  0  0  0  0  0
  144.5856  137.8335  152.0356 H   0  0  0  0  0  0  0  0  0  0  0  0
  144.4137  137.8402  153.7897 H   0  0  0  0  0  0  0  0  0  0  0  0
  145.4860  135.7262  150.8606 H   0  0  0  0  0  0  0  0  0  0  0  0
  147.3565  134.2766  151.4888 H   0  0  0  0  0  0  0  0  0  0  0  0
  146.4081  133.5451  152.7848 H   0  0  0  0  0  0  0  0  0  0  0  0
  146.1861  133.0330  149.8450 H   0  0  0  0  0  0  0  0  0  0  0  0
  145.8461  131.9529  151.1977 H   0  0  0  0  0  0  0  0  0  0  0  0
  144.0084  133.7585  149.7638 H   0  0  0  0  0  0  0  0  0  0  0  0
  143.5759  132.5749  151.0013 H   0  0  0  0  0  0  0  0  0  0  0  0
  150.6733  139.3399  153.3936 H   0  0  0  0  0  0  0  0  0  0  0  0
  151.0715  140.6000  159.2694 H   0  0  0  0  0  0  0  0  0  0  0  0
  152.3654  139.7802  158.4051 H   0  0  0  0  0  0  0  0  0  0  0  0
  153.7883  141.8014  158.4982 H   0  0  0  0  0  0  0  0  0  0  0  0
  153.9019  140.2859  160.4808 H   0  0  0  0  0  0  0  0  0  0  0  0
  152.6044  141.1938  161.2559 H   0  0  0  0  0  0  0  0  0  0  0  0
  154.1580  141.9650  160.9456 H   0  0  0  0  0  0  0  0  0  0  0  0
  1  2  1  0  0  0  0
  1 26  1  0  0  0  0
  1 27  1  0  0  0  0
  1 28  1  0  0  0  0
  2 25  1  0  0  0  0
  2  3  1  0  0  0  0
  2 29  1  0  0  0  0
  3  4  1  0  0  0  0
  3 30  1  0  0  0  0
  3 31  1  0  0  0  0
  4  5  1  0  0  0  0
  4 22  1  0  0  0  0
  5 21  1  0  0  0  0
  5  6  2  0  0  0  0
  6  7  1  0  0  0  0
  6 32  1  0  0  0  0
  7  8  2  0  0  0  0
  7 33  1  0  0  0  0
  8  9  1  0  0  0  0
  8 20  1  0  0  0  0
  9 10  1  0  0  0  0
  9 34  1  0  0  0  0
 10 11  2  0  0  0  0
 10 12  1  0  0  0  0
 12 13  1  0  0  0  0
 12 35  1  0  0  0  0
 13 14  1  0  0  0  0
 13 15  1  0  0  0  0
 13 36  1  0  0  0  0
 14 37  1  0  0  0  0
 14 38  1  0  0  0  0
 14 39  1  0  0  0  0
 15 19  1  0  0  0  0
 15 16  1  0  0  0  0
 15 40  1  0  0  0  0
 16 17  1  0  0  0  0
 16 41  1  0  0  0  0
 16 42  1  0  0  0  0
 17 18  1  0  0  0  0
 17 43  1  0  0  0  0
 17 44  1  0  0  0  0
 18 19  1  0  0  0  0
 18 45  1  0  0  0  0
 18 46  1  0  0  0  0
 20 21  2  0  0  0  0
 20 47  1  0  0  0  0
 22 23  1  0  0  0  0
 22 48  1  0  0  0  0
 22 49  1  0  0  0  0
 23 24  1  0  0  0  0
 23 25  1  0  0  0  0
 23 50  1  0  0  0  0
 24 51  1  0  0  0  0
 24 52  1  0  0  0  0
 24 53  1  0  0  0  0
M  END
> <s_m_source_file>
AV-unprocessed.smi

> <i_m_source_file_index>
1413

> <i_lp_mmshare_version>
43012

> <i_f3d_flags>
0

> <s_epik_input>
W0NIM11bQ0BASF0xW0NIMl1OKFtDSDJdW0NASF0oTzEpW0NIM10pYzJbY0hdW2NIXWMoW2NIXW4yKVtOSF1DKD1PKVtOSF1bQ0BIXShbQ0gzXSlbQ0BASF0zW0NIMl1bQ0gyXVtDSDJdTzM=

> <s_epik_cmdline>
J2VwaWtfcHl0aG9uJywgJy1waCcsICc3LjAnLCAnLXRuJywgJzgnLCAnLW1hJywgJzIwMCcsICctbWV0YWxfYmluZGluZycsICctaW1hZScsICc8aW5maWxlLm1hZT4nLCAnLW9tYWUnLCAnPG91dGZpbGUubWFlPic=

> <r_lp_tautomer_probability>
1

> <r_epik_Ionization_Penalty>
0.00271172

> <r_epik_Ionization_Penalty_Charging>
0

> <r_epik_Ionization_Penalty_Neutral>
0.00271172

> <r_epik_State_Penalty>
0.00186503

> <r_epik_Charging_Adjusted_Penalty>
0.00186503

> <i_epik_Tot_Q>
0

> <i_epik_Tot_abs_Q>
0

> <r_epik_Metal_State_Penalty>
-0

> <b_epik_Metal_Only>
0

> <s_lp_Force_Field>
OPLS_2005

> <r_lp_Energy>
33.7939

> <b_lp_Chiralities_Consistent>
1

> <s_lp_Variant>
AV-unprocessed.smi:1413-8

> <Gold.Version>
5.8.1

> <Gold.Id.Protein>
6NUR|6NUR_protein|mol2

> <Gold.PLP.Fitness>
49.1292

> <Gold.PLP.PLP>
-40.5221

> <Gold.PLP.part.hbond>
-3.0000

> <Gold.PLP.part.metal>
0.0000

> <Gold.PLP.part.buried>
-7.0484

> <Gold.PLP.part.nonpolar>
-31.4448

> <Gold.PLP.part.repulsive>
0.2596

> <Gold.PLP.ligand.clash>
0.0000

> <Gold.PLP.ligand.torsion>
0.4942

> <Gold.PLP.Chemscore.Hbond>
2.0760

> <Gold.PLP.Chemscore.CHOScore>
1.0000

> <Gold.PLP.Chemscore.Metal>
0.0000

> <Gold.Chemscore.Hbonds>
donor molecule, donor type, donor heavy atom, donor atom, acceptor molecule, acceptor atom, score
      L1  H     9    34       P1  7948  0.98
      L1  H    12    35       P1  7948  1.00
      P1  H  7989  7998       L1    21  0.10
      L1  C    20    47       P1  7957  0.94

> <Gold.PLP.Chemscore.Internal.Correction>
0.3675

> <Gold.Rescore>
     Score         DG    S(hbond)    S(metal)    S(lipo)     H(rot)  DE(clash)    DE(int)     intcor
     18.98     -20.84       1.94        0.00     105.28       1.35       0.05       1.80       ----

> <Gold.Chemscore.Fitness>
18.9798

> <Gold.Chemscore.DG>
-20.8353

> <Gold.Chemscore.ZeroCoef>
-5.4800

> <Gold.Chemscore.Hbond>
1.9419

> <Gold.Chemscore.Metal>
0.0000

> <Gold.Chemscore.Lipo>
105.2823

> <Gold.Chemscore.Internal_Hbond>
0.0000

> <Gold.Chemscore.DEClash>
0.0537

> <Gold.Chemscore.DEInternal>
1.8018

> <Gold.Chemscore.Rot>
1.3471

> <Gold.Chemscore.Internal.Correction>
   9.000000E+99

> <Gold.Chemscore.Hbonds>
donor molecule, donor type, donor heavy atom, donor atom, acceptor molecule, acceptor atom, score
      L1  H     9    34       P1  7948  0.93
      L1  H    12    35       P1  7948  0.99

> <Gold.Chemscore.Hbond.Weighted>
-6.4858

> <Gold.Chemscore.Metal.Weighted>
-0.0000

> <Gold.Chemscore.Lipo.Weighted>
-12.3180

> <Gold.Chemscore.Internal_Hbond.Weighted>
0.0000

> <Gold.Chemscore.DEClash.Weighted>
0.0537

> <Gold.Chemscore.DEInternal.Weighted>
1.8018

> <Gold.Chemscore.Rot.Weighted>
3.4485

> <Gold.Chemscore.Internal.Correction.Weighted>
   9.000000E+99

> <Gold.Protein.RotatedTorsions>
[ 6907 6896 6895 6894 ] final -129.13 input  -60.11 | X-H torsion
[ 7974 7965 7964 7962 ] final  179.18 input  175.53 | X-H torsion
[ 8008 7997 7996 7995 ] final -137.62 input   59.86 | X-H torsion
[ 10167 10162 10161 10158 ] final  159.68 input  -65.29 | X-H torsion
[ 10718 10713 10712 10709 ] final  119.43 input   66.30 | X-H torsion
[ 10763 10752 10751 10750 ] final  -40.03 input  -60.55 | X-H torsion
[ 11005 11000 10999 10996 ] final    4.22 input  -57.11 | X-H torsion

> <Gold.Protein.ActiveResidues>
 VAL166  LYS551  ARG553  GLY616  TRP617  ASP618  TYR619  PRO620  LYS621  CYS622 
 ASP623  PHE694  ASN695  SER759  ASP760  ASP761  ALA762  ILE779  LEU786  VAL792 
 PHE793  MET794  SER795  GLU796  ALA797  LYS798  CYS799  TRP800  GLU811  SER814 

> <Gold.Protein.RotatedAtoms>
  150.9254  133.6830  159.2822 H   0  0  0  0  0  0  0  0  0  0  0  0  # atno 6907 bound_to 6896
  151.4270  135.1004  159.9640 H   0  0  0  0  0  0  0  0  0  0  0  0  # atno 6908 bound_to 6896
  152.5000  133.8693  159.7345 H   0  0  0  0  0  0  0  0  0  0  0  0  # atno 6909 bound_to 6896
  144.7148  140.0510  143.6435 H   0  0  0  0  0  0  0  0  0  0  0  0  # atno 7974 bound_to 7965
  155.4147  140.0514  157.3029 H   0  0  0  0  0  0  0  0  0  0  0  0  # atno 8008 bound_to 7997
  154.4930  140.2127  155.9467 H   0  0  0  0  0  0  0  0  0  0  0  0  # atno 8009 bound_to 7997
  156.1367  140.3162  155.8437 H   0  0  0  0  0  0  0  0  0  0  0  0  # atno 8010 bound_to 7997
  139.4834  144.4707  151.8581 H   0  0  0  0  0  0  0  0  0  0  0  0  # atno 10167 bound_to 10162
  157.5962  131.1057  150.7895 H   0  0  0  0  0  0  0  0  0  0  0  0  # atno 10718 bound_to 10713
  153.9392  135.6763  153.4744 H   0  0  0  0  0  0  0  0  0  0  0  0  # atno 10763 bound_to 10752
  153.0940  135.4860  154.8741 H   0  0  0  0  0  0  0  0  0  0  0  0  # atno 10764 bound_to 10752
  154.7386  135.3155  154.8725 H   0  0  0  0  0  0  0  0  0  0  0  0  # atno 10765 bound_to 10752
  140.5843  133.9983  155.8061 H   0  0  0  0  0  0  0  0  0  0  0  0  # atno 11005 bound_to 11000
  145.9944  139.3040  143.0965 LP  0  0  0  0  0  0  0  0  0  0  0  0  # atno 17320 bound_to 7965
  145.8866  140.9330  143.0574 LP  0  0  0  0  0  0  0  0  0  0  0  0  # atno 17321 bound_to 7965
  140.4175  144.2287  150.5887 LP  0  0  0  0  0  0  0  0  0  0  0  0  # atno 17342 bound_to 10162
  140.4906  143.2348  151.8824 LP  0  0  0  0  0  0  0  0  0  0  0  0  # atno 17343 bound_to 10162
  156.8305  130.5014  149.5332 LP  0  0  0  0  0  0  0  0  0  0  0  0  # atno 17370 bound_to 10713
  156.1025  130.5980  150.9917 LP  0  0  0  0  0  0  0  0  0  0  0  0  # atno 17371 bound_to 10713
  141.0976  133.9819  157.3134 LP  0  0  0  0  0  0  0  0  0  0  0  0  # atno 17394 bound_to 11000
  139.9303  135.0200  156.8376 LP  0  0  0  0  0  0  0  0  0  0  0  0  # atno 17395 bound_to 11000

$$$$
