AV-unprocessed.smi:2451|AV-procd|sdf|9673|dock10
  -GOLD-   2272013313D 1   1.00000     0.00000
 Structure written by MMmdl.
 38 39  0  0  0  0  0  0  0  0  1 V2000
  152.8672  142.2019  161.5337 C   0  0  0  0  0  0  0  0  0  0  0  0
  153.3977  142.2510  160.0857 C   0  0  2  0  0  0  0  0  0  0  0  0
  152.4181  142.9879  159.1503 C   0  0  0  0  0  0  0  0  0  0  0  0
  151.1589  142.1566  158.8596 C   0  0  0  0  0  0  0  0  0  0  0  0
  151.5272  140.7886  158.2701 C   0  0  0  0  0  0  0  0  0  0  0  0
  152.5152  140.0204  159.1688 C   0  0  1  0  0  0  0  0  0  0  0  0
  152.9020  138.7821  158.4858 N   0  0  0  0  0  0  0  0  0  0  0  0
  151.8272  137.4348  158.5386 S   0  0  0  0  0  0  0  0  0  0  0  0
  152.4247  136.3567  157.7352 O   0  0  0  0  0  0  0  0  0  0  0  0
  151.4855  137.1962  159.9491 O   0  0  0  0  0  0  0  0  0  0  0  0
  150.3435  138.0738  157.6533 C   0  0  0  0  0  0  0  0  0  0  0  0
  150.6825  138.3130  156.2100 C   0  0  0  0  0  0  0  0  0  0  0  0
  151.1133  137.3704  155.2357 C   0  0  0  0  0  0  0  0  0  0  0  0
  151.2758  138.1264  154.1108 C   0  0  0  0  0  0  0  0  0  0  0  0
  150.9768  139.4256  154.3647 O   0  0  0  0  0  0  0  0  0  0  0  0
  150.6005  139.5350  155.7082 N   0  0  0  0  0  0  0  0  0  0  0  0
  153.7733  140.8636  159.4975 C   0  0  2  0  0  0  0  0  0  0  0  0
  154.7756  140.1073  160.3922 C   0  0  0  0  0  0  0  0  0  0  0  0
  151.9889  141.5642  161.6293 H   0  0  0  0  0  0  0  0  0  0  0  0
  152.5875  143.1977  161.8785 H   0  0  0  0  0  0  0  0  0  0  0  0
  153.6224  141.8300  162.2256 H   0  0  0  0  0  0  0  0  0  0  0  0
  154.3103  142.8479  160.1173 H   0  0  0  0  0  0  0  0  0  0  0  0
  152.1387  143.9511  159.5787 H   0  0  0  0  0  0  0  0  0  0  0  0
  152.9209  143.2123  158.2087 H   0  0  0  0  0  0  0  0  0  0  0  0
  150.5781  142.0219  159.7725 H   0  0  0  0  0  0  0  0  0  0  0  0
  150.5136  142.6955  158.1653 H   0  0  0  0  0  0  0  0  0  0  0  0
  150.6223  140.1986  158.1184 H   0  0  0  0  0  0  0  0  0  0  0  0
  151.9668  140.9357  157.2822 H   0  0  0  0  0  0  0  0  0  0  0  0
  152.0092  139.7645  160.1003 H   0  0  0  0  0  0  0  0  0  0  0  0
  153.2199  138.9674  157.5348 H   0  0  0  0  0  0  0  0  0  0  0  0
  149.5363  137.3492  157.7625 H   0  0  0  0  0  0  0  0  0  0  0  0
  150.0290  138.9989  158.1362 H   0  0  0  0  0  0  0  0  0  0  0  0
  151.2728  136.3079  155.3446 H   0  0  0  0  0  0  0  0  0  0  0  0
  151.5839  137.8984  153.1011 H   0  0  0  0  0  0  0  0  0  0  0  0
  154.2859  141.0572  158.5535 H   0  0  0  0  0  0  0  0  0  0  0  0
  154.3108  139.7643  161.3167 H   0  0  0  0  0  0  0  0  0  0  0  0
  155.6229  140.7403  160.6562 H   0  0  0  0  0  0  0  0  0  0  0  0
  155.1758  139.2282  159.8867 H   0  0  0  0  0  0  0  0  0  0  0  0
  1  2  1  0  0  0  0
  1 19  1  0  0  0  0
  1 20  1  0  0  0  0
  1 21  1  0  0  0  0
  2 17  1  0  0  0  0
  2  3  1  0  0  0  0
  2 22  1  0  0  0  0
  3  4  1  0  0  0  0
  3 23  1  0  0  0  0
  3 24  1  0  0  0  0
  4  5  1  0  0  0  0
  4 25  1  0  0  0  0
  4 26  1  0  0  0  0
  5  6  1  0  0  0  0
  5 27  1  0  0  0  0
  5 28  1  0  0  0  0
  6  7  1  0  0  0  0
  6 17  1  0  0  0  0
  6 29  1  0  0  0  0
  7  8  1  0  0  0  0
  7 30  1  0  0  0  0
  8  9  2  0  0  0  0
  8 10  2  0  0  0  0
  8 11  1  0  0  0  0
 11 12  1  0  0  0  0
 11 31  1  0  0  0  0
 11 32  1  0  0  0  0
 12 16  2  0  0  0  0
 12 13  1  0  0  0  0
 13 14  2  0  0  0  0
 13 33  1  0  0  0  0
 14 15  1  0  0  0  0
 14 34  1  0  0  0  0
 15 16  1  0  0  0  0
 17 18  1  0  0  0  0
 17 35  1  0  0  0  0
 18 36  1  0  0  0  0
 18 37  1  0  0  0  0
 18 38  1  0  0  0  0
M  END
> <s_m_source_file>
AV-unprocessed.smi

> <i_m_source_file_index>
2451

> <i_lp_mmshare_version>
43012

> <i_f3d_flags>
0

> <s_epik_input>
W0NIM11bQ0BASF0xW0NIMl1bQ0gyXVtDSDJdW0NASF0oW0NASF0xW0NIM10pW05IXVMoPU8pKD1PKVtDSDJdYzJbY0hdW2NIXW9uMg==

> <s_epik_cmdline>
J2VwaWtfcHl0aG9uJywgJy1waCcsICc3LjAnLCAnLXRuJywgJzgnLCAnLW1hJywgJzIwMCcsICctbWV0YWxfYmluZGluZycsICctaW1hZScsICc8aW5maWxlLm1hZT4nLCAnLW9tYWUnLCAnPG91dGZpbGUubWFlPic=

> <r_lp_tautomer_probability>
1

> <r_epik_Ionization_Penalty>
8.73668e-05

> <r_epik_Ionization_Penalty_Charging>
0

> <r_epik_Ionization_Penalty_Neutral>
8.73668e-05

> <r_epik_State_Penalty>
-0

> <r_epik_Charging_Adjusted_Penalty>
0

> <i_epik_Tot_Q>
0

> <i_epik_Tot_abs_Q>
0

> <r_epik_Metal_State_Penalty>
0.0716439

> <b_epik_Metal_Only>
0

> <s_lp_Force_Field>
OPLS_2005

> <r_lp_Energy>
8.38809

> <b_lp_Chiralities_Consistent>
1

> <s_lp_Variant>
AV-unprocessed.smi:2451-5

> <Gold.Version>
5.8.1

> <Gold.Id.Protein>
6NUR|6NUR_protein|mol2

> <Gold.PLP.Fitness>
40.9251

> <Gold.PLP.PLP>
-32.4802

> <Gold.PLP.part.hbond>
-2.3500

> <Gold.PLP.part.metal>
0.0000

> <Gold.PLP.part.buried>
-5.2435

> <Gold.PLP.part.nonpolar>
-24.7187

> <Gold.PLP.part.repulsive>
0.1538

> <Gold.PLP.ligand.clash>
0.0000

> <Gold.PLP.ligand.torsion>
0.3455

> <Gold.PLP.Chemscore.Hbond>
2.0000

> <Gold.PLP.Chemscore.CHOScore>
1.0000

> <Gold.PLP.Chemscore.Metal>
0.0000

> <Gold.Chemscore.Hbonds>
donor molecule, donor type, donor heavy atom, donor atom, acceptor molecule, acceptor atom, score
      P1  H  6896  6907       L1    10  1.00
      P1  H  7989  7998       L1    15  1.00
      L1  C    14    34       P1  7949  1.00

> <Gold.PLP.Chemscore.Internal.Correction>
0.1359

> <Gold.Rescore>
     Score         DG    S(hbond)    S(metal)    S(lipo)     H(rot)  DE(clash)    DE(int)     intcor
     17.85     -21.02       2.79        0.00      89.38       1.66       0.71       2.45       ----

> <Gold.Chemscore.Fitness>
17.8546

> <Gold.Chemscore.DG>
-21.0153

> <Gold.Chemscore.ZeroCoef>
-5.4800

> <Gold.Chemscore.Hbond>
2.7917

> <Gold.Chemscore.Metal>
0.0000

> <Gold.Chemscore.Lipo>
89.3808

> <Gold.Chemscore.Internal_Hbond>
0.0000

> <Gold.Chemscore.DEClash>
0.7136

> <Gold.Chemscore.DEInternal>
2.4471

> <Gold.Chemscore.Rot>
1.6588

> <Gold.Chemscore.Internal.Correction>
   9.000000E+99

> <Gold.Chemscore.Hbonds>
donor molecule, donor type, donor heavy atom, donor atom, acceptor molecule, acceptor atom, score
      P1  H  6896  6907       L1    10  0.24
      P1  H  7989  7998       L1    15  0.98

> <Gold.Chemscore.Hbond.Weighted>
-9.3243

> <Gold.Chemscore.Metal.Weighted>
-0.0000

> <Gold.Chemscore.Lipo.Weighted>
-10.4576

> <Gold.Chemscore.Internal_Hbond.Weighted>
0.0000

> <Gold.Chemscore.DEClash.Weighted>
0.7136

> <Gold.Chemscore.DEInternal.Weighted>
2.4471

> <Gold.Chemscore.Rot.Weighted>
4.2466

> <Gold.Chemscore.Internal.Correction.Weighted>
   9.000000E+99

> <Gold.Protein.RotatedTorsions>
[ 6907 6896 6895 6894 ] final   -1.70 input  -60.11 | X-H torsion
[ 7974 7965 7964 7962 ] final  -69.68 input  175.53 | X-H torsion
[ 8008 7997 7996 7995 ] final -157.08 input   59.86 | X-H torsion
[ 10167 10162 10161 10158 ] final   81.87 input  -65.29 | X-H torsion
[ 10718 10713 10712 10709 ] final  121.79 input   66.30 | X-H torsion
[ 10763 10752 10751 10750 ] final  119.26 input  -60.55 | X-H torsion
[ 11005 11000 10999 10996 ] final -178.77 input  -57.11 | X-H torsion

> <Gold.Protein.ActiveResidues>
 VAL166  LYS551  ARG553  GLY616  TRP617  ASP618  TYR619  PRO620  LYS621  CYS622 
 ASP623  PHE694  ASN695  SER759  ASP760  ASP761  ALA762  ILE779  LEU786  VAL792 
 PHE793  MET794  SER795  GLU796  ALA797  LYS798  CYS799  TRP800  GLU811  SER814 

> <Gold.Protein.RotatedAtoms>
  151.5418  135.1068  159.9927 H   0  0  0  0  0  0  0  0  0  0  0  0  # atno 6907 bound_to 6896
  152.4532  133.7666  159.6786 H   0  0  0  0  0  0  0  0  0  0  0  0  # atno 6908 bound_to 6896
  150.8467  133.7784  159.3065 H   0  0  0  0  0  0  0  0  0  0  0  0  # atno 6909 bound_to 6896
  145.7006  140.9118  143.0733 H   0  0  0  0  0  0  0  0  0  0  0  0  # atno 7974 bound_to 7965
  155.7270  140.0797  157.2305 H   0  0  0  0  0  0  0  0  0  0  0  0  # atno 8008 bound_to 7997
  154.4037  140.1602  156.2521 H   0  0  0  0  0  0  0  0  0  0  0  0  # atno 8009 bound_to 7997
  155.9144  140.3402  155.6126 H   0  0  0  0  0  0  0  0  0  0  0  0  # atno 8010 bound_to 7997
  139.9347  144.6129  150.8310 H   0  0  0  0  0  0  0  0  0  0  0  0  # atno 10167 bound_to 10162
  157.5791  131.1076  150.8222 H   0  0  0  0  0  0  0  0  0  0  0  0  # atno 10718 bound_to 10713
  153.5803  135.3485  155.2872 H   0  0  0  0  0  0  0  0  0  0  0  0  # atno 10763 bound_to 10752
  154.8669  135.4180  154.2628 H   0  0  0  0  0  0  0  0  0  0  0  0  # atno 10764 bound_to 10752
  153.3413  135.7050  153.6935 H   0  0  0  0  0  0  0  0  0  0  0  0  # atno 10765 bound_to 10752
  140.4261  134.6561  157.4688 H   0  0  0  0  0  0  0  0  0  0  0  0  # atno 11005 bound_to 11000
  144.6970  139.8943  143.7455 LP  0  0  0  0  0  0  0  0  0  0  0  0  # atno 17320 bound_to 7965
  146.0801  139.3789  143.0470 LP  0  0  0  0  0  0  0  0  0  0  0  0  # atno 17321 bound_to 7965
  140.7628  143.3206  151.2630 LP  0  0  0  0  0  0  0  0  0  0  0  0  # atno 17342 bound_to 10162
  139.6753  143.9948  152.2777 LP  0  0  0  0  0  0  0  0  0  0  0  0  # atno 17343 bound_to 10162
  156.8673  130.5133  149.5299 LP  0  0  0  0  0  0  0  0  0  0  0  0  # atno 17370 bound_to 10713
  156.0836  130.5840  150.9608 LP  0  0  0  0  0  0  0  0  0  0  0  0  # atno 17371 bound_to 10713
  140.0166  134.6609  155.9300 LP  0  0  0  0  0  0  0  0  0  0  0  0  # atno 17394 bound_to 11000
  141.1764  133.6541  156.4847 LP  0  0  0  0  0  0  0  0  0  0  0  0  # atno 17395 bound_to 11000

$$$$
