AV-unprocessed.smi:184|AV-procd|sdf|1462|dock9
  -GOLD-   2262019273D 1   1.00000     0.00000
 Structure written by MMmdl.
 54 58  0  0  0  0  0  0  0  0  1 V2000
  154.4234  138.7983  161.6376 O   0  0  0  0  0  0  0  0  0  0  0  0
  153.9643  139.5329  160.7661 C   0  0  0  0  0  0  0  0  0  0  0  0
  153.6137  138.9451  159.3870 C   0  0  0  0  0  0  0  0  0  0  0  0
  153.0337  139.8961  158.4233 N   0  0  0  0  0  0  0  0  0  0  0  0
  152.4587  139.2389  157.3874 C   0  0  0  0  0  0  0  0  0  0  0  0
  152.7162  139.6231  156.1090 N   0  0  0  0  0  0  0  0  0  0  0  0
  152.1308  138.9882  155.0892 C   0  0  0  0  0  0  0  0  0  0  0  0
  151.2677  137.9706  155.1243 N   0  0  0  0  0  0  0  0  0  0  0  0
  150.9992  137.5909  156.4064 C   0  0  0  0  0  0  0  0  0  0  0  0
  151.5433  138.1712  157.5863 C   0  0  0  0  0  0  0  0  0  0  0  0
  151.0376  137.5311  158.7101 N   0  0  0  0  0  0  0  0  0  0  0  0
  150.2395  136.6209  158.2216 C   0  0  0  0  0  0  0  0  0  0  0  0
  150.1637  136.5790  156.8468 N   0  0  0  0  0  0  0  0  0  0  0  0
  149.3583  135.6684  156.0453 C   0  0  0  0  0  0  0  0  0  0  0  0
  150.1884  134.6929  155.1666 C   0  0  0  0  0  0  0  0  0  0  0  0
  150.9664  135.4749  154.2791 O   0  0  0  0  0  0  0  0  0  0  0  0
  151.1678  133.8535  156.0115 C   0  0  0  0  0  0  0  0  0  0  0  0
  150.4417  132.7360  156.7820 C   0  0  0  0  0  0  0  0  0  0  0  0
  149.7064  131.9179  155.8782 O   0  0  0  0  0  0  0  0  0  0  0  0
  148.6938  132.6315  155.1771 C   0  0  0  0  0  0  0  0  0  0  0  0
  149.3332  133.7321  154.3125 C   0  0  0  0  0  0  0  0  0  0  0  0
  152.3420  141.0755  158.9584 C   0  0  2  0  0  0  0  0  0  0  0  0
  151.9280  142.1038  157.8761 C   0  0  0  0  0  0  0  0  0  0  0  0
  151.2231  143.3181  158.5053 C   0  0  0  0  0  0  0  0  0  0  0  0
  152.0937  143.9834  159.5831 C   0  0  0  0  0  0  0  0  0  0  0  0
  152.5449  142.9674  160.6448 C   0  0  0  0  0  0  0  0  0  0  0  0
  153.2592  141.7743  159.9866 C   0  0  1  0  0  0  0  0  0  0  0  0
  153.7418  140.8370  160.9928 N   0  0  0  0  0  0  0  0  0  0  0  0
  154.5244  138.5227  158.9602 H   0  0  0  0  0  0  0  0  0  0  0  0
  152.9271  138.1121  159.5515 H   0  0  0  0  0  0  0  0  0  0  0  0
  152.3896  139.3481  154.1044 H   0  0  0  0  0  0  0  0  0  0  0  0
  149.6841  135.9447  158.8554 H   0  0  0  0  0  0  0  0  0  0  0  0
  148.7146  135.1057  156.7232 H   0  0  0  0  0  0  0  0  0  0  0  0
  148.6874  136.2670  155.4298 H   0  0  0  0  0  0  0  0  0  0  0  0
  150.4037  135.7969  153.5915 H   0  0  0  0  0  0  0  0  0  0  0  0
  151.9102  133.3890  155.3604 H   0  0  0  0  0  0  0  0  0  0  0  0
  151.7236  134.4886  156.7021 H   0  0  0  0  0  0  0  0  0  0  0  0
  151.1691  132.1127  157.3023 H   0  0  0  0  0  0  0  0  0  0  0  0
  149.7774  133.1435  157.5449 H   0  0  0  0  0  0  0  0  0  0  0  0
  148.1478  131.9320  154.5441 H   0  0  0  0  0  0  0  0  0  0  0  0
  147.9730  133.0457  155.8821 H   0  0  0  0  0  0  0  0  0  0  0  0
  148.5677  134.2688  153.7521 H   0  0  0  0  0  0  0  0  0  0  0  0
  149.9649  133.2490  153.5653 H   0  0  0  0  0  0  0  0  0  0  0  0
  151.4426  140.7299  159.4728 H   0  0  0  0  0  0  0  0  0  0  0  0
  152.8095  142.4348  157.3250 H   0  0  0  0  0  0  0  0  0  0  0  0
  151.2571  141.6605  157.1411 H   0  0  0  0  0  0  0  0  0  0  0  0
  150.9724  144.0442  157.7313 H   0  0  0  0  0  0  0  0  0  0  0  0
  150.2778  142.9997  158.9469 H   0  0  0  0  0  0  0  0  0  0  0  0
  152.9702  144.4330  159.1149 H   0  0  0  0  0  0  0  0  0  0  0  0
  151.5442  144.7982  160.0555 H   0  0  0  0  0  0  0  0  0  0  0  0
  153.2072  143.4557  161.3607 H   0  0  0  0  0  0  0  0  0  0  0  0
  151.6799  142.6175  161.2101 H   0  0  0  0  0  0  0  0  0  0  0  0
  154.1447  142.1486  159.4690 H   0  0  0  0  0  0  0  0  0  0  0  0
  153.9593  141.2080  161.9065 H   0  0  0  0  0  0  0  0  0  0  0  0
  1  2  2  0  0  0  0
  2 28  1  0  0  0  0
  2  3  1  0  0  0  0
  3  4  1  0  0  0  0
  3 29  1  0  0  0  0
  3 30  1  0  0  0  0
  4  5  1  0  0  0  0
  4 22  1  0  0  0  0
  5 10  1  0  0  0  0
  5  6  2  0  0  0  0
  6  7  1  0  0  0  0
  7  8  2  0  0  0  0
  7 31  1  0  0  0  0
  8  9  1  0  0  0  0
  9 13  1  0  0  0  0
  9 10  2  0  0  0  0
 10 11  1  0  0  0  0
 11 12  2  0  0  0  0
 12 13  1  0  0  0  0
 12 32  1  0  0  0  0
 13 14  1  0  0  0  0
 14 15  1  0  0  0  0
 14 33  1  0  0  0  0
 14 34  1  0  0  0  0
 15 21  1  0  0  0  0
 15 16  1  0  0  0  0
 15 17  1  0  0  0  0
 16 35  1  0  0  0  0
 17 18  1  0  0  0  0
 17 36  1  0  0  0  0
 17 37  1  0  0  0  0
 18 19  1  0  0  0  0
 18 38  1  0  0  0  0
 18 39  1  0  0  0  0
 19 20  1  0  0  0  0
 20 21  1  0  0  0  0
 20 40  1  0  0  0  0
 20 41  1  0  0  0  0
 21 42  1  0  0  0  0
 21 43  1  0  0  0  0
 22 27  1  0  0  0  0
 22 23  1  0  0  0  0
 22 44  1  0  0  0  0
 23 24  1  0  0  0  0
 23 45  1  0  0  0  0
 23 46  1  0  0  0  0
 24 25  1  0  0  0  0
 24 47  1  0  0  0  0
 24 48  1  0  0  0  0
 25 26  1  0  0  0  0
 25 49  1  0  0  0  0
 25 50  1  0  0  0  0
 26 27  1  0  0  0  0
 26 51  1  0  0  0  0
 26 52  1  0  0  0  0
 27 28  1  0  0  0  0
 27 53  1  0  0  0  0
 28 54  1  0  0  0  0
M  END
> <s_m_source_file>
AV-unprocessed.smi

> <i_m_source_file_index>
184

> <i_lp_mmshare_version>
43012

> <i_f3d_flags>
0

> <s_epik_input>
W0NIMl0xW0NIMl1bQ0gyXVtDSDJdW0NASF0oW0NASF0xMilbTkhdQyg9TylbQ0gyXU4yYyhuW2NIXW4zKWMoYzM0KW5bY0hdbjRbQ0gyXUM1KFtPSF0pW0NIMl1bQ0gyXU9bQ0gyXVtDSDJdNQ==

> <s_epik_cmdline>
J2VwaWtfcHl0aG9uJywgJy1waCcsICc3LjAnLCAnLXRuJywgJzgnLCAnLW1hJywgJzIwMCcsICctbWV0YWxfYmluZGluZycsICctaW1hZScsICc8aW5maWxlLm1hZT4nLCAnLW9tYWUnLCAnPG91dGZpbGUubWFlPic=

> <r_lp_tautomer_probability>
1

> <r_epik_Ionization_Penalty>
0.000822761

> <r_epik_Ionization_Penalty_Charging>
0

> <r_epik_Ionization_Penalty_Neutral>
0.000822761

> <r_epik_State_Penalty>
0.000403048

> <r_epik_Charging_Adjusted_Penalty>
0.000403048

> <i_epik_Tot_Q>
0

> <i_epik_Tot_abs_Q>
0

> <r_epik_Metal_State_Penalty>
-0

> <b_epik_Metal_Only>
0

> <s_lp_Force_Field>
OPLS_2005

> <r_lp_Energy>
34.5881

> <b_lp_Chiralities_Consistent>
1

> <s_lp_Variant>
AV-unprocessed.smi:184-2

> <Gold.Version>
5.8.1

> <Gold.Id.Protein>
6NUR|6NUR_protein|mol2

> <Gold.PLP.Fitness>
46.6191

> <Gold.PLP.PLP>
-40.6466

> <Gold.PLP.part.hbond>
-4.3434

> <Gold.PLP.part.metal>
0.0000

> <Gold.PLP.part.buried>
-3.9060

> <Gold.PLP.part.nonpolar>
-32.0541

> <Gold.PLP.part.repulsive>
0.0898

> <Gold.PLP.ligand.clash>
0.0000

> <Gold.PLP.ligand.torsion>
0.5187

> <Gold.PLP.Chemscore.Hbond>
2.2106

> <Gold.PLP.Chemscore.CHOScore>
0.0000

> <Gold.PLP.Chemscore.Metal>
0.0000

> <Gold.Chemscore.Hbonds>
donor molecule, donor type, donor heavy atom, donor atom, acceptor molecule, acceptor atom, score
      L1  H    16    35       P1  7948  0.05
      P1  H  7997  8009       L1     6  1.00
      P1  H 10752 10764       L1    16  1.00

> <Gold.PLP.Chemscore.Internal.Correction>
0.3780

> <Gold.Rescore>
     Score         DG    S(hbond)    S(metal)    S(lipo)     H(rot)  DE(clash)    DE(int)     intcor
     15.50     -17.10       1.73        0.00      97.34       2.17       0.04       1.56       ----

> <Gold.Chemscore.Fitness>
15.4962

> <Gold.Chemscore.DG>
-17.1009

> <Gold.Chemscore.ZeroCoef>
-5.4800

> <Gold.Chemscore.Hbond>
1.7320

> <Gold.Chemscore.Metal>
0.0000

> <Gold.Chemscore.Lipo>
97.3439

> <Gold.Chemscore.Internal_Hbond>
0.0000

> <Gold.Chemscore.DEClash>
0.0410

> <Gold.Chemscore.DEInternal>
1.5637

> <Gold.Chemscore.Rot>
2.1693

> <Gold.Chemscore.Internal.Correction>
   9.000000E+99

> <Gold.Chemscore.Hbonds>
donor molecule, donor type, donor heavy atom, donor atom, acceptor molecule, acceptor atom, score
      P1  H  7997  8009       L1     6  0.26
      P1  H 10752 10764       L1    16  0.94

> <Gold.Chemscore.Hbond.Weighted>
-5.7850

> <Gold.Chemscore.Metal.Weighted>
-0.0000

> <Gold.Chemscore.Lipo.Weighted>
-11.3892

> <Gold.Chemscore.Internal_Hbond.Weighted>
0.0000

> <Gold.Chemscore.DEClash.Weighted>
0.0410

> <Gold.Chemscore.DEInternal.Weighted>
1.5637

> <Gold.Chemscore.Rot.Weighted>
5.5533

> <Gold.Chemscore.Internal.Correction.Weighted>
   9.000000E+99

> <Gold.Protein.RotatedTorsions>
[ 6907 6896 6895 6894 ] final -154.29 input  -60.11 | X-H torsion
[ 7974 7965 7964 7962 ] final   85.97 input  175.53 | X-H torsion
[ 8008 7997 7996 7995 ] final -159.30 input   59.86 | X-H torsion
[ 10167 10162 10161 10158 ] final  -69.12 input  -65.29 | X-H torsion
[ 10718 10713 10712 10709 ] final -109.07 input   66.30 | X-H torsion
[ 10763 10752 10751 10750 ] final  -70.57 input  -60.55 | X-H torsion
[ 11005 11000 10999 10996 ] final  -72.28 input  -57.11 | X-H torsion

> <Gold.Protein.ActiveResidues>
 VAL166  LYS551  ARG553  GLY616  TRP617  ASP618  TYR619  PRO620  LYS621  CYS622 
 ASP623  PHE694  ASN695  SER759  ASP760  ASP761  ALA762  ILE779  LEU786  VAL792 
 PHE793  MET794  SER795  GLU796  ALA797  LYS798  CYS799  TRP800  GLU811  SER814 

> <Gold.Protein.RotatedAtoms>
  151.2553  133.4329  159.2613 H   0  0  0  0  0  0  0  0  0  0  0  0  # atno 6907 bound_to 6896
  151.0580  134.9718  159.8256 H   0  0  0  0  0  0  0  0  0  0  0  0  # atno 6908 bound_to 6896
  152.5393  134.2505  159.8949 H   0  0  0  0  0  0  0  0  0  0  0  0  # atno 6909 bound_to 6896
  145.5785  139.2322  143.2366 H   0  0  0  0  0  0  0  0  0  0  0  0  # atno 7974 bound_to 7965
  155.7605  140.0838  157.2157 H   0  0  0  0  0  0  0  0  0  0  0  0  # atno 8008 bound_to 7997
  154.4004  140.1544  156.2884 H   0  0  0  0  0  0  0  0  0  0  0  0  # atno 8009 bound_to 7997
  155.8844  140.3419  155.5913 H   0  0  0  0  0  0  0  0  0  0  0  0  # atno 8010 bound_to 7997
  140.5455  143.2313  151.7009 H   0  0  0  0  0  0  0  0  0  0  0  0  # atno 10167 bound_to 10162
  156.0518  130.5745  150.8049 H   0  0  0  0  0  0  0  0  0  0  0  0  # atno 10718 bound_to 10713
  154.4195  135.5990  153.6001 H   0  0  0  0  0  0  0  0  0  0  0  0  # atno 10763 bound_to 10752
  152.9793  135.5949  154.3972 H   0  0  0  0  0  0  0  0  0  0  0  0  # atno 10764 bound_to 10752
  154.3795  135.2841  155.2198 H   0  0  0  0  0  0  0  0  0  0  0  0  # atno 10765 bound_to 10752
  141.1606  133.6842  156.7034 H   0  0  0  0  0  0  0  0  0  0  0  0  # atno 11005 bound_to 11000
  146.1733  140.6611  142.9223 LP  0  0  0  0  0  0  0  0  0  0  0  0  # atno 17320 bound_to 7965
  144.7405  140.4928  143.6873 LP  0  0  0  0  0  0  0  0  0  0  0  0  # atno 17321 bound_to 7965
  139.5006  144.3901  152.0289 LP  0  0  0  0  0  0  0  0  0  0  0  0  # atno 17342 bound_to 10162
  140.3013  144.3643  150.6059 LP  0  0  0  0  0  0  0  0  0  0  0  0  # atno 17343 bound_to 10162
  157.5451  131.0942  150.9774 LP  0  0  0  0  0  0  0  0  0  0  0  0  # atno 17370 bound_to 10713
  157.0047  130.5613  149.5315 LP  0  0  0  0  0  0  0  0  0  0  0  0  # atno 17371 bound_to 10713
  140.2941  134.8217  157.4042 LP  0  0  0  0  0  0  0  0  0  0  0  0  # atno 17394 bound_to 11000
  140.1320  134.5083  155.8098 LP  0  0  0  0  0  0  0  0  0  0  0  0  # atno 17395 bound_to 11000

$$$$
