AV-unprocessed.smi:2273|AV-procd|sdf|9164|dock3
  -GOLD-   2272012373D 1   1.00000     0.00000
 Structure written by MMmdl.
 53 54  0  0  0  0  0  0  0  0  1 V2000
  149.6700  140.1504  157.0822 C   0  0  0  0  0  0  0  0  0  0  0  0
  150.3001  140.4466  155.7159 C   0  0  0  0  0  0  0  0  0  0  0  0
  149.5781  139.8407  154.4818 C   0  0  0  0  0  0  0  0  0  0  0  0
  148.1450  140.4262  154.3654 C   0  0  0  0  0  0  0  0  0  0  0  0
  148.0708  141.9574  154.2552 C   0  0  0  0  0  0  0  0  0  0  0  0
  149.5690  138.2817  154.5194 C   0  0  2  0  0  0  0  0  0  0  0  0
  148.4357  137.6982  155.4008 C   0  0  0  0  0  0  0  0  0  0  0  0
  148.4470  136.1579  155.3986 C   0  0  1  0  0  0  0  0  0  0  0  0
  148.0427  135.6218  154.0945 N   0  0  0  0  0  0  0  0  0  0  0  0
  147.1134  134.6881  153.8225 C   0  0  0  0  0  0  0  0  0  0  0  0
  146.4695  134.1474  154.7201 O   0  0  0  0  0  0  0  0  0  0  0  0
  146.9721  134.4069  152.5110 N   0  0  0  0  0  0  0  0  0  0  0  0
  146.0940  133.4702  151.9422 C   0  0  0  0  0  0  0  0  0  0  0  0
  145.0746  133.9179  151.1626 C   0  0  0  0  0  0  0  0  0  0  0  0
  144.8882  135.3952  150.8568 C   0  0  0  0  0  0  0  0  0  0  0  0
  144.1569  132.9596  150.5825 C   0  0  0  0  0  0  0  0  0  0  0  0
  144.3232  131.6539  150.8311 C   0  0  0  0  0  0  0  0  0  0  0  0
  145.3554  131.1876  151.6572 N   0  0  0  0  0  0  0  0  0  0  0  0
  145.4432  129.7423  151.8813 C   0  0  0  0  0  0  0  0  0  0  0  0
  146.2350  132.0300  152.2717 C   0  0  0  0  0  0  0  0  0  0  0  0
  147.0738  131.5952  153.0642 O   0  0  0  0  0  0  0  0  0  0  0  0
  149.8520  135.6600  155.7673 C   0  0  0  0  0  0  0  0  0  0  0  0
  150.9318  136.3612  154.9280 C   0  0  0  0  0  0  0  0  0  0  0  0
  150.7950  137.7733  155.0480 O   0  0  0  0  0  0  0  0  0  0  0  0
  150.3149  140.5065  157.8859 H   0  0  0  0  0  0  0  0  0  0  0  0
  149.5255  139.0797  157.2267 H   0  0  0  0  0  0  0  0  0  0  0  0
  148.7101  140.6529  157.2002 H   0  0  0  0  0  0  0  0  0  0  0  0
  150.3875  141.5269  155.5945 H   0  0  0  0  0  0  0  0  0  0  0  0
  151.3201  140.0679  155.7606 H   0  0  0  0  0  0  0  0  0  0  0  0
  150.1140  140.1531  153.5844 H   0  0  0  0  0  0  0  0  0  0  0  0
  147.6634  140.0351  153.4691 H   0  0  0  0  0  0  0  0  0  0  0  0
  147.5374  140.0925  155.2074 H   0  0  0  0  0  0  0  0  0  0  0  0
  147.0527  142.2744  154.0290 H   0  0  0  0  0  0  0  0  0  0  0  0
  148.7164  142.3284  153.4588 H   0  0  0  0  0  0  0  0  0  0  0  0
  148.3564  142.4497  155.1843 H   0  0  0  0  0  0  0  0  0  0  0  0
  149.4758  137.9185  153.4943 H   0  0  0  0  0  0  0  0  0  0  0  0
  148.5701  138.0490  156.4250 H   0  0  0  0  0  0  0  0  0  0  0  0
  147.4562  138.0590  155.0972 H   0  0  0  0  0  0  0  0  0  0  0  0
  147.7586  135.7917  156.1616 H   0  0  0  0  0  0  0  0  0  0  0  0
  148.4951  136.0420  153.2954 H   0  0  0  0  0  0  0  0  0  0  0  0
  147.6374  134.8253  151.8776 H   0  0  0  0  0  0  0  0  0  0  0  0
  143.9806  135.5675  150.2777 H   0  0  0  0  0  0  0  0  0  0  0  0
  145.7319  135.7671  150.2767 H   0  0  0  0  0  0  0  0  0  0  0  0
  144.8133  135.9768  151.7762 H   0  0  0  0  0  0  0  0  0  0  0  0
  143.3484  133.2879  149.9458 H   0  0  0  0  0  0  0  0  0  0  0  0
  143.6733  130.8928  150.4246 H   0  0  0  0  0  0  0  0  0  0  0  0
  146.4480  129.3774  151.6625 H   0  0  0  0  0  0  0  0  0  0  0  0
  144.7536  129.1765  151.2539 H   0  0  0  0  0  0  0  0  0  0  0  0
  145.2136  129.5041  152.9208 H   0  0  0  0  0  0  0  0  0  0  0  0
  150.0377  135.8691  156.8217 H   0  0  0  0  0  0  0  0  0  0  0  0
  149.9211  134.5776  155.6527 H   0  0  0  0  0  0  0  0  0  0  0  0
  151.9221  136.0734  155.2806 H   0  0  0  0  0  0  0  0  0  0  0  0
  150.8719  136.0634  153.8802 H   0  0  0  0  0  0  0  0  0  0  0  0
  1  2  1  0  0  0  0
  1 25  1  0  0  0  0
  1 26  1  0  0  0  0
  1 27  1  0  0  0  0
  2  3  1  0  0  0  0
  2 28  1  0  0  0  0
  2 29  1  0  0  0  0
  3  4  1  0  0  0  0
  3  6  1  0  0  0  0
  3 30  1  0  0  0  0
  4  5  1  0  0  0  0
  4 31  1  0  0  0  0
  4 32  1  0  0  0  0
  5 33  1  0  0  0  0
  5 34  1  0  0  0  0
  5 35  1  0  0  0  0
  6 24  1  0  0  0  0
  6  7  1  0  0  0  0
  6 36  1  0  0  0  0
  7  8  1  0  0  0  0
  7 37  1  0  0  0  0
  7 38  1  0  0  0  0
  8  9  1  0  0  0  0
  8 22  1  0  0  0  0
  8 39  1  0  0  0  0
  9 10  1  0  0  0  0
  9 40  1  0  0  0  0
 10 11  2  0  0  0  0
 10 12  1  0  0  0  0
 12 13  1  0  0  0  0
 12 41  1  0  0  0  0
 13 20  1  0  0  0  0
 13 14  2  0  0  0  0
 14 15  1  0  0  0  0
 14 16  1  0  0  0  0
 15 42  1  0  0  0  0
 15 43  1  0  0  0  0
 15 44  1  0  0  0  0
 16 17  2  0  0  0  0
 16 45  1  0  0  0  0
 17 18  1  0  0  0  0
 17 46  1  0  0  0  0
 18 19  1  0  0  0  0
 18 20  1  0  0  0  0
 19 47  1  0  0  0  0
 19 48  1  0  0  0  0
 19 49  1  0  0  0  0
 20 21  2  0  0  0  0
 22 23  1  0  0  0  0
 22 50  1  0  0  0  0
 22 51  1  0  0  0  0
 23 24  1  0  0  0  0
 23 52  1  0  0  0  0
 23 53  1  0  0  0  0
M  END
> <s_m_source_file>
AV-unprocessed.smi

> <i_m_source_file_index>
2273

> <i_lp_mmshare_version>
43012

> <i_f3d_flags>
0

> <s_epik_input>
W0NIM11bQ0gyXVtDSF0oW0NIMl1bQ0gzXSlbQ0BASF0xW0NIMl1bQ0BIXShbQ0gyXVtDSDJdTzEpW05IXUMoPU8pW05IXWMyYyhbQ0gzXSlbY0hdW2NIXW4oW0NIM10pYzI9Tw==

> <s_epik_cmdline>
J2VwaWtfcHl0aG9uJywgJy1waCcsICc3LjAnLCAnLXRuJywgJzgnLCAnLW1hJywgJzIwMCcsICctbWV0YWxfYmluZGluZycsICctaW1hZScsICc8aW5maWxlLm1hZT4nLCAnLW9tYWUnLCAnPG91dGZpbGUubWFlPic=

> <r_lp_tautomer_probability>
1

> <r_epik_Ionization_Penalty>
2.66245e-05

> <r_epik_Ionization_Penalty_Charging>
6.91055e-06

> <r_epik_Ionization_Penalty_Neutral>
1.97139e-05

> <r_epik_State_Penalty>
-0

> <r_epik_Charging_Adjusted_Penalty>
6.91055e-06

> <i_epik_Tot_Q>
0

> <i_epik_Tot_abs_Q>
0

> <r_epik_Metal_State_Penalty>
-0

> <b_epik_Metal_Only>
0

> <s_lp_Force_Field>
OPLS_2005

> <r_lp_Energy>
42.8548

> <b_lp_Chiralities_Consistent>
1

> <s_lp_Variant>
AV-unprocessed.smi:2273-1

> <Gold.Version>
5.8.1

> <Gold.Id.Protein>
6NUR|6NUR_protein|mol2

> <Gold.PLP.Fitness>
43.3420

> <Gold.PLP.PLP>
-39.4584

> <Gold.PLP.part.hbond>
-1.8791

> <Gold.PLP.part.metal>
0.0000

> <Gold.PLP.part.buried>
-6.6114

> <Gold.PLP.part.nonpolar>
-32.0674

> <Gold.PLP.part.repulsive>
0.2973

> <Gold.PLP.ligand.clash>
0.0000

> <Gold.PLP.ligand.torsion>
1.1114

> <Gold.PLP.Chemscore.Hbond>
1.8480

> <Gold.PLP.Chemscore.CHOScore>
0.0000

> <Gold.PLP.Chemscore.Metal>
0.0000

> <Gold.Chemscore.Hbonds>
donor molecule, donor type, donor heavy atom, donor atom, acceptor molecule, acceptor atom, score
      L1  H     9    40       P1  7948  0.94
      L1  H    12    41       P1  7948  0.82

> <Gold.PLP.Chemscore.Internal.Correction>
0.5623

> <Gold.Rescore>
     Score         DG    S(hbond)    S(metal)    S(lipo)     H(rot)  DE(clash)    DE(int)     intcor
     16.82     -17.82       1.68        0.00      88.79       1.42       0.00       1.00       ----

> <Gold.Chemscore.Fitness>
16.8182

> <Gold.Chemscore.DG>
-17.8213

> <Gold.Chemscore.ZeroCoef>
-5.4800

> <Gold.Chemscore.Hbond>
1.6758

> <Gold.Chemscore.Metal>
0.0000

> <Gold.Chemscore.Lipo>
88.7904

> <Gold.Chemscore.Internal_Hbond>
0.0000

> <Gold.Chemscore.DEClash>
0.0040

> <Gold.Chemscore.DEInternal>
0.9991

> <Gold.Chemscore.Rot>
1.4236

> <Gold.Chemscore.Internal.Correction>
   9.000000E+99

> <Gold.Chemscore.Hbonds>
donor molecule, donor type, donor heavy atom, donor atom, acceptor molecule, acceptor atom, score
      L1  H     9    40       P1  7948  0.89
      L1  H    12    41       P1  7948  0.49

> <Gold.Chemscore.Hbond.Weighted>
-5.5973

> <Gold.Chemscore.Metal.Weighted>
-0.0000

> <Gold.Chemscore.Lipo.Weighted>
-10.3885

> <Gold.Chemscore.Internal_Hbond.Weighted>
0.0000

> <Gold.Chemscore.DEClash.Weighted>
0.0040

> <Gold.Chemscore.DEInternal.Weighted>
0.9991

> <Gold.Chemscore.Rot.Weighted>
3.6445

> <Gold.Chemscore.Internal.Correction.Weighted>
   9.000000E+99

> <Gold.Protein.RotatedTorsions>
[ 6907 6896 6895 6894 ] final   14.00 input  -60.11 | X-H torsion
[ 7974 7965 7964 7962 ] final   -6.03 input  175.53 | X-H torsion
[ 8008 7997 7996 7995 ] final  -46.03 input   59.86 | X-H torsion
[ 10167 10162 10161 10158 ] final -175.84 input  -65.29 | X-H torsion
[ 10718 10713 10712 10709 ] final  144.97 input   66.30 | X-H torsion
[ 10763 10752 10751 10750 ] final -119.08 input  -60.55 | X-H torsion
[ 11005 11000 10999 10996 ] final   21.37 input  -57.11 | X-H torsion

> <Gold.Protein.ActiveResidues>
 VAL166  LYS551  ARG553  GLY616  TRP617  ASP618  TYR619  PRO620  LYS621  CYS622 
 ASP623  PHE694  ASN695  SER759  ASP760  ASP761  ALA762  ILE779  LEU786  VAL792 
 PHE793  MET794  SER795  GLU796  ALA797  LYS798  CYS799  TRP800  GLU811  SER814 

> <Gold.Protein.RotatedAtoms>
  151.7953  135.0724  160.0392 H   0  0  0  0  0  0  0  0  0  0  0  0  # atno 6907 bound_to 6896
  152.3127  133.5766  159.5700 H   0  0  0  0  0  0  0  0  0  0  0  0  # atno 6908 bound_to 6896
  150.7328  134.0044  159.3690 H   0  0  0  0  0  0  0  0  0  0  0  0  # atno 6909 bound_to 6896
  146.2340  140.2110  142.8335 H   0  0  0  0  0  0  0  0  0  0  0  0  # atno 7974 bound_to 7965
  154.4004  140.1382  156.3944 H   0  0  0  0  0  0  0  0  0  0  0  0  # atno 8008 bound_to 7997
  155.7884  140.3479  155.5315 H   0  0  0  0  0  0  0  0  0  0  0  0  # atno 8009 bound_to 7997
  155.8604  140.0955  157.1607 H   0  0  0  0  0  0  0  0  0  0  0  0  # atno 8010 bound_to 7997
  139.5560  144.1988  152.1160 H   0  0  0  0  0  0  0  0  0  0  0  0  # atno 10167 bound_to 10162
  157.3509  131.0950  151.1001 H   0  0  0  0  0  0  0  0  0  0  0  0  # atno 10718 bound_to 10713
  154.8607  135.4251  154.2241 H   0  0  0  0  0  0  0  0  0  0  0  0  # atno 10763 bound_to 10752
  153.3240  135.6984  153.7011 H   0  0  0  0  0  0  0  0  0  0  0  0  # atno 10764 bound_to 10752
  153.6054  135.3529  155.2934 H   0  0  0  0  0  0  0  0  0  0  0  0  # atno 10765 bound_to 10752
  140.3923  134.1806  155.7663 H   0  0  0  0  0  0  0  0  0  0  0  0  # atno 11005 bound_to 11000
  144.9706  140.8365  143.5457 LP  0  0  0  0  0  0  0  0  0  0  0  0  # atno 17320 bound_to 7965
  145.2091  139.2213  143.5152 LP  0  0  0  0  0  0  0  0  0  0  0  0  # atno 17321 bound_to 7965
  140.1492  144.5130  150.6697 LP  0  0  0  0  0  0  0  0  0  0  0  0  # atno 17342 bound_to 10162
  140.6833  143.2337  151.5328 LP  0  0  0  0  0  0  0  0  0  0  0  0  # atno 17343 bound_to 10162
  157.2177  130.6467  149.5799 LP  0  0  0  0  0  0  0  0  0  0  0  0  # atno 17370 bound_to 10713
  155.9721  130.4639  150.6199 LP  0  0  0  0  0  0  0  0  0  0  0  0  # atno 17371 bound_to 10713
  141.1886  133.8256  157.0987 LP  0  0  0  0  0  0  0  0  0  0  0  0  # atno 17394 bound_to 11000
  140.0397  134.9860  157.0939 LP  0  0  0  0  0  0  0  0  0  0  0  0  # atno 17395 bound_to 11000

$$$$
