AV-unprocessed.smi:686|AV-procd|sdf|3338|dock9
  -GOLD-   22720 0313D 1   1.00000     0.00000
 Structure written by MMmdl.
 41 42  0  0  0  0  0  0  0  0  2 V2000
  147.6611  140.0102  153.4731 C   0  0  0  0  0  0  0  0  0  0  0  0
  148.5348  141.0207  154.2356 C   0  0  1  0  0  0  0  0  0  0  0  0
  148.0558  141.3543  155.6463 C   0  0  0  0  0  0  0  0  0  0  0  0
  149.2041  142.0235  156.2982 N   0  3  1  0  0  0  0  0  0  0  0  0
  149.2164  141.9730  157.7878 C   0  0  0  0  0  0  0  0  0  0  0  0
  147.9331  142.5752  158.3923 C   0  0  0  0  0  0  0  0  0  0  0  0
  150.4438  142.7102  158.3576 C   0  0  0  0  0  0  0  0  0  0  0  0
  150.4364  141.5161  155.6392 C   0  0  0  0  0  0  0  0  0  0  0  0
  150.0000  140.6292  154.4582 C   0  0  1  0  0  0  0  0  0  0  0  0
  150.1179  139.2096  154.8122 N   0  0  0  0  0  0  0  0  0  0  0  0
  151.6752  138.5464  155.1465 S   0  0  0  0  0  0  0  0  0  0  0  0
  151.8422  137.3766  154.2711 O   0  0  0  0  0  0  0  0  0  0  0  0
  152.6475  139.6493  155.0974 O   0  0  0  0  0  0  0  0  0  0  0  0
  151.4857  137.9644  156.8864 C   0  0  0  0  0  0  0  0  0  0  0  0
  152.5328  138.6013  157.7565 C   0  0  0  0  0  0  0  0  0  0  0  0
  152.3511  139.4810  158.8591 C   0  0  0  0  0  0  0  0  0  0  0  0
  153.6257  139.7398  159.2741 C   0  0  0  0  0  0  0  0  0  0  0  0
  154.5215  139.0794  158.4977 O   0  0  0  0  0  0  0  0  0  0  0  0
  153.8148  138.3576  157.5294 N   0  0  0  0  0  0  0  0  0  0  0  0
  147.5513  139.0725  154.0184 H   0  0  0  0  0  0  0  0  0  0  0  0
  148.0903  139.7817  152.4973 H   0  0  0  0  0  0  0  0  0  0  0  0
  146.6605  140.4108  153.3091 H   0  0  0  0  0  0  0  0  0  0  0  0
  148.5336  141.9496  153.6624 H   0  0  0  0  0  0  0  0  0  0  0  0
  147.1698  141.9901  155.6401 H   0  0  0  0  0  0  0  0  0  0  0  0
  147.8116  140.4346  156.1813 H   0  0  0  0  0  0  0  0  0  0  0  0
  149.2715  140.9260  158.0905 H   0  0  0  0  0  0  0  0  0  0  0  0
  147.9802  142.5777  159.4816 H   0  0  0  0  0  0  0  0  0  0  0  0
  147.0438  142.0071  158.1193 H   0  0  0  0  0  0  0  0  0  0  0  0
  147.7866  143.6056  158.0666 H   0  0  0  0  0  0  0  0  0  0  0  0
  150.4409  142.6878  159.4477 H   0  0  0  0  0  0  0  0  0  0  0  0
  150.4539  143.7567  158.0507 H   0  0  0  0  0  0  0  0  0  0  0  0
  151.3834  142.2618  158.0361 H   0  0  0  0  0  0  0  0  0  0  0  0
  151.0099  142.3725  155.2837 H   0  0  0  0  0  0  0  0  0  0  0  0
  151.0741  140.9695  156.3343 H   0  0  0  0  0  0  0  0  0  0  0  0
  150.5959  140.8227  153.5652 H   0  0  0  0  0  0  0  0  0  0  0  0
  149.4349  138.9299  155.5164 H   0  0  0  0  0  0  0  0  0  0  0  0
  150.4756  138.1925  157.2277 H   0  0  0  0  0  0  0  0  0  0  0  0
  151.5975  136.8800  156.8893 H   0  0  0  0  0  0  0  0  0  0  0  0
  151.4320  139.8606  159.2805 H   0  0  0  0  0  0  0  0  0  0  0  0
  154.0398  140.3429  160.0687 H   0  0  0  0  0  0  0  0  0  0  0  0
  149.1348  142.9974  156.0392 H   0  0  0  0  0  0  0  0  0  0  0  0
  1  2  1  0  0  0  0
  1 20  1  0  0  0  0
  1 21  1  0  0  0  0
  1 22  1  0  0  0  0
  2  9  1  0  0  0  0
  2  3  1  0  0  0  0
  2 23  1  0  0  0  0
  3  4  1  0  0  0  0
  3 24  1  0  0  0  0
  3 25  1  0  0  0  0
  4  5  1  0  0  0  0
  4  8  1  0  0  0  0
  4 41  1  0  0  0  0
  5  6  1  0  0  0  0
  5  7  1  0  0  0  0
  5 26  1  0  0  0  0
  6 27  1  0  0  0  0
  6 28  1  0  0  0  0
  6 29  1  0  0  0  0
  7 30  1  0  0  0  0
  7 31  1  0  0  0  0
  7 32  1  0  0  0  0
  8  9  1  0  0  0  0
  8 33  1  0  0  0  0
  8 34  1  0  0  0  0
  9 10  1  0  0  0  0
  9 35  1  0  0  0  0
 10 11  1  0  0  0  0
 10 36  1  0  0  0  0
 11 12  2  0  0  0  0
 11 13  2  0  0  0  0
 11 14  1  0  0  0  0
 14 15  1  0  0  0  0
 14 37  1  0  0  0  0
 14 38  1  0  0  0  0
 15 19  2  0  0  0  0
 15 16  1  0  0  0  0
 16 17  2  0  0  0  0
 16 39  1  0  0  0  0
 17 18  1  0  0  0  0
 17 40  1  0  0  0  0
 18 19  1  0  0  0  0
M  CHG  1   4   1
M  END
> <s_m_source_file>
AV-unprocessed.smi

> <i_m_source_file_index>
686

> <i_lp_mmshare_version>
43012

> <i_f3d_flags>
0

> <s_epik_input>
W0NIM11bQ0BASF0xW0NIMl1OKFtDSF0oW0NIM10pW0NIM10pW0NIMl1bQ0BIXTFbTkhdUyg9TykoPU8pW0NIMl1jMltjSF1bY0hdb24y

> <s_epik_cmdline>
J2VwaWtfcHl0aG9uJywgJy1waCcsICc3LjAnLCAnLXRuJywgJzgnLCAnLW1hJywgJzIwMCcsICctbWV0YWxfYmluZGluZycsICctaW1hZScsICc8aW5maWxlLm1hZT4nLCAnLW9tYWUnLCAnPG91dGZpbGUubWFlPic=

> <r_epik_Ionization_Penalty>
0.00200818

> <r_epik_Ionization_Penalty_Charging>
0.000701289

> <r_epik_Ionization_Penalty_Neutral>
0.00130689

> <r_epik_State_Penalty>
0.00131314

> <r_epik_Charging_Adjusted_Penalty>
0.00201443

> <i_epik_Tot_Q>
1

> <i_epik_Tot_abs_Q>
1

> <r_epik_Metal_State_Penalty>
0.310831

> <b_epik_Metal_Only>
0

> <s_lp_Force_Field>
OPLS_2005

> <r_lp_Energy>
21.3818

> <b_lp_Chiralities_Consistent>
1

> <s_lp_Variant>
AV-unprocessed.smi:686-2

> <Gold.Version>
5.8.1

> <Gold.Id.Protein>
6NUR|6NUR_protein|mol2

> <Gold.PLP.Fitness>
41.6894

> <Gold.PLP.PLP>
-27.1745

> <Gold.PLP.part.hbond>
-5.6850

> <Gold.PLP.part.metal>
0.0000

> <Gold.PLP.part.buried>
-0.2161

> <Gold.PLP.part.nonpolar>
-20.2132

> <Gold.PLP.part.repulsive>
0.5296

> <Gold.PLP.ligand.clash>
0.0000

> <Gold.PLP.ligand.torsion>
0.1077

> <Gold.PLP.Chemscore.Hbond>
4.8522

> <Gold.PLP.Chemscore.CHOScore>
0.0000

> <Gold.PLP.Chemscore.Metal>
0.0000

> <Gold.Chemscore.Hbonds>
donor molecule, donor type, donor heavy atom, donor atom, acceptor molecule, acceptor atom, score
      L1  H     4    41       P1  8028  2.00
      P1  H  7989  7998       L1    13  0.29
      P1  H  7997  8008       L1    18  0.63
      P1  H  7997  8009       L1    13  0.98
      P1  H 10752 10764       L1    12  0.62

> <Gold.PLP.Chemscore.Internal.Correction>
0.1739

> <Gold.Rescore>
     Score         DG    S(hbond)    S(metal)    S(lipo)     H(rot)  DE(clash)    DE(int)     intcor
     16.38     -18.28       2.99        0.00      65.87       1.91       0.41       1.50       ----

> <Gold.Chemscore.Fitness>
16.3802

> <Gold.Chemscore.DG>
-18.2841

> <Gold.Chemscore.ZeroCoef>
-5.4800

> <Gold.Chemscore.Hbond>
2.9913

> <Gold.Chemscore.Metal>
0.0000

> <Gold.Chemscore.Lipo>
65.8699

> <Gold.Chemscore.Internal_Hbond>
0.0000

> <Gold.Chemscore.DEClash>
0.4083

> <Gold.Chemscore.DEInternal>
1.4956

> <Gold.Chemscore.Rot>
1.9115

> <Gold.Chemscore.Internal.Correction>
   9.000000E+99

> <Gold.Chemscore.Hbonds>
donor molecule, donor type, donor heavy atom, donor atom, acceptor molecule, acceptor atom, score
      L1  H     4    41       P1  8028  1.00
      P1  H  7989  7998       L1    13  0.07
      P1  H  7997  8008       L1    18  0.06
      P1  H  7997  8009       L1    13  0.91
      P1  H 10752 10764       L1    12  0.61

> <Gold.Chemscore.Hbond.Weighted>
-9.9908

> <Gold.Chemscore.Metal.Weighted>
-0.0000

> <Gold.Chemscore.Lipo.Weighted>
-7.7068

> <Gold.Chemscore.Internal_Hbond.Weighted>
0.0000

> <Gold.Chemscore.DEClash.Weighted>
0.4083

> <Gold.Chemscore.DEInternal.Weighted>
1.4956

> <Gold.Chemscore.Rot.Weighted>
4.8935

> <Gold.Chemscore.Internal.Correction.Weighted>
   9.000000E+99

> <Gold.Protein.RotatedTorsions>
[ 6907 6896 6895 6894 ] final  -88.99 input  -60.11 | X-H torsion
[ 7974 7965 7964 7962 ] final   97.93 input  175.53 | X-H torsion
[ 8008 7997 7996 7995 ] final -136.49 input   59.86 | X-H torsion
[ 10167 10162 10161 10158 ] final -119.73 input  -65.29 | X-H torsion
[ 10718 10713 10712 10709 ] final -149.32 input   66.30 | X-H torsion
[ 10763 10752 10751 10750 ] final -104.15 input  -60.55 | X-H torsion
[ 11005 11000 10999 10996 ] final  -49.05 input  -57.11 | X-H torsion

> <Gold.Protein.ActiveResidues>
 VAL166  LYS551  ARG553  GLY616  TRP617  ASP618  TYR619  PRO620  LYS621  CYS622 
 ASP623  PHE694  ASN695  SER759  ASP760  ASP761  ALA762  ILE779  LEU786  VAL792 
 PHE793  MET794  SER795  GLU796  ALA797  LYS798  CYS799  TRP800  GLU811  SER814 

> <Gold.Protein.RotatedAtoms>
  150.6871  134.2656  159.4566 H   0  0  0  0  0  0  0  0  0  0  0  0  # atno 6907 bound_to 6896
  152.0583  134.9608  160.0584 H   0  0  0  0  0  0  0  0  0  0  0  0  # atno 6908 bound_to 6896
  152.1045  133.4233  159.4639 H   0  0  0  0  0  0  0  0  0  0  0  0  # atno 6909 bound_to 6896
  145.4189  139.2324  143.3207 H   0  0  0  0  0  0  0  0  0  0  0  0  # atno 7974 bound_to 7965
  155.3960  140.0503  157.3039 H   0  0  0  0  0  0  0  0  0  0  0  0  # atno 8008 bound_to 7997
  154.5013  140.2158  155.9302 H   0  0  0  0  0  0  0  0  0  0  0  0  # atno 8009 bound_to 7997
  156.1471  140.3143  155.8593 H   0  0  0  0  0  0  0  0  0  0  0  0  # atno 8010 bound_to 7997
  140.0435  143.5130  152.2118 H   0  0  0  0  0  0  0  0  0  0  0  0  # atno 10167 bound_to 10162
  156.4317  130.8078  151.2306 H   0  0  0  0  0  0  0  0  0  0  0  0  # atno 10718 bound_to 10713
  154.7858  135.4797  153.9942 H   0  0  0  0  0  0  0  0  0  0  0  0  # atno 10763 bound_to 10752
  153.1558  135.6799  153.8822 H   0  0  0  0  0  0  0  0  0  0  0  0  # atno 10764 bound_to 10752
  153.8452  135.3174  155.3407 H   0  0  0  0  0  0  0  0  0  0  0  0  # atno 10765 bound_to 10752
  141.0737  133.6672  156.3530 H   0  0  0  0  0  0  0  0  0  0  0  0  # atno 11005 bound_to 11000
  146.2666  140.4911  142.8831 LP  0  0  0  0  0  0  0  0  0  0  0  0  # atno 17320 bound_to 7965
  144.8258  140.6626  143.6323 LP  0  0  0  0  0  0  0  0  0  0  0  0  # atno 17321 bound_to 7965
  139.5999  144.7579  151.3197 LP  0  0  0  0  0  0  0  0  0  0  0  0  # atno 17342 bound_to 10162
  140.7249  143.7031  150.7829 LP  0  0  0  0  0  0  0  0  0  0  0  0  # atno 17343 bound_to 10162
  157.7508  131.0196  150.3675 LP  0  0  0  0  0  0  0  0  0  0  0  0  # atno 17370 bound_to 10713
  156.4013  130.3916  149.6957 LP  0  0  0  0  0  0  0  0  0  0  0  0  # atno 17371 bound_to 10713
  140.5620  134.5925  157.5436 LP  0  0  0  0  0  0  0  0  0  0  0  0  # atno 17394 bound_to 11000
  139.9549  134.7552  156.0364 LP  0  0  0  0  0  0  0  0  0  0  0  0  # atno 17395 bound_to 11000

$$$$
