AV-unprocessed.smi:3134|AV-procd|sdf|11942|dock8
  -GOLD-   2272017333D 1   1.00000     0.00000
 Structure written by MMmdl.
 37 37  0  0  0  0  0  0  0  0  2 V2000
  146.1764  142.5557  154.5199 C   0  0  0  0  0  0  0  0  0  0  0  0
  146.9391  141.2233  154.5979 C   0  0  0  0  0  0  0  0  0  0  0  0
  148.4155  141.3913  154.2160 C   0  0  0  0  0  0  0  0  0  0  0  0
  146.3209  140.2303  153.7240 N   0  0  0  0  0  0  0  0  0  0  0  0
  146.8321  139.0218  153.4428 C   0  0  0  0  0  0  0  0  0  0  0  0
  147.9082  138.6222  153.8894 O   0  0  0  0  0  0  0  0  0  0  0  0
  146.0043  138.1264  152.5103 C   0  0  1  0  0  0  0  0  0  0  0  0
  146.2057  138.5591  151.0502 C   0  0  0  0  0  0  0  0  0  0  0  0
  146.3829  136.7053  152.6707 N   0  3  0  0  0  0  0  0  0  0  0  0
  145.5632  135.7495  151.8939 C   0  0  0  0  0  0  0  0  0  0  0  0
  146.0625  134.3079  152.0824 C   0  0  0  0  0  0  0  0  0  0  0  0
  145.3404  133.3636  151.2466 N   0  0  0  0  0  0  0  0  0  0  0  0
  145.8508  132.3922  150.4111 C   0  0  0  0  0  0  0  0  0  0  0  0
  144.7902  131.7522  149.8364 C   0  0  0  0  0  0  0  0  0  0  0  0
  143.6570  132.4192  150.3797 C   0  0  0  0  0  0  0  0  0  0  0  0
  143.9900  133.3875  151.2176 N   0  0  0  0  0  0  0  0  0  0  0  0
  146.6283  143.3028  155.1730 H   0  0  0  0  0  0  0  0  0  0  0  0
  145.1372  142.4380  154.8293 H   0  0  0  0  0  0  0  0  0  0  0  0
  146.1785  142.9564  153.5057 H   0  0  0  0  0  0  0  0  0  0  0  0
  146.9028  140.8629  155.6275 H   0  0  0  0  0  0  0  0  0  0  0  0
  148.9107  142.1052  154.8747 H   0  0  0  0  0  0  0  0  0  0  0  0
  148.5240  141.7531  153.1930 H   0  0  0  0  0  0  0  0  0  0  0  0
  148.9522  140.4452  154.2946 H   0  0  0  0  0  0  0  0  0  0  0  0
  145.4350  140.4813  153.3090 H   0  0  0  0  0  0  0  0  0  0  0  0
  144.9452  138.2299  152.7539 H   0  0  0  0  0  0  0  0  0  0  0  0
  145.9096  139.5984  150.9006 H   0  0  0  0  0  0  0  0  0  0  0  0
  145.6039  137.9497  150.3753 H   0  0  0  0  0  0  0  0  0  0  0  0
  147.2480  138.4626  150.7424 H   0  0  0  0  0  0  0  0  0  0  0  0
  147.3468  136.5887  152.3934 H   0  0  0  0  0  0  0  0  0  0  0  0
  144.5156  135.8150  152.1910 H   0  0  0  0  0  0  0  0  0  0  0  0
  145.6038  136.0292  150.8407 H   0  0  0  0  0  0  0  0  0  0  0  0
  147.1220  134.2426  151.8320 H   0  0  0  0  0  0  0  0  0  0  0  0
  145.9656  134.0036  153.1255 H   0  0  0  0  0  0  0  0  0  0  0  0
  146.9134  132.2341  150.2987 H   0  0  0  0  0  0  0  0  0  0  0  0
  144.8189  130.9338  149.1324 H   0  0  0  0  0  0  0  0  0  0  0  0
  142.6103  132.2312  150.1907 H   0  0  0  0  0  0  0  0  0  0  0  0
  146.2985  136.4799  153.6522 H   0  0  0  0  0  0  0  0  0  0  0  0
  1  2  1  0  0  0  0
  1 17  1  0  0  0  0
  1 18  1  0  0  0  0
  1 19  1  0  0  0  0
  2  3  1  0  0  0  0
  2  4  1  0  0  0  0
  2 20  1  0  0  0  0
  3 21  1  0  0  0  0
  3 22  1  0  0  0  0
  3 23  1  0  0  0  0
  4  5  1  0  0  0  0
  4 24  1  0  0  0  0
  5  6  2  0  0  0  0
  5  7  1  0  0  0  0
  7  8  1  0  0  0  0
  7  9  1  0  0  0  0
  7 25  1  0  0  0  0
  8 26  1  0  0  0  0
  8 27  1  0  0  0  0
  8 28  1  0  0  0  0
  9 10  1  0  0  0  0
  9 29  1  0  0  0  0
  9 37  1  0  0  0  0
 10 11  1  0  0  0  0
 10 30  1  0  0  0  0
 10 31  1  0  0  0  0
 11 12  1  0  0  0  0
 11 32  1  0  0  0  0
 11 33  1  0  0  0  0
 12 16  1  0  0  0  0
 12 13  1  0  0  0  0
 13 14  2  0  0  0  0
 13 34  1  0  0  0  0
 14 15  1  0  0  0  0
 14 35  1  0  0  0  0
 15 16  2  0  0  0  0
 15 36  1  0  0  0  0
M  CHG  1   9   1
M  END
> <s_m_source_file>
AV-unprocessed.smi

> <i_m_source_file_index>
3134

> <i_lp_mmshare_version>
43012

> <i_f3d_flags>
0

> <s_epik_input>
W0NIM11bQ0hdKFtDSDNdKVtOSF1DKD1PKVtDQEhdKFtDSDNdKVtOSF1bQ0gyXVtDSDJdbjFbY0hdW2NIXVtjSF1uMQ==

> <s_epik_cmdline>
J2VwaWtfcHl0aG9uJywgJy1waCcsICc3LjAnLCAnLXRuJywgJzgnLCAnLW1hJywgJzIwMCcsICctbWV0YWxfYmluZGluZycsICctaW1hZScsICc8aW5maWxlLm1hZT4nLCAnLW9tYWUnLCAnPG91dGZpbGUubWFlPic=

> <r_lp_tautomer_probability>
1

> <r_epik_Ionization_Penalty>
0.20398

> <r_epik_Ionization_Penalty_Charging>
0.203977

> <r_epik_Ionization_Penalty_Neutral>
3.23345e-06

> <r_epik_State_Penalty>
0.193898

> <r_epik_Charging_Adjusted_Penalty>
0.397875

> <i_epik_Tot_Q>
1

> <i_epik_Tot_abs_Q>
1

> <r_epik_Metal_State_Penalty>
0.194184

> <b_epik_Metal_Only>
0

> <s_lp_Force_Field>
OPLS_2005

> <r_lp_Energy>
4.47428

> <b_lp_Chiralities_Consistent>
1

> <s_lp_Variant>
AV-unprocessed.smi:3134-2

> <Gold.Version>
5.8.1

> <Gold.Id.Protein>
6NUR|6NUR_protein|mol2

> <Gold.PLP.Fitness>
45.8296

> <Gold.PLP.PLP>
-31.5016

> <Gold.PLP.part.hbond>
-2.0000

> <Gold.PLP.part.metal>
0.0000

> <Gold.PLP.part.buried>
0.7234

> <Gold.PLP.part.nonpolar>
-32.1356

> <Gold.PLP.part.repulsive>
0.3893

> <Gold.PLP.ligand.clash>
0.0000

> <Gold.PLP.ligand.torsion>
0.7863

> <Gold.PLP.Chemscore.Hbond>
2.9833

> <Gold.PLP.Chemscore.CHOScore>
2.2765

> <Gold.PLP.Chemscore.Metal>
0.0000

> <Gold.Chemscore.Hbonds>
donor molecule, donor type, donor heavy atom, donor atom, acceptor molecule, acceptor atom, score
      L1  H     4    24       P1 10175  1.00
      L1  H     9    29       P1  7948  2.00
      L1  C    13    34       P1 10747  1.00
      L1  C    15    36       P1 10186  0.28
      L1  C    15    36       P1 10952  0.66

> <Gold.PLP.Chemscore.Internal.Correction>
0.1211

> <Gold.Rescore>
     Score         DG    S(hbond)    S(metal)    S(lipo)     H(rot)  DE(clash)    DE(int)     intcor
     12.87     -15.29       2.00        0.00      73.56       2.13       0.44       1.98       ----

> <Gold.Chemscore.Fitness>
12.8717

> <Gold.Chemscore.DG>
-15.2928

> <Gold.Chemscore.ZeroCoef>
-5.4800

> <Gold.Chemscore.Hbond>
1.9965

> <Gold.Chemscore.Metal>
0.0000

> <Gold.Chemscore.Lipo>
73.5557

> <Gold.Chemscore.Internal_Hbond>
0.0000

> <Gold.Chemscore.DEClash>
0.4422

> <Gold.Chemscore.DEInternal>
1.9789

> <Gold.Chemscore.Rot>
2.1334

> <Gold.Chemscore.Internal.Correction>
   9.000000E+99

> <Gold.Chemscore.Hbonds>
donor molecule, donor type, donor heavy atom, donor atom, acceptor molecule, acceptor atom, score
      L1  H     4    24       P1 10175  0.95
      L1  H     9    29       P1  7948  1.00

> <Gold.Chemscore.Hbond.Weighted>
-6.6683

> <Gold.Chemscore.Metal.Weighted>
-0.0000

> <Gold.Chemscore.Lipo.Weighted>
-8.6060

> <Gold.Chemscore.Internal_Hbond.Weighted>
0.0000

> <Gold.Chemscore.DEClash.Weighted>
0.4422

> <Gold.Chemscore.DEInternal.Weighted>
1.9789

> <Gold.Chemscore.Rot.Weighted>
5.4615

> <Gold.Chemscore.Internal.Correction.Weighted>
   9.000000E+99

> <Gold.Protein.RotatedTorsions>
[ 6907 6896 6895 6894 ] final   25.52 input  -60.11 | X-H torsion
[ 7974 7965 7964 7962 ] final  -49.32 input  175.53 | X-H torsion
[ 8008 7997 7996 7995 ] final  155.80 input   59.86 | X-H torsion
[ 10167 10162 10161 10158 ] final -160.44 input  -65.29 | X-H torsion
[ 10718 10713 10712 10709 ] final  128.39 input   66.30 | X-H torsion
[ 10763 10752 10751 10750 ] final  -42.38 input  -60.55 | X-H torsion
[ 11005 11000 10999 10996 ] final -140.04 input  -57.11 | X-H torsion

> <Gold.Protein.ActiveResidues>
 VAL166  LYS551  ARG553  GLY616  TRP617  ASP618  TYR619  PRO620  LYS621  CYS622 
 ASP623  PHE694  ASN695  SER759  ASP760  ASP761  ALA762  ILE779  LEU786  VAL792 
 PHE793  MET794  SER795  GLU796  ALA797  LYS798  CYS799  TRP800  GLU811  SER814 

> <Gold.Protein.RotatedAtoms>
  151.9737  135.0064  160.0553 H   0  0  0  0  0  0  0  0  0  0  0  0  # atno 6907 bound_to 6896
  152.1760  133.4670  159.4942 H   0  0  0  0  0  0  0  0  0  0  0  0  # atno 6908 bound_to 6896
  150.6909  134.1811  159.4292 H   0  0  0  0  0  0  0  0  0  0  0  0  # atno 6909 bound_to 6896
  145.9418  140.7655  142.9548 H   0  0  0  0  0  0  0  0  0  0  0  0  # atno 7974 bound_to 7965
  156.2458  140.1929  156.6858 H   0  0  0  0  0  0  0  0  0  0  0  0  # atno 8008 bound_to 7997
  154.6288  140.0598  156.9733 H   0  0  0  0  0  0  0  0  0  0  0  0  # atno 8009 bound_to 7997
  155.1743  140.3271  155.4389 H   0  0  0  0  0  0  0  0  0  0  0  0  # atno 8010 bound_to 7997
  139.6539  144.0034  152.2180 H   0  0  0  0  0  0  0  0  0  0  0  0  # atno 10167 bound_to 10162
  157.5249  131.1098  150.9098 H   0  0  0  0  0  0  0  0  0  0  0  0  # atno 10718 bound_to 10713
  153.9780  135.6720  153.4749 H   0  0  0  0  0  0  0  0  0  0  0  0  # atno 10763 bound_to 10752
  153.0762  135.4948  154.8405 H   0  0  0  0  0  0  0  0  0  0  0  0  # atno 10764 bound_to 10752
  154.7181  135.3111  154.9053 H   0  0  0  0  0  0  0  0  0  0  0  0  # atno 10765 bound_to 10752
  140.8461  134.2342  157.4785 H   0  0  0  0  0  0  0  0  0  0  0  0  # atno 11005 bound_to 11000
  144.6780  140.2292  143.7357 LP  0  0  0  0  0  0  0  0  0  0  0  0  # atno 17320 bound_to 7965
  145.8290  139.2077  143.1894 LP  0  0  0  0  0  0  0  0  0  0  0  0  # atno 17321 bound_to 7965
  139.9755  144.6464  150.7949 LP  0  0  0  0  0  0  0  0  0  0  0  0  # atno 17342 bound_to 10162
  140.7550  143.3038  151.3013 LP  0  0  0  0  0  0  0  0  0  0  0  0  # atno 17343 bound_to 10162
  156.9697  130.5486  149.5290 LP  0  0  0  0  0  0  0  0  0  0  0  0  # atno 17370 bound_to 10713
  156.0380  130.5465  150.8701 LP  0  0  0  0  0  0  0  0  0  0  0  0  # atno 17371 bound_to 10713
  139.8703  134.9660  156.4548 LP  0  0  0  0  0  0  0  0  0  0  0  0  # atno 17394 bound_to 11000
  140.8841  133.7896  155.9499 LP  0  0  0  0  0  0  0  0  0  0  0  0  # atno 17395 bound_to 11000

$$$$
