AV-unprocessed.smi:1056|AV-procd|sdf|4634|dock4
  -GOLD-   22720 3143D 1   1.00000     0.00000
 Structure written by MMmdl.
 46 48  0  0  0  0  0  0  0  0  3 V2000
  152.5711  142.5043  160.9627 C   0  0  0  0  0  0  0  0  0  0  0  0
  152.1763  141.8978  159.6268 C   0  0  0  0  0  0  0  0  0  0  0  0
  151.3225  142.6365  158.7772 C   0  0  0  0  0  0  0  0  0  0  0  0
  150.9845  142.0588  157.5591 C   0  0  0  0  0  0  0  0  0  0  0  0
  150.1787  142.5265  156.5194 N   0  3  0  0  0  0  0  0  0  0  0  0
  150.1472  141.6045  155.5181 C   0  0  0  0  0  0  0  0  0  0  0  0
  150.9196  140.5521  155.9033 N   0  0  0  0  0  0  0  0  0  0  0  0
  151.2311  139.3052  155.1881 C   0  0  0  0  0  0  0  0  0  0  0  0
  149.9745  138.5840  154.6559 C   0  0  2  0  0  0  0  0  0  0  0  0
  150.3484  137.3658  154.0449 O   0  0  0  0  0  0  0  0  0  0  0  0
  149.2109  139.4160  153.6051 C   0  0  0  0  0  0  0  0  0  0  0  0
  148.0033  138.7254  153.0860 N   0  3  2  0  0  0  0  0  0  0  0  0
  147.2356  139.5252  152.1020 C   0  0  0  0  0  0  0  0  0  0  0  0
  146.1311  138.6644  151.4627 C   0  0  0  0  0  0  0  0  0  0  0  0
  145.4204  137.8326  152.4311 N   0  0  0  0  0  0  0  0  0  0  0  0
  145.8271  137.5778  153.6854 C   0  0  0  0  0  0  0  0  0  0  0  0
  145.1810  136.8571  154.4411 O   0  0  0  0  0  0  0  0  0  0  0  0
  147.1361  138.2137  154.1775 C   0  0  0  0  0  0  0  0  0  0  0  0
  151.4629  140.7913  157.1727 C   0  0  0  0  0  0  0  0  0  0  0  0
  152.3000  140.0475  158.0022 C   0  0  0  0  0  0  0  0  0  0  0  0
  152.6575  140.6189  159.2445 C   0  0  0  0  0  0  0  0  0  0  0  0
  153.5735  139.8325  160.1669 C   0  0  0  0  0  0  0  0  0  0  0  0
  152.1260  143.4901  161.1006 H   0  0  0  0  0  0  0  0  0  0  0  0
  153.6536  142.6171  161.0272 H   0  0  0  0  0  0  0  0  0  0  0  0
  152.2381  141.8710  161.7851 H   0  0  0  0  0  0  0  0  0  0  0  0
  150.9510  143.6101  159.0623 H   0  0  0  0  0  0  0  0  0  0  0  0
  149.6088  141.6958  154.5857 H   0  0  0  0  0  0  0  0  0  0  0  0
  151.8874  139.5726  154.3591 H   0  0  0  0  0  0  0  0  0  0  0  0
  151.8159  138.6531  155.8370 H   0  0  0  0  0  0  0  0  0  0  0  0
  149.3198  138.3319  155.4899 H   0  0  0  0  0  0  0  0  0  0  0  0
  149.7373  137.1762  153.3488 H   0  0  0  0  0  0  0  0  0  0  0  0
  148.9172  140.3612  154.0648 H   0  0  0  0  0  0  0  0  0  0  0  0
  149.8620  139.6755  152.7685 H   0  0  0  0  0  0  0  0  0  0  0  0
  146.7943  140.3856  152.6079 H   0  0  0  0  0  0  0  0  0  0  0  0
  147.8838  139.9180  151.3195 H   0  0  0  0  0  0  0  0  0  0  0  0
  145.4160  139.2952  150.9343 H   0  0  0  0  0  0  0  0  0  0  0  0
  146.5709  137.9987  150.7193 H   0  0  0  0  0  0  0  0  0  0  0  0
  144.5543  137.4125  152.1234 H   0  0  0  0  0  0  0  0  0  0  0  0
  147.6880  137.4760  154.7614 H   0  0  0  0  0  0  0  0  0  0  0  0
  146.8811  139.0324  154.8523 H   0  0  0  0  0  0  0  0  0  0  0  0
  152.6659  139.0721  157.7178 H   0  0  0  0  0  0  0  0  0  0  0  0
  153.8401  138.8663  159.7376 H   0  0  0  0  0  0  0  0  0  0  0  0
  153.0868  139.6477  161.1249 H   0  0  0  0  0  0  0  0  0  0  0  0
  154.4972  140.3826  160.3479 H   0  0  0  0  0  0  0  0  0  0  0  0
  148.3319  137.9067  152.5945 H   0  0  0  0  0  0  0  0  0  0  0  0
  149.6889  143.4119  156.4918 H   0  0  0  0  0  0  0  0  0  0  0  0
  1  2  1  0  0  0  0
  1 23  1  0  0  0  0
  1 24  1  0  0  0  0
  1 25  1  0  0  0  0
  2 21  1  0  0  0  0
  2  3  2  0  0  0  0
  3  4  1  0  0  0  0
  3 26  1  0  0  0  0
  4 19  2  0  0  0  0
  4  5  1  0  0  0  0
  5  6  2  0  0  0  0
  5 46  1  0  0  0  0
  6  7  1  0  0  0  0
  6 27  1  0  0  0  0
  7  8  1  0  0  0  0
  7 19  1  0  0  0  0
  8  9  1  0  0  0  0
  8 28  1  0  0  0  0
  8 29  1  0  0  0  0
  9 10  1  0  0  0  0
  9 11  1  0  0  0  0
  9 30  1  0  0  0  0
 10 31  1  0  0  0  0
 11 12  1  0  0  0  0
 11 32  1  0  0  0  0
 11 33  1  0  0  0  0
 12 18  1  0  0  0  0
 12 13  1  0  0  0  0
 12 45  1  0  0  0  0
 13 14  1  0  0  0  0
 13 34  1  0  0  0  0
 13 35  1  0  0  0  0
 14 15  1  0  0  0  0
 14 36  1  0  0  0  0
 14 37  1  0  0  0  0
 15 16  1  0  0  0  0
 15 38  1  0  0  0  0
 16 17  2  0  0  0  0
 16 18  1  0  0  0  0
 18 39  1  0  0  0  0
 18 40  1  0  0  0  0
 19 20  1  0  0  0  0
 20 21  2  0  0  0  0
 20 41  1  0  0  0  0
 21 22  1  0  0  0  0
 22 42  1  0  0  0  0
 22 43  1  0  0  0  0
 22 44  1  0  0  0  0
M  CHG  1   5   1
M  CHG  1  12   1
M  END
> <s_m_source_file>
AV-unprocessed.smi

> <i_m_source_file_index>
1056

> <i_lp_mmshare_version>
43012

> <i_f3d_flags>
0

> <s_epik_input>
W0NIM11jKFtjSF0xKWMoW0NIM10pW2NIXWMoYzEyKW4oW2NIXW4yKVtDSDJdW0NASF0oW09IXSlbQ0gyXU4zW0NIMl1bQ0gyXVtOSF1DKD1PKVtDSDJdMw==

> <s_epik_cmdline>
J2VwaWtfcHl0aG9uJywgJy1waCcsICc3LjAnLCAnLXRuJywgJzgnLCAnLW1hJywgJzIwMCcsICctbWV0YWxfYmluZGluZycsICctaW1hZScsICc8aW5maWxlLm1hZT4nLCAnLW9tYWUnLCAnPG91dGZpbGUubWFlPic=

> <r_epik_Ionization_Penalty>
1.262

> <r_epik_Ionization_Penalty_Charging>
1.26188

> <r_epik_Ionization_Penalty_Neutral>
0.000125436

> <r_epik_State_Penalty>
1.3387

> <r_epik_Charging_Adjusted_Penalty>
2.60058

> <i_epik_Tot_Q>
2

> <i_epik_Tot_abs_Q>
2

> <r_epik_Metal_State_Penalty>
1.58938

> <b_epik_Metal_Only>
0

> <s_lp_Force_Field>
OPLS_2005

> <r_lp_Energy>
36.1571

> <b_lp_Chiralities_Consistent>
1

> <s_lp_Variant>
AV-unprocessed.smi:1056-5

> <Gold.Version>
5.8.1

> <Gold.Id.Protein>
6NUR|6NUR_protein|mol2

> <Gold.PLP.Fitness>
54.7494

> <Gold.PLP.PLP>
-39.9638

> <Gold.PLP.part.hbond>
-5.0000

> <Gold.PLP.part.metal>
0.0000

> <Gold.PLP.part.buried>
4.6595

> <Gold.PLP.part.nonpolar>
-39.4273

> <Gold.PLP.part.repulsive>
0.1644

> <Gold.PLP.ligand.clash>
0.0000

> <Gold.PLP.ligand.torsion>
0.1178

> <Gold.PLP.Chemscore.Hbond>
4.9913

> <Gold.PLP.Chemscore.CHOScore>
0.0000

> <Gold.PLP.Chemscore.Metal>
0.0000

> <Gold.Chemscore.Hbonds>
donor molecule, donor type, donor heavy atom, donor atom, acceptor molecule, acceptor atom, score
      L1  H     5    46       P1  8028  2.00
      L1  H    10    31       P1  7948  1.00
      L1  H    12    45       P1  7948  2.00

> <Gold.PLP.Chemscore.Internal.Correction>
0.0474

> <Gold.Rescore>
     Score         DG    S(hbond)    S(metal)    S(lipo)     H(rot)  DE(clash)    DE(int)     intcor
     18.43     -18.87       2.44        0.00      98.03       2.44       0.29       0.15       ----

> <Gold.Chemscore.Fitness>
18.4288

> <Gold.Chemscore.DG>
-18.8683

> <Gold.Chemscore.ZeroCoef>
-5.4800

> <Gold.Chemscore.Hbond>
2.4414

> <Gold.Chemscore.Metal>
0.0000

> <Gold.Chemscore.Lipo>
98.0291

> <Gold.Chemscore.Internal_Hbond>
0.0000

> <Gold.Chemscore.DEClash>
0.2940

> <Gold.Chemscore.DEInternal>
0.1455

> <Gold.Chemscore.Rot>
2.4357

> <Gold.Chemscore.Internal.Correction>
   9.000000E+99

> <Gold.Chemscore.Hbonds>
donor molecule, donor type, donor heavy atom, donor atom, acceptor molecule, acceptor atom, score
      L1  H     5    46       P1  8028  0.98
      L1  H    10    31       P1  7948  0.60
      L1  H    12    45       P1  7948  1.00

> <Gold.Chemscore.Hbond.Weighted>
-8.1542

> <Gold.Chemscore.Metal.Weighted>
-0.0000

> <Gold.Chemscore.Lipo.Weighted>
-11.4694

> <Gold.Chemscore.Internal_Hbond.Weighted>
0.0000

> <Gold.Chemscore.DEClash.Weighted>
0.2940

> <Gold.Chemscore.DEInternal.Weighted>
0.1455

> <Gold.Chemscore.Rot.Weighted>
6.2353

> <Gold.Chemscore.Internal.Correction.Weighted>
   9.000000E+99

> <Gold.Protein.RotatedTorsions>
[ 6907 6896 6895 6894 ] final   15.80 input  -60.11 | X-H torsion
[ 7974 7965 7964 7962 ] final   82.99 input  175.53 | X-H torsion
[ 8008 7997 7996 7995 ] final -134.14 input   59.86 | X-H torsion
[ 10167 10162 10161 10158 ] final   49.20 input  -65.29 | X-H torsion
[ 10718 10713 10712 10709 ] final  -37.04 input   66.30 | X-H torsion
[ 10763 10752 10751 10750 ] final   94.22 input  -60.55 | X-H torsion
[ 11005 11000 10999 10996 ] final -133.35 input  -57.11 | X-H torsion

> <Gold.Protein.ActiveResidues>
 VAL166  LYS551  ARG553  GLY616  TRP617  ASP618  TYR619  PRO620  LYS621  CYS622 
 ASP623  PHE694  ASN695  SER759  ASP760  ASP761  ALA762  ILE779  LEU786  VAL792 
 PHE793  MET794  SER795  GLU796  ALA797  LYS798  CYS799  TRP800  GLU811  SER814 

> <Gold.Protein.RotatedAtoms>
  151.8238  135.0643  160.0428 H   0  0  0  0  0  0  0  0  0  0  0  0  # atno 6907 bound_to 6896
  152.2931  133.5576  159.5578 H   0  0  0  0  0  0  0  0  0  0  0  0  # atno 6908 bound_to 6896
  150.7239  134.0316  159.3777 H   0  0  0  0  0  0  0  0  0  0  0  0  # atno 6909 bound_to 6896
  145.6178  139.2380  143.2155 H   0  0  0  0  0  0  0  0  0  0  0  0  # atno 7974 bound_to 7965
  155.3572  140.0480  157.3046 H   0  0  0  0  0  0  0  0  0  0  0  0  # atno 8008 bound_to 7997
  154.5197  140.2220  155.8964 H   0  0  0  0  0  0  0  0  0  0  0  0  # atno 8009 bound_to 7997
  156.1675  140.3103  155.8921 H   0  0  0  0  0  0  0  0  0  0  0  0  # atno 8010 bound_to 7997
  140.2853  144.3109  150.6254 H   0  0  0  0  0  0  0  0  0  0  0  0  # atno 10167 bound_to 10162
  156.3198  130.4264  149.7971 H   0  0  0  0  0  0  0  0  0  0  0  0  # atno 10718 bound_to 10713
  153.2391  135.4297  155.0678 H   0  0  0  0  0  0  0  0  0  0  0  0  # atno 10763 bound_to 10752
  154.8332  135.3398  154.6675 H   0  0  0  0  0  0  0  0  0  0  0  0  # atno 10764 bound_to 10752
  153.7100  135.7023  153.5096 H   0  0  0  0  0  0  0  0  0  0  0  0  # atno 10765 bound_to 10752
  140.9089  134.1594  157.4405 H   0  0  0  0  0  0  0  0  0  0  0  0  # atno 11005 bound_to 11000
  146.1454  140.7000  142.9347 LP  0  0  0  0  0  0  0  0  0  0  0  0  # atno 17320 bound_to 7965
  144.7243  140.4475  143.6985 LP  0  0  0  0  0  0  0  0  0  0  0  0  # atno 17321 bound_to 7965
  140.5777  143.2175  151.7484 LP  0  0  0  0  0  0  0  0  0  0  0  0  # atno 17342 bound_to 10162
  139.4952  144.4125  152.0065 LP  0  0  0  0  0  0  0  0  0  0  0  0  # atno 17343 bound_to 10162
  156.5283  130.8246  151.3228 LP  0  0  0  0  0  0  0  0  0  0  0  0  # atno 17370 bound_to 10713
  157.7409  130.9860  150.2410 LP  0  0  0  0  0  0  0  0  0  0  0  0  # atno 17371 bound_to 10713
  139.8754  134.9928  156.5612 LP  0  0  0  0  0  0  0  0  0  0  0  0  # atno 17394 bound_to 11000
  140.8136  133.8409  155.8832 LP  0  0  0  0  0  0  0  0  0  0  0  0  # atno 17395 bound_to 11000

$$$$
