AV-unprocessed.smi:100|AV-procd|sdf|910|dock6
  -GOLD-   2262017403D 1   1.00000     0.00000
 Structure written by MMmdl.
 31 33  0  0  0  0  0  0  0  0  1 V2000
  150.1057  144.6989  158.7300 N   0  0  0  0  0  0  0  0  0  0  0  0
  150.9054  143.6263  158.6537 C   0  0  0  0  0  0  0  0  0  0  0  0
  152.0155  143.5949  159.4280 N   0  0  0  0  0  0  0  0  0  0  0  0
  152.8308  142.5364  159.3694 C   0  0  0  0  0  0  0  0  0  0  0  0
  152.7186  141.4344  158.6219 N   0  0  0  0  0  0  0  0  0  0  0  0
  151.5955  141.4688  157.8464 C   0  0  0  0  0  0  0  0  0  0  0  0
  150.6436  142.5242  157.8015 C   0  0  0  0  0  0  0  0  0  0  0  0
  149.6383  142.2159  156.8941 N   0  0  0  0  0  0  0  0  0  0  0  0
  149.9808  141.0423  156.4331 C   0  0  0  0  0  0  0  0  0  0  0  0
  151.1437  140.5192  156.9572 N   0  0  0  0  0  0  0  0  0  0  0  0
  151.8068  139.2202  156.6418 C   0  0  1  0  0  0  0  0  0  0  0  0
  150.8594  138.2138  156.8334 O   0  0  0  0  0  0  0  0  0  0  0  0
  150.9464  137.2768  155.7690 C   0  0  1  0  0  0  0  0  0  0  0  0
  149.6402  136.4804  155.6284 C   0  0  0  0  0  0  0  0  0  0  0  0
  149.7378  135.5808  154.5455 O   0  0  0  0  0  0  0  0  0  0  0  0
  151.2769  138.1642  154.5682 C   0  0  1  0  0  0  0  0  0  0  0  0
  150.1797  138.7793  154.1215 F   0  0  0  0  0  0  0  0  0  0  0  0
  152.2246  139.1946  155.1610 C   0  0  2  0  0  0  0  0  0  0  0  0
  153.5680  138.7871  154.9947 O   0  0  0  0  0  0  0  0  0  0  0  0
  149.2716  144.7456  158.1625 H   0  0  0  0  0  0  0  0  0  0  0  0
  150.3363  145.4554  159.3576 H   0  0  0  0  0  0  0  0  0  0  0  0
  153.6959  142.5777  160.0146 H   0  0  0  0  0  0  0  0  0  0  0  0
  149.3903  140.5224  155.6926 H   0  0  0  0  0  0  0  0  0  0  0  0
  152.6318  139.1270  157.3499 H   0  0  0  0  0  0  0  0  0  0  0  0
  151.7890  136.6067  155.9517 H   0  0  0  0  0  0  0  0  0  0  0  0
  149.4011  135.9439  156.5473 H   0  0  0  0  0  0  0  0  0  0  0  0
  148.8096  137.1553  155.4195 H   0  0  0  0  0  0  0  0  0  0  0  0
  149.5334  136.0460  153.7489 H   0  0  0  0  0  0  0  0  0  0  0  0
  151.6984  137.6114  153.7277 H   0  0  0  0  0  0  0  0  0  0  0  0
  152.1038  140.1749  154.6965 H   0  0  0  0  0  0  0  0  0  0  0  0
  153.5732  137.9089  154.6453 H   0  0  0  0  0  0  0  0  0  0  0  0
  1  2  1  0  0  0  0
  1 20  1  0  0  0  0
  1 21  1  0  0  0  0
  2  7  1  0  0  0  0
  2  3  2  0  0  0  0
  3  4  1  0  0  0  0
  4  5  2  0  0  0  0
  4 22  1  0  0  0  0
  5  6  1  0  0  0  0
  6 10  1  0  0  0  0
  6  7  2  0  0  0  0
  7  8  1  0  0  0  0
  8  9  2  0  0  0  0
  9 10  1  0  0  0  0
  9 23  1  0  0  0  0
 10 11  1  0  0  0  0
 11 18  1  0  0  0  0
 11 12  1  0  0  0  0
 11 24  1  0  0  0  0
 12 13  1  0  0  0  0
 13 14  1  0  0  0  0
 13 16  1  0  0  0  0
 13 25  1  0  0  0  0
 14 15  1  0  0  0  0
 14 26  1  0  0  0  0
 14 27  1  0  0  0  0
 15 28  1  0  0  0  0
 16 17  1  0  0  0  0
 16 18  1  0  0  0  0
 16 29  1  0  0  0  0
 18 19  1  0  0  0  0
 18 30  1  0  0  0  0
 19 31  1  0  0  0  0
M  END
> <s_m_source_file>
AV-unprocessed.smi

> <i_m_source_file_index>
100

> <i_lp_mmshare_version>
43012

> <i_f3d_flags>
0

> <s_epik_input>
bjFbY0hdbmMoW05IMl0pYyhjMTIpbltjSF1uMltDQEBIXTNPW0NAQEhdKFtDSDJdW09IXSlbQ0BIXShGKVtDQEhdM1tPSF0=

> <s_epik_cmdline>
J2VwaWtfcHl0aG9uJywgJy1waCcsICc3LjAnLCAnLXRuJywgJzgnLCAnLW1hJywgJzIwMCcsICctbWV0YWxfYmluZGluZycsICctaW1hZScsICc8aW5maWxlLm1hZT4nLCAnLW9tYWUnLCAnPG91dGZpbGUubWFlPic=

> <r_lp_tautomer_probability>
1

> <r_epik_Ionization_Penalty>
0.000750324

> <r_epik_Ionization_Penalty_Charging>
0

> <r_epik_Ionization_Penalty_Neutral>
0.000750324

> <r_epik_State_Penalty>
-0

> <r_epik_Charging_Adjusted_Penalty>
0

> <i_epik_Tot_Q>
0

> <i_epik_Tot_abs_Q>
0

> <r_epik_Metal_State_Penalty>
-0

> <b_epik_Metal_Only>
0

> <s_epik_Chemistry_Notes>
This compound contains an acetal/aminal-like group ( X-CH(R)-Y where X, Y are N, S, or O) that may be acid/base labile, releasing an aldehyde.

> <s_lp_Force_Field>
OPLS_2005

> <r_lp_Energy>
27.3407

> <b_lp_Chiralities_Consistent>
1

> <s_lp_Variant>
AV-unprocessed.smi:100-14

> <Gold.Version>
5.8.1

> <Gold.Id.Protein>
6NUR|6NUR_protein|mol2

> <Gold.PLP.Fitness>
39.1132

> <Gold.PLP.PLP>
-30.4768

> <Gold.PLP.part.hbond>
-3.2252

> <Gold.PLP.part.metal>
0.0000

> <Gold.PLP.part.buried>
-5.6241

> <Gold.PLP.part.nonpolar>
-23.6650

> <Gold.PLP.part.repulsive>
1.8954

> <Gold.PLP.ligand.clash>
0.0000

> <Gold.PLP.ligand.torsion>
0.0460

> <Gold.PLP.Chemscore.Hbond>
2.9040

> <Gold.PLP.Chemscore.CHOScore>
0.0000

> <Gold.PLP.Chemscore.Metal>
0.0000

> <Gold.Chemscore.Hbonds>
donor molecule, donor type, donor heavy atom, donor atom, acceptor molecule, acceptor atom, score
      L1  H     1    20       P1  8029  0.93
      L1  H    15    28       P1  7948  1.00
      P1  H  7997  8009       L1    19  0.96

> <Gold.PLP.Chemscore.Internal.Correction>
0.0163

> <Gold.Rescore>
     Score         DG    S(hbond)    S(metal)    S(lipo)     H(rot)  DE(clash)    DE(int)     intcor
      7.19      -7.35       1.98        0.00      29.13       3.19       0.09       0.07       ----

> <Gold.Chemscore.Fitness>
7.1892

> <Gold.Chemscore.DG>
-7.3467

> <Gold.Chemscore.ZeroCoef>
-5.4800

> <Gold.Chemscore.Hbond>
1.9835

> <Gold.Chemscore.Metal>
0.0000

> <Gold.Chemscore.Lipo>
29.1330

> <Gold.Chemscore.Internal_Hbond>
0.0000

> <Gold.Chemscore.DEClash>
0.0890

> <Gold.Chemscore.DEInternal>
0.0686

> <Gold.Chemscore.Rot>
3.1901

> <Gold.Chemscore.Internal.Correction>
   9.000000E+99

> <Gold.Chemscore.Hbonds>
donor molecule, donor type, donor heavy atom, donor atom, acceptor molecule, acceptor atom, score
      L1  H     1    20       P1  8029  0.22
      L1  H    15    28       P1  7948  0.49
      P1  H  7997  8009       L1    19  0.28

> <Gold.Chemscore.Hbond.Weighted>
-6.6248

> <Gold.Chemscore.Metal.Weighted>
-0.0000

> <Gold.Chemscore.Lipo.Weighted>
-3.4086

> <Gold.Chemscore.Internal_Hbond.Weighted>
0.0000

> <Gold.Chemscore.DEClash.Weighted>
0.0890

> <Gold.Chemscore.DEInternal.Weighted>
0.0686

> <Gold.Chemscore.Rot.Weighted>
8.1667

> <Gold.Chemscore.Internal.Correction.Weighted>
   9.000000E+99

> <Gold.Protein.RotatedTorsions>
[ 6907 6896 6895 6894 ] final   17.92 input  -60.11 | X-H torsion
[ 7974 7965 7964 7962 ] final  -67.28 input  175.53 | X-H torsion
[ 8008 7997 7996 7995 ] final -135.93 input   59.86 | X-H torsion
[ 10167 10162 10161 10158 ] final   30.46 input  -65.29 | X-H torsion
[ 10718 10713 10712 10709 ] final   19.83 input   66.30 | X-H torsion
[ 10763 10752 10751 10750 ] final  -14.47 input  -60.55 | X-H torsion
[ 11005 11000 10999 10996 ] final  -32.52 input  -57.11 | X-H torsion

> <Gold.Protein.ActiveResidues>
 VAL166  LYS551  ARG553  GLY616  TRP617  ASP618  TYR619  PRO620  LYS621  CYS622 
 ASP623  PHE694  ASN695  SER759  ASP760  ASP761  ALA762  ILE779  LEU786  VAL792 
 PHE793  MET794  SER795  GLU796  ALA797  LYS798  CYS799  TRP800  GLU811  SER814 

> <Gold.Protein.RotatedAtoms>
  151.8572  135.0537  160.0465 H   0  0  0  0  0  0  0  0  0  0  0  0  # atno 6907 bound_to 6896
  152.2691  133.5361  159.5436 H   0  0  0  0  0  0  0  0  0  0  0  0  # atno 6908 bound_to 6896
  150.7145  134.0639  159.3883 H   0  0  0  0  0  0  0  0  0  0  0  0  # atno 6909 bound_to 6896
  145.7312  140.8996  143.0579 H   0  0  0  0  0  0  0  0  0  0  0  0  # atno 7974 bound_to 7965
  155.3869  140.0497  157.3042 H   0  0  0  0  0  0  0  0  0  0  0  0  # atno 8008 bound_to 7997
  154.5055  140.2172  155.9221 H   0  0  0  0  0  0  0  0  0  0  0  0  # atno 8009 bound_to 7997
  156.1520  140.3134  155.8669 H   0  0  0  0  0  0  0  0  0  0  0  0  # atno 8010 bound_to 7997
  140.4676  144.0812  150.6228 H   0  0  0  0  0  0  0  0  0  0  0  0  # atno 10167 bound_to 10162
  157.1159  130.6528  149.5910 H   0  0  0  0  0  0  0  0  0  0  0  0  # atno 10718 bound_to 10713
  153.5288  135.7015  153.5694 H   0  0  0  0  0  0  0  0  0  0  0  0  # atno 10763 bound_to 10752
  153.3710  135.3945  155.1788 H   0  0  0  0  0  0  0  0  0  0  0  0  # atno 10764 bound_to 10752
  154.8687  135.3812  154.4783 H   0  0  0  0  0  0  0  0  0  0  0  0  # atno 10765 bound_to 10752
  140.9559  133.7193  156.1293 H   0  0  0  0  0  0  0  0  0  0  0  0  # atno 11005 bound_to 11000
  144.6892  139.9333  143.7472 LP  0  0  0  0  0  0  0  0  0  0  0  0  # atno 17320 bound_to 7965
  146.0536  139.3535  143.0624 LP  0  0  0  0  0  0  0  0  0  0  0  0  # atno 17321 bound_to 7965
  140.4017  143.2700  151.9939 LP  0  0  0  0  0  0  0  0  0  0  0  0  # atno 17342 bound_to 10162
  139.4814  144.5992  151.7637 LP  0  0  0  0  0  0  0  0  0  0  0  0  # atno 17343 bound_to 10162
  155.9839  130.4862  150.6959 LP  0  0  0  0  0  0  0  0  0  0  0  0  # atno 17370 bound_to 10713
  157.4519  131.0873  151.0837 LP  0  0  0  0  0  0  0  0  0  0  0  0  # atno 17371 bound_to 10713
  140.7536  134.4017  157.5537 LP  0  0  0  0  0  0  0  0  0  0  0  0  # atno 17394 bound_to 11000
  139.8862  134.8916  156.2598 LP  0  0  0  0  0  0  0  0  0  0  0  0  # atno 17395 bound_to 11000

$$$$
