AV-unprocessed.smi:1477|AV-procd|sdf|5981|dock10
  -GOLD-   22720 6 73D 1   1.00000     0.00000
 Structure written by MMmdl.
 33 34  0  0  0  0  0  0  0  0  1 V2000
  151.7898  145.3428  159.6551 C   0  0  0  0  0  0  0  0  0  0  0  0
  151.7634  143.9445  159.2197 N   0  0  0  0  0  0  0  0  0  0  0  0
  151.0473  143.6354  158.0480 C   0  0  0  0  0  0  0  0  0  0  0  0
  150.9564  142.3844  157.5606 C   0  0  0  0  0  0  0  0  0  0  0  0
  150.2165  142.1951  156.3845 N   0  0  0  0  0  0  0  0  0  0  0  0
  150.1279  141.1069  155.5941 C   0  0  0  0  0  0  0  0  0  0  0  0
  150.7049  140.0381  155.7853 O   0  0  0  0  0  0  0  0  0  0  0  0
  149.2405  141.2561  154.3582 C   0  0  0  0  0  0  0  0  0  0  0  0
  147.9615  141.7324  154.7490 O   0  0  0  0  0  0  0  0  0  0  0  0
  147.0810  141.8863  153.6495 C   0  0  0  0  0  0  0  0  0  0  0  0
  145.7241  142.3233  154.1588 C   0  0  0  0  0  0  0  0  0  0  0  0
  145.2742  143.7566  153.9880 C   0  0  0  0  0  0  0  0  0  0  0  0
  145.6032  143.2313  155.3618 C   0  0  0  0  0  0  0  0  0  0  0  0
  151.6474  141.3396  158.3031 C   0  0  0  0  0  0  0  0  0  0  0  0
  152.3360  141.6292  159.4249 C   0  0  0  0  0  0  0  0  0  0  0  0
  152.4221  142.9957  159.9455 C   0  0  0  0  0  0  0  0  0  0  0  0
  153.0481  143.2715  160.9695 O   0  0  0  0  0  0  0  0  0  0  0  0
  151.1979  145.9959  159.0132 H   0  0  0  0  0  0  0  0  0  0  0  0
  152.8121  145.7234  159.6540 H   0  0  0  0  0  0  0  0  0  0  0  0
  151.3933  145.4374  160.6670 H   0  0  0  0  0  0  0  0  0  0  0  0
  150.5741  144.4819  157.5708 H   0  0  0  0  0  0  0  0  0  0  0  0
  149.6673  142.9921  156.0965 H   0  0  0  0  0  0  0  0  0  0  0  0
  149.7126  141.9522  153.6634 H   0  0  0  0  0  0  0  0  0  0  0  0
  149.1466  140.2922  153.8548 H   0  0  0  0  0  0  0  0  0  0  0  0
  147.4688  142.6250  152.9458 H   0  0  0  0  0  0  0  0  0  0  0  0
  146.9706  140.9403  153.1176 H   0  0  0  0  0  0  0  0  0  0  0  0
  144.9471  141.5701  154.0418 H   0  0  0  0  0  0  0  0  0  0  0  0
  145.9743  144.4586  153.5392 H   0  0  0  0  0  0  0  0  0  0  0  0
  144.2260  143.9287  153.7523 H   0  0  0  0  0  0  0  0  0  0  0  0
  144.7743  143.0524  156.0437 H   0  0  0  0  0  0  0  0  0  0  0  0
  146.5215  143.5837  155.8274 H   0  0  0  0  0  0  0  0  0  0  0  0
  151.6373  140.3113  157.9817 H   0  0  0  0  0  0  0  0  0  0  0  0
  152.8409  140.8344  159.9538 H   0  0  0  0  0  0  0  0  0  0  0  0
  1  2  1  0  0  0  0
  1 18  1  0  0  0  0
  1 19  1  0  0  0  0
  1 20  1  0  0  0  0
  2 16  1  0  0  0  0
  2  3  1  0  0  0  0
  3  4  2  0  0  0  0
  3 21  1  0  0  0  0
  4  5  1  0  0  0  0
  4 14  1  0  0  0  0
  5  6  1  0  0  0  0
  5 22  1  0  0  0  0
  6  7  2  0  0  0  0
  6  8  1  0  0  0  0
  8  9  1  0  0  0  0
  8 23  1  0  0  0  0
  8 24  1  0  0  0  0
  9 10  1  0  0  0  0
 10 11  1  0  0  0  0
 10 25  1  0  0  0  0
 10 26  1  0  0  0  0
 11 13  1  0  0  0  0
 11 12  1  0  0  0  0
 11 27  1  0  0  0  0
 12 13  1  0  0  0  0
 12 28  1  0  0  0  0
 12 29  1  0  0  0  0
 13 30  1  0  0  0  0
 13 31  1  0  0  0  0
 14 15  2  0  0  0  0
 14 32  1  0  0  0  0
 15 16  1  0  0  0  0
 15 33  1  0  0  0  0
 16 17  2  0  0  0  0
M  END
> <s_m_source_file>
AV-unprocessed.smi

> <i_m_source_file_index>
1477

> <i_lp_mmshare_version>
43012

> <i_f3d_flags>
0

> <s_epik_input>
Tz1jMVtjSF1bY0hdYyhbY0hdbjFbQ0gzXSlbTkhdQyg9TylbQ0gyXU9bQ0gyXVtDSF0yW0NIMl1bQ0gyXTI=

> <s_epik_cmdline>
J2VwaWtfcHl0aG9uJywgJy1waCcsICc3LjAnLCAnLXRuJywgJzgnLCAnLW1hJywgJzIwMCcsICctbWV0YWxfYmluZGluZycsICctaW1hZScsICc8aW5maWxlLm1hZT4nLCAnLW9tYWUnLCAnPG91dGZpbGUubWFlPic=

> <r_lp_tautomer_probability>
1

> <r_epik_Ionization_Penalty>
2.50647e-06

> <r_epik_Ionization_Penalty_Charging>
2.2009e-06

> <r_epik_Ionization_Penalty_Neutral>
3.05566e-07

> <r_epik_State_Penalty>
-0

> <r_epik_Charging_Adjusted_Penalty>
2.2009e-06

> <i_epik_Tot_Q>
0

> <i_epik_Tot_abs_Q>
0

> <r_epik_Metal_State_Penalty>
-0

> <b_epik_Metal_Only>
0

> <s_lp_Force_Field>
OPLS_2005

> <r_lp_Energy>
27.664

> <b_lp_Chiralities_Consistent>
1

> <s_lp_Variant>
AV-unprocessed.smi:1477-1

> <Gold.Version>
5.8.1

> <Gold.Id.Protein>
6NUR|6NUR_protein|mol2

> <Gold.PLP.Fitness>
44.7003

> <Gold.PLP.PLP>
-39.2758

> <Gold.PLP.part.hbond>
-1.0000

> <Gold.PLP.part.metal>
0.0000

> <Gold.PLP.part.buried>
-4.0790

> <Gold.PLP.part.nonpolar>
-34.8960

> <Gold.PLP.part.repulsive>
0.2567

> <Gold.PLP.ligand.clash>
0.0000

> <Gold.PLP.ligand.torsion>
0.5521

> <Gold.PLP.Chemscore.Hbond>
1.0000

> <Gold.PLP.Chemscore.CHOScore>
0.9904

> <Gold.PLP.Chemscore.Metal>
0.0000

> <Gold.Chemscore.Hbonds>
donor molecule, donor type, donor heavy atom, donor atom, acceptor molecule, acceptor atom, score
      L1  H     5    22       P1  8028  1.00
      L1  C     3    21       P1  8028  1.00

> <Gold.PLP.Chemscore.Internal.Correction>
0.5573

> <Gold.Rescore>
     Score         DG    S(hbond)    S(metal)    S(lipo)     H(rot)  DE(clash)    DE(int)     intcor
     12.60     -14.22       1.00        0.00      80.78       1.58       0.15       1.47       ----

> <Gold.Chemscore.Fitness>
12.6006

> <Gold.Chemscore.DG>
-14.2151

> <Gold.Chemscore.ZeroCoef>
-5.4800

> <Gold.Chemscore.Hbond>
0.9992

> <Gold.Chemscore.Metal>
0.0000

> <Gold.Chemscore.Lipo>
80.7801

> <Gold.Chemscore.Internal_Hbond>
0.0000

> <Gold.Chemscore.DEClash>
0.1452

> <Gold.Chemscore.DEInternal>
1.4693

> <Gold.Chemscore.Rot>
1.5834

> <Gold.Chemscore.Internal.Correction>
   9.000000E+99

> <Gold.Chemscore.Hbonds>
donor molecule, donor type, donor heavy atom, donor atom, acceptor molecule, acceptor atom, score
      L1  H     5    22       P1  8028  0.99

> <Gold.Chemscore.Hbond.Weighted>
-3.3374

> <Gold.Chemscore.Metal.Weighted>
-0.0000

> <Gold.Chemscore.Lipo.Weighted>
-9.4513

> <Gold.Chemscore.Internal_Hbond.Weighted>
0.0000

> <Gold.Chemscore.DEClash.Weighted>
0.1452

> <Gold.Chemscore.DEInternal.Weighted>
1.4693

> <Gold.Chemscore.Rot.Weighted>
4.0536

> <Gold.Chemscore.Internal.Correction.Weighted>
   9.000000E+99

> <Gold.Protein.RotatedTorsions>
[ 6907 6896 6895 6894 ] final   71.55 input  -60.11 | X-H torsion
[ 7974 7965 7964 7962 ] final  -27.12 input  175.53 | X-H torsion
[ 8008 7997 7996 7995 ] final  -51.23 input   59.86 | X-H torsion
[ 10167 10162 10161 10158 ] final   -0.52 input  -65.29 | X-H torsion
[ 10718 10713 10712 10709 ] final  166.37 input   66.30 | X-H torsion
[ 10763 10752 10751 10750 ] final  -79.97 input  -60.55 | X-H torsion
[ 11005 11000 10999 10996 ] final  -91.96 input  -57.11 | X-H torsion

> <Gold.Protein.ActiveResidues>
 VAL166  LYS551  ARG553  GLY616  TRP617  ASP618  TYR619  PRO620  LYS621  CYS622 
 ASP623  PHE694  ASN695  SER759  ASP760  ASP761  ALA762  ILE779  LEU786  VAL792 
 PHE793  MET794  SER795  GLU796  ALA797  LYS798  CYS799  TRP800  GLU811  SER814 

> <Gold.Protein.RotatedAtoms>
  152.4816  134.4703  159.9633 H   0  0  0  0  0  0  0  0  0  0  0  0  # atno 6907 bound_to 6896
  151.4708  133.3563  159.2831 H   0  0  0  0  0  0  0  0  0  0  0  0  # atno 6908 bound_to 6896
  150.8894  134.8321  159.7343 H   0  0  0  0  0  0  0  0  0  0  0  0  # atno 6909 bound_to 6896
  146.1379  140.5110  142.8664 H   0  0  0  0  0  0  0  0  0  0  0  0  # atno 7974 bound_to 7965
  154.4078  140.1253  156.4795 H   0  0  0  0  0  0  0  0  0  0  0  0  # atno 8008 bound_to 7997
  155.7099  140.3494  155.4949 H   0  0  0  0  0  0  0  0  0  0  0  0  # atno 8009 bound_to 7997
  155.9310  140.1069  157.1122 H   0  0  0  0  0  0  0  0  0  0  0  0  # atno 8010 bound_to 7997
  140.6771  143.6885  150.8047 H   0  0  0  0  0  0  0  0  0  0  0  0  # atno 10167 bound_to 10162
  157.0668  131.0355  151.2626 H   0  0  0  0  0  0  0  0  0  0  0  0  # atno 10718 bound_to 10713
  154.5453  135.5677  153.6875 H   0  0  0  0  0  0  0  0  0  0  0  0  # atno 10763 bound_to 10752
  152.9974  135.6237  154.2447 H   0  0  0  0  0  0  0  0  0  0  0  0  # atno 10764 bound_to 10752
  154.2379  135.2863  155.2845 H   0  0  0  0  0  0  0  0  0  0  0  0  # atno 10765 bound_to 10752
  141.1533  133.7789  156.9952 H   0  0  0  0  0  0  0  0  0  0  0  0  # atno 11005 bound_to 11000
  144.7760  140.5740  143.6638 LP  0  0  0  0  0  0  0  0  0  0  0  0  # atno 17320 bound_to 7965
  145.5113  139.1479  143.3603 LP  0  0  0  0  0  0  0  0  0  0  0  0  # atno 17321 bound_to 7965
  140.0580  143.5183  152.2642 LP  0  0  0  0  0  0  0  0  0  0  0  0  # atno 17342 bound_to 10162
  139.6069  144.7599  151.3040 LP  0  0  0  0  0  0  0  0  0  0  0  0  # atno 17343 bound_to 10162
  157.4910  130.7822  149.7508 LP  0  0  0  0  0  0  0  0  0  0  0  0  # atno 17370 bound_to 10713
  155.9962  130.3907  150.2789 LP  0  0  0  0  0  0  0  0  0  0  0  0  # atno 17371 bound_to 10713
  140.0976  134.9555  157.1873 LP  0  0  0  0  0  0  0  0  0  0  0  0  # atno 17394 bound_to 11000
  140.3361  134.2755  155.7219 LP  0  0  0  0  0  0  0  0  0  0  0  0  # atno 17395 bound_to 11000

$$$$
