AV-unprocessed.smi:213|AV-procd|sdf|1637|dock6
  -GOLD-   2262020 03D 1   1.00000     0.00000
 Structure written by MMmdl.
 59 62  0  0  0  0  0  0  0  0  2 V2000
  143.1991  137.1616  152.8928 C   0  0  0  0  0  0  0  0  0  0  0  0
  144.2837  136.5059  153.7628 C   0  0  2  0  0  0  0  0  0  0  0  0
  143.8245  135.1238  154.2884 C   0  0  0  0  0  0  0  0  0  0  0  0
  144.0962  134.0186  153.3344 N   0  3  0  0  0  0  0  0  0  0  0  0
  143.3306  134.1371  152.0728 C   0  0  0  0  0  0  0  0  0  0  0  0
  143.5840  132.9062  151.1861 C   0  0  0  0  0  0  0  0  0  0  0  0
  144.9781  132.7798  150.9322 O   0  0  0  0  0  0  0  0  0  0  0  0
  145.7243  132.5926  152.1285 C   0  0  0  0  0  0  0  0  0  0  0  0
  145.5370  133.8095  153.0498 C   0  0  0  0  0  0  0  0  0  0  0  0
  144.7253  137.4045  154.8405 N   0  0  0  0  0  0  0  0  0  0  0  0
  144.4756  137.0358  156.2337 C   0  0  0  0  0  0  0  0  0  0  0  0
  145.8386  138.1442  154.5927 C   0  0  0  0  0  0  0  0  0  0  0  0
  146.2904  138.2609  153.3149 N   0  0  0  0  0  0  0  0  0  0  0  0
  147.3507  139.0254  153.0399 C   0  0  0  0  0  0  0  0  0  0  0  0
  148.0915  139.7534  153.8759 N   0  0  0  0  0  0  0  0  0  0  0  0
  147.6578  139.6277  155.1622 C   0  0  0  0  0  0  0  0  0  0  0  0
  146.5482  138.8524  155.6039 C   0  0  0  0  0  0  0  0  0  0  0  0
  146.4063  138.9732  156.9811 N   0  0  0  0  0  0  0  0  0  0  0  0
  147.3722  139.7765  157.3327 C   0  0  0  0  0  0  0  0  0  0  0  0
  148.1792  140.2093  156.3049 N   0  0  0  0  0  0  0  0  0  0  0  0
  149.3220  141.1014  156.4216 C   0  0  0  0  0  0  0  0  0  0  0  0
  149.4129  141.8503  157.7714 C   0  0  2  0  0  0  0  0  0  0  0  0
  148.4490  142.8838  157.7996 O   0  0  0  0  0  0  0  0  0  0  0  0
  150.8218  142.3973  158.1110 C   0  0  1  0  0  0  0  0  0  0  0  0
  151.3371  143.6249  157.3434 C   0  0  0  0  0  0  0  0  0  0  0  0
  152.3092  144.2749  158.3185 C   0  0  0  0  0  0  0  0  0  0  0  0
  152.1005  143.5178  159.6329 C   0  0  0  0  0  0  0  0  0  0  0  0
  150.8774  142.8164  159.4648 O   0  0  0  0  0  0  0  0  0  0  0  0
  142.9629  136.5362  152.0316 H   0  0  0  0  0  0  0  0  0  0  0  0
  143.5342  138.1272  152.5127 H   0  0  0  0  0  0  0  0  0  0  0  0
  142.2712  137.3194  153.4422 H   0  0  0  0  0  0  0  0  0  0  0  0
  145.1186  136.3295  153.0880 H   0  0  0  0  0  0  0  0  0  0  0  0
  144.3404  134.9204  155.2276 H   0  0  0  0  0  0  0  0  0  0  0  0
  142.7600  135.1400  154.5272 H   0  0  0  0  0  0  0  0  0  0  0  0
  142.2649  134.2174  152.2903 H   0  0  0  0  0  0  0  0  0  0  0  0
  143.6236  135.0480  151.5484 H   0  0  0  0  0  0  0  0  0  0  0  0
  143.2050  131.9999  151.6616 H   0  0  0  0  0  0  0  0  0  0  0  0
  143.0594  133.0123  150.2364 H   0  0  0  0  0  0  0  0  0  0  0  0
  145.4119  131.6739  152.6273 H   0  0  0  0  0  0  0  0  0  0  0  0
  146.7774  132.4732  151.8738 H   0  0  0  0  0  0  0  0  0  0  0  0
  145.9522  134.7023  152.5796 H   0  0  0  0  0  0  0  0  0  0  0  0
  146.0921  133.6475  153.9729 H   0  0  0  0  0  0  0  0  0  0  0  0
  144.6580  137.8818  156.8977 H   0  0  0  0  0  0  0  0  0  0  0  0
  145.1221  136.2135  156.5415 H   0  0  0  0  0  0  0  0  0  0  0  0
  143.4413  136.7283  156.3818 H   0  0  0  0  0  0  0  0  0  0  0  0
  147.6429  139.0661  152.0007 H   0  0  0  0  0  0  0  0  0  0  0  0
  147.5307  140.0681  158.3609 H   0  0  0  0  0  0  0  0  0  0  0  0
  150.2316  140.5270  156.2407 H   0  0  0  0  0  0  0  0  0  0  0  0
  149.2598  141.8290  155.6115 H   0  0  0  0  0  0  0  0  0  0  0  0
  149.1300  141.1379  158.5473 H   0  0  0  0  0  0  0  0  0  0  0  0
  148.6650  143.5104  157.1257 H   0  0  0  0  0  0  0  0  0  0  0  0
  151.5452  141.5853  158.0116 H   0  0  0  0  0  0  0  0  0  0  0  0
  151.8161  143.3607  156.4013 H   0  0  0  0  0  0  0  0  0  0  0  0
  150.5386  144.3314  157.1183 H   0  0  0  0  0  0  0  0  0  0  0  0
  153.3425  144.1913  157.9798 H   0  0  0  0  0  0  0  0  0  0  0  0
  152.0807  145.3350  158.4344 H   0  0  0  0  0  0  0  0  0  0  0  0
  152.9051  142.7983  159.7921 H   0  0  0  0  0  0  0  0  0  0  0  0
  152.0614  144.1805  160.4976 H   0  0  0  0  0  0  0  0  0  0  0  0
  143.7618  133.1761  153.7813 H   0  0  0  0  0  0  0  0  0  0  0  0
  1  2  1  0  0  0  0
  1 29  1  0  0  0  0
  1 30  1  0  0  0  0
  1 31  1  0  0  0  0
  2  3  1  0  0  0  0
  2 10  1  0  0  0  0
  2 32  1  0  0  0  0
  3  4  1  0  0  0  0
  3 33  1  0  0  0  0
  3 34  1  0  0  0  0
  4  9  1  0  0  0  0
  4  5  1  0  0  0  0
  4 59  1  0  0  0  0
  5  6  1  0  0  0  0
  5 35  1  0  0  0  0
  5 36  1  0  0  0  0
  6  7  1  0  0  0  0
  6 37  1  0  0  0  0
  6 38  1  0  0  0  0
  7  8  1  0  0  0  0
  8  9  1  0  0  0  0
  8 39  1  0  0  0  0
  8 40  1  0  0  0  0
  9 41  1  0  0  0  0
  9 42  1  0  0  0  0
 10 11  1  0  0  0  0
 10 12  1  0  0  0  0
 11 43  1  0  0  0  0
 11 44  1  0  0  0  0
 11 45  1  0  0  0  0
 12 17  1  0  0  0  0
 12 13  2  0  0  0  0
 13 14  1  0  0  0  0
 14 15  2  0  0  0  0
 14 46  1  0  0  0  0
 15 16  1  0  0  0  0
 16 20  1  0  0  0  0
 16 17  2  0  0  0  0
 17 18  1  0  0  0  0
 18 19  2  0  0  0  0
 19 20  1  0  0  0  0
 19 47  1  0  0  0  0
 20 21  1  0  0  0  0
 21 22  1  0  0  0  0
 21 48  1  0  0  0  0
 21 49  1  0  0  0  0
 22 23  1  0  0  0  0
 22 24  1  0  0  0  0
 22 50  1  0  0  0  0
 23 51  1  0  0  0  0
 24 28  1  0  0  0  0
 24 25  1  0  0  0  0
 24 52  1  0  0  0  0
 25 26  1  0  0  0  0
 25 53  1  0  0  0  0
 25 54  1  0  0  0  0
 26 27  1  0  0  0  0
 26 55  1  0  0  0  0
 26 56  1  0  0  0  0
 27 28  1  0  0  0  0
 27 57  1  0  0  0  0
 27 58  1  0  0  0  0
M  CHG  1   4   1
M  END
> <s_m_source_file>
AV-unprocessed.smi

> <i_m_source_file_index>
213

> <i_lp_mmshare_version>
43012

> <i_f3d_flags>
0

> <s_epik_input>
W0NIMl0xW0NIMl1PW0NIMl1bQ0gyXU4xW0NIMl1bQ0BASF0oW0NIM10pTihbQ0gzXSljKG5bY0hdbjIpYyhjMjMpbltjSF1uM1tDSDJdW0NASF0oW09IXSlbQ0BASF00W0NIMl1bQ0gyXVtDSDJdTzQ=

> <s_epik_cmdline>
J2VwaWtfcHl0aG9uJywgJy1waCcsICc3LjAnLCAnLXRuJywgJzgnLCAnLW1hJywgJzIwMCcsICctbWV0YWxfYmluZGluZycsICctaW1hZScsICc8aW5maWxlLm1hZT4nLCAnLW9tYWUnLCAnPG91dGZpbGUubWFlPic=

> <r_lp_tautomer_probability>
1

> <r_epik_Ionization_Penalty>
0.399679

> <r_epik_Ionization_Penalty_Charging>
0.399433

> <r_epik_Ionization_Penalty_Neutral>
0.000246213

> <r_epik_State_Penalty>
0.286032

> <r_epik_Charging_Adjusted_Penalty>
0.685465

> <i_epik_Tot_Q>
1

> <i_epik_Tot_abs_Q>
1

> <r_epik_Metal_State_Penalty>
0.286072

> <b_epik_Metal_Only>
0

> <s_lp_Force_Field>
OPLS_2005

> <r_lp_Energy>
48.2471

> <b_lp_Chiralities_Consistent>
1

> <s_lp_Variant>
AV-unprocessed.smi:213-5

> <Gold.Version>
5.8.1

> <Gold.Id.Protein>
6NUR|6NUR_protein|mol2

> <Gold.PLP.Fitness>
44.7617

> <Gold.PLP.PLP>
-34.3930

> <Gold.PLP.part.hbond>
-3.3420

> <Gold.PLP.part.metal>
0.0000

> <Gold.PLP.part.buried>
-4.9514

> <Gold.PLP.part.nonpolar>
-27.3504

> <Gold.PLP.part.repulsive>
0.5111

> <Gold.PLP.ligand.clash>
0.0000

> <Gold.PLP.ligand.torsion>
1.2743

> <Gold.PLP.Chemscore.Hbond>
3.0000

> <Gold.PLP.Chemscore.CHOScore>
0.9501

> <Gold.PLP.Chemscore.Metal>
0.0000

> <Gold.Chemscore.Hbonds>
donor molecule, donor type, donor heavy atom, donor atom, acceptor molecule, acceptor atom, score
      L1  H     4    59       P1 10957  1.92
      L1  H    23    51       P1  8028  0.95
      L1  C    14    46       P1  7957  0.95

> <Gold.PLP.Chemscore.Internal.Correction>
1.0672

> <Gold.Rescore>
     Score         DG    S(hbond)    S(metal)    S(lipo)     H(rot)  DE(clash)    DE(int)     intcor
     10.69     -13.84       1.70        0.00      84.76       2.83       0.42       2.73       ----

> <Gold.Chemscore.Fitness>
10.6882

> <Gold.Chemscore.DG>
-13.8351

> <Gold.Chemscore.ZeroCoef>
-5.4800

> <Gold.Chemscore.Hbond>
1.6978

> <Gold.Chemscore.Metal>
0.0000

> <Gold.Chemscore.Lipo>
84.7645

> <Gold.Chemscore.Internal_Hbond>
0.0000

> <Gold.Chemscore.DEClash>
0.4160

> <Gold.Chemscore.DEInternal>
2.7309

> <Gold.Chemscore.Rot>
2.8254

> <Gold.Chemscore.Internal.Correction>
   9.000000E+99

> <Gold.Chemscore.Hbonds>
donor molecule, donor type, donor heavy atom, donor atom, acceptor molecule, acceptor atom, score
      L1  H     4    59       P1 10957  0.90
      L1  H    23    51       P1  8028  0.22

> <Gold.Chemscore.Hbond.Weighted>
-5.6706

> <Gold.Chemscore.Metal.Weighted>
-0.0000

> <Gold.Chemscore.Lipo.Weighted>
-9.9174

> <Gold.Chemscore.Internal_Hbond.Weighted>
0.0000

> <Gold.Chemscore.DEClash.Weighted>
0.4160

> <Gold.Chemscore.DEInternal.Weighted>
2.7309

> <Gold.Chemscore.Rot.Weighted>
7.2330

> <Gold.Chemscore.Internal.Correction.Weighted>
   9.000000E+99

> <Gold.Protein.RotatedTorsions>
[ 6907 6896 6895 6894 ] final   24.49 input  -60.11 | X-H torsion
[ 7974 7965 7964 7962 ] final  150.32 input  175.53 | X-H torsion
[ 8008 7997 7996 7995 ] final  109.06 input   59.86 | X-H torsion
[ 10167 10162 10161 10158 ] final    4.90 input  -65.29 | X-H torsion
[ 10718 10713 10712 10709 ] final -135.02 input   66.30 | X-H torsion
[ 10763 10752 10751 10750 ] final   76.95 input  -60.55 | X-H torsion
[ 11005 11000 10999 10996 ] final   46.56 input  -57.11 | X-H torsion

> <Gold.Protein.ActiveResidues>
 VAL166  LYS551  ARG553  GLY616  TRP617  ASP618  TYR619  PRO620  LYS621  CYS622 
 ASP623  PHE694  ASN695  SER759  ASP760  ASP761  ALA762  ILE779  LEU786  VAL792 
 PHE793  MET794  SER795  GLU796  ALA797  LYS798  CYS799  TRP800  GLU811  SER814 

> <Gold.Protein.RotatedAtoms>
  151.9584  135.0136  160.0545 H   0  0  0  0  0  0  0  0  0  0  0  0  # atno 6907 bound_to 6896
  152.1891  133.4756  159.5007 H   0  0  0  0  0  0  0  0  0  0  0  0  # atno 6908 bound_to 6896
  150.6931  134.1653  159.4234 H   0  0  0  0  0  0  0  0  0  0  0  0  # atno 6909 bound_to 6896
  144.8373  139.6393  143.6032 H   0  0  0  0  0  0  0  0  0  0  0  0  # atno 7974 bound_to 7965
  156.1951  140.3064  155.9410 H   0  0  0  0  0  0  0  0  0  0  0  0  # atno 8008 bound_to 7997
  155.3085  140.0450  157.3050 H   0  0  0  0  0  0  0  0  0  0  0  0  # atno 8009 bound_to 7997
  154.5499  140.2288  155.8510 H   0  0  0  0  0  0  0  0  0  0  0  0  # atno 8010 bound_to 7997
  140.6510  143.7544  150.7576 H   0  0  0  0  0  0  0  0  0  0  0  0  # atno 10167 bound_to 10162
  156.2617  130.7213  151.1150 H   0  0  0  0  0  0  0  0  0  0  0  0  # atno 10718 bound_to 10713
  153.0762  135.4932  154.8410 H   0  0  0  0  0  0  0  0  0  0  0  0  # atno 10763 bound_to 10752
  154.7091  135.3016  154.9227 H   0  0  0  0  0  0  0  0  0  0  0  0  # atno 10764 bound_to 10752
  153.9927  135.6776  153.4808 H   0  0  0  0  0  0  0  0  0  0  0  0  # atno 10765 bound_to 10752
  140.1358  134.4647  155.8487 H   0  0  0  0  0  0  0  0  0  0  0  0  # atno 11005 bound_to 11000
  146.2670  139.6544  142.9322 LP  0  0  0  0  0  0  0  0  0  0  0  0  # atno 17320 bound_to 7965
  145.4768  141.0437  143.2668 LP  0  0  0  0  0  0  0  0  0  0  0  0  # atno 17321 bound_to 7965
  140.1194  143.4625  152.2322 LP  0  0  0  0  0  0  0  0  0  0  0  0  # atno 17342 bound_to 10162
  139.5726  144.7470  151.3851 LP  0  0  0  0  0  0  0  0  0  0  0  0  # atno 17343 bound_to 10162
  157.7253  131.0654  150.5960 LP  0  0  0  0  0  0  0  0  0  0  0  0  # atno 17370 bound_to 10713
  156.6048  130.4364  149.5882 LP  0  0  0  0  0  0  0  0  0  0  0  0  # atno 17371 bound_to 10713
  141.2178  133.6813  156.7154 LP  0  0  0  0  0  0  0  0  0  0  0  0  # atno 17394 bound_to 11000
  140.2785  134.8336  157.3911 LP  0  0  0  0  0  0  0  0  0  0  0  0  # atno 17395 bound_to 11000

$$$$
