AV-unprocessed.smi:1586|AV-procd|sdf|6383|dock9
  -GOLD-   22720 7 13D 1   1.00000     0.00000
 Structure written by MMmdl.
 46 47  0  0  0  0  0  0  0  0  3 V2000
  143.7622  132.4716  150.7221 C   0  0  0  0  0  0  0  0  0  0  0  0
  144.4910  133.0257  151.9552 C   0  0  0  0  0  0  0  0  0  0  0  0
  145.3857  134.1334  151.6111 N   0  0  0  0  0  0  0  0  0  0  0  0
  145.7203  135.0286  152.7217 C   0  0  0  0  0  0  0  0  0  0  0  0
  146.6340  134.3563  153.7681 C   0  0  0  0  0  0  0  0  0  0  0  0
  147.8943  133.8689  153.1424 N   0  3  0  0  0  0  0  0  0  0  0  0
  148.9007  133.2626  154.0739 C   0  0  2  0  0  0  0  0  0  0  0  0
  148.4039  131.9707  154.7688 C   0  0  0  0  0  0  0  0  0  0  0  0
  149.3331  134.3067  155.1310 C   0  0  0  0  0  0  0  0  0  0  0  0
  148.4240  134.3408  156.2713 N   0  0  0  0  0  0  0  0  0  0  0  0
  148.7509  134.7220  157.5132 C   0  0  0  0  0  0  0  0  0  0  0  0
  149.9102  135.0567  157.7671 O   0  0  0  0  0  0  0  0  0  0  0  0
  147.7133  134.6938  158.3804 N   0  5  0  0  0  0  0  0  0  0  0  0
  147.7912  135.3507  159.5483 C   0  0  0  0  0  0  0  0  0  0  0  0
  147.5989  134.7890  160.8402 C   0  0  0  0  0  0  0  0  0  0  0  0
  147.7746  135.8566  161.6741 C   0  0  0  0  0  0  0  0  0  0  0  0
  147.7287  136.0011  163.1570 C   0  0  0  0  0  0  0  0  0  0  0  0
  148.0396  136.9796  160.9537 O   0  0  0  0  0  0  0  0  0  0  0  0
  148.0417  136.6484  159.5935 N   0  0  0  0  0  0  0  0  0  0  0  0
  147.5580  132.9719  152.0034 C   0  0  0  0  0  0  0  0  0  0  0  0
  146.6315  133.6790  150.9921 C   0  0  0  0  0  0  0  0  0  0  0  0
  143.2097  131.5683  150.9808 H   0  0  0  0  0  0  0  0  0  0  0  0
  144.4647  132.2112  149.9298 H   0  0  0  0  0  0  0  0  0  0  0  0
  143.0421  133.1822  150.3180 H   0  0  0  0  0  0  0  0  0  0  0  0
  143.7706  133.3111  152.7209 H   0  0  0  0  0  0  0  0  0  0  0  0
  145.0906  132.2198  152.3803 H   0  0  0  0  0  0  0  0  0  0  0  0
  146.2260  135.9048  152.3138 H   0  0  0  0  0  0  0  0  0  0  0  0
  144.8147  135.4051  153.1955 H   0  0  0  0  0  0  0  0  0  0  0  0
  146.8528  135.1112  154.5225 H   0  0  0  0  0  0  0  0  0  0  0  0
  146.1219  133.5380  154.2754 H   0  0  0  0  0  0  0  0  0  0  0  0
  149.7750  132.9831  153.4833 H   0  0  0  0  0  0  0  0  0  0  0  0
  149.1513  131.5649  155.4507 H   0  0  0  0  0  0  0  0  0  0  0  0
  148.1977  131.1742  154.0540 H   0  0  0  0  0  0  0  0  0  0  0  0
  147.4999  132.1532  155.3506 H   0  0  0  0  0  0  0  0  0  0  0  0
  150.3286  134.0990  155.5203 H   0  0  0  0  0  0  0  0  0  0  0  0
  149.3780  135.2930  154.6651 H   0  0  0  0  0  0  0  0  0  0  0  0
  147.4652  134.0713  156.1059 H   0  0  0  0  0  0  0  0  0  0  0  0
  147.3747  133.7679  161.1102 H   0  0  0  0  0  0  0  0  0  0  0  0
  148.5255  135.4227  163.6244 H   0  0  0  0  0  0  0  0  0  0  0  0
  146.7762  135.6451  163.5494 H   0  0  0  0  0  0  0  0  0  0  0  0
  147.8486  137.0428  163.4554 H   0  0  0  0  0  0  0  0  0  0  0  0
  148.4605  132.6671  151.4768 H   0  0  0  0  0  0  0  0  0  0  0  0
  147.0992  132.0545  152.3744 H   0  0  0  0  0  0  0  0  0  0  0  0
  146.4054  133.0148  150.1570 H   0  0  0  0  0  0  0  0  0  0  0  0
  147.1460  134.5411  150.5655 H   0  0  0  0  0  0  0  0  0  0  0  0
  148.3367  134.6878  152.7499 H   0  0  0  0  0  0  0  0  0  0  0  0
  1  2  1  0  0  0  0
  1 22  1  0  0  0  0
  1 23  1  0  0  0  0
  1 24  1  0  0  0  0
  2  3  1  0  0  0  0
  2 25  1  0  0  0  0
  2 26  1  0  0  0  0
  3 21  1  0  0  0  0
  3  4  1  0  0  0  0
  4  5  1  0  0  0  0
  4 27  1  0  0  0  0
  4 28  1  0  0  0  0
  5  6  1  0  0  0  0
  5 29  1  0  0  0  0
  5 30  1  0  0  0  0
  6  7  1  0  0  0  0
  6 20  1  0  0  0  0
  6 46  1  0  0  0  0
  7  8  1  0  0  0  0
  7  9  1  0  0  0  0
  7 31  1  0  0  0  0
  8 32  1  0  0  0  0
  8 33  1  0  0  0  0
  8 34  1  0  0  0  0
  9 10  1  0  0  0  0
  9 35  1  0  0  0  0
  9 36  1  0  0  0  0
 10 11  1  0  0  0  0
 10 37  1  0  0  0  0
 11 12  2  0  0  0  0
 11 13  1  0  0  0  0
 13 14  1  0  0  0  0
 14 19  2  0  0  0  0
 14 15  1  0  0  0  0
 15 16  2  0  0  0  0
 15 38  1  0  0  0  0
 16 17  1  0  0  0  0
 16 18  1  0  0  0  0
 17 39  1  0  0  0  0
 17 40  1  0  0  0  0
 17 41  1  0  0  0  0
 18 19  1  0  0  0  0
 20 21  1  0  0  0  0
 20 42  1  0  0  0  0
 20 43  1  0  0  0  0
 21 44  1  0  0  0  0
 21 45  1  0  0  0  0
M  CHG  1   6   1
M  CHG  1  13  -1
M  END
> <s_m_source_file>
AV-unprocessed.smi

> <i_m_source_file_index>
1586

> <i_lp_mmshare_version>
43012

> <i_f3d_flags>
0

> <s_epik_input>
W0NIM11bQ0gyXU4xW0NIMl1bQ0gyXU4oW0NIMl1bQ0gyXTEpW0NASF0oW0NIM10pW0NIMl1bTkhdQyg9TylbTkhdYzJbY0hdYyhbQ0gzXSlvbjI=

> <s_epik_cmdline>
J2VwaWtfcHl0aG9uJywgJy1waCcsICc3LjAnLCAnLXRuJywgJzgnLCAnLW1hJywgJzIwMCcsICctbWV0YWxfYmluZGluZycsICctaW1hZScsICc8aW5maWxlLm1hZT4nLCAnLW9tYWUnLCAnPG91dGZpbGUubWFlPic=

> <r_epik_Ionization_Penalty>
6.35599

> <r_epik_Ionization_Penalty_Charging>
6.35441

> <r_epik_Ionization_Penalty_Neutral>
0.00158318

> <r_epik_State_Penalty>
7.1902

> <r_epik_Charging_Adjusted_Penalty>
13.5446

> <i_epik_Tot_Q>
0

> <i_epik_Tot_abs_Q>
2

> <r_epik_Metal_State_Penalty>
3.12491

> <b_epik_Metal_Only>
1

> <s_lp_Force_Field>
OPLS_2005

> <r_lp_Energy>
12.1212

> <b_lp_Chiralities_Consistent>
1

> <s_lp_Variant>
AV-unprocessed.smi:1586-11

> <Gold.Version>
5.8.1

> <Gold.Id.Protein>
6NUR|6NUR_protein|mol2

> <Gold.PLP.Fitness>
44.5211

> <Gold.PLP.PLP>
-33.1331

> <Gold.PLP.part.hbond>
-4.0000

> <Gold.PLP.part.metal>
0.0000

> <Gold.PLP.part.buried>
-3.9071

> <Gold.PLP.part.nonpolar>
-25.3495

> <Gold.PLP.part.repulsive>
0.1127

> <Gold.PLP.ligand.clash>
0.0000

> <Gold.PLP.ligand.torsion>
1.1864

> <Gold.PLP.Chemscore.Hbond>
4.5522

> <Gold.PLP.Chemscore.CHOScore>
0.0000

> <Gold.PLP.Chemscore.Metal>
0.0000

> <Gold.Chemscore.Hbonds>
donor molecule, donor type, donor heavy atom, donor atom, acceptor molecule, acceptor atom, score
      L1  H     6    46       P1  7948  2.00
      P1  H  6896  6908       L1    12  0.88
      P1  H  6931  6943       L1    18  1.00
      P1  H  6934  6947       L1    18  0.42

> <Gold.PLP.Chemscore.Internal.Correction>
0.1043

> <Gold.Rescore>
     Score         DG    S(hbond)    S(metal)    S(lipo)     H(rot)  DE(clash)    DE(int)     intcor
     17.78     -19.09       2.87        0.00      72.13       1.73       0.00       1.31       ----

> <Gold.Chemscore.Fitness>
17.7777

> <Gold.Chemscore.DG>
-19.0891

> <Gold.Chemscore.ZeroCoef>
-5.4800

> <Gold.Chemscore.Hbond>
2.8700

> <Gold.Chemscore.Metal>
0.0000

> <Gold.Chemscore.Lipo>
72.1319

> <Gold.Chemscore.Internal_Hbond>
0.0000

> <Gold.Chemscore.DEClash>
0.0021

> <Gold.Chemscore.DEInternal>
1.3092

> <Gold.Chemscore.Rot>
1.7250

> <Gold.Chemscore.Internal.Correction>
   9.000000E+99

> <Gold.Chemscore.Hbonds>
donor molecule, donor type, donor heavy atom, donor atom, acceptor molecule, acceptor atom, score
      L1  H     6    46       P1  7948  0.40
      P1  H  6896  6908       L1    12  0.81
      P1  H  6931  6943       L1    18  0.84
      P1  H  6934  6947       L1    18  0.14

> <Gold.Chemscore.Hbond.Weighted>
-9.5857

> <Gold.Chemscore.Metal.Weighted>
-0.0000

> <Gold.Chemscore.Lipo.Weighted>
-8.4394

> <Gold.Chemscore.Internal_Hbond.Weighted>
0.0000

> <Gold.Chemscore.DEClash.Weighted>
0.0021

> <Gold.Chemscore.DEInternal.Weighted>
1.3092

> <Gold.Chemscore.Rot.Weighted>
4.4161

> <Gold.Chemscore.Internal.Correction.Weighted>
   9.000000E+99

> <Gold.Protein.RotatedTorsions>
[ 6907 6896 6895 6894 ] final  158.78 input  -60.11 | X-H torsion
[ 7974 7965 7964 7962 ] final  106.36 input  175.53 | X-H torsion
[ 8008 7997 7996 7995 ] final   52.35 input   59.86 | X-H torsion
[ 10167 10162 10161 10158 ] final  159.25 input  -65.29 | X-H torsion
[ 10718 10713 10712 10709 ] final -135.05 input   66.30 | X-H torsion
[ 10763 10752 10751 10750 ] final   79.59 input  -60.55 | X-H torsion
[ 11005 11000 10999 10996 ] final   96.63 input  -57.11 | X-H torsion

> <Gold.Protein.ActiveResidues>
 VAL166  LYS551  ARG553  GLY616  TRP617  ASP618  TYR619  PRO620  LYS621  CYS622 
 ASP623  PHE694  ASN695  SER759  ASP760  ASP761  ALA762  ILE779  LEU786  VAL792 
 PHE793  MET794  SER795  GLU796  ALA797  LYS798  CYS799  TRP800  GLU811  SER814 

> <Gold.Protein.RotatedAtoms>
  151.9954  133.3806  159.4160 H   0  0  0  0  0  0  0  0  0  0  0  0  # atno 6907 bound_to 6896
  150.6916  134.3891  159.5078 H   0  0  0  0  0  0  0  0  0  0  0  0  # atno 6908 bound_to 6896
  152.1631  134.8896  160.0591 H   0  0  0  0  0  0  0  0  0  0  0  0  # atno 6909 bound_to 6896
  145.3077  139.2550  143.3780 H   0  0  0  0  0  0  0  0  0  0  0  0  # atno 7974 bound_to 7965
  155.4504  140.3458  155.4300 H   0  0  0  0  0  0  0  0  0  0  0  0  # atno 8008 bound_to 7997
  156.1224  140.1491  156.9215 H   0  0  0  0  0  0  0  0  0  0  0  0  # atno 8009 bound_to 7997
  154.4833  140.0863  156.7407 H   0  0  0  0  0  0  0  0  0  0  0  0  # atno 8010 bound_to 7997
  139.4831  144.4748  151.8526 H   0  0  0  0  0  0  0  0  0  0  0  0  # atno 10167 bound_to 10162
  156.2620  130.7215  151.1153 H   0  0  0  0  0  0  0  0  0  0  0  0  # atno 10718 bound_to 10713
  153.0965  135.4834  154.8788 H   0  0  0  0  0  0  0  0  0  0  0  0  # atno 10763 bound_to 10752
  154.7330  135.3064  154.8861 H   0  0  0  0  0  0  0  0  0  0  0  0  # atno 10764 bound_to 10752
  153.9491  135.6825  153.4797 H   0  0  0  0  0  0  0  0  0  0  0  0  # atno 10765 bound_to 10752
  139.8780  134.8960  156.4187 H   0  0  0  0  0  0  0  0  0  0  0  0  # atno 11005 bound_to 11000
  146.3129  140.3606  142.8664 LP  0  0  0  0  0  0  0  0  0  0  0  0  # atno 17320 bound_to 7965
  144.9041  140.7679  143.5848 LP  0  0  0  0  0  0  0  0  0  0  0  0  # atno 17321 bound_to 7965
  140.4219  144.2231  150.5887 LP  0  0  0  0  0  0  0  0  0  0  0  0  # atno 17342 bound_to 10162
  140.4865  143.2361  151.8880 LP  0  0  0  0  0  0  0  0  0  0  0  0  # atno 17343 bound_to 10162
  157.7254  131.0653  150.5955 LP  0  0  0  0  0  0  0  0  0  0  0  0  # atno 17370 bound_to 10713
  156.6044  130.4363  149.5884 LP  0  0  0  0  0  0  0  0  0  0  0  0  # atno 17371 bound_to 10713
  140.9149  133.7685  155.9836 LP  0  0  0  0  0  0  0  0  0  0  0  0  # atno 17394 bound_to 11000
  140.8505  134.2960  157.5277 LP  0  0  0  0  0  0  0  0  0  0  0  0  # atno 17395 bound_to 11000

$$$$
