AV-unprocessed.smi:72|AV-procd|sdf|678|dock2
  -GOLD-   2262016583D 1   1.00000     0.00000
 Structure written by MMmdl.
 29 30  0  0  0  0  0  0  0  0  1 V2000
  153.1881  136.0936  157.1266 N   0  0  0  0  0  0  0  0  0  0  0  0
  152.6539  137.1972  156.7409 C   0  0  0  0  0  0  0  0  0  0  0  0
  152.0991  137.4294  155.4730 N   0  0  0  0  0  0  0  0  0  0  0  0
  151.6052  138.6011  155.2152 C   0  0  0  0  0  0  0  0  0  0  0  0
  151.6120  139.6773  156.1932 N   0  0  0  0  0  0  0  0  0  0  0  0
  151.0285  141.0313  155.8612 C   0  0  1  0  0  0  0  0  0  0  0  0
  150.3194  140.9333  154.6615 O   0  0  0  0  0  0  0  0  0  0  0  0
  149.0792  141.6219  154.7790 C   0  0  1  0  0  0  0  0  0  0  0  0
  148.0651  141.0353  153.7851 C   0  0  0  0  0  0  0  0  0  0  0  0
  148.2779  139.6478  153.6362 O   0  0  0  0  0  0  0  0  0  0  0  0
  148.7103  141.3820  156.2443 C   0  0  2  0  0  0  0  0  0  0  0  0
  147.7392  142.2903  156.7294 O   0  0  0  0  0  0  0  0  0  0  0  0
  150.0552  141.4919  156.9579 C   0  0  2  0  0  0  0  0  0  0  0  0
  150.3482  142.8150  157.3677 O   0  0  0  0  0  0  0  0  0  0  0  0
  152.1391  139.4513  157.4878 C   0  0  0  0  0  0  0  0  0  0  0  0
  152.1322  140.3119  158.3675 O   0  0  0  0  0  0  0  0  0  0  0  0
  152.6472  138.2181  157.7018 N   0  0  0  0  0  0  0  0  0  0  0  0
  151.8675  141.7117  155.7070 H   0  0  0  0  0  0  0  0  0  0  0  0
  149.2374  142.6888  154.6078 H   0  0  0  0  0  0  0  0  0  0  0  0
  148.3288  140.3666  156.3614 H   0  0  0  0  0  0  0  0  0  0  0  0
  150.1038  140.8398  157.8312 H   0  0  0  0  0  0  0  0  0  0  0  0
  153.5134  136.1696  158.0791 H   0  0  0  0  0  0  0  0  0  0  0  0
  151.1528  138.8533  154.2553 H   0  0  0  0  0  0  0  0  0  0  0  0
  147.0402  141.2312  154.1020 H   0  0  0  0  0  0  0  0  0  0  0  0
  148.1938  141.4922  152.8036 H   0  0  0  0  0  0  0  0  0  0  0  0
  148.7487  139.5007  152.8303 H   0  0  0  0  0  0  0  0  0  0  0  0
  148.0135  143.1677  156.5112 H   0  0  0  0  0  0  0  0  0  0  0  0
  149.7158  143.3975  156.9755 H   0  0  0  0  0  0  0  0  0  0  0  0
  153.0373  138.0281  158.6132 H   0  0  0  0  0  0  0  0  0  0  0  0
  1  2  2  0  0  0  0
  1 22  1  0  0  0  0
  2 17  1  0  0  0  0
  2  3  1  0  0  0  0
  3  4  2  0  0  0  0
  4  5  1  0  0  0  0
  4 23  1  0  0  0  0
  5  6  1  0  0  0  0
  5 15  1  0  0  0  0
  6 18  1  0  0  0  0
  6 13  1  0  0  0  0
  6  7  1  0  0  0  0
  7  8  1  0  0  0  0
  8 19  1  0  0  0  0
  8  9  1  0  0  0  0
  8 11  1  0  0  0  0
  9 10  1  0  0  0  0
  9 24  1  0  0  0  0
  9 25  1  0  0  0  0
 10 26  1  0  0  0  0
 11 20  1  0  0  0  0
 11 12  1  0  0  0  0
 11 13  1  0  0  0  0
 12 27  1  0  0  0  0
 13 21  1  0  0  0  0
 13 14  1  0  0  0  0
 14 28  1  0  0  0  0
 15 16  2  0  0  0  0
 15 17  1  0  0  0  0
 17 29  1  0  0  0  0
M  END
> <s_m_source_file>
AV-unprocessed.smi

> <i_m_source_file_index>
72

> <i_lp_mmshare_version>
43012

> <i_f3d_flags>
0

> <s_epik_input>
W05IMl1jMW5bY0hdbihjKD1PKW4xKVtDQEBIXTJPW0NASF0oW0NIMl1bT0hdKVtDQEBIXShbT0hdKVtDQEhdMltPSF0=

> <s_epik_cmdline>
J2VwaWtfcHl0aG9uJywgJy1waCcsICc3LjAnLCAnLXRuJywgJzgnLCAnLW1hJywgJzIwMCcsICctbWV0YWxfYmluZGluZycsICctaW1hZScsICc8aW5maWxlLm1hZT4nLCAnLW9tYWUnLCAnPG91dGZpbGUubWFlPic=

> <r_lp_tautomer_probability>
7.17554e-07

> <r_epik_Ionization_Penalty>
0.0066451

> <r_epik_Ionization_Penalty_Charging>
0.00663793

> <r_epik_Ionization_Penalty_Neutral>
7.17052e-06

> <r_epik_State_Penalty>
0.419231

> <r_epik_Charging_Adjusted_Penalty>
0.425868

> <i_epik_Tot_Q>
0

> <i_epik_Tot_abs_Q>
0

> <r_epik_Metal_State_Penalty>
1.44144

> <b_epik_Metal_Only>
0

> <s_epik_Chemistry_Notes>
This compound contains an acetal/aminal-like group ( X-CH(R)-Y where X, Y are N, S, or O) that may be acid/base labile, releasing an aldehyde.

> <s_lp_Force_Field>
OPLS_2005

> <r_lp_Energy>
43.4665

> <b_lp_Chiralities_Consistent>
1

> <s_lp_Variant>
AV-unprocessed.smi:72-16

> <Gold.Version>
5.8.1

> <Gold.Id.Protein>
6NUR|6NUR_protein|mol2

> <Gold.PLP.Fitness>
38.0156

> <Gold.PLP.PLP>
-24.7966

> <Gold.PLP.part.hbond>
-6.0000

> <Gold.PLP.part.metal>
0.0000

> <Gold.PLP.part.buried>
-1.4665

> <Gold.PLP.part.nonpolar>
-17.6304

> <Gold.PLP.part.repulsive>
0.2557

> <Gold.PLP.ligand.clash>
0.0000

> <Gold.PLP.ligand.torsion>
0.4775

> <Gold.PLP.Chemscore.Hbond>
4.7200

> <Gold.PLP.Chemscore.CHOScore>
0.0000

> <Gold.PLP.Chemscore.Metal>
0.0000

> <Gold.Chemscore.Hbonds>
donor molecule, donor type, donor heavy atom, donor atom, acceptor molecule, acceptor atom, score
      L1  H    10    26       P1  7957  1.00
      L1  H    12    27       P1  8028  0.95
      L1  H    14    28       P1  8028  0.99
      P1  H  7989  7998       L1     7  0.72
      P1  H 10752 10765       L1     1  1.00

> <Gold.PLP.Chemscore.Internal.Correction>
0.0140

> <Gold.Rescore>
     Score         DG    S(hbond)    S(metal)    S(lipo)     H(rot)  DE(clash)    DE(int)     intcor
      5.40      -7.90       2.89        0.00      26.89       4.06       1.26       1.25       ----

> <Gold.Chemscore.Fitness>
5.3958

> <Gold.Chemscore.DG>
-7.8999

> <Gold.Chemscore.ZeroCoef>
-5.4800

> <Gold.Chemscore.Hbond>
2.8945

> <Gold.Chemscore.Metal>
0.0000

> <Gold.Chemscore.Lipo>
26.8870

> <Gold.Chemscore.Internal_Hbond>
0.0000

> <Gold.Chemscore.DEClash>
1.2557

> <Gold.Chemscore.DEInternal>
1.2483

> <Gold.Chemscore.Rot>
4.0600

> <Gold.Chemscore.Internal.Correction>
   9.000000E+99

> <Gold.Chemscore.Hbonds>
donor molecule, donor type, donor heavy atom, donor atom, acceptor molecule, acceptor atom, score
      L1  H    10    26       P1  7957  0.97
      L1  H    12    27       P1  8028  0.21
      L1  H    14    28       P1  8028  0.91
      P1  H  7989  7998       L1     7  0.25
      P1  H 10752 10764       L1     3  0.01
      P1  H 10752 10765       L1     1  0.35

> <Gold.Chemscore.Hbond.Weighted>
-9.6677

> <Gold.Chemscore.Metal.Weighted>
-0.0000

> <Gold.Chemscore.Lipo.Weighted>
-3.1458

> <Gold.Chemscore.Internal_Hbond.Weighted>
0.0000

> <Gold.Chemscore.DEClash.Weighted>
1.2557

> <Gold.Chemscore.DEInternal.Weighted>
1.2483

> <Gold.Chemscore.Rot.Weighted>
10.3936

> <Gold.Chemscore.Internal.Correction.Weighted>
   9.000000E+99

> <Gold.Protein.RotatedTorsions>
[ 6907 6896 6895 6894 ] final  -48.83 input  -60.11 | X-H torsion
[ 7974 7965 7964 7962 ] final  152.04 input  175.53 | X-H torsion
[ 8008 7997 7996 7995 ] final -151.96 input   59.86 | X-H torsion
[ 10167 10162 10161 10158 ] final  174.20 input  -65.29 | X-H torsion
[ 10718 10713 10712 10709 ] final  -42.47 input   66.30 | X-H torsion
[ 10763 10752 10751 10750 ] final  -97.26 input  -60.55 | X-H torsion
[ 11005 11000 10999 10996 ] final   -6.45 input  -57.11 | X-H torsion

> <Gold.Protein.ActiveResidues>
 VAL166  LYS551  ARG553  GLY616  TRP617  ASP618  TYR619  PRO620  LYS621  CYS622 
 ASP623  PHE694  ASN695  SER759  ASP760  ASP761  ALA762  ILE779  LEU786  VAL792 
 PHE793  MET794  SER795  GLU796  ALA797  LYS798  CYS799  TRP800  GLU811  SER814 

> <Gold.Protein.RotatedAtoms>
  150.8865  134.8264  159.7262 H   0  0  0  0  0  0  0  0  0  0  0  0  # atno 6907 bound_to 6896
  152.4811  134.4714  159.9646 H   0  0  0  0  0  0  0  0  0  0  0  0  # atno 6908 bound_to 6896
  151.4782  133.3514  159.2869 H   0  0  0  0  0  0  0  0  0  0  0  0  # atno 6909 bound_to 6896
  144.8250  139.6616  143.6084 H   0  0  0  0  0  0  0  0  0  0  0  0  # atno 7974 bound_to 7965
  155.6476  140.0708  157.2598 H   0  0  0  0  0  0  0  0  0  0  0  0  # atno 8008 bound_to 7997
  154.4170  140.1739  156.1689 H   0  0  0  0  0  0  0  0  0  0  0  0  # atno 8009 bound_to 7997
  155.9804  140.3354  155.6661 H   0  0  0  0  0  0  0  0  0  0  0  0  # atno 8010 bound_to 7997
  139.5133  144.3174  152.0235 H   0  0  0  0  0  0  0  0  0  0  0  0  # atno 10167 bound_to 10162
  156.2593  130.4195  149.8561 H   0  0  0  0  0  0  0  0  0  0  0  0  # atno 10718 bound_to 10713
  154.7312  135.5053  153.8967 H   0  0  0  0  0  0  0  0  0  0  0  0  # atno 10763 bound_to 10752
  153.0951  135.6670  153.9786 H   0  0  0  0  0  0  0  0  0  0  0  0  # atno 10764 bound_to 10752
  153.9587  135.3050  155.3414 H   0  0  0  0  0  0  0  0  0  0  0  0  # atno 10765 bound_to 10752
  140.7021  133.8981  155.8690 H   0  0  0  0  0  0  0  0  0  0  0  0  # atno 11005 bound_to 11000
  146.2555  139.6294  142.9397 LP  0  0  0  0  0  0  0  0  0  0  0  0  # atno 17320 bound_to 7965
  145.5020  141.0437  143.2535 LP  0  0  0  0  0  0  0  0  0  0  0  0  # atno 17321 bound_to 7965
  140.2617  144.4060  150.6183 LP  0  0  0  0  0  0  0  0  0  0  0  0  # atno 17342 bound_to 10162
  140.6152  143.2172  151.6805 LP  0  0  0  0  0  0  0  0  0  0  0  0  # atno 17343 bound_to 10162
  156.6082  130.8575  151.3448 LP  0  0  0  0  0  0  0  0  0  0  0  0  # atno 17370 bound_to 10713
  157.7244  130.9602  150.1573 LP  0  0  0  0  0  0  0  0  0  0  0  0  # atno 17371 bound_to 10713
  141.0155  134.0961  157.4176 LP  0  0  0  0  0  0  0  0  0  0  0  0  # atno 17394 bound_to 11000
  139.8894  135.0105  156.6677 LP  0  0  0  0  0  0  0  0  0  0  0  0  # atno 17395 bound_to 11000

$$$$
