AV-unprocessed.smi:1257|AV-procd|sdf|5285|dock4
  -GOLD-   22720 4403D 1   1.00000     0.00000
 Structure written by MMmdl.
 47 48  0  0  0  0  0  0  0  0  1 V2000
  157.3243  131.1244  153.8845 C   0  0  0  0  0  0  0  0  0  0  0  0
  157.3063  132.6278  154.1917 C   0  0  0  0  0  0  0  0  0  0  0  0
  157.0268  132.8855  155.5995 N   0  0  0  0  0  0  0  0  0  0  0  0
  156.7649  134.0917  156.1250 C   0  0  0  0  0  0  0  0  0  0  0  0
  156.7472  135.1282  155.4591 O   0  0  0  0  0  0  0  0  0  0  0  0
  156.5082  134.1255  157.6366 C   0  0  0  0  0  0  0  0  0  0  0  0
  155.9586  135.4011  158.0884 N   0  0  0  0  0  0  0  0  0  0  0  0
  155.0028  135.5445  159.0217 C   0  0  0  0  0  0  0  0  0  0  0  0
  154.4834  134.5975  159.6132 O   0  0  0  0  0  0  0  0  0  0  0  0
  154.5356  136.9510  159.2620 C   0  0  0  0  0  0  0  0  0  0  0  0
  153.3416  137.1994  159.9731 C   0  0  0  0  0  0  0  0  0  0  0  0
  152.9415  138.5308  160.1968 C   0  0  0  0  0  0  0  0  0  0  0  0
  153.7517  139.5747  159.7050 C   0  0  0  0  0  0  0  0  0  0  0  0
  153.3554  140.9016  159.9213 N   0  0  0  0  0  0  0  0  0  0  0  0
  152.0882  141.2341  159.2836 C   0  0  0  0  0  0  0  0  0  0  0  0
  151.7769  142.7363  159.4365 C   0  0  2  0  0  0  0  0  0  0  0  0
  152.6265  143.6365  158.5218 C   0  0  0  0  0  0  0  0  0  0  0  0
  151.8728  143.1219  160.8109 O   0  0  0  0  0  0  0  0  0  0  0  0
  153.1211  142.8180  161.4349 C   0  0  1  0  0  0  0  0  0  0  0  0
  153.0483  143.2752  162.8953 C   0  0  0  0  0  0  0  0  0  0  0  0
  153.3950  141.3079  161.3191 C   0  0  0  0  0  0  0  0  0  0  0  0
  154.9058  139.3474  159.0342 N   0  0  0  0  0  0  0  0  0  0  0  0
  155.2848  138.0684  158.8262 C   0  0  0  0  0  0  0  0  0  0  0  0
  157.5005  130.9493  152.8232 H   0  0  0  0  0  0  0  0  0  0  0  0
  156.3743  130.6571  154.1450 H   0  0  0  0  0  0  0  0  0  0  0  0
  158.1129  130.6144  154.4387 H   0  0  0  0  0  0  0  0  0  0  0  0
  158.2541  133.0857  153.9040 H   0  0  0  0  0  0  0  0  0  0  0  0
  156.5336  133.1149  153.5967 H   0  0  0  0  0  0  0  0  0  0  0  0
  157.0271  132.0876  156.2185 H   0  0  0  0  0  0  0  0  0  0  0  0
  155.8457  133.3067  157.9242 H   0  0  0  0  0  0  0  0  0  0  0  0
  157.4543  133.9587  158.1516 H   0  0  0  0  0  0  0  0  0  0  0  0
  156.3052  136.2320  157.6317 H   0  0  0  0  0  0  0  0  0  0  0  0
  152.7324  136.3864  160.3409 H   0  0  0  0  0  0  0  0  0  0  0  0
  152.0288  138.7441  160.7339 H   0  0  0  0  0  0  0  0  0  0  0  0
  152.1135  140.9560  158.2292 H   0  0  0  0  0  0  0  0  0  0  0  0
  151.2915  140.6500  159.7471 H   0  0  0  0  0  0  0  0  0  0  0  0
  150.7365  142.8895  159.1490 H   0  0  0  0  0  0  0  0  0  0  0  0
  152.4408  143.4049  157.4726 H   0  0  0  0  0  0  0  0  0  0  0  0
  153.6951  143.5130  158.6952 H   0  0  0  0  0  0  0  0  0  0  0  0
  152.3808  144.6876  158.6755 H   0  0  0  0  0  0  0  0  0  0  0  0
  153.9212  143.3744  160.9460 H   0  0  0  0  0  0  0  0  0  0  0  0
  153.9851  143.0755  163.4163 H   0  0  0  0  0  0  0  0  0  0  0  0
  152.2505  142.7600  163.4310 H   0  0  0  0  0  0  0  0  0  0  0  0
  152.8551  144.3464  162.9588 H   0  0  0  0  0  0  0  0  0  0  0  0
  152.6486  140.7495  161.8861 H   0  0  0  0  0  0  0  0  0  0  0  0
  154.3705  141.0686  161.7446 H   0  0  0  0  0  0  0  0  0  0  0  0
  156.2177  137.9435  158.2959 H   0  0  0  0  0  0  0  0  0  0  0  0
  1  2  1  0  0  0  0
  1 24  1  0  0  0  0
  1 25  1  0  0  0  0
  1 26  1  0  0  0  0
  2  3  1  0  0  0  0
  2 27  1  0  0  0  0
  2 28  1  0  0  0  0
  3  4  1  0  0  0  0
  3 29  1  0  0  0  0
  4  5  2  0  0  0  0
  4  6  1  0  0  0  0
  6  7  1  0  0  0  0
  6 30  1  0  0  0  0
  6 31  1  0  0  0  0
  7  8  1  0  0  0  0
  7 32  1  0  0  0  0
  8  9  2  0  0  0  0
  8 10  1  0  0  0  0
 10 23  1  0  0  0  0
 10 11  2  0  0  0  0
 11 12  1  0  0  0  0
 11 33  1  0  0  0  0
 12 13  2  0  0  0  0
 12 34  1  0  0  0  0
 13 14  1  0  0  0  0
 13 22  1  0  0  0  0
 14 21  1  0  0  0  0
 14 15  1  0  0  0  0
 15 16  1  0  0  0  0
 15 35  1  0  0  0  0
 15 36  1  0  0  0  0
 16 17  1  0  0  0  0
 16 18  1  0  0  0  0
 16 37  1  0  0  0  0
 17 38  1  0  0  0  0
 17 39  1  0  0  0  0
 17 40  1  0  0  0  0
 18 19  1  0  0  0  0
 19 20  1  0  0  0  0
 19 21  1  0  0  0  0
 19 41  1  0  0  0  0
 20 42  1  0  0  0  0
 20 43  1  0  0  0  0
 20 44  1  0  0  0  0
 21 45  1  0  0  0  0
 21 46  1  0  0  0  0
 22 23  2  0  0  0  0
 23 47  1  0  0  0  0
M  END
> <s_m_source_file>
AV-unprocessed.smi

> <i_m_source_file_index>
1257

> <i_lp_mmshare_version>
43012

> <i_f3d_flags>
0

> <s_epik_input>
W0NIM11bQ0gyXVtOSF1DKD1PKVtDSDJdW05IXUMoPU8pYzFbY0hdW2NIXWMobltjSF0xKU4yW0NIMl1bQ0BASF0oW0NIM10pT1tDQEBIXShbQ0gzXSlbQ0gyXTI=

> <s_epik_cmdline>
J2VwaWtfcHl0aG9uJywgJy1waCcsICc3LjAnLCAnLXRuJywgJzgnLCAnLW1hJywgJzIwMCcsICctbWV0YWxfYmluZGluZycsICctaW1hZScsICc8aW5maWxlLm1hZT4nLCAnLW9tYWUnLCAnPG91dGZpbGUubWFlPic=

> <r_lp_tautomer_probability>
1

> <r_epik_Ionization_Penalty>
1.15681e-05

> <r_epik_Ionization_Penalty_Charging>
0

> <r_epik_Ionization_Penalty_Neutral>
1.15681e-05

> <r_epik_State_Penalty>
-0

> <r_epik_Charging_Adjusted_Penalty>
0

> <i_epik_Tot_Q>
0

> <i_epik_Tot_abs_Q>
0

> <r_epik_Metal_State_Penalty>
-0

> <b_epik_Metal_Only>
0

> <s_lp_Force_Field>
OPLS_2005

> <r_lp_Energy>
18.6065

> <b_lp_Chiralities_Consistent>
1

> <s_lp_Variant>
AV-unprocessed.smi:1257-2

> <Gold.Version>
5.8.1

> <Gold.Id.Protein>
6NUR|6NUR_protein|mol2

> <Gold.PLP.Fitness>
41.0014

> <Gold.PLP.PLP>
-33.1390

> <Gold.PLP.part.hbond>
-3.2096

> <Gold.PLP.part.metal>
0.0000

> <Gold.PLP.part.buried>
-5.6518

> <Gold.PLP.part.nonpolar>
-24.3507

> <Gold.PLP.part.repulsive>
0.1806

> <Gold.PLP.ligand.clash>
0.0000

> <Gold.PLP.ligand.torsion>
0.4863

> <Gold.PLP.Chemscore.Hbond>
2.9040

> <Gold.PLP.Chemscore.CHOScore>
0.0000

> <Gold.PLP.Chemscore.Metal>
0.0000

> <Gold.Chemscore.Hbonds>
donor molecule, donor type, donor heavy atom, donor atom, acceptor molecule, acceptor atom, score
      P1  H  6896  6909       L1     9  1.00
      P1  H  7997  8010       L1    22  0.95
      P1  H 10752 10765       L1     5  0.74

> <Gold.PLP.Chemscore.Internal.Correction>
0.1229

> <Gold.Rescore>
     Score         DG    S(hbond)    S(metal)    S(lipo)     H(rot)  DE(clash)    DE(int)     intcor
     18.41     -19.85       2.29        0.00      94.91       1.71       0.87       0.57       ----

> <Gold.Chemscore.Fitness>
18.4079

> <Gold.Chemscore.DG>
-19.8482

> <Gold.Chemscore.ZeroCoef>
-5.4800

> <Gold.Chemscore.Hbond>
2.2852

> <Gold.Chemscore.Metal>
0.0000

> <Gold.Chemscore.Lipo>
94.9104

> <Gold.Chemscore.Internal_Hbond>
0.0000

> <Gold.Chemscore.DEClash>
0.8658

> <Gold.Chemscore.DEInternal>
0.5745

> <Gold.Chemscore.Rot>
1.7066

> <Gold.Chemscore.Internal.Correction>
   9.000000E+99

> <Gold.Chemscore.Hbonds>
donor molecule, donor type, donor heavy atom, donor atom, acceptor molecule, acceptor atom, score
      P1  H  6896  6909       L1     9  0.96
      P1  H  7997  8010       L1    22  0.21
      P1  H 10752 10765       L1     5  0.22

> <Gold.Chemscore.Hbond.Weighted>
-7.6326

> <Gold.Chemscore.Metal.Weighted>
-0.0000

> <Gold.Chemscore.Lipo.Weighted>
-11.1045

> <Gold.Chemscore.Internal_Hbond.Weighted>
0.0000

> <Gold.Chemscore.DEClash.Weighted>
0.8658

> <Gold.Chemscore.DEInternal.Weighted>
0.5745

> <Gold.Chemscore.Rot.Weighted>
4.3690

> <Gold.Chemscore.Internal.Correction.Weighted>
   9.000000E+99

> <Gold.Protein.RotatedTorsions>
[ 6907 6896 6895 6894 ] final -170.14 input  -60.11 | X-H torsion
[ 7974 7965 7964 7962 ] final -162.47 input  175.53 | X-H torsion
[ 8008 7997 7996 7995 ] final   -2.96 input   59.86 | X-H torsion
[ 10167 10162 10161 10158 ] final -125.70 input  -65.29 | X-H torsion
[ 10718 10713 10712 10709 ] final -166.29 input   66.30 | X-H torsion
[ 10763 10752 10751 10750 ] final  -52.06 input  -60.55 | X-H torsion
[ 11005 11000 10999 10996 ] final  123.17 input  -57.11 | X-H torsion

> <Gold.Protein.ActiveResidues>
 VAL166  LYS551  ARG553  GLY616  TRP617  ASP618  TYR619  PRO620  LYS621  CYS622 
 ASP623  PHE694  ASN695  SER759  ASP760  ASP761  ALA762  ILE779  LEU786  VAL792 
 PHE793  MET794  SER795  GLU796  ALA797  LYS798  CYS799  TRP800  GLU811  SER814 

> <Gold.Protein.RotatedAtoms>
  151.5030  133.3500  159.2871 H   0  0  0  0  0  0  0  0  0  0  0  0  # atno 6907 bound_to 6896
  150.8761  134.8146  159.7201 H   0  0  0  0  0  0  0  0  0  0  0  0  # atno 6908 bound_to 6896
  152.4731  134.4921  159.9750 H   0  0  0  0  0  0  0  0  0  0  0  0  # atno 6909 bound_to 6896
  144.7356  140.3248  143.6164 H   0  0  0  0  0  0  0  0  0  0  0  0  # atno 7974 bound_to 7965
  154.6301  140.2521  155.7444 H   0  0  0  0  0  0  0  0  0  0  0  0  # atno 8008 bound_to 7997
  156.2475  140.2909  156.0569 H   0  0  0  0  0  0  0  0  0  0  0  0  # atno 8009 bound_to 7997
  155.1759  140.0387  157.2862 H   0  0  0  0  0  0  0  0  0  0  0  0  # atno 8010 bound_to 7997
  139.9793  143.5760  152.2384 H   0  0  0  0  0  0  0  0  0  0  0  0  # atno 10167 bound_to 10162
  156.6658  130.9064  151.3036 H   0  0  0  0  0  0  0  0  0  0  0  0  # atno 10718 bound_to 10713
  154.1366  135.6512  153.4933 H   0  0  0  0  0  0  0  0  0  0  0  0  # atno 10763 bound_to 10752
  153.0179  135.5305  154.6947 H   0  0  0  0  0  0  0  0  0  0  0  0  # atno 10764 bound_to 10752
  154.6197  135.2963  155.0311 H   0  0  0  0  0  0  0  0  0  0  0  0  # atno 10765 bound_to 10752
  139.9300  134.9641  156.8219 H   0  0  0  0  0  0  0  0  0  0  0  0  # atno 11005 bound_to 11000
  145.7532  139.1800  143.2309 LP  0  0  0  0  0  0  0  0  0  0  0  0  # atno 17320 bound_to 7965
  146.1044  140.7504  142.9533 LP  0  0  0  0  0  0  0  0  0  0  0  0  # atno 17321 bound_to 7965
  139.6422  144.7655  151.2316 LP  0  0  0  0  0  0  0  0  0  0  0  0  # atno 17342 bound_to 10162
  140.7495  143.6298  150.8434 LP  0  0  0  0  0  0  0  0  0  0  0  0  # atno 17343 bound_to 10162
  157.7094  130.9423  150.1039 LP  0  0  0  0  0  0  0  0  0  0  0  0  # atno 17370 bound_to 10713
  156.1976  130.3658  149.8829 LP  0  0  0  0  0  0  0  0  0  0  0  0  # atno 17371 bound_to 10713
  140.6227  133.9979  155.7626 LP  0  0  0  0  0  0  0  0  0  0  0  0  # atno 17394 bound_to 11000
  141.0883  133.9956  157.3277 LP  0  0  0  0  0  0  0  0  0  0  0  0  # atno 17395 bound_to 11000

$$$$
