AV-unprocessed.smi:281|AV-procd|sdf|2114|dock9
  -GOLD-   2262021413D 1   1.00000     0.00000
 Structure written by MMmdl.
 55 59  0  0  0  0  0  0  0  0  1 V2000
  146.8782  128.8661  152.9814 C   0  0  0  0  0  0  0  0  0  0  0  0
  146.4295  130.3216  152.8195 C   0  0  1  0  0  0  0  0  0  0  0  0
  147.4476  131.3081  153.4126 C   0  0  0  0  0  0  0  0  0  0  0  0
  147.0155  132.6712  153.1470 N   0  0  0  0  0  0  0  0  0  0  0  0
  147.7467  133.6088  153.7837 C   0  0  0  0  0  0  0  0  0  0  0  0
  148.9720  133.2378  154.2275 N   0  0  0  0  0  0  0  0  0  0  0  0
  149.7450  134.1211  154.8667 C   0  0  0  0  0  0  0  0  0  0  0  0
  149.4875  135.3973  155.1617 N   0  0  0  0  0  0  0  0  0  0  0  0
  148.2527  135.7713  154.7181 C   0  0  0  0  0  0  0  0  0  0  0  0
  147.3254  134.9480  154.0200 C   0  0  0  0  0  0  0  0  0  0  0  0
  146.1796  135.6743  153.7189 N   0  0  0  0  0  0  0  0  0  0  0  0
  146.4157  136.8589  154.2125 C   0  0  0  0  0  0  0  0  0  0  0  0
  147.6324  137.0027  154.8416 N   0  0  0  0  0  0  0  0  0  0  0  0
  148.1504  138.2035  155.4807 C   0  0  0  0  0  0  0  0  0  0  0  0
  149.1329  139.0076  154.5939 C   0  0  1  0  0  0  0  0  0  0  0  0
  148.8158  138.7807  153.2326 O   0  0  0  0  0  0  0  0  0  0  0  0
  149.0755  140.5111  154.8740 C   0  0  0  0  0  0  0  0  0  0  0  0
  150.3906  140.7939  155.5899 C   0  0  0  0  0  0  0  0  0  0  0  0
  151.2861  139.8999  154.9542 O   0  0  0  0  0  0  0  0  0  0  0  0
  150.6147  138.6542  154.8345 C   0  0  0  0  0  0  0  0  0  0  0  0
  146.8279  132.9340  151.7266 C   0  0  0  0  0  0  0  0  0  0  0  0
  145.8499  131.9149  151.0967 C   0  0  1  0  0  0  0  0  0  0  0  0
  144.3876  132.1324  151.5101 C   0  0  0  0  0  0  0  0  0  0  0  0
  143.7265  132.7138  150.2680 C   0  0  0  0  0  0  0  0  0  0  0  0
  144.4186  132.0608  149.2206 O   0  0  0  0  0  0  0  0  0  0  0  0
  145.7970  132.0914  149.5593 C   0  0  2  0  0  0  0  0  0  0  0  0
  146.5755  131.0558  148.7353 C   0  0  0  0  0  0  0  0  0  0  0  0
  146.2749  130.5848  151.4239 O   0  0  0  0  0  0  0  0  0  0  0  0
  147.0050  128.6088  154.0334 H   0  0  0  0  0  0  0  0  0  0  0  0
  147.8271  128.6873  152.4752 H   0  0  0  0  0  0  0  0  0  0  0  0
  146.1412  128.1829  152.5585 H   0  0  0  0  0  0  0  0  0  0  0  0
  145.4716  130.4426  153.3266 H   0  0  0  0  0  0  0  0  0  0  0  0
  147.5409  131.1509  154.4881 H   0  0  0  0  0  0  0  0  0  0  0  0
  148.4316  131.1389  152.9733 H   0  0  0  0  0  0  0  0  0  0  0  0
  150.7078  133.7524  155.1887 H   0  0  0  0  0  0  0  0  0  0  0  0
  145.7003  137.6643  154.1320 H   0  0  0  0  0  0  0  0  0  0  0  0
  147.3041  138.8290  155.7685 H   0  0  0  0  0  0  0  0  0  0  0  0
  148.6399  137.9088  156.4098 H   0  0  0  0  0  0  0  0  0  0  0  0
  149.3100  139.3887  152.7044 H   0  0  0  0  0  0  0  0  0  0  0  0
  149.0505  141.0824  153.9443 H   0  0  0  0  0  0  0  0  0  0  0  0
  148.2093  140.8123  155.4641 H   0  0  0  0  0  0  0  0  0  0  0  0
  150.7128  141.8305  155.4887 H   0  0  0  0  0  0  0  0  0  0  0  0
  150.3196  140.5540  156.6521 H   0  0  0  0  0  0  0  0  0  0  0  0
  150.7446  138.1244  155.7783 H   0  0  0  0  0  0  0  0  0  0  0  0
  151.0520  138.0379  154.0479 H   0  0  0  0  0  0  0  0  0  0  0  0
  146.4604  133.9514  151.5834 H   0  0  0  0  0  0  0  0  0  0  0  0
  147.7915  132.8699  151.2195 H   0  0  0  0  0  0  0  0  0  0  0  0
  143.9131  131.1765  151.7352 H   0  0  0  0  0  0  0  0  0  0  0  0
  144.2697  132.7727  152.3848 H   0  0  0  0  0  0  0  0  0  0  0  0
  142.6546  132.5184  150.2289 H   0  0  0  0  0  0  0  0  0  0  0  0
  143.8859  133.7915  150.2047 H   0  0  0  0  0  0  0  0  0  0  0  0
  146.1588  133.0870  149.2949 H   0  0  0  0  0  0  0  0  0  0  0  0
  147.6314  131.0544  149.0065 H   0  0  0  0  0  0  0  0  0  0  0  0
  146.5061  131.2778  147.6703 H   0  0  0  0  0  0  0  0  0  0  0  0
  146.1861  130.0488  148.8874 H   0  0  0  0  0  0  0  0  0  0  0  0
  1  2  1  0  0  0  0
  1 29  1  0  0  0  0
  1 30  1  0  0  0  0
  1 31  1  0  0  0  0
  2 28  1  0  0  0  0
  2  3  1  0  0  0  0
  2 32  1  0  0  0  0
  3  4  1  0  0  0  0
  3 33  1  0  0  0  0
  3 34  1  0  0  0  0
  4  5  1  0  0  0  0
  4 21  1  0  0  0  0
  5 10  1  0  0  0  0
  5  6  2  0  0  0  0
  6  7  1  0  0  0  0
  7  8  2  0  0  0  0
  7 35  1  0  0  0  0
  8  9  1  0  0  0  0
  9 13  1  0  0  0  0
  9 10  2  0  0  0  0
 10 11  1  0  0  0  0
 11 12  2  0  0  0  0
 12 13  1  0  0  0  0
 12 36  1  0  0  0  0
 13 14  1  0  0  0  0
 14 15  1  0  0  0  0
 14 37  1  0  0  0  0
 14 38  1  0  0  0  0
 15 20  1  0  0  0  0
 15 16  1  0  0  0  0
 15 17  1  0  0  0  0
 16 39  1  0  0  0  0
 17 18  1  0  0  0  0
 17 40  1  0  0  0  0
 17 41  1  0  0  0  0
 18 19  1  0  0  0  0
 18 42  1  0  0  0  0
 18 43  1  0  0  0  0
 19 20  1  0  0  0  0
 20 44  1  0  0  0  0
 20 45  1  0  0  0  0
 21 22  1  0  0  0  0
 21 46  1  0  0  0  0
 21 47  1  0  0  0  0
 22 26  1  0  0  0  0
 22 23  1  0  0  0  0
 22 28  1  0  0  0  0
 23 24  1  0  0  0  0
 23 48  1  0  0  0  0
 23 49  1  0  0  0  0
 24 25  1  0  0  0  0
 24 50  1  0  0  0  0
 24 51  1  0  0  0  0
 25 26  1  0  0  0  0
 26 27  1  0  0  0  0
 26 52  1  0  0  0  0
 27 53  1  0  0  0  0
 27 54  1  0  0  0  0
 27 55  1  0  0  0  0
M  END
> <s_m_source_file>
AV-unprocessed.smi

> <i_m_source_file_index>
281

> <i_lp_mmshare_version>
43012

> <i_f3d_flags>
0

> <s_epik_input>
W0NIM11bQ0BASF0xT1tDSDJdW0NIMl1bQ0BAXTEyW0NIMl1OKFtDSDJdW0NASF0oTzIpW0NIM10pYyhuW2NIXW4zKWMoYzM0KW5bY0hdbjRbQ0gyXVtDQEBdNShbT0hdKVtDSDJdW0NIMl1PW0NIMl01

> <s_epik_cmdline>
J2VwaWtfcHl0aG9uJywgJy1waCcsICc3LjAnLCAnLXRuJywgJzgnLCAnLW1hJywgJzIwMCcsICctbWV0YWxfYmluZGluZycsICctaW1hZScsICc8aW5maWxlLm1hZT4nLCAnLW9tYWUnLCAnPG91dGZpbGUubWFlPic=

> <r_lp_tautomer_probability>
1

> <r_epik_Ionization_Penalty>
0.00571331

> <r_epik_Ionization_Penalty_Charging>
0

> <r_epik_Ionization_Penalty_Neutral>
0.00571331

> <r_epik_State_Penalty>
0.00399586

> <r_epik_Charging_Adjusted_Penalty>
0.00399586

> <i_epik_Tot_Q>
0

> <i_epik_Tot_abs_Q>
0

> <r_epik_Metal_State_Penalty>
-0

> <b_epik_Metal_Only>
0

> <s_lp_Force_Field>
OPLS_2005

> <r_lp_Energy>
55.7735

> <b_lp_Chiralities_Consistent>
1

> <s_lp_Variant>
AV-unprocessed.smi:281-14

> <Gold.Version>
5.8.1

> <Gold.Id.Protein>
6NUR|6NUR_protein|mol2

> <Gold.PLP.Fitness>
44.1959

> <Gold.PLP.PLP>
-39.9143

> <Gold.PLP.part.hbond>
-3.9346

> <Gold.PLP.part.metal>
0.0000

> <Gold.PLP.part.buried>
-3.2100

> <Gold.PLP.part.nonpolar>
-35.3282

> <Gold.PLP.part.repulsive>
1.9466

> <Gold.PLP.ligand.clash>
0.0000

> <Gold.PLP.ligand.torsion>
1.2689

> <Gold.PLP.Chemscore.Hbond>
2.2312

> <Gold.PLP.Chemscore.CHOScore>
0.0000

> <Gold.PLP.Chemscore.Metal>
0.0000

> <Gold.Chemscore.Hbonds>
donor molecule, donor type, donor heavy atom, donor atom, acceptor molecule, acceptor atom, score
      L1  H    16    39       P1  7957  0.94
      P1  H  7989  7998       L1    19  0.95
      P1  H 10785 10796       L1    25  0.16

> <Gold.PLP.Chemscore.Internal.Correction>
0.1259

> <Gold.Rescore>
     Score         DG    S(hbond)    S(metal)    S(lipo)     H(rot)  DE(clash)    DE(int)     intcor
     16.53     -19.59       2.23        0.00     102.69       2.09       1.62       1.44       ----

> <Gold.Chemscore.Fitness>
16.5313

> <Gold.Chemscore.DG>
-19.5942

> <Gold.Chemscore.ZeroCoef>
-5.4800

> <Gold.Chemscore.Hbond>
2.2326

> <Gold.Chemscore.Metal>
0.0000

> <Gold.Chemscore.Lipo>
102.6906

> <Gold.Chemscore.Internal_Hbond>
0.0000

> <Gold.Chemscore.DEClash>
1.6216

> <Gold.Chemscore.DEInternal>
1.4413

> <Gold.Chemscore.Rot>
2.0927

> <Gold.Chemscore.Internal.Correction>
   9.000000E+99

> <Gold.Chemscore.Hbonds>
donor molecule, donor type, donor heavy atom, donor atom, acceptor molecule, acceptor atom, score
      L1  H    16    39       P1  7957  0.91
      P1  H  7989  7998       L1    19  0.21
      P1  H 10785 10796       L1    25  0.09

> <Gold.Chemscore.Hbond.Weighted>
-7.4568

> <Gold.Chemscore.Metal.Weighted>
-0.0000

> <Gold.Chemscore.Lipo.Weighted>
-12.0148

> <Gold.Chemscore.Internal_Hbond.Weighted>
0.0000

> <Gold.Chemscore.DEClash.Weighted>
1.6216

> <Gold.Chemscore.DEInternal.Weighted>
1.4413

> <Gold.Chemscore.Rot.Weighted>
5.3573

> <Gold.Chemscore.Internal.Correction.Weighted>
   9.000000E+99

> <Gold.Protein.RotatedTorsions>
[ 6907 6896 6895 6894 ] final   48.71 input  -60.11 | X-H torsion
[ 7974 7965 7964 7962 ] final   -9.42 input  175.53 | X-H torsion
[ 8008 7997 7996 7995 ] final  -83.83 input   59.86 | X-H torsion
[ 10167 10162 10161 10158 ] final   49.61 input  -65.29 | X-H torsion
[ 10718 10713 10712 10709 ] final  175.54 input   66.30 | X-H torsion
[ 10763 10752 10751 10750 ] final -127.21 input  -60.55 | X-H torsion
[ 11005 11000 10999 10996 ] final  134.14 input  -57.11 | X-H torsion

> <Gold.Protein.ActiveResidues>
 VAL166  LYS551  ARG553  GLY616  TRP617  ASP618  TYR619  PRO620  LYS621  CYS622 
 ASP623  PHE694  ASN695  SER759  ASP760  ASP761  ALA762  ILE779  LEU786  VAL792 
 PHE793  MET794  SER795  GLU796  ALA797  LYS798  CYS799  TRP800  GLU811  SER814 

> <Gold.Protein.RotatedAtoms>
  152.2826  134.7811  160.0393 H   0  0  0  0  0  0  0  0  0  0  0  0  # atno 6907 bound_to 6896
  151.8385  133.3414  159.3644 H   0  0  0  0  0  0  0  0  0  0  0  0  # atno 6908 bound_to 6896
  150.7196  134.5343  159.5760 H   0  0  0  0  0  0  0  0  0  0  0  0  # atno 6909 bound_to 6896
  146.2252  140.2613  142.8352 H   0  0  0  0  0  0  0  0  0  0  0  0  # atno 7974 bound_to 7965
  154.6233  140.0613  156.9642 H   0  0  0  0  0  0  0  0  0  0  0  0  # atno 8008 bound_to 7997
  155.1783  140.3297  155.4361 H   0  0  0  0  0  0  0  0  0  0  0  0  # atno 8009 bound_to 7997
  156.2443  140.1902  156.6881 H   0  0  0  0  0  0  0  0  0  0  0  0  # atno 8010 bound_to 7997
  140.2810  144.3156  150.6264 H   0  0  0  0  0  0  0  0  0  0  0  0  # atno 10167 bound_to 10162
  156.9333  130.9978  151.2983 H   0  0  0  0  0  0  0  0  0  0  0  0  # atno 10718 bound_to 10713
  154.8751  135.3969  154.3557 H   0  0  0  0  0  0  0  0  0  0  0  0  # atno 10763 bound_to 10752
  153.4336  135.7025  153.6220 H   0  0  0  0  0  0  0  0  0  0  0  0  # atno 10764 bound_to 10752
  153.4831  135.3765  155.2422 H   0  0  0  0  0  0  0  0  0  0  0  0  # atno 10765 bound_to 10752
  139.9896  134.9520  156.9824 H   0  0  0  0  0  0  0  0  0  0  0  0  # atno 11005 bound_to 11000
  144.9337  140.8003  143.5673 LP  0  0  0  0  0  0  0  0  0  0  0  0  # atno 17320 bound_to 7965
  145.2559  139.2012  143.4918 LP  0  0  0  0  0  0  0  0  0  0  0  0  # atno 17321 bound_to 7965
  140.5811  143.2173  151.7426 LP  0  0  0  0  0  0  0  0  0  0  0  0  # atno 17342 bound_to 10162
  139.4962  144.4078  152.0113 LP  0  0  0  0  0  0  0  0  0  0  0  0  # atno 17343 bound_to 10162
  157.5832  130.8391  149.8552 LP  0  0  0  0  0  0  0  0  0  0  0  0  # atno 17370 bound_to 10713
  156.0437  130.3733  150.1371 LP  0  0  0  0  0  0  0  0  0  0  0  0  # atno 17371 bound_to 10713
  140.4934  134.1170  155.7237 LP  0  0  0  0  0  0  0  0  0  0  0  0  # atno 17394 bound_to 11000
  141.1554  133.8892  157.1990 LP  0  0  0  0  0  0  0  0  0  0  0  0  # atno 17395 bound_to 11000

$$$$
