AV-unprocessed.smi:2384|AV-procd|sdf|9462|dock1
  -GOLD-   2272013 93D 1   1.00000     0.00000
 Structure written by MMmdl.
 43 44  0  0  0  0  0  0  0  0  1 V2000
  153.5658  141.8316  161.8626 C   0  0  0  0  0  0  0  0  0  0  0  0
  152.9823  142.0048  160.4759 C   0  0  0  0  0  0  0  0  0  0  0  0
  152.8760  143.2813  159.8911 C   0  0  0  0  0  0  0  0  0  0  0  0
  152.3205  143.3768  158.6001 C   0  0  0  0  0  0  0  0  0  0  0  0
  152.1786  144.7166  157.9091 C   0  0  0  0  0  0  0  0  0  0  0  0
  151.8862  142.3049  157.9038 N   0  0  0  0  0  0  0  0  0  0  0  0
  151.9836  141.0705  158.4567 C   0  0  0  0  0  0  0  0  0  0  0  0
  151.5607  139.8817  157.8045 N   0  0  0  0  0  0  0  0  0  0  0  0
  151.3765  139.6781  156.4879 C   0  0  0  0  0  0  0  0  0  0  0  0
  151.5193  140.5275  155.6077 O   0  0  0  0  0  0  0  0  0  0  0  0
  150.9986  138.4158  156.2409 N   0  0  0  0  0  0  0  0  0  0  0  0
  150.6900  137.8764  154.9205 C   0  0  0  0  0  0  0  0  0  0  0  0
  149.9217  136.5447  154.9954 C   0  0  0  0  0  0  0  0  0  0  0  0
  150.5527  135.5256  155.9628 C   0  0  0  0  0  0  0  0  0  0  0  0
  150.3569  134.1530  155.5040 N   0  0  0  0  0  0  0  0  0  0  0  0
  149.6703  133.8790  154.2526 C   0  0  0  0  0  0  0  0  0  0  0  0
  149.4925  132.3537  154.2153 C   0  0  0  0  0  0  0  0  0  0  0  0
  150.3467  131.8001  155.3610 C   0  0  0  0  0  0  0  0  0  0  0  0
  150.7423  133.0416  156.1414 C   0  0  0  0  0  0  0  0  0  0  0  0
  151.3376  132.9916  157.2168 O   0  0  0  0  0  0  0  0  0  0  0  0
  152.5321  140.8860  159.7460 C   0  0  0  0  0  0  0  0  0  0  0  0
  153.9071  142.7835  162.2712 H   0  0  0  0  0  0  0  0  0  0  0  0
  154.4155  141.1492  161.8342 H   0  0  0  0  0  0  0  0  0  0  0  0
  152.8158  141.4202  162.5384 H   0  0  0  0  0  0  0  0  0  0  0  0
  153.2111  144.1632  160.4173 H   0  0  0  0  0  0  0  0  0  0  0  0
  152.5689  145.5251  158.5276 H   0  0  0  0  0  0  0  0  0  0  0  0
  151.1293  144.9249  157.6991 H   0  0  0  0  0  0  0  0  0  0  0  0
  152.7254  144.7163  156.9657 H   0  0  0  0  0  0  0  0  0  0  0  0
  151.3771  139.0959  158.4103 H   0  0  0  0  0  0  0  0  0  0  0  0
  150.9083  137.7833  157.0225 H   0  0  0  0  0  0  0  0  0  0  0  0
  150.1194  138.6069  154.3447 H   0  0  0  0  0  0  0  0  0  0  0  0
  151.6285  137.7317  154.3850 H   0  0  0  0  0  0  0  0  0  0  0  0
  148.8879  136.7338  155.2878 H   0  0  0  0  0  0  0  0  0  0  0  0
  149.8764  136.1166  153.9934 H   0  0  0  0  0  0  0  0  0  0  0  0
  151.6209  135.7210  156.0697 H   0  0  0  0  0  0  0  0  0  0  0  0
  150.1206  135.6321  156.9583 H   0  0  0  0  0  0  0  0  0  0  0  0
  148.7105  134.3950  154.2055 H   0  0  0  0  0  0  0  0  0  0  0  0
  150.2853  134.2239  153.4201 H   0  0  0  0  0  0  0  0  0  0  0  0
  148.4451  132.0923  154.3720 H   0  0  0  0  0  0  0  0  0  0  0  0
  149.7922  131.9397  153.2521 H   0  0  0  0  0  0  0  0  0  0  0  0
  149.7917  131.1005  155.9870 H   0  0  0  0  0  0  0  0  0  0  0  0
  151.2424  131.3029  154.9877 H   0  0  0  0  0  0  0  0  0  0  0  0
  152.6052  139.8970  160.1754 H   0  0  0  0  0  0  0  0  0  0  0  0
  1  2  1  0  0  0  0
  1 22  1  0  0  0  0
  1 23  1  0  0  0  0
  1 24  1  0  0  0  0
  2 21  1  0  0  0  0
  2  3  2  0  0  0  0
  3  4  1  0  0  0  0
  3 25  1  0  0  0  0
  4  5  1  0  0  0  0
  4  6  2  0  0  0  0
  5 26  1  0  0  0  0
  5 27  1  0  0  0  0
  5 28  1  0  0  0  0
  6  7  1  0  0  0  0
  7  8  1  0  0  0  0
  7 21  2  0  0  0  0
  8  9  1  0  0  0  0
  8 29  1  0  0  0  0
  9 10  2  0  0  0  0
  9 11  1  0  0  0  0
 11 12  1  0  0  0  0
 11 30  1  0  0  0  0
 12 13  1  0  0  0  0
 12 31  1  0  0  0  0
 12 32  1  0  0  0  0
 13 14  1  0  0  0  0
 13 33  1  0  0  0  0
 13 34  1  0  0  0  0
 14 15  1  0  0  0  0
 14 35  1  0  0  0  0
 14 36  1  0  0  0  0
 15 19  1  0  0  0  0
 15 16  1  0  0  0  0
 16 17  1  0  0  0  0
 16 37  1  0  0  0  0
 16 38  1  0  0  0  0
 17 18  1  0  0  0  0
 17 39  1  0  0  0  0
 17 40  1  0  0  0  0
 18 19  1  0  0  0  0
 18 41  1  0  0  0  0
 18 42  1  0  0  0  0
 19 20  2  0  0  0  0
 21 43  1  0  0  0  0
M  END
> <s_m_source_file>
AV-unprocessed.smi

> <i_m_source_file_index>
2384

> <i_lp_mmshare_version>
43012

> <i_f3d_flags>
0

> <s_epik_input>
W0NIM11jMVtjSF1jKFtDSDNdKW5jKFtjSF0xKVtOSF1DKD1PKVtOSF1bQ0gyXVtDSDJdW0NIMl1OMltDSDJdW0NIMl1bQ0gyXUMyPU8=

> <s_epik_cmdline>
J2VwaWtfcHl0aG9uJywgJy1waCcsICc3LjAnLCAnLXRuJywgJzgnLCAnLW1hJywgJzIwMCcsICctbWV0YWxfYmluZGluZycsICctaW1hZScsICc8aW5maWxlLm1hZT4nLCAnLW9tYWUnLCAnPG91dGZpbGUubWFlPic=

> <r_lp_tautomer_probability>
1

> <r_epik_Ionization_Penalty>
0.000241796

> <r_epik_Ionization_Penalty_Charging>
0

> <r_epik_Ionization_Penalty_Neutral>
0.000241796

> <r_epik_State_Penalty>
-0

> <r_epik_Charging_Adjusted_Penalty>
0

> <i_epik_Tot_Q>
0

> <i_epik_Tot_abs_Q>
0

> <r_epik_Metal_State_Penalty>
-0

> <b_epik_Metal_Only>
0

> <s_lp_Force_Field>
OPLS_2005

> <r_lp_Energy>
18.86

> <b_lp_Chiralities_Consistent>
1

> <s_lp_Variant>
AV-unprocessed.smi:2384-1

> <Gold.Version>
5.8.1

> <Gold.Id.Protein>
6NUR|6NUR_protein|mol2

> <Gold.PLP.Fitness>
48.1300

> <Gold.PLP.PLP>
-44.5551

> <Gold.PLP.part.hbond>
-2.0000

> <Gold.PLP.part.metal>
0.0000

> <Gold.PLP.part.buried>
-4.8115

> <Gold.PLP.part.nonpolar>
-37.9998

> <Gold.PLP.part.repulsive>
0.1339

> <Gold.PLP.ligand.clash>
0.0000

> <Gold.PLP.ligand.torsion>
0.4509

> <Gold.PLP.Chemscore.Hbond>
1.4674

> <Gold.PLP.Chemscore.CHOScore>
0.0000

> <Gold.PLP.Chemscore.Metal>
0.0000

> <Gold.Chemscore.Hbonds>
donor molecule, donor type, donor heavy atom, donor atom, acceptor molecule, acceptor atom, score
      P1  H  6896  6907       L1    20  0.86
      P1  H  7989  7998       L1    10  0.59

> <Gold.PLP.Chemscore.Internal.Correction>
0.0744

> <Gold.Rescore>
     Score         DG    S(hbond)    S(metal)    S(lipo)     H(rot)  DE(clash)    DE(int)     intcor
     15.11     -18.41       1.55        0.00     104.39       1.75       1.62       1.68       ----

> <Gold.Chemscore.Fitness>
15.1126

> <Gold.Chemscore.DG>
-18.4086

> <Gold.Chemscore.ZeroCoef>
-5.4800

> <Gold.Chemscore.Hbond>
1.5517

> <Gold.Chemscore.Metal>
0.0000

> <Gold.Chemscore.Lipo>
104.3892

> <Gold.Chemscore.Internal_Hbond>
0.0000

> <Gold.Chemscore.DEClash>
1.6198

> <Gold.Chemscore.DEInternal>
1.6762

> <Gold.Chemscore.Rot>
1.7451

> <Gold.Chemscore.Internal.Correction>
   9.000000E+99

> <Gold.Chemscore.Hbonds>
donor molecule, donor type, donor heavy atom, donor atom, acceptor molecule, acceptor atom, score
      P1  H  6896  6907       L1    20  0.79
      P1  H  7989  7998       L1    10  0.59

> <Gold.Chemscore.Hbond.Weighted>
-5.1825

> <Gold.Chemscore.Metal.Weighted>
-0.0000

> <Gold.Chemscore.Lipo.Weighted>
-12.2135

> <Gold.Chemscore.Internal_Hbond.Weighted>
0.0000

> <Gold.Chemscore.DEClash.Weighted>
1.6198

> <Gold.Chemscore.DEInternal.Weighted>
1.6762

> <Gold.Chemscore.Rot.Weighted>
4.4675

> <Gold.Chemscore.Internal.Correction.Weighted>
   9.000000E+99

> <Gold.Protein.RotatedTorsions>
[ 6907 6896 6895 6894 ] final -167.56 input  -60.11 | X-H torsion
[ 7974 7965 7964 7962 ] final  -46.21 input  175.53 | X-H torsion
[ 8008 7997 7996 7995 ] final -101.44 input   59.86 | X-H torsion
[ 10167 10162 10161 10158 ] final  177.91 input  -65.29 | X-H torsion
[ 10718 10713 10712 10709 ] final -134.91 input   66.30 | X-H torsion
[ 10763 10752 10751 10750 ] final   58.28 input  -60.55 | X-H torsion
[ 11005 11000 10999 10996 ] final -163.45 input  -57.11 | X-H torsion

> <Gold.Protein.ActiveResidues>
 VAL166  LYS551  ARG553  GLY616  TRP617  ASP618  TYR619  PRO620  LYS621  CYS622 
 ASP623  PHE694  ASN695  SER759  ASP760  ASP761  ALA762  ILE779  LEU786  VAL792 
 PHE793  MET794  SER795  GLU796  ALA797  LYS798  CYS799  TRP800  GLU811  SER814 

> <Gold.Protein.RotatedAtoms>
  151.4615  133.3591  159.2809 H   0  0  0  0  0  0  0  0  0  0  0  0  # atno 6907 bound_to 6896
  150.9022  134.8437  159.7379 H   0  0  0  0  0  0  0  0  0  0  0  0  # atno 6908 bound_to 6896
  152.4886  134.4537  159.9634 H   0  0  0  0  0  0  0  0  0  0  0  0  # atno 6909 bound_to 6896
  145.9742  140.7351  142.9395 H   0  0  0  0  0  0  0  0  0  0  0  0  # atno 7974 bound_to 7965
  154.8426  140.0434  157.1551 H   0  0  0  0  0  0  0  0  0  0  0  0  # atno 8008 bound_to 7997
  154.9030  140.3003  155.5287 H   0  0  0  0  0  0  0  0  0  0  0  0  # atno 8009 bound_to 7997
  156.2993  140.2372  156.4060 H   0  0  0  0  0  0  0  0  0  0  0  0  # atno 8010 bound_to 7997
  139.5272  144.2742  152.0602 H   0  0  0  0  0  0  0  0  0  0  0  0  # atno 10167 bound_to 10162
  156.2604  130.7206  151.1139 H   0  0  0  0  0  0  0  0  0  0  0  0  # atno 10718 bound_to 10713
  152.9867  135.5612  154.5527 H   0  0  0  0  0  0  0  0  0  0  0  0  # atno 10763 bound_to 10752
  154.4961  135.2795  155.1460 H   0  0  0  0  0  0  0  0  0  0  0  0  # atno 10764 bound_to 10752
  154.2910  135.6326  153.5438 H   0  0  0  0  0  0  0  0  0  0  0  0  # atno 10765 bound_to 10752
  140.5980  134.4977  157.5201 H   0  0  0  0  0  0  0  0  0  0  0  0  # atno 11005 bound_to 11000
  144.6844  140.2800  143.7293 LP  0  0  0  0  0  0  0  0  0  0  0  0  # atno 17320 bound_to 7965
  145.7862  139.1910  143.2129 LP  0  0  0  0  0  0  0  0  0  0  0  0  # atno 17321 bound_to 7965
  140.2200  144.4475  150.6346 LP  0  0  0  0  0  0  0  0  0  0  0  0  # atno 17342 bound_to 10162
  140.6424  143.2206  151.6260 LP  0  0  0  0  0  0  0  0  0  0  0  0  # atno 17343 bound_to 10162
  157.7248  131.0657  150.5978 LP  0  0  0  0  0  0  0  0  0  0  0  0  # atno 17370 bound_to 10713
  156.6065  130.4368  149.5876 LP  0  0  0  0  0  0  0  0  0  0  0  0  # atno 17371 bound_to 10713
  139.9245  134.8083  156.1110 LP  0  0  0  0  0  0  0  0  0  0  0  0  # atno 17394 bound_to 11000
  141.0891  133.6721  156.2502 LP  0  0  0  0  0  0  0  0  0  0  0  0  # atno 17395 bound_to 11000

$$$$
