AV-unprocessed.smi:2802|AV-procd|sdf|10804|dock5
  -GOLD-   2272015233D 1   1.00000     0.00000
 Structure written by MMmdl.
 47 48  0  0  0  0  0  0  0  0  1 V2000
  148.0715  140.6286  153.8241 C   0  0  0  0  0  0  0  0  0  0  0  0
  149.1444  139.8532  154.6032 C   0  0  1  0  0  0  0  0  0  0  0  0
  149.8014  140.7429  155.6716 C   0  0  0  0  0  0  0  0  0  0  0  0
  150.9103  140.0239  156.4711 C   0  0  0  0  0  0  0  0  0  0  0  0
  152.1920  139.8688  155.6222 C   0  0  0  0  0  0  0  0  0  0  0  0
  151.2876  140.9074  157.6791 C   0  0  0  0  0  0  0  0  0  0  0  0
  150.3923  138.6604  157.0131 C   0  0  0  0  0  0  0  0  0  0  0  0
  149.5783  137.7399  156.0466 C   0  0  1  0  0  0  0  0  0  0  0  0
  150.4938  136.9287  155.0837 C   0  0  0  0  0  0  0  0  0  0  0  0
  151.4483  136.1498  155.7803 O   0  0  0  0  0  0  0  0  0  0  0  0
  148.7777  136.8074  156.8587 N   0  0  0  0  0  0  0  0  0  0  0  0
  149.1912  135.9588  157.8170 C   0  0  0  0  0  0  0  0  0  0  0  0
  150.3638  135.8564  158.1802 O   0  0  0  0  0  0  0  0  0  0  0  0
  148.0896  135.1016  158.4522 C   0  0  0  0  0  0  0  0  0  0  0  0
  147.9051  135.3987  159.9316 C   0  0  0  0  0  0  0  0  0  0  0  0
  147.3189  134.4490  160.7940 C   0  0  0  0  0  0  0  0  0  0  0  0
  147.1684  134.7716  162.1563 C   0  0  0  0  0  0  0  0  0  0  0  0
  147.6112  136.0342  162.5993 C   0  0  0  0  0  0  0  0  0  0  0  0
  148.1737  136.9515  161.7830 N   0  0  0  0  0  0  0  0  0  0  0  0
  148.3143  136.6341  160.4780 C   0  0  0  0  0  0  0  0  0  0  0  0
  148.5507  138.5947  155.2600 C   0  0  0  0  0  0  0  0  0  0  0  0
  147.2710  140.9692  154.4815 H   0  0  0  0  0  0  0  0  0  0  0  0
  147.6234  140.0076  153.0481 H   0  0  0  0  0  0  0  0  0  0  0  0
  148.4974  141.5061  153.3365 H   0  0  0  0  0  0  0  0  0  0  0  0
  149.8986  139.5496  153.8784 H   0  0  0  0  0  0  0  0  0  0  0  0
  150.2061  141.6432  155.2072 H   0  0  0  0  0  0  0  0  0  0  0  0
  149.0258  141.0862  156.3582 H   0  0  0  0  0  0  0  0  0  0  0  0
  152.9474  139.2841  156.1479 H   0  0  0  0  0  0  0  0  0  0  0  0
  152.6334  140.8414  155.4020 H   0  0  0  0  0  0  0  0  0  0  0  0
  152.0191  139.3944  154.6612 H   0  0  0  0  0  0  0  0  0  0  0  0
  152.0711  140.4443  158.2800 H   0  0  0  0  0  0  0  0  0  0  0  0
  150.4341  141.0819  158.3351 H   0  0  0  0  0  0  0  0  0  0  0  0
  151.6534  141.8843  157.3603 H   0  0  0  0  0  0  0  0  0  0  0  0
  151.2270  138.1085  157.4465 H   0  0  0  0  0  0  0  0  0  0  0  0
  149.7391  138.8870  157.8579 H   0  0  0  0  0  0  0  0  0  0  0  0
  149.9239  136.2402  154.4680 H   0  0  0  0  0  0  0  0  0  0  0  0
  151.0239  137.5882  154.3966 H   0  0  0  0  0  0  0  0  0  0  0  0
  150.9995  135.6480  156.4435 H   0  0  0  0  0  0  0  0  0  0  0  0
  147.7903  136.7963  156.6488 H   0  0  0  0  0  0  0  0  0  0  0  0
  147.1521  135.2749  157.9224 H   0  0  0  0  0  0  0  0  0  0  0  0
  148.3340  134.0459  158.3265 H   0  0  0  0  0  0  0  0  0  0  0  0
  146.9878  133.4913  160.4196 H   0  0  0  0  0  0  0  0  0  0  0  0
  146.7231  134.0692  162.8451 H   0  0  0  0  0  0  0  0  0  0  0  0
  147.5109  136.3143  163.6375 H   0  0  0  0  0  0  0  0  0  0  0  0
  148.7649  137.3894  159.8508 H   0  0  0  0  0  0  0  0  0  0  0  0
  147.7588  138.9162  155.9395 H   0  0  0  0  0  0  0  0  0  0  0  0
  148.0526  137.9853  154.5048 H   0  0  0  0  0  0  0  0  0  0  0  0
  1  2  1  0  0  0  0
  1 22  1  0  0  0  0
  1 23  1  0  0  0  0
  1 24  1  0  0  0  0
  2 21  1  0  0  0  0
  2  3  1  0  0  0  0
  2 25  1  0  0  0  0
  3  4  1  0  0  0  0
  3 26  1  0  0  0  0
  3 27  1  0  0  0  0
  4  5  1  0  0  0  0
  4  6  1  0  0  0  0
  4  7  1  0  0  0  0
  5 28  1  0  0  0  0
  5 29  1  0  0  0  0
  5 30  1  0  0  0  0
  6 31  1  0  0  0  0
  6 32  1  0  0  0  0
  6 33  1  0  0  0  0
  7  8  1  0  0  0  0
  7 34  1  0  0  0  0
  7 35  1  0  0  0  0
  8  9  1  0  0  0  0
  8 11  1  0  0  0  0
  8 21  1  0  0  0  0
  9 10  1  0  0  0  0
  9 36  1  0  0  0  0
  9 37  1  0  0  0  0
 10 38  1  0  0  0  0
 11 12  1  0  0  0  0
 11 39  1  0  0  0  0
 12 13  2  0  0  0  0
 12 14  1  0  0  0  0
 14 15  1  0  0  0  0
 14 40  1  0  0  0  0
 14 41  1  0  0  0  0
 15 20  1  0  0  0  0
 15 16  2  0  0  0  0
 16 17  1  0  0  0  0
 16 42  1  0  0  0  0
 17 18  2  0  0  0  0
 17 43  1  0  0  0  0
 18 19  1  0  0  0  0
 18 44  1  0  0  0  0
 19 20  2  0  0  0  0
 20 45  1  0  0  0  0
 21 46  1  0  0  0  0
 21 47  1  0  0  0  0
M  END
> <s_m_source_file>
AV-unprocessed.smi

> <i_m_source_file_index>
2802

> <i_lp_mmshare_version>
43012

> <i_f3d_flags>
0

> <s_epik_input>
W0NIM11DMShbQ0gzXSlbQ0gyXVtDQEBIXShbQ0gzXSlbQ0gyXVtDQF0oW0NIMl0xKShbQ0gyXVtPSF0pW05IXUMoPU8pW0NIMl1jMltjSF1bY0hdW2NIXW5bY0hdMg==

> <s_epik_cmdline>
J2VwaWtfcHl0aG9uJywgJy1waCcsICc3LjAnLCAnLXRuJywgJzgnLCAnLW1hJywgJzIwMCcsICctbWV0YWxfYmluZGluZycsICctaW1hZScsICc8aW5maWxlLm1hZT4nLCAnLW9tYWUnLCAnPG91dGZpbGUubWFlPic=

> <r_epik_Ionization_Penalty>
0.004793

> <r_epik_Ionization_Penalty_Charging>
0

> <r_epik_Ionization_Penalty_Neutral>
0.004793

> <r_epik_State_Penalty>
0.00347421

> <r_epik_Charging_Adjusted_Penalty>
0.00347421

> <i_epik_Tot_Q>
0

> <i_epik_Tot_abs_Q>
0

> <r_epik_Metal_State_Penalty>
-0

> <b_epik_Metal_Only>
0

> <s_lp_Force_Field>
OPLS_2005

> <r_lp_Energy>
22.6817

> <b_lp_Chiralities_Consistent>
1

> <s_lp_Variant>
AV-unprocessed.smi:2802-2

> <Gold.Version>
5.8.1

> <Gold.Id.Protein>
6NUR|6NUR_protein|mol2

> <Gold.PLP.Fitness>
41.4242

> <Gold.PLP.PLP>
-33.9271

> <Gold.PLP.part.hbond>
-3.3560

> <Gold.PLP.part.metal>
0.0000

> <Gold.PLP.part.buried>
-2.4298

> <Gold.PLP.part.nonpolar>
-27.9699

> <Gold.PLP.part.repulsive>
0.0032

> <Gold.PLP.ligand.clash>
0.0000

> <Gold.PLP.ligand.torsion>
0.4179

> <Gold.PLP.Chemscore.Hbond>
2.7680

> <Gold.PLP.Chemscore.CHOScore>
0.0000

> <Gold.PLP.Chemscore.Metal>
0.0000

> <Gold.Chemscore.Hbonds>
donor molecule, donor type, donor heavy atom, donor atom, acceptor molecule, acceptor atom, score
      P1  H  6896  6908       L1    13  0.78
      P1  H  6931  6943       L1    19  1.00
      P1  H 10752 10763       L1    10  1.00

> <Gold.PLP.Chemscore.Internal.Correction>
0.0289

> <Gold.Rescore>
     Score         DG    S(hbond)    S(metal)    S(lipo)     H(rot)  DE(clash)    DE(int)     intcor
     16.50     -19.21       2.56        0.00      88.20       2.00       0.02       2.69       ----

> <Gold.Chemscore.Fitness>
16.5041

> <Gold.Chemscore.DG>
-19.2137

> <Gold.Chemscore.ZeroCoef>
-5.4800

> <Gold.Chemscore.Hbond>
2.5570

> <Gold.Chemscore.Metal>
0.0000

> <Gold.Chemscore.Lipo>
88.2035

> <Gold.Chemscore.Internal_Hbond>
0.0000

> <Gold.Chemscore.DEClash>
0.0174

> <Gold.Chemscore.DEInternal>
2.6922

> <Gold.Chemscore.Rot>
2.0026

> <Gold.Chemscore.Internal.Correction>
   9.000000E+99

> <Gold.Chemscore.Hbonds>
donor molecule, donor type, donor heavy atom, donor atom, acceptor molecule, acceptor atom, score
      P1  H  6896  6908       L1    13  0.75
      P1  H  6931  6943       L1    19  0.38
      P1  H 10752 10763       L1    10  0.92

> <Gold.Chemscore.Hbond.Weighted>
-8.5405

> <Gold.Chemscore.Metal.Weighted>
-0.0000

> <Gold.Chemscore.Lipo.Weighted>
-10.3198

> <Gold.Chemscore.Internal_Hbond.Weighted>
0.0000

> <Gold.Chemscore.DEClash.Weighted>
0.0174

> <Gold.Chemscore.DEInternal.Weighted>
2.6922

> <Gold.Chemscore.Rot.Weighted>
5.1267

> <Gold.Chemscore.Internal.Correction.Weighted>
   9.000000E+99

> <Gold.Protein.RotatedTorsions>
[ 6907 6896 6895 6894 ] final  178.40 input  -60.11 | X-H torsion
[ 7974 7965 7964 7962 ] final  -27.95 input  175.53 | X-H torsion
[ 8008 7997 7996 7995 ] final  -57.12 input   59.86 | X-H torsion
[ 10167 10162 10161 10158 ] final  -47.13 input  -65.29 | X-H torsion
[ 10718 10713 10712 10709 ] final  -38.24 input   66.30 | X-H torsion
[ 10763 10752 10751 10750 ] final   68.47 input  -60.55 | X-H torsion
[ 11005 11000 10999 10996 ] final  -72.28 input  -57.11 | X-H torsion

> <Gold.Protein.ActiveResidues>
 VAL166  LYS551  ARG553  GLY616  TRP617  ASP618  TYR619  PRO620  LYS621  CYS622 
 ASP623  PHE694  ASN695  SER759  ASP760  ASP761  ALA762  ILE779  LEU786  VAL792 
 PHE793  MET794  SER795  GLU796  ALA797  LYS798  CYS799  TRP800  GLU811  SER814 

> <Gold.Protein.RotatedAtoms>
  151.6885  133.3311  159.3236 H   0  0  0  0  0  0  0  0  0  0  0  0  # atno 6907 bound_to 6896
  150.7790  134.6719  159.6406 H   0  0  0  0  0  0  0  0  0  0  0  0  # atno 6908 bound_to 6896
  152.3841  134.6547  160.0184 H   0  0  0  0  0  0  0  0  0  0  0  0  # atno 6909 bound_to 6896
  146.1322  140.5219  142.8688 H   0  0  0  0  0  0  0  0  0  0  0  0  # atno 7974 bound_to 7965
  154.4256  140.1114  156.5747 H   0  0  0  0  0  0  0  0  0  0  0  0  # atno 8008 bound_to 7997
  155.6175  140.3495  155.4622 H   0  0  0  0  0  0  0  0  0  0  0  0  # atno 8009 bound_to 7997
  156.0050  140.1207  157.0499 H   0  0  0  0  0  0  0  0  0  0  0  0  # atno 8010 bound_to 7997
  140.6788  143.2798  151.3883 H   0  0  0  0  0  0  0  0  0  0  0  0  # atno 10167 bound_to 10162
  156.3060  130.4246  149.8097 H   0  0  0  0  0  0  0  0  0  0  0  0  # atno 10718 bound_to 10713
  153.0237  135.5246  154.7140 H   0  0  0  0  0  0  0  0  0  0  0  0  # atno 10763 bound_to 10752
  154.6214  135.2889  155.0324 H   0  0  0  0  0  0  0  0  0  0  0  0  # atno 10764 bound_to 10752
  154.1309  135.6593  153.4974 H   0  0  0  0  0  0  0  0  0  0  0  0  # atno 10765 bound_to 10752
  141.1606  133.6842  156.7035 H   0  0  0  0  0  0  0  0  0  0  0  0  # atno 11005 bound_to 11000
  144.7703  140.5622  143.6675 LP  0  0  0  0  0  0  0  0  0  0  0  0  # atno 17320 bound_to 7965
  145.5235  139.1476  143.3539 LP  0  0  0  0  0  0  0  0  0  0  0  0  # atno 17321 bound_to 7965
  139.6097  144.1124  152.2286 LP  0  0  0  0  0  0  0  0  0  0  0  0  # atno 17342 bound_to 10162
  140.0534  144.5914  150.7318 LP  0  0  0  0  0  0  0  0  0  0  0  0  # atno 17343 bound_to 10162
  156.5457  130.8320  151.3283 LP  0  0  0  0  0  0  0  0  0  0  0  0  # atno 17370 bound_to 10713
  157.7379  130.9805  150.2224 LP  0  0  0  0  0  0  0  0  0  0  0  0  # atno 17371 bound_to 10713
  140.2941  134.8217  157.4042 LP  0  0  0  0  0  0  0  0  0  0  0  0  # atno 17394 bound_to 11000
  140.1320  134.5082  155.8098 LP  0  0  0  0  0  0  0  0  0  0  0  0  # atno 17395 bound_to 11000

$$$$
