AV-unprocessed.smi:2195|AV-procd|sdf|8907|dock7
  -GOLD-   2272012123D 1   1.00000     0.00000
 Structure written by MMmdl.
 40 42  0  0  0  0  0  0  0  0  2 V2000
  153.2523  143.0177  160.6720 C   0  0  0  0  0  0  0  0  0  0  0  0
  152.4731  142.6098  159.4385 C   0  0  0  0  0  0  0  0  0  0  0  0
  152.1394  143.5663  158.4596 C   0  0  0  0  0  0  0  0  0  0  0  0
  151.4166  143.1816  157.3139 C   0  0  0  0  0  0  0  0  0  0  0  0
  151.0200  141.8418  157.1252 C   0  0  0  0  0  0  0  0  0  0  0  0
  150.3175  141.5531  155.9747 O   0  0  0  0  0  0  0  0  0  0  0  0
  149.9126  140.2086  155.7530 C   0  0  0  0  0  0  0  0  0  0  0  0
  148.9848  140.1601  154.5296 C   0  0  1  0  0  0  0  0  0  0  0  0
  149.6193  140.8362  153.4620 O   0  0  0  0  0  0  0  0  0  0  0  0
  148.6358  138.7172  154.1130 C   0  0  0  0  0  0  0  0  0  0  0  0
  147.3389  138.6186  153.4276 N   0  0  0  0  0  0  0  0  0  0  0  0
  146.9008  139.2521  152.3060 C   0  0  0  0  0  0  0  0  0  0  0  0
  145.6277  138.8323  152.0663 N   0  3  0  0  0  0  0  0  0  0  0  0
  145.2460  137.9162  153.0487 C   0  0  0  0  0  0  0  0  0  0  0  0
  144.0554  137.2189  153.2299 C   0  0  0  0  0  0  0  0  0  0  0  0
  143.9921  136.3531  154.3416 C   0  0  0  0  0  0  0  0  0  0  0  0
  145.0847  136.2049  155.2202 C   0  0  0  0  0  0  0  0  0  0  0  0
  146.2865  136.9174  155.0271 C   0  0  0  0  0  0  0  0  0  0  0  0
  146.3410  137.7732  153.9273 C   0  0  0  0  0  0  0  0  0  0  0  0
  151.3621  140.8836  158.1128 C   0  0  0  0  0  0  0  0  0  0  0  0
  152.0832  141.2677  159.2602 C   0  0  0  0  0  0  0  0  0  0  0  0
  153.1204  144.0787  160.8863 H   0  0  0  0  0  0  0  0  0  0  0  0
  154.3155  142.8268  160.5245 H   0  0  0  0  0  0  0  0  0  0  0  0
  152.9189  142.4536  161.5436 H   0  0  0  0  0  0  0  0  0  0  0  0
  152.4359  144.5978  158.5830 H   0  0  0  0  0  0  0  0  0  0  0  0
  151.1644  143.9240  156.5711 H   0  0  0  0  0  0  0  0  0  0  0  0
  150.7945  139.5926  155.5682 H   0  0  0  0  0  0  0  0  0  0  0  0
  149.3982  139.8096  156.6289 H   0  0  0  0  0  0  0  0  0  0  0  0
  148.0669  140.7034  154.7583 H   0  0  0  0  0  0  0  0  0  0  0  0
  149.6506  140.2561  152.7162 H   0  0  0  0  0  0  0  0  0  0  0  0
  149.4124  138.2866  153.4805 H   0  0  0  0  0  0  0  0  0  0  0  0
  148.5768  138.0797  154.9959 H   0  0  0  0  0  0  0  0  0  0  0  0
  147.4619  139.9603  151.7134 H   0  0  0  0  0  0  0  0  0  0  0  0
  143.2176  137.3287  152.5571 H   0  0  0  0  0  0  0  0  0  0  0  0
  143.0880  135.7903  154.5234 H   0  0  0  0  0  0  0  0  0  0  0  0
  145.0006  135.5295  156.0592 H   0  0  0  0  0  0  0  0  0  0  0  0
  147.1194  136.7915  155.7029 H   0  0  0  0  0  0  0  0  0  0  0  0
  151.0841  139.8454  158.0143 H   0  0  0  0  0  0  0  0  0  0  0  0
  152.3365  140.5264  160.0037 H   0  0  0  0  0  0  0  0  0  0  0  0
  145.0633  139.1488  151.2881 H   0  0  0  0  0  0  0  0  0  0  0  0
  1  2  1  0  0  0  0
  1 22  1  0  0  0  0
  1 23  1  0  0  0  0
  1 24  1  0  0  0  0
  2 21  1  0  0  0  0
  2  3  2  0  0  0  0
  3  4  1  0  0  0  0
  3 25  1  0  0  0  0
  4  5  2  0  0  0  0
  4 26  1  0  0  0  0
  5  6  1  0  0  0  0
  5 20  1  0  0  0  0
  6  7  1  0  0  0  0
  7  8  1  0  0  0  0
  7 27  1  0  0  0  0
  7 28  1  0  0  0  0
  8  9  1  0  0  0  0
  8 10  1  0  0  0  0
  8 29  1  0  0  0  0
  9 30  1  0  0  0  0
 10 11  1  0  0  0  0
 10 31  1  0  0  0  0
 10 32  1  0  0  0  0
 11 19  1  0  0  0  0
 11 12  1  0  0  0  0
 12 13  2  0  0  0  0
 12 33  1  0  0  0  0
 13 14  1  0  0  0  0
 13 40  1  0  0  0  0
 14 19  2  0  0  0  0
 14 15  1  0  0  0  0
 15 16  2  0  0  0  0
 15 34  1  0  0  0  0
 16 17  1  0  0  0  0
 16 35  1  0  0  0  0
 17 18  2  0  0  0  0
 17 36  1  0  0  0  0
 18 19  1  0  0  0  0
 18 37  1  0  0  0  0
 20 21  2  0  0  0  0
 20 38  1  0  0  0  0
 21 39  1  0  0  0  0
M  CHG  1  13   1
M  END
> <s_m_source_file>
AV-unprocessed.smi

> <i_m_source_file_index>
2195

> <i_lp_mmshare_version>
43012

> <i_f3d_flags>
0

> <s_epik_input>
W0NIM11jMVtjSF1bY0hdYyhbY0hdW2NIXTEpT1tDSDJdW0NASF0oW09IXSlbQ0gyXW4oW2NIXW4yKWMoYzIzKVtjSF1bY0hdW2NIXVtjSF0z

> <s_epik_cmdline>
J2VwaWtfcHl0aG9uJywgJy1waCcsICc3LjAnLCAnLXRuJywgJzgnLCAnLW1hJywgJzIwMCcsICctbWV0YWxfYmluZGluZycsICctaW1hZScsICc8aW5maWxlLm1hZT4nLCAnLW9tYWUnLCAnPG91dGZpbGUubWFlPic=

> <r_lp_tautomer_probability>
1

> <r_epik_Ionization_Penalty>
1.3774

> <r_epik_Ionization_Penalty_Charging>
1.37739

> <r_epik_Ionization_Penalty_Neutral>
2.3993e-06

> <r_epik_State_Penalty>
1.45762

> <r_epik_Charging_Adjusted_Penalty>
2.83501

> <i_epik_Tot_Q>
1

> <i_epik_Tot_abs_Q>
1

> <r_epik_Metal_State_Penalty>
5.49752

> <b_epik_Metal_Only>
0

> <s_lp_Force_Field>
OPLS_2005

> <r_lp_Energy>
19.9339

> <b_lp_Chiralities_Consistent>
1

> <s_lp_Variant>
AV-unprocessed.smi:2195-4

> <Gold.Version>
5.8.1

> <Gold.Id.Protein>
6NUR|6NUR_protein|mol2

> <Gold.PLP.Fitness>
47.8383

> <Gold.PLP.PLP>
-37.5561

> <Gold.PLP.part.hbond>
-4.7063

> <Gold.PLP.part.metal>
0.0000

> <Gold.PLP.part.buried>
-2.6867

> <Gold.PLP.part.nonpolar>
-30.7418

> <Gold.PLP.part.repulsive>
0.1166

> <Gold.PLP.ligand.clash>
0.0000

> <Gold.PLP.ligand.torsion>
0.3695

> <Gold.PLP.Chemscore.Hbond>
2.6540

> <Gold.PLP.Chemscore.CHOScore>
1.0000

> <Gold.PLP.Chemscore.Metal>
0.0000

> <Gold.Chemscore.Hbonds>
donor molecule, donor type, donor heavy atom, donor atom, acceptor molecule, acceptor atom, score
      L1  H     9    30       P1  7957  0.99
      L1  H    13    40       P1 10171  0.93
      P1  H  7989  7998       L1     9  0.14
      P1  H  8011  8017       L1     9  0.60
      L1  C    12    33       P1  7957  1.00

> <Gold.PLP.Chemscore.Internal.Correction>
0.0592

> <Gold.Rescore>
     Score         DG    S(hbond)    S(metal)    S(lipo)     H(rot)  DE(clash)    DE(int)     intcor
     16.85     -17.46       1.88        0.00      98.34       2.27       0.19       0.43       ----

> <Gold.Chemscore.Fitness>
16.8490

> <Gold.Chemscore.DG>
-17.4620

> <Gold.Chemscore.ZeroCoef>
-5.4800

> <Gold.Chemscore.Hbond>
1.8842

> <Gold.Chemscore.Metal>
0.0000

> <Gold.Chemscore.Lipo>
98.3394

> <Gold.Chemscore.Internal_Hbond>
0.0000

> <Gold.Chemscore.DEClash>
0.1862

> <Gold.Chemscore.DEInternal>
0.4267

> <Gold.Chemscore.Rot>
2.2723

> <Gold.Chemscore.Internal.Correction>
   9.000000E+99

> <Gold.Chemscore.Hbonds>
donor molecule, donor type, donor heavy atom, donor atom, acceptor molecule, acceptor atom, score
      L1  H     9    30       P1  7957  0.91
      L1  H    13    40       P1 10171  0.90
      P1  H  8011  8017       L1     9  0.04

> <Gold.Chemscore.Hbond.Weighted>
-6.2933

> <Gold.Chemscore.Metal.Weighted>
-0.0000

> <Gold.Chemscore.Lipo.Weighted>
-11.5057

> <Gold.Chemscore.Internal_Hbond.Weighted>
0.0000

> <Gold.Chemscore.DEClash.Weighted>
0.1862

> <Gold.Chemscore.DEInternal.Weighted>
0.4267

> <Gold.Chemscore.Rot.Weighted>
5.8170

> <Gold.Chemscore.Internal.Correction.Weighted>
   9.000000E+99

> <Gold.Protein.RotatedTorsions>
[ 6907 6896 6895 6894 ] final -158.63 input  -60.11 | X-H torsion
[ 7974 7965 7964 7962 ] final   51.23 input  175.53 | X-H torsion
[ 8008 7997 7996 7995 ] final -119.49 input   59.86 | X-H torsion
[ 10167 10162 10161 10158 ] final -122.55 input  -65.29 | X-H torsion
[ 10718 10713 10712 10709 ] final   27.57 input   66.30 | X-H torsion
[ 10763 10752 10751 10750 ] final  152.51 input  -60.55 | X-H torsion
[ 11005 11000 10999 10996 ] final  -65.07 input  -57.11 | X-H torsion

> <Gold.Protein.ActiveResidues>
 VAL166  LYS551  ARG553  GLY616  TRP617  ASP618  TYR619  PRO620  LYS621  CYS622 
 ASP623  PHE694  ASN695  SER759  ASP760  ASP761  ALA762  ILE779  LEU786  VAL792 
 PHE793  MET794  SER795  GLU796  ALA797  LYS798  CYS799  TRP800  GLU811  SER814 

> <Gold.Protein.RotatedAtoms>
  151.3212  133.4039  159.2654 H   0  0  0  0  0  0  0  0  0  0  0  0  # atno 6907 bound_to 6896
  151.0033  134.9340  159.7976 H   0  0  0  0  0  0  0  0  0  0  0  0  # atno 6908 bound_to 6896
  152.5281  134.3177  159.9189 H   0  0  0  0  0  0  0  0  0  0  0  0  # atno 6909 bound_to 6896
  145.9934  139.4363  143.0059 H   0  0  0  0  0  0  0  0  0  0  0  0  # atno 7974 bound_to 7965
  155.1165  140.0398  157.2738 H   0  0  0  0  0  0  0  0  0  0  0  0  # atno 8008 bound_to 7997
  154.6645  140.2598  155.7047 H   0  0  0  0  0  0  0  0  0  0  0  0  # atno 8009 bound_to 7997
  156.2633  140.2810  156.1131 H   0  0  0  0  0  0  0  0  0  0  0  0  # atno 8010 bound_to 7997
  140.0131  143.5421  152.2254 H   0  0  0  0  0  0  0  0  0  0  0  0  # atno 10167 bound_to 10162
  157.2219  130.6983  149.6274 H   0  0  0  0  0  0  0  0  0  0  0  0  # atno 10718 bound_to 10713
  154.1211  135.2832  155.3208 H   0  0  0  0  0  0  0  0  0  0  0  0  # atno 10763 bound_to 10752
  154.6422  135.5398  153.7806 H   0  0  0  0  0  0  0  0  0  0  0  0  # atno 10764 bound_to 10752
  153.0312  135.6489  154.1365 H   0  0  0  0  0  0  0  0  0  0  0  0  # atno 10765 bound_to 10752
  141.1443  133.6675  156.5929 H   0  0  0  0  0  0  0  0  0  0  0  0  # atno 11005 bound_to 11000
  145.7596  140.9941  143.1207 LP  0  0  0  0  0  0  0  0  0  0  0  0  # atno 17320 bound_to 7965
  144.6896  139.9313  143.7472 LP  0  0  0  0  0  0  0  0  0  0  0  0  # atno 17321 bound_to 7965
  139.6191  144.7625  151.2780 LP  0  0  0  0  0  0  0  0  0  0  0  0  # atno 17342 bound_to 10162
  140.7373  143.6681  150.8105 LP  0  0  0  0  0  0  0  0  0  0  0  0  # atno 17343 bound_to 10162
  155.9681  130.4517  150.5745 LP  0  0  0  0  0  0  0  0  0  0  0  0  # atno 17370 bound_to 10713
  157.3567  131.0743  151.1670 LP  0  0  0  0  0  0  0  0  0  0  0  0  # atno 17371 bound_to 10713
  140.3748  134.7574  157.4623 LP  0  0  0  0  0  0  0  0  0  0  0  0  # atno 17394 bound_to 11000
  140.0682  134.5899  155.8671 LP  0  0  0  0  0  0  0  0  0  0  0  0  # atno 17395 bound_to 11000

$$$$
