AV-unprocessed.smi:352|AV-procd|sdf|2401|dock1
  -GOLD-   2262022333D 1   1.00000     0.00000
 Structure written by MMmdl.
 45 46  0  0  0  0  0  0  0  0  2 V2000
  144.5078  133.1817  149.9883 C   0  0  0  0  0  0  0  0  0  0  0  0
  144.8716  134.2487  150.9630 C   0  0  0  0  0  0  0  0  0  0  0  0
  144.3272  135.4681  151.2520 C   0  0  0  0  0  0  0  0  0  0  0  0
  145.1774  135.9602  152.2848 C   0  0  0  0  0  0  0  0  0  0  0  0
  145.0538  137.2047  152.9550 N   0  0  0  0  0  0  0  0  0  0  0  0
  145.7926  137.6827  153.9705 C   0  0  0  0  0  0  0  0  0  0  0  0
  146.7129  137.0846  154.5261 O   0  0  0  0  0  0  0  0  0  0  0  0
  145.4033  138.9200  154.3106 N   0  0  0  0  0  0  0  0  0  0  0  0
  145.9898  139.7388  155.3727 C   0  0  0  0  0  0  0  0  0  0  0  0
  146.5077  141.1316  154.8819 C   0  0  0  0  0  0  0  0  0  0  0  0
  145.3157  141.9803  154.5007 N   0  3  0  0  0  0  0  0  0  0  0  0
  145.6037  143.2410  153.7682 C   0  0  0  0  0  0  0  0  0  0  0  0
  144.3414  142.2337  155.5948 C   0  0  0  0  0  0  0  0  0  0  0  0
  147.3352  141.8080  156.0169 C   0  0  0  0  0  0  0  0  0  0  0  0
  148.6450  141.0702  156.3558 C   0  0  0  0  0  0  0  0  0  0  0  0
  149.5312  140.8873  155.1169 C   0  0  0  0  0  0  0  0  0  0  0  0
  148.7675  140.1866  153.9859 C   0  0  0  0  0  0  0  0  0  0  0  0
  147.4628  140.9362  153.6579 C   0  0  0  0  0  0  0  0  0  0  0  0
  146.1452  135.1168  152.5924 N   0  0  0  0  0  0  0  0  0  0  0  0
  145.9574  134.0161  151.7484 O   0  0  0  0  0  0  0  0  0  0  0  0
  143.5083  133.3471  149.5857 H   0  0  0  0  0  0  0  0  0  0  0  0
  144.5218  132.2008  150.4637 H   0  0  0  0  0  0  0  0  0  0  0  0
  145.2101  133.1652  149.1548 H   0  0  0  0  0  0  0  0  0  0  0  0
  143.4620  135.9175  150.7884 H   0  0  0  0  0  0  0  0  0  0  0  0
  144.3224  137.8069  152.6075 H   0  0  0  0  0  0  0  0  0  0  0  0
  144.6245  139.3208  153.8085 H   0  0  0  0  0  0  0  0  0  0  0  0
  145.2154  139.8711  156.1274 H   0  0  0  0  0  0  0  0  0  0  0  0
  146.7609  139.1735  155.8936 H   0  0  0  0  0  0  0  0  0  0  0  0
  146.2923  143.8810  154.3198 H   0  0  0  0  0  0  0  0  0  0  0  0
  144.6877  143.8096  153.6028 H   0  0  0  0  0  0  0  0  0  0  0  0
  146.0148  143.0477  152.7779 H   0  0  0  0  0  0  0  0  0  0  0  0
  144.7465  142.9186  156.3400 H   0  0  0  0  0  0  0  0  0  0  0  0
  144.0289  141.3211  156.0989 H   0  0  0  0  0  0  0  0  0  0  0  0
  143.4356  142.6893  155.1937 H   0  0  0  0  0  0  0  0  0  0  0  0
  147.5863  142.8306  155.7349 H   0  0  0  0  0  0  0  0  0  0  0  0
  146.7460  141.8848  156.9307 H   0  0  0  0  0  0  0  0  0  0  0  0
  149.1923  141.6294  157.1152 H   0  0  0  0  0  0  0  0  0  0  0  0
  148.4271  140.0987  156.7996 H   0  0  0  0  0  0  0  0  0  0  0  0
  149.8789  141.8621  154.7723 H   0  0  0  0  0  0  0  0  0  0  0  0
  150.4227  140.3155  155.3760 H   0  0  0  0  0  0  0  0  0  0  0  0
  149.3966  140.1462  153.0961 H   0  0  0  0  0  0  0  0  0  0  0  0
  148.5699  139.1492  154.2516 H   0  0  0  0  0  0  0  0  0  0  0  0
  146.9462  140.4397  152.8368 H   0  0  0  0  0  0  0  0  0  0  0  0
  147.7843  141.9006  153.2666 H   0  0  0  0  0  0  0  0  0  0  0  0
  144.8125  141.4147  153.8321 H   0  0  0  0  0  0  0  0  0  0  0  0
  1  2  1  0  0  0  0
  1 21  1  0  0  0  0
  1 22  1  0  0  0  0
  1 23  1  0  0  0  0
  2 20  1  0  0  0  0
  2  3  2  0  0  0  0
  3  4  1  0  0  0  0
  3 24  1  0  0  0  0
  4  5  1  0  0  0  0
  4 19  2  0  0  0  0
  5  6  1  0  0  0  0
  5 25  1  0  0  0  0
  6  7  2  0  0  0  0
  6  8  1  0  0  0  0
  8  9  1  0  0  0  0
  8 26  1  0  0  0  0
  9 10  1  0  0  0  0
  9 27  1  0  0  0  0
  9 28  1  0  0  0  0
 10 18  1  0  0  0  0
 10 11  1  0  0  0  0
 10 14  1  0  0  0  0
 11 12  1  0  0  0  0
 11 13  1  0  0  0  0
 11 45  1  0  0  0  0
 12 29  1  0  0  0  0
 12 30  1  0  0  0  0
 12 31  1  0  0  0  0
 13 32  1  0  0  0  0
 13 33  1  0  0  0  0
 13 34  1  0  0  0  0
 14 15  1  0  0  0  0
 14 35  1  0  0  0  0
 14 36  1  0  0  0  0
 15 16  1  0  0  0  0
 15 37  1  0  0  0  0
 15 38  1  0  0  0  0
 16 17  1  0  0  0  0
 16 39  1  0  0  0  0
 16 40  1  0  0  0  0
 17 18  1  0  0  0  0
 17 41  1  0  0  0  0
 17 42  1  0  0  0  0
 18 43  1  0  0  0  0
 18 44  1  0  0  0  0
 19 20  1  0  0  0  0
M  CHG  1  11   1
M  END
> <s_m_source_file>
AV-unprocessed.smi

> <i_m_source_file_index>
352

> <i_lp_mmshare_version>
43012

> <i_f3d_flags>
0

> <s_epik_input>
W0NIM11jMVtjSF1jKG5vMSlbTkhdQyg9TylbTkhdW0NIMl1DMihOKFtDSDNdKVtDSDNdKVtDSDJdW0NIMl1bQ0gyXVtDSDJdW0NIMl0y

> <s_epik_cmdline>
J2VwaWtfcHl0aG9uJywgJy1waCcsICc3LjAnLCAnLXRuJywgJzgnLCAnLW1hJywgJzIwMCcsICctbWV0YWxfYmluZGluZycsICctaW1hZScsICc8aW5maWxlLm1hZT4nLCAnLW9tYWUnLCAnPG91dGZpbGUubWFlPic=

> <r_epik_Ionization_Penalty>
0.00254175

> <r_epik_Ionization_Penalty_Charging>
0.00251809

> <r_epik_Ionization_Penalty_Neutral>
2.36624e-05

> <r_epik_State_Penalty>
0.00174714

> <r_epik_Charging_Adjusted_Penalty>
0.00426523

> <i_epik_Tot_Q>
1

> <i_epik_Tot_abs_Q>
1

> <r_epik_Metal_State_Penalty>
-0

> <b_epik_Metal_Only>
0

> <s_lp_Force_Field>
OPLS_2005

> <r_lp_Energy>
33.762

> <b_lp_Chiralities_Consistent>
1

> <s_lp_Variant>
AV-unprocessed.smi:352-1

> <Gold.Version>
5.8.1

> <Gold.Id.Protein>
6NUR|6NUR_protein|mol2

> <Gold.PLP.Fitness>
35.6315

> <Gold.PLP.PLP>
-26.8557

> <Gold.PLP.part.hbond>
-2.0000

> <Gold.PLP.part.metal>
0.0000

> <Gold.PLP.part.buried>
-3.8501

> <Gold.PLP.part.nonpolar>
-23.0834

> <Gold.PLP.part.repulsive>
0.3074

> <Gold.PLP.ligand.clash>
0.0000

> <Gold.PLP.ligand.torsion>
0.1659

> <Gold.PLP.Chemscore.Hbond>
3.0000

> <Gold.PLP.Chemscore.CHOScore>
0.0000

> <Gold.PLP.Chemscore.Metal>
0.0000

> <Gold.Chemscore.Hbonds>
donor molecule, donor type, donor heavy atom, donor atom, acceptor molecule, acceptor atom, score
      L1  H     8    26       P1 10175  1.00
      L1  H    11    45       P1 10175  2.00

> <Gold.PLP.Chemscore.Internal.Correction>
0.1076

> <Gold.Rescore>
     Score         DG    S(hbond)    S(metal)    S(lipo)     H(rot)  DE(clash)    DE(int)     intcor
     11.48     -13.09       1.33        0.00      60.84       1.55       0.04       1.57       ----

> <Gold.Chemscore.Fitness>
11.4810

> <Gold.Chemscore.DG>
-13.0898

> <Gold.Chemscore.ZeroCoef>
-5.4800

> <Gold.Chemscore.Hbond>
1.3326

> <Gold.Chemscore.Metal>
0.0000

> <Gold.Chemscore.Lipo>
60.8354

> <Gold.Chemscore.Internal_Hbond>
0.0000

> <Gold.Chemscore.DEClash>
0.0402

> <Gold.Chemscore.DEInternal>
1.5685

> <Gold.Chemscore.Rot>
1.5464

> <Gold.Chemscore.Internal.Correction>
   9.000000E+99

> <Gold.Chemscore.Hbonds>
donor molecule, donor type, donor heavy atom, donor atom, acceptor molecule, acceptor atom, score
      L1  H     8    26       P1 10175  0.96
      L1  H    11    45       P1 10175  0.29

> <Gold.Chemscore.Hbond.Weighted>
-4.4508

> <Gold.Chemscore.Metal.Weighted>
-0.0000

> <Gold.Chemscore.Lipo.Weighted>
-7.1177

> <Gold.Chemscore.Internal_Hbond.Weighted>
0.0000

> <Gold.Chemscore.DEClash.Weighted>
0.0402

> <Gold.Chemscore.DEInternal.Weighted>
1.5685

> <Gold.Chemscore.Rot.Weighted>
3.9588

> <Gold.Chemscore.Internal.Correction.Weighted>
   9.000000E+99

> <Gold.Protein.RotatedTorsions>
[ 6907 6896 6895 6894 ] final  -46.54 input  -60.11 | X-H torsion
[ 7974 7965 7964 7962 ] final -163.81 input  175.53 | X-H torsion
[ 8008 7997 7996 7995 ] final   83.62 input   59.86 | X-H torsion
[ 10167 10162 10161 10158 ] final -113.81 input  -65.29 | X-H torsion
[ 10718 10713 10712 10709 ] final -161.96 input   66.30 | X-H torsion
[ 10763 10752 10751 10750 ] final  158.54 input  -60.55 | X-H torsion
[ 11005 11000 10999 10996 ] final  -69.54 input  -57.11 | X-H torsion

> <Gold.Protein.ActiveResidues>
 VAL166  LYS551  ARG553  GLY616  TRP617  ASP618  TYR619  PRO620  LYS621  CYS622 
 ASP623  PHE694  ASN695  SER759  ASP760  ASP761  ALA762  ILE779  LEU786  VAL792 
 PHE793  MET794  SER795  GLU796  ALA797  LYS798  CYS799  TRP800  GLU811  SER814 

> <Gold.Protein.RotatedAtoms>
  150.9102  134.8518  159.7419 H   0  0  0  0  0  0  0  0  0  0  0  0  # atno 6907 bound_to 6896
  152.4940  134.4371  159.9541 H   0  0  0  0  0  0  0  0  0  0  0  0  # atno 6908 bound_to 6896
  151.4414  133.3603  159.2817 H   0  0  0  0  0  0  0  0  0  0  0  0  # atno 6909 bound_to 6896
  144.7315  140.3053  143.6197 H   0  0  0  0  0  0  0  0  0  0  0  0  # atno 7974 bound_to 7965
  155.9263  140.3418  155.6213 H   0  0  0  0  0  0  0  0  0  0  0  0  # atno 8008 bound_to 7997
  155.7212  140.0784  157.2348 H   0  0  0  0  0  0  0  0  0  0  0  0  # atno 8009 bound_to 7997
  154.4077  140.1605  156.2392 H   0  0  0  0  0  0  0  0  0  0  0  0  # atno 8010 bound_to 7997
  140.1077  143.4555  152.1772 H   0  0  0  0  0  0  0  0  0  0  0  0  # atno 10167 bound_to 10162
  156.6037  130.8821  151.2920 H   0  0  0  0  0  0  0  0  0  0  0  0  # atno 10718 bound_to 10713
  154.2177  135.2783  155.2936 H   0  0  0  0  0  0  0  0  0  0  0  0  # atno 10763 bound_to 10752
  154.5727  135.5613  153.7114 H   0  0  0  0  0  0  0  0  0  0  0  0  # atno 10764 bound_to 10752
  153.0049  135.6325  154.2317 H   0  0  0  0  0  0  0  0  0  0  0  0  # atno 10765 bound_to 10752
  141.1556  133.6767  156.6615 H   0  0  0  0  0  0  0  0  0  0  0  0  # atno 11005 bound_to 11000
  145.7720  139.1860  143.2207 LP  0  0  0  0  0  0  0  0  0  0  0  0  # atno 17320 bound_to 7965
  146.0903  140.7663  142.9598 LP  0  0  0  0  0  0  0  0  0  0  0  0  # atno 17321 bound_to 7965
  139.5636  144.7421  151.4085 LP  0  0  0  0  0  0  0  0  0  0  0  0  # atno 17342 bound_to 10162
  140.6943  143.7787  150.7302 LP  0  0  0  0  0  0  0  0  0  0  0  0  # atno 17343 bound_to 10162
  157.7273  130.9641  150.1692 LP  0  0  0  0  0  0  0  0  0  0  0  0  # atno 17370 bound_to 10713
  156.2447  130.3694  149.8298 LP  0  0  0  0  0  0  0  0  0  0  0  0  # atno 17371 bound_to 10713
  140.3243  134.7981  157.4277 LP  0  0  0  0  0  0  0  0  0  0  0  0  # atno 17394 bound_to 11000
  140.1070  134.5396  155.8300 LP  0  0  0  0  0  0  0  0  0  0  0  0  # atno 17395 bound_to 11000

$$$$
