AV-unprocessed.smi:3329|AV-procd|sdf|12799|dock9
  -GOLD-   2272019163D 1   1.00000     0.00000
 Structure written by MMmdl.
 41 42  0  0  0  0  0  0  0  0  3 V2000
  145.1521  133.1685  150.0557 C   0  0  0  0  0  0  0  0  0  0  0  0
  144.9896  134.4563  150.8110 C   0  0  0  0  0  0  0  0  0  0  0  0
  143.7866  135.1780  151.0551 C   0  0  0  0  0  0  0  0  0  0  0  0
  143.9825  136.2793  151.7620 N   0  0  0  0  0  0  0  0  0  0  0  0
  145.3119  136.2998  151.9934 N   0  0  0  0  0  0  0  0  0  0  0  0
  145.8936  137.3865  152.7605 C   0  0  0  0  0  0  0  0  0  0  0  0
  146.4365  138.5089  151.8612 C   0  0  0  0  0  0  0  0  0  0  0  0
  147.8113  138.8868  152.2420 N   0  3  0  0  0  0  0  0  0  0  0  0
  147.9477  139.3510  153.6357 C   0  0  0  0  0  0  0  0  0  0  0  0
  149.3814  139.8288  153.8863 C   0  0  0  0  0  0  0  0  0  0  0  0
  149.6327  141.0345  153.8980 O   0  0  0  0  0  0  0  0  0  0  0  0
  150.2247  138.7846  154.0684 N   0  5  0  0  0  0  0  0  0  0  0  0
  151.0694  138.6273  155.2594 C   0  0  1  0  0  0  0  0  0  0  0  0
  150.8148  137.2473  155.8999 C   0  0  0  0  0  0  0  0  0  0  0  0
  152.4961  138.7764  154.9079 C   0  0  0  0  0  0  0  0  0  0  0  0
  153.6144  138.8941  154.6320 N   0  0  0  0  0  0  0  0  0  0  0  0
  150.7521  139.7188  156.2864 C   0  0  0  0  0  0  0  0  0  0  0  0
  151.1990  141.1581  156.1582 C   0  0  0  0  0  0  0  0  0  0  0  0
  151.7740  140.2762  157.2513 C   0  0  0  0  0  0  0  0  0  0  0  0
  145.9453  135.2140  151.4266 C   0  0  0  0  0  0  0  0  0  0  0  0
  144.6927  133.2205  149.0684 H   0  0  0  0  0  0  0  0  0  0  0  0
  144.6888  132.3341  150.5824 H   0  0  0  0  0  0  0  0  0  0  0  0
  146.2017  132.9126  149.9084 H   0  0  0  0  0  0  0  0  0  0  0  0
  142.7819  134.9339  150.7423 H   0  0  0  0  0  0  0  0  0  0  0  0
  145.1404  137.7772  153.4462 H   0  0  0  0  0  0  0  0  0  0  0  0
  146.6967  136.9795  153.3765 H   0  0  0  0  0  0  0  0  0  0  0  0
  146.4366  138.1790  150.8217 H   0  0  0  0  0  0  0  0  0  0  0  0
  145.7881  139.3847  151.9161 H   0  0  0  0  0  0  0  0  0  0  0  0
  148.4131  138.0842  152.1231 H   0  0  0  0  0  0  0  0  0  0  0  0
  147.2264  140.1502  153.8173 H   0  0  0  0  0  0  0  0  0  0  0  0
  147.7192  138.5350  154.3224 H   0  0  0  0  0  0  0  0  0  0  0  0
  151.3961  137.1284  156.8146 H   0  0  0  0  0  0  0  0  0  0  0  0
  151.0952  136.4282  155.2373 H   0  0  0  0  0  0  0  0  0  0  0  0
  149.7637  137.1181  156.1612 H   0  0  0  0  0  0  0  0  0  0  0  0
  149.7601  139.5911  156.7171 H   0  0  0  0  0  0  0  0  0  0  0  0
  151.8552  141.4289  155.3336 H   0  0  0  0  0  0  0  0  0  0  0  0
  150.4902  141.9281  156.4551 H   0  0  0  0  0  0  0  0  0  0  0  0
  151.4471  140.4639  158.2719 H   0  0  0  0  0  0  0  0  0  0  0  0
  152.8102  139.9605  157.1487 H   0  0  0  0  0  0  0  0  0  0  0  0
  147.0124  135.0680  151.5113 H   0  0  0  0  0  0  0  0  0  0  0  0
  148.1331  139.6229  151.6300 H   0  0  0  0  0  0  0  0  0  0  0  0
  1  2  1  0  0  0  0
  1 21  1  0  0  0  0
  1 22  1  0  0  0  0
  1 23  1  0  0  0  0
  2 20  2  0  0  0  0
  2  3  1  0  0  0  0
  3  4  2  0  0  0  0
  3 24  1  0  0  0  0
  4  5  1  0  0  0  0
  5  6  1  0  0  0  0
  5 20  1  0  0  0  0
  6  7  1  0  0  0  0
  6 25  1  0  0  0  0
  6 26  1  0  0  0  0
  7  8  1  0  0  0  0
  7 27  1  0  0  0  0
  7 28  1  0  0  0  0
  8  9  1  0  0  0  0
  8 29  1  0  0  0  0
  8 41  1  0  0  0  0
  9 10  1  0  0  0  0
  9 30  1  0  0  0  0
  9 31  1  0  0  0  0
 10 11  2  0  0  0  0
 10 12  1  0  0  0  0
 12 13  1  0  0  0  0
 13 14  1  0  0  0  0
 13 15  1  0  0  0  0
 13 17  1  0  0  0  0
 14 32  1  0  0  0  0
 14 33  1  0  0  0  0
 14 34  1  0  0  0  0
 15 16  3  0  0  0  0
 17 19  1  0  0  0  0
 17 18  1  0  0  0  0
 17 35  1  0  0  0  0
 18 19  1  0  0  0  0
 18 36  1  0  0  0  0
 18 37  1  0  0  0  0
 19 38  1  0  0  0  0
 19 39  1  0  0  0  0
 20 40  1  0  0  0  0
M  CHG  1   8   1
M  CHG  1  12  -1
M  END
> <s_m_source_file>
AV-unprocessed.smi

> <i_m_source_file_index>
3329

> <i_lp_mmshare_version>
43012

> <i_f3d_flags>
0

> <s_epik_input>
W0NIM11jMVtjSF1ubihbY0hdMSlbQ0gyXVtDSDJdW05IXVtDSDJdQyg9TylbTkhdW0NAQF0oW0NIM10pKEMjTilbQ0hdMltDSDJdW0NIMl0y

> <s_epik_cmdline>
J2VwaWtfcHl0aG9uJywgJy1waCcsICc3LjAnLCAnLXRuJywgJzgnLCAnLW1hJywgJzIwMCcsICctbWV0YWxfYmluZGluZycsICctaW1hZScsICc8aW5maWxlLm1hZT4nLCAnLW9tYWUnLCAnPG91dGZpbGUubWFlPic=

> <r_lp_tautomer_probability>
1

> <r_epik_Ionization_Penalty>
5.61187

> <r_epik_Ionization_Penalty_Charging>
5.61186

> <r_epik_Ionization_Penalty_Neutral>
4.91277e-06

> <r_epik_State_Penalty>
5.94522

> <r_epik_Charging_Adjusted_Penalty>
11.5571

> <i_epik_Tot_Q>
0

> <i_epik_Tot_abs_Q>
2

> <r_epik_Metal_State_Penalty>
1.9215

> <b_epik_Metal_Only>
1

> <s_lp_Force_Field>
OPLS_2005

> <r_lp_Energy>
13.6964

> <b_lp_Chiralities_Consistent>
1

> <s_lp_Variant>
AV-unprocessed.smi:3329-5

> <Gold.Version>
5.8.1

> <Gold.Id.Protein>
6NUR|6NUR_protein|mol2

> <Gold.PLP.Fitness>
51.9908

> <Gold.PLP.PLP>
-34.8229

> <Gold.PLP.part.hbond>
-4.5583

> <Gold.PLP.part.metal>
0.0000

> <Gold.PLP.part.buried>
-0.0367

> <Gold.PLP.part.nonpolar>
-31.0821

> <Gold.PLP.part.repulsive>
2.0208

> <Gold.PLP.ligand.clash>
0.0000

> <Gold.PLP.ligand.torsion>
2.2672

> <Gold.PLP.Chemscore.Hbond>
4.7043

> <Gold.PLP.Chemscore.CHOScore>
2.0000

> <Gold.PLP.Chemscore.Metal>
0.0000

> <Gold.Chemscore.Hbonds>
donor molecule, donor type, donor heavy atom, donor atom, acceptor molecule, acceptor atom, score
      L1  H     8    29       P1  7948  2.00
      L1  H     8    41       P1  7957  0.66
      P1  H  7989  7998       L1    11  0.35
      P1  H  7997  8008       L1    16  1.00
      P1  H  8011  8017       L1    11  0.76
      L1  C     3    24       P1 10186  0.62
      L1  C    20    40       P1  7948  1.00

> <Gold.PLP.Chemscore.Internal.Correction>
1.5893

> <Gold.Rescore>
     Score         DG    S(hbond)    S(metal)    S(lipo)     H(rot)  DE(clash)    DE(int)     intcor
     13.21     -19.34       3.43        0.00      71.24       2.31       1.73       4.41       ----

> <Gold.Chemscore.Fitness>
13.2083

> <Gold.Chemscore.DG>
-19.3418

> <Gold.Chemscore.ZeroCoef>
-5.4800

> <Gold.Chemscore.Hbond>
3.4283

> <Gold.Chemscore.Metal>
0.0000

> <Gold.Chemscore.Lipo>
71.2398

> <Gold.Chemscore.Internal_Hbond>
0.0000

> <Gold.Chemscore.DEClash>
1.7257

> <Gold.Chemscore.DEInternal>
4.4078

> <Gold.Chemscore.Rot>
2.3140

> <Gold.Chemscore.Internal.Correction>
   9.000000E+99

> <Gold.Chemscore.Hbonds>
donor molecule, donor type, donor heavy atom, donor atom, acceptor molecule, acceptor atom, score
      L1  H     8    29       P1  7948  0.99
      L1  H     8    41       P1  7957  0.62
      P1  H  7989  7998       L1    11  0.07
      P1  H  7997  8008       L1    16  0.74
      P1  H  8011  8017       L1    11  0.72

> <Gold.Chemscore.Hbond.Weighted>
-11.4505

> <Gold.Chemscore.Metal.Weighted>
-0.0000

> <Gold.Chemscore.Lipo.Weighted>
-8.3351

> <Gold.Chemscore.Internal_Hbond.Weighted>
0.0000

> <Gold.Chemscore.DEClash.Weighted>
1.7257

> <Gold.Chemscore.DEInternal.Weighted>
4.4078

> <Gold.Chemscore.Rot.Weighted>
5.9238

> <Gold.Chemscore.Internal.Correction.Weighted>
   9.000000E+99

> <Gold.Protein.RotatedTorsions>
[ 6907 6896 6895 6894 ] final   39.45 input  -60.11 | X-H torsion
[ 7974 7965 7964 7962 ] final  -24.20 input  175.53 | X-H torsion
[ 8008 7997 7996 7995 ] final  -12.84 input   59.86 | X-H torsion
[ 10167 10162 10161 10158 ] final -163.67 input  -65.29 | X-H torsion
[ 10718 10713 10712 10709 ] final  172.08 input   66.30 | X-H torsion
[ 10763 10752 10751 10750 ] final  137.51 input  -60.55 | X-H torsion
[ 11005 11000 10999 10996 ] final   35.41 input  -57.11 | X-H torsion

> <Gold.Protein.ActiveResidues>
 VAL166  LYS551  ARG553  GLY616  TRP617  ASP618  TYR619  PRO620  LYS621  CYS622 
 ASP623  PHE694  ASN695  SER759  ASP760  ASP761  ALA762  ILE779  LEU786  VAL792 
 PHE793  MET794  SER795  GLU796  ALA797  LYS798  CYS799  TRP800  GLU811  SER814 

> <Gold.Protein.RotatedAtoms>
  152.1697  134.8845  160.0535 H   0  0  0  0  0  0  0  0  0  0  0  0  # atno 6907 bound_to 6896
  151.9809  133.3752  159.4115 H   0  0  0  0  0  0  0  0  0  0  0  0  # atno 6908 bound_to 6896
  150.6900  134.3962  159.5142 H   0  0  0  0  0  0  0  0  0  0  0  0  # atno 6909 bound_to 6896
  146.1569  140.4720  142.8587 H   0  0  0  0  0  0  0  0  0  0  0  0  # atno 7974 bound_to 7965
  154.5343  140.2265  155.8750 H   0  0  0  0  0  0  0  0  0  0  0  0  # atno 8008 bound_to 7997
  156.1796  140.3103  155.9086 H   0  0  0  0  0  0  0  0  0  0  0  0  # atno 8009 bound_to 7997
  155.3387  140.0449  157.3035 H   0  0  0  0  0  0  0  0  0  0  0  0  # atno 8010 bound_to 7997
  139.6304  144.0450  152.2011 H   0  0  0  0  0  0  0  0  0  0  0  0  # atno 10167 bound_to 10162
  156.9841  131.0128  151.2874 H   0  0  0  0  0  0  0  0  0  0  0  0  # atno 10718 bound_to 10713
  153.8743  135.3052  155.3443 H   0  0  0  0  0  0  0  0  0  0  0  0  # atno 10763 bound_to 10752
  154.7791  135.4845  153.9809 H   0  0  0  0  0  0  0  0  0  0  0  0  # atno 10764 bound_to 10752
  153.1388  135.6819  153.9156 H   0  0  0  0  0  0  0  0  0  0  0  0  # atno 10765 bound_to 10752
  140.2430  134.3393  155.7918 H   0  0  0  0  0  0  0  0  0  0  0  0  # atno 11005 bound_to 11000
  144.7975  140.6151  143.6500 LP  0  0  0  0  0  0  0  0  0  0  0  0  # atno 17320 bound_to 7965
  145.4685  139.1505  143.3827 LP  0  0  0  0  0  0  0  0  0  0  0  0  # atno 17321 bound_to 7965
  140.0114  144.6221  150.7644 LP  0  0  0  0  0  0  0  0  0  0  0  0  # atno 17342 bound_to 10162
  140.7436  143.2848  151.3494 LP  0  0  0  0  0  0  0  0  0  0  0  0  # atno 17343 bound_to 10162
  157.5505  130.8179  149.8139 LP  0  0  0  0  0  0  0  0  0  0  0  0  # atno 17370 bound_to 10713
  156.0233  130.3788  150.1898 LP  0  0  0  0  0  0  0  0  0  0  0  0  # atno 17371 bound_to 10713
  141.2209  133.7309  156.8915 LP  0  0  0  0  0  0  0  0  0  0  0  0  # atno 17394 bound_to 11000
  140.1634  134.9150  157.2744 LP  0  0  0  0  0  0  0  0  0  0  0  0  # atno 17395 bound_to 11000

$$$$
