AV-unprocessed.smi:2457|AV-procd|sdf|9705|dock6
  -GOLD-   2272013343D 1   1.00000     0.00000
 Structure written by MMmdl.
 40 41  0  0  0  0  0  0  0  0  1 V2000
  153.2451  142.2786  160.6735 C   0  0  0  0  0  0  0  0  0  0  0  0
  152.5349  142.9136  159.5199 C   0  0  0  0  0  0  0  0  0  0  0  0
  152.6868  144.1987  159.0623 C   0  0  0  0  0  0  0  0  0  0  0  0
  151.6673  144.5233  157.6876 S   0  0  0  0  0  0  0  0  0  0  0  0
  151.0629  142.8723  157.7843 C   0  0  0  0  0  0  0  0  0  0  0  0
  150.0246  142.3250  156.8522 C   0  0  1  0  0  0  0  0  0  0  0  0
  150.5609  141.1625  156.0048 C   0  0  0  0  0  0  0  0  0  0  0  0
  148.6896  141.9925  157.5559 C   0  0  0  0  0  0  0  0  0  0  0  0
  148.0630  143.1608  158.1693 N   0  0  0  0  0  0  0  0  0  0  0  0
  147.0385  143.1177  159.0315 C   0  0  0  0  0  0  0  0  0  0  0  0
  146.5279  142.0762  159.4441 O   0  0  0  0  0  0  0  0  0  0  0  0
  146.6218  144.3456  159.3698 N   0  0  0  0  0  0  0  0  0  0  0  0
  145.4887  144.6374  160.2426 C   0  0  2  0  0  0  0  0  0  0  0  0
  145.4967  143.6826  161.4547 C   0  0  0  0  0  0  0  0  0  0  0  0
  144.3581  143.9744  162.4447 C   0  0  0  0  0  0  0  0  0  0  0  0
  142.9718  143.8179  161.8040 C   0  0  0  0  0  0  0  0  0  0  0  0
  142.7425  144.9886  160.4380 S   0  0  0  0  0  0  0  0  0  0  0  0
  144.1828  144.5257  159.4368 C   0  0  0  0  0  0  0  0  0  0  0  0
  151.6033  142.1732  158.7871 N   0  0  0  0  0  0  0  0  0  0  0  0
  153.9710  142.9592  161.1187 H   0  0  0  0  0  0  0  0  0  0  0  0
  153.7830  141.3838  160.3592 H   0  0  0  0  0  0  0  0  0  0  0  0
  152.5437  141.9864  161.4552 H   0  0  0  0  0  0  0  0  0  0  0  0
  153.3352  144.9714  159.4478 H   0  0  0  0  0  0  0  0  0  0  0  0
  149.8096  143.1267  156.1447 H   0  0  0  0  0  0  0  0  0  0  0  0
  151.4464  141.4621  155.4434 H   0  0  0  0  0  0  0  0  0  0  0  0
  149.8137  140.8233  155.2870 H   0  0  0  0  0  0  0  0  0  0  0  0
  150.8337  140.3104  156.6281 H   0  0  0  0  0  0  0  0  0  0  0  0
  147.9958  141.5192  156.8596 H   0  0  0  0  0  0  0  0  0  0  0  0
  148.8677  141.2690  158.3518 H   0  0  0  0  0  0  0  0  0  0  0  0
  148.4117  144.0649  157.8865 H   0  0  0  0  0  0  0  0  0  0  0  0
  147.1045  145.1377  158.9719 H   0  0  0  0  0  0  0  0  0  0  0  0
  145.5770  145.6654  160.6003 H   0  0  0  0  0  0  0  0  0  0  0  0
  145.4284  142.6488  161.1132 H   0  0  0  0  0  0  0  0  0  0  0  0
  146.4478  143.7656  161.9823 H   0  0  0  0  0  0  0  0  0  0  0  0
  144.4397  143.2956  163.2941 H   0  0  0  0  0  0  0  0  0  0  0  0
  144.4679  144.9824  162.8470 H   0  0  0  0  0  0  0  0  0  0  0  0
  142.8384  142.8028  161.4290 H   0  0  0  0  0  0  0  0  0  0  0  0
  142.1918  143.9904  162.5459 H   0  0  0  0  0  0  0  0  0  0  0  0
  144.2157  145.1800  158.5649 H   0  0  0  0  0  0  0  0  0  0  0  0
  144.0445  143.5087  159.0683 H   0  0  0  0  0  0  0  0  0  0  0  0
  1  2  1  0  0  0  0
  1 20  1  0  0  0  0
  1 21  1  0  0  0  0
  1 22  1  0  0  0  0
  2 19  1  0  0  0  0
  2  3  2  0  0  0  0
  3  4  1  0  0  0  0
  3 23  1  0  0  0  0
  4  5  1  0  0  0  0
  5  6  1  0  0  0  0
  5 19  2  0  0  0  0
  6  7  1  0  0  0  0
  6  8  1  0  0  0  0
  6 24  1  0  0  0  0
  7 25  1  0  0  0  0
  7 26  1  0  0  0  0
  7 27  1  0  0  0  0
  8  9  1  0  0  0  0
  8 28  1  0  0  0  0
  8 29  1  0  0  0  0
  9 10  1  0  0  0  0
  9 30  1  0  0  0  0
 10 11  2  0  0  0  0
 10 12  1  0  0  0  0
 12 13  1  0  0  0  0
 12 31  1  0  0  0  0
 13 18  1  0  0  0  0
 13 14  1  0  0  0  0
 13 32  1  0  0  0  0
 14 15  1  0  0  0  0
 14 33  1  0  0  0  0
 14 34  1  0  0  0  0
 15 16  1  0  0  0  0
 15 35  1  0  0  0  0
 15 36  1  0  0  0  0
 16 17  1  0  0  0  0
 16 37  1  0  0  0  0
 16 38  1  0  0  0  0
 17 18  1  0  0  0  0
 18 39  1  0  0  0  0
 18 40  1  0  0  0  0
M  END
> <s_m_source_file>
AV-unprocessed.smi

> <i_m_source_file_index>
2457

> <i_lp_mmshare_version>
43012

> <i_f3d_flags>
0

> <s_epik_input>
W0NIM11jMVtjSF1zYyhuMSlbQ0BIXShbQ0gzXSlbQ0gyXVtOSF1DKD1PKVtOSF1bQ0BASF0yW0NIMl1bQ0gyXVtDSDJdU1tDSDJdMg==

> <s_epik_cmdline>
J2VwaWtfcHl0aG9uJywgJy1waCcsICc3LjAnLCAnLXRuJywgJzgnLCAnLW1hJywgJzIwMCcsICctbWV0YWxfYmluZGluZycsICctaW1hZScsICc8aW5maWxlLm1hZT4nLCAnLW9tYWUnLCAnPG91dGZpbGUubWFlPic=

> <r_epik_Ionization_Penalty>
0.00154805

> <r_epik_Ionization_Penalty_Charging>
0

> <r_epik_Ionization_Penalty_Neutral>
0.00154805

> <r_epik_State_Penalty>
0.00100357

> <r_epik_Charging_Adjusted_Penalty>
0.00100357

> <i_epik_Tot_Q>
0

> <i_epik_Tot_abs_Q>
0

> <r_epik_Metal_State_Penalty>
-0

> <b_epik_Metal_Only>
0

> <s_lp_Force_Field>
OPLS_2005

> <r_lp_Energy>
-7.39523

> <b_lp_Chiralities_Consistent>
1

> <s_lp_Variant>
AV-unprocessed.smi:2457-2

> <Gold.Version>
5.8.1

> <Gold.Id.Protein>
6NUR|6NUR_protein|mol2

> <Gold.PLP.Fitness>
46.7297

> <Gold.PLP.PLP>
-40.3637

> <Gold.PLP.part.hbond>
-3.9999

> <Gold.PLP.part.metal>
0.0000

> <Gold.PLP.part.buried>
-1.7459

> <Gold.PLP.part.nonpolar>
-35.0741

> <Gold.PLP.part.repulsive>
0.1574

> <Gold.PLP.ligand.clash>
0.0000

> <Gold.PLP.ligand.torsion>
0.4068

> <Gold.PLP.Chemscore.Hbond>
2.3529

> <Gold.PLP.Chemscore.CHOScore>
0.0000

> <Gold.PLP.Chemscore.Metal>
0.0000

> <Gold.Chemscore.Hbonds>
donor molecule, donor type, donor heavy atom, donor atom, acceptor molecule, acceptor atom, score
      L1  H     9    30       P1  8029  0.49
      L1  H    12    31       P1  8029  0.91
      P1  H  6934  6946       L1    11  1.00

> <Gold.PLP.Chemscore.Internal.Correction>
0.1209

> <Gold.Rescore>
     Score         DG    S(hbond)    S(metal)    S(lipo)     H(rot)  DE(clash)    DE(int)     intcor
     18.93     -20.90       1.89        0.00     109.95       1.46       0.38       1.59       ----

> <Gold.Chemscore.Fitness>
18.9321

> <Gold.Chemscore.DG>
-20.9049

> <Gold.Chemscore.ZeroCoef>
-5.4800

> <Gold.Chemscore.Hbond>
1.8870

> <Gold.Chemscore.Metal>
0.0000

> <Gold.Chemscore.Lipo>
109.9473

> <Gold.Chemscore.Internal_Hbond>
0.0000

> <Gold.Chemscore.DEClash>
0.3802

> <Gold.Chemscore.DEInternal>
1.5927

> <Gold.Chemscore.Rot>
1.4616

> <Gold.Chemscore.Internal.Correction>
   9.000000E+99

> <Gold.Chemscore.Hbonds>
donor molecule, donor type, donor heavy atom, donor atom, acceptor molecule, acceptor atom, score
      L1  H     9    30       P1  8029  0.03
      L1  H    12    31       P1  8029  0.85
      P1  H  6934  6946       L1    11  0.94

> <Gold.Chemscore.Hbond.Weighted>
-6.3027

> <Gold.Chemscore.Metal.Weighted>
-0.0000

> <Gold.Chemscore.Lipo.Weighted>
-12.8638

> <Gold.Chemscore.Internal_Hbond.Weighted>
0.0000

> <Gold.Chemscore.DEClash.Weighted>
0.3802

> <Gold.Chemscore.DEInternal.Weighted>
1.5927

> <Gold.Chemscore.Rot.Weighted>
3.7416

> <Gold.Chemscore.Internal.Correction.Weighted>
   9.000000E+99

> <Gold.Protein.RotatedTorsions>
[ 6907 6896 6895 6894 ] final  -15.55 input  -60.11 | X-H torsion
[ 7974 7965 7964 7962 ] final  -59.39 input  175.53 | X-H torsion
[ 8008 7997 7996 7995 ] final  163.24 input   59.86 | X-H torsion
[ 10167 10162 10161 10158 ] final   95.96 input  -65.29 | X-H torsion
[ 10718 10713 10712 10709 ] final   47.36 input   66.30 | X-H torsion
[ 10763 10752 10751 10750 ] final  152.74 input  -60.55 | X-H torsion
[ 11005 11000 10999 10996 ] final -142.33 input  -57.11 | X-H torsion

> <Gold.Protein.ActiveResidues>
 VAL166  LYS551  ARG553  GLY616  TRP617  ASP618  TYR619  PRO620  LYS621  CYS622 
 ASP623  PHE694  ASN695  SER759  ASP760  ASP761  ALA762  ILE779  LEU786  VAL792 
 PHE793  MET794  SER795  GLU796  ALA797  LYS798  CYS799  TRP800  GLU811  SER814 

> <Gold.Protein.RotatedAtoms>
  151.3222  135.0821  159.9309 H   0  0  0  0  0  0  0  0  0  0  0  0  # atno 6907 bound_to 6896
  152.5254  133.9627  159.7735 H   0  0  0  0  0  0  0  0  0  0  0  0  # atno 6908 bound_to 6896
  150.9950  133.6059  159.2733 H   0  0  0  0  0  0  0  0  0  0  0  0  # atno 6909 bound_to 6896
  145.8281  140.8497  143.0098 H   0  0  0  0  0  0  0  0  0  0  0  0  # atno 7974 bound_to 7965
  156.1972  140.1729  156.7974 H   0  0  0  0  0  0  0  0  0  0  0  0  # atno 8008 bound_to 7997
  154.5545  140.0711  156.8752 H   0  0  0  0  0  0  0  0  0  0  0  0  # atno 8009 bound_to 7997
  155.2965  140.3359  155.4252 H   0  0  0  0  0  0  0  0  0  0  0  0  # atno 8010 bound_to 7997
  139.7939  144.6841  150.9855 H   0  0  0  0  0  0  0  0  0  0  0  0  # atno 10167 bound_to 10162
  157.4576  130.8177  149.7853 H   0  0  0  0  0  0  0  0  0  0  0  0  # atno 10718 bound_to 10713
  154.1250  135.2830  155.3199 H   0  0  0  0  0  0  0  0  0  0  0  0  # atno 10763 bound_to 10752
  154.6396  135.5407  153.7777 H   0  0  0  0  0  0  0  0  0  0  0  0  # atno 10764 bound_to 10752
  153.0300  135.6483  154.1402 H   0  0  0  0  0  0  0  0  0  0  0  0  # atno 10765 bound_to 10752
  140.8236  134.2601  157.4889 H   0  0  0  0  0  0  0  0  0  0  0  0  # atno 11005 bound_to 11000
  144.6742  140.0631  143.7475 LP  0  0  0  0  0  0  0  0  0  0  0  0  # atno 17320 bound_to 7965
  145.9601  139.2795  143.1160 LP  0  0  0  0  0  0  0  0  0  0  0  0  # atno 17321 bound_to 7965
  140.7820  143.4351  151.0635 LP  0  0  0  0  0  0  0  0  0  0  0  0  # atno 17342 bound_to 10162
  139.8027  143.8061  152.3164 LP  0  0  0  0  0  0  0  0  0  0  0  0  # atno 17343 bound_to 10162
  156.0014  130.3878  150.2591 LP  0  0  0  0  0  0  0  0  0  0  0  0  # atno 17370 bound_to 10713
  157.0767  131.0132  151.3171 LP  0  0  0  0  0  0  0  0  0  0  0  0  # atno 17371 bound_to 10713
  139.8707  134.9548  156.4189 LP  0  0  0  0  0  0  0  0  0  0  0  0  # atno 17394 bound_to 11000
  140.9073  133.7737  155.9750 LP  0  0  0  0  0  0  0  0  0  0  0  0  # atno 17395 bound_to 11000

$$$$
