AV-unprocessed.smi:372|AV-procd|sdf|2444|dock8
  -GOLD-   2262022383D 1   1.00000     0.00000
 Structure written by MMmdl.
 23 24  0  0  0  0  0  0  0  0  1 V2000
  150.6589  139.2855  158.6837 C   0  0  0  0  0  0  0  0  0  0  0  0
  151.1405  140.1862  157.5300 C   0  0  2  0  0  0  0  0  0  0  0  0
  151.5551  141.5818  158.0286 C   0  0  0  0  0  0  0  0  0  0  0  0
  152.6046  141.7602  158.9639 C   0  0  0  0  0  0  0  0  0  0  0  0
  152.9388  143.0658  159.3720 C   0  0  0  0  0  0  0  0  0  0  0  0
  152.2219  144.1509  158.8355 C   0  0  0  0  0  0  0  0  0  0  0  0
  151.1994  143.8802  157.9069 C   0  0  0  0  0  0  0  0  0  0  0  0
  150.8736  142.6325  157.5087 N   0  0  0  0  0  0  0  0  0  0  0  0
  150.1265  140.2287  156.4831 N   0  0  0  0  0  0  0  0  0  0  0  0
  150.5672  139.7795  155.3011 C   0  0  0  0  0  0  0  0  0  0  0  0
  149.9228  139.7433  154.2558 O   0  0  0  0  0  0  0  0  0  0  0  0
  151.8261  139.3658  155.4648 N   0  0  0  0  0  0  0  0  0  0  0  0
  152.2539  139.5231  156.7163 C   0  0  0  0  0  0  0  0  0  0  0  0
  153.3493  139.1800  157.1592 O   0  0  0  0  0  0  0  0  0  0  0  0
  151.4259  139.1724  159.4509 H   0  0  0  0  0  0  0  0  0  0  0  0
  150.3985  138.2859  158.3329 H   0  0  0  0  0  0  0  0  0  0  0  0
  149.7744  139.7058  159.1634 H   0  0  0  0  0  0  0  0  0  0  0  0
  153.1545  140.9249  159.3705 H   0  0  0  0  0  0  0  0  0  0  0  0
  153.7336  143.2318  160.0842 H   0  0  0  0  0  0  0  0  0  0  0  0
  152.4516  145.1652  159.1266 H   0  0  0  0  0  0  0  0  0  0  0  0
  150.6289  144.6866  157.4708 H   0  0  0  0  0  0  0  0  0  0  0  0
  149.2011  140.6015  156.6383 H   0  0  0  0  0  0  0  0  0  0  0  0
  152.3839  138.9596  154.7279 H   0  0  0  0  0  0  0  0  0  0  0  0
  1  2  1  0  0  0  0
  1 15  1  0  0  0  0
  1 16  1  0  0  0  0
  1 17  1  0  0  0  0
  2 13  1  0  0  0  0
  2  3  1  0  0  0  0
  2  9  1  0  0  0  0
  3  8  1  0  0  0  0
  3  4  2  0  0  0  0
  4  5  1  0  0  0  0
  4 18  1  0  0  0  0
  5  6  2  0  0  0  0
  5 19  1  0  0  0  0
  6  7  1  0  0  0  0
  6 20  1  0  0  0  0
  7  8  2  0  0  0  0
  7 21  1  0  0  0  0
  9 10  1  0  0  0  0
  9 22  1  0  0  0  0
 10 11  2  0  0  0  0
 10 12  1  0  0  0  0
 12 13  1  0  0  0  0
 12 23  1  0  0  0  0
 13 14  2  0  0  0  0
M  END
> <s_m_source_file>
AV-unprocessed.smi

> <i_m_source_file_index>
372

> <i_lp_mmshare_version>
43012

> <i_f3d_flags>
0

> <s_epik_input>
Tz1DMVtOSF1DKD1PKVtOSF1bQ0BAXTEoW0NIM10pYzJbY0hdW2NIXVtjSF1bY0hdbjI=

> <s_epik_cmdline>
J2VwaWtfcHl0aG9uJywgJy1waCcsICc3LjAnLCAnLXRuJywgJzgnLCAnLW1hJywgJzIwMCcsICctbWV0YWxfYmluZGluZycsICctaW1hZScsICc8aW5maWxlLm1hZT4nLCAnLW9tYWUnLCAnPG91dGZpbGUubWFlPic=

> <r_lp_tautomer_probability>
1

> <r_epik_Ionization_Penalty>
0.0293563

> <r_epik_Ionization_Penalty_Charging>
0

> <r_epik_Ionization_Penalty_Neutral>
0.0293563

> <r_epik_State_Penalty>
0.034944

> <r_epik_Charging_Adjusted_Penalty>
0.034944

> <i_epik_Tot_Q>
0

> <i_epik_Tot_abs_Q>
0

> <r_epik_Metal_State_Penalty>
0.534399

> <b_epik_Metal_Only>
0

> <s_lp_Force_Field>
OPLS_2005

> <r_lp_Energy>
17.2904

> <b_lp_Chiralities_Consistent>
1

> <s_lp_Variant>
AV-unprocessed.smi:372-2

> <Gold.Version>
5.8.1

> <Gold.Id.Protein>
6NUR|6NUR_protein|mol2

> <Gold.PLP.Fitness>
33.8368

> <Gold.PLP.PLP>
-25.5872

> <Gold.PLP.part.hbond>
-2.0000

> <Gold.PLP.part.metal>
0.0000

> <Gold.PLP.part.buried>
-2.4798

> <Gold.PLP.part.nonpolar>
-22.0548

> <Gold.PLP.part.repulsive>
0.6752

> <Gold.PLP.ligand.clash>
0.0000

> <Gold.PLP.ligand.torsion>
0.0587

> <Gold.PLP.Chemscore.Hbond>
1.7500

> <Gold.PLP.Chemscore.CHOScore>
1.0000

> <Gold.PLP.Chemscore.Metal>
0.0000

> <Gold.Chemscore.Hbonds>
donor molecule, donor type, donor heavy atom, donor atom, acceptor molecule, acceptor atom, score
      P1  H  7989  7998       L1    11  0.10
      P1  H  7997  8008       L1    14  0.94
      L1  C     7    21       P1  8028  1.00

> <Gold.PLP.Chemscore.Internal.Correction>
0.1171

> <Gold.Rescore>
     Score         DG    S(hbond)    S(metal)    S(lipo)     H(rot)  DE(clash)    DE(int)     intcor
     14.02     -14.18       0.95        0.00      69.13       1.00       0.01       0.16       ----

> <Gold.Chemscore.Fitness>
14.0165

> <Gold.Chemscore.DG>
-14.1831

> <Gold.Chemscore.ZeroCoef>
-5.4800

> <Gold.Chemscore.Hbond>
0.9507

> <Gold.Chemscore.Metal>
0.0000

> <Gold.Chemscore.Lipo>
69.1253

> <Gold.Chemscore.Internal_Hbond>
0.0000

> <Gold.Chemscore.DEClash>
0.0107

> <Gold.Chemscore.DEInternal>
0.1558

> <Gold.Chemscore.Rot>
1.0000

> <Gold.Chemscore.Internal.Correction>
   9.000000E+99

> <Gold.Chemscore.Hbonds>
donor molecule, donor type, donor heavy atom, donor atom, acceptor molecule, acceptor atom, score
      P1  H  7997  8008       L1    14  0.85

> <Gold.Chemscore.Hbond.Weighted>
-3.1754

> <Gold.Chemscore.Metal.Weighted>
-0.0000

> <Gold.Chemscore.Lipo.Weighted>
-8.0877

> <Gold.Chemscore.Internal_Hbond.Weighted>
0.0000

> <Gold.Chemscore.DEClash.Weighted>
0.0107

> <Gold.Chemscore.DEInternal.Weighted>
0.1558

> <Gold.Chemscore.Rot.Weighted>
2.5600

> <Gold.Chemscore.Internal.Correction.Weighted>
   9.000000E+99

> <Gold.Protein.RotatedTorsions>
[ 6907 6896 6895 6894 ] final  125.29 input  -60.11 | X-H torsion
[ 7974 7965 7964 7962 ] final -163.76 input  175.53 | X-H torsion
[ 8008 7997 7996 7995 ] final  -89.11 input   59.86 | X-H torsion
[ 10167 10162 10161 10158 ] final   41.77 input  -65.29 | X-H torsion
[ 10718 10713 10712 10709 ] final -100.77 input   66.30 | X-H torsion
[ 10763 10752 10751 10750 ] final  169.84 input  -60.55 | X-H torsion
[ 11005 11000 10999 10996 ] final   33.64 input  -57.11 | X-H torsion

> <Gold.Protein.ActiveResidues>
 VAL166  LYS551  ARG553  GLY616  TRP617  ASP618  TYR619  PRO620  LYS621  CYS622 
 ASP623  PHE694  ASN695  SER759  ASP760  ASP761  ALA762  ILE779  LEU786  VAL792 
 PHE793  MET794  SER795  GLU796  ALA797  LYS798  CYS799  TRP800  GLU811  SER814 

> <Gold.Protein.RotatedAtoms>
  152.4005  133.6810  159.6311 H   0  0  0  0  0  0  0  0  0  0  0  0  # atno 6907 bound_to 6896
  150.7897  133.8799  159.3292 H   0  0  0  0  0  0  0  0  0  0  0  0  # atno 6908 bound_to 6896
  151.6566  135.0996  160.0222 H   0  0  0  0  0  0  0  0  0  0  0  0  # atno 6909 bound_to 6896
  144.7316  140.3060  143.6196 H   0  0  0  0  0  0  0  0  0  0  0  0  # atno 7974 bound_to 7965
  154.6827  140.0545  157.0283 H   0  0  0  0  0  0  0  0  0  0  0  0  # atno 8008 bound_to 7997
  155.0928  140.3221  155.4550 H   0  0  0  0  0  0  0  0  0  0  0  0  # atno 8009 bound_to 7997
  156.2700  140.2045  156.6055 H   0  0  0  0  0  0  0  0  0  0  0  0  # atno 8010 bound_to 7997
  140.3610  144.2228  150.6138 H   0  0  0  0  0  0  0  0  0  0  0  0  # atno 10167 bound_to 10162
  156.0173  130.5343  150.6865 H   0  0  0  0  0  0  0  0  0  0  0  0  # atno 10718 bound_to 10713
  154.3890  135.2754  155.2166 H   0  0  0  0  0  0  0  0  0  0  0  0  # atno 10763 bound_to 10752
  154.4240  135.5993  153.6031 H   0  0  0  0  0  0  0  0  0  0  0  0  # atno 10764 bound_to 10752
  152.9832  135.5979  154.4143 H   0  0  0  0  0  0  0  0  0  0  0  0  # atno 10765 bound_to 10752
  140.2610  134.3192  155.7858 H   0  0  0  0  0  0  0  0  0  0  0  0  # atno 11005 bound_to 11000
  145.7713  139.1858  143.2211 LP  0  0  0  0  0  0  0  0  0  0  0  0  # atno 17320 bound_to 7965
  146.0909  140.7657  142.9596 LP  0  0  0  0  0  0  0  0  0  0  0  0  # atno 17321 bound_to 7965
  140.5127  143.2286  151.8511 LP  0  0  0  0  0  0  0  0  0  0  0  0  # atno 17342 bound_to 10162
  139.4814  144.4931  151.9159 LP  0  0  0  0  0  0  0  0  0  0  0  0  # atno 17343 bound_to 10162
  157.4556  131.0877  151.0800 LP  0  0  0  0  0  0  0  0  0  0  0  0  # atno 17370 bound_to 10713
  157.1303  130.6099  149.5527 LP  0  0  0  0  0  0  0  0  0  0  0  0  # atno 17371 bound_to 10713
  141.2190  133.7409  156.9187 LP  0  0  0  0  0  0  0  0  0  0  0  0  # atno 17394 bound_to 11000
  140.1465  134.9259  157.2536 LP  0  0  0  0  0  0  0  0  0  0  0  0  # atno 17395 bound_to 11000

$$$$
