AV-unprocessed.smi:21|AV-procd|sdf|138|dock9
  -GOLD-   2262015343D 1   1.00000     0.00000
 Structure written by MMmdl.
 62 65  0  0  0  0  0  0  0  0  2 V2000
  145.6067  129.2635  151.9841 C   0  0  0  0  0  0  0  0  0  0  0  0
  146.0861  130.4553  152.5870 O   0  0  0  0  0  0  0  0  0  0  0  0
  146.1046  131.5747  151.7105 C   0  0  2  0  0  0  0  0  0  0  0  0
  146.8508  132.7175  152.3863 C   0  0  0  0  0  0  0  0  0  0  0  0
  145.8088  133.3493  153.3196 C   0  0  1  0  0  0  0  0  0  0  0  0
  146.1004  134.8282  153.6776 C   0  0  0  0  0  0  0  0  0  0  0  0
  147.0421  134.9619  154.7906 N   0  0  0  0  0  0  0  0  0  0  0  0
  147.6551  133.7551  155.3307 C   0  0  0  0  0  0  0  0  0  0  0  0
  147.6110  136.1727  155.0413 C   0  0  0  0  0  0  0  0  0  0  0  0
  147.3479  137.1910  154.1805 N   0  0  0  0  0  0  0  0  0  0  0  0
  147.8766  138.4021  154.3739 C   0  0  0  0  0  0  0  0  0  0  0  0
  148.6916  138.8089  155.3471 N   0  0  0  0  0  0  0  0  0  0  0  0
  148.9709  137.7940  156.2130 C   0  0  0  0  0  0  0  0  0  0  0  0
  148.4782  136.4583  156.1394 C   0  0  0  0  0  0  0  0  0  0  0  0
  149.0001  135.7143  157.1931 N   0  0  0  0  0  0  0  0  0  0  0  0
  149.7404  136.5599  157.8554 C   0  0  0  0  0  0  0  0  0  0  0  0
  149.7769  137.8328  157.3372 N   0  0  0  0  0  0  0  0  0  0  0  0
  150.5187  138.9616  157.8703 C   0  0  0  0  0  0  0  0  0  0  0  0
  150.7757  140.0888  156.8358 C   0  0  2  0  0  0  0  0  0  0  0  0
  151.6806  139.6213  155.6668 C   0  0  0  0  0  0  0  0  0  0  0  0
  152.9694  139.2518  156.1127 O   0  0  0  0  0  0  0  0  0  0  0  0
  151.3743  141.3383  157.5330 C   0  0  2  0  0  0  0  0  0  0  0  0
  152.4924  141.0513  158.5223 C   0  0  0  0  0  0  0  0  0  0  0  0
  152.5223  142.3300  159.3484 C   0  0  0  0  0  0  0  0  0  0  0  0
  151.1624  142.7270  159.4570 O   0  0  0  0  0  0  0  0  0  0  0  0
  150.3927  142.1064  158.4309 C   0  0  0  0  0  0  0  0  0  0  0  0
  144.4859  133.0810  152.6830 N   0  3  1  0  0  0  0  0  0  0  0  0
  143.6328  134.2445  152.3442 C   0  0  0  0  0  0  0  0  0  0  0  0
  144.7012  132.1643  151.5388 C   0  0  0  0  0  0  0  0  0  0  0  0
  146.5700  131.3137  150.7582 H   0  0  0  0  0  0  0  0  0  0  0  0
  145.7969  132.7700  154.2439 H   0  0  0  0  0  0  0  0  0  0  0  0
  145.6186  128.4557  152.7157 H   0  0  0  0  0  0  0  0  0  0  0  0
  146.2392  128.9644  151.1474 H   0  0  0  0  0  0  0  0  0  0  0  0
  144.5832  129.3724  151.6254 H   0  0  0  0  0  0  0  0  0  0  0  0
  147.7468  132.3852  152.9119 H   0  0  0  0  0  0  0  0  0  0  0  0
  147.1598  133.4410  151.6304 H   0  0  0  0  0  0  0  0  0  0  0  0
  146.4447  135.3739  152.7991 H   0  0  0  0  0  0  0  0  0  0  0  0
  145.1772  135.3187  153.9867 H   0  0  0  0  0  0  0  0  0  0  0  0
  147.9591  133.9023  156.3676 H   0  0  0  0  0  0  0  0  0  0  0  0
  148.5290  133.4694  154.7448 H   0  0  0  0  0  0  0  0  0  0  0  0
  146.9497  132.9241  155.3091 H   0  0  0  0  0  0  0  0  0  0  0  0
  147.6077  139.1524  153.6449 H   0  0  0  0  0  0  0  0  0  0  0  0
  150.2820  136.2785  158.7468 H   0  0  0  0  0  0  0  0  0  0  0  0
  149.9531  139.3421  158.7206 H   0  0  0  0  0  0  0  0  0  0  0  0
  151.4656  138.5981  158.2712 H   0  0  0  0  0  0  0  0  0  0  0  0
  149.8130  140.3862  156.4167 H   0  0  0  0  0  0  0  0  0  0  0  0
  151.2672  138.7447  155.1703 H   0  0  0  0  0  0  0  0  0  0  0  0
  151.7643  140.3987  154.9068 H   0  0  0  0  0  0  0  0  0  0  0  0
  152.9673  138.3260  156.3030 H   0  0  0  0  0  0  0  0  0  0  0  0
  151.7591  142.0238  156.7760 H   0  0  0  0  0  0  0  0  0  0  0  0
  152.2354  140.2016  159.1565 H   0  0  0  0  0  0  0  0  0  0  0  0
  153.4512  140.8467  158.0449 H   0  0  0  0  0  0  0  0  0  0  0  0
  152.9790  142.1890  160.3282 H   0  0  0  0  0  0  0  0  0  0  0  0
  153.0751  143.1100  158.8230 H   0  0  0  0  0  0  0  0  0  0  0  0
  149.8237  142.8526  157.8757 H   0  0  0  0  0  0  0  0  0  0  0  0
  149.6825  141.4277  158.9048 H   0  0  0  0  0  0  0  0  0  0  0  0
  144.1249  134.9074  151.6312 H   0  0  0  0  0  0  0  0  0  0  0  0
  143.3709  134.8153  153.2349 H   0  0  0  0  0  0  0  0  0  0  0  0
  142.6992  133.9031  151.8956 H   0  0  0  0  0  0  0  0  0  0  0  0
  144.6763  132.7344  150.6084 H   0  0  0  0  0  0  0  0  0  0  0  0
  143.9142  131.4130  151.4788 H   0  0  0  0  0  0  0  0  0  0  0  0
  143.9688  132.5500  153.3695 H   0  0  0  0  0  0  0  0  0  0  0  0
  1  2  1  0  0  0  0
  1 32  1  0  0  0  0
  1 33  1  0  0  0  0
  1 34  1  0  0  0  0
  2  3  1  0  0  0  0
  3 30  1  0  0  0  0
  3 29  1  0  0  0  0
  3  4  1  0  0  0  0
  4  5  1  0  0  0  0
  4 35  1  0  0  0  0
  4 36  1  0  0  0  0
  5 31  1  0  0  0  0
  5  6  1  0  0  0  0
  5 27  1  0  0  0  0
  6  7  1  0  0  0  0
  6 37  1  0  0  0  0
  6 38  1  0  0  0  0
  7  8  1  0  0  0  0
  7  9  1  0  0  0  0
  8 39  1  0  0  0  0
  8 40  1  0  0  0  0
  8 41  1  0  0  0  0
  9 14  1  0  0  0  0
  9 10  2  0  0  0  0
 10 11  1  0  0  0  0
 11 12  2  0  0  0  0
 11 42  1  0  0  0  0
 12 13  1  0  0  0  0
 13 17  1  0  0  0  0
 13 14  2  0  0  0  0
 14 15  1  0  0  0  0
 15 16  2  0  0  0  0
 16 17  1  0  0  0  0
 16 43  1  0  0  0  0
 17 18  1  0  0  0  0
 18 19  1  0  0  0  0
 18 44  1  0  0  0  0
 18 45  1  0  0  0  0
 19 20  1  0  0  0  0
 19 22  1  0  0  0  0
 19 46  1  0  0  0  0
 20 21  1  0  0  0  0
 20 47  1  0  0  0  0
 20 48  1  0  0  0  0
 21 49  1  0  0  0  0
 22 26  1  0  0  0  0
 22 23  1  0  0  0  0
 22 50  1  0  0  0  0
 23 24  1  0  0  0  0
 23 51  1  0  0  0  0
 23 52  1  0  0  0  0
 24 25  1  0  0  0  0
 24 53  1  0  0  0  0
 24 54  1  0  0  0  0
 25 26  1  0  0  0  0
 26 55  1  0  0  0  0
 26 56  1  0  0  0  0
 27 28  1  0  0  0  0
 27 29  1  0  0  0  0
 27 62  1  0  0  0  0
 28 57  1  0  0  0  0
 28 58  1  0  0  0  0
 28 59  1  0  0  0  0
 29 60  1  0  0  0  0
 29 61  1  0  0  0  0
M  CHG  1  27   1
M  END
> <s_m_source_file>
AV-unprocessed.smi

> <i_m_source_file_index>
21

> <i_lp_mmshare_version>
43012

> <i_f3d_flags>
0

> <s_epik_input>
W0NIM11PW0NASF0xW0NIMl1bQ0BIXShOKFtDSDNdKVtDSDJdMSlbQ0gyXU4oW0NIM10pYyhuW2NIXW4yKWMoYzIzKW5bY0hdbjNbQ0gyXVtDQEhdKFtDSDJdW09IXSlbQ0BASF00W0NIMl1bQ0gyXU9bQ0gyXTQ=

> <s_epik_cmdline>
J2VwaWtfcHl0aG9uJywgJy1waCcsICc3LjAnLCAnLXRuJywgJzgnLCAnLW1hJywgJzIwMCcsICctbWV0YWxfYmluZGluZycsICctaW1hZScsICc8aW5maWxlLm1hZT4nLCAnLW9tYWUnLCAnPG91dGZpbGUubWFlPic=

> <r_lp_tautomer_probability>
1

> <r_epik_Ionization_Penalty>
0.0157465

> <r_epik_Ionization_Penalty_Charging>
0.015354

> <r_epik_Ionization_Penalty_Neutral>
0.000392529

> <r_epik_State_Penalty>
0.0120612

> <r_epik_Charging_Adjusted_Penalty>
0.0274152

> <i_epik_Tot_Q>
1

> <i_epik_Tot_abs_Q>
1

> <r_epik_Metal_State_Penalty>
0.0121253

> <b_epik_Metal_Only>
0

> <s_lp_Force_Field>
OPLS_2005

> <r_lp_Energy>
61.8504

> <b_lp_Chiralities_Consistent>
1

> <s_lp_Variant>
AV-unprocessed.smi:21-18

> <Gold.Version>
5.8.1

> <Gold.Id.Protein>
6NUR|6NUR_protein|mol2

> <Gold.PLP.Fitness>
40.9876

> <Gold.PLP.PLP>
-33.7708

> <Gold.PLP.part.hbond>
-2.4533

> <Gold.PLP.part.metal>
0.0000

> <Gold.PLP.part.buried>
-7.5287

> <Gold.PLP.part.nonpolar>
-25.8229

> <Gold.PLP.part.repulsive>
0.9415

> <Gold.PLP.ligand.clash>
0.0000

> <Gold.PLP.ligand.torsion>
1.1480

> <Gold.PLP.Chemscore.Hbond>
3.0000

> <Gold.PLP.Chemscore.CHOScore>
0.0000

> <Gold.PLP.Chemscore.Metal>
0.0000

> <Gold.Chemscore.Hbonds>
donor molecule, donor type, donor heavy atom, donor atom, acceptor molecule, acceptor atom, score
      L1  H    27    62       P1 10957  1.85
      P1  H  7997  8008       L1    21  1.00

> <Gold.PLP.Chemscore.Internal.Correction>
0.5128

> <Gold.Rescore>
     Score         DG    S(hbond)    S(metal)    S(lipo)     H(rot)  DE(clash)    DE(int)     intcor
     10.65     -14.26       1.90        0.00      88.11       3.08       0.08       3.54       ----

> <Gold.Chemscore.Fitness>
10.6469

> <Gold.Chemscore.DG>
-14.2592

> <Gold.Chemscore.ZeroCoef>
-5.4800

> <Gold.Chemscore.Hbond>
1.8995

> <Gold.Chemscore.Metal>
0.0000

> <Gold.Chemscore.Lipo>
88.1105

> <Gold.Chemscore.Internal_Hbond>
0.0000

> <Gold.Chemscore.DEClash>
0.0750

> <Gold.Chemscore.DEInternal>
3.5372

> <Gold.Chemscore.Rot>
3.0758

> <Gold.Chemscore.Internal.Correction>
   9.000000E+99

> <Gold.Chemscore.Hbonds>
donor molecule, donor type, donor heavy atom, donor atom, acceptor molecule, acceptor atom, score
      L1  H    27    62       P1 10957  0.23
      P1  H  7997  8008       L1    21  0.98

> <Gold.Chemscore.Hbond.Weighted>
-6.3444

> <Gold.Chemscore.Metal.Weighted>
-0.0000

> <Gold.Chemscore.Lipo.Weighted>
-10.3089

> <Gold.Chemscore.Internal_Hbond.Weighted>
0.0000

> <Gold.Chemscore.DEClash.Weighted>
0.0750

> <Gold.Chemscore.DEInternal.Weighted>
3.5372

> <Gold.Chemscore.Rot.Weighted>
7.8741

> <Gold.Chemscore.Internal.Correction.Weighted>
   9.000000E+99

> <Gold.Protein.RotatedTorsions>
[ 6907 6896 6895 6894 ] final -177.20 input  -60.11 | X-H torsion
[ 7974 7965 7964 7962 ] final  -54.96 input  175.53 | X-H torsion
[ 8008 7997 7996 7995 ] final  -33.42 input   59.86 | X-H torsion
[ 10167 10162 10161 10158 ] final  -92.91 input  -65.29 | X-H torsion
[ 10718 10713 10712 10709 ] final -104.81 input   66.30 | X-H torsion
[ 10763 10752 10751 10750 ] final  -98.73 input  -60.55 | X-H torsion
[ 11005 11000 10999 10996 ] final  113.89 input  -57.11 | X-H torsion

> <Gold.Protein.ActiveResidues>
 VAL166  LYS551  ARG553  GLY616  TRP617  ASP618  TYR619  PRO620  LYS621  CYS622 
 ASP623  PHE694  ASN695  SER759  ASP760  ASP761  ALA762  ILE779  LEU786  VAL792 
 PHE793  MET794  SER795  GLU796  ALA797  LYS798  CYS799  TRP800  GLU811  SER814 

> <Gold.Protein.RotatedAtoms>
  151.6171  133.3342  159.3079 H   0  0  0  0  0  0  0  0  0  0  0  0  # atno 6907 bound_to 6896
  150.8126  134.7293  159.6713 H   0  0  0  0  0  0  0  0  0  0  0  0  # atno 6908 bound_to 6896
  152.4222  134.5939  160.0033 H   0  0  0  0  0  0  0  0  0  0  0  0  # atno 6909 bound_to 6896
  145.8796  140.8154  142.9846 H   0  0  0  0  0  0  0  0  0  0  0  0  # atno 7974 bound_to 7965
  154.4149  140.1711  156.1885 H   0  0  0  0  0  0  0  0  0  0  0  0  # atno 8008 bound_to 7997
  155.9623  140.3392  155.6478 H   0  0  0  0  0  0  0  0  0  0  0  0  # atno 8009 bound_to 7997
  155.6732  140.0714  157.2503 H   0  0  0  0  0  0  0  0  0  0  0  0  # atno 8010 bound_to 7997
  140.3300  143.3000  151.9952 H   0  0  0  0  0  0  0  0  0  0  0  0  # atno 10167 bound_to 10162
  156.0320  130.5533  150.7450 H   0  0  0  0  0  0  0  0  0  0  0  0  # atno 10718 bound_to 10713
  154.7439  135.4998  153.9169 H   0  0  0  0  0  0  0  0  0  0  0  0  # atno 10763 bound_to 10752
  153.1071  135.6700  153.9575 H   0  0  0  0  0  0  0  0  0  0  0  0  # atno 10764 bound_to 10752
  153.9344  135.3074  155.3424 H   0  0  0  0  0  0  0  0  0  0  0  0  # atno 10765 bound_to 10752
  139.8965  134.9558  156.6809 H   0  0  0  0  0  0  0  0  0  0  0  0  # atno 11005 bound_to 11000
  144.6727  140.1363  143.7440 LP  0  0  0  0  0  0  0  0  0  0  0  0  # atno 17320 bound_to 7965
  145.9039  139.2447  143.1477 LP  0  0  0  0  0  0  0  0  0  0  0  0  # atno 17321 bound_to 7965
  139.4858  144.6242  151.7196 LP  0  0  0  0  0  0  0  0  0  0  0  0  # atno 17342 bound_to 10162
  140.5405  144.0586  150.6087 LP  0  0  0  0  0  0  0  0  0  0  0  0  # atno 17343 bound_to 10162
  157.5009  131.0918  151.0315 LP  0  0  0  0  0  0  0  0  0  0  0  0  # atno 17370 bound_to 10713
  157.0697  130.5859  149.5400 LP  0  0  0  0  0  0  0  0  0  0  0  0  # atno 17371 bound_to 10713
  140.7300  133.9067  155.8205 LP  0  0  0  0  0  0  0  0  0  0  0  0  # atno 17394 bound_to 11000
  141.0160  134.0954  157.4171 LP  0  0  0  0  0  0  0  0  0  0  0  0  # atno 17395 bound_to 11000

$$$$
