AV-unprocessed.smi:2424|AV-procd|sdf|9572|dock4
  -GOLD-   2272013203D 1   1.00000     0.00000
 Structure written by MMmdl.
 49 50  0  0  0  0  0  0  0  0  2 V2000
  148.4336  134.8191  158.5244 C   0  0  0  0  0  0  0  0  0  0  0  0
  149.0813  133.8407  157.5292 C   0  0  0  0  0  0  0  0  0  0  0  0
  149.9330  134.4565  156.3922 C   0  0  0  0  0  0  0  0  0  0  0  0
  150.4190  133.2768  155.5014 C   0  0  0  0  0  0  0  0  0  0  0  0
  151.2074  132.1601  156.2122 C   0  0  0  0  0  0  0  0  0  0  0  0
  149.3182  135.6678  155.6259 C   0  0  2  0  0  0  0  0  0  0  0  0
  148.7740  135.3543  154.3087 N   0  0  0  0  0  0  0  0  0  0  0  0
  147.7595  134.5076  154.0896 C   0  0  0  0  0  0  0  0  0  0  0  0
  147.1746  133.9105  154.9928 O   0  0  0  0  0  0  0  0  0  0  0  0
  147.4940  134.4111  152.7750 N   0  0  0  0  0  0  0  0  0  0  0  0
  146.5215  133.6349  152.1318 C   0  0  0  0  0  0  0  0  0  0  0  0
  145.6014  134.2291  151.2921 C   0  0  0  0  0  0  0  0  0  0  0  0
  144.5989  133.6560  150.5917 N   0  5  0  0  0  0  0  0  0  0  0  0
  144.4320  132.3063  150.6962 C   0  0  0  0  0  0  0  0  0  0  0  0
  143.5398  131.7154  150.0890 O   0  0  0  0  0  0  0  0  0  0  0  0
  145.3504  131.5401  151.5627 C   0  0  0  0  0  0  0  0  0  0  0  0
  145.1631  130.0364  151.6749 C   0  0  0  0  0  0  0  0  0  0  0  0
  146.3348  132.1876  152.2351 C   0  0  0  0  0  0  0  0  0  0  0  0
  150.7060  136.3123  155.5493 C   0  0  1  0  0  0  0  0  0  0  0  0
  150.8067  137.8321  155.5754 C   0  0  0  0  0  0  0  0  0  0  0  0
  151.0078  135.4978  156.8178 C   0  0  2  0  0  0  0  0  0  0  0  0
  152.3229  134.9681  156.8781 O   0  0  0  0  0  0  0  0  0  0  0  0
  153.2912  135.9065  157.3122 C   0  0  0  0  0  0  0  0  0  0  0  0
  147.9407  134.2691  159.3262 H   0  0  0  0  0  0  0  0  0  0  0  0
  147.6687  135.4325  158.0485 H   0  0  0  0  0  0  0  0  0  0  0  0
  149.1641  135.4795  158.9896 H   0  0  0  0  0  0  0  0  0  0  0  0
  149.6997  133.1583  158.1127 H   0  0  0  0  0  0  0  0  0  0  0  0
  148.2824  133.2294  157.1073 H   0  0  0  0  0  0  0  0  0  0  0  0
  149.5652  132.8114  155.0080 H   0  0  0  0  0  0  0  0  0  0  0  0
  151.0427  133.6491  154.6890 H   0  0  0  0  0  0  0  0  0  0  0  0
  151.5656  131.4316  155.4847 H   0  0  0  0  0  0  0  0  0  0  0  0
  150.5889  131.6154  156.9250 H   0  0  0  0  0  0  0  0  0  0  0  0
  152.0785  132.5377  156.7447 H   0  0  0  0  0  0  0  0  0  0  0  0
  148.6535  136.2902  156.2267 H   0  0  0  0  0  0  0  0  0  0  0  0
  149.2025  135.8051  153.5137 H   0  0  0  0  0  0  0  0  0  0  0  0
  148.0682  134.9665  152.1577 H   0  0  0  0  0  0  0  0  0  0  0  0
  145.6823  135.3302  151.1649 H   0  0  0  0  0  0  0  0  0  0  0  0
  145.9050  129.5909  152.3383 H   0  0  0  0  0  0  0  0  0  0  0  0
  145.2614  129.5662  150.6959 H   0  0  0  0  0  0  0  0  0  0  0  0
  144.1741  129.8045  152.0711 H   0  0  0  0  0  0  0  0  0  0  0  0
  146.9856  131.5949  152.8572 H   0  0  0  0  0  0  0  0  0  0  0  0
  151.2680  135.9054  154.7066 H   0  0  0  0  0  0  0  0  0  0  0  0
  150.3309  138.2482  156.4637 H   0  0  0  0  0  0  0  0  0  0  0  0
  150.3186  138.2711  154.7053 H   0  0  0  0  0  0  0  0  0  0  0  0
  151.8440  138.1647  155.5698 H   0  0  0  0  0  0  0  0  0  0  0  0
  150.7342  136.0320  157.7294 H   0  0  0  0  0  0  0  0  0  0  0  0
  154.2616  135.4165  157.3909 H   0  0  0  0  0  0  0  0  0  0  0  0
  153.0392  136.3112  158.2932 H   0  0  0  0  0  0  0  0  0  0  0  0
  153.3918  136.7302  156.6066 H   0  0  0  0  0  0  0  0  0  0  0  0
  1  2  1  0  0  0  0
  1 24  1  0  0  0  0
  1 25  1  0  0  0  0
  1 26  1  0  0  0  0
  2  3  1  0  0  0  0
  2 27  1  0  0  0  0
  2 28  1  0  0  0  0
  3 21  1  0  0  0  0
  3  4  1  0  0  0  0
  3  6  1  0  0  0  0
  4  5  1  0  0  0  0
  4 29  1  0  0  0  0
  4 30  1  0  0  0  0
  5 31  1  0  0  0  0
  5 32  1  0  0  0  0
  5 33  1  0  0  0  0
  6  7  1  0  0  0  0
  6 19  1  0  0  0  0
  6 34  1  0  0  0  0
  7  8  1  0  0  0  0
  7 35  1  0  0  0  0
  8  9  2  0  0  0  0
  8 10  1  0  0  0  0
 10 11  1  0  0  0  0
 10 36  1  0  0  0  0
 11 18  1  0  0  0  0
 11 12  2  0  0  0  0
 12 13  1  0  0  0  0
 12 37  1  0  0  0  0
 13 14  1  0  0  0  0
 14 15  2  0  0  0  0
 14 16  1  0  0  0  0
 16 17  1  0  0  0  0
 16 18  2  0  0  0  0
 17 38  1  0  0  0  0
 17 39  1  0  0  0  0
 17 40  1  0  0  0  0
 18 41  1  0  0  0  0
 19 20  1  0  0  0  0
 19 21  1  0  0  0  0
 19 42  1  0  0  0  0
 20 43  1  0  0  0  0
 20 44  1  0  0  0  0
 20 45  1  0  0  0  0
 21 22  1  0  0  0  0
 21 46  1  0  0  0  0
 22 23  1  0  0  0  0
 23 47  1  0  0  0  0
 23 48  1  0  0  0  0
 23 49  1  0  0  0  0
M  CHG  1  13  -1
M  END
> <s_m_source_file>
AV-unprocessed.smi

> <i_m_source_file_index>
2424

> <i_lp_mmshare_version>
43012

> <i_f3d_flags>
0

> <s_epik_input>
W0NIM11PW0NAQEhdMVtDQEhdKFtDSDNdKVtDQEBIXShDMShbQ0gyXVtDSDNdKVtDSDJdW0NIM10pW05IXUMoPU8pW05IXWMyW2NIXVtuSF1jKD1PKWMoW0NIM10pW2NIXTI=

> <s_epik_cmdline>
J2VwaWtfcHl0aG9uJywgJy1waCcsICc3LjAnLCAnLXRuJywgJzgnLCAnLW1hJywgJzIwMCcsICctbWV0YWxfYmluZGluZycsICctaW1hZScsICc8aW5maWxlLm1hZT4nLCAnLW9tYWUnLCAnPG91dGZpbGUubWFlPic=

> <r_lp_tautomer_probability>
1

> <r_epik_Ionization_Penalty>
7.6122

> <r_epik_Ionization_Penalty_Charging>
1.53843

> <r_epik_Ionization_Penalty_Neutral>
6.07377

> <r_epik_State_Penalty>
6.07371

> <r_epik_Charging_Adjusted_Penalty>
7.61214

> <i_epik_Tot_Q>
-1

> <i_epik_Tot_abs_Q>
1

> <r_epik_Metal_State_Penalty>
2.02136

> <b_epik_Metal_Only>
1

> <s_lp_Force_Field>
OPLS_2005

> <r_lp_Energy>
40.6297

> <b_lp_Chiralities_Consistent>
1

> <s_lp_Variant>
AV-unprocessed.smi:2424-14

> <Gold.Version>
5.8.1

> <Gold.Id.Protein>
6NUR|6NUR_protein|mol2

> <Gold.PLP.Fitness>
37.1381

> <Gold.PLP.PLP>
-29.3498

> <Gold.PLP.part.hbond>
-4.1280

> <Gold.PLP.part.metal>
0.0000

> <Gold.PLP.part.buried>
-4.3341

> <Gold.PLP.part.nonpolar>
-21.6875

> <Gold.PLP.part.repulsive>
0.3404

> <Gold.PLP.ligand.clash>
0.0000

> <Gold.PLP.ligand.torsion>
0.8881

> <Gold.PLP.Chemscore.Hbond>
3.0003

> <Gold.PLP.Chemscore.CHOScore>
0.0000

> <Gold.PLP.Chemscore.Metal>
0.0000

> <Gold.Chemscore.Hbonds>
donor molecule, donor type, donor heavy atom, donor atom, acceptor molecule, acceptor atom, score
      L1  H     7    35       P1  7948  0.90
      L1  H    10    36       P1  7948  0.99
      P1  H 10752 10764       L1    22  0.04
      P1  H 10785 10796       L1    15  0.80

> <Gold.PLP.Chemscore.Internal.Correction>
0.5638

> <Gold.Rescore>
     Score         DG    S(hbond)    S(metal)    S(lipo)     H(rot)  DE(clash)    DE(int)     intcor
     17.95     -19.00       2.82        0.00      68.41       1.52       0.24       0.81       ----

> <Gold.Chemscore.Fitness>
17.9462

> <Gold.Chemscore.DG>
-19.0005

> <Gold.Chemscore.ZeroCoef>
-5.4800

> <Gold.Chemscore.Hbond>
2.8169

> <Gold.Chemscore.Metal>
0.0000

> <Gold.Chemscore.Lipo>
68.4111

> <Gold.Chemscore.Internal_Hbond>
0.0000

> <Gold.Chemscore.DEClash>
0.2394

> <Gold.Chemscore.DEInternal>
0.8148

> <Gold.Chemscore.Rot>
1.5204

> <Gold.Chemscore.Internal.Correction>
   9.000000E+99

> <Gold.Chemscore.Hbonds>
donor molecule, donor type, donor heavy atom, donor atom, acceptor molecule, acceptor atom, score
      L1  H     7    35       P1  7948  0.62
      L1  H    10    36       P1  7948  0.50
      P1  H 10785 10796       L1    15  0.76

> <Gold.Chemscore.Hbond.Weighted>
-9.4086

> <Gold.Chemscore.Metal.Weighted>
-0.0000

> <Gold.Chemscore.Lipo.Weighted>
-8.0041

> <Gold.Chemscore.Internal_Hbond.Weighted>
0.0000

> <Gold.Chemscore.DEClash.Weighted>
0.2394

> <Gold.Chemscore.DEInternal.Weighted>
0.8148

> <Gold.Chemscore.Rot.Weighted>
3.8922

> <Gold.Chemscore.Internal.Correction.Weighted>
   9.000000E+99

> <Gold.Protein.RotatedTorsions>
[ 6907 6896 6895 6894 ] final -173.11 input  -60.11 | X-H torsion
[ 7974 7965 7964 7962 ] final  -84.92 input  175.53 | X-H torsion
[ 8008 7997 7996 7995 ] final   30.93 input   59.86 | X-H torsion
[ 10167 10162 10161 10158 ] final   79.69 input  -65.29 | X-H torsion
[ 10718 10713 10712 10709 ] final   49.96 input   66.30 | X-H torsion
[ 10763 10752 10751 10750 ] final  -30.87 input  -60.55 | X-H torsion
[ 11005 11000 10999 10996 ] final -176.25 input  -57.11 | X-H torsion

> <Gold.Protein.ActiveResidues>
 VAL166  LYS551  ARG553  GLY616  TRP617  ASP618  TYR619  PRO620  LYS621  CYS622 
 ASP623  PHE694  ASN695  SER759  ASP760  ASP761  ALA762  ILE779  LEU786  VAL792 
 PHE793  MET794  SER795  GLU796  ALA797  LYS798  CYS799  TRP800  GLU811  SER814 

> <Gold.Protein.RotatedAtoms>
  151.5508  133.3418  159.2952 H   0  0  0  0  0  0  0  0  0  0  0  0  # atno 6907 bound_to 6896
  150.8480  134.7798  159.6997 H   0  0  0  0  0  0  0  0  0  0  0  0  # atno 6908 bound_to 6896
  152.4533  134.5355  159.9875 H   0  0  0  0  0  0  0  0  0  0  0  0  # atno 6909 bound_to 6896
  145.5001  140.9547  143.1764 H   0  0  0  0  0  0  0  0  0  0  0  0  # atno 7974 bound_to 7965
  155.0982  140.3227  155.4554 H   0  0  0  0  0  0  0  0  0  0  0  0  # atno 8008 bound_to 7997
  156.2724  140.2065  156.6056 H   0  0  0  0  0  0  0  0  0  0  0  0  # atno 8009 bound_to 7997
  154.6849  140.0522  157.0292 H   0  0  0  0  0  0  0  0  0  0  0  0  # atno 8010 bound_to 7997
  139.9577  144.5983  150.8101 H   0  0  0  0  0  0  0  0  0  0  0  0  # atno 10167 bound_to 10162
  157.4838  130.8332  149.8123 H   0  0  0  0  0  0  0  0  0  0  0  0  # atno 10718 bound_to 10713
  153.7880  135.6900  153.4876 H   0  0  0  0  0  0  0  0  0  0  0  0  # atno 10763 bound_to 10752
  153.1768  135.4521  154.9974 H   0  0  0  0  0  0  0  0  0  0  0  0  # atno 10764 bound_to 10752
  154.8055  135.3355  154.7379 H   0  0  0  0  0  0  0  0  0  0  0  0  # atno 10765 bound_to 10752
  140.4542  134.6315  157.4814 H   0  0  0  0  0  0  0  0  0  0  0  0  # atno 11005 bound_to 11000
  144.7785  139.6578  143.7164 LP  0  0  0  0  0  0  0  0  0  0  0  0  # atno 17320 bound_to 7965
  146.2231  139.5672  142.9605 LP  0  0  0  0  0  0  0  0  0  0  0  0  # atno 17321 bound_to 7965
  140.7563  143.3063  151.2953 LP  0  0  0  0  0  0  0  0  0  0  0  0  # atno 17342 bound_to 10162
  139.6578  144.0243  152.2672 LP  0  0  0  0  0  0  0  0  0  0  0  0  # atno 17343 bound_to 10162
  156.0135  130.3823  150.2185 LP  0  0  0  0  0  0  0  0  0  0  0  0  # atno 17370 bound_to 10713
  157.0372  131.0024  151.3294 LP  0  0  0  0  0  0  0  0  0  0  0  0  # atno 17371 bound_to 10713
  139.9987  134.6871  155.9566 LP  0  0  0  0  0  0  0  0  0  0  0  0  # atno 17394 bound_to 11000
  141.1650  133.6537  156.4450 LP  0  0  0  0  0  0  0  0  0  0  0  0  # atno 17395 bound_to 11000

$$$$
