AV-unprocessed.smi:1661|AV-procd|sdf|6654|dock2
  -GOLD-   22720 7363D 1   1.00000     0.00000
 Structure written by MMmdl.
 38 39  0  0  0  0  0  0  0  0  2 V2000
  145.2774  132.0474  149.5593 C   0  0  0  0  0  0  0  0  0  0  0  0
  144.4840  131.5444  150.7780 C   0  0  2  0  0  0  0  0  0  0  0  0
  143.2466  132.4080  151.0821 C   0  0  0  0  0  0  0  0  0  0  0  0
  143.6208  133.7623  151.7108 C   0  0  0  0  0  0  0  0  0  0  0  0
  144.4431  133.5820  152.9354 N   0  3  2  0  0  0  0  0  0  0  0  0
  144.7042  134.8700  153.6269 C   0  0  0  0  0  0  0  0  0  0  0  0
  144.8751  136.0448  152.6435 C   0  0  0  0  0  0  0  0  0  0  0  0
  146.2043  136.6372  152.7393 N   0  0  0  0  0  0  0  0  0  0  0  0
  146.4870  137.7884  153.3660 C   0  0  0  0  0  0  0  0  0  0  0  0
  145.6341  138.4818  153.9207 O   0  0  0  0  0  0  0  0  0  0  0  0
  147.8002  138.0705  153.3014 N   0  0  0  0  0  0  0  0  0  0  0  0
  148.4855  139.1951  153.8328 C   0  0  0  0  0  0  0  0  0  0  0  0
  149.7668  139.1657  154.2315 N   0  0  0  0  0  0  0  0  0  0  0  0
  150.1895  140.3987  154.7119 N   0  0  0  0  0  0  0  0  0  0  0  0
  149.2120  141.3077  154.6563 C   0  0  0  0  0  0  0  0  0  0  0  0
  147.6790  140.7467  154.0118 S   0  0  0  0  0  0  0  0  0  0  0  0
  145.6796  132.8052  152.6530 C   0  0  0  0  0  0  0  0  0  0  0  0
  145.3492  131.4296  152.0459 C   0  0  0  0  0  0  0  0  0  0  0  0
  145.6774  133.0494  149.7119 H   0  0  0  0  0  0  0  0  0  0  0  0
  144.6483  132.0764  148.6693 H   0  0  0  0  0  0  0  0  0  0  0  0
  146.1180  131.3877  149.3423 H   0  0  0  0  0  0  0  0  0  0  0  0
  144.1337  130.5427  150.5258 H   0  0  0  0  0  0  0  0  0  0  0  0
  142.6626  132.5649  150.1745 H   0  0  0  0  0  0  0  0  0  0  0  0
  142.5947  131.8679  151.7703 H   0  0  0  0  0  0  0  0  0  0  0  0
  144.1606  134.3824  150.9940 H   0  0  0  0  0  0  0  0  0  0  0  0
  142.7044  134.2988  151.9601 H   0  0  0  0  0  0  0  0  0  0  0  0
  143.9062  135.0750  154.3421 H   0  0  0  0  0  0  0  0  0  0  0  0
  145.6211  134.7752  154.2101 H   0  0  0  0  0  0  0  0  0  0  0  0
  144.6883  135.7177  151.6191 H   0  0  0  0  0  0  0  0  0  0  0  0
  144.1571  136.8367  152.8523 H   0  0  0  0  0  0  0  0  0  0  0  0
  146.9639  136.1279  152.3108 H   0  0  0  0  0  0  0  0  0  0  0  0
  148.3796  137.4038  152.8133 H   0  0  0  0  0  0  0  0  0  0  0  0
  149.3945  142.3158  154.9979 H   0  0  0  0  0  0  0  0  0  0  0  0
  146.3248  133.3734  151.9819 H   0  0  0  0  0  0  0  0  0  0  0  0
  146.2468  132.6496  153.5697 H   0  0  0  0  0  0  0  0  0  0  0  0
  144.8164  130.8343  152.7888 H   0  0  0  0  0  0  0  0  0  0  0  0
  146.2690  130.8859  151.8274 H   0  0  0  0  0  0  0  0  0  0  0  0
  143.8837  133.0277  153.5680 H   0  0  0  0  0  0  0  0  0  0  0  0
  1  2  1  0  0  0  0
  1 19  1  0  0  0  0
  1 20  1  0  0  0  0
  1 21  1  0  0  0  0
  2 18  1  0  0  0  0
  2  3  1  0  0  0  0
  2 22  1  0  0  0  0
  3  4  1  0  0  0  0
  3 23  1  0  0  0  0
  3 24  1  0  0  0  0
  4  5  1  0  0  0  0
  4 25  1  0  0  0  0
  4 26  1  0  0  0  0
  5  6  1  0  0  0  0
  5 17  1  0  0  0  0
  5 38  1  0  0  0  0
  6  7  1  0  0  0  0
  6 27  1  0  0  0  0
  6 28  1  0  0  0  0
  7  8  1  0  0  0  0
  7 29  1  0  0  0  0
  7 30  1  0  0  0  0
  8  9  1  0  0  0  0
  8 31  1  0  0  0  0
  9 10  2  0  0  0  0
  9 11  1  0  0  0  0
 11 12  1  0  0  0  0
 11 32  1  0  0  0  0
 12 16  1  0  0  0  0
 12 13  2  0  0  0  0
 13 14  1  0  0  0  0
 14 15  2  0  0  0  0
 15 16  1  0  0  0  0
 15 33  1  0  0  0  0
 17 18  1  0  0  0  0
 17 34  1  0  0  0  0
 17 35  1  0  0  0  0
 18 36  1  0  0  0  0
 18 37  1  0  0  0  0
M  CHG  1   5   1
M  END
> <s_m_source_file>
AV-unprocessed.smi

> <i_m_source_file_index>
1661

> <i_lp_mmshare_version>
43012

> <i_f3d_flags>
0

> <s_epik_input>
W0NIM11bQ0hdMVtDSDJdW0NIMl1OKFtDSDJdW0NIMl0xKVtDSDJdW0NIMl1bTkhdQyg9TylbTkhdYzJubltjSF1zMg==

> <s_epik_cmdline>
J2VwaWtfcHl0aG9uJywgJy1waCcsICc3LjAnLCAnLXRuJywgJzgnLCAnLW1hJywgJzIwMCcsICctbWV0YWxfYmluZGluZycsICctaW1hZScsICc8aW5maWxlLm1hZT4nLCAnLW9tYWUnLCAnPG91dGZpbGUubWFlPic=

> <r_lp_tautomer_probability>
1

> <r_epik_Ionization_Penalty>
0.0053917

> <r_epik_Ionization_Penalty_Charging>
0.00168873

> <r_epik_Ionization_Penalty_Neutral>
0.00370297

> <r_epik_State_Penalty>
-0

> <r_epik_Charging_Adjusted_Penalty>
0.00168873

> <i_epik_Tot_Q>
1

> <i_epik_Tot_abs_Q>
1

> <r_epik_Metal_State_Penalty>
0.36997

> <b_epik_Metal_Only>
0

> <s_lp_Force_Field>
OPLS_2005

> <r_lp_Energy>
16.5964

> <b_lp_Chiralities_Consistent>
1

> <s_lp_Variant>
AV-unprocessed.smi:1661-2

> <Gold.Version>
5.8.1

> <Gold.Id.Protein>
6NUR|6NUR_protein|mol2

> <Gold.PLP.Fitness>
43.4925

> <Gold.PLP.PLP>
-29.3306

> <Gold.PLP.part.hbond>
-3.6502

> <Gold.PLP.part.metal>
0.0000

> <Gold.PLP.part.buried>
-5.7263

> <Gold.PLP.part.nonpolar>
-22.4065

> <Gold.PLP.part.repulsive>
0.6006

> <Gold.PLP.ligand.clash>
0.0000

> <Gold.PLP.ligand.torsion>
1.0165

> <Gold.PLP.Chemscore.Hbond>
4.3917

> <Gold.PLP.Chemscore.CHOScore>
1.0000

> <Gold.PLP.Chemscore.Metal>
0.0000

> <Gold.Chemscore.Hbonds>
donor molecule, donor type, donor heavy atom, donor atom, acceptor molecule, acceptor atom, score
      L1  H     5    38       P1 10957  1.50
      L1  H     8    31       P1  7948  0.88
      L1  H    11    32       P1  7948  1.00
      P1  H  7989  7998       L1    14  0.99
      L1  C    15    33       P1  8028  0.99

> <Gold.PLP.Chemscore.Internal.Correction>
0.0199

> <Gold.Rescore>
     Score         DG    S(hbond)    S(metal)    S(lipo)     H(rot)  DE(clash)    DE(int)     intcor
     17.37     -18.54       2.94        0.00      65.01       1.70       0.09       1.08       ----

> <Gold.Chemscore.Fitness>
17.3701

> <Gold.Chemscore.DG>
-18.5375

> <Gold.Chemscore.ZeroCoef>
-5.4800

> <Gold.Chemscore.Hbond>
2.9388

> <Gold.Chemscore.Metal>
0.0000

> <Gold.Chemscore.Lipo>
65.0063

> <Gold.Chemscore.Internal_Hbond>
0.0000

> <Gold.Chemscore.DEClash>
0.0899

> <Gold.Chemscore.DEInternal>
1.0775

> <Gold.Chemscore.Rot>
1.7046

> <Gold.Chemscore.Internal.Correction>
   9.000000E+99

> <Gold.Chemscore.Hbonds>
donor molecule, donor type, donor heavy atom, donor atom, acceptor molecule, acceptor atom, score
      L1  H     5    38       P1 10957  0.66
      L1  H     8    31       P1  7948  0.81
      L1  H    11    32       P1  7948  0.99
      P1  H  7989  7998       L1    14  0.28

> <Gold.Chemscore.Hbond.Weighted>
-9.8156

> <Gold.Chemscore.Metal.Weighted>
-0.0000

> <Gold.Chemscore.Lipo.Weighted>
-7.6057

> <Gold.Chemscore.Internal_Hbond.Weighted>
0.0000

> <Gold.Chemscore.DEClash.Weighted>
0.0899

> <Gold.Chemscore.DEInternal.Weighted>
1.0775

> <Gold.Chemscore.Rot.Weighted>
4.3638

> <Gold.Chemscore.Internal.Correction.Weighted>
   9.000000E+99

> <Gold.Protein.RotatedTorsions>
[ 6907 6896 6895 6894 ] final   76.78 input  -60.11 | X-H torsion
[ 7974 7965 7964 7962 ] final -105.72 input  175.53 | X-H torsion
[ 8008 7997 7996 7995 ] final  -95.12 input   59.86 | X-H torsion
[ 10167 10162 10161 10158 ] final  145.29 input  -65.29 | X-H torsion
[ 10718 10713 10712 10709 ] final   45.61 input   66.30 | X-H torsion
[ 10763 10752 10751 10750 ] final  -82.69 input  -60.55 | X-H torsion
[ 11005 11000 10999 10996 ] final  142.47 input  -57.11 | X-H torsion

> <Gold.Protein.ActiveResidues>
 VAL166  LYS551  ARG553  GLY616  TRP617  ASP618  TYR619  PRO620  LYS621  CYS622 
 ASP623  PHE694  ASN695  SER759  ASP760  ASP761  ALA762  ILE779  LEU786  VAL792 
 PHE793  MET794  SER795  GLU796  ALA797  LYS798  CYS799  TRP800  GLU811  SER814 

> <Gold.Protein.RotatedAtoms>
  152.5088  134.3917  159.9386 H   0  0  0  0  0  0  0  0  0  0  0  0  # atno 6907 bound_to 6896
  151.3878  133.3793  159.2725 H   0  0  0  0  0  0  0  0  0  0  0  0  # atno 6908 bound_to 6896
  150.9456  134.8881  159.7698 H   0  0  0  0  0  0  0  0  0  0  0  0  # atno 6909 bound_to 6896
  145.2268  140.9155  143.3227 H   0  0  0  0  0  0  0  0  0  0  0  0  # atno 7974 bound_to 7965
  154.7572  140.0483  157.0943 H   0  0  0  0  0  0  0  0  0  0  0  0  # atno 8008 bound_to 7997
  154.9983  140.3121  155.4858 H   0  0  0  0  0  0  0  0  0  0  0  0  # atno 8009 bound_to 7997
  156.2897  140.2206  156.5091 H   0  0  0  0  0  0  0  0  0  0  0  0  # atno 8010 bound_to 7997
  139.4929  144.5912  151.6676 H   0  0  0  0  0  0  0  0  0  0  0  0  # atno 10167 bound_to 10162
  157.4394  130.8072  149.7679 H   0  0  0  0  0  0  0  0  0  0  0  0  # atno 10718 bound_to 10713
  154.5788  135.5582  153.7165 H   0  0  0  0  0  0  0  0  0  0  0  0  # atno 10763 bound_to 10752
  153.0074  135.6315  154.2012 H   0  0  0  0  0  0  0  0  0  0  0  0  # atno 10764 bound_to 10752
  154.1953  135.2880  155.2989 H   0  0  0  0  0  0  0  0  0  0  0  0  # atno 10765 bound_to 10752
  140.0479  134.9271  157.0963 H   0  0  0  0  0  0  0  0  0  0  0  0  # atno 11005 bound_to 11000
  144.9713  139.3877  143.6307 LP  0  0  0  0  0  0  0  0  0  0  0  0  # atno 17320 bound_to 7965
  146.3363  139.8812  142.8824 LP  0  0  0  0  0  0  0  0  0  0  0  0  # atno 17321 bound_to 7965
  140.5539  144.0379  150.6139 LP  0  0  0  0  0  0  0  0  0  0  0  0  # atno 17342 bound_to 10162
  140.3443  143.3001  152.0555 LP  0  0  0  0  0  0  0  0  0  0  0  0  # atno 17343 bound_to 10162
  155.9943  130.3919  150.2866 LP  0  0  0  0  0  0  0  0  0  0  0  0  # atno 17370 bound_to 10713
  157.1029  131.0200  151.3078 LP  0  0  0  0  0  0  0  0  0  0  0  0  # atno 17371 bound_to 10713
  140.3964  134.2129  155.7164 LP  0  0  0  0  0  0  0  0  0  0  0  0  # atno 17394 bound_to 11000
  141.1916  133.8192  157.0873 LP  0  0  0  0  0  0  0  0  0  0  0  0  # atno 17395 bound_to 11000

$$$$
