AV-unprocessed.smi:3253|AV-procd|sdf|12452|dock1
  -GOLD-   2272018343D 1   1.00000     0.00000
 Structure written by MMmdl.
 36 37  0  0  0  0  0  0  0  0  1 V2000
  150.8541  140.4310  157.8529 C   0  0  0  0  0  0  0  0  0  0  0  0
  150.1331  141.7444  157.5213 C   0  0  1  0  0  0  0  0  0  0  0  0
  151.1376  142.8750  157.2106 C   0  0  0  0  0  0  0  0  0  0  0  0
  151.5808  143.5766  158.4020 N   0  0  0  0  0  0  0  0  0  0  0  0
  152.2344  143.0326  159.5003 C   0  0  0  0  0  0  0  0  0  0  0  0
  152.4678  144.0710  160.3731 C   0  0  0  0  0  0  0  0  0  0  0  0
  151.9621  145.2540  159.8396 N   0  0  0  0  0  0  0  0  0  0  0  0
  151.4502  144.8824  158.6732 C   0  0  0  0  0  0  0  0  0  0  0  0
  149.2361  141.5229  156.3876 N   0  0  0  0  0  0  0  0  0  0  0  0
  149.5629  140.9039  155.2419 C   0  0  0  0  0  0  0  0  0  0  0  0
  150.6963  140.4902  154.9945 O   0  0  0  0  0  0  0  0  0  0  0  0
  148.4267  140.6926  154.2302 C   0  0  1  0  0  0  0  0  0  0  0  0
  147.2720  139.8636  154.8296 C   0  0  0  0  0  0  0  0  0  0  0  0
  146.1310  140.8605  154.9518 C   0  0  0  0  0  0  0  0  0  0  0  0
  145.0624  140.5896  155.4978 O   0  0  0  0  0  0  0  0  0  0  0  0
  146.4612  142.0338  154.4050 N   0  0  0  0  0  0  0  0  0  0  0  0
  145.6209  143.2226  154.3647 C   0  0  0  0  0  0  0  0  0  0  0  0
  147.7826  142.0290  153.8020 C   0  0  0  0  0  0  0  0  0  0  0  0
  151.5179  140.5542  158.7090 H   0  0  0  0  0  0  0  0  0  0  0  0
  151.4565  140.0840  157.0127 H   0  0  0  0  0  0  0  0  0  0  0  0
  150.1415  139.6436  158.1006 H   0  0  0  0  0  0  0  0  0  0  0  0
  149.5554  142.0242  158.4041 H   0  0  0  0  0  0  0  0  0  0  0  0
  152.0198  142.4671  156.7154 H   0  0  0  0  0  0  0  0  0  0  0  0
  150.6994  143.5981  156.5212 H   0  0  0  0  0  0  0  0  0  0  0  0
  152.4808  141.9831  159.5640 H   0  0  0  0  0  0  0  0  0  0  0  0
  152.9565  144.0580  161.3360 H   0  0  0  0  0  0  0  0  0  0  0  0
  150.9773  145.5781  157.9957 H   0  0  0  0  0  0  0  0  0  0  0  0
  148.2805  141.8288  156.5007 H   0  0  0  0  0  0  0  0  0  0  0  0
  148.8249  140.1823  153.3513 H   0  0  0  0  0  0  0  0  0  0  0  0
  146.9774  139.0576  154.1571 H   0  0  0  0  0  0  0  0  0  0  0  0
  147.5032  139.4233  155.8009 H   0  0  0  0  0  0  0  0  0  0  0  0
  144.6501  142.9939  153.9238 H   0  0  0  0  0  0  0  0  0  0  0  0
  146.0840  144.0110  153.7706 H   0  0  0  0  0  0  0  0  0  0  0  0
  145.4599  143.6074  155.3723 H   0  0  0  0  0  0  0  0  0  0  0  0
  148.3532  142.9023  154.1240 H   0  0  0  0  0  0  0  0  0  0  0  0
  147.6848  142.0819  152.7169 H   0  0  0  0  0  0  0  0  0  0  0  0
  1  2  1  0  0  0  0
  1 19  1  0  0  0  0
  1 20  1  0  0  0  0
  1 21  1  0  0  0  0
  2  3  1  0  0  0  0
  2  9  1  0  0  0  0
  2 22  1  0  0  0  0
  3  4  1  0  0  0  0
  3 23  1  0  0  0  0
  3 24  1  0  0  0  0
  4  8  1  0  0  0  0
  4  5  1  0  0  0  0
  5  6  2  0  0  0  0
  5 25  1  0  0  0  0
  6  7  1  0  0  0  0
  6 26  1  0  0  0  0
  7  8  2  0  0  0  0
  8 27  1  0  0  0  0
  9 10  1  0  0  0  0
  9 28  1  0  0  0  0
 10 11  2  0  0  0  0
 10 12  1  0  0  0  0
 12 18  1  0  0  0  0
 12 13  1  0  0  0  0
 12 29  1  0  0  0  0
 13 14  1  0  0  0  0
 13 30  1  0  0  0  0
 13 31  1  0  0  0  0
 14 15  2  0  0  0  0
 14 16  1  0  0  0  0
 16 17  1  0  0  0  0
 16 18  1  0  0  0  0
 17 32  1  0  0  0  0
 17 33  1  0  0  0  0
 17 34  1  0  0  0  0
 18 35  1  0  0  0  0
 18 36  1  0  0  0  0
M  END
> <s_m_source_file>
AV-unprocessed.smi

> <i_m_source_file_index>
3253

> <i_lp_mmshare_version>
43012

> <i_f3d_flags>
0

> <s_epik_input>
W2NIXTFuW2NIXVtjSF1uMVtDSDJdW0NAQEhdKFtDSDNdKVtOSF1DKD1PKVtDQEBIXTJbQ0gyXUMoPU8pTihbQ0gzXSlbQ0gyXTI=

> <s_epik_cmdline>
J2VwaWtfcHl0aG9uJywgJy1waCcsICc3LjAnLCAnLXRuJywgJzgnLCAnLW1hJywgJzIwMCcsICctbWV0YWxfYmluZGluZycsICctaW1hZScsICc8aW5maWxlLm1hZT4nLCAnLW9tYWUnLCAnPG91dGZpbGUubWFlPic=

> <r_lp_tautomer_probability>
1

> <r_epik_Ionization_Penalty>
0.628884

> <r_epik_Ionization_Penalty_Charging>
0.628884

> <r_epik_Ionization_Penalty_Neutral>
2.35084e-08

> <r_epik_State_Penalty>
0.64556

> <r_epik_Charging_Adjusted_Penalty>
1.27444

> <i_epik_Tot_Q>
0

> <i_epik_Tot_abs_Q>
0

> <r_epik_Metal_State_Penalty>
0.308736

> <b_epik_Metal_Only>
0

> <s_lp_Force_Field>
OPLS_2005

> <r_lp_Energy>
12.6198

> <b_lp_Chiralities_Consistent>
1

> <s_lp_Variant>
AV-unprocessed.smi:3253-8

> <Gold.Version>
5.8.1

> <Gold.Id.Protein>
6NUR|6NUR_protein|mol2

> <Gold.PLP.Fitness>
39.5088

> <Gold.PLP.PLP>
-37.4134

> <Gold.PLP.part.hbond>
-1.1381

> <Gold.PLP.part.metal>
0.0000

> <Gold.PLP.part.buried>
-5.9212

> <Gold.PLP.part.nonpolar>
-30.9955

> <Gold.PLP.part.repulsive>
0.3203

> <Gold.PLP.ligand.clash>
0.0000

> <Gold.PLP.ligand.torsion>
0.4897

> <Gold.PLP.Chemscore.Hbond>
1.0000

> <Gold.PLP.Chemscore.CHOScore>
0.0000

> <Gold.PLP.Chemscore.Metal>
0.0000

> <Gold.Chemscore.Hbonds>
donor molecule, donor type, donor heavy atom, donor atom, acceptor molecule, acceptor atom, score
      P1  H  7989  7998       L1    11  1.00

> <Gold.PLP.Chemscore.Internal.Correction>
0.0748

> <Gold.Rescore>
     Score         DG    S(hbond)    S(metal)    S(lipo)     H(rot)  DE(clash)    DE(int)     intcor
     10.16     -11.56       0.97        0.00      67.31       1.97       0.23       1.17       ----

> <Gold.Chemscore.Fitness>
10.1552

> <Gold.Chemscore.DG>
-11.5551

> <Gold.Chemscore.ZeroCoef>
-5.4800

> <Gold.Chemscore.Hbond>
0.9684

> <Gold.Chemscore.Metal>
0.0000

> <Gold.Chemscore.Lipo>
67.3137

> <Gold.Chemscore.Internal_Hbond>
0.0000

> <Gold.Chemscore.DEClash>
0.2342

> <Gold.Chemscore.DEInternal>
1.1657

> <Gold.Chemscore.Rot>
1.9669

> <Gold.Chemscore.Internal.Correction>
   9.000000E+99

> <Gold.Chemscore.Hbonds>
donor molecule, donor type, donor heavy atom, donor atom, acceptor molecule, acceptor atom, score
      P1  H  7989  7998       L1    11  0.96

> <Gold.Chemscore.Hbond.Weighted>
-3.2346

> <Gold.Chemscore.Metal.Weighted>
-0.0000

> <Gold.Chemscore.Lipo.Weighted>
-7.8757

> <Gold.Chemscore.Internal_Hbond.Weighted>
0.0000

> <Gold.Chemscore.DEClash.Weighted>
0.2342

> <Gold.Chemscore.DEInternal.Weighted>
1.1657

> <Gold.Chemscore.Rot.Weighted>
5.0352

> <Gold.Chemscore.Internal.Correction.Weighted>
   9.000000E+99

> <Gold.Protein.RotatedTorsions>
[ 6907 6896 6895 6894 ] final   83.14 input  -60.11 | X-H torsion
[ 7974 7965 7964 7962 ] final  -79.76 input  175.53 | X-H torsion
[ 8008 7997 7996 7995 ] final  120.47 input   59.86 | X-H torsion
[ 10167 10162 10161 10158 ] final   85.66 input  -65.29 | X-H torsion
[ 10718 10713 10712 10709 ] final   -4.90 input   66.30 | X-H torsion
[ 10763 10752 10751 10750 ] final  126.47 input  -60.55 | X-H torsion
[ 11005 11000 10999 10996 ] final -173.66 input  -57.11 | X-H torsion

> <Gold.Protein.ActiveResidues>
 VAL166  LYS551  ARG553  GLY616  TRP617  ASP618  TYR619  PRO620  LYS621  CYS622 
 ASP623  PHE694  ASN695  SER759  ASP760  ASP761  ALA762  ILE779  LEU786  VAL792 
 PHE793  MET794  SER795  GLU796  ALA797  LYS798  CYS799  TRP800  GLU811  SER814 

> <Gold.Protein.RotatedAtoms>
  152.5319  134.2942  159.9053 H   0  0  0  0  0  0  0  0  0  0  0  0  # atno 6907 bound_to 6896
  151.2893  133.4166  159.2639 H   0  0  0  0  0  0  0  0  0  0  0  0  # atno 6908 bound_to 6896
  151.0215  134.9488  159.8119 H   0  0  0  0  0  0  0  0  0  0  0  0  # atno 6909 bound_to 6896
  145.5689  140.9469  143.1406 H   0  0  0  0  0  0  0  0  0  0  0  0  # atno 7974 bound_to 7965
  156.2644  140.2830  156.1155 H   0  0  0  0  0  0  0  0  0  0  0  0  # atno 8008 bound_to 7997
  155.1212  140.0392  157.2768 H   0  0  0  0  0  0  0  0  0  0  0  0  # atno 8009 bound_to 7997
  154.6669  140.2579  155.7054 H   0  0  0  0  0  0  0  0  0  0  0  0  # atno 8010 bound_to 7997
  139.8954  144.6361  150.8693 H   0  0  0  0  0  0  0  0  0  0  0  0  # atno 10167 bound_to 10162
  156.7545  130.5250  149.5797 H   0  0  0  0  0  0  0  0  0  0  0  0  # atno 10718 bound_to 10713
  153.6939  135.3294  155.3208 H   0  0  0  0  0  0  0  0  0  0  0  0  # atno 10763 bound_to 10752
  154.8432  135.4438  154.1480 H   0  0  0  0  0  0  0  0  0  0  0  0  # atno 10764 bound_to 10752
  153.2529  135.6983  153.7738 H   0  0  0  0  0  0  0  0  0  0  0  0  # atno 10765 bound_to 10752
  140.4833  134.6055  157.4927 H   0  0  0  0  0  0  0  0  0  0  0  0  # atno 11005 bound_to 11000
  144.7447  139.7352  143.7297 LP  0  0  0  0  0  0  0  0  0  0  0  0  # atno 17320 bound_to 7965
  146.1798  139.4985  142.9874 LP  0  0  0  0  0  0  0  0  0  0  0  0  # atno 17321 bound_to 7965
  140.7718  143.3477  151.2077 LP  0  0  0  0  0  0  0  0  0  0  0  0  # atno 17342 bound_to 10162
  139.7072  143.9436  152.2932 LP  0  0  0  0  0  0  0  0  0  0  0  0  # atno 17343 bound_to 10162
  156.1379  130.6224  151.0426 LP  0  0  0  0  0  0  0  0  0  0  0  0  # atno 17370 bound_to 10713
  157.6762  131.0850  150.7488 LP  0  0  0  0  0  0  0  0  0  0  0  0  # atno 17371 bound_to 10713
  139.9813  134.7132  155.9854 LP  0  0  0  0  0  0  0  0  0  0  0  0  # atno 17394 bound_to 11000
  141.1520  133.6547  156.4044 LP  0  0  0  0  0  0  0  0  0  0  0  0  # atno 17395 bound_to 11000

$$$$
