AV-unprocessed.smi:773|AV-procd|sdf|3689|dock5
  -GOLD-   22720 1103D 1   1.00000     0.00000
 Structure written by MMmdl.
 39 40  0  0  0  0  0  0  0  0  1 V2000
  149.2643  140.1923  154.5827 C   0  0  0  0  0  0  0  0  0  0  0  0
  150.5318  139.9002  155.3326 C   0  0  0  0  0  0  0  0  0  0  0  0
  151.6871  139.9335  154.6904 N   0  0  0  0  0  0  0  0  0  0  0  0
  152.6624  139.6154  155.6399 O   0  0  0  0  0  0  0  0  0  0  0  0
  152.0493  139.4052  156.8320 C   0  0  0  0  0  0  0  0  0  0  0  0
  152.9317  139.0316  157.9746 C   0  0  0  0  0  0  0  0  0  0  0  0
  150.6968  139.5747  156.7097 C   0  0  0  0  0  0  0  0  0  0  0  0
  149.6261  139.4378  157.7646 C   0  0  0  0  0  0  0  0  0  0  0  0
  148.8512  138.1043  157.6818 C   0  0  2  0  0  0  0  0  0  0  0  0
  147.9021  138.0763  156.4760 C   0  0  0  0  0  0  0  0  0  0  0  0
  148.0857  137.8553  158.9039 N   0  0  0  0  0  0  0  0  0  0  0  0
  148.2912  136.8489  159.7669 C   0  0  0  0  0  0  0  0  0  0  0  0
  149.1547  135.9819  159.6292 O   0  0  0  0  0  0  0  0  0  0  0  0
  147.4526  136.9099  160.8090 N   0  0  0  0  0  0  0  0  0  0  0  0
  147.4597  135.9672  161.9200 C   0  0  0  0  0  0  0  0  0  0  0  0
  147.7039  134.5132  161.4902 C   0  0  0  0  0  0  0  0  0  0  0  0
  146.6221  134.1145  162.5024 C   0  0  0  0  0  0  0  0  0  0  0  0
  146.0519  135.5302  162.3442 C   0  0  0  0  0  0  0  0  0  0  0  0
  148.4120  139.6855  155.0349 H   0  0  0  0  0  0  0  0  0  0  0  0
  149.3290  139.8599  153.5461 H   0  0  0  0  0  0  0  0  0  0  0  0
  149.0516  141.2614  154.5784 H   0  0  0  0  0  0  0  0  0  0  0  0
  152.4074  139.1273  158.9251 H   0  0  0  0  0  0  0  0  0  0  0  0
  153.8130  139.6720  158.0104 H   0  0  0  0  0  0  0  0  0  0  0  0
  153.2662  137.9987  157.8776 H   0  0  0  0  0  0  0  0  0  0  0  0
  150.0633  139.5328  158.7590 H   0  0  0  0  0  0  0  0  0  0  0  0
  148.9166  140.2622  157.6878 H   0  0  0  0  0  0  0  0  0  0  0  0
  149.5755  137.3006  157.5401 H   0  0  0  0  0  0  0  0  0  0  0  0
  148.4488  138.2216  155.5438 H   0  0  0  0  0  0  0  0  0  0  0  0
  147.1475  138.8606  156.5444 H   0  0  0  0  0  0  0  0  0  0  0  0
  147.3829  137.1199  156.4062 H   0  0  0  0  0  0  0  0  0  0  0  0
  147.3507  138.5141  159.1155 H   0  0  0  0  0  0  0  0  0  0  0  0
  146.7753  137.6577  160.8424 H   0  0  0  0  0  0  0  0  0  0  0  0
  148.0762  136.2664  162.7710 H   0  0  0  0  0  0  0  0  0  0  0  0
  147.4125  134.3061  160.4585 H   0  0  0  0  0  0  0  0  0  0  0  0
  148.7012  134.1331  161.7134 H   0  0  0  0  0  0  0  0  0  0  0  0
  145.9591  133.3141  162.1730 H   0  0  0  0  0  0  0  0  0  0  0  0
  147.0226  133.9259  163.5001 H   0  0  0  0  0  0  0  0  0  0  0  0
  145.6928  135.9831  163.2689 H   0  0  0  0  0  0  0  0  0  0  0  0
  145.3116  135.5983  161.5445 H   0  0  0  0  0  0  0  0  0  0  0  0
  1  2  1  0  0  0  0
  1 19  1  0  0  0  0
  1 20  1  0  0  0  0
  1 21  1  0  0  0  0
  2  7  1  0  0  0  0
  2  3  2  0  0  0  0
  3  4  1  0  0  0  0
  4  5  1  0  0  0  0
  5  6  1  0  0  0  0
  5  7  2  0  0  0  0
  6 22  1  0  0  0  0
  6 23  1  0  0  0  0
  6 24  1  0  0  0  0
  7  8  1  0  0  0  0
  8  9  1  0  0  0  0
  8 25  1  0  0  0  0
  8 26  1  0  0  0  0
  9 10  1  0  0  0  0
  9 11  1  0  0  0  0
  9 27  1  0  0  0  0
 10 28  1  0  0  0  0
 10 29  1  0  0  0  0
 10 30  1  0  0  0  0
 11 12  1  0  0  0  0
 11 31  1  0  0  0  0
 12 13  2  0  0  0  0
 12 14  1  0  0  0  0
 14 15  1  0  0  0  0
 14 32  1  0  0  0  0
 15 18  1  0  0  0  0
 15 16  1  0  0  0  0
 15 33  1  0  0  0  0
 16 17  1  0  0  0  0
 16 34  1  0  0  0  0
 16 35  1  0  0  0  0
 17 18  1  0  0  0  0
 17 36  1  0  0  0  0
 17 37  1  0  0  0  0
 18 38  1  0  0  0  0
 18 39  1  0  0  0  0
M  END
> <s_m_source_file>
AV-unprocessed.smi

> <i_m_source_file_index>
773

> <i_lp_mmshare_version>
43012

> <i_f3d_flags>
0

> <s_epik_input>
W0NIM11jMW5vYyhbQ0gzXSljMVtDSDJdW0NASF0oW0NIM10pW05IXUMoPU8pW05IXVtDSF0yW0NIMl1bQ0gyXVtDSDJdMg==

> <s_epik_cmdline>
J2VwaWtfcHl0aG9uJywgJy1waCcsICc3LjAnLCAnLXRuJywgJzgnLCAnLW1hJywgJzIwMCcsICctbWV0YWxfYmluZGluZycsICctaW1hZScsICc8aW5maWxlLm1hZT4nLCAnLW9tYWUnLCAnPG91dGZpbGUubWFlPic=

> <r_lp_tautomer_probability>
1

> <r_epik_Ionization_Penalty>
6.63278e-05

> <r_epik_Ionization_Penalty_Charging>
0

> <r_epik_Ionization_Penalty_Neutral>
6.63278e-05

> <r_epik_State_Penalty>
-0

> <r_epik_Charging_Adjusted_Penalty>
0

> <i_epik_Tot_Q>
0

> <i_epik_Tot_abs_Q>
0

> <r_epik_Metal_State_Penalty>
-0

> <b_epik_Metal_Only>
0

> <s_lp_Force_Field>
OPLS_2005

> <r_lp_Energy>
7.52074

> <b_lp_Chiralities_Consistent>
1

> <s_lp_Variant>
AV-unprocessed.smi:773-1

> <Gold.Version>
5.8.1

> <Gold.Id.Protein>
6NUR|6NUR_protein|mol2

> <Gold.PLP.Fitness>
35.9160

> <Gold.PLP.PLP>
-27.9526

> <Gold.PLP.part.hbond>
-3.0000

> <Gold.PLP.part.metal>
0.0000

> <Gold.PLP.part.buried>
-4.5089

> <Gold.PLP.part.nonpolar>
-21.2587

> <Gold.PLP.part.repulsive>
0.6920

> <Gold.PLP.ligand.clash>
0.0000

> <Gold.PLP.ligand.torsion>
0.6074

> <Gold.PLP.Chemscore.Hbond>
2.9760

> <Gold.PLP.Chemscore.CHOScore>
0.0000

> <Gold.PLP.Chemscore.Metal>
0.0000

> <Gold.Chemscore.Hbonds>
donor molecule, donor type, donor heavy atom, donor atom, acceptor molecule, acceptor atom, score
      P1  H  6896  6909       L1    13  1.00
      P1  H  7989  7998       L1     3  0.94
      P1  H  7997  8008       L1     4  1.00

> <Gold.PLP.Chemscore.Internal.Correction>
0.2501

> <Gold.Rescore>
     Score         DG    S(hbond)    S(metal)    S(lipo)     H(rot)  DE(clash)    DE(int)     intcor
     16.41     -18.45       2.85        0.00      63.66       1.56       0.03       2.01       ----

> <Gold.Chemscore.Fitness>
16.4093

> <Gold.Chemscore.DG>
-18.4488

> <Gold.Chemscore.ZeroCoef>
-5.4800

> <Gold.Chemscore.Hbond>
2.8504

> <Gold.Chemscore.Metal>
0.0000

> <Gold.Chemscore.Lipo>
63.6621

> <Gold.Chemscore.Internal_Hbond>
0.0000

> <Gold.Chemscore.DEClash>
0.0298

> <Gold.Chemscore.DEInternal>
2.0097

> <Gold.Chemscore.Rot>
1.5625

> <Gold.Chemscore.Internal.Correction>
   9.000000E+99

> <Gold.Chemscore.Hbonds>
donor molecule, donor type, donor heavy atom, donor atom, acceptor molecule, acceptor atom, score
      P1  H  6896  6909       L1    13  0.95
      P1  H  7989  7998       L1     3  0.75
      P1  H  7997  8008       L1     4  0.45

> <Gold.Chemscore.Hbond.Weighted>
-9.5204

> <Gold.Chemscore.Metal.Weighted>
-0.0000

> <Gold.Chemscore.Lipo.Weighted>
-7.4485

> <Gold.Chemscore.Internal_Hbond.Weighted>
0.0000

> <Gold.Chemscore.DEClash.Weighted>
0.0298

> <Gold.Chemscore.DEInternal.Weighted>
2.0097

> <Gold.Chemscore.Rot.Weighted>
4.0000

> <Gold.Chemscore.Internal.Correction.Weighted>
   9.000000E+99

> <Gold.Protein.RotatedTorsions>
[ 6907 6896 6895 6894 ] final   70.72 input  -60.11 | X-H torsion
[ 7974 7965 7964 7962 ] final   36.91 input  175.53 | X-H torsion
[ 8008 7997 7996 7995 ] final  -29.60 input   59.86 | X-H torsion
[ 10167 10162 10161 10158 ] final  156.34 input  -65.29 | X-H torsion
[ 10718 10713 10712 10709 ] final  -31.85 input   66.30 | X-H torsion
[ 10763 10752 10751 10750 ] final  149.71 input  -60.55 | X-H torsion
[ 11005 11000 10999 10996 ] final -170.15 input  -57.11 | X-H torsion

> <Gold.Protein.ActiveResidues>
 VAL166  LYS551  ARG553  GLY616  TRP617  ASP618  TYR619  PRO620  LYS621  CYS622 
 ASP623  PHE694  ASN695  SER759  ASP760  ASP761  ALA762  ILE779  LEU786  VAL792 
 PHE793  MET794  SER795  GLU796  ALA797  LYS798  CYS799  TRP800  GLU811  SER814 

> <Gold.Protein.RotatedAtoms>
  152.4766  134.4827  159.9670 H   0  0  0  0  0  0  0  0  0  0  0  0  # atno 6907 bound_to 6896
  151.4842  133.3533  159.2851 H   0  0  0  0  0  0  0  0  0  0  0  0  # atno 6908 bound_to 6896
  150.8810  134.8227  159.7286 H   0  0  0  0  0  0  0  0  0  0  0  0  # atno 6909 bound_to 6896
  146.1177  139.5960  142.9310 H   0  0  0  0  0  0  0  0  0  0  0  0  # atno 7974 bound_to 7965
  154.4283  140.1814  156.1273 H   0  0  0  0  0  0  0  0  0  0  0  0  # atno 8008 bound_to 7997
  156.0095  140.3352  155.6901 H   0  0  0  0  0  0  0  0  0  0  0  0  # atno 8009 bound_to 7997
  155.6130  140.0652  157.2691 H   0  0  0  0  0  0  0  0  0  0  0  0  # atno 8010 bound_to 7997
  139.4821  144.5017  151.8158 H   0  0  0  0  0  0  0  0  0  0  0  0  # atno 10167 bound_to 10162
  156.3821  130.4358  149.7460 H   0  0  0  0  0  0  0  0  0  0  0  0  # atno 10718 bound_to 10713
  154.0756  135.2863  155.3300 H   0  0  0  0  0  0  0  0  0  0  0  0  # atno 10763 bound_to 10752
  154.6718  135.5296  153.8151 H   0  0  0  0  0  0  0  0  0  0  0  0  # atno 10764 bound_to 10752
  153.0468  135.6559  154.0934 H   0  0  0  0  0  0  0  0  0  0  0  0  # atno 10765 bound_to 10752
  140.5227  134.5693  157.5052 H   0  0  0  0  0  0  0  0  0  0  0  0  # atno 11005 bound_to 11000
  145.5532  141.0411  143.2267 LP  0  0  0  0  0  0  0  0  0  0  0  0  # atno 17320 bound_to 7965
  144.7568  139.7055  143.7251 LP  0  0  0  0  0  0  0  0  0  0  0  0  # atno 17321 bound_to 7965
  140.4511  144.1854  150.5897 LP  0  0  0  0  0  0  0  0  0  0  0  0  # atno 17342 bound_to 10162
  140.4584  143.2459  151.9254 LP  0  0  0  0  0  0  0  0  0  0  0  0  # atno 17343 bound_to 10162
  156.4547  130.7923  151.2944 LP  0  0  0  0  0  0  0  0  0  0  0  0  # atno 17370 bound_to 10713
  157.7493  131.0084  150.3229 LP  0  0  0  0  0  0  0  0  0  0  0  0  # atno 17371 bound_to 10713
  139.9597  134.7474  156.0264 LP  0  0  0  0  0  0  0  0  0  0  0  0  # atno 17394 bound_to 11000
  141.1325  133.6583  156.3503 LP  0  0  0  0  0  0  0  0  0  0  0  0  # atno 17395 bound_to 11000

$$$$
