AV-unprocessed.smi:53|AV-procd|sdf|517|dock1
  -GOLD-   2262016393D 1   1.00000     0.00000
 Structure written by MMmdl.
 30 31  0  0  0  0  0  0  0  0  1 V2000
  148.1692  133.6297  158.1466 N   0  0  0  0  0  0  0  0  0  0  0  0
  148.8606  134.6809  157.6850 C   0  0  0  0  0  0  0  0  0  0  0  0
  148.2006  135.9474  157.4617 C   0  0  0  0  0  0  0  0  0  0  0  0
  148.9653  136.9595  156.9970 C   0  0  0  0  0  0  0  0  0  0  0  0
  150.3221  136.8076  156.7480 N   0  0  0  0  0  0  0  0  0  0  0  0
  151.1490  137.9613  156.2197 C   0  0  2  0  0  0  0  0  0  0  0  0
  150.4186  139.1410  156.3769 O   0  0  0  0  0  0  0  0  0  0  0  0
  150.5877  139.9554  155.2236 C   0  0  2  0  0  0  0  0  0  0  0  0
  149.4756  141.0143  155.1220 C   0  0  0  0  0  0  0  0  0  0  0  0
  149.5941  141.9501  156.1723 O   0  0  0  0  0  0  0  0  0  0  0  0
  150.7004  138.9448  154.0731 C   0  0  2  0  0  0  0  0  0  0  0  0
  149.4195  138.5224  153.6345 O   0  0  0  0  0  0  0  0  0  0  0  0
  151.4988  137.8162  154.7210 C   0  0  2  0  0  0  0  0  0  0  0  0
  151.2429  136.5449  154.1463 O   0  0  0  0  0  0  0  0  0  0  0  0
  150.9376  135.5506  156.9628 C   0  0  0  0  0  0  0  0  0  0  0  0
  152.1294  135.3602  156.7231 O   0  0  0  0  0  0  0  0  0  0  0  0
  150.1482  134.5374  157.4365 N   0  0  0  0  0  0  0  0  0  0  0  0
  152.0341  138.0356  156.8539 H   0  0  0  0  0  0  0  0  0  0  0  0
  151.5484  140.4614  155.3377 H   0  0  0  0  0  0  0  0  0  0  0  0
  151.2258  139.3696  153.2172 H   0  0  0  0  0  0  0  0  0  0  0  0
  152.5635  138.0305  154.6194 H   0  0  0  0  0  0  0  0  0  0  0  0
  148.6318  132.7455  158.2995 H   0  0  0  0  0  0  0  0  0  0  0  0
  147.1832  133.7255  158.3431 H   0  0  0  0  0  0  0  0  0  0  0  0
  147.1486  136.1112  157.6467 H   0  0  0  0  0  0  0  0  0  0  0  0
  148.4875  137.9116  156.8193 H   0  0  0  0  0  0  0  0  0  0  0  0
  149.4938  141.5301  154.1618 H   0  0  0  0  0  0  0  0  0  0  0  0
  148.5000  140.5349  155.2033 H   0  0  0  0  0  0  0  0  0  0  0  0
  149.2998  142.7920  155.8593 H   0  0  0  0  0  0  0  0  0  0  0  0
  149.5034  137.6615  153.2545 H   0  0  0  0  0  0  0  0  0  0  0  0
  151.0907  136.6611  153.2206 H   0  0  0  0  0  0  0  0  0  0  0  0
  1  2  1  0  0  0  0
  1 22  1  0  0  0  0
  1 23  1  0  0  0  0
  2 17  2  0  0  0  0
  2  3  1  0  0  0  0
  3  4  2  0  0  0  0
  3 24  1  0  0  0  0
  4  5  1  0  0  0  0
  4 25  1  0  0  0  0
  5  6  1  0  0  0  0
  5 15  1  0  0  0  0
  6 18  1  0  0  0  0
  6 13  1  0  0  0  0
  6  7  1  0  0  0  0
  7  8  1  0  0  0  0
  8 19  1  0  0  0  0
  8  9  1  0  0  0  0
  8 11  1  0  0  0  0
  9 10  1  0  0  0  0
  9 26  1  0  0  0  0
  9 27  1  0  0  0  0
 10 28  1  0  0  0  0
 11 20  1  0  0  0  0
 11 12  1  0  0  0  0
 11 13  1  0  0  0  0
 12 29  1  0  0  0  0
 13 21  1  0  0  0  0
 13 14  1  0  0  0  0
 14 30  1  0  0  0  0
 15 16  2  0  0  0  0
 15 17  1  0  0  0  0
M  END
> <s_m_source_file>
AV-unprocessed.smi

> <i_m_source_file_index>
53

> <i_lp_mmshare_version>
43012

> <i_f3d_flags>
0

> <s_epik_input>
W05IMl1jMVtjSF1bY0hdbihjKD1PKW4xKVtDQEBIXTJPW0NASF0oW0NIMl1bT0hdKVtDQEBIXShbT0hdKVtDQEBIXTJbT0hd

> <s_epik_cmdline>
J2VwaWtfcHl0aG9uJywgJy1waCcsICc3LjAnLCAnLXRuJywgJzgnLCAnLW1hJywgJzIwMCcsICctbWV0YWxfYmluZGluZycsICctaW1hZScsICc8aW5maWxlLm1hZT4nLCAnLW9tYWUnLCAnPG91dGZpbGUubWFlPic=

> <r_lp_tautomer_probability>
0.99996

> <r_epik_Ionization_Penalty>
0.00069087

> <r_epik_Ionization_Penalty_Charging>
2.61959e-08

> <r_epik_Ionization_Penalty_Neutral>
0.000690844

> <r_epik_State_Penalty>
1.15523e-05

> <r_epik_Charging_Adjusted_Penalty>
1.15785e-05

> <i_epik_Tot_Q>
0

> <i_epik_Tot_abs_Q>
0

> <r_epik_Metal_State_Penalty>
-0

> <b_epik_Metal_Only>
0

> <s_epik_Chemistry_Notes>
This compound contains an acetal/aminal-like group ( X-CH(R)-Y where X, Y are N, S, or O) that may be acid/base labile, releasing an aldehyde.

> <s_lp_Force_Field>
OPLS_2005

> <r_lp_Energy>
39.6979

> <b_lp_Chiralities_Consistent>
1

> <s_lp_Variant>
AV-unprocessed.smi:53-5

> <Gold.Version>
5.8.1

> <Gold.Id.Protein>
6NUR|6NUR_protein|mol2

> <Gold.PLP.Fitness>
34.3773

> <Gold.PLP.PLP>
-20.8288

> <Gold.PLP.part.hbond>
-7.4091

> <Gold.PLP.part.metal>
0.0000

> <Gold.PLP.part.buried>
-1.9040

> <Gold.PLP.part.nonpolar>
-11.5378

> <Gold.PLP.part.repulsive>
0.0634

> <Gold.PLP.ligand.clash>
0.0000

> <Gold.PLP.ligand.torsion>
0.3641

> <Gold.PLP.Chemscore.Hbond>
4.7520

> <Gold.PLP.Chemscore.CHOScore>
0.0000

> <Gold.PLP.Chemscore.Metal>
0.0000

> <Gold.Chemscore.Hbonds>
donor molecule, donor type, donor heavy atom, donor atom, acceptor molecule, acceptor atom, score
      L1  H    10    28       P1  8028  1.00
      L1  H    12    29       P1  7948  0.99
      L1  H    14    30       P1  7949  0.98
      P1  H  6896  6908       L1    17  0.69
      P1  H 10752 10763       L1    16  1.00

> <Gold.PLP.Chemscore.Internal.Correction>
0.0207

> <Gold.Rescore>
     Score         DG    S(hbond)    S(metal)    S(lipo)     H(rot)  DE(clash)    DE(int)     intcor
     10.64     -11.51       3.46        0.00      33.92       3.71       0.27       0.59       ----

> <Gold.Chemscore.Fitness>
10.6436

> <Gold.Chemscore.DG>
-11.5102

> <Gold.Chemscore.ZeroCoef>
-5.4800

> <Gold.Chemscore.Hbond>
3.4606

> <Gold.Chemscore.Metal>
0.0000

> <Gold.Chemscore.Lipo>
33.9155

> <Gold.Chemscore.Internal_Hbond>
0.0000

> <Gold.Chemscore.DEClash>
0.2720

> <Gold.Chemscore.DEInternal>
0.5945

> <Gold.Chemscore.Rot>
3.7095

> <Gold.Chemscore.Internal.Correction>
   9.000000E+99

> <Gold.Chemscore.Hbonds>
donor molecule, donor type, donor heavy atom, donor atom, acceptor molecule, acceptor atom, score
      L1  H    10    28       P1  8028  0.97
      L1  H    12    29       P1  7948  0.81
      L1  H    14    30       P1  7949  0.37
      P1  H  6896  6908       L1    17  0.10
      P1  H 10752 10763       L1    16  0.95

> <Gold.Chemscore.Hbond.Weighted>
-11.5584

> <Gold.Chemscore.Metal.Weighted>
-0.0000

> <Gold.Chemscore.Lipo.Weighted>
-3.9681

> <Gold.Chemscore.Internal_Hbond.Weighted>
0.0000

> <Gold.Chemscore.DEClash.Weighted>
0.2720

> <Gold.Chemscore.DEInternal.Weighted>
0.5945

> <Gold.Chemscore.Rot.Weighted>
9.4964

> <Gold.Chemscore.Internal.Correction.Weighted>
   9.000000E+99

> <Gold.Protein.RotatedTorsions>
[ 6907 6896 6895 6894 ] final  129.78 input  -60.11 | X-H torsion
[ 7974 7965 7964 7962 ] final  108.11 input  175.53 | X-H torsion
[ 8008 7997 7996 7995 ] final   -7.97 input   59.86 | X-H torsion
[ 10167 10162 10161 10158 ] final -159.82 input  -65.29 | X-H torsion
[ 10718 10713 10712 10709 ] final  -61.60 input   66.30 | X-H torsion
[ 10763 10752 10751 10750 ] final   85.89 input  -60.55 | X-H torsion
[ 11005 11000 10999 10996 ] final -146.91 input  -57.11 | X-H torsion

> <Gold.Protein.ActiveResidues>
 VAL166  LYS551  ARG553  GLY616  TRP617  ASP618  TYR619  PRO620  LYS621  CYS622 
 ASP623  PHE694  ASN695  SER759  ASP760  ASP761  ALA762  ILE779  LEU786  VAL792 
 PHE793  MET794  SER795  GLU796  ALA797  LYS798  CYS799  TRP800  GLU811  SER814 

> <Gold.Protein.RotatedAtoms>
  152.3591  133.6274  159.6001 H   0  0  0  0  0  0  0  0  0  0  0  0  # atno 6907 bound_to 6896
  150.7589  133.9452  159.3477 H   0  0  0  0  0  0  0  0  0  0  0  0  # atno 6908 bound_to 6896
  151.7293  135.0879  160.0348 H   0  0  0  0  0  0  0  0  0  0  0  0  # atno 6909 bound_to 6896
  145.2850  139.2620  143.3895 H   0  0  0  0  0  0  0  0  0  0  0  0  # atno 7974 bound_to 7965
  154.5786  140.2393  155.8086 H   0  0  0  0  0  0  0  0  0  0  0  0  # atno 8008 bound_to 7997
  156.2162  140.3011  155.9802 H   0  0  0  0  0  0  0  0  0  0  0  0  # atno 8009 bound_to 7997
  155.2581  140.0413  157.2985 H   0  0  0  0  0  0  0  0  0  0  0  0  # atno 8010 bound_to 7997
  139.6586  143.9953  152.2210 H   0  0  0  0  0  0  0  0  0  0  0  0  # atno 10167 bound_to 10162
  156.0911  130.4200  150.1016 H   0  0  0  0  0  0  0  0  0  0  0  0  # atno 10718 bound_to 10713
  153.1518  135.4600  154.9647 H   0  0  0  0  0  0  0  0  0  0  0  0  # atno 10763 bound_to 10752
  154.7831  135.3195  154.7949 H   0  0  0  0  0  0  0  0  0  0  0  0  # atno 10764 bound_to 10752
  153.8453  135.6926  153.4852 H   0  0  0  0  0  0  0  0  0  0  0  0  # atno 10765 bound_to 10752
  140.7771  134.3122  157.5057 H   0  0  0  0  0  0  0  0  0  0  0  0  # atno 11005 bound_to 11000
  146.3204  140.3326  142.8641 LP  0  0  0  0  0  0  0  0  0  0  0  0  # atno 17320 bound_to 7965
  144.9221  140.7880  143.5742 LP  0  0  0  0  0  0  0  0  0  0  0  0  # atno 17321 bound_to 7965
  139.9686  144.6509  150.8010 LP  0  0  0  0  0  0  0  0  0  0  0  0  # atno 17342 bound_to 10162
  140.7570  143.3077  151.2920 LP  0  0  0  0  0  0  0  0  0  0  0  0  # atno 17343 bound_to 10162
  156.9026  130.9625  151.3574 LP  0  0  0  0  0  0  0  0  0  0  0  0  # atno 17370 bound_to 10713
  157.6060  130.8548  149.8876 LP  0  0  0  0  0  0  0  0  0  0  0  0  # atno 17371 bound_to 10713
  139.8747  134.9296  156.3480 LP  0  0  0  0  0  0  0  0  0  0  0  0  # atno 17394 bound_to 11000
  140.9519  133.7446  156.0283 LP  0  0  0  0  0  0  0  0  0  0  0  0  # atno 17395 bound_to 11000

$$$$
