AV-unprocessed.smi:2779|AV-procd|sdf|10711|dock8
  -GOLD-   2272015143D 1   1.00000     0.00000
 Structure written by MMmdl.
 38 39  0  0  0  0  0  0  0  0  1 V2000
  152.0521  136.9289  154.9744 O   0  0  0  0  0  0  0  0  0  0  0  0
  150.8289  136.7930  154.9729 C   0  0  0  0  0  0  0  0  0  0  0  0
  150.1634  135.5234  155.2537 C   0  0  0  0  0  0  0  0  0  0  0  0
  148.8177  135.4126  155.2571 C   0  0  0  0  0  0  0  0  0  0  0  0
  148.0023  136.5820  154.9734 C   0  0  0  0  0  0  0  0  0  0  0  0
  146.4935  136.5622  154.9585 C   0  0  0  0  0  0  0  0  0  0  0  0
  145.9934  137.3986  155.8687 F   0  0  0  0  0  0  0  0  0  0  0  0
  146.0429  136.9253  153.7572 F   0  0  0  0  0  0  0  0  0  0  0  0
  146.0488  135.3334  155.2230 F   0  0  0  0  0  0  0  0  0  0  0  0
  148.5864  137.7085  154.7192 N   0  0  0  0  0  0  0  0  0  0  0  0
  149.9660  137.8192  154.7160 N   0  0  0  0  0  0  0  0  0  0  0  0
  150.4549  139.1720  154.4229 C   0  0  0  0  0  0  0  0  0  0  0  0
  149.3191  140.2172  154.4589 C   0  0  2  0  0  0  0  0  0  0  0  0
  149.4070  141.0797  153.3423 O   0  0  0  0  0  0  0  0  0  0  0  0
  149.3351  141.0861  155.7275 C   0  0  0  0  0  0  0  0  0  0  0  0
  150.6140  141.6763  155.9028 O   0  0  0  0  0  0  0  0  0  0  0  0
  151.2862  141.2001  157.0575 C   0  0  0  0  0  0  0  0  0  0  0  0
  151.7175  142.3288  157.9751 C   0  0  0  0  0  0  0  0  0  0  0  0
  151.5765  143.6733  157.5687 C   0  0  0  0  0  0  0  0  0  0  0  0
  151.9557  144.7184  158.4334 C   0  0  0  0  0  0  0  0  0  0  0  0
  152.4719  144.4247  159.7103 C   0  0  0  0  0  0  0  0  0  0  0  0
  152.6054  143.0851  160.1236 C   0  0  0  0  0  0  0  0  0  0  0  0
  152.2259  142.0395  159.2592 C   0  0  0  0  0  0  0  0  0  0  0  0
  148.3491  139.7211  154.4094 H   0  0  0  0  0  0  0  0  0  0  0  0
  150.7652  134.6517  155.4654 H   0  0  0  0  0  0  0  0  0  0  0  0
  148.3477  134.4639  155.4690 H   0  0  0  0  0  0  0  0  0  0  0  0
  151.2195  139.4366  155.1558 H   0  0  0  0  0  0  0  0  0  0  0  0
  150.9681  139.1995  153.4594 H   0  0  0  0  0  0  0  0  0  0  0  0
  149.2360  140.5760  152.5612 H   0  0  0  0  0  0  0  0  0  0  0  0
  148.5561  141.8494  155.6801 H   0  0  0  0  0  0  0  0  0  0  0  0
  149.1160  140.4589  156.5930 H   0  0  0  0  0  0  0  0  0  0  0  0
  150.6313  140.5358  157.6233 H   0  0  0  0  0  0  0  0  0  0  0  0
  152.1603  140.6198  156.7576 H   0  0  0  0  0  0  0  0  0  0  0  0
  151.1752  143.9083  156.5936 H   0  0  0  0  0  0  0  0  0  0  0  0
  151.8476  145.7458  158.1180 H   0  0  0  0  0  0  0  0  0  0  0  0
  152.7615  145.2265  160.3736 H   0  0  0  0  0  0  0  0  0  0  0  0
  152.9962  142.8595  161.1049 H   0  0  0  0  0  0  0  0  0  0  0  0
  152.3263  141.0149  159.5860 H   0  0  0  0  0  0  0  0  0  0  0  0
  1  2  2  0  0  0  0
  2 11  1  0  0  0  0
  2  3  1  0  0  0  0
  3  4  2  0  0  0  0
  3 25  1  0  0  0  0
  4  5  1  0  0  0  0
  4 26  1  0  0  0  0
  5  6  1  0  0  0  0
  5 10  2  0  0  0  0
  6  7  1  0  0  0  0
  6  8  1  0  0  0  0
  6  9  1  0  0  0  0
 10 11  1  0  0  0  0
 11 12  1  0  0  0  0
 12 13  1  0  0  0  0
 12 27  1  0  0  0  0
 12 28  1  0  0  0  0
 13 24  1  0  0  0  0
 13 14  1  0  0  0  0
 13 15  1  0  0  0  0
 14 29  1  0  0  0  0
 15 16  1  0  0  0  0
 15 30  1  0  0  0  0
 15 31  1  0  0  0  0
 16 17  1  0  0  0  0
 17 18  1  0  0  0  0
 17 32  1  0  0  0  0
 17 33  1  0  0  0  0
 18 23  1  0  0  0  0
 18 19  2  0  0  0  0
 19 20  1  0  0  0  0
 19 34  1  0  0  0  0
 20 21  2  0  0  0  0
 20 35  1  0  0  0  0
 21 22  1  0  0  0  0
 21 36  1  0  0  0  0
 22 23  2  0  0  0  0
 22 37  1  0  0  0  0
 23 38  1  0  0  0  0
M  END
> <s_m_source_file>
AV-unprocessed.smi

> <i_m_source_file_index>
2779

> <i_lp_mmshare_version>
43012

> <i_f3d_flags>
0

> <s_epik_input>
Tz1jMVtjSF1bY0hdYyhDKEYpKEYpRilubjFbQ0gyXVtDQEhdKFtPSF0pW0NIMl1PW0NIMl1jMltjSF1bY0hdW2NIXVtjSF1bY0hdMg==

> <s_epik_cmdline>
J2VwaWtfcHl0aG9uJywgJy1waCcsICc3LjAnLCAnLXRuJywgJzgnLCAnLW1hJywgJzIwMCcsICctbWV0YWxfYmluZGluZycsICctaW1hZScsICc8aW5maWxlLm1hZT4nLCAnLW9tYWUnLCAnPG91dGZpbGUubWFlPic=

> <r_lp_tautomer_probability>
1

> <r_epik_Ionization_Penalty>
6.7226e-08

> <r_epik_Ionization_Penalty_Charging>
6.11342e-09

> <r_epik_Ionization_Penalty_Neutral>
6.11126e-08

> <r_epik_State_Penalty>
-0

> <r_epik_Charging_Adjusted_Penalty>
6.11342e-09

> <i_epik_Tot_Q>
0

> <i_epik_Tot_abs_Q>
0

> <r_epik_Metal_State_Penalty>
-0

> <b_epik_Metal_Only>
0

> <s_lp_Force_Field>
OPLS_2005

> <r_lp_Energy>
33.7736

> <b_lp_Chiralities_Consistent>
1

> <s_lp_Variant>
AV-unprocessed.smi:2779-1

> <Gold.Version>
5.8.1

> <Gold.Id.Protein>
6NUR|6NUR_protein|mol2

> <Gold.PLP.Fitness>
46.5103

> <Gold.PLP.PLP>
-42.0210

> <Gold.PLP.part.hbond>
-3.5972

> <Gold.PLP.part.metal>
0.0000

> <Gold.PLP.part.buried>
-5.8040

> <Gold.PLP.part.nonpolar>
-32.1811

> <Gold.PLP.part.repulsive>
0.3237

> <Gold.PLP.ligand.clash>
0.0000

> <Gold.PLP.ligand.torsion>
1.5967

> <Gold.PLP.Chemscore.Hbond>
2.4976

> <Gold.PLP.Chemscore.CHOScore>
0.0000

> <Gold.PLP.Chemscore.Metal>
0.0000

> <Gold.Chemscore.Hbonds>
donor molecule, donor type, donor heavy atom, donor atom, acceptor molecule, acceptor atom, score
      L1  H    14    29       P1  7957  1.00
      P1  H  7989  7998       L1    14  0.05
      P1  H  8011  8017       L1    14  0.40
      P1  H 10752 10764       L1     1  0.96

> <Gold.PLP.Chemscore.Internal.Correction>
0.1898

> <Gold.Rescore>
     Score         DG    S(hbond)    S(metal)    S(lipo)     H(rot)  DE(clash)    DE(int)     intcor
     16.00     -17.50       1.97        0.00     107.84       2.80       0.00       1.50       ----

> <Gold.Chemscore.Fitness>
15.9964

> <Gold.Chemscore.DG>
-17.5009

> <Gold.Chemscore.ZeroCoef>
-5.4800

> <Gold.Chemscore.Hbond>
1.9691

> <Gold.Chemscore.Metal>
0.0000

> <Gold.Chemscore.Lipo>
107.8434

> <Gold.Chemscore.Internal_Hbond>
0.0000

> <Gold.Chemscore.DEClash>
0.0019

> <Gold.Chemscore.DEInternal>
1.5026

> <Gold.Chemscore.Rot>
2.8022

> <Gold.Chemscore.Internal.Correction>
   9.000000E+99

> <Gold.Chemscore.Hbonds>
donor molecule, donor type, donor heavy atom, donor atom, acceptor molecule, acceptor atom, score
      L1  H    14    29       P1  7957  0.92
      P1  H  8011  8017       L1    14  0.01
      P1  H 10752 10764       L1     1  0.87

> <Gold.Chemscore.Hbond.Weighted>
-6.5768

> <Gold.Chemscore.Metal.Weighted>
-0.0000

> <Gold.Chemscore.Lipo.Weighted>
-12.6177

> <Gold.Chemscore.Internal_Hbond.Weighted>
0.0000

> <Gold.Chemscore.DEClash.Weighted>
0.0019

> <Gold.Chemscore.DEInternal.Weighted>
1.5026

> <Gold.Chemscore.Rot.Weighted>
7.1736

> <Gold.Chemscore.Internal.Correction.Weighted>
   9.000000E+99

> <Gold.Protein.RotatedTorsions>
[ 6907 6896 6895 6894 ] final -108.14 input  -60.11 | X-H torsion
[ 7974 7965 7964 7962 ] final  128.23 input  175.53 | X-H torsion
[ 8008 7997 7996 7995 ] final  145.19 input   59.86 | X-H torsion
[ 10167 10162 10161 10158 ] final   89.03 input  -65.29 | X-H torsion
[ 10718 10713 10712 10709 ] final  106.88 input   66.30 | X-H torsion
[ 10763 10752 10751 10750 ] final  -55.98 input  -60.55 | X-H torsion
[ 11005 11000 10999 10996 ] final  160.99 input  -57.11 | X-H torsion

> <Gold.Protein.ActiveResidues>
 VAL166  LYS551  ARG553  GLY616  TRP617  ASP618  TYR619  PRO620  LYS621  CYS622 
 ASP623  PHE694  ASN695  SER759  ASP760  ASP761  ALA762  ILE779  LEU786  VAL792 
 PHE793  MET794  SER795  GLU796  ALA797  LYS798  CYS799  TRP800  GLU811  SER814 

> <Gold.Protein.RotatedAtoms>
  150.7484  133.9722  159.3549 H   0  0  0  0  0  0  0  0  0  0  0  0  # atno 6907 bound_to 6896
  151.7656  135.0797  160.0361 H   0  0  0  0  0  0  0  0  0  0  0  0  # atno 6908 bound_to 6896
  152.3374  133.5990  159.5888 H   0  0  0  0  0  0  0  0  0  0  0  0  # atno 6909 bound_to 6896
  145.0418  139.3957  143.5098 H   0  0  0  0  0  0  0  0  0  0  0  0  # atno 7974 bound_to 7965
  156.2889  140.2215  156.5175 H   0  0  0  0  0  0  0  0  0  0  0  0  # atno 8008 bound_to 7997
  154.7556  140.0477  157.0952 H   0  0  0  0  0  0  0  0  0  0  0  0  # atno 8009 bound_to 7997
  155.0055  140.3106  155.4853 H   0  0  0  0  0  0  0  0  0  0  0  0  # atno 8010 bound_to 7997
  139.8614  144.6542  150.9054 H   0  0  0  0  0  0  0  0  0  0  0  0  # atno 10167 bound_to 10162
  157.6651  131.0860  150.6073 H   0  0  0  0  0  0  0  0  0  0  0  0  # atno 10718 bound_to 10713
  154.1994  135.6413  153.5082 H   0  0  0  0  0  0  0  0  0  0  0  0  # atno 10763 bound_to 10752
  153.0016  135.5447  154.6332 H   0  0  0  0  0  0  0  0  0  0  0  0  # atno 10764 bound_to 10752
  154.5741  135.2919  155.0771 H   0  0  0  0  0  0  0  0  0  0  0  0  # atno 10765 bound_to 10752
  140.2113  134.8265  157.3124 H   0  0  0  0  0  0  0  0  0  0  0  0  # atno 11005 bound_to 11000
  146.3510  140.0023  142.8675 LP  0  0  0  0  0  0  0  0  0  0  0  0  # atno 17320 bound_to 7965
  145.1638  140.9686  143.4361 LP  0  0  0  0  0  0  0  0  0  0  0  0  # atno 17321 bound_to 7965
  140.7774  143.3741  151.1595 LP  0  0  0  0  0  0  0  0  0  0  0  0  # atno 17342 bound_to 10162
  139.7370  143.8983  152.3038 LP  0  0  0  0  0  0  0  0  0  0  0  0  # atno 17343 bound_to 10162
  156.6374  130.4449  149.5764 LP  0  0  0  0  0  0  0  0  0  0  0  0  # atno 17370 bound_to 10713
  156.2235  130.6751  151.1392 LP  0  0  0  0  0  0  0  0  0  0  0  0  # atno 17371 bound_to 10713
  140.1947  134.4328  155.7696 LP  0  0  0  0  0  0  0  0  0  0  0  0  # atno 17394 bound_to 11000
  141.2226  133.7044  156.8086 LP  0  0  0  0  0  0  0  0  0  0  0  0  # atno 17395 bound_to 11000

$$$$
