AV-unprocessed.smi:2329|AV-procd|sdf|9306|dock10
  -GOLD-   2272012523D 1   1.00000     0.00000
 Structure written by MMmdl.
 45 48  0  0  0  0  0  0  0  0  1 V2000
  149.5022  130.6193  154.0765 C   0  0  0  0  0  0  0  0  0  0  0  0
  149.9735  131.8797  154.7711 C   0  0  0  0  0  0  0  0  0  0  0  0
  150.8405  131.8135  155.8794 C   0  0  0  0  0  0  0  0  0  0  0  0
  151.2440  133.0204  156.4781 C   0  0  0  0  0  0  0  0  0  0  0  0
  150.7686  134.2347  155.9469 C   0  0  0  0  0  0  0  0  0  0  0  0
  149.9025  134.2131  154.8309 C   0  0  0  0  0  0  0  0  0  0  0  0
  149.4867  135.4893  154.3705 N   0  0  0  0  0  0  0  0  0  0  0  0
  149.2996  136.6186  155.0818 C   0  0  0  0  0  0  0  0  0  0  0  0
  149.5249  136.7372  156.2848 O   0  0  0  0  0  0  0  0  0  0  0  0
  148.8250  137.6468  154.3563 N   0  0  0  0  0  0  0  0  0  0  0  0
  148.5157  138.9996  154.8240 C   0  0  2  0  0  0  0  0  0  0  0  0
  148.4392  140.0065  153.6646 C   0  0  1  0  0  0  0  0  0  0  0  0
  147.1275  140.6626  153.3288 C   0  0  0  0  0  0  0  0  0  0  0  0
  147.2055  141.9895  154.0888 C   0  0  0  0  0  0  0  0  0  0  0  0
  148.1706  141.7618  155.1135 O   0  0  0  0  0  0  0  0  0  0  0  0
  149.2135  140.9670  154.5536 C   0  0  1  0  0  0  0  0  0  0  0  0
  149.7182  139.7835  155.4063 C   0  0  0  0  0  0  0  0  0  0  0  0
  149.7989  140.0033  156.9152 C   0  0  0  0  0  0  0  0  0  0  0  0
  151.2044  140.5303  157.2192 C   0  0  0  0  0  0  0  0  0  0  0  0
  152.0719  140.1140  156.0271 C   0  0  0  0  0  0  0  0  0  0  0  0
  151.1459  139.3190  155.1040 C   0  0  0  0  0  0  0  0  0  0  0  0
  149.5185  133.0442  154.2602 N   0  0  0  0  0  0  0  0  0  0  0  0
  149.6609  129.7424  154.7047 H   0  0  0  0  0  0  0  0  0  0  0  0
  150.0489  130.4766  153.1442 H   0  0  0  0  0  0  0  0  0  0  0  0
  148.4383  130.6815  153.8454 H   0  0  0  0  0  0  0  0  0  0  0  0
  151.1887  130.8652  156.2619 H   0  0  0  0  0  0  0  0  0  0  0  0
  151.9077  133.0157  157.3301 H   0  0  0  0  0  0  0  0  0  0  0  0
  151.0698  135.1710  156.3939 H   0  0  0  0  0  0  0  0  0  0  0  0
  149.2724  135.5465  153.3859 H   0  0  0  0  0  0  0  0  0  0  0  0
  148.6517  137.4679  153.3777 H   0  0  0  0  0  0  0  0  0  0  0  0
  147.6339  139.0604  155.4659 H   0  0  0  0  0  0  0  0  0  0  0  0
  149.0312  139.7000  152.8001 H   0  0  0  0  0  0  0  0  0  0  0  0
  146.9989  140.8204  152.2577 H   0  0  0  0  0  0  0  0  0  0  0  0
  146.2894  140.0610  153.6820 H   0  0  0  0  0  0  0  0  0  0  0  0
  147.5635  142.7854  153.4342 H   0  0  0  0  0  0  0  0  0  0  0  0
  146.2445  142.2947  154.5034 H   0  0  0  0  0  0  0  0  0  0  0  0
  149.9747  141.5472  154.0301 H   0  0  0  0  0  0  0  0  0  0  0  0
  149.0312  140.6826  157.2858 H   0  0  0  0  0  0  0  0  0  0  0  0
  149.6529  139.0577  157.4371 H   0  0  0  0  0  0  0  0  0  0  0  0
  151.1912  141.6171  157.3065 H   0  0  0  0  0  0  0  0  0  0  0  0
  151.5827  140.1294  158.1598 H   0  0  0  0  0  0  0  0  0  0  0  0
  152.4427  141.0014  155.5130 H   0  0  0  0  0  0  0  0  0  0  0  0
  152.9371  139.5251  156.3330 H   0  0  0  0  0  0  0  0  0  0  0  0
  151.2606  138.2586  155.3305 H   0  0  0  0  0  0  0  0  0  0  0  0
  151.4174  139.4495  154.0557 H   0  0  0  0  0  0  0  0  0  0  0  0
  1  2  1  0  0  0  0
  1 23  1  0  0  0  0
  1 24  1  0  0  0  0
  1 25  1  0  0  0  0
  2 22  1  0  0  0  0
  2  3  2  0  0  0  0
  3  4  1  0  0  0  0
  3 26  1  0  0  0  0
  4  5  2  0  0  0  0
  4 27  1  0  0  0  0
  5  6  1  0  0  0  0
  5 28  1  0  0  0  0
  6  7  1  0  0  0  0
  6 22  2  0  0  0  0
  7  8  1  0  0  0  0
  7 29  1  0  0  0  0
  8  9  2  0  0  0  0
  8 10  1  0  0  0  0
 10 11  1  0  0  0  0
 10 30  1  0  0  0  0
 11 17  1  0  0  0  0
 11 12  1  0  0  0  0
 11 31  1  0  0  0  0
 12 16  1  0  0  0  0
 12 13  1  0  0  0  0
 12 32  1  0  0  0  0
 13 14  1  0  0  0  0
 13 33  1  0  0  0  0
 13 34  1  0  0  0  0
 14 15  1  0  0  0  0
 14 35  1  0  0  0  0
 14 36  1  0  0  0  0
 15 16  1  0  0  0  0
 16 17  1  0  0  0  0
 16 37  1  0  0  0  0
 17 21  1  0  0  0  0
 17 18  1  0  0  0  0
 18 19  1  0  0  0  0
 18 38  1  0  0  0  0
 18 39  1  0  0  0  0
 19 20  1  0  0  0  0
 19 40  1  0  0  0  0
 19 41  1  0  0  0  0
 20 21  1  0  0  0  0
 20 42  1  0  0  0  0
 20 43  1  0  0  0  0
 21 44  1  0  0  0  0
 21 45  1  0  0  0  0
M  END
> <s_m_source_file>
AV-unprocessed.smi

> <i_m_source_file_index>
2329

> <i_lp_mmshare_version>
43012

> <i_f3d_flags>
0

> <s_epik_input>
W0NIM11jMVtjSF1bY0hdW2NIXWMobjEpW05IXUMoPU8pW05IXVtDQEBIXTJbQ0BASF0oW0NIMl1bQ0gyXU8zKVtDQEhdM0MyNFtDSDJdW0NIMl1bQ0gyXVtDSDJdNA==

> <s_epik_cmdline>
J2VwaWtfcHl0aG9uJywgJy1waCcsICc3LjAnLCAnLXRuJywgJzgnLCAnLW1hJywgJzIwMCcsICctbWV0YWxfYmluZGluZycsICctaW1hZScsICc8aW5maWxlLm1hZT4nLCAnLW9tYWUnLCAnPG91dGZpbGUubWFlPic=

> <r_lp_tautomer_probability>
1

> <r_epik_Ionization_Penalty>
8.97002e-05

> <r_epik_Ionization_Penalty_Charging>
0

> <r_epik_Ionization_Penalty_Neutral>
8.97002e-05

> <r_epik_State_Penalty>
-0

> <r_epik_Charging_Adjusted_Penalty>
0

> <i_epik_Tot_Q>
0

> <i_epik_Tot_abs_Q>
0

> <r_epik_Metal_State_Penalty>
-0

> <b_epik_Metal_Only>
0

> <s_lp_Force_Field>
OPLS_2005

> <r_lp_Energy>
64.3151

> <b_lp_Chiralities_Consistent>
1

> <s_lp_Variant>
AV-unprocessed.smi:2329-5

> <Gold.Version>
5.8.1

> <Gold.Id.Protein>
6NUR|6NUR_protein|mol2

> <Gold.PLP.Fitness>
40.2554

> <Gold.PLP.PLP>
-34.9885

> <Gold.PLP.part.hbond>
-2.0000

> <Gold.PLP.part.metal>
0.0000

> <Gold.PLP.part.buried>
-2.0306

> <Gold.PLP.part.nonpolar>
-32.2885

> <Gold.PLP.part.repulsive>
0.6450

> <Gold.PLP.ligand.clash>
0.0000

> <Gold.PLP.ligand.torsion>
0.3263

> <Gold.PLP.Chemscore.Hbond>
1.9120

> <Gold.PLP.Chemscore.CHOScore>
0.0000

> <Gold.PLP.Chemscore.Metal>
0.0000

> <Gold.Chemscore.Hbonds>
donor molecule, donor type, donor heavy atom, donor atom, acceptor molecule, acceptor atom, score
      L1  H     7    29       P1  7948  1.00
      L1  H    10    30       P1  7948  0.91

> <Gold.PLP.Chemscore.Internal.Correction>
0.1834

> <Gold.Rescore>
     Score         DG    S(hbond)    S(metal)    S(lipo)     H(rot)  DE(clash)    DE(int)     intcor
     15.14     -18.52       1.57        0.00      88.59       1.00       1.70       1.68       ----

> <Gold.Chemscore.Fitness>
15.1389

> <Gold.Chemscore.DG>
-18.5176

> <Gold.Chemscore.ZeroCoef>
-5.4800

> <Gold.Chemscore.Hbond>
1.5665

> <Gold.Chemscore.Metal>
0.0000

> <Gold.Chemscore.Lipo>
88.5937

> <Gold.Chemscore.Internal_Hbond>
0.0000

> <Gold.Chemscore.DEClash>
1.6991

> <Gold.Chemscore.DEInternal>
1.6796

> <Gold.Chemscore.Rot>
1.0000

> <Gold.Chemscore.Internal.Correction>
   9.000000E+99

> <Gold.Chemscore.Hbonds>
donor molecule, donor type, donor heavy atom, donor atom, acceptor molecule, acceptor atom, score
      L1  H     7    29       P1  7948  0.35
      L1  H    10    30       P1  7948  0.88

> <Gold.Chemscore.Hbond.Weighted>
-5.2322

> <Gold.Chemscore.Metal.Weighted>
-0.0000

> <Gold.Chemscore.Lipo.Weighted>
-10.3655

> <Gold.Chemscore.Internal_Hbond.Weighted>
0.0000

> <Gold.Chemscore.DEClash.Weighted>
1.6991

> <Gold.Chemscore.DEInternal.Weighted>
1.6796

> <Gold.Chemscore.Rot.Weighted>
2.5600

> <Gold.Chemscore.Internal.Correction.Weighted>
   9.000000E+99

> <Gold.Protein.RotatedTorsions>
[ 6907 6896 6895 6894 ] final  177.48 input  -60.11 | X-H torsion
[ 7974 7965 7964 7962 ] final  173.85 input  175.53 | X-H torsion
[ 8008 7997 7996 7995 ] final -112.17 input   59.86 | X-H torsion
[ 10167 10162 10161 10158 ] final   45.71 input  -65.29 | X-H torsion
[ 10718 10713 10712 10709 ] final   12.99 input   66.30 | X-H torsion
[ 10763 10752 10751 10750 ] final  175.08 input  -60.55 | X-H torsion
[ 11005 11000 10999 10996 ] final -174.26 input  -57.11 | X-H torsion

> <Gold.Protein.ActiveResidues>
 VAL166  LYS551  ARG553  GLY616  TRP617  ASP618  TYR619  PRO620  LYS621  CYS622 
 ASP623  PHE694  ASN695  SER759  ASP760  ASP761  ALA762  ILE779  LEU786  VAL792 
 PHE793  MET794  SER795  GLU796  ALA797  LYS798  CYS799  TRP800  GLU811  SER814 

> <Gold.Protein.RotatedAtoms>
  151.7033  133.3311  159.3271 H   0  0  0  0  0  0  0  0  0  0  0  0  # atno 6907 bound_to 6896
  150.7726  134.6597  159.6342 H   0  0  0  0  0  0  0  0  0  0  0  0  # atno 6908 bound_to 6896
  152.3756  134.6671  160.0213 H   0  0  0  0  0  0  0  0  0  0  0  0  # atno 6909 bound_to 6896
  144.7234  139.9710  143.6437 H   0  0  0  0  0  0  0  0  0  0  0  0  # atno 7974 bound_to 7965
  155.0011  140.0394  157.2360 H   0  0  0  0  0  0  0  0  0  0  0  0  # atno 8008 bound_to 7997
  154.7543  140.2772  155.6243 H   0  0  0  0  0  0  0  0  0  0  0  0  # atno 8009 bound_to 7997
  156.2891  140.2641  156.2305 H   0  0  0  0  0  0  0  0  0  0  0  0  # atno 8010 bound_to 7997
  140.3214  144.2700  150.6182 H   0  0  0  0  0  0  0  0  0  0  0  0  # atno 10167 bound_to 10162
  157.0181  130.6144  149.5717 H   0  0  0  0  0  0  0  0  0  0  0  0  # atno 10718 bound_to 10713
  154.4627  135.2768  155.1700 H   0  0  0  0  0  0  0  0  0  0  0  0  # atno 10763 bound_to 10752
  154.3482  135.6155  153.5633 H   0  0  0  0  0  0  0  0  0  0  0  0  # atno 10764 bound_to 10752
  152.9856  135.5805  154.4993 H   0  0  0  0  0  0  0  0  0  0  0  0  # atno 10765 bound_to 10752
  140.4765  134.6116  157.4903 H   0  0  0  0  0  0  0  0  0  0  0  0  # atno 11005 bound_to 11000
  146.0563  139.3559  143.0609 LP  0  0  0  0  0  0  0  0  0  0  0  0  # atno 17320 bound_to 7965
  145.8150  140.9707  143.0928 LP  0  0  0  0  0  0  0  0  0  0  0  0  # atno 17321 bound_to 7965
  140.5480  143.2211  151.7975 LP  0  0  0  0  0  0  0  0  0  0  0  0  # atno 17342 bound_to 10162
  139.4873  144.4514  151.9650 LP  0  0  0  0  0  0  0  0  0  0  0  0  # atno 17343 bound_to 10162
  156.0112  130.5203  150.7993 LP  0  0  0  0  0  0  0  0  0  0  0  0  # atno 17370 bound_to 10713
  157.5270  131.0934  151.0005 LP  0  0  0  0  0  0  0  0  0  0  0  0  # atno 17371 bound_to 10713
  139.9853  134.7072  155.9786 LP  0  0  0  0  0  0  0  0  0  0  0  0  # atno 17394 bound_to 11000
  141.1552  133.6543  156.4138 LP  0  0  0  0  0  0  0  0  0  0  0  0  # atno 17395 bound_to 11000

$$$$
