AV-unprocessed.smi:2689|AV-procd|sdf|10387|dock2
  -GOLD-   2272014423D 1   1.00000     0.00000
 Structure written by MMmdl.
 32 32  0  0  0  0  0  0  0  0  2 V2000
  154.8773  139.7864  161.4381 C   0  0  0  0  0  0  0  0  0  0  0  0
  154.0602  140.4680  160.3345 C   0  0  0  0  0  0  0  0  0  0  0  0
  153.3184  141.6729  160.8461 C   0  0  0  0  0  0  0  0  0  0  0  0
  153.3433  141.9471  162.1400 N   0  0  0  0  0  0  0  0  0  0  0  0
  152.5973  143.1182  162.2984 O   0  0  0  0  0  0  0  0  0  0  0  0
  152.1466  143.5096  161.0793 C   0  0  0  0  0  0  0  0  0  0  0  0
  151.3342  144.7625  161.0411 C   0  0  0  0  0  0  0  0  0  0  0  0
  150.7949  145.0884  159.6448 C   0  0  0  0  0  0  0  0  0  0  0  0
  152.5600  142.6321  160.1136 C   0  0  0  0  0  0  0  0  0  0  0  0
  152.2967  142.6732  158.6293 C   0  0  0  0  0  0  0  0  0  0  0  0
  151.6746  141.3503  158.1847 C   0  0  0  0  0  0  0  0  0  0  0  0
  151.5342  140.4332  158.9933 O   0  0  0  0  0  0  0  0  0  0  0  0
  151.3208  141.2707  156.8936 N   0  0  0  0  0  0  0  0  0  0  0  0
  150.8124  140.0877  156.2116 C   0  0  0  0  0  0  0  0  0  0  0  0
  151.9838  139.2378  155.7229 C   0  0  0  0  0  0  0  0  0  0  0  0
  152.7507  139.7493  154.8783 O   0  0  0  0  0  0  0  0  0  0  0  0
  152.0876  138.0854  156.1985 O   0  5  0  0  0  0  0  0  0  0  0  0
  155.4135  138.9217  161.0469 H   0  0  0  0  0  0  0  0  0  0  0  0
  154.2353  139.4413  162.2490 H   0  0  0  0  0  0  0  0  0  0  0  0
  155.6128  140.4703  161.8623 H   0  0  0  0  0  0  0  0  0  0  0  0
  154.7252  140.7527  159.5195 H   0  0  0  0  0  0  0  0  0  0  0  0
  153.3579  139.7503  159.9094 H   0  0  0  0  0  0  0  0  0  0  0  0
  150.5018  144.6706  161.7395 H   0  0  0  0  0  0  0  0  0  0  0  0
  151.9331  145.6002  161.3982 H   0  0  0  0  0  0  0  0  0  0  0  0
  150.2124  146.0098  159.6593 H   0  0  0  0  0  0  0  0  0  0  0  0
  150.1486  144.2914  159.2760 H   0  0  0  0  0  0  0  0  0  0  0  0
  151.6086  145.2189  158.9308 H   0  0  0  0  0  0  0  0  0  0  0  0
  151.6265  143.4904  158.3622 H   0  0  0  0  0  0  0  0  0  0  0  0
  153.2148  142.8455  158.0661 H   0  0  0  0  0  0  0  0  0  0  0  0
  151.4849  142.0788  156.3112 H   0  0  0  0  0  0  0  0  0  0  0  0
  150.1616  139.4900  156.8521 H   0  0  0  0  0  0  0  0  0  0  0  0
  150.2151  140.4014  155.3553 H   0  0  0  0  0  0  0  0  0  0  0  0
  1  2  1  0  0  0  0
  1 18  1  0  0  0  0
  1 19  1  0  0  0  0
  1 20  1  0  0  0  0
  2  3  1  0  0  0  0
  2 21  1  0  0  0  0
  2 22  1  0  0  0  0
  3  9  1  0  0  0  0
  3  4  2  0  0  0  0
  4  5  1  0  0  0  0
  5  6  1  0  0  0  0
  6  7  1  0  0  0  0
  6  9  2  0  0  0  0
  7  8  1  0  0  0  0
  7 23  1  0  0  0  0
  7 24  1  0  0  0  0
  8 25  1  0  0  0  0
  8 26  1  0  0  0  0
  8 27  1  0  0  0  0
  9 10  1  0  0  0  0
 10 11  1  0  0  0  0
 10 28  1  0  0  0  0
 10 29  1  0  0  0  0
 11 12  2  0  0  0  0
 11 13  1  0  0  0  0
 13 14  1  0  0  0  0
 13 30  1  0  0  0  0
 14 15  1  0  0  0  0
 14 31  1  0  0  0  0
 14 32  1  0  0  0  0
 15 16  2  0  0  0  0
 15 17  1  0  0  0  0
M  CHG  1  17  -1
M  END
> <s_m_source_file>
AV-unprocessed.smi

> <i_m_source_file_index>
2689

> <i_lp_mmshare_version>
43012

> <i_f3d_flags>
0

> <s_epik_input>
W0NIM11bQ0gyXWMxbm9jKFtDSDJdW0NIM10pYzFbQ0gyXUMoPU8pW05IXVtDSDJdQyg9TylbT0hd

> <s_epik_cmdline>
J2VwaWtfcHl0aG9uJywgJy1waCcsICc3LjAnLCAnLXRuJywgJzgnLCAnLW1hJywgJzIwMCcsICctbWV0YWxfYmluZGluZycsICctaW1hZScsICc8aW5maWxlLm1hZT4nLCAnLW9tYWUnLCAnPG91dGZpbGUubWFlPic=

> <r_lp_tautomer_probability>
1

> <r_epik_Ionization_Penalty>
0.000217839

> <r_epik_Ionization_Penalty_Charging>
0.000217819

> <r_epik_Ionization_Penalty_Neutral>
1.99806e-08

> <r_epik_State_Penalty>
-0

> <r_epik_Charging_Adjusted_Penalty>
0.000217819

> <i_epik_Tot_Q>
-1

> <i_epik_Tot_abs_Q>
1

> <r_epik_Metal_State_Penalty>
-0

> <b_epik_Metal_Only>
0

> <s_lp_Force_Field>
OPLS_2005

> <r_lp_Energy>
-12.6879

> <b_lp_Chiralities_Consistent>
1

> <s_lp_Variant>
AV-unprocessed.smi:2689-1

> <Gold.Version>
5.8.1

> <Gold.Id.Protein>
6NUR|6NUR_protein|mol2

> <Gold.PLP.Fitness>
43.0653

> <Gold.PLP.PLP>
-36.0839

> <Gold.PLP.part.hbond>
-2.0000

> <Gold.PLP.part.metal>
0.0000

> <Gold.PLP.part.buried>
-3.6361

> <Gold.PLP.part.nonpolar>
-30.5258

> <Gold.PLP.part.repulsive>
0.3072

> <Gold.PLP.ligand.clash>
0.0000

> <Gold.PLP.ligand.torsion>
0.2738

> <Gold.PLP.Chemscore.Hbond>
2.4640

> <Gold.PLP.Chemscore.CHOScore>
0.0000

> <Gold.PLP.Chemscore.Metal>
0.0000

> <Gold.Chemscore.Hbonds>
donor molecule, donor type, donor heavy atom, donor atom, acceptor molecule, acceptor atom, score
      P1  H  7989  7998       L1    16  0.45
      P1  H  7997  8010       L1    16  2.00

> <Gold.PLP.Chemscore.Internal.Correction>
0.1370

> <Gold.Rescore>
     Score         DG    S(hbond)    S(metal)    S(lipo)     H(rot)  DE(clash)    DE(int)     intcor
     10.95     -12.59       0.99        0.00      91.66       2.71       0.06       1.58       ----

> <Gold.Chemscore.Fitness>
10.9480

> <Gold.Chemscore.DG>
-12.5945

> <Gold.Chemscore.ZeroCoef>
-5.4800

> <Gold.Chemscore.Hbond>
0.9925

> <Gold.Chemscore.Metal>
0.0000

> <Gold.Chemscore.Lipo>
91.6632

> <Gold.Chemscore.Internal_Hbond>
0.0000

> <Gold.Chemscore.DEClash>
0.0635

> <Gold.Chemscore.DEInternal>
1.5831

> <Gold.Chemscore.Rot>
2.7051

> <Gold.Chemscore.Internal.Correction>
   9.000000E+99

> <Gold.Chemscore.Hbonds>
donor molecule, donor type, donor heavy atom, donor atom, acceptor molecule, acceptor atom, score
      P1  H  7989  7998       L1    16  0.34
      P1  H  7997  8010       L1    16  0.47

> <Gold.Chemscore.Hbond.Weighted>
-3.3150

> <Gold.Chemscore.Metal.Weighted>
-0.0000

> <Gold.Chemscore.Lipo.Weighted>
-10.7246

> <Gold.Chemscore.Internal_Hbond.Weighted>
0.0000

> <Gold.Chemscore.DEClash.Weighted>
0.0635

> <Gold.Chemscore.DEInternal.Weighted>
1.5831

> <Gold.Chemscore.Rot.Weighted>
6.9251

> <Gold.Chemscore.Internal.Correction.Weighted>
   9.000000E+99

> <Gold.Protein.RotatedTorsions>
[ 6907 6896 6895 6894 ] final  160.91 input  -60.11 | X-H torsion
[ 7974 7965 7964 7962 ] final   33.79 input  175.53 | X-H torsion
[ 8008 7997 7996 7995 ] final  101.79 input   59.86 | X-H torsion
[ 10167 10162 10161 10158 ] final -114.99 input  -65.29 | X-H torsion
[ 10718 10713 10712 10709 ] final  160.11 input   66.30 | X-H torsion
[ 10763 10752 10751 10750 ] final -136.92 input  -60.55 | X-H torsion
[ 11005 11000 10999 10996 ] final -131.56 input  -57.11 | X-H torsion

> <Gold.Protein.ActiveResidues>
 VAL166  LYS551  ARG553  GLY616  TRP617  ASP618  TYR619  PRO620  LYS621  CYS622 
 ASP623  PHE694  ASN695  SER759  ASP760  ASP761  ALA762  ILE779  LEU786  VAL792 
 PHE793  MET794  SER795  GLU796  ALA797  LYS798  CYS799  TRP800  GLU811  SER814 

> <Gold.Protein.RotatedAtoms>
  151.9635  133.3703  159.4043 H   0  0  0  0  0  0  0  0  0  0  0  0  # atno 6907 bound_to 6896
  150.6960  134.4215  159.5216 H   0  0  0  0  0  0  0  0  0  0  0  0  # atno 6908 bound_to 6896
  152.1908  134.8674  160.0568 H   0  0  0  0  0  0  0  0  0  0  0  0  # atno 6909 bound_to 6896
  146.1397  139.6352  142.9171 H   0  0  0  0  0  0  0  0  0  0  0  0  # atno 7974 bound_to 7965
  156.1332  140.3192  155.8381 H   0  0  0  0  0  0  0  0  0  0  0  0  # atno 8008 bound_to 7997
  155.4292  140.0517  157.3037 H   0  0  0  0  0  0  0  0  0  0  0  0  # atno 8009 bound_to 7997
  154.4916  140.2094  155.9549 H   0  0  0  0  0  0  0  0  0  0  0  0  # atno 8010 bound_to 7997
  140.0950  143.4665  152.1847 H   0  0  0  0  0  0  0  0  0  0  0  0  # atno 10167 bound_to 10162
  157.1549  131.0573  151.2261 H   0  0  0  0  0  0  0  0  0  0  0  0  # atno 10718 bound_to 10713
  154.8673  135.3658  154.5139 H   0  0  0  0  0  0  0  0  0  0  0  0  # atno 10763 bound_to 10752
  153.5773  135.7019  153.5483 H   0  0  0  0  0  0  0  0  0  0  0  0  # atno 10764 bound_to 10752
  153.3489  135.4077  155.1593 H   0  0  0  0  0  0  0  0  0  0  0  0  # atno 10765 bound_to 10752
  140.9248  134.1397  157.4284 H   0  0  0  0  0  0  0  0  0  0  0  0  # atno 11005 bound_to 11000
  145.5075  141.0436  143.2506 LP  0  0  0  0  0  0  0  0  0  0  0  0  # atno 17320 bound_to 7965
  144.7779  139.6591  143.7167 LP  0  0  0  0  0  0  0  0  0  0  0  0  # atno 17321 bound_to 7965
  139.5703  144.7459  151.3909 LP  0  0  0  0  0  0  0  0  0  0  0  0  # atno 17342 bound_to 10162
  140.7008  143.7636  150.7400 LP  0  0  0  0  0  0  0  0  0  0  0  0  # atno 17343 bound_to 10162
  157.4186  130.7425  149.6895 LP  0  0  0  0  0  0  0  0  0  0  0  0  # atno 17370 bound_to 10713
  155.9764  130.4076  150.3783 LP  0  0  0  0  0  0  0  0  0  0  0  0  # atno 17371 bound_to 10713
  139.8783  134.9984  156.5899 LP  0  0  0  0  0  0  0  0  0  0  0  0  # atno 17394 bound_to 11000
  140.7940  133.8559  155.8670 LP  0  0  0  0  0  0  0  0  0  0  0  0  # atno 17395 bound_to 11000

$$$$
