AV-unprocessed.smi:3116|AV-procd|sdf|11871|dock4
  -GOLD-   2272017253D 1   1.00000     0.00000
 Structure written by MMmdl.
 33 33  0  0  0  0  0  0  0  0  1 V2000
  151.5764  137.3885  155.5519 C   0  0  0  0  0  0  0  0  0  0  0  0
  150.2107  138.1088  155.5434 C   0  0  1  0  0  0  0  0  0  0  0  0
  149.9505  138.7749  156.8301 N   0  0  0  0  0  0  0  0  0  0  0  0
  150.9611  139.7594  157.2128 C   0  0  2  0  0  0  0  0  0  0  0  0
  151.8806  139.1196  158.2744 C   0  0  0  0  0  0  0  0  0  0  0  0
  150.2311  141.0338  157.7166 C   0  0  2  0  0  0  0  0  0  0  0  0
  149.2524  141.6019  156.6697 C   0  0  0  0  0  0  0  0  0  0  0  0
  151.1628  142.0709  158.1436 N   0  0  0  0  0  0  0  0  0  0  0  0
  151.2903  143.3554  157.6562 C   0  0  0  0  0  0  0  0  0  0  0  0
  152.2914  143.9624  158.3589 C   0  0  0  0  0  0  0  0  0  0  0  0
  152.7239  142.9570  159.2675 C   0  0  0  0  0  0  0  0  0  0  0  0
  152.0483  141.8273  159.1368 N   0  0  0  0  0  0  0  0  0  0  0  0
  150.1244  139.1387  154.4078 C   0  0  0  0  0  0  0  0  0  0  0  0
  149.5028  138.7485  153.2918 N   0  0  0  0  0  0  0  0  0  0  0  0
  150.5928  140.2697  154.5278 O   0  0  0  0  0  0  0  0  0  0  0  0
  151.8100  136.9726  154.5711 H   0  0  0  0  0  0  0  0  0  0  0  0
  151.5956  136.5577  156.2563 H   0  0  0  0  0  0  0  0  0  0  0  0
  152.3847  138.0677  155.8262 H   0  0  0  0  0  0  0  0  0  0  0  0
  149.4325  137.3688  155.3510 H   0  0  0  0  0  0  0  0  0  0  0  0
  149.8513  138.1066  157.5807 H   0  0  0  0  0  0  0  0  0  0  0  0
  151.5719  140.0385  156.3544 H   0  0  0  0  0  0  0  0  0  0  0  0
  152.6987  139.7854  158.5499 H   0  0  0  0  0  0  0  0  0  0  0  0
  152.3378  138.1985  157.9133 H   0  0  0  0  0  0  0  0  0  0  0  0
  151.3289  138.8803  159.1840 H   0  0  0  0  0  0  0  0  0  0  0  0
  149.6481  140.7642  158.5993 H   0  0  0  0  0  0  0  0  0  0  0  0
  148.4685  140.8848  156.4256 H   0  0  0  0  0  0  0  0  0  0  0  0
  149.7634  141.8577  155.7409 H   0  0  0  0  0  0  0  0  0  0  0  0
  148.7628  142.5035  157.0389 H   0  0  0  0  0  0  0  0  0  0  0  0
  150.6644  143.7275  156.8586 H   0  0  0  0  0  0  0  0  0  0  0  0
  152.6586  144.9711  158.2418 H   0  0  0  0  0  0  0  0  0  0  0  0
  153.5033  143.0137  160.0128 H   0  0  0  0  0  0  0  0  0  0  0  0
  149.4122  139.3872  152.5151 H   0  0  0  0  0  0  0  0  0  0  0  0
  149.1207  137.8158  153.2324 H   0  0  0  0  0  0  0  0  0  0  0  0
  1  2  1  0  0  0  0
  1 16  1  0  0  0  0
  1 17  1  0  0  0  0
  1 18  1  0  0  0  0
  2  3  1  0  0  0  0
  2 13  1  0  0  0  0
  2 19  1  0  0  0  0
  3  4  1  0  0  0  0
  3 20  1  0  0  0  0
  4  5  1  0  0  0  0
  4  6  1  0  0  0  0
  4 21  1  0  0  0  0
  5 22  1  0  0  0  0
  5 23  1  0  0  0  0
  5 24  1  0  0  0  0
  6  7  1  0  0  0  0
  6  8  1  0  0  0  0
  6 25  1  0  0  0  0
  7 26  1  0  0  0  0
  7 27  1  0  0  0  0
  7 28  1  0  0  0  0
  8 12  1  0  0  0  0
  8  9  1  0  0  0  0
  9 10  2  0  0  0  0
  9 29  1  0  0  0  0
 10 11  1  0  0  0  0
 10 30  1  0  0  0  0
 11 12  2  0  0  0  0
 11 31  1  0  0  0  0
 13 14  1  0  0  0  0
 13 15  2  0  0  0  0
 14 32  1  0  0  0  0
 14 33  1  0  0  0  0
M  END
> <s_m_source_file>
AV-unprocessed.smi

> <i_m_source_file_index>
3116

> <i_lp_mmshare_version>
43012

> <i_f3d_flags>
0

> <s_epik_input>
W05IMl1DKD1PKVtDQEhdKFtDSDNdKVtOSF1bQ0BIXShbQ0gzXSlbQ0BIXShbQ0gzXSluMVtjSF1bY0hdW2NIXW4x

> <s_epik_cmdline>
J2VwaWtfcHl0aG9uJywgJy1waCcsICc3LjAnLCAnLXRuJywgJzgnLCAnLW1hJywgJzIwMCcsICctbWV0YWxfYmluZGluZycsICctaW1hZScsICc8aW5maWxlLm1hZT4nLCAnLW9tYWUnLCAnPG91dGZpbGUubWFlPic=

> <r_lp_tautomer_probability>
1

> <r_epik_Ionization_Penalty>
0.865977

> <r_epik_Ionization_Penalty_Charging>
0

> <r_epik_Ionization_Penalty_Neutral>
0.865977

> <r_epik_State_Penalty>
0.901888

> <r_epik_Charging_Adjusted_Penalty>
0.901888

> <i_epik_Tot_Q>
0

> <i_epik_Tot_abs_Q>
0

> <r_epik_Metal_State_Penalty>
0.901181

> <b_epik_Metal_Only>
0

> <s_lp_Force_Field>
OPLS_2005

> <r_lp_Energy>
9.31489

> <b_lp_Chiralities_Consistent>
1

> <s_lp_Variant>
AV-unprocessed.smi:3116-10

> <Gold.Version>
5.8.1

> <Gold.Id.Protein>
6NUR|6NUR_protein|mol2

> <Gold.PLP.Fitness>
36.9955

> <Gold.PLP.PLP>
-28.1176

> <Gold.PLP.part.hbond>
-2.9812

> <Gold.PLP.part.metal>
0.0000

> <Gold.PLP.part.buried>
-4.8059

> <Gold.PLP.part.nonpolar>
-21.5044

> <Gold.PLP.part.repulsive>
0.1963

> <Gold.PLP.ligand.clash>
0.0000

> <Gold.PLP.ligand.torsion>
1.2418

> <Gold.PLP.Chemscore.Hbond>
2.7520

> <Gold.PLP.Chemscore.CHOScore>
1.0000

> <Gold.PLP.Chemscore.Metal>
0.0000

> <Gold.Chemscore.Hbonds>
donor molecule, donor type, donor heavy atom, donor atom, acceptor molecule, acceptor atom, score
      L1  H    14    32       P1  7957  0.96
      L1  H    14    33       P1  7948  0.69
      P1  H  7989  7998       L1    15  1.00
      L1  C     9    29       P1  8028  1.00

> <Gold.PLP.Chemscore.Internal.Correction>
0.1056

> <Gold.Rescore>
     Score         DG    S(hbond)    S(metal)    S(lipo)     H(rot)  DE(clash)    DE(int)     intcor
     10.40     -15.67       2.60        0.00      65.00       2.38       0.00       5.28       ----

> <Gold.Chemscore.Fitness>
10.3978

> <Gold.Chemscore.DG>
-15.6740

> <Gold.Chemscore.ZeroCoef>
-5.4800

> <Gold.Chemscore.Hbond>
2.6019

> <Gold.Chemscore.Metal>
0.0000

> <Gold.Chemscore.Lipo>
65.0049

> <Gold.Chemscore.Internal_Hbond>
0.0000

> <Gold.Chemscore.DEClash>
0.0009

> <Gold.Chemscore.DEInternal>
5.2754

> <Gold.Chemscore.Rot>
2.3836

> <Gold.Chemscore.Internal.Correction>
   9.000000E+99

> <Gold.Chemscore.Hbonds>
donor molecule, donor type, donor heavy atom, donor atom, acceptor molecule, acceptor atom, score
      L1  H    14    32       P1  7957  0.89
      L1  H    14    33       P1  7948  0.66
      P1  H  7989  7998       L1    15  0.96

> <Gold.Chemscore.Hbond.Weighted>
-8.6904

> <Gold.Chemscore.Metal.Weighted>
-0.0000

> <Gold.Chemscore.Lipo.Weighted>
-7.6056

> <Gold.Chemscore.Internal_Hbond.Weighted>
0.0000

> <Gold.Chemscore.DEClash.Weighted>
0.0009

> <Gold.Chemscore.DEInternal.Weighted>
5.2754

> <Gold.Chemscore.Rot.Weighted>
6.1020

> <Gold.Chemscore.Internal.Correction.Weighted>
   9.000000E+99

> <Gold.Protein.RotatedTorsions>
[ 6907 6896 6895 6894 ] final   92.69 input  -60.11 | X-H torsion
[ 7974 7965 7964 7962 ] final    5.73 input  175.53 | X-H torsion
[ 8008 7997 7996 7995 ] final -109.26 input   59.86 | X-H torsion
[ 10167 10162 10161 10158 ] final -135.11 input  -65.29 | X-H torsion
[ 10718 10713 10712 10709 ] final  166.73 input   66.30 | X-H torsion
[ 10763 10752 10751 10750 ] final  -50.37 input  -60.55 | X-H torsion
[ 11005 11000 10999 10996 ] final  139.59 input  -57.11 | X-H torsion

> <Gold.Protein.ActiveResidues>
 VAL166  LYS551  ARG553  GLY616  TRP617  ASP618  TYR619  PRO620  LYS621  CYS622 
 ASP623  PHE694  ASN695  SER759  ASP760  ASP761  ALA762  ILE779  LEU786  VAL792 
 PHE793  MET794  SER795  GLU796  ALA797  LYS798  CYS799  TRP800  GLU811  SER814 

> <Gold.Protein.RotatedAtoms>
  152.5453  134.1462  159.8499 H   0  0  0  0  0  0  0  0  0  0  0  0  # atno 6907 bound_to 6896
  151.1494  133.4911  159.2603 H   0  0  0  0  0  0  0  0  0  0  0  0  # atno 6908 bound_to 6896
  151.1489  135.0227  159.8714 H   0  0  0  0  0  0  0  0  0  0  0  0  # atno 6909 bound_to 6896
  146.2439  140.0340  142.8387 H   0  0  0  0  0  0  0  0  0  0  0  0  # atno 7974 bound_to 7965
  154.9566  140.0400  157.2170 H   0  0  0  0  0  0  0  0  0  0  0  0  # atno 8008 bound_to 7997
  154.7928  140.2838  155.5957 H   0  0  0  0  0  0  0  0  0  0  0  0  # atno 8009 bound_to 7997
  156.2952  140.2570  156.2779 H   0  0  0  0  0  0  0  0  0  0  0  0  # atno 8010 bound_to 7997
  139.8812  143.6837  152.2627 H   0  0  0  0  0  0  0  0  0  0  0  0  # atno 10167 bound_to 10162
  157.0617  131.0342  151.2644 H   0  0  0  0  0  0  0  0  0  0  0  0  # atno 10718 bound_to 10713
  154.1093  135.6551  153.4882 H   0  0  0  0  0  0  0  0  0  0  0  0  # atno 10763 bound_to 10752
  153.0262  135.5244  154.7208 H   0  0  0  0  0  0  0  0  0  0  0  0  # atno 10764 bound_to 10752
  154.6383  135.2985  155.0104 H   0  0  0  0  0  0  0  0  0  0  0  0  # atno 10765 bound_to 10752
  140.0265  134.9372  157.0579 H   0  0  0  0  0  0  0  0  0  0  0  0  # atno 11005 bound_to 11000
  145.1129  140.9416  143.4646 LP  0  0  0  0  0  0  0  0  0  0  0  0  # atno 17320 bound_to 7965
  145.0558  139.3145  143.5905 LP  0  0  0  0  0  0  0  0  0  0  0  0  # atno 17321 bound_to 7965
  139.7195  144.7605  151.0979 LP  0  0  0  0  0  0  0  0  0  0  0  0  # atno 17342 bound_to 10162
  140.7744  143.5226  150.9518 LP  0  0  0  0  0  0  0  0  0  0  0  0  # atno 17343 bound_to 10162
  157.4949  130.7844  149.7545 LP  0  0  0  0  0  0  0  0  0  0  0  0  # atno 17370 bound_to 10713
  155.9976  130.3899  150.2732 LP  0  0  0  0  0  0  0  0  0  0  0  0  # atno 17371 bound_to 10713
  140.4297  134.1793  155.7167 LP  0  0  0  0  0  0  0  0  0  0  0  0  # atno 17394 bound_to 11000
  141.1806  133.8422  157.1271 LP  0  0  0  0  0  0  0  0  0  0  0  0  # atno 17395 bound_to 11000

$$$$
