AV-unprocessed.smi:661|AV-procd|sdf|3242|dock3
  -GOLD-   22720 0193D 1   1.00000     0.00000
 Structure written by MMmdl.
 31 32  0  0  0  0  0  0  0  0  2 V2000
  147.4795  141.8921  153.9933 C   0  0  0  0  0  0  0  0  0  0  0  0
  148.8132  142.3376  154.3578 N   0  0  0  0  0  0  0  0  0  0  0  0
  149.5109  141.2586  155.0407 C   0  0  0  0  0  0  0  0  0  0  0  0
  150.3685  141.7263  156.1747 C   0  0  0  0  0  0  0  0  0  0  0  0
  150.5098  143.0090  156.6186 N   0  3  0  0  0  0  0  0  0  0  0  0
  151.4079  143.0459  157.6858 C   0  0  0  0  0  0  0  0  0  0  0  0
  151.8682  144.1103  158.4549 C   0  0  0  0  0  0  0  0  0  0  0  0
  152.7943  143.8010  159.4727 C   0  0  0  0  0  0  0  0  0  0  0  0
  153.2279  142.4775  159.6940 C   0  0  0  0  0  0  0  0  0  0  0  0
  152.7533  141.4066  158.9082 C   0  0  0  0  0  0  0  0  0  0  0  0
  151.8371  141.7213  157.9053 C   0  0  0  0  0  0  0  0  0  0  0  0
  151.1688  140.9437  156.9537 N   0  0  0  0  0  0  0  0  0  0  0  0
  151.4072  139.4954  156.9145 C   0  0  0  0  0  0  0  0  0  0  0  0
  151.7138  139.0053  155.4927 C   0  0  0  0  0  0  0  0  0  0  0  0
  152.8866  139.6301  155.0207 O   0  0  0  0  0  0  0  0  0  0  0  0
  146.9391  142.7018  153.5025 H   0  0  0  0  0  0  0  0  0  0  0  0
  146.9131  141.5916  154.8756 H   0  0  0  0  0  0  0  0  0  0  0  0
  147.5246  141.0487  153.3031 H   0  0  0  0  0  0  0  0  0  0  0  0
  148.7134  143.1146  154.9955 H   0  0  0  0  0  0  0  0  0  0  0  0
  148.7832  140.5384  155.4167 H   0  0  0  0  0  0  0  0  0  0  0  0
  150.1518  140.7324  154.3319 H   0  0  0  0  0  0  0  0  0  0  0  0
  151.5385  145.1251  158.2866 H   0  0  0  0  0  0  0  0  0  0  0  0
  153.1803  144.5949  160.0957 H   0  0  0  0  0  0  0  0  0  0  0  0
  153.9386  142.2791  160.4830 H   0  0  0  0  0  0  0  0  0  0  0  0
  153.0919  140.3961  159.0840 H   0  0  0  0  0  0  0  0  0  0  0  0
  152.2182  139.2530  157.6025 H   0  0  0  0  0  0  0  0  0  0  0  0
  150.5154  139.0005  157.3008 H   0  0  0  0  0  0  0  0  0  0  0  0
  151.8567  137.9243  155.4798 H   0  0  0  0  0  0  0  0  0  0  0  0
  150.8915  139.2353  154.8149 H   0  0  0  0  0  0  0  0  0  0  0  0
  153.0191  139.3813  154.1185 H   0  0  0  0  0  0  0  0  0  0  0  0
  150.0269  143.7991  156.2104 H   0  0  0  0  0  0  0  0  0  0  0  0
  1  2  1  0  0  0  0
  1 16  1  0  0  0  0
  1 17  1  0  0  0  0
  1 18  1  0  0  0  0
  2  3  1  0  0  0  0
  2 19  1  0  0  0  0
  3  4  1  0  0  0  0
  3 20  1  0  0  0  0
  3 21  1  0  0  0  0
  4 12  1  0  0  0  0
  4  5  2  0  0  0  0
  5  6  1  0  0  0  0
  5 31  1  0  0  0  0
  6 11  2  0  0  0  0
  6  7  1  0  0  0  0
  7  8  2  0  0  0  0
  7 22  1  0  0  0  0
  8  9  1  0  0  0  0
  8 23  1  0  0  0  0
  9 10  2  0  0  0  0
  9 24  1  0  0  0  0
 10 11  1  0  0  0  0
 10 25  1  0  0  0  0
 11 12  1  0  0  0  0
 12 13  1  0  0  0  0
 13 14  1  0  0  0  0
 13 26  1  0  0  0  0
 13 27  1  0  0  0  0
 14 15  1  0  0  0  0
 14 28  1  0  0  0  0
 14 29  1  0  0  0  0
 15 30  1  0  0  0  0
M  CHG  1   5   1
M  END
> <s_m_source_file>
AV-unprocessed.smi

> <i_m_source_file_index>
661

> <i_lp_mmshare_version>
43012

> <i_f3d_flags>
0

> <s_epik_input>
W0NIM11bTkhdW0NIMl1jKG4xKW4oW0NIMl1bQ0gyXVtPSF0pYyhjMTIpW2NIXVtjSF1bY0hdW2NIXTI=

> <s_epik_cmdline>
J2VwaWtfcHl0aG9uJywgJy1waCcsICc3LjAnLCAnLXRuJywgJzgnLCAnLW1hJywgJzIwMCcsICctbWV0YWxfYmluZGluZycsICctaW1hZScsICc8aW5maWxlLm1hZT4nLCAnLW9tYWUnLCAnPG91dGZpbGUubWFlPic=

> <r_epik_Ionization_Penalty>
1.54621

> <r_epik_Ionization_Penalty_Charging>
0.868283

> <r_epik_Ionization_Penalty_Neutral>
0.677923

> <r_epik_State_Penalty>
2.71647

> <r_epik_Charging_Adjusted_Penalty>
3.58475

> <i_epik_Tot_Q>
1

> <i_epik_Tot_abs_Q>
1

> <r_epik_Metal_State_Penalty>
6.65543

> <b_epik_Metal_Only>
0

> <s_lp_Force_Field>
OPLS_2005

> <r_lp_Energy>
13.6315

> <b_lp_Chiralities_Consistent>
1

> <s_lp_Variant>
AV-unprocessed.smi:661-3

> <Gold.Version>
5.8.1

> <Gold.Id.Protein>
6NUR|6NUR_protein|mol2

> <Gold.PLP.Fitness>
51.6638

> <Gold.PLP.PLP>
-40.0725

> <Gold.PLP.part.hbond>
-5.0000

> <Gold.PLP.part.metal>
0.0000

> <Gold.PLP.part.buried>
-6.3038

> <Gold.PLP.part.nonpolar>
-30.1715

> <Gold.PLP.part.repulsive>
0.0625

> <Gold.PLP.ligand.clash>
0.0000

> <Gold.PLP.ligand.torsion>
0.3865

> <Gold.PLP.Chemscore.Hbond>
4.1149

> <Gold.PLP.Chemscore.CHOScore>
0.0000

> <Gold.PLP.Chemscore.Metal>
0.0000

> <Gold.Chemscore.Hbonds>
donor molecule, donor type, donor heavy atom, donor atom, acceptor molecule, acceptor atom, score
      L1  H     2    19       P1  8028  1.00
      L1  H     5    31       P1  8028  2.00
      P1  H  7997  8010       L1    15  1.00
      P1  H  8011  8017       L1     2  0.10

> <Gold.PLP.Chemscore.Internal.Correction>
0.0196

> <Gold.Rescore>
     Score         DG    S(hbond)    S(metal)    S(lipo)     H(rot)  DE(clash)    DE(int)     intcor
     20.14     -20.57       3.01        0.00      94.79       2.37       0.04       0.39       ----

> <Gold.Chemscore.Fitness>
20.1402

> <Gold.Chemscore.DG>
-20.5681

> <Gold.Chemscore.ZeroCoef>
-5.4800

> <Gold.Chemscore.Hbond>
3.0108

> <Gold.Chemscore.Metal>
0.0000

> <Gold.Chemscore.Lipo>
94.7930

> <Gold.Chemscore.Internal_Hbond>
0.0000

> <Gold.Chemscore.DEClash>
0.0411

> <Gold.Chemscore.DEInternal>
0.3868

> <Gold.Chemscore.Rot>
2.3667

> <Gold.Chemscore.Internal.Correction>
   9.000000E+99

> <Gold.Chemscore.Hbonds>
donor molecule, donor type, donor heavy atom, donor atom, acceptor molecule, acceptor atom, score
      L1  H     2    19       P1  8028  0.99
      L1  H     5    31       P1  8028  0.96
      P1  H  7997  8010       L1    15  0.93
      P1  H  8011  8017       L1     2  0.02

> <Gold.Chemscore.Hbond.Weighted>
-10.0561

> <Gold.Chemscore.Metal.Weighted>
-0.0000

> <Gold.Chemscore.Lipo.Weighted>
-11.0908

> <Gold.Chemscore.Internal_Hbond.Weighted>
0.0000

> <Gold.Chemscore.DEClash.Weighted>
0.0411

> <Gold.Chemscore.DEInternal.Weighted>
0.3868

> <Gold.Chemscore.Rot.Weighted>
6.0588

> <Gold.Chemscore.Internal.Correction.Weighted>
   9.000000E+99

> <Gold.Protein.RotatedTorsions>
[ 6907 6896 6895 6894 ] final -104.47 input  -60.11 | X-H torsion
[ 7974 7965 7964 7962 ] final   29.12 input  175.53 | X-H torsion
[ 8008 7997 7996 7995 ] final   98.50 input   59.86 | X-H torsion
[ 10167 10162 10161 10158 ] final   40.45 input  -65.29 | X-H torsion
[ 10718 10713 10712 10709 ] final  -47.94 input   66.30 | X-H torsion
[ 10763 10752 10751 10750 ] final  166.95 input  -60.55 | X-H torsion
[ 11005 11000 10999 10996 ] final -104.63 input  -57.11 | X-H torsion

> <Gold.Protein.ActiveResidues>
 VAL166  LYS551  ARG553  GLY616  TRP617  ASP618  TYR619  PRO620  LYS621  CYS622 
 ASP623  PHE694  ASN695  SER759  ASP760  ASP761  ALA762  ILE779  LEU786  VAL792 
 PHE793  MET794  SER795  GLU796  ALA797  LYS798  CYS799  TRP800  GLU811  SER814 

> <Gold.Protein.RotatedAtoms>
  150.7289  134.0273  159.3721 H   0  0  0  0  0  0  0  0  0  0  0  0  # atno 6907 bound_to 6896
  151.8241  135.0640  160.0438 H   0  0  0  0  0  0  0  0  0  0  0  0  # atno 6908 bound_to 6896
  152.2982  133.5592  159.5637 H   0  0  0  0  0  0  0  0  0  0  0  0  # atno 6909 bound_to 6896
  146.1690  139.6965  142.8981 H   0  0  0  0  0  0  0  0  0  0  0  0  # atno 7974 bound_to 7965
  156.1011  140.3243  155.7943 H   0  0  0  0  0  0  0  0  0  0  0  0  # atno 8008 bound_to 7997
  155.4835  140.0556  157.2981 H   0  0  0  0  0  0  0  0  0  0  0  0  # atno 8009 bound_to 7997
  154.4697  140.2006  156.0041 H   0  0  0  0  0  0  0  0  0  0  0  0  # atno 8010 bound_to 7997
  140.3741  144.2066  150.6132 H   0  0  0  0  0  0  0  0  0  0  0  0  # atno 10167 bound_to 10162
  156.2036  130.4157  149.9208 H   0  0  0  0  0  0  0  0  0  0  0  0  # atno 10718 bound_to 10713
  154.3466  135.2753  155.2394 H   0  0  0  0  0  0  0  0  0  0  0  0  # atno 10763 bound_to 10752
  154.4641  135.5899  153.6280 H   0  0  0  0  0  0  0  0  0  0  0  0  # atno 10764 bound_to 10752
  152.9853  135.6072  154.3673 H   0  0  0  0  0  0  0  0  0  0  0  0  # atno 10765 bound_to 10752
  141.1091  133.8740  157.1635 H   0  0  0  0  0  0  0  0  0  0  0  0  # atno 11005 bound_to 11000
  145.4391  141.0421  143.2867 LP  0  0  0  0  0  0  0  0  0  0  0  0  # atno 17320 bound_to 7965
  144.8135  139.5920  143.7019 LP  0  0  0  0  0  0  0  0  0  0  0  0  # atno 17321 bound_to 7965
  140.5004  143.2320  151.8687 LP  0  0  0  0  0  0  0  0  0  0  0  0  # atno 17342 bound_to 10162
  139.4801  144.5066  151.8989 LP  0  0  0  0  0  0  0  0  0  0  0  0  # atno 17343 bound_to 10162
  156.6909  130.8895  151.3588 LP  0  0  0  0  0  0  0  0  0  0  0  0  # atno 17370 bound_to 10713
  157.7000  130.9322  150.0756 LP  0  0  0  0  0  0  0  0  0  0  0  0  # atno 17371 bound_to 10713
  139.9976  135.0040  157.0117 LP  0  0  0  0  0  0  0  0  0  0  0  0  # atno 17394 bound_to 11000
  140.4823  134.1277  155.7219 LP  0  0  0  0  0  0  0  0  0  0  0  0  # atno 17395 bound_to 11000

$$$$
