AV-unprocessed.smi:408|AV-procd|sdf|2503|dock2
  -GOLD-   2262022453D 1   1.00000     0.00000
 Structure written by MMmdl.
 41 42  0  0  0  0  0  0  0  0  1 V2000
  146.9708  133.8895  162.1254 C   0  0  0  0  0  0  0  0  0  0  0  0
  148.0401  134.9260  161.7417 C   0  0  0  0  0  0  0  0  0  0  0  0
  148.0434  136.0880  162.7468 C   0  0  0  0  0  0  0  0  0  0  0  0
  147.8642  135.4523  160.3026 C   0  0  0  0  0  0  0  0  0  0  0  0
  149.0601  136.2709  159.7804 C   0  0  0  0  0  0  0  0  0  0  0  0
  148.9103  136.5916  158.3655 N   0  0  0  0  0  0  0  0  0  0  0  0
  149.7825  137.3090  157.6400 C   0  0  0  0  0  0  0  0  0  0  0  0
  150.8239  137.7731  158.1071 O   0  0  0  0  0  0  0  0  0  0  0  0
  149.4083  137.5478  156.1724 C   0  0  0  0  0  0  0  0  0  0  0  0
  149.4721  139.0074  155.8217 C   0  0  0  0  0  0  0  0  0  0  0  0
  149.1891  139.5792  154.6048 C   0  0  0  0  0  0  0  0  0  0  0  0
  149.3908  141.3107  154.6334 S   0  0  0  0  0  0  0  0  0  0  0  0
  149.8779  141.1900  156.3170 C   0  0  0  0  0  0  0  0  0  0  0  0
  150.2286  142.3380  157.0787 N   0  0  0  0  0  0  0  0  0  0  0  0
  151.1195  142.4869  158.0811 C   0  0  0  0  0  0  0  0  0  0  0  0
  151.7929  141.5275  158.4540 O   0  0  0  0  0  0  0  0  0  0  0  0
  151.2830  143.8343  158.7098 C   0  0  0  0  0  0  0  0  0  0  0  0
  152.6022  144.5510  158.4908 C   0  0  0  0  0  0  0  0  0  0  0  0
  152.2844  143.9635  159.8403 C   0  0  0  0  0  0  0  0  0  0  0  0
  149.8402  139.9420  156.7944 N   0  0  0  0  0  0  0  0  0  0  0  0
  145.9661  134.3018  162.0287 H   0  0  0  0  0  0  0  0  0  0  0  0
  147.0961  133.5620  163.1579 H   0  0  0  0  0  0  0  0  0  0  0  0
  147.0295  132.9998  161.4991 H   0  0  0  0  0  0  0  0  0  0  0  0
  149.0150  134.4408  161.8072 H   0  0  0  0  0  0  0  0  0  0  0  0
  147.0965  136.6287  162.7309 H   0  0  0  0  0  0  0  0  0  0  0  0
  148.8375  136.8009  162.5228 H   0  0  0  0  0  0  0  0  0  0  0  0
  148.2046  135.7293  163.7639 H   0  0  0  0  0  0  0  0  0  0  0  0
  147.6669  134.6183  159.6274 H   0  0  0  0  0  0  0  0  0  0  0  0
  146.9732  136.0810  160.2703 H   0  0  0  0  0  0  0  0  0  0  0  0
  149.1823  137.1870  160.3610 H   0  0  0  0  0  0  0  0  0  0  0  0
  149.9855  135.7067  159.8907 H   0  0  0  0  0  0  0  0  0  0  0  0
  148.0780  136.2501  157.9068 H   0  0  0  0  0  0  0  0  0  0  0  0
  150.0737  136.9758  155.5238 H   0  0  0  0  0  0  0  0  0  0  0  0
  148.4044  137.1559  156.0051 H   0  0  0  0  0  0  0  0  0  0  0  0
  148.8764  139.0874  153.6958 H   0  0  0  0  0  0  0  0  0  0  0  0
  149.7615  143.1877  156.7975 H   0  0  0  0  0  0  0  0  0  0  0  0
  150.4020  144.4732  158.7147 H   0  0  0  0  0  0  0  0  0  0  0  0
  153.3773  144.0585  157.9062 H   0  0  0  0  0  0  0  0  0  0  0  0
  152.5646  145.6332  158.3851 H   0  0  0  0  0  0  0  0  0  0  0  0
  152.0242  144.6413  160.6508 H   0  0  0  0  0  0  0  0  0  0  0  0
  152.8341  143.0736  160.1425 H   0  0  0  0  0  0  0  0  0  0  0  0
  1  2  1  0  0  0  0
  1 21  1  0  0  0  0
  1 22  1  0  0  0  0
  1 23  1  0  0  0  0
  2  3  1  0  0  0  0
  2  4  1  0  0  0  0
  2 24  1  0  0  0  0
  3 25  1  0  0  0  0
  3 26  1  0  0  0  0
  3 27  1  0  0  0  0
  4  5  1  0  0  0  0
  4 28  1  0  0  0  0
  4 29  1  0  0  0  0
  5  6  1  0  0  0  0
  5 30  1  0  0  0  0
  5 31  1  0  0  0  0
  6  7  1  0  0  0  0
  6 32  1  0  0  0  0
  7  8  2  0  0  0  0
  7  9  1  0  0  0  0
  9 10  1  0  0  0  0
  9 33  1  0  0  0  0
  9 34  1  0  0  0  0
 10 20  1  0  0  0  0
 10 11  2  0  0  0  0
 11 12  1  0  0  0  0
 11 35  1  0  0  0  0
 12 13  1  0  0  0  0
 13 14  1  0  0  0  0
 13 20  2  0  0  0  0
 14 15  1  0  0  0  0
 14 36  1  0  0  0  0
 15 16  2  0  0  0  0
 15 17  1  0  0  0  0
 17 19  1  0  0  0  0
 17 18  1  0  0  0  0
 17 37  1  0  0  0  0
 18 19  1  0  0  0  0
 18 38  1  0  0  0  0
 18 39  1  0  0  0  0
 19 40  1  0  0  0  0
 19 41  1  0  0  0  0
M  END
> <s_m_source_file>
AV-unprocessed.smi

> <i_m_source_file_index>
408

> <i_lp_mmshare_version>
43012

> <i_f3d_flags>
0

> <s_epik_input>
W0NIM11bQ0hdKFtDSDNdKVtDSDJdW0NIMl1bTkhdQyg9TylbQ0gyXWMxW2NIXXNjKG4xKVtOSF1DKD1PKVtDSF0yW0NIMl1bQ0gyXTI=

> <s_epik_cmdline>
J2VwaWtfcHl0aG9uJywgJy1waCcsICc3LjAnLCAnLXRuJywgJzgnLCAnLW1hJywgJzIwMCcsICctbWV0YWxfYmluZGluZycsICctaW1hZScsICc8aW5maWxlLm1hZT4nLCAnLW9tYWUnLCAnPG91dGZpbGUubWFlPic=

> <r_lp_tautomer_probability>
1

> <r_epik_Ionization_Penalty>
0.000153743

> <r_epik_Ionization_Penalty_Charging>
0

> <r_epik_Ionization_Penalty_Neutral>
0.000153743

> <r_epik_State_Penalty>
-0

> <r_epik_Charging_Adjusted_Penalty>
0

> <i_epik_Tot_Q>
0

> <i_epik_Tot_abs_Q>
0

> <r_epik_Metal_State_Penalty>
0.0946566

> <b_epik_Metal_Only>
0

> <s_lp_Force_Field>
OPLS_2005

> <r_lp_Energy>
15.0159

> <b_lp_Chiralities_Consistent>
1

> <s_lp_Variant>
AV-unprocessed.smi:408-1

> <Gold.Version>
5.8.1

> <Gold.Id.Protein>
6NUR|6NUR_protein|mol2

> <Gold.PLP.Fitness>
43.7274

> <Gold.PLP.PLP>
-40.1328

> <Gold.PLP.part.hbond>
-1.0000

> <Gold.PLP.part.metal>
0.0000

> <Gold.PLP.part.buried>
-2.6101

> <Gold.PLP.part.nonpolar>
-35.3371

> <Gold.PLP.part.repulsive>
0.1544

> <Gold.PLP.ligand.clash>
0.0000

> <Gold.PLP.ligand.torsion>
0.4074

> <Gold.PLP.Chemscore.Hbond>
1.0000

> <Gold.PLP.Chemscore.CHOScore>
0.4105

> <Gold.PLP.Chemscore.Metal>
0.0000

> <Gold.Chemscore.Hbonds>
donor molecule, donor type, donor heavy atom, donor atom, acceptor molecule, acceptor atom, score
      L1  H    14    36       P1  8028  0.83
      L1  C    11    35       P1  7957  0.27

> <Gold.PLP.Chemscore.Internal.Correction>
0.1778

> <Gold.Rescore>
     Score         DG    S(hbond)    S(metal)    S(lipo)     H(rot)  DE(clash)    DE(int)     intcor
     12.19     -15.47       1.00        0.00     100.41       1.99       0.02       3.26       ----

> <Gold.Chemscore.Fitness>
12.1901

> <Gold.Chemscore.DG>
-15.4716

> <Gold.Chemscore.ZeroCoef>
-5.4800

> <Gold.Chemscore.Hbond>
0.9995

> <Gold.Chemscore.Metal>
0.0000

> <Gold.Chemscore.Lipo>
100.4050

> <Gold.Chemscore.Internal_Hbond>
0.0000

> <Gold.Chemscore.DEClash>
0.0224

> <Gold.Chemscore.DEInternal>
3.2592

> <Gold.Chemscore.Rot>
1.9899

> <Gold.Chemscore.Internal.Correction>
   9.000000E+99

> <Gold.Chemscore.Hbonds>
donor molecule, donor type, donor heavy atom, donor atom, acceptor molecule, acceptor atom, score
      L1  H    14    36       P1  8028  0.82

> <Gold.Chemscore.Hbond.Weighted>
-3.3383

> <Gold.Chemscore.Metal.Weighted>
-0.0000

> <Gold.Chemscore.Lipo.Weighted>
-11.7474

> <Gold.Chemscore.Internal_Hbond.Weighted>
0.0000

> <Gold.Chemscore.DEClash.Weighted>
0.0224

> <Gold.Chemscore.DEInternal.Weighted>
3.2592

> <Gold.Chemscore.Rot.Weighted>
5.0941

> <Gold.Chemscore.Internal.Correction.Weighted>
   9.000000E+99

> <Gold.Protein.RotatedTorsions>
[ 6907 6896 6895 6894 ] final   77.81 input  -60.11 | X-H torsion
[ 7974 7965 7964 7962 ] final   -5.77 input  175.53 | X-H torsion
[ 8008 7997 7996 7995 ] final  -66.95 input   59.86 | X-H torsion
[ 10167 10162 10161 10158 ] final  124.98 input  -65.29 | X-H torsion
[ 10718 10713 10712 10709 ] final  174.34 input   66.30 | X-H torsion
[ 10763 10752 10751 10750 ] final -172.13 input  -60.55 | X-H torsion
[ 11005 11000 10999 10996 ] final -110.06 input  -57.11 | X-H torsion

> <Gold.Protein.ActiveResidues>
 VAL166  LYS551  ARG553  GLY616  TRP617  ASP618  TYR619  PRO620  LYS621  CYS622 
 ASP623  PHE694  ASN695  SER759  ASP760  ASP761  ALA762  ILE779  LEU786  VAL792 
 PHE793  MET794  SER795  GLU796  ALA797  LYS798  CYS799  TRP800  GLU811  SER814 

> <Gold.Protein.RotatedAtoms>
  152.5133  134.3760  159.9334 H   0  0  0  0  0  0  0  0  0  0  0  0  # atno 6907 bound_to 6896
  151.3716  133.3846  159.2708 H   0  0  0  0  0  0  0  0  0  0  0  0  # atno 6908 bound_to 6896
  150.9573  134.8986  159.7767 H   0  0  0  0  0  0  0  0  0  0  0  0  # atno 6909 bound_to 6896
  146.2346  140.2070  142.8334 H   0  0  0  0  0  0  0  0  0  0  0  0  # atno 7974 bound_to 7965
  154.4767  140.0902  156.7280 H   0  0  0  0  0  0  0  0  0  0  0  0  # atno 8008 bound_to 7997
  155.4577  140.3460  155.4290 H   0  0  0  0  0  0  0  0  0  0  0  0  # atno 8009 bound_to 7997
  156.1128  140.1452  156.9303 H   0  0  0  0  0  0  0  0  0  0  0  0  # atno 8010 bound_to 7997
  139.5711  144.6939  151.3777 H   0  0  0  0  0  0  0  0  0  0  0  0  # atno 10167 bound_to 10162
  156.9511  131.0031  151.2948 H   0  0  0  0  0  0  0  0  0  0  0  0  # atno 10718 bound_to 10713
  154.6228  135.2877  155.0306 H   0  0  0  0  0  0  0  0  0  0  0  0  # atno 10763 bound_to 10752
  154.1495  135.6505  153.4964 H   0  0  0  0  0  0  0  0  0  0  0  0  # atno 10764 bound_to 10752
  153.0243  135.5352  154.7024 H   0  0  0  0  0  0  0  0  0  0  0  0  # atno 10765 bound_to 10752
  141.0813  133.9215  157.2283 H   0  0  0  0  0  0  0  0  0  0  0  0  # atno 11005 bound_to 11000
  144.9737  140.8393  143.5440 LP  0  0  0  0  0  0  0  0  0  0  0  0  # atno 17320 bound_to 7965
  145.2055  139.2231  143.5170 LP  0  0  0  0  0  0  0  0  0  0  0  0  # atno 17321 bound_to 7965
  140.6995  143.7666  150.7380 LP  0  0  0  0  0  0  0  0  0  0  0  0  # atno 17342 bound_to 10162
  140.1173  143.4644  152.2334 LP  0  0  0  0  0  0  0  0  0  0  0  0  # atno 17343 bound_to 10162
  157.5721  130.8318  149.8406 LP  0  0  0  0  0  0  0  0  0  0  0  0  # atno 17370 bound_to 10713
  156.0362  130.3750  150.1553 LP  0  0  0  0  0  0  0  0  0  0  0  0  # atno 17371 bound_to 10713
  139.9627  135.0150  156.9304 LP  0  0  0  0  0  0  0  0  0  0  0  0  # atno 17394 bound_to 11000
  140.5462  134.0671  155.7356 LP  0  0  0  0  0  0  0  0  0  0  0  0  # atno 17395 bound_to 11000

$$$$
