AV-unprocessed.smi:2550|AV-procd|sdf|10012|dock6
  -GOLD-   2272014 53D 1   1.00000     0.00000
 Structure written by MMmdl.
 27 28  0  0  0  0  0  0  0  0  1 V2000
  152.0543  144.7193  158.7150 C   0  0  0  0  0  0  0  0  0  0  0  0
  151.8432  143.3104  159.2932 C   0  0  0  0  0  0  0  0  0  0  0  0
  153.0702  142.8174  160.0773 C   0  0  0  0  0  0  0  0  0  0  0  0
  150.7690  143.3946  160.2114 O   0  0  0  0  0  0  0  0  0  0  0  0
  151.4284  142.3248  158.2268 C   0  0  0  0  0  0  0  0  0  0  0  0
  150.3280  142.3114  157.4123 C   0  0  0  0  0  0  0  0  0  0  0  0
  150.5054  141.1803  156.6451 N   0  0  0  0  0  0  0  0  0  0  0  0
  149.6105  140.6378  155.6664 C   0  0  0  0  0  0  0  0  0  0  0  0
  150.0786  139.5813  154.6620 C   0  0  0  0  0  0  0  0  0  0  0  0
  149.1947  140.2186  153.7009 N   0  0  0  0  0  0  0  0  0  0  0  0
  149.2066  141.4660  154.4457 C   0  0  0  0  0  0  0  0  0  0  0  0
  151.6244  140.5081  157.0011 N   0  0  0  0  0  0  0  0  0  0  0  0
  152.1998  141.1968  157.9358 N   0  0  0  0  0  0  0  0  0  0  0  0
  152.8671  144.7297  157.9882 H   0  0  0  0  0  0  0  0  0  0  0  0
  152.3052  145.4371  159.4968 H   0  0  0  0  0  0  0  0  0  0  0  0
  151.1570  145.0796  158.2104 H   0  0  0  0  0  0  0  0  0  0  0  0
  153.9408  142.7204  159.4276 H   0  0  0  0  0  0  0  0  0  0  0  0
  152.8862  141.8418  160.5289 H   0  0  0  0  0  0  0  0  0  0  0  0
  153.3348  143.5088  160.8782 H   0  0  0  0  0  0  0  0  0  0  0  0
  150.3357  144.2253  160.0898 H   0  0  0  0  0  0  0  0  0  0  0  0
  149.4809  142.9745  157.3167 H   0  0  0  0  0  0  0  0  0  0  0  0
  148.7308  140.2942  156.2149 H   0  0  0  0  0  0  0  0  0  0  0  0
  151.1272  139.6646  154.3719 H   0  0  0  0  0  0  0  0  0  0  0  0
  149.7939  138.5607  154.9192 H   0  0  0  0  0  0  0  0  0  0  0  0
  149.6198  140.3111  152.7891 H   0  0  0  0  0  0  0  0  0  0  0  0
  148.2296  141.9424  154.5306 H   0  0  0  0  0  0  0  0  0  0  0  0
  149.9782  142.1504  154.0898 H   0  0  0  0  0  0  0  0  0  0  0  0
  1  2  1  0  0  0  0
  1 14  1  0  0  0  0
  1 15  1  0  0  0  0
  1 16  1  0  0  0  0
  2  3  1  0  0  0  0
  2  4  1  0  0  0  0
  2  5  1  0  0  0  0
  3 17  1  0  0  0  0
  3 18  1  0  0  0  0
  3 19  1  0  0  0  0
  4 20  1  0  0  0  0
  5 13  1  0  0  0  0
  5  6  2  0  0  0  0
  6  7  1  0  0  0  0
  6 21  1  0  0  0  0
  7  8  1  0  0  0  0
  7 12  1  0  0  0  0
  8 11  1  0  0  0  0
  8  9  1  0  0  0  0
  8 22  1  0  0  0  0
  9 10  1  0  0  0  0
  9 23  1  0  0  0  0
  9 24  1  0  0  0  0
 10 11  1  0  0  0  0
 10 25  1  0  0  0  0
 11 26  1  0  0  0  0
 11 27  1  0  0  0  0
 12 13  2  0  0  0  0
M  END
> <s_m_source_file>
AV-unprocessed.smi

> <i_m_source_file_index>
2550

> <i_lp_mmshare_version>
43012

> <i_f3d_flags>
0

> <s_epik_input>
W0NIM11DKFtDSDNdKShbT0hdKWMxW2NIXW4obm4xKVtDSF0yW0NIMl1bTkhdW0NIMl0y

> <s_epik_cmdline>
J2VwaWtfcHl0aG9uJywgJy1waCcsICc3LjAnLCAnLXRuJywgJzgnLCAnLW1hJywgJzIwMCcsICctbWV0YWxfYmluZGluZycsICctaW1hZScsICc8aW5maWxlLm1hZT4nLCAnLW9tYWUnLCAnPG91dGZpbGUubWFlPic=

> <r_lp_tautomer_probability>
1

> <r_epik_Ionization_Penalty>
0.705036

> <r_epik_Ionization_Penalty_Charging>
0

> <r_epik_Ionization_Penalty_Neutral>
0.705036

> <r_epik_State_Penalty>
0.727806

> <r_epik_Charging_Adjusted_Penalty>
0.727806

> <i_epik_Tot_Q>
0

> <i_epik_Tot_abs_Q>
0

> <r_epik_Metal_State_Penalty>
0.727613

> <b_epik_Metal_Only>
0

> <s_lp_Force_Field>
OPLS_2005

> <r_lp_Energy>
8.86137

> <b_lp_Chiralities_Consistent>
1

> <s_lp_Variant>
AV-unprocessed.smi:2550-2

> <Gold.Version>
5.8.1

> <Gold.Id.Protein>
6NUR|6NUR_protein|mol2

> <Gold.PLP.Fitness>
34.6203

> <Gold.PLP.PLP>
-28.9887

> <Gold.PLP.part.hbond>
-2.3334

> <Gold.PLP.part.metal>
0.0000

> <Gold.PLP.part.buried>
-2.4660

> <Gold.PLP.part.nonpolar>
-24.1199

> <Gold.PLP.part.repulsive>
0.0000

> <Gold.PLP.ligand.clash>
0.0000

> <Gold.PLP.ligand.torsion>
0.3283

> <Gold.PLP.Chemscore.Hbond>
1.0000

> <Gold.PLP.Chemscore.CHOScore>
1.0000

> <Gold.PLP.Chemscore.Metal>
0.0000

> <Gold.Chemscore.Hbonds>
donor molecule, donor type, donor heavy atom, donor atom, acceptor molecule, acceptor atom, score
      L1  H    10    25       P1  7957  1.00
      L1  C     6    21       P1  8028  1.00

> <Gold.PLP.Chemscore.Internal.Correction>
0.2882

> <Gold.Rescore>
     Score         DG    S(hbond)    S(metal)    S(lipo)     H(rot)  DE(clash)    DE(int)     intcor
     12.80     -13.06       1.00        0.00      74.12       1.73       0.06       0.21       ----

> <Gold.Chemscore.Fitness>
12.7962

> <Gold.Chemscore.DG>
-13.0621

> <Gold.Chemscore.ZeroCoef>
-5.4800

> <Gold.Chemscore.Hbond>
0.9991

> <Gold.Chemscore.Metal>
0.0000

> <Gold.Chemscore.Lipo>
74.1248

> <Gold.Chemscore.Internal_Hbond>
0.0000

> <Gold.Chemscore.DEClash>
0.0589

> <Gold.Chemscore.DEInternal>
0.2070

> <Gold.Chemscore.Rot>
1.7295

> <Gold.Chemscore.Internal.Correction>
   9.000000E+99

> <Gold.Chemscore.Hbonds>
donor molecule, donor type, donor heavy atom, donor atom, acceptor molecule, acceptor atom, score
      L1  H    10    25       P1  7957  0.95

> <Gold.Chemscore.Hbond.Weighted>
-3.3369

> <Gold.Chemscore.Metal.Weighted>
-0.0000

> <Gold.Chemscore.Lipo.Weighted>
-8.6726

> <Gold.Chemscore.Internal_Hbond.Weighted>
0.0000

> <Gold.Chemscore.DEClash.Weighted>
0.0589

> <Gold.Chemscore.DEInternal.Weighted>
0.2070

> <Gold.Chemscore.Rot.Weighted>
4.4275

> <Gold.Chemscore.Internal.Correction.Weighted>
   9.000000E+99

> <Gold.Protein.RotatedTorsions>
[ 6907 6896 6895 6894 ] final -159.38 input  -60.11 | X-H torsion
[ 7974 7965 7964 7962 ] final  -44.51 input  175.53 | X-H torsion
[ 8008 7997 7996 7995 ] final  148.91 input   59.86 | X-H torsion
[ 10167 10162 10161 10158 ] final -149.68 input  -65.29 | X-H torsion
[ 10718 10713 10712 10709 ] final -165.20 input   66.30 | X-H torsion
[ 10763 10752 10751 10750 ] final  100.33 input  -60.55 | X-H torsion
[ 11005 11000 10999 10996 ] final   -2.64 input  -57.11 | X-H torsion

> <Gold.Protein.ActiveResidues>
 VAL166  LYS551  ARG553  GLY616  TRP617  ASP618  TYR619  PRO620  LYS621  CYS622 
 ASP623  PHE694  ASN695  SER759  ASP760  ASP761  ALA762  ILE779  LEU786  VAL792 
 PHE793  MET794  SER795  GLU796  ALA797  LYS798  CYS799  TRP800  GLU811  SER814 

> <Gold.Protein.RotatedAtoms>
  151.3327  133.3994  159.2663 H   0  0  0  0  0  0  0  0  0  0  0  0  # atno 6907 bound_to 6896
  150.9942  134.9271  159.7927 H   0  0  0  0  0  0  0  0  0  0  0  0  # atno 6908 bound_to 6896
  152.5256  134.3292  159.9229 H   0  0  0  0  0  0  0  0  0  0  0  0  # atno 6909 bound_to 6896
  145.9914  140.7177  142.9315 H   0  0  0  0  0  0  0  0  0  0  0  0  # atno 7974 bound_to 7965
  156.2774  140.2116  156.5774 H   0  0  0  0  0  0  0  0  0  0  0  0  # atno 8008 bound_to 7997
  154.7087  140.0514  157.0552 H   0  0  0  0  0  0  0  0  0  0  0  0  # atno 8009 bound_to 7997
  155.0636  140.3169  155.4656 H   0  0  0  0  0  0  0  0  0  0  0  0  # atno 8010 bound_to 7997
  139.7421  143.8646  152.2565 H   0  0  0  0  0  0  0  0  0  0  0  0  # atno 10167 bound_to 10162
  156.6501  130.9004  151.3011 H   0  0  0  0  0  0  0  0  0  0  0  0  # atno 10718 bound_to 10713
  153.3126  135.4082  155.1348 H   0  0  0  0  0  0  0  0  0  0  0  0  # atno 10763 bound_to 10752
  154.8580  135.3568  154.5703 H   0  0  0  0  0  0  0  0  0  0  0  0  # atno 10764 bound_to 10752
  153.6133  135.7067  153.5397 H   0  0  0  0  0  0  0  0  0  0  0  0  # atno 10765 bound_to 10752
  140.6605  133.9324  155.8433 H   0  0  0  0  0  0  0  0  0  0  0  0  # atno 11005 bound_to 11000
  144.6890  140.3076  143.7253 LP  0  0  0  0  0  0  0  0  0  0  0  0  # atno 17320 bound_to 7965
  145.7625  139.1829  143.2259 LP  0  0  0  0  0  0  0  0  0  0  0  0  # atno 17321 bound_to 7965
  139.8600  144.7122  150.9111 LP  0  0  0  0  0  0  0  0  0  0  0  0  # atno 17342 bound_to 10162
  140.7787  143.3826  151.1450 LP  0  0  0  0  0  0  0  0  0  0  0  0  # atno 17343 bound_to 10162
  157.7144  130.9479  150.1201 LP  0  0  0  0  0  0  0  0  0  0  0  0  # atno 17370 bound_to 10713
  156.2091  130.3665  149.8692 LP  0  0  0  0  0  0  0  0  0  0  0  0  # atno 17371 bound_to 10713
  141.0468  134.0542  157.3833 LP  0  0  0  0  0  0  0  0  0  0  0  0  # atno 17394 bound_to 11000
  139.9014  135.0166  156.7288 LP  0  0  0  0  0  0  0  0  0  0  0  0  # atno 17395 bound_to 11000

$$$$
