AV-unprocessed.smi:2748|AV-procd|sdf|10584|dock6
  -GOLD-   2272015 33D 1   1.00000     0.00000
 Structure written by MMmdl.
 29 31  0  0  0  0  0  0  0  0  2 V2000
  150.5482  135.2054  155.0209 O   0  0  0  0  0  0  0  0  0  0  0  0
  150.7343  136.4182  155.1092 C   0  0  0  0  0  0  0  0  0  0  0  0
  151.9757  136.9809  155.0260 N   0  5  0  0  0  0  0  0  0  0  0  0
  152.2023  138.3277  155.1197 C   0  0  0  0  0  0  0  0  0  0  0  0
  153.3324  138.8119  155.0508 O   0  0  0  0  0  0  0  0  0  0  0  0
  151.1361  139.1629  155.2969 N   0  0  0  0  0  0  0  0  0  0  0  0
  151.2871  140.6198  155.4091 C   0  0  0  0  0  0  0  0  0  0  0  0
  150.6487  141.1617  156.7019 C   0  0  1  0  0  0  0  0  0  0  0  0
  151.5775  141.0039  157.9353 C   0  0  0  0  0  0  0  0  0  0  0  0
  151.7446  142.4159  158.3756 C   0  0  0  0  0  0  0  0  0  0  0  0
  152.4903  142.9104  159.4592 C   0  0  0  0  0  0  0  0  0  0  0  0
  152.4969  144.3065  159.6723 C   0  0  0  0  0  0  0  0  0  0  0  0
  151.7718  145.1664  158.8124 C   0  0  0  0  0  0  0  0  0  0  0  0
  151.0310  144.6412  157.7294 C   0  0  0  0  0  0  0  0  0  0  0  0
  151.0335  143.2492  157.5309 C   0  0  0  0  0  0  0  0  0  0  0  0
  150.3763  142.5685  156.5462 O   0  0  0  0  0  0  0  0  0  0  0  0
  149.8380  138.6345  155.3967 C   0  0  0  0  0  0  0  0  0  0  0  0
  149.5960  137.3120  155.3119 C   0  0  0  0  0  0  0  0  0  0  0  0
  147.9890  136.6904  155.4412 Cl  0  0  0  0  0  0  0  0  0  0  0  0
  152.3447  140.8873  155.3763 H   0  0  0  0  0  0  0  0  0  0  0  0
  150.8436  141.1152  154.5440 H   0  0  0  0  0  0  0  0  0  0  0  0
  149.7040  140.6528  156.8981 H   0  0  0  0  0  0  0  0  0  0  0  0
  151.1125  140.4093  158.7220 H   0  0  0  0  0  0  0  0  0  0  0  0
  152.5451  140.5673  157.6849 H   0  0  0  0  0  0  0  0  0  0  0  0
  153.0410  142.2448  160.1076 H   0  0  0  0  0  0  0  0  0  0  0  0
  153.0589  144.7210  160.4962 H   0  0  0  0  0  0  0  0  0  0  0  0
  151.7846  146.2324  158.9854 H   0  0  0  0  0  0  0  0  0  0  0  0
  150.4756  145.2923  157.0706 H   0  0  0  0  0  0  0  0  0  0  0  0
  149.0580  139.3655  155.5519 H   0  0  0  0  0  0  0  0  0  0  0  0
  1  2  2  0  0  0  0
  2 18  1  0  0  0  0
  2  3  1  0  0  0  0
  3  4  1  0  0  0  0
  4  5  2  0  0  0  0
  4  6  1  0  0  0  0
  6  7  1  0  0  0  0
  6 17  1  0  0  0  0
  7  8  1  0  0  0  0
  7 20  1  0  0  0  0
  7 21  1  0  0  0  0
  8 16  1  0  0  0  0
  8  9  1  0  0  0  0
  8 22  1  0  0  0  0
  9 10  1  0  0  0  0
  9 23  1  0  0  0  0
  9 24  1  0  0  0  0
 10 15  2  0  0  0  0
 10 11  1  0  0  0  0
 11 12  2  0  0  0  0
 11 25  1  0  0  0  0
 12 13  1  0  0  0  0
 12 26  1  0  0  0  0
 13 14  2  0  0  0  0
 13 27  1  0  0  0  0
 14 15  1  0  0  0  0
 14 28  1  0  0  0  0
 15 16  1  0  0  0  0
 17 18  2  0  0  0  0
 17 29  1  0  0  0  0
 18 19  1  0  0  0  0
M  CHG  1   3  -1
M  END
> <s_m_source_file>
AV-unprocessed.smi

> <i_m_source_file_index>
2748

> <i_lp_mmshare_version>
43012

> <i_f3d_flags>
0

> <s_epik_input>
Tz1jMVtuSF1jKD1PKW4oW2NIXWMxQ2wpW0NIMl1bQ0BIXShbQ0gyXTIpT2MoYzIzKVtjSF1bY0hdW2NIXVtjSF0z

> <s_epik_cmdline>
J2VwaWtfcHl0aG9uJywgJy1waCcsICc3LjAnLCAnLXRuJywgJzgnLCAnLW1hJywgJzIwMCcsICctbWV0YWxfYmluZGluZycsICctaW1hZScsICc8aW5maWxlLm1hZT4nLCAnLW9tYWUnLCAnPG91dGZpbGUubWFlPic=

> <r_lp_tautomer_probability>
1

> <r_epik_Ionization_Penalty>
2.00749

> <r_epik_Ionization_Penalty_Charging>
2.26533e-08

> <r_epik_Ionization_Penalty_Neutral>
2.00749

> <r_epik_State_Penalty>
2.13675

> <r_epik_Charging_Adjusted_Penalty>
2.13675

> <i_epik_Tot_Q>
-1

> <i_epik_Tot_abs_Q>
1

> <r_epik_Metal_State_Penalty>
0.0208594

> <b_epik_Metal_Only>
0

> <s_lp_Force_Field>
OPLS_2005

> <r_lp_Energy>
29.9215

> <b_lp_Chiralities_Consistent>
1

> <s_lp_Variant>
AV-unprocessed.smi:2748-4

> <Gold.Version>
5.8.1

> <Gold.Id.Protein>
6NUR|6NUR_protein|mol2

> <Gold.PLP.Fitness>
47.0415

> <Gold.PLP.PLP>
-38.7888

> <Gold.PLP.part.hbond>
-2.0000

> <Gold.PLP.part.metal>
0.0000

> <Gold.PLP.part.buried>
-4.4748

> <Gold.PLP.part.nonpolar>
-33.5286

> <Gold.PLP.part.repulsive>
0.5683

> <Gold.PLP.ligand.clash>
0.0000

> <Gold.PLP.ligand.torsion>
0.2421

> <Gold.PLP.Chemscore.Hbond>
2.9120

> <Gold.PLP.Chemscore.CHOScore>
0.0000

> <Gold.PLP.Chemscore.Metal>
0.0000

> <Gold.Chemscore.Hbonds>
donor molecule, donor type, donor heavy atom, donor atom, acceptor molecule, acceptor atom, score
      P1  H  7997  8009       L1     5  1.00
      P1  H 10752 10763       L1     3  1.98

> <Gold.PLP.Chemscore.Internal.Correction>
0.0009

> <Gold.Rescore>
     Score         DG    S(hbond)    S(metal)    S(lipo)     H(rot)  DE(clash)    DE(int)     intcor
     17.89     -18.49       1.69        0.00      91.34       1.29       0.12       0.47       ----

> <Gold.Chemscore.Fitness>
17.8913

> <Gold.Chemscore.DG>
-18.4869

> <Gold.Chemscore.ZeroCoef>
-5.4800

> <Gold.Chemscore.Hbond>
1.6867

> <Gold.Chemscore.Metal>
0.0000

> <Gold.Chemscore.Lipo>
91.3361

> <Gold.Chemscore.Internal_Hbond>
0.0000

> <Gold.Chemscore.DEClash>
0.1232

> <Gold.Chemscore.DEInternal>
0.4724

> <Gold.Chemscore.Rot>
1.2942

> <Gold.Chemscore.Internal.Correction>
   9.000000E+99

> <Gold.Chemscore.Hbonds>
donor molecule, donor type, donor heavy atom, donor atom, acceptor molecule, acceptor atom, score
      P1  H  7997  8009       L1     5  0.96
      P1  H 10752 10763       L1     3  0.33

> <Gold.Chemscore.Hbond.Weighted>
-5.6336

> <Gold.Chemscore.Metal.Weighted>
-0.0000

> <Gold.Chemscore.Lipo.Weighted>
-10.6863

> <Gold.Chemscore.Internal_Hbond.Weighted>
0.0000

> <Gold.Chemscore.DEClash.Weighted>
0.1232

> <Gold.Chemscore.DEInternal.Weighted>
0.4724

> <Gold.Chemscore.Rot.Weighted>
3.3131

> <Gold.Chemscore.Internal.Correction.Weighted>
   9.000000E+99

> <Gold.Protein.RotatedTorsions>
[ 6907 6896 6895 6894 ] final  169.15 input  -60.11 | X-H torsion
[ 7974 7965 7964 7962 ] final  120.25 input  175.53 | X-H torsion
[ 8008 7997 7996 7995 ] final -139.18 input   59.86 | X-H torsion
[ 10167 10162 10161 10158 ] final  162.84 input  -65.29 | X-H torsion
[ 10718 10713 10712 10709 ] final  -43.82 input   66.30 | X-H torsion
[ 10763 10752 10751 10750 ] final   59.98 input  -60.55 | X-H torsion
[ 11005 11000 10999 10996 ] final  178.42 input  -57.11 | X-H torsion

> <Gold.Protein.ActiveResidues>
 VAL166  LYS551  ARG553  GLY616  TRP617  ASP618  TYR619  PRO620  LYS621  CYS622 
 ASP623  PHE694  ASN695  SER759  ASP760  ASP761  ALA762  ILE779  LEU786  VAL792 
 PHE793  MET794  SER795  GLU796  ALA797  LYS798  CYS799  TRP800  GLU811  SER814 

> <Gold.Protein.RotatedAtoms>
  151.8364  133.3416  159.3629 H   0  0  0  0  0  0  0  0  0  0  0  0  # atno 6907 bound_to 6896
  150.7248  134.5433  159.5767 H   0  0  0  0  0  0  0  0  0  0  0  0  # atno 6908 bound_to 6896
  152.2897  134.7736  160.0431 H   0  0  0  0  0  0  0  0  0  0  0  0  # atno 6909 bound_to 6896
  145.1334  139.3313  143.4653 H   0  0  0  0  0  0  0  0  0  0  0  0  # atno 7974 bound_to 7965
  155.4406  140.0531  157.3010 H   0  0  0  0  0  0  0  0  0  0  0  0  # atno 8008 bound_to 7997
  154.4820  140.2085  155.9700 H   0  0  0  0  0  0  0  0  0  0  0  0  # atno 8009 bound_to 7997
  156.1219  140.3187  155.8225 H   0  0  0  0  0  0  0  0  0  0  0  0  # atno 8010 bound_to 7997
  139.4866  144.4397  151.8967 H   0  0  0  0  0  0  0  0  0  0  0  0  # atno 10167 bound_to 10162
  156.2449  130.4183  149.8716 H   0  0  0  0  0  0  0  0  0  0  0  0  # atno 10718 bound_to 10713
  152.9908  135.5552  154.5800 H   0  0  0  0  0  0  0  0  0  0  0  0  # atno 10763 bound_to 10752
  154.5183  135.2806  155.1286 H   0  0  0  0  0  0  0  0  0  0  0  0  # atno 10764 bound_to 10752
  154.2650  135.6374  153.5341 H   0  0  0  0  0  0  0  0  0  0  0  0  # atno 10765 bound_to 10752
  140.3950  134.6829  157.4529 H   0  0  0  0  0  0  0  0  0  0  0  0  # atno 11005 bound_to 11000
  146.3512  140.1342  142.8596 LP  0  0  0  0  0  0  0  0  0  0  0  0  # atno 17320 bound_to 7965
  145.0610  140.9088  143.4938 LP  0  0  0  0  0  0  0  0  0  0  0  0  # atno 17321 bound_to 7965
  140.3849  144.2690  150.5905 LP  0  0  0  0  0  0  0  0  0  0  0  0  # atno 17342 bound_to 10162
  140.5200  143.2268  151.8404 LP  0  0  0  0  0  0  0  0  0  0  0  0  # atno 17343 bound_to 10162
  156.6285  130.8656  151.3490 LP  0  0  0  0  0  0  0  0  0  0  0  0  # atno 17370 bound_to 10713
  157.7191  130.9535  150.1368 LP  0  0  0  0  0  0  0  0  0  0  0  0  # atno 17371 bound_to 10713
  140.0379  134.6311  155.9020 LP  0  0  0  0  0  0  0  0  0  0  0  0  # atno 17394 bound_to 11000
  141.1877  133.6560  156.5294 LP  0  0  0  0  0  0  0  0  0  0  0  0  # atno 17395 bound_to 11000

$$$$
