AV-unprocessed.smi:961|AV-procd|sdf|4274|dock7
  -GOLD-   22720 2183D 1   1.00000     0.00000
 Structure written by MMmdl.
 37 38  0  0  0  0  0  0  0  0  1 V2000
  151.0383  143.3288  158.2129 C   0  0  0  0  0  0  0  0  0  0  0  0
  151.8164  144.2508  159.1723 C   0  0  0  0  0  0  0  0  0  0  0  0
  152.6963  145.2258  158.3653 C   0  0  0  0  0  0  0  0  0  0  0  0
  150.7896  145.0847  159.9687 C   0  0  0  0  0  0  0  0  0  0  0  0
  152.6817  143.4194  160.0984 C   0  0  0  0  0  0  0  0  0  0  0  0
  152.5609  143.2637  161.4607 C   0  0  0  0  0  0  0  0  0  0  0  0
  153.7836  142.2121  162.1188 S   0  0  0  0  0  0  0  0  0  0  0  0
  154.4254  141.9978  160.4977 C   0  0  0  0  0  0  0  0  0  0  0  0
  155.6315  141.1733  160.1990 C   0  0  0  0  0  0  0  0  0  0  0  0
  155.3057  139.6738  160.1086 C   0  0  0  0  0  0  0  0  0  0  0  0
  155.8215  138.9410  161.2590 N   0  0  0  0  0  0  0  0  0  0  0  0
  155.9172  137.6053  161.3419 C   0  0  0  0  0  0  0  0  0  0  0  0
  155.5697  136.8503  160.4326 O   0  0  0  0  0  0  0  0  0  0  0  0
  156.4869  137.1171  162.6335 C   0  0  0  0  0  0  0  0  0  0  0  0
  155.6513  136.1485  163.4457 C   0  0  0  0  0  0  0  0  0  0  0  0
  155.8186  137.5720  163.9152 C   0  0  0  0  0  0  0  0  0  0  0  0
  153.7588  142.6925  159.5731 N   0  0  0  0  0  0  0  0  0  0  0  0
  150.3957  143.9019  157.5437 H   0  0  0  0  0  0  0  0  0  0  0  0
  150.4037  142.6317  158.7615 H   0  0  0  0  0  0  0  0  0  0  0  0
  151.7100  142.7385  157.5885 H   0  0  0  0  0  0  0  0  0  0  0  0
  153.4161  144.6955  157.7409 H   0  0  0  0  0  0  0  0  0  0  0  0
  153.2590  145.8886  159.0236 H   0  0  0  0  0  0  0  0  0  0  0  0
  152.0946  145.8510  157.7047 H   0  0  0  0  0  0  0  0  0  0  0  0
  150.1657  145.6845  159.3051 H   0  0  0  0  0  0  0  0  0  0  0  0
  151.2807  145.7722  160.6587 H   0  0  0  0  0  0  0  0  0  0  0  0
  150.1222  144.4488  160.5518 H   0  0  0  0  0  0  0  0  0  0  0  0
  151.8299  143.7034  162.1225 H   0  0  0  0  0  0  0  0  0  0  0  0
  156.0642  141.5267  159.2624 H   0  0  0  0  0  0  0  0  0  0  0  0
  156.3787  141.3503  160.9740 H   0  0  0  0  0  0  0  0  0  0  0  0
  154.2256  139.5309  160.0722 H   0  0  0  0  0  0  0  0  0  0  0  0
  155.7065  139.2505  159.1859 H   0  0  0  0  0  0  0  0  0  0  0  0
  156.1284  139.4893  162.0495 H   0  0  0  0  0  0  0  0  0  0  0  0
  157.5668  136.9784  162.6680 H   0  0  0  0  0  0  0  0  0  0  0  0
  154.6731  135.8591  163.0651 H   0  0  0  0  0  0  0  0  0  0  0  0
  156.1850  135.3665  163.9819 H   0  0  0  0  0  0  0  0  0  0  0  0
  156.4658  137.7556  164.7704 H   0  0  0  0  0  0  0  0  0  0  0  0
  154.9506  138.2259  163.8473 H   0  0  0  0  0  0  0  0  0  0  0  0
  1  2  1  0  0  0  0
  1 18  1  0  0  0  0
  1 19  1  0  0  0  0
  1 20  1  0  0  0  0
  2  3  1  0  0  0  0
  2  4  1  0  0  0  0
  2  5  1  0  0  0  0
  3 21  1  0  0  0  0
  3 22  1  0  0  0  0
  3 23  1  0  0  0  0
  4 24  1  0  0  0  0
  4 25  1  0  0  0  0
  4 26  1  0  0  0  0
  5 17  1  0  0  0  0
  5  6  2  0  0  0  0
  6  7  1  0  0  0  0
  6 27  1  0  0  0  0
  7  8  1  0  0  0  0
  8  9  1  0  0  0  0
  8 17  2  0  0  0  0
  9 10  1  0  0  0  0
  9 28  1  0  0  0  0
  9 29  1  0  0  0  0
 10 11  1  0  0  0  0
 10 30  1  0  0  0  0
 10 31  1  0  0  0  0
 11 12  1  0  0  0  0
 11 32  1  0  0  0  0
 12 13  2  0  0  0  0
 12 14  1  0  0  0  0
 14 16  1  0  0  0  0
 14 15  1  0  0  0  0
 14 33  1  0  0  0  0
 15 16  1  0  0  0  0
 15 34  1  0  0  0  0
 15 35  1  0  0  0  0
 16 36  1  0  0  0  0
 16 37  1  0  0  0  0
M  END
> <s_m_source_file>
AV-unprocessed.smi

> <i_m_source_file_index>
961

> <i_lp_mmshare_version>
43012

> <i_f3d_flags>
0

> <s_epik_input>
W0NIM11DKFtDSDNdKShbQ0gzXSljMVtjSF1zYyhuMSlbQ0gyXVtDSDJdW05IXUMoPU8pW0NIXTJbQ0gyXVtDSDJdMg==

> <s_epik_cmdline>
J2VwaWtfcHl0aG9uJywgJy1waCcsICc3LjAnLCAnLXRuJywgJzgnLCAnLW1hJywgJzIwMCcsICctbWV0YWxfYmluZGluZycsICctaW1hZScsICc8aW5maWxlLm1hZT4nLCAnLW9tYWUnLCAnPG91dGZpbGUubWFlPic=

> <r_epik_Ionization_Penalty>
0.000842111

> <r_epik_Ionization_Penalty_Charging>
0

> <r_epik_Ionization_Penalty_Neutral>
0.000842111

> <r_epik_State_Penalty>
0.000542609

> <r_epik_Charging_Adjusted_Penalty>
0.000542609

> <i_epik_Tot_Q>
0

> <i_epik_Tot_abs_Q>
0

> <r_epik_Metal_State_Penalty>
-0

> <b_epik_Metal_Only>
0

> <s_lp_Force_Field>
OPLS_2005

> <r_lp_Energy>
-3.24501

> <b_lp_Chiralities_Consistent>
1

> <s_lp_Variant>
AV-unprocessed.smi:961-1

> <Gold.Version>
5.8.1

> <Gold.Id.Protein>
6NUR|6NUR_protein|mol2

> <Gold.PLP.Fitness>
47.8553

> <Gold.PLP.PLP>
-47.2559

> <Gold.PLP.part.hbond>
-0.7522

> <Gold.PLP.part.metal>
0.0000

> <Gold.PLP.part.buried>
-5.6369

> <Gold.PLP.part.nonpolar>
-41.2225

> <Gold.PLP.part.repulsive>
0.0000

> <Gold.PLP.ligand.clash>
0.0000

> <Gold.PLP.ligand.torsion>
0.8469

> <Gold.PLP.Chemscore.Hbond>
0.7313

> <Gold.PLP.Chemscore.CHOScore>
0.0000

> <Gold.PLP.Chemscore.Metal>
0.0000

> <Gold.PLP.Chemscore.Internal.Correction>
0.0994

> <Gold.Rescore>
     Score         DG    S(hbond)    S(metal)    S(lipo)     H(rot)  DE(clash)    DE(int)     intcor
     18.80     -19.73       1.00        0.00     127.01       1.54       0.00       0.93       ----

> <Gold.Chemscore.Fitness>
18.8049

> <Gold.Chemscore.DG>
-19.7343

> <Gold.Chemscore.ZeroCoef>
-5.4800

> <Gold.Chemscore.Hbond>
0.9961

> <Gold.Chemscore.Metal>
0.0000

> <Gold.Chemscore.Lipo>
127.0129

> <Gold.Chemscore.Internal_Hbond>
0.0000

> <Gold.Chemscore.DEClash>
0.0000

> <Gold.Chemscore.DEInternal>
0.9293

> <Gold.Chemscore.Rot>
1.5364

> <Gold.Chemscore.Internal.Correction>
   9.000000E+99

> <Gold.Chemscore.Hbond.Weighted>
-3.3270

> <Gold.Chemscore.Metal.Weighted>
-0.0000

> <Gold.Chemscore.Lipo.Weighted>
-14.8605

> <Gold.Chemscore.Internal_Hbond.Weighted>
0.0000

> <Gold.Chemscore.DEClash.Weighted>
0.0000

> <Gold.Chemscore.DEInternal.Weighted>
0.9293

> <Gold.Chemscore.Rot.Weighted>
3.9332

> <Gold.Chemscore.Internal.Correction.Weighted>
   9.000000E+99

> <Gold.Protein.RotatedTorsions>
[ 6907 6896 6895 6894 ] final  161.59 input  -60.11 | X-H torsion
[ 7974 7965 7964 7962 ] final  178.88 input  175.53 | X-H torsion
[ 8008 7997 7996 7995 ] final -131.24 input   59.86 | X-H torsion
[ 10167 10162 10161 10158 ] final -150.52 input  -65.29 | X-H torsion
[ 10718 10713 10712 10709 ] final  -65.49 input   66.30 | X-H torsion
[ 10763 10752 10751 10750 ] final -123.62 input  -60.55 | X-H torsion
[ 11005 11000 10999 10996 ] final  146.63 input  -57.11 | X-H torsion

> <Gold.Protein.ActiveResidues>
 VAL166  LYS551  ARG553  GLY616  TRP617  ASP618  TYR619  PRO620  LYS621  CYS622 
 ASP623  PHE694  ASN695  SER759  ASP760  ASP761  ALA762  ILE779  LEU786  VAL792 
 PHE793  MET794  SER795  GLU796  ALA797  LYS798  CYS799  TRP800  GLU811  SER814 

> <Gold.Protein.RotatedAtoms>
  151.9533  133.3672  159.4007 H   0  0  0  0  0  0  0  0  0  0  0  0  # atno 6907 bound_to 6896
  150.6977  134.4317  159.5261 H   0  0  0  0  0  0  0  0  0  0  0  0  # atno 6908 bound_to 6896
  152.1994  134.8601  160.0560 H   0  0  0  0  0  0  0  0  0  0  0  0  # atno 6909 bound_to 6896
  144.7151  140.0464  143.6436 H   0  0  0  0  0  0  0  0  0  0  0  0  # atno 7974 bound_to 7965
  155.3090  140.0456  157.3034 H   0  0  0  0  0  0  0  0  0  0  0  0  # atno 8008 bound_to 7997
  154.5444  140.2298  155.8555 H   0  0  0  0  0  0  0  0  0  0  0  0  # atno 8009 bound_to 7997
  156.1910  140.3050  155.9339 H   0  0  0  0  0  0  0  0  0  0  0  0  # atno 8010 bound_to 7997
  139.7347  143.8754  152.2545 H   0  0  0  0  0  0  0  0  0  0  0  0  # atno 10167 bound_to 10162
  156.0666  130.4248  150.1572 H   0  0  0  0  0  0  0  0  0  0  0  0  # atno 10718 bound_to 10713
  154.8710  135.4092  154.2972 H   0  0  0  0  0  0  0  0  0  0  0  0  # atno 10763 bound_to 10752
  153.3838  135.7012  153.6551 H   0  0  0  0  0  0  0  0  0  0  0  0  # atno 10764 bound_to 10752
  153.5362  135.3657  155.2669 H   0  0  0  0  0  0  0  0  0  0  0  0  # atno 10765 bound_to 10752
  140.0809  134.9098  157.1499 H   0  0  0  0  0  0  0  0  0  0  0  0  # atno 11005 bound_to 11000
  145.9981  139.3068  143.0944 LP  0  0  0  0  0  0  0  0  0  0  0  0  # atno 17320 bound_to 7965
  145.8826  140.9353  143.0593 LP  0  0  0  0  0  0  0  0  0  0  0  0  # atno 17321 bound_to 7965
  139.8687  144.7079  150.9013 LP  0  0  0  0  0  0  0  0  0  0  0  0  # atno 17342 bound_to 10162
  140.7777  143.3756  151.1569 LP  0  0  0  0  0  0  0  0  0  0  0  0  # atno 17343 bound_to 10162
  156.9630  130.9811  151.3475 LP  0  0  0  0  0  0  0  0  0  0  0  0  # atno 17370 bound_to 10713
  157.5712  130.8312  149.8394 LP  0  0  0  0  0  0  0  0  0  0  0  0  # atno 17371 bound_to 10713
  140.3489  134.2620  155.7201 LP  0  0  0  0  0  0  0  0  0  0  0  0  # atno 17394 bound_to 11000
  141.2046  133.7882  157.0277 LP  0  0  0  0  0  0  0  0  0  0  0  0  # atno 17395 bound_to 11000

$$$$
