AV-unprocessed.smi:114|AV-procd|sdf|1117|dock3
  -GOLD-   2262018233D 1   1.00000     0.00000
 Structure written by MMmdl.
 32 34  0  0  0  0  0  0  0  0  1 V2000
  150.5787  138.3768  153.0554 N   0  0  0  0  0  0  0  0  0  0  0  0
  150.8000  138.4933  154.3726 C   0  0  0  0  0  0  0  0  0  0  0  0
  151.1581  137.3873  155.0649 N   0  0  0  0  0  0  0  0  0  0  0  0
  151.3903  137.4601  156.3808 C   0  0  0  0  0  0  0  0  0  0  0  0
  151.7416  136.3059  156.9948 F   0  0  0  0  0  0  0  0  0  0  0  0
  151.3120  138.5450  157.1584 N   0  0  0  0  0  0  0  0  0  0  0  0
  150.9512  139.6644  156.4669 C   0  0  0  0  0  0  0  0  0  0  0  0
  150.6780  139.7185  155.0731 C   0  0  0  0  0  0  0  0  0  0  0  0
  150.3421  141.0136  154.7055 N   0  0  0  0  0  0  0  0  0  0  0  0
  150.4188  141.6852  155.8228 C   0  0  0  0  0  0  0  0  0  0  0  0
  150.7717  140.9524  156.9354 N   0  0  0  0  0  0  0  0  0  0  0  0
  150.9545  141.4681  158.3301 C   0  0  2  0  0  0  0  0  0  0  0  0
  150.4370  142.7648  158.3866 O   0  0  0  0  0  0  0  0  0  0  0  0
  151.4649  143.7081  158.6864 C   0  0  1  0  0  0  0  0  0  0  0  0
  150.8966  144.9272  159.4345 C   0  0  0  0  0  0  0  0  0  0  0  0
  150.3099  144.5190  160.6520 O   0  0  0  0  0  0  0  0  0  0  0  0
  152.4990  142.8775  159.4573 C   0  0  1  0  0  0  0  0  0  0  0  0
  152.1335  142.7710  160.8248 O   0  0  0  0  0  0  0  0  0  0  0  0
  152.4361  141.5376  158.7306 C   0  0  1  0  0  0  0  0  0  0  0  0
  152.8473  140.4697  159.5638 O   0  0  0  0  0  0  0  0  0  0  0  0
  150.3586  140.8099  158.9639 H   0  0  0  0  0  0  0  0  0  0  0  0
  151.9290  144.0373  157.7568 H   0  0  0  0  0  0  0  0  0  0  0  0
  153.4950  143.3185  159.4036 H   0  0  0  0  0  0  0  0  0  0  0  0
  153.0660  141.5723  157.8416 H   0  0  0  0  0  0  0  0  0  0  0  0
  150.3111  139.1878  152.5165 H   0  0  0  0  0  0  0  0  0  0  0  0
  150.6869  137.4802  152.6036 H   0  0  0  0  0  0  0  0  0  0  0  0
  150.2187  142.7462  155.8654 H   0  0  0  0  0  0  0  0  0  0  0  0
  151.6670  145.6766  159.6194 H   0  0  0  0  0  0  0  0  0  0  0  0
  150.1149  145.4016  158.8406 H   0  0  0  0  0  0  0  0  0  0  0  0
  149.3774  144.4361  160.5233 H   0  0  0  0  0  0  0  0  0  0  0  0
  151.8268  141.8906  160.9813 H   0  0  0  0  0  0  0  0  0  0  0  0
  152.4078  140.5543  160.3963 H   0  0  0  0  0  0  0  0  0  0  0  0
  1  2  1  0  0  0  0
  1 25  1  0  0  0  0
  1 26  1  0  0  0  0
  2  8  1  0  0  0  0
  2  3  2  0  0  0  0
  3  4  1  0  0  0  0
  4  5  1  0  0  0  0
  4  6  2  0  0  0  0
  6  7  1  0  0  0  0
  7 11  1  0  0  0  0
  7  8  2  0  0  0  0
  8  9  1  0  0  0  0
  9 10  2  0  0  0  0
 10 11  1  0  0  0  0
 10 27  1  0  0  0  0
 11 12  1  0  0  0  0
 12 21  1  0  0  0  0
 12 19  1  0  0  0  0
 12 13  1  0  0  0  0
 13 14  1  0  0  0  0
 14 22  1  0  0  0  0
 14 15  1  0  0  0  0
 14 17  1  0  0  0  0
 15 16  1  0  0  0  0
 15 28  1  0  0  0  0
 15 29  1  0  0  0  0
 16 30  1  0  0  0  0
 17 23  1  0  0  0  0
 17 18  1  0  0  0  0
 17 19  1  0  0  0  0
 18 31  1  0  0  0  0
 19 24  1  0  0  0  0
 19 20  1  0  0  0  0
 20 32  1  0  0  0  0
M  END
> <s_m_source_file>
AV-unprocessed.smi

> <i_m_source_file_index>
114

> <i_lp_mmshare_version>
43012

> <i_f3d_flags>
0

> <s_epik_input>
RmMobjEpbmMoW05IMl0pYyhjMTIpbltjSF1uMltDQEBIXTNPW0NASF0oW0NIMl1bT0hdKVtDQEBIXShbT0hdKVtDQEBIXTNbT0hd

> <s_epik_cmdline>
J2VwaWtfcHl0aG9uJywgJy1waCcsICc3LjAnLCAnLXRuJywgJzgnLCAnLW1hJywgJzIwMCcsICctbWV0YWxfYmluZGluZycsICctaW1hZScsICc8aW5maWxlLm1hZT4nLCAnLW9tYWUnLCAnPG91dGZpbGUubWFlPic=

> <r_lp_tautomer_probability>
1

> <r_epik_Ionization_Penalty>
1.13199e-05

> <r_epik_Ionization_Penalty_Charging>
0

> <r_epik_Ionization_Penalty_Neutral>
1.13199e-05

> <r_epik_State_Penalty>
-0

> <r_epik_Charging_Adjusted_Penalty>
0

> <i_epik_Tot_Q>
0

> <i_epik_Tot_abs_Q>
0

> <r_epik_Metal_State_Penalty>
-0

> <b_epik_Metal_Only>
0

> <s_epik_Chemistry_Notes>
This compound contains an acetal/aminal-like group ( X-CH(R)-Y where X, Y are N, S, or O) that may be acid/base labile, releasing an aldehyde.

> <s_lp_Force_Field>
OPLS_2005

> <r_lp_Energy>
42.9568

> <b_lp_Chiralities_Consistent>
1

> <s_lp_Variant>
AV-unprocessed.smi:114-11

> <Gold.Version>
5.8.1

> <Gold.Id.Protein>
6NUR|6NUR_protein|mol2

> <Gold.PLP.Fitness>
42.9015

> <Gold.PLP.PLP>
-33.0622

> <Gold.PLP.part.hbond>
-5.2121

> <Gold.PLP.part.metal>
0.0000

> <Gold.PLP.part.buried>
-3.9285

> <Gold.PLP.part.nonpolar>
-24.2882

> <Gold.PLP.part.repulsive>
0.3514

> <Gold.PLP.ligand.clash>
0.0000

> <Gold.PLP.ligand.torsion>
0.2650

> <Gold.PLP.Chemscore.Hbond>
2.4967

> <Gold.PLP.Chemscore.CHOScore>
0.9571

> <Gold.PLP.Chemscore.Metal>
0.0000

> <Gold.Chemscore.Hbonds>
donor molecule, donor type, donor heavy atom, donor atom, acceptor molecule, acceptor atom, score
      L1  H     1    25       P1  7957  1.00
      L1  H     1    26       P1  7949  0.55
      P1  H  7989  7998       L1     9  0.24
      L1  C    10    27       P1  8028  1.00

> <Gold.PLP.Chemscore.Internal.Correction>
0.0076

> <Gold.Rescore>
     Score         DG    S(hbond)    S(metal)    S(lipo)     H(rot)  DE(clash)    DE(int)     intcor
      7.45      -8.00       2.12        0.00      49.14       4.03       0.02       0.52       ----

> <Gold.Chemscore.Fitness>
7.4534

> <Gold.Chemscore.DG>
-8.0011

> <Gold.Chemscore.ZeroCoef>
-5.4800

> <Gold.Chemscore.Hbond>
2.1205

> <Gold.Chemscore.Metal>
0.0000

> <Gold.Chemscore.Lipo>
49.1403

> <Gold.Chemscore.Internal_Hbond>
0.0000

> <Gold.Chemscore.DEClash>
0.0246

> <Gold.Chemscore.DEInternal>
0.5231

> <Gold.Chemscore.Rot>
4.0277

> <Gold.Chemscore.Internal.Correction>
   9.000000E+99

> <Gold.Chemscore.Hbonds>
donor molecule, donor type, donor heavy atom, donor atom, acceptor molecule, acceptor atom, score
      L1  H     1    25       P1  7957  0.44
      L1  H     1    26       P1  7949  0.03

> <Gold.Chemscore.Hbond.Weighted>
-7.0826

> <Gold.Chemscore.Metal.Weighted>
-0.0000

> <Gold.Chemscore.Lipo.Weighted>
-5.7494

> <Gold.Chemscore.Internal_Hbond.Weighted>
0.0000

> <Gold.Chemscore.DEClash.Weighted>
0.0246

> <Gold.Chemscore.DEInternal.Weighted>
0.5231

> <Gold.Chemscore.Rot.Weighted>
10.3110

> <Gold.Chemscore.Internal.Correction.Weighted>
   9.000000E+99

> <Gold.Protein.RotatedTorsions>
[ 6907 6896 6895 6894 ] final   63.96 input  -60.11 | X-H torsion
[ 7974 7965 7964 7962 ] final   31.51 input  175.53 | X-H torsion
[ 8008 7997 7996 7995 ] final   23.17 input   59.86 | X-H torsion
[ 10167 10162 10161 10158 ] final   34.93 input  -65.29 | X-H torsion
[ 10718 10713 10712 10709 ] final -133.78 input   66.30 | X-H torsion
[ 10763 10752 10751 10750 ] final -174.96 input  -60.55 | X-H torsion
[ 11005 11000 10999 10996 ] final  156.91 input  -57.11 | X-H torsion

> <Gold.Protein.ActiveResidues>
 VAL166  LYS551  ARG553  GLY616  TRP617  ASP618  TYR619  PRO620  LYS621  CYS622 
 ASP623  PHE694  ASN695  SER759  ASP760  ASP761  ALA762  ILE779  LEU786  VAL792 
 PHE793  MET794  SER795  GLU796  ALA797  LYS798  CYS799  TRP800  GLU811  SER814 

> <Gold.Protein.RotatedAtoms>
  152.4294  134.5806  159.9946 H   0  0  0  0  0  0  0  0  0  0  0  0  # atno 6907 bound_to 6896
  151.5934  133.3358  159.3040 H   0  0  0  0  0  0  0  0  0  0  0  0  # atno 6908 bound_to 6896
  150.8186  134.7417  159.6817 H   0  0  0  0  0  0  0  0  0  0  0  0  # atno 6909 bound_to 6896
  146.1545  139.6647  142.9076 H   0  0  0  0  0  0  0  0  0  0  0  0  # atno 7974 bound_to 7965
  154.9769  140.3097  155.4963 H   0  0  0  0  0  0  0  0  0  0  0  0  # atno 8008 bound_to 7997
  156.2958  140.2273  156.4805 H   0  0  0  0  0  0  0  0  0  0  0  0  # atno 8009 bound_to 7997
  154.7825  140.0445  157.1126 H   0  0  0  0  0  0  0  0  0  0  0  0  # atno 8010 bound_to 7997
  140.4269  144.1380  150.6154 H   0  0  0  0  0  0  0  0  0  0  0  0  # atno 10167 bound_to 10162
  156.2485  130.7139  151.1029 H   0  0  0  0  0  0  0  0  0  0  0  0  # atno 10718 bound_to 10713
  154.5900  135.2844  155.0645 H   0  0  0  0  0  0  0  0  0  0  0  0  # atno 10763 bound_to 10752
  154.1949  135.6434  153.5074 H   0  0  0  0  0  0  0  0  0  0  0  0  # atno 10764 bound_to 10752
  153.0118  135.5455  154.6583 H   0  0  0  0  0  0  0  0  0  0  0  0  # atno 10765 bound_to 10752
  140.1719  134.8537  157.2700 H   0  0  0  0  0  0  0  0  0  0  0  0  # atno 11005 bound_to 11000
  145.4741  141.0437  143.2682 LP  0  0  0  0  0  0  0  0  0  0  0  0  # atno 17320 bound_to 7965
  144.7946  139.6260  143.7098 LP  0  0  0  0  0  0  0  0  0  0  0  0  # atno 17321 bound_to 7965
  140.4471  143.2502  151.9397 LP  0  0  0  0  0  0  0  0  0  0  0  0  # atno 17342 bound_to 10162
  139.4784  144.5598  151.8256 LP  0  0  0  0  0  0  0  0  0  0  0  0  # atno 17343 bound_to 10162
  157.7205  131.0684  150.6155 LP  0  0  0  0  0  0  0  0  0  0  0  0  # atno 17370 bound_to 10713
  156.6234  130.4412  149.5814 LP  0  0  0  0  0  0  0  0  0  0  0  0  # atno 17371 bound_to 10713
  140.2367  134.3844  155.7498 LP  0  0  0  0  0  0  0  0  0  0  0  0  # atno 17394 bound_to 11000
  141.2218  133.7243  156.8726 LP  0  0  0  0  0  0  0  0  0  0  0  0  # atno 17395 bound_to 11000

$$$$
