AV-unprocessed.smi:36|AV-procd|sdf|293|dock5
  -GOLD-   2262016 83D 1   1.00000     0.00000
 Structure written by MMmdl.
 64 67  0  0  0  0  0  0  0  0  1 V2000
  146.6675  134.4988  162.3670 C   0  0  0  0  0  0  0  0  0  0  0  0
  146.8676  135.2008  161.0136 C   0  0  0  0  0  0  0  0  0  0  0  0
  145.7558  136.2404  160.7948 C   0  0  0  0  0  0  0  0  0  0  0  0
  148.2397  135.8947  160.9827 C   0  0  0  0  0  0  0  0  0  0  0  0
  146.7953  133.9058  159.6107 Si  0  0  0  0  0  0  0  0  0  0  0  0
  147.8990  132.4097  160.0074 C   0  0  0  0  0  0  0  0  0  0  0  0
  145.0131  133.3169  159.3141 C   0  0  0  0  0  0  0  0  0  0  0  0
  147.3509  134.6389  158.1883 O   0  0  0  0  0  0  0  0  0  0  0  0
  148.7074  134.9496  157.9385 C   0  0  0  0  0  0  0  0  0  0  0  0
  149.0483  134.6253  156.4695 C   0  0  2  0  0  0  0  0  0  0  0  0
  150.3641  135.1236  156.2146 O   0  0  0  0  0  0  0  0  0  0  0  0
  150.3157  136.2413  155.3759 C   0  0  2  0  0  0  0  0  0  0  0  0
  151.1413  137.3348  155.9686 N   0  0  0  0  0  0  0  0  0  0  0  0
  151.8390  138.2906  155.3244 C   0  0  0  0  0  0  0  0  0  0  0  0
  152.5017  139.1370  156.1097 N   0  0  0  0  0  0  0  0  0  0  0  0
  152.1957  138.6731  157.3852 C   0  0  0  0  0  0  0  0  0  0  0  0
  152.6172  139.1694  158.7135 C   0  0  0  0  0  0  0  0  0  0  0  0
  153.3973  140.2069  158.7514 N   0  0  0  0  0  0  0  0  0  0  0  0
  153.8170  140.7195  159.9726 C   0  0  0  0  0  0  0  0  0  0  0  0
  154.6734  140.2766  160.7432 O   0  0  0  0  0  0  0  0  0  0  0  0
  153.1577  142.0120  160.3307 C   0  0  0  0  0  0  0  0  0  0  0  0
  152.7887  142.9248  159.3195 C   0  0  0  0  0  0  0  0  0  0  0  0
  152.1686  144.1431  159.6593 C   0  0  0  0  0  0  0  0  0  0  0  0
  151.9149  144.4524  161.0094 C   0  0  0  0  0  0  0  0  0  0  0  0
  152.2836  143.5444  162.0210 C   0  0  0  0  0  0  0  0  0  0  0  0
  152.9054  142.3265  161.6829 C   0  0  0  0  0  0  0  0  0  0  0  0
  152.0555  138.3712  159.7189 N   0  0  0  0  0  0  0  0  0  0  0  0
  151.2173  137.2631  159.5195 C   0  0  0  0  0  0  0  0  0  0  0  0
  150.8364  136.8148  158.3531 N   0  0  0  0  0  0  0  0  0  0  0  0
  151.3666  137.5741  157.3197 C   0  0  0  0  0  0  0  0  0  0  0  0
  148.8558  136.6722  155.2861 C   0  0  0  0  0  0  0  0  0  0  0  0
  148.1723  135.3319  155.4214 C   0  0  2  0  0  0  0  0  0  0  0  0
  146.8114  135.4639  155.7794 O   0  0  0  0  0  0  0  0  0  0  0  0
  146.7006  135.2120  163.1913 H   0  0  0  0  0  0  0  0  0  0  0  0
  147.4427  133.7537  162.5469 H   0  0  0  0  0  0  0  0  0  0  0  0
  145.7045  133.9892  162.4128 H   0  0  0  0  0  0  0  0  0  0  0  0
  144.7691  135.7772  160.8133 H   0  0  0  0  0  0  0  0  0  0  0  0
  145.8661  136.7416  159.8325 H   0  0  0  0  0  0  0  0  0  0  0  0
  145.7719  137.0077  161.5697 H   0  0  0  0  0  0  0  0  0  0  0  0
  148.3156  136.6582  161.7577 H   0  0  0  0  0  0  0  0  0  0  0  0
  148.4161  136.3805  160.0224 H   0  0  0  0  0  0  0  0  0  0  0  0
  149.0497  135.1830  161.1443 H   0  0  0  0  0  0  0  0  0  0  0  0
  147.5735  131.9032  160.9157 H   0  0  0  0  0  0  0  0  0  0  0  0
  148.9378  132.7038  160.1545 H   0  0  0  0  0  0  0  0  0  0  0  0
  147.8802  131.6749  159.2029 H   0  0  0  0  0  0  0  0  0  0  0  0
  144.5926  132.8476  160.2030 H   0  0  0  0  0  0  0  0  0  0  0  0
  144.9632  132.5852  158.5080 H   0  0  0  0  0  0  0  0  0  0  0  0
  144.3581  134.1438  159.0410 H   0  0  0  0  0  0  0  0  0  0  0  0
  148.8647  136.0072  158.1509 H   0  0  0  0  0  0  0  0  0  0  0  0
  149.3412  134.3916  158.6277 H   0  0  0  0  0  0  0  0  0  0  0  0
  149.0190  133.5476  156.3114 H   0  0  0  0  0  0  0  0  0  0  0  0
  150.7702  136.0144  154.4107 H   0  0  0  0  0  0  0  0  0  0  0  0
  151.8656  138.3693  154.2475 H   0  0  0  0  0  0  0  0  0  0  0  0
  152.9802  142.6945  158.2814 H   0  0  0  0  0  0  0  0  0  0  0  0
  151.8878  144.8402  158.8838 H   0  0  0  0  0  0  0  0  0  0  0  0
  151.4392  145.3865  161.2690 H   0  0  0  0  0  0  0  0  0  0  0  0
  152.0890  143.7819  163.0564 H   0  0  0  0  0  0  0  0  0  0  0  0
  153.1856  141.6355  162.4650 H   0  0  0  0  0  0  0  0  0  0  0  0
  150.8917  136.7819  160.4426 H   0  0  0  0  0  0  0  0  0  0  0  0
  148.6085  137.3296  156.1218 H   0  0  0  0  0  0  0  0  0  0  0  0
  148.6500  137.1867  154.3470 H   0  0  0  0  0  0  0  0  0  0  0  0
  148.2370  134.7970  154.4726 H   0  0  0  0  0  0  0  0  0  0  0  0
  146.3609  134.6666  155.5462 H   0  0  0  0  0  0  0  0  0  0  0  0
  152.2754  138.6160  160.6737 H   0  0  0  0  0  0  0  0  0  0  0  0
  1  2  1  0  0  0  0
  1 34  1  0  0  0  0
  1 35  1  0  0  0  0
  1 36  1  0  0  0  0
  2  3  1  0  0  0  0
  2  4  1  0  0  0  0
  2  5  1  0  0  0  0
  3 37  1  0  0  0  0
  3 38  1  0  0  0  0
  3 39  1  0  0  0  0
  4 40  1  0  0  0  0
  4 41  1  0  0  0  0
  4 42  1  0  0  0  0
  5  6  1  0  0  0  0
  5  7  1  0  0  0  0
  5  8  1  0  0  0  0
  6 43  1  0  0  0  0
  6 44  1  0  0  0  0
  6 45  1  0  0  0  0
  7 46  1  0  0  0  0
  7 47  1  0  0  0  0
  7 48  1  0  0  0  0
  8  9  1  0  0  0  0
  9 10  1  0  0  0  0
  9 49  1  0  0  0  0
  9 50  1  0  0  0  0
 10 32  1  0  0  0  0
 10 11  1  0  0  0  0
 10 51  1  0  0  0  0
 11 12  1  0  0  0  0
 12 13  1  0  0  0  0
 12 31  1  0  0  0  0
 12 52  1  0  0  0  0
 13 30  1  0  0  0  0
 13 14  1  0  0  0  0
 14 15  2  0  0  0  0
 14 53  1  0  0  0  0
 15 16  1  0  0  0  0
 16 30  2  0  0  0  0
 16 17  1  0  0  0  0
 17 18  2  0  0  0  0
 17 27  1  0  0  0  0
 18 19  1  0  0  0  0
 19 20  2  0  0  0  0
 19 21  1  0  0  0  0
 21 26  1  0  0  0  0
 21 22  2  0  0  0  0
 22 23  1  0  0  0  0
 22 54  1  0  0  0  0
 23 24  2  0  0  0  0
 23 55  1  0  0  0  0
 24 25  1  0  0  0  0
 24 56  1  0  0  0  0
 25 26  2  0  0  0  0
 25 57  1  0  0  0  0
 26 58  1  0  0  0  0
 27 28  1  0  0  0  0
 27 64  1  0  0  0  0
 28 29  2  0  0  0  0
 28 59  1  0  0  0  0
 29 30  1  0  0  0  0
 31 32  1  0  0  0  0
 31 60  1  0  0  0  0
 31 61  1  0  0  0  0
 32 33  1  0  0  0  0
 32 62  1  0  0  0  0
 33 63  1  0  0  0  0
M  END
> <s_m_source_file>
AV-unprocessed.smi

> <i_m_source_file_index>
36

> <i_lp_mmshare_version>
43012

> <i_f3d_flags>
0

> <s_epik_input>
W0NIM11DKFtDSDNdKShbQ0gzXSlbU2ldKFtDSDNdKShbQ0gzXSlPW0NIMl1bQ0BASF0xT1tDQEhdKFtDSDJdW0NASF0xW09IXSluKFtjSF1uMiljKGMyMyluW2NIXW5jM1tOSF1DKD1PKWM0W2NIXVtjSF1bY0hdW2NIXVtjSF00

> <s_epik_cmdline>
J2VwaWtfcHl0aG9uJywgJy1waCcsICc3LjAnLCAnLXRuJywgJzgnLCAnLW1hJywgJzIwMCcsICctbWV0YWxfYmluZGluZycsICctaW1hZScsICc8aW5maWxlLm1hZT4nLCAnLW9tYWUnLCAnPG91dGZpbGUubWFlPic=

> <r_epik_Ionization_Penalty>
0.0850405

> <r_epik_Ionization_Penalty_Charging>
0.0850403

> <r_epik_Ionization_Penalty_Neutral>
1.47497e-07

> <r_epik_State_Penalty>
2.6133

> <r_epik_Charging_Adjusted_Penalty>
2.69834

> <i_epik_Tot_Q>
0

> <i_epik_Tot_abs_Q>
0

> <r_epik_Metal_State_Penalty>
2.92945

> <b_epik_Metal_Only>
0

> <s_epik_Chemistry_Notes>
This compound contains an acetal/aminal-like group ( X-CH(R)-Y where X, Y are N, S, or O) that may be acid/base labile, releasing an aldehyde.

> <s_lp_Force_Field>
OPLS_2005

> <r_lp_Energy>
48.5801

> <b_lp_Chiralities_Consistent>
1

> <s_lp_Variant>
AV-unprocessed.smi:36-15

> <Gold.Version>
5.8.1

> <Gold.Id.Protein>
6NUR|6NUR_protein|mol2

> <Gold.PLP.Fitness>
49.9430

> <Gold.PLP.PLP>
-52.4113

> <Gold.PLP.part.hbond>
-2.1837

> <Gold.PLP.part.metal>
0.0000

> <Gold.PLP.part.buried>
-6.2139

> <Gold.PLP.part.nonpolar>
-44.6686

> <Gold.PLP.part.repulsive>
0.1236

> <Gold.PLP.ligand.clash>
0.0000

> <Gold.PLP.ligand.torsion>
2.6711

> <Gold.PLP.Chemscore.Hbond>
0.8160

> <Gold.PLP.Chemscore.CHOScore>
0.0000

> <Gold.PLP.Chemscore.Metal>
0.0000

> <Gold.Chemscore.Hbonds>
donor molecule, donor type, donor heavy atom, donor atom, acceptor molecule, acceptor atom, score
      P1  H  7997  8010       L1    18  0.83

> <Gold.PLP.Chemscore.Internal.Correction>
0.4259

> <Gold.Rescore>
     Score         DG    S(hbond)    S(metal)    S(lipo)     H(rot)  DE(clash)    DE(int)     intcor
      8.91     -15.68       0.85        0.00     122.07       2.70       0.38       6.39       ----

> <Gold.Chemscore.Fitness>
8.9094

> <Gold.Chemscore.DG>
-15.6776

> <Gold.Chemscore.ZeroCoef>
-5.4800

> <Gold.Chemscore.Hbond>
0.8496

> <Gold.Chemscore.Metal>
0.0000

> <Gold.Chemscore.Lipo>
122.0719

> <Gold.Chemscore.Internal_Hbond>
0.0000

> <Gold.Chemscore.DEClash>
0.3796

> <Gold.Chemscore.DEInternal>
6.3886

> <Gold.Chemscore.Rot>
2.7041

> <Gold.Chemscore.Internal.Correction>
   9.000000E+99

> <Gold.Chemscore.Hbonds>
donor molecule, donor type, donor heavy atom, donor atom, acceptor molecule, acceptor atom, score
      P1  H  7997  8010       L1    18  0.49

> <Gold.Chemscore.Hbond.Weighted>
-2.8377

> <Gold.Chemscore.Metal.Weighted>
-0.0000

> <Gold.Chemscore.Lipo.Weighted>
-14.2824

> <Gold.Chemscore.Internal_Hbond.Weighted>
0.0000

> <Gold.Chemscore.DEClash.Weighted>
0.3796

> <Gold.Chemscore.DEInternal.Weighted>
6.3886

> <Gold.Chemscore.Rot.Weighted>
6.9225

> <Gold.Chemscore.Internal.Correction.Weighted>
   9.000000E+99

> <Gold.Protein.RotatedTorsions>
[ 6907 6896 6895 6894 ] final  151.90 input  -60.11 | X-H torsion
[ 7974 7965 7964 7962 ] final -143.66 input  175.53 | X-H torsion
[ 8008 7997 7996 7995 ] final   23.12 input   59.86 | X-H torsion
[ 10167 10162 10161 10158 ] final -145.34 input  -65.29 | X-H torsion
[ 10718 10713 10712 10709 ] final    4.94 input   66.30 | X-H torsion
[ 10763 10752 10751 10750 ] final  -26.85 input  -60.55 | X-H torsion
[ 11005 11000 10999 10996 ] final   83.26 input  -57.11 | X-H torsion

> <Gold.Protein.ActiveResidues>
 VAL166  LYS551  ARG553  GLY616  TRP617  ASP618  TYR619  PRO620  LYS621  CYS622 
 ASP623  PHE694  ASN695  SER759  ASP760  ASP761  ALA762  ILE779  LEU786  VAL792 
 PHE793  MET794  SER795  GLU796  ALA797  LYS798  CYS799  TRP800  GLU811  SER814 

> <Gold.Protein.RotatedAtoms>
  152.0943  133.4216  159.4557 H   0  0  0  0  0  0  0  0  0  0  0  0  # atno 6907 bound_to 6896
  150.6863  134.2835  159.4646 H   0  0  0  0  0  0  0  0  0  0  0  0  # atno 6908 bound_to 6896
  152.0689  134.9545  160.0625 H   0  0  0  0  0  0  0  0  0  0  0  0  # atno 6909 bound_to 6896
  144.8353  140.5807  143.5488 H   0  0  0  0  0  0  0  0  0  0  0  0  # atno 7974 bound_to 7965
  154.9760  140.3096  155.4967 H   0  0  0  0  0  0  0  0  0  0  0  0  # atno 8008 bound_to 7997
  156.2959  140.2275  156.4795 H   0  0  0  0  0  0  0  0  0  0  0  0  # atno 8009 bound_to 7997
  154.7833  140.0444  157.1132 H   0  0  0  0  0  0  0  0  0  0  0  0  # atno 8010 bound_to 7997
  139.7815  143.8094  152.2639 H   0  0  0  0  0  0  0  0  0  0  0  0  # atno 10167 bound_to 10162
  156.9000  130.5718  149.5648 H   0  0  0  0  0  0  0  0  0  0  0  0  # atno 10718 bound_to 10713
  153.7226  135.6944  153.5009 H   0  0  0  0  0  0  0  0  0  0  0  0  # atno 10763 bound_to 10752
  153.2192  135.4375  155.0469 H   0  0  0  0  0  0  0  0  0  0  0  0  # atno 10764 bound_to 10752
  154.8279  135.3456  154.6759 H   0  0  0  0  0  0  0  0  0  0  0  0  # atno 10765 bound_to 10752
  139.9037  134.8131  156.2285 H   0  0  0  0  0  0  0  0  0  0  0  0  # atno 11005 bound_to 11000
  145.4807  139.1495  143.3763 LP  0  0  0  0  0  0  0  0  0  0  0  0  # atno 17320 bound_to 7965
  146.2653  140.4943  142.8837 LP  0  0  0  0  0  0  0  0  0  0  0  0  # atno 17321 bound_to 7965
  139.8158  144.7317  150.9637 LP  0  0  0  0  0  0  0  0  0  0  0  0  # atno 17342 bound_to 10162
  140.7818  143.4206  151.0847 LP  0  0  0  0  0  0  0  0  0  0  0  0  # atno 17343 bound_to 10162
  156.0586  130.5643  150.9146 LP  0  0  0  0  0  0  0  0  0  0  0  0  # atno 17370 bound_to 10713
  157.6032  131.0940  150.8925 LP  0  0  0  0  0  0  0  0  0  0  0  0  # atno 17371 bound_to 10713
  141.0361  133.6963  156.1514 LP  0  0  0  0  0  0  0  0  0  0  0  0  # atno 17394 bound_to 11000
  140.7025  134.4548  157.5585 LP  0  0  0  0  0  0  0  0  0  0  0  0  # atno 17395 bound_to 11000

$$$$
