AV-unprocessed.smi:1725|AV-procd|sdf|6954|dock2
  -GOLD-   22720 8163D 1   1.00000     0.00000
 Structure written by MMmdl.
 36 37  0  0  0  0  0  0  0  0  1 V2000
  152.6058  137.5463  156.0833 C   0  0  0  0  0  0  0  0  0  0  0  0
  151.3653  137.9241  155.2601 C   0  0  1  0  0  0  0  0  0  0  0  0
  150.3050  137.0642  155.6672 O   0  0  0  0  0  0  0  0  0  0  0  0
  150.5668  135.6690  155.5512 C   0  0  0  0  0  0  0  0  0  0  0  0
  149.3553  134.9291  155.0140 C   0  0  0  0  0  0  0  0  0  0  0  0
  149.0105  133.5396  155.5090 C   0  0  0  0  0  0  0  0  0  0  0  0
  149.5127  133.7286  154.1032 C   0  0  0  0  0  0  0  0  0  0  0  0
  150.9726  139.3948  155.4771 C   0  0  0  0  0  0  0  0  0  0  0  0
  150.7647  140.1151  154.5012 O   0  0  0  0  0  0  0  0  0  0  0  0
  150.8835  139.7843  156.7645 N   0  0  0  0  0  0  0  0  0  0  0  0
  150.5854  141.0487  157.3010 C   0  0  0  0  0  0  0  0  0  0  0  0
  151.4762  141.8601  157.9295 C   0  0  0  0  0  0  0  0  0  0  0  0
  151.0951  143.1557  158.4665 C   0  0  0  0  0  0  0  0  0  0  0  0
  152.0903  144.0287  159.2153 C   0  0  0  0  0  0  0  0  0  0  0  0
  151.7095  144.1618  160.4849 F   0  0  0  0  0  0  0  0  0  0  0  0
  153.3123  143.4947  159.2015 F   0  0  0  0  0  0  0  0  0  0  0  0
  152.1593  145.2450  158.6739 F   0  0  0  0  0  0  0  0  0  0  0  0
  149.8013  143.5026  158.3362 C   0  0  0  0  0  0  0  0  0  0  0  0
  148.8793  142.6755  157.6912 N   0  0  0  0  0  0  0  0  0  0  0  0
  149.1800  141.4668  157.1657 C   0  0  0  0  0  0  0  0  0  0  0  0
  148.3071  140.7929  156.6194 O   0  0  0  0  0  0  0  0  0  0  0  0
  147.9293  143.0115  157.6247 H   0  0  0  0  0  0  0  0  0  0  0  0
  153.4556  138.1831  155.8348 H   0  0  0  0  0  0  0  0  0  0  0  0
  152.8991  136.5149  155.8868 H   0  0  0  0  0  0  0  0  0  0  0  0
  152.4205  137.6352  157.1546 H   0  0  0  0  0  0  0  0  0  0  0  0
  151.5896  137.7493  154.2059 H   0  0  0  0  0  0  0  0  0  0  0  0
  151.4070  135.4804  154.8824 H   0  0  0  0  0  0  0  0  0  0  0  0
  150.8221  135.2546  156.5273 H   0  0  0  0  0  0  0  0  0  0  0  0
  148.5092  135.5790  154.7995 H   0  0  0  0  0  0  0  0  0  0  0  0
  149.6831  133.0677  156.2228 H   0  0  0  0  0  0  0  0  0  0  0  0
  147.9569  133.3007  155.6375 H   0  0  0  0  0  0  0  0  0  0  0  0
  148.7933  133.6156  153.2947 H   0  0  0  0  0  0  0  0  0  0  0  0
  150.5196  133.3820  153.8792 H   0  0  0  0  0  0  0  0  0  0  0  0
  151.0254  139.0615  157.4554 H   0  0  0  0  0  0  0  0  0  0  0  0
  152.5034  141.5640  158.0627 H   0  0  0  0  0  0  0  0  0  0  0  0
  149.3763  144.4215  158.7122 H   0  0  0  0  0  0  0  0  0  0  0  0
  1  2  1  0  0  0  0
  1 23  1  0  0  0  0
  1 24  1  0  0  0  0
  1 25  1  0  0  0  0
  2  3  1  0  0  0  0
  2  8  1  0  0  0  0
  2 26  1  0  0  0  0
  3  4  1  0  0  0  0
  4  5  1  0  0  0  0
  4 27  1  0  0  0  0
  4 28  1  0  0  0  0
  5  7  1  0  0  0  0
  5  6  1  0  0  0  0
  5 29  1  0  0  0  0
  6  7  1  0  0  0  0
  6 30  1  0  0  0  0
  6 31  1  0  0  0  0
  7 32  1  0  0  0  0
  7 33  1  0  0  0  0
  8  9  2  0  0  0  0
  8 10  1  0  0  0  0
 10 11  1  0  0  0  0
 10 34  1  0  0  0  0
 11 20  1  0  0  0  0
 11 12  2  0  0  0  0
 12 13  1  0  0  0  0
 12 35  1  0  0  0  0
 13 14  1  0  0  0  0
 13 18  2  0  0  0  0
 14 15  1  0  0  0  0
 14 16  1  0  0  0  0
 14 17  1  0  0  0  0
 18 19  1  0  0  0  0
 18 36  1  0  0  0  0
 19 22  1  0  0  0  0
 19 20  1  0  0  0  0
 20 21  2  0  0  0  0
M  END
> <s_m_source_file>
AV-unprocessed.smi

> <i_m_source_file_index>
1725

> <i_lp_mmshare_version>
43012

> <i_f3d_flags>
0

> <s_epik_input>
W0NIMl0xW0NIMl1bQ0hdMVtDSDJdT1tDQEBIXShbQ0gzXSlDKD1PKVtOSF1jMltjSF1jKEMoRikoRilGKVtjSF1bbkhdYzI9Tw==

> <s_epik_cmdline>
J2VwaWtfcHl0aG9uJywgJy1waCcsICc3LjAnLCAnLXRuJywgJzgnLCAnLW1hJywgJzIwMCcsICctbWV0YWxfYmluZGluZycsICctaW1hZScsICc8aW5maWxlLm1hZT4nLCAnLW9tYWUnLCAnPG91dGZpbGUubWFlPic=

> <r_lp_tautomer_probability>
0.999

> <r_epik_Ionization_Penalty>
0.00763408

> <r_epik_Ionization_Penalty_Charging>
0.00763398

> <r_epik_Ionization_Penalty_Neutral>
9.25705e-08

> <r_epik_State_Penalty>
0.00571302

> <r_epik_Charging_Adjusted_Penalty>
0.013347

> <i_epik_Tot_Q>
0

> <i_epik_Tot_abs_Q>
0

> <r_epik_Metal_State_Penalty>
0.392814

> <b_epik_Metal_Only>
0

> <s_lp_Force_Field>
OPLS_2005

> <r_lp_Energy>
26.7151

> <b_lp_Chiralities_Consistent>
1

> <s_lp_Variant>
AV-unprocessed.smi:1725-2

> <Gold.Version>
5.8.1

> <Gold.Id.Protein>
6NUR|6NUR_protein|mol2

> <Gold.PLP.Fitness>
40.3565

> <Gold.PLP.PLP>
-37.7046

> <Gold.PLP.part.hbond>
-1.9624

> <Gold.PLP.part.metal>
0.0000

> <Gold.PLP.part.buried>
-3.7812

> <Gold.PLP.part.nonpolar>
-32.3880

> <Gold.PLP.part.repulsive>
0.3426

> <Gold.PLP.ligand.clash>
0.0000

> <Gold.PLP.ligand.torsion>
1.6811

> <Gold.PLP.Chemscore.Hbond>
0.9913

> <Gold.PLP.Chemscore.CHOScore>
0.7738

> <Gold.PLP.Chemscore.Metal>
0.0000

> <Gold.Chemscore.Hbonds>
donor molecule, donor type, donor heavy atom, donor atom, acceptor molecule, acceptor atom, score
      P1  H  7989  7998       L1     9  0.99
      L1  C    18    36       P1  8029  0.78

> <Gold.PLP.Chemscore.Internal.Correction>
0.7192

> <Gold.Rescore>
     Score         DG    S(hbond)    S(metal)    S(lipo)     H(rot)  DE(clash)    DE(int)     intcor
     10.98     -12.68       0.98        0.00      72.80       1.79       0.06       1.64       ----

> <Gold.Chemscore.Fitness>
10.9769

> <Gold.Chemscore.DG>
-12.6770

> <Gold.Chemscore.ZeroCoef>
-5.4800

> <Gold.Chemscore.Hbond>
0.9796

> <Gold.Chemscore.Metal>
0.0000

> <Gold.Chemscore.Lipo>
72.7983

> <Gold.Chemscore.Internal_Hbond>
0.0000

> <Gold.Chemscore.DEClash>
0.0557

> <Gold.Chemscore.DEInternal>
1.6444

> <Gold.Chemscore.Rot>
1.7938

> <Gold.Chemscore.Internal.Correction>
   9.000000E+99

> <Gold.Chemscore.Hbonds>
donor molecule, donor type, donor heavy atom, donor atom, acceptor molecule, acceptor atom, score
      P1  H  7989  7998       L1     9  0.92

> <Gold.Chemscore.Hbond.Weighted>
-3.2719

> <Gold.Chemscore.Metal.Weighted>
-0.0000

> <Gold.Chemscore.Lipo.Weighted>
-8.5174

> <Gold.Chemscore.Internal_Hbond.Weighted>
0.0000

> <Gold.Chemscore.DEClash.Weighted>
0.0557

> <Gold.Chemscore.DEInternal.Weighted>
1.6444

> <Gold.Chemscore.Rot.Weighted>
4.5922

> <Gold.Chemscore.Internal.Correction.Weighted>
   9.000000E+99

> <Gold.Protein.RotatedTorsions>
[ 6907 6896 6895 6894 ] final   70.53 input  -60.11 | X-H torsion
[ 7974 7965 7964 7962 ] final  128.30 input  175.53 | X-H torsion
[ 8008 7997 7996 7995 ] final -123.35 input   59.86 | X-H torsion
[ 10167 10162 10161 10158 ] final  -83.99 input  -65.29 | X-H torsion
[ 10718 10713 10712 10709 ] final  -57.81 input   66.30 | X-H torsion
[ 10763 10752 10751 10750 ] final   41.76 input  -60.55 | X-H torsion
[ 11005 11000 10999 10996 ] final -138.40 input  -57.11 | X-H torsion

> <Gold.Protein.ActiveResidues>
 VAL166  LYS551  ARG553  GLY616  TRP617  ASP618  TYR619  PRO620  LYS621  CYS622 
 ASP623  PHE694  ASN695  SER759  ASP760  ASP761  ALA762  ILE779  LEU786  VAL792 
 PHE793  MET794  SER795  GLU796  ALA797  LYS798  CYS799  TRP800  GLU811  SER814 

> <Gold.Protein.RotatedAtoms>
  152.4755  134.4855  159.9678 H   0  0  0  0  0  0  0  0  0  0  0  0  # atno 6907 bound_to 6896
  151.4872  133.3527  159.2855 H   0  0  0  0  0  0  0  0  0  0  0  0  # atno 6908 bound_to 6896
  150.8790  134.8205  159.7272 H   0  0  0  0  0  0  0  0  0  0  0  0  # atno 6909 bound_to 6896
  145.0411  139.3963  143.5102 H   0  0  0  0  0  0  0  0  0  0  0  0  # atno 7974 bound_to 7965
  155.1791  140.0410  157.2878 H   0  0  0  0  0  0  0  0  0  0  0  0  # atno 8008 bound_to 7997
  154.6216  140.2502  155.7515 H   0  0  0  0  0  0  0  0  0  0  0  0  # atno 8009 bound_to 7997
  156.2436  140.2894  156.0526 H   0  0  0  0  0  0  0  0  0  0  0  0  # atno 8010 bound_to 7997
  140.4175  143.2598  151.8935 H   0  0  0  0  0  0  0  0  0  0  0  0  # atno 10167 bound_to 10162
  156.1182  130.4168  150.0492 H   0  0  0  0  0  0  0  0  0  0  0  0  # atno 10718 bound_to 10713
  152.9900  135.6152  154.2839 H   0  0  0  0  0  0  0  0  0  0  0  0  # atno 10763 bound_to 10752
  154.2568  135.2783  155.2796 H   0  0  0  0  0  0  0  0  0  0  0  0  # atno 10764 bound_to 10752
  154.5241  135.5806  153.6762 H   0  0  0  0  0  0  0  0  0  0  0  0  # atno 10765 bound_to 10752
  140.8619  134.2158  157.4702 H   0  0  0  0  0  0  0  0  0  0  0  0  # atno 11005 bound_to 11000
  146.3509  140.0011  142.8676 LP  0  0  0  0  0  0  0  0  0  0  0  0  # atno 17320 bound_to 7965
  145.1647  140.9691  143.4356 LP  0  0  0  0  0  0  0  0  0  0  0  0  # atno 17321 bound_to 7965
  139.4782  144.5473  151.8439 LP  0  0  0  0  0  0  0  0  0  0  0  0  # atno 17342 bound_to 10162
  140.4571  144.1775  150.5902 LP  0  0  0  0  0  0  0  0  0  0  0  0  # atno 17343 bound_to 10162
  156.8437  130.9435  151.3630 LP  0  0  0  0  0  0  0  0  0  0  0  0  # atno 17370 bound_to 10713
  157.6366  130.8771  149.9370 LP  0  0  0  0  0  0  0  0  0  0  0  0  # atno 17371 bound_to 10713
  139.8707  134.9733  156.4806 LP  0  0  0  0  0  0  0  0  0  0  0  0  # atno 17394 bound_to 11000
  140.8673  133.8015  155.9327 LP  0  0  0  0  0  0  0  0  0  0  0  0  # atno 17395 bound_to 11000

$$$$
