AV-unprocessed.smi:3083|AV-procd|sdf|11747|dock3
  -GOLD-   2272017143D 1   1.00000     0.00000
 Structure written by MMmdl.
 28 29  0  0  0  0  0  0  0  0  2 V2000
  148.7091  143.0816  157.7682 N   0  3  0  0  0  0  0  0  0  0  0  0
  149.8379  143.3155  158.6878 C   0  0  1  0  0  0  0  0  0  0  0  0
  151.1683  143.2852  157.9122 C   0  0  0  0  0  0  0  0  0  0  0  0
  152.3655  143.5423  158.8404 C   0  0  0  0  0  0  0  0  0  0  0  0
  152.2077  144.8713  159.5944 C   0  0  0  0  0  0  0  0  0  0  0  0
  150.8832  144.9146  160.3723 C   0  0  0  0  0  0  0  0  0  0  0  0
  149.6743  144.6570  159.4490 C   0  0  2  0  0  0  0  0  0  0  0  0
  148.4305  144.7267  160.2072 N   0  0  0  0  0  0  0  0  0  0  0  0
  147.4123  145.6498  160.0849 C   0  0  0  0  0  0  0  0  0  0  0  0
  146.4652  145.3413  161.0187 C   0  0  0  0  0  0  0  0  0  0  0  0
  147.0059  144.2082  161.6872 C   0  0  0  0  0  0  0  0  0  0  0  0
  148.1833  143.8465  161.2038 N   0  0  0  0  0  0  0  0  0  0  0  0
  148.5514  142.0891  157.6696 H   0  0  0  0  0  0  0  0  0  0  0  0
  148.9285  143.4795  156.8658 H   0  0  0  0  0  0  0  0  0  0  0  0
  149.8449  142.4915  159.4028 H   0  0  0  0  0  0  0  0  0  0  0  0
  151.2918  142.3212  157.4168 H   0  0  0  0  0  0  0  0  0  0  0  0
  151.1550  144.0384  157.1228 H   0  0  0  0  0  0  0  0  0  0  0  0
  152.4567  142.7242  159.5559 H   0  0  0  0  0  0  0  0  0  0  0  0
  153.2894  143.5513  158.2612 H   0  0  0  0  0  0  0  0  0  0  0  0
  153.0450  145.0119  160.2788 H   0  0  0  0  0  0  0  0  0  0  0  0
  152.2444  145.7008  158.8872 H   0  0  0  0  0  0  0  0  0  0  0  0
  150.9090  144.1692  161.1688 H   0  0  0  0  0  0  0  0  0  0  0  0
  150.7794  145.8836  160.8621 H   0  0  0  0  0  0  0  0  0  0  0  0
  149.6418  145.4615  158.7119 H   0  0  0  0  0  0  0  0  0  0  0  0
  147.4450  146.4424  159.3517 H   0  0  0  0  0  0  0  0  0  0  0  0
  145.5317  145.8526  161.2023 H   0  0  0  0  0  0  0  0  0  0  0  0
  146.5827  143.6435  162.5050 H   0  0  0  0  0  0  0  0  0  0  0  0
  147.8777  143.5215  158.1359 H   0  0  0  0  0  0  0  0  0  0  0  0
  1  2  1  0  0  0  0
  1 13  1  0  0  0  0
  1 14  1  0  0  0  0
  1 28  1  0  0  0  0
  2  7  1  0  0  0  0
  2  3  1  0  0  0  0
  2 15  1  0  0  0  0
  3  4  1  0  0  0  0
  3 16  1  0  0  0  0
  3 17  1  0  0  0  0
  4  5  1  0  0  0  0
  4 18  1  0  0  0  0
  4 19  1  0  0  0  0
  5  6  1  0  0  0  0
  5 20  1  0  0  0  0
  5 21  1  0  0  0  0
  6  7  1  0  0  0  0
  6 22  1  0  0  0  0
  6 23  1  0  0  0  0
  7  8  1  0  0  0  0
  7 24  1  0  0  0  0
  8 12  1  0  0  0  0
  8  9  1  0  0  0  0
  9 10  2  0  0  0  0
  9 25  1  0  0  0  0
 10 11  1  0  0  0  0
 10 26  1  0  0  0  0
 11 12  2  0  0  0  0
 11 27  1  0  0  0  0
M  CHG  1   1   1
M  END
> <s_m_source_file>
AV-unprocessed.smi

> <i_m_source_file_index>
3083

> <i_lp_mmshare_version>
43012

> <i_f3d_flags>
0

> <s_epik_input>
W05IMl1bQ0BASF0xW0NIMl1bQ0gyXVtDSDJdW0NIMl1bQ0BIXTFuMltjSF1bY0hdW2NIXW4y

> <s_epik_cmdline>
J2VwaWtfcHl0aG9uJywgJy1waCcsICc3LjAnLCAnLXRuJywgJzgnLCAnLW1hJywgJzIwMCcsICctbWV0YWxfYmluZGluZycsICctaW1hZScsICc8aW5maWxlLm1hZT4nLCAnLW9tYWUnLCAnPG91dGZpbGUubWFlPic=

> <r_lp_tautomer_probability>
1

> <r_epik_Ionization_Penalty>
0.00385053

> <r_epik_Ionization_Penalty_Charging>
0.0038389

> <r_epik_Ionization_Penalty_Neutral>
1.16305e-05

> <r_epik_State_Penalty>
-0

> <r_epik_Charging_Adjusted_Penalty>
0.0038389

> <i_epik_Tot_Q>
1

> <i_epik_Tot_abs_Q>
1

> <r_epik_Metal_State_Penalty>
-0

> <b_epik_Metal_Only>
0

> <s_lp_Force_Field>
OPLS_2005

> <r_lp_Energy>
13.574

> <b_lp_Chiralities_Consistent>
1

> <s_lp_Variant>
AV-unprocessed.smi:3083-4

> <Gold.Version>
5.8.1

> <Gold.Id.Protein>
6NUR|6NUR_protein|mol2

> <Gold.PLP.Fitness>
37.0250

> <Gold.PLP.PLP>
-25.5817

> <Gold.PLP.part.hbond>
-2.8476

> <Gold.PLP.part.metal>
0.0000

> <Gold.PLP.part.buried>
-0.5109

> <Gold.PLP.part.nonpolar>
-23.5489

> <Gold.PLP.part.repulsive>
0.1996

> <Gold.PLP.ligand.clash>
0.0000

> <Gold.PLP.ligand.torsion>
0.0230

> <Gold.PLP.Chemscore.Hbond>
3.0000

> <Gold.PLP.Chemscore.CHOScore>
0.8203

> <Gold.PLP.Chemscore.Metal>
0.0000

> <Gold.Chemscore.Hbonds>
donor molecule, donor type, donor heavy atom, donor atom, acceptor molecule, acceptor atom, score
      L1  H     1    14       P1  8028  2.00
      P1  H  6933  6944       L1    12  0.99
      L1  C     9    25       P1  8029  0.81

> <Gold.PLP.Chemscore.Internal.Correction>
0.0283

> <Gold.Rescore>
     Score         DG    S(hbond)    S(metal)    S(lipo)     H(rot)  DE(clash)    DE(int)     intcor
     16.09     -17.15       1.59        0.00      76.19       1.00       1.03       0.03       ----

> <Gold.Chemscore.Fitness>
16.0850

> <Gold.Chemscore.DG>
-17.1468

> <Gold.Chemscore.ZeroCoef>
-5.4800

> <Gold.Chemscore.Hbond>
1.5907

> <Gold.Chemscore.Metal>
0.0000

> <Gold.Chemscore.Lipo>
76.1882

> <Gold.Chemscore.Internal_Hbond>
0.0000

> <Gold.Chemscore.DEClash>
1.0331

> <Gold.Chemscore.DEInternal>
0.0286

> <Gold.Chemscore.Rot>
1.0000

> <Gold.Chemscore.Internal.Correction>
   9.000000E+99

> <Gold.Chemscore.Hbonds>
donor molecule, donor type, donor heavy atom, donor atom, acceptor molecule, acceptor atom, score
      L1  H     1    14       P1  8028  0.68
      P1  H  6933  6944       L1    12  0.78

> <Gold.Chemscore.Hbond.Weighted>
-5.3128

> <Gold.Chemscore.Metal.Weighted>
-0.0000

> <Gold.Chemscore.Lipo.Weighted>
-8.9140

> <Gold.Chemscore.Internal_Hbond.Weighted>
0.0000

> <Gold.Chemscore.DEClash.Weighted>
1.0331

> <Gold.Chemscore.DEInternal.Weighted>
0.0286

> <Gold.Chemscore.Rot.Weighted>
2.5600

> <Gold.Chemscore.Internal.Correction.Weighted>
   9.000000E+99

> <Gold.Protein.RotatedTorsions>
[ 6907 6896 6895 6894 ] final  -26.54 input  -60.11 | X-H torsion
[ 7974 7965 7964 7962 ] final  -48.29 input  175.53 | X-H torsion
[ 8008 7997 7996 7995 ] final   33.53 input   59.86 | X-H torsion
[ 10167 10162 10161 10158 ] final   98.34 input  -65.29 | X-H torsion
[ 10718 10713 10712 10709 ] final   64.43 input   66.30 | X-H torsion
[ 10763 10752 10751 10750 ] final -134.31 input  -60.55 | X-H torsion
[ 11005 11000 10999 10996 ] final   94.24 input  -57.11 | X-H torsion

> <Gold.Protein.ActiveResidues>
 VAL166  LYS551  ARG553  GLY616  TRP617  ASP618  TYR619  PRO620  LYS621  CYS622 
 ASP623  PHE694  ASN695  SER759  ASP760  ASP761  ALA762  ILE779  LEU786  VAL792 
 PHE793  MET794  SER795  GLU796  ALA797  LYS798  CYS799  TRP800  GLU811  SER814 

> <Gold.Protein.RotatedAtoms>
  151.1596  135.0267  159.8703 H   0  0  0  0  0  0  0  0  0  0  0  0  # atno 6907 bound_to 6896
  152.5451  134.1295  159.8443 H   0  0  0  0  0  0  0  0  0  0  0  0  # atno 6908 bound_to 6896
  151.1388  133.4939  159.2630 H   0  0  0  0  0  0  0  0  0  0  0  0  # atno 6909 bound_to 6896
  145.9526  140.7557  142.9497 H   0  0  0  0  0  0  0  0  0  0  0  0  # atno 7974 bound_to 7965
  155.1401  140.3265  155.4454 H   0  0  0  0  0  0  0  0  0  0  0  0  # atno 8008 bound_to 7997
  156.2607  140.1995  156.6466 H   0  0  0  0  0  0  0  0  0  0  0  0  # atno 8009 bound_to 7997
  154.6549  140.0554  156.9983 H   0  0  0  0  0  0  0  0  0  0  0  0  # atno 8010 bound_to 7997
  139.7717  144.6920  151.0146 H   0  0  0  0  0  0  0  0  0  0  0  0  # atno 10167 bound_to 10162
  157.6039  130.9159  149.9844 H   0  0  0  0  0  0  0  0  0  0  0  0  # atno 10718 bound_to 10713
  154.8721  135.3738  154.4715 H   0  0  0  0  0  0  0  0  0  0  0  0  # atno 10763 bound_to 10752
  153.5375  135.7027  153.5657 H   0  0  0  0  0  0  0  0  0  0  0  0  # atno 10764 bound_to 10752
  153.3834  135.3991  155.1837 H   0  0  0  0  0  0  0  0  0  0  0  0  # atno 10765 bound_to 10752
  139.8801  134.8834  156.3835 H   0  0  0  0  0  0  0  0  0  0  0  0  # atno 11005 bound_to 11000
  144.6799  140.2460  143.7337 LP  0  0  0  0  0  0  0  0  0  0  0  0  # atno 17320 bound_to 7965
  145.8149  139.2019  143.1971 LP  0  0  0  0  0  0  0  0  0  0  0  0  # atno 17321 bound_to 7965
  140.7814  143.4581  151.0317 LP  0  0  0  0  0  0  0  0  0  0  0  0  # atno 17342 bound_to 10162
  139.8264  143.7750  152.3178 LP  0  0  0  0  0  0  0  0  0  0  0  0  # atno 17343 bound_to 10162
  156.1119  130.3649  150.0034 LP  0  0  0  0  0  0  0  0  0  0  0  0  # atno 17370 bound_to 10713
  156.8130  130.9331  151.3643 LP  0  0  0  0  0  0  0  0  0  0  0  0  # atno 17371 bound_to 10713
  140.9382  133.7532  156.0112 LP  0  0  0  0  0  0  0  0  0  0  0  0  # atno 17394 bound_to 11000
  140.8250  134.3245  157.5369 LP  0  0  0  0  0  0  0  0  0  0  0  0  # atno 17395 bound_to 11000

$$$$
