AV-unprocessed.smi:2222|AV-procd|sdf|8986|dock3
  -GOLD-   2272012203D 1   1.00000     0.00000
 Structure written by MMmdl.
 34 35  0  0  0  0  0  0  0  0  1 V2000
  151.8146  145.2899  158.9522 C   0  0  0  0  0  0  0  0  0  0  0  0
  151.4146  144.2436  158.0795 O   0  0  0  0  0  0  0  0  0  0  0  0
  151.8622  142.9639  158.3447 C   0  0  0  0  0  0  0  0  0  0  0  0
  152.8250  142.6602  159.3409 C   0  0  0  0  0  0  0  0  0  0  0  0
  153.2198  141.3254  159.5361 C   0  0  0  0  0  0  0  0  0  0  0  0
  152.6364  140.3349  158.7264 C   0  0  0  0  0  0  0  0  0  0  0  0
  153.0167  138.8774  158.8787 C   0  0  0  0  0  0  0  0  0  0  0  0
  151.7205  140.6112  157.7767 N   0  0  0  0  0  0  0  0  0  0  0  0
  151.3301  141.8947  157.5785 C   0  0  0  0  0  0  0  0  0  0  0  0
  150.3708  142.2669  156.5972 N   0  0  0  0  0  0  0  0  0  0  0  0
  149.7900  141.5014  155.6520 C   0  0  0  0  0  0  0  0  0  0  0  0
  149.9765  140.2934  155.5166 O   0  0  0  0  0  0  0  0  0  0  0  0
  148.9285  142.1626  154.8583 N   0  0  0  0  0  0  0  0  0  0  0  0
  148.1558  141.6415  153.7691 C   0  0  1  0  0  0  0  0  0  0  0  0
  147.1055  140.6054  154.1064 C   0  0  0  0  0  0  0  0  0  0  0  0
  146.6803  141.9851  153.6785 C   0  0  1  0  0  0  0  0  0  0  0  0
  146.0106  142.9275  154.6596 C   0  0  0  0  0  0  0  0  0  0  0  0
  151.3866  146.2300  158.6047 H   0  0  0  0  0  0  0  0  0  0  0  0
  152.8991  145.4064  158.9643 H   0  0  0  0  0  0  0  0  0  0  0  0
  151.4567  145.1211  159.9687 H   0  0  0  0  0  0  0  0  0  0  0  0
  153.2700  143.4241  159.9600 H   0  0  0  0  0  0  0  0  0  0  0  0
  153.9525  141.0731  160.2886 H   0  0  0  0  0  0  0  0  0  0  0  0
  153.6558  138.7241  159.7485 H   0  0  0  0  0  0  0  0  0  0  0  0
  153.5544  138.5335  157.9947 H   0  0  0  0  0  0  0  0  0  0  0  0
  152.1251  138.2616  159.0001 H   0  0  0  0  0  0  0  0  0  0  0  0
  150.1019  143.2398  156.6079 H   0  0  0  0  0  0  0  0  0  0  0  0
  148.7556  143.1294  155.0927 H   0  0  0  0  0  0  0  0  0  0  0  0
  148.6719  141.4712  152.8254 H   0  0  0  0  0  0  0  0  0  0  0  0
  146.9550  139.7937  153.3976 H   0  0  0  0  0  0  0  0  0  0  0  0
  146.9762  140.3359  155.1531 H   0  0  0  0  0  0  0  0  0  0  0  0
  146.2860  142.0697  152.6675 H   0  0  0  0  0  0  0  0  0  0  0  0
  146.3716  142.7616  155.6750 H   0  0  0  0  0  0  0  0  0  0  0  0
  144.9319  142.7707  154.6492 H   0  0  0  0  0  0  0  0  0  0  0  0
  146.2141  143.9619  154.3823 H   0  0  0  0  0  0  0  0  0  0  0  0
  1  2  1  0  0  0  0
  1 18  1  0  0  0  0
  1 19  1  0  0  0  0
  1 20  1  0  0  0  0
  2  3  1  0  0  0  0
  3  9  1  0  0  0  0
  3  4  2  0  0  0  0
  4  5  1  0  0  0  0
  4 21  1  0  0  0  0
  5  6  2  0  0  0  0
  5 22  1  0  0  0  0
  6  7  1  0  0  0  0
  6  8  1  0  0  0  0
  7 23  1  0  0  0  0
  7 24  1  0  0  0  0
  7 25  1  0  0  0  0
  8  9  2  0  0  0  0
  9 10  1  0  0  0  0
 10 11  1  0  0  0  0
 10 26  1  0  0  0  0
 11 12  2  0  0  0  0
 11 13  1  0  0  0  0
 13 14  1  0  0  0  0
 13 27  1  0  0  0  0
 14 16  1  0  0  0  0
 14 15  1  0  0  0  0
 14 28  1  0  0  0  0
 15 16  1  0  0  0  0
 15 29  1  0  0  0  0
 15 30  1  0  0  0  0
 16 17  1  0  0  0  0
 16 31  1  0  0  0  0
 17 32  1  0  0  0  0
 17 33  1  0  0  0  0
 17 34  1  0  0  0  0
M  END
> <s_m_source_file>
AV-unprocessed.smi

> <i_m_source_file_index>
2222

> <i_lp_mmshare_version>
43012

> <i_f3d_flags>
0

> <s_epik_input>
W0NIM11PYzFbY0hdW2NIXWMoW0NIM10pbmMxW05IXUMoPU8pW05IXVtDQEBIXTJbQ0gyXVtDQEhdMltDSDNd

> <s_epik_cmdline>
J2VwaWtfcHl0aG9uJywgJy1waCcsICc3LjAnLCAnLXRuJywgJzgnLCAnLW1hJywgJzIwMCcsICctbWV0YWxfYmluZGluZycsICctaW1hZScsICc8aW5maWxlLm1hZT4nLCAnLW9tYWUnLCAnPG91dGZpbGUubWFlPic=

> <r_lp_tautomer_probability>
1

> <r_epik_Ionization_Penalty>
6.59103e-05

> <r_epik_Ionization_Penalty_Charging>
0

> <r_epik_Ionization_Penalty_Neutral>
6.59103e-05

> <r_epik_State_Penalty>
-0

> <r_epik_Charging_Adjusted_Penalty>
0

> <i_epik_Tot_Q>
0

> <i_epik_Tot_abs_Q>
0

> <r_epik_Metal_State_Penalty>
-0

> <b_epik_Metal_Only>
0

> <s_lp_Force_Field>
OPLS_2005

> <r_lp_Energy>
34.1661

> <b_lp_Chiralities_Consistent>
1

> <s_lp_Variant>
AV-unprocessed.smi:2222-2

> <Gold.Version>
5.8.1

> <Gold.Id.Protein>
6NUR|6NUR_protein|mol2

> <Gold.PLP.Fitness>
41.5921

> <Gold.PLP.PLP>
-36.5425

> <Gold.PLP.part.hbond>
-2.0000

> <Gold.PLP.part.metal>
0.0000

> <Gold.PLP.part.buried>
-6.4449

> <Gold.PLP.part.nonpolar>
-28.2520

> <Gold.PLP.part.repulsive>
0.4403

> <Gold.PLP.ligand.clash>
0.0000

> <Gold.PLP.ligand.torsion>
0.1523

> <Gold.PLP.Chemscore.Hbond>
1.7722

> <Gold.PLP.Chemscore.CHOScore>
0.0000

> <Gold.PLP.Chemscore.Metal>
0.0000

> <Gold.Chemscore.Hbonds>
donor molecule, donor type, donor heavy atom, donor atom, acceptor molecule, acceptor atom, score
      L1  H    10    26       P1  8028  0.67
      L1  H    13    27       P1  8028  1.00

> <Gold.PLP.Chemscore.Internal.Correction>
0.0376

> <Gold.Rescore>
     Score         DG    S(hbond)    S(metal)    S(lipo)     H(rot)  DE(clash)    DE(int)     intcor
     16.89     -18.76       1.91        0.00      85.76       1.22       0.54       1.34       ----

> <Gold.Chemscore.Fitness>
16.8867

> <Gold.Chemscore.DG>
-18.7646

> <Gold.Chemscore.ZeroCoef>
-5.4800

> <Gold.Chemscore.Hbond>
1.9058

> <Gold.Chemscore.Metal>
0.0000

> <Gold.Chemscore.Lipo>
85.7633

> <Gold.Chemscore.Internal_Hbond>
0.0000

> <Gold.Chemscore.DEClash>
0.5417

> <Gold.Chemscore.DEInternal>
1.3361

> <Gold.Chemscore.Rot>
1.2168

> <Gold.Chemscore.Internal.Correction>
   9.000000E+99

> <Gold.Chemscore.Hbonds>
donor molecule, donor type, donor heavy atom, donor atom, acceptor molecule, acceptor atom, score
      L1  H    10    26       P1  8028  0.66
      L1  H    13    27       P1  8028  1.00

> <Gold.Chemscore.Hbond.Weighted>
-6.3652

> <Gold.Chemscore.Metal.Weighted>
-0.0000

> <Gold.Chemscore.Lipo.Weighted>
-10.0343

> <Gold.Chemscore.Internal_Hbond.Weighted>
0.0000

> <Gold.Chemscore.DEClash.Weighted>
0.5417

> <Gold.Chemscore.DEInternal.Weighted>
1.3361

> <Gold.Chemscore.Rot.Weighted>
3.1150

> <Gold.Chemscore.Internal.Correction.Weighted>
   9.000000E+99

> <Gold.Protein.RotatedTorsions>
[ 6907 6896 6895 6894 ] final -128.41 input  -60.11 | X-H torsion
[ 7974 7965 7964 7962 ] final  121.52 input  175.53 | X-H torsion
[ 8008 7997 7996 7995 ] final   80.00 input   59.86 | X-H torsion
[ 10167 10162 10161 10158 ] final   75.34 input  -65.29 | X-H torsion
[ 10718 10713 10712 10709 ] final   95.65 input   66.30 | X-H torsion
[ 10763 10752 10751 10750 ] final  -29.88 input  -60.55 | X-H torsion
[ 11005 11000 10999 10996 ] final -155.50 input  -57.11 | X-H torsion

> <Gold.Protein.ActiveResidues>
 VAL166  LYS551  ARG553  GLY616  TRP617  ASP618  TYR619  PRO620  LYS621  CYS622 
 ASP623  PHE694  ASN695  SER759  ASP760  ASP761  ALA762  ILE779  LEU786  VAL792 
 PHE793  MET794  SER795  GLU796  ALA797  LYS798  CYS799  TRP800  GLU811  SER814 

> <Gold.Protein.RotatedAtoms>
  150.9176  133.6920  159.2839 H   0  0  0  0  0  0  0  0  0  0  0  0  # atno 6907 bound_to 6896
  151.4386  135.1016  159.9673 H   0  0  0  0  0  0  0  0  0  0  0  0  # atno 6908 bound_to 6896
  152.4963  133.8589  159.7295 H   0  0  0  0  0  0  0  0  0  0  0  0  # atno 6909 bound_to 6896
  145.1183  139.3406  143.4727 H   0  0  0  0  0  0  0  0  0  0  0  0  # atno 7974 bound_to 7965
  155.8774  140.3446  155.5864 H   0  0  0  0  0  0  0  0  0  0  0  0  # atno 8008 bound_to 7997
  155.7758  140.0851  157.2104 H   0  0  0  0  0  0  0  0  0  0  0  0  # atno 8009 bound_to 7997
  154.4022  140.1510  156.2982 H   0  0  0  0  0  0  0  0  0  0  0  0  # atno 8010 bound_to 7997
  140.0040  144.5664  150.7713 H   0  0  0  0  0  0  0  0  0  0  0  0  # atno 10167 bound_to 10162
  157.6936  131.0552  150.4370 H   0  0  0  0  0  0  0  0  0  0  0  0  # atno 10718 bound_to 10713
  153.7719  135.6911  153.4905 H   0  0  0  0  0  0  0  0  0  0  0  0  # atno 10763 bound_to 10752
  153.1869  135.4485  155.0098 H   0  0  0  0  0  0  0  0  0  0  0  0  # atno 10764 bound_to 10752
  154.8114  135.3379  154.7228 H   0  0  0  0  0  0  0  0  0  0  0  0  # atno 10765 bound_to 10752
  140.6858  134.4095  157.5223 H   0  0  0  0  0  0  0  0  0  0  0  0  # atno 11005 bound_to 11000
  146.3522  140.1131  142.8603 LP  0  0  0  0  0  0  0  0  0  0  0  0  # atno 17320 bound_to 7965
  145.0769  140.9194  143.4848 LP  0  0  0  0  0  0  0  0  0  0  0  0  # atno 17321 bound_to 7965
  140.7407  143.2809  151.3603 LP  0  0  0  0  0  0  0  0  0  0  0  0  # atno 17342 bound_to 10162
  139.6251  144.0830  152.2427 LP  0  0  0  0  0  0  0  0  0  0  0  0  # atno 17343 bound_to 10162
  156.4732  130.4057  149.6505 LP  0  0  0  0  0  0  0  0  0  0  0  0  # atno 17370 bound_to 10713
  156.3578  130.7466  151.2434 LP  0  0  0  0  0  0  0  0  0  0  0  0  # atno 17371 bound_to 10713
  139.8938  134.8722  156.2207 LP  0  0  0  0  0  0  0  0  0  0  0  0  # atno 17394 bound_to 11000
  141.0281  133.7004  156.1382 LP  0  0  0  0  0  0  0  0  0  0  0  0  # atno 17395 bound_to 11000

$$$$
