AV-unprocessed.smi:1870|AV-procd|sdf|7595|dock1
  -GOLD-   22720 9303D 1   1.00000     0.00000
 Structure written by MMmdl.
 48 50  0  0  0  0  0  0  0  0  2 V2000
  147.1217  136.8805  162.8007 C   0  0  0  0  0  0  0  0  0  0  0  0
  147.5821  136.2519  161.5130 C   0  0  0  0  0  0  0  0  0  0  0  0
  148.2344  137.0128  160.6964 N   0  0  0  0  0  0  0  0  0  0  0  0
  148.7049  136.5355  159.4884 N   0  0  0  0  0  0  0  0  0  0  0  0
  149.4116  137.5401  158.6844 C   0  0  0  0  0  0  0  0  0  0  0  0
  150.8489  137.0952  158.3374 C   0  0  2  0  0  0  0  0  0  0  0  0
  151.6522  137.2103  159.4962 O   0  0  0  0  0  0  0  0  0  0  0  0
  151.4733  137.9971  157.2523 C   0  0  0  0  0  0  0  0  0  0  0  0
  151.1833  139.4402  157.4597 N   0  3  2  0  0  0  0  0  0  0  0  0
  151.3112  140.2284  156.2112 C   0  0  0  0  0  0  0  0  0  0  0  0
  150.6882  141.6179  156.3961 C   0  0  0  0  0  0  0  0  0  0  0  0
  151.1852  142.3099  157.6518 C   0  0  0  0  0  0  0  0  0  0  0  0
  151.0285  143.7043  157.7928 C   0  0  0  0  0  0  0  0  0  0  0  0
  151.4520  144.3480  158.9710 C   0  0  0  0  0  0  0  0  0  0  0  0
  152.0302  143.5990  160.0132 C   0  0  0  0  0  0  0  0  0  0  0  0
  152.1879  142.2064  159.8764 C   0  0  0  0  0  0  0  0  0  0  0  0
  151.7681  141.5548  158.6978 C   0  0  0  0  0  0  0  0  0  0  0  0
  151.9732  140.0503  158.5635 C   0  0  0  0  0  0  0  0  0  0  0  0
  148.5376  135.2590  159.0393 C   0  0  0  0  0  0  0  0  0  0  0  0
  148.9695  134.8771  157.9508 O   0  0  0  0  0  0  0  0  0  0  0  0
  147.7995  134.4018  159.9699 C   0  0  0  0  0  0  0  0  0  0  0  0
  147.6086  133.0532  159.5424 C   0  0  0  0  0  0  0  0  0  0  0  0
  147.4717  131.9544  159.2048 N   0  0  0  0  0  0  0  0  0  0  0  0
  147.3302  134.8590  161.1577 C   0  0  0  0  0  0  0  0  0  0  0  0
  146.5577  134.0093  162.1576 C   0  0  0  0  0  0  0  0  0  0  0  0
  147.4806  136.3136  163.6597 H   0  0  0  0  0  0  0  0  0  0  0  0
  146.0330  136.9128  162.8467 H   0  0  0  0  0  0  0  0  0  0  0  0
  147.4870  137.9030  162.9081 H   0  0  0  0  0  0  0  0  0  0  0  0
  148.8464  137.6756  157.7601 H   0  0  0  0  0  0  0  0  0  0  0  0
  149.4067  138.5250  159.1554 H   0  0  0  0  0  0  0  0  0  0  0  0
  150.8389  136.0567  158.0077 H   0  0  0  0  0  0  0  0  0  0  0  0
  152.3810  137.7818  159.3067 H   0  0  0  0  0  0  0  0  0  0  0  0
  152.5546  137.8558  157.2138 H   0  0  0  0  0  0  0  0  0  0  0  0
  151.0922  137.6800  156.2802 H   0  0  0  0  0  0  0  0  0  0  0  0
  152.3657  140.3130  155.9432 H   0  0  0  0  0  0  0  0  0  0  0  0
  150.8118  139.7252  155.3825 H   0  0  0  0  0  0  0  0  0  0  0  0
  150.9004  142.2393  155.5251 H   0  0  0  0  0  0  0  0  0  0  0  0
  149.6032  141.5315  156.4651 H   0  0  0  0  0  0  0  0  0  0  0  0
  150.5771  144.2835  157.0004 H   0  0  0  0  0  0  0  0  0  0  0  0
  151.3297  145.4159  159.0770 H   0  0  0  0  0  0  0  0  0  0  0  0
  152.3537  144.0930  160.9177 H   0  0  0  0  0  0  0  0  0  0  0  0
  152.6373  141.6399  160.6790 H   0  0  0  0  0  0  0  0  0  0  0  0
  151.7096  139.5844  159.5123 H   0  0  0  0  0  0  0  0  0  0  0  0
  153.0363  139.8681  158.3995 H   0  0  0  0  0  0  0  0  0  0  0  0
  146.3115  133.0260  161.7580 H   0  0  0  0  0  0  0  0  0  0  0  0
  145.6186  134.4904  162.4323 H   0  0  0  0  0  0  0  0  0  0  0  0
  147.1460  133.8606  163.0635 H   0  0  0  0  0  0  0  0  0  0  0  0
  150.2102  139.4977  157.7256 H   0  0  0  0  0  0  0  0  0  0  0  0
  1  2  1  0  0  0  0
  1 26  1  0  0  0  0
  1 27  1  0  0  0  0
  1 28  1  0  0  0  0
  2 24  1  0  0  0  0
  2  3  2  0  0  0  0
  3  4  1  0  0  0  0
  4  5  1  0  0  0  0
  4 19  1  0  0  0  0
  5  6  1  0  0  0  0
  5 29  1  0  0  0  0
  5 30  1  0  0  0  0
  6  7  1  0  0  0  0
  6  8  1  0  0  0  0
  6 31  1  0  0  0  0
  7 32  1  0  0  0  0
  8  9  1  0  0  0  0
  8 33  1  0  0  0  0
  8 34  1  0  0  0  0
  9 18  1  0  0  0  0
  9 10  1  0  0  0  0
  9 48  1  0  0  0  0
 10 11  1  0  0  0  0
 10 35  1  0  0  0  0
 10 36  1  0  0  0  0
 11 12  1  0  0  0  0
 11 37  1  0  0  0  0
 11 38  1  0  0  0  0
 12 17  2  0  0  0  0
 12 13  1  0  0  0  0
 13 14  2  0  0  0  0
 13 39  1  0  0  0  0
 14 15  1  0  0  0  0
 14 40  1  0  0  0  0
 15 16  2  0  0  0  0
 15 41  1  0  0  0  0
 16 17  1  0  0  0  0
 16 42  1  0  0  0  0
 17 18  1  0  0  0  0
 18 43  1  0  0  0  0
 18 44  1  0  0  0  0
 19 20  2  0  0  0  0
 19 21  1  0  0  0  0
 21 22  1  0  0  0  0
 21 24  2  0  0  0  0
 22 23  3  0  0  0  0
 24 25  1  0  0  0  0
 25 45  1  0  0  0  0
 25 46  1  0  0  0  0
 25 47  1  0  0  0  0
M  CHG  1   9   1
M  END
> <s_m_source_file>
AV-unprocessed.smi

> <i_m_source_file_index>
1870

> <i_lp_mmshare_version>
43012

> <i_f3d_flags>
0

> <s_epik_input>
TiNDYyhjMVtDSDNdKWMoPU8pbihuYzFbQ0gzXSlbQ0gyXVtDQEhdKFtPSF0pW0NIMl1OKFtDSDJdW0NIMl0yKVtDSDJdYyhjMjMpW2NIXVtjSF1bY0hdW2NIXTM=

> <s_epik_cmdline>
J2VwaWtfcHl0aG9uJywgJy1waCcsICc3LjAnLCAnLXRuJywgJzgnLCAnLW1hJywgJzIwMCcsICctbWV0YWxfYmluZGluZycsICctaW1hZScsICc8aW5maWxlLm1hZT4nLCAnLW9tYWUnLCAnPG91dGZpbGUubWFlPic=

> <r_epik_Ionization_Penalty>
0.0122865

> <r_epik_Ionization_Penalty_Charging>
0.0122864

> <r_epik_Ionization_Penalty_Neutral>
1.48087e-07

> <r_epik_State_Penalty>
0.00950248

> <r_epik_Charging_Adjusted_Penalty>
0.0217889

> <i_epik_Tot_Q>
1

> <i_epik_Tot_abs_Q>
1

> <r_epik_Metal_State_Penalty>
0.00950248

> <b_epik_Metal_Only>
0

> <s_lp_Force_Field>
OPLS_2005

> <r_lp_Energy>
38.404

> <b_lp_Chiralities_Consistent>
1

> <s_lp_Variant>
AV-unprocessed.smi:1870-3

> <Gold.Version>
5.8.1

> <Gold.Id.Protein>
6NUR|6NUR_protein|mol2

> <Gold.PLP.Fitness>
56.8242

> <Gold.PLP.PLP>
-51.1671

> <Gold.PLP.part.hbond>
-2.7736

> <Gold.PLP.part.metal>
0.0000

> <Gold.PLP.part.buried>
-3.5797

> <Gold.PLP.part.nonpolar>
-45.0429

> <Gold.PLP.part.repulsive>
0.0466

> <Gold.PLP.ligand.clash>
0.0000

> <Gold.PLP.ligand.torsion>
0.4015

> <Gold.PLP.Chemscore.Hbond>
2.1464

> <Gold.PLP.Chemscore.CHOScore>
0.0000

> <Gold.PLP.Chemscore.Metal>
0.0000

> <Gold.Chemscore.Hbonds>
donor molecule, donor type, donor heavy atom, donor atom, acceptor molecule, acceptor atom, score
      P1  H  6896  6908       L1    20  0.01
      P1  H  6896  6909       L1     7  0.68
      P1  H  6931  6943       L1     3  0.91
      P1  H  6934  6947       L1     3  0.27

> <Gold.PLP.Chemscore.Internal.Correction>
0.0208

> <Gold.Rescore>
     Score         DG    S(hbond)    S(metal)    S(lipo)     H(rot)  DE(clash)    DE(int)     intcor
     19.67     -20.30       1.62        0.00     127.82       2.16       0.00       0.64       ----

> <Gold.Chemscore.Fitness>
19.6679

> <Gold.Chemscore.DG>
-20.3048

> <Gold.Chemscore.ZeroCoef>
-5.4800

> <Gold.Chemscore.Hbond>
1.6187

> <Gold.Chemscore.Metal>
0.0000

> <Gold.Chemscore.Lipo>
127.8214

> <Gold.Chemscore.Internal_Hbond>
0.0000

> <Gold.Chemscore.DEClash>
0.0000

> <Gold.Chemscore.DEInternal>
0.6369

> <Gold.Chemscore.Rot>
2.1628

> <Gold.Chemscore.Internal.Correction>
   9.000000E+99

> <Gold.Chemscore.Hbonds>
donor molecule, donor type, donor heavy atom, donor atom, acceptor molecule, acceptor atom, score
      P1  H  6896  6909       L1     7  0.11
      P1  H  6931  6943       L1     3  0.31
      P1  H  6934  6947       L1     3  0.11

> <Gold.Chemscore.Hbond.Weighted>
-5.4064

> <Gold.Chemscore.Metal.Weighted>
-0.0000

> <Gold.Chemscore.Lipo.Weighted>
-14.9551

> <Gold.Chemscore.Internal_Hbond.Weighted>
0.0000

> <Gold.Chemscore.DEClash.Weighted>
0.0000

> <Gold.Chemscore.DEInternal.Weighted>
0.6369

> <Gold.Chemscore.Rot.Weighted>
5.5367

> <Gold.Chemscore.Internal.Correction.Weighted>
   9.000000E+99

> <Gold.Protein.RotatedTorsions>
[ 6907 6896 6895 6894 ] final  126.73 input  -60.11 | X-H torsion
[ 7974 7965 7964 7962 ] final  138.70 input  175.53 | X-H torsion
[ 8008 7997 7996 7995 ] final  144.18 input   59.86 | X-H torsion
[ 10167 10162 10161 10158 ] final  157.94 input  -65.29 | X-H torsion
[ 10718 10713 10712 10709 ] final  132.41 input   66.30 | X-H torsion
[ 10763 10752 10751 10750 ] final   -5.05 input  -60.55 | X-H torsion
[ 11005 11000 10999 10996 ] final  -17.89 input  -57.11 | X-H torsion

> <Gold.Protein.ActiveResidues>
 VAL166  LYS551  ARG553  GLY616  TRP617  ASP618  TYR619  PRO620  LYS621  CYS622 
 ASP623  PHE694  ASN695  SER759  ASP760  ASP761  ALA762  ILE779  LEU786  VAL792 
 PHE793  MET794  SER795  GLU796  ALA797  LYS798  CYS799  TRP800  GLU811  SER814 

> <Gold.Protein.RotatedAtoms>
  152.3877  133.6634  159.6211 H   0  0  0  0  0  0  0  0  0  0  0  0  # atno 6907 bound_to 6896
  150.7792  133.9008  159.3349 H   0  0  0  0  0  0  0  0  0  0  0  0  # atno 6908 bound_to 6896
  151.6801  135.0964  160.0266 H   0  0  0  0  0  0  0  0  0  0  0  0  # atno 6909 bound_to 6896
  144.9347  139.5003  143.5600 H   0  0  0  0  0  0  0  0  0  0  0  0  # atno 7974 bound_to 7965
  156.2914  140.2243  156.5011 H   0  0  0  0  0  0  0  0  0  0  0  0  # atno 8008 bound_to 7997
  154.7689  140.0468  157.1056 H   0  0  0  0  0  0  0  0  0  0  0  0  # atno 8009 bound_to 7997
  154.9898  140.3089  155.4914 H   0  0  0  0  0  0  0  0  0  0  0  0  # atno 8010 bound_to 7997
  139.4825  144.4871  151.8362 H   0  0  0  0  0  0  0  0  0  0  0  0  # atno 10167 bound_to 10162
  157.4874  131.1089  150.9602 H   0  0  0  0  0  0  0  0  0  0  0  0  # atno 10718 bound_to 10713
  153.3933  135.7002  153.6479 H   0  0  0  0  0  0  0  0  0  0  0  0  # atno 10763 bound_to 10752
  153.5043  135.3645  155.2555 H   0  0  0  0  0  0  0  0  0  0  0  0  # atno 10764 bound_to 10752
  154.8704  135.4119  154.3254 H   0  0  0  0  0  0  0  0  0  0  0  0  # atno 10765 bound_to 10752
  140.8214  133.8066  155.9663 H   0  0  0  0  0  0  0  0  0  0  0  0  # atno 11005 bound_to 11000
  146.3262  139.8324  142.8906 LP  0  0  0  0  0  0  0  0  0  0  0  0  # atno 17320 bound_to 7965
  145.3085  141.0213  143.3568 LP  0  0  0  0  0  0  0  0  0  0  0  0  # atno 17321 bound_to 7965
  140.4351  144.2062  150.5889 LP  0  0  0  0  0  0  0  0  0  0  0  0  # atno 17342 bound_to 10162
  140.4740  143.2403  151.9050 LP  0  0  0  0  0  0  0  0  0  0  0  0  # atno 17343 bound_to 10162
  157.0315  130.5713  149.5344 LP  0  0  0  0  0  0  0  0  0  0  0  0  # atno 17370 bound_to 10713
  156.0154  130.5248  150.8119 LP  0  0  0  0  0  0  0  0  0  0  0  0  # atno 17371 bound_to 10713
  140.9095  134.2278  157.4994 LP  0  0  0  0  0  0  0  0  0  0  0  0  # atno 17394 bound_to 11000
  139.8708  134.9743  156.4843 LP  0  0  0  0  0  0  0  0  0  0  0  0  # atno 17395 bound_to 11000

$$$$
