AV-unprocessed.smi:1346|AV-procd|sdf|5514|dock6
  -GOLD-   22720 5103D 1   1.00000     0.00000
 Structure written by MMmdl.
 47 48  0  0  0  0  0  0  0  0  1 V2000
  148.4906  136.0460  155.2628 C   0  0  0  0  0  0  0  0  0  0  0  0
  149.8549  136.6714  155.2059 C   0  0  0  0  0  0  0  0  0  0  0  0
  150.9094  135.9761  155.5975 N   0  0  0  0  0  0  0  0  0  0  0  0
  152.0100  136.8212  155.4278 O   0  0  0  0  0  0  0  0  0  0  0  0
  151.5698  138.0068  154.9351 C   0  0  0  0  0  0  0  0  0  0  0  0
  152.6053  139.0505  154.6855 C   0  0  0  0  0  0  0  0  0  0  0  0
  150.2115  137.9807  154.7723 C   0  0  0  0  0  0  0  0  0  0  0  0
  149.3006  139.0667  154.2609 C   0  0  0  0  0  0  0  0  0  0  0  0
  149.6320  140.3875  154.9552 C   0  0  0  0  0  0  0  0  0  0  0  0
  150.1182  141.3167  154.3110 O   0  0  0  0  0  0  0  0  0  0  0  0
  149.3628  140.4581  156.2677 N   0  0  0  0  0  0  0  0  0  0  0  0
  149.5913  141.6244  157.1133 C   0  0  0  0  0  0  0  0  0  0  0  0
  150.9749  141.5827  157.7769 C   0  0  0  0  0  0  0  0  0  0  0  0
  151.0141  142.5362  158.8279 O   0  0  0  0  0  0  0  0  0  0  0  0
  152.2389  143.2553  158.9218 C   0  0  2  0  0  0  0  0  0  0  0  0
  153.3471  142.2558  159.3023 C   0  0  0  0  0  0  0  0  0  0  0  0
  153.1510  141.6880  160.7184 C   0  0  0  0  0  0  0  0  0  0  0  0
  153.0306  142.8113  161.7589 C   0  0  0  0  0  0  0  0  0  0  0  0
  151.9085  143.7946  161.3895 C   0  0  0  0  0  0  0  0  0  0  0  0
  152.1130  144.3792  159.9777 C   0  0  2  0  0  0  0  0  0  0  0  0
  151.0255  145.4052  159.6242 C   0  0  0  0  0  0  0  0  0  0  0  0
  147.9328  136.2418  154.3472 H   0  0  0  0  0  0  0  0  0  0  0  0
  147.9136  136.4480  156.0957 H   0  0  0  0  0  0  0  0  0  0  0  0
  148.5464  134.9641  155.3883 H   0  0  0  0  0  0  0  0  0  0  0  0
  152.2898  139.7332  153.8969 H   0  0  0  0  0  0  0  0  0  0  0  0
  153.5483  138.5977  154.3787 H   0  0  0  0  0  0  0  0  0  0  0  0
  152.7877  139.6356  155.5868 H   0  0  0  0  0  0  0  0  0  0  0  0
  149.4099  139.2025  153.1844 H   0  0  0  0  0  0  0  0  0  0  0  0
  148.2516  138.8169  154.4262 H   0  0  0  0  0  0  0  0  0  0  0  0
  148.9574  139.6473  156.7126 H   0  0  0  0  0  0  0  0  0  0  0  0
  149.5011  142.5200  156.4983 H   0  0  0  0  0  0  0  0  0  0  0  0
  148.8108  141.6890  157.8732 H   0  0  0  0  0  0  0  0  0  0  0  0
  151.1618  140.5879  158.1833 H   0  0  0  0  0  0  0  0  0  0  0  0
  151.7553  141.7835  157.0416 H   0  0  0  0  0  0  0  0  0  0  0  0
  152.5046  143.6980  157.9593 H   0  0  0  0  0  0  0  0  0  0  0  0
  153.3810  141.4428  158.5764 H   0  0  0  0  0  0  0  0  0  0  0  0
  154.3155  142.7546  159.2477 H   0  0  0  0  0  0  0  0  0  0  0  0
  152.2538  141.0680  160.7449 H   0  0  0  0  0  0  0  0  0  0  0  0
  153.9846  141.0333  160.9739 H   0  0  0  0  0  0  0  0  0  0  0  0
  152.8433  142.3861  162.7451 H   0  0  0  0  0  0  0  0  0  0  0  0
  153.9776  143.3480  161.8286 H   0  0  0  0  0  0  0  0  0  0  0  0
  150.9444  143.2871  161.4450 H   0  0  0  0  0  0  0  0  0  0  0  0
  151.8746  144.5990  162.1249 H   0  0  0  0  0  0  0  0  0  0  0  0
  153.0608  144.9194  159.9853 H   0  0  0  0  0  0  0  0  0  0  0  0
  150.0328  144.9557  159.6409 H   0  0  0  0  0  0  0  0  0  0  0  0
  151.1868  145.8235  158.6304 H   0  0  0  0  0  0  0  0  0  0  0  0
  151.0232  146.2332  160.3334 H   0  0  0  0  0  0  0  0  0  0  0  0
  1  2  1  0  0  0  0
  1 22  1  0  0  0  0
  1 23  1  0  0  0  0
  1 24  1  0  0  0  0
  2  7  1  0  0  0  0
  2  3  2  0  0  0  0
  3  4  1  0  0  0  0
  4  5  1  0  0  0  0
  5  6  1  0  0  0  0
  5  7  2  0  0  0  0
  6 25  1  0  0  0  0
  6 26  1  0  0  0  0
  6 27  1  0  0  0  0
  7  8  1  0  0  0  0
  8  9  1  0  0  0  0
  8 28  1  0  0  0  0
  8 29  1  0  0  0  0
  9 10  2  0  0  0  0
  9 11  1  0  0  0  0
 11 12  1  0  0  0  0
 11 30  1  0  0  0  0
 12 13  1  0  0  0  0
 12 31  1  0  0  0  0
 12 32  1  0  0  0  0
 13 14  1  0  0  0  0
 13 33  1  0  0  0  0
 13 34  1  0  0  0  0
 14 15  1  0  0  0  0
 15 20  1  0  0  0  0
 15 16  1  0  0  0  0
 15 35  1  0  0  0  0
 16 17  1  0  0  0  0
 16 36  1  0  0  0  0
 16 37  1  0  0  0  0
 17 18  1  0  0  0  0
 17 38  1  0  0  0  0
 17 39  1  0  0  0  0
 18 19  1  0  0  0  0
 18 40  1  0  0  0  0
 18 41  1  0  0  0  0
 19 20  1  0  0  0  0
 19 42  1  0  0  0  0
 19 43  1  0  0  0  0
 20 21  1  0  0  0  0
 20 44  1  0  0  0  0
 21 45  1  0  0  0  0
 21 46  1  0  0  0  0
 21 47  1  0  0  0  0
M  END
> <s_m_source_file>
AV-unprocessed.smi

> <i_m_source_file_index>
1346

> <i_lp_mmshare_version>
43012

> <i_f3d_flags>
0

> <s_epik_input>
W0NIM11jMW5vYyhbQ0gzXSljMVtDSDJdQyg9TylbTkhdW0NIMl1bQ0gyXU9bQ0BASF0yW0NIMl1bQ0gyXVtDSDJdW0NIMl1bQ0BIXTJbQ0gzXQ==

> <s_epik_cmdline>
J2VwaWtfcHl0aG9uJywgJy1waCcsICc3LjAnLCAnLXRuJywgJzgnLCAnLW1hJywgJzIwMCcsICctbWV0YWxfYmluZGluZycsICctaW1hZScsICc8aW5maWxlLm1hZT4nLCAnLW9tYWUnLCAnPG91dGZpbGUubWFlPic=

> <r_lp_tautomer_probability>
1

> <r_epik_Ionization_Penalty>
3.26154e-08

> <r_epik_Ionization_Penalty_Charging>
0

> <r_epik_Ionization_Penalty_Neutral>
3.26154e-08

> <r_epik_State_Penalty>
-0

> <r_epik_Charging_Adjusted_Penalty>
0

> <i_epik_Tot_Q>
0

> <i_epik_Tot_abs_Q>
0

> <r_epik_Metal_State_Penalty>
-0

> <b_epik_Metal_Only>
0

> <s_lp_Force_Field>
OPLS_2005

> <r_lp_Energy>
6.35262

> <b_lp_Chiralities_Consistent>
1

> <s_lp_Variant>
AV-unprocessed.smi:1346-3

> <Gold.Version>
5.8.1

> <Gold.Id.Protein>
6NUR|6NUR_protein|mol2

> <Gold.PLP.Fitness>
48.1105

> <Gold.PLP.PLP>
-44.5550

> <Gold.PLP.part.hbond>
-2.7096

> <Gold.PLP.part.metal>
0.0000

> <Gold.PLP.part.buried>
-3.6861

> <Gold.PLP.part.nonpolar>
-37.9061

> <Gold.PLP.part.repulsive>
0.3946

> <Gold.PLP.ligand.clash>
0.0000

> <Gold.PLP.ligand.torsion>
0.7374

> <Gold.PLP.Chemscore.Hbond>
1.6432

> <Gold.PLP.Chemscore.CHOScore>
0.0000

> <Gold.PLP.Chemscore.Metal>
0.0000

> <Gold.Chemscore.Hbonds>
donor molecule, donor type, donor heavy atom, donor atom, acceptor molecule, acceptor atom, score
      P1  H  7989  7998       L1    10  0.40
      P1  H  8011  8017       L1    10  0.23
      P1  H 10752 10764       L1     4  0.66

> <Gold.PLP.Chemscore.Internal.Correction>
0.1006

> <Gold.Rescore>
     Score         DG    S(hbond)    S(metal)    S(lipo)     H(rot)  DE(clash)    DE(int)     intcor
     19.32     -20.25       1.51        0.00     121.09       1.74       0.28       0.65       ----

> <Gold.Chemscore.Fitness>
19.3183

> <Gold.Chemscore.DG>
-20.2452

> <Gold.Chemscore.ZeroCoef>
-5.4800

> <Gold.Chemscore.Hbond>
1.5089

> <Gold.Chemscore.Metal>
0.0000

> <Gold.Chemscore.Lipo>
121.0898

> <Gold.Chemscore.Internal_Hbond>
0.0000

> <Gold.Chemscore.DEClash>
0.2789

> <Gold.Chemscore.DEInternal>
0.6481

> <Gold.Chemscore.Rot>
1.7352

> <Gold.Chemscore.Internal.Correction>
   9.000000E+99

> <Gold.Chemscore.Hbonds>
donor molecule, donor type, donor heavy atom, donor atom, acceptor molecule, acceptor atom, score
      P1  H  7989  7998       L1    10  0.35
      P1  H  8011  8017       L1    10  0.23
      P1  H 10752 10764       L1     4  0.07

> <Gold.Chemscore.Hbond.Weighted>
-5.0398

> <Gold.Chemscore.Metal.Weighted>
-0.0000

> <Gold.Chemscore.Lipo.Weighted>
-14.1675

> <Gold.Chemscore.Internal_Hbond.Weighted>
0.0000

> <Gold.Chemscore.DEClash.Weighted>
0.2789

> <Gold.Chemscore.DEInternal.Weighted>
0.6481

> <Gold.Chemscore.Rot.Weighted>
4.4420

> <Gold.Chemscore.Internal.Correction.Weighted>
   9.000000E+99

> <Gold.Protein.RotatedTorsions>
[ 6907 6896 6895 6894 ] final   23.84 input  -60.11 | X-H torsion
[ 7974 7965 7964 7962 ] final    3.96 input  175.53 | X-H torsion
[ 8008 7997 7996 7995 ] final  -27.00 input   59.86 | X-H torsion
[ 10167 10162 10161 10158 ] final -167.94 input  -65.29 | X-H torsion
[ 10718 10713 10712 10709 ] final   77.10 input   66.30 | X-H torsion
[ 10763 10752 10751 10750 ] final  -62.55 input  -60.55 | X-H torsion
[ 11005 11000 10999 10996 ] final  -14.06 input  -57.11 | X-H torsion

> <Gold.Protein.ActiveResidues>
 VAL166  LYS551  ARG553  GLY616  TRP617  ASP618  TYR619  PRO620  LYS621  CYS622 
 ASP623  PHE694  ASN695  SER759  ASP760  ASP761  ALA762  ILE779  LEU786  VAL792 
 PHE793  MET794  SER795  GLU796  ALA797  LYS798  CYS799  TRP800  GLU811  SER814 

> <Gold.Protein.RotatedAtoms>
  151.9485  135.0180  160.0540 H   0  0  0  0  0  0  0  0  0  0  0  0  # atno 6907 bound_to 6896
  152.1974  133.4811  159.5048 H   0  0  0  0  0  0  0  0  0  0  0  0  # atno 6908 bound_to 6896
  150.6947  134.1552  159.4198 H   0  0  0  0  0  0  0  0  0  0  0  0  # atno 6909 bound_to 6896
  146.2444  140.0606  142.8369 H   0  0  0  0  0  0  0  0  0  0  0  0  # atno 7974 bound_to 7965
  154.4398  140.1884  156.0863 H   0  0  0  0  0  0  0  0  0  0  0  0  # atno 8008 bound_to 7997
  156.0400  140.3321  155.7207 H   0  0  0  0  0  0  0  0  0  0  0  0  # atno 8009 bound_to 7997
  155.5714  140.0613  157.2796 H   0  0  0  0  0  0  0  0  0  0  0  0  # atno 8010 bound_to 7997
  139.6017  144.0996  152.1750 H   0  0  0  0  0  0  0  0  0  0  0  0  # atno 10167 bound_to 10162
  157.6698  130.9805  150.1592 H   0  0  0  0  0  0  0  0  0  0  0  0  # atno 10718 bound_to 10713
  154.3015  135.6233  153.5427 H   0  0  0  0  0  0  0  0  0  0  0  0  # atno 10763 bound_to 10752
  152.9840  135.5679  154.5278 H   0  0  0  0  0  0  0  0  0  0  0  0  # atno 10764 bound_to 10752
  154.4909  135.2867  155.1473 H   0  0  0  0  0  0  0  0  0  0  0  0  # atno 10765 bound_to 10752
  140.7825  133.8352  155.9305 H   0  0  0  0  0  0  0  0  0  0  0  0  # atno 11005 bound_to 11000
  145.0903  140.9280  143.4773 LP  0  0  0  0  0  0  0  0  0  0  0  0  # atno 17320 bound_to 7965
  145.0777  139.2983  143.5799 LP  0  0  0  0  0  0  0  0  0  0  0  0  # atno 17321 bound_to 7965
  140.0594  144.5868  150.7274 LP  0  0  0  0  0  0  0  0  0  0  0  0  # atno 17342 bound_to 10162
  140.7255  143.2631  151.4136 LP  0  0  0  0  0  0  0  0  0  0  0  0  # atno 17343 bound_to 10162
  156.2372  130.3687  149.8377 LP  0  0  0  0  0  0  0  0  0  0  0  0  # atno 17370 bound_to 10713
  156.6187  130.8617  151.3470 LP  0  0  0  0  0  0  0  0  0  0  0  0  # atno 17371 bound_to 10713
  140.9469  134.1829  157.4757 LP  0  0  0  0  0  0  0  0  0  0  0  0  # atno 17394 bound_to 11000
  139.8741  134.9894  156.5455 LP  0  0  0  0  0  0  0  0  0  0  0  0  # atno 17395 bound_to 11000

$$$$
