AV-unprocessed.smi:2945|AV-procd|sdf|11279|dock7
  -GOLD-   2272016173D 1   1.00000     0.00000
 Structure written by MMmdl.
 36 37  0  0  0  0  0  0  0  0  1 V2000
  147.6001  141.4787  153.6304 C   0  0  0  0  0  0  0  0  0  0  0  0
  148.6536  140.8937  154.5071 C   0  0  0  0  0  0  0  0  0  0  0  0
  149.2610  141.3315  155.6503 C   0  0  0  0  0  0  0  0  0  0  0  0
  150.1674  140.2810  155.9531 C   0  0  0  0  0  0  0  0  0  0  0  0
  151.0065  140.3515  157.0943 N   0  0  0  0  0  0  0  0  0  0  0  0
  151.3736  141.4502  157.7755 C   0  0  0  0  0  0  0  0  0  0  0  0
  151.0213  142.5993  157.5084 O   0  0  0  0  0  0  0  0  0  0  0  0
  152.1832  141.1369  158.7983 N   0  0  0  0  0  0  0  0  0  0  0  0
  152.7552  142.0771  159.7620 C   0  0  1  0  0  0  0  0  0  0  0  0
  151.6817  143.1216  160.1266 C   0  0  0  0  0  0  0  0  0  0  0  0
  152.1838  144.1081  161.1905 C   0  0  0  0  0  0  0  0  0  0  0  0
  152.6645  143.3640  162.4430 C   0  0  0  0  0  0  0  0  0  0  0  0
  153.7504  142.3371  162.0893 C   0  0  0  0  0  0  0  0  0  0  0  0
  153.2699  141.3328  161.0214 C   0  0  2  0  0  0  0  0  0  0  0  0
  154.3826  140.3192  160.6996 C   0  0  0  0  0  0  0  0  0  0  0  0
  150.1171  139.2907  155.0753 N   0  0  0  0  0  0  0  0  0  0  0  0
  149.1463  139.6784  154.1441 O   0  0  0  0  0  0  0  0  0  0  0  0
  147.3560  142.4951  153.9397 H   0  0  0  0  0  0  0  0  0  0  0  0
  146.6878  140.8836  153.6734 H   0  0  0  0  0  0  0  0  0  0  0  0
  147.9344  141.5121  152.5933 H   0  0  0  0  0  0  0  0  0  0  0  0
  149.0839  142.2550  156.1811 H   0  0  0  0  0  0  0  0  0  0  0  0
  151.3652  139.4693  157.4285 H   0  0  0  0  0  0  0  0  0  0  0  0
  152.4180  140.1640  158.9300 H   0  0  0  0  0  0  0  0  0  0  0  0
  153.5955  142.6105  159.3135 H   0  0  0  0  0  0  0  0  0  0  0  0
  151.3780  143.6713  159.2349 H   0  0  0  0  0  0  0  0  0  0  0  0
  150.7875  142.6185  160.4979 H   0  0  0  0  0  0  0  0  0  0  0  0
  152.9997  144.7055  160.7815 H   0  0  0  0  0  0  0  0  0  0  0  0
  151.3895  144.8066  161.4550 H   0  0  0  0  0  0  0  0  0  0  0  0
  153.0495  144.0760  163.1736 H   0  0  0  0  0  0  0  0  0  0  0  0
  151.8215  142.8592  162.9167 H   0  0  0  0  0  0  0  0  0  0  0  0
  154.6380  142.8593  161.7295 H   0  0  0  0  0  0  0  0  0  0  0  0
  154.0527  141.8051  162.9921 H   0  0  0  0  0  0  0  0  0  0  0  0
  152.4347  140.7754  161.4486 H   0  0  0  0  0  0  0  0  0  0  0  0
  155.2379  140.8080  160.2320 H   0  0  0  0  0  0  0  0  0  0  0  0
  154.0350  139.5387  160.0231 H   0  0  0  0  0  0  0  0  0  0  0  0
  154.7364  139.8252  161.6048 H   0  0  0  0  0  0  0  0  0  0  0  0
  1  2  1  0  0  0  0
  1 18  1  0  0  0  0
  1 19  1  0  0  0  0
  1 20  1  0  0  0  0
  2 17  1  0  0  0  0
  2  3  2  0  0  0  0
  3  4  1  0  0  0  0
  3 21  1  0  0  0  0
  4  5  1  0  0  0  0
  4 16  2  0  0  0  0
  5  6  1  0  0  0  0
  5 22  1  0  0  0  0
  6  7  2  0  0  0  0
  6  8  1  0  0  0  0
  8  9  1  0  0  0  0
  8 23  1  0  0  0  0
  9 14  1  0  0  0  0
  9 10  1  0  0  0  0
  9 24  1  0  0  0  0
 10 11  1  0  0  0  0
 10 25  1  0  0  0  0
 10 26  1  0  0  0  0
 11 12  1  0  0  0  0
 11 27  1  0  0  0  0
 11 28  1  0  0  0  0
 12 13  1  0  0  0  0
 12 29  1  0  0  0  0
 12 30  1  0  0  0  0
 13 14  1  0  0  0  0
 13 31  1  0  0  0  0
 13 32  1  0  0  0  0
 14 15  1  0  0  0  0
 14 33  1  0  0  0  0
 15 34  1  0  0  0  0
 15 35  1  0  0  0  0
 15 36  1  0  0  0  0
 16 17  1  0  0  0  0
M  END
> <s_m_source_file>
AV-unprocessed.smi

> <i_m_source_file_index>
2945

> <i_lp_mmshare_version>
43012

> <i_f3d_flags>
0

> <s_epik_input>
W0NIM11jMVtjSF1jKG5vMSlbTkhdQyg9TylbTkhdW0NAQEhdMltDSDJdW0NIMl1bQ0gyXVtDSDJdW0NASF0yW0NIM10=

> <s_epik_cmdline>
J2VwaWtfcHl0aG9uJywgJy1waCcsICc3LjAnLCAnLXRuJywgJzgnLCAnLW1hJywgJzIwMCcsICctbWV0YWxfYmluZGluZycsICctaW1hZScsICc8aW5maWxlLm1hZT4nLCAnLW9tYWUnLCAnPG91dGZpbGUubWFlPic=

> <r_lp_tautomer_probability>
1

> <r_epik_Ionization_Penalty>
2.357e-05

> <r_epik_Ionization_Penalty_Charging>
0

> <r_epik_Ionization_Penalty_Neutral>
2.357e-05

> <r_epik_State_Penalty>
-0

> <r_epik_Charging_Adjusted_Penalty>
0

> <i_epik_Tot_Q>
0

> <i_epik_Tot_abs_Q>
0

> <r_epik_Metal_State_Penalty>
-0

> <b_epik_Metal_Only>
0

> <s_lp_Force_Field>
OPLS_2005

> <r_lp_Energy>
8.52615

> <b_lp_Chiralities_Consistent>
1

> <s_lp_Variant>
AV-unprocessed.smi:2945-4

> <Gold.Version>
5.8.1

> <Gold.Id.Protein>
6NUR|6NUR_protein|mol2

> <Gold.PLP.Fitness>
33.3606

> <Gold.PLP.PLP>
-34.0596

> <Gold.PLP.part.hbond>
0.0000

> <Gold.PLP.part.metal>
0.0000

> <Gold.PLP.part.buried>
-4.9190

> <Gold.PLP.part.nonpolar>
-29.8758

> <Gold.PLP.part.repulsive>
1.3980

> <Gold.PLP.ligand.clash>
0.0000

> <Gold.PLP.ligand.torsion>
0.3514

> <Gold.PLP.Chemscore.Hbond>
0.0000

> <Gold.PLP.Chemscore.CHOScore>
0.0000

> <Gold.PLP.Chemscore.Metal>
0.0000

> <Gold.PLP.Chemscore.Internal.Correction>
0.0038

> <Gold.Rescore>
     Score         DG    S(hbond)    S(metal)    S(lipo)     H(rot)  DE(clash)    DE(int)     intcor
     11.04     -14.08       0.00        0.00      95.34       1.00       0.24       2.79       ----

> <Gold.Chemscore.Fitness>
11.0410

> <Gold.Chemscore.DG>
-14.0751

> <Gold.Chemscore.ZeroCoef>
-5.4800

> <Gold.Chemscore.Hbond>
0.0000

> <Gold.Chemscore.Metal>
0.0000

> <Gold.Chemscore.Lipo>
95.3424

> <Gold.Chemscore.Internal_Hbond>
0.0000

> <Gold.Chemscore.DEClash>
0.2448

> <Gold.Chemscore.DEInternal>
2.7893

> <Gold.Chemscore.Rot>
1.0000

> <Gold.Chemscore.Internal.Correction>
   9.000000E+99

> <Gold.Chemscore.Hbond.Weighted>
-0.0000

> <Gold.Chemscore.Metal.Weighted>
-0.0000

> <Gold.Chemscore.Lipo.Weighted>
-11.1551

> <Gold.Chemscore.Internal_Hbond.Weighted>
0.0000

> <Gold.Chemscore.DEClash.Weighted>
0.2448

> <Gold.Chemscore.DEInternal.Weighted>
2.7893

> <Gold.Chemscore.Rot.Weighted>
2.5600

> <Gold.Chemscore.Internal.Correction.Weighted>
   9.000000E+99

> <Gold.Protein.RotatedTorsions>
[ 6907 6896 6895 6894 ] final -102.10 input  -60.11 | X-H torsion
[ 7974 7965 7964 7962 ] final   19.69 input  175.53 | X-H torsion
[ 8008 7997 7996 7995 ] final  -24.93 input   59.86 | X-H torsion
[ 10167 10162 10161 10158 ] final   66.65 input  -65.29 | X-H torsion
[ 10718 10713 10712 10709 ] final -152.77 input   66.30 | X-H torsion
[ 10763 10752 10751 10750 ] final  -54.70 input  -60.55 | X-H torsion
[ 11005 11000 10999 10996 ] final  -47.60 input  -57.11 | X-H torsion

> <Gold.Protein.ActiveResidues>
 VAL166  LYS551  ARG553  GLY616  TRP617  ASP618  TYR619  PRO620  LYS621  CYS622 
 ASP623  PHE694  ASN695  SER759  ASP760  ASP761  ALA762  ILE779  LEU786  VAL792 
 PHE793  MET794  SER795  GLU796  ALA797  LYS798  CYS799  TRP800  GLU811  SER814 

> <Gold.Protein.RotatedAtoms>
  150.7182  134.0633  159.3838 H   0  0  0  0  0  0  0  0  0  0  0  0  # atno 6907 bound_to 6896
  151.8613  135.0521  160.0479 H   0  0  0  0  0  0  0  0  0  0  0  0  # atno 6908 bound_to 6896
  152.2715  133.5351  159.5478 H   0  0  0  0  0  0  0  0  0  0  0  0  # atno 6909 bound_to 6896
  146.2140  139.8276  142.8667 H   0  0  0  0  0  0  0  0  0  0  0  0  # atno 7974 bound_to 7965
  154.4503  140.1940  156.0540 H   0  0  0  0  0  0  0  0  0  0  0  0  # atno 8008 bound_to 7997
  156.0633  140.3294  155.7460 H   0  0  0  0  0  0  0  0  0  0  0  0  # atno 8009 bound_to 7997
  155.5378  140.0583  157.2867 H   0  0  0  0  0  0  0  0  0  0  0  0  # atno 8010 bound_to 7997
  140.0981  144.4928  150.7055 H   0  0  0  0  0  0  0  0  0  0  0  0  # atno 10167 bound_to 10162
  156.4769  130.8285  151.2513 H   0  0  0  0  0  0  0  0  0  0  0  0  # atno 10718 bound_to 10713
  154.1790  135.6446  153.5029 H   0  0  0  0  0  0  0  0  0  0  0  0  # atno 10763 bound_to 10752
  153.0064  135.5401  154.6533 H   0  0  0  0  0  0  0  0  0  0  0  0  # atno 10764 bound_to 10752
  154.5893  135.2932  155.0625 H   0  0  0  0  0  0  0  0  0  0  0  0  # atno 10765 bound_to 10752
  141.0651  133.6696  156.3321 H   0  0  0  0  0  0  0  0  0  0  0  0  # atno 11005 bound_to 11000
  145.3031  141.0199  143.3597 LP  0  0  0  0  0  0  0  0  0  0  0  0  # atno 17320 bound_to 7965
  144.8991  139.4673  143.6641 LP  0  0  0  0  0  0  0  0  0  0  0  0  # atno 17321 bound_to 7965
  140.6993  143.2424  151.4912 LP  0  0  0  0  0  0  0  0  0  0  0  0  # atno 17342 bound_to 10162
  139.5687  144.1981  152.1803 LP  0  0  0  0  0  0  0  0  0  0  0  0  # atno 17343 bound_to 10162
  157.7486  131.0058  150.3126 LP  0  0  0  0  0  0  0  0  0  0  0  0  # atno 17370 bound_to 10713
  156.3561  130.3839  149.7289 LP  0  0  0  0  0  0  0  0  0  0  0  0  # atno 17371 bound_to 10713
  140.5790  134.5764  157.5475 LP  0  0  0  0  0  0  0  0  0  0  0  0  # atno 17394 bound_to 11000
  139.9468  134.7687  156.0542 LP  0  0  0  0  0  0  0  0  0  0  0  0  # atno 17395 bound_to 11000

$$$$
