AV-unprocessed.smi:3116|AV-procd|sdf|11870|dock3
  -GOLD-   2272017253D 1   1.00000     0.00000
 Structure written by MMmdl.
 33 33  0  0  0  0  0  0  0  0  1 V2000
  152.5414  137.9226  156.0075 C   0  0  0  0  0  0  0  0  0  0  0  0
  151.7543  139.1665  155.5454 C   0  0  2  0  0  0  0  0  0  0  0  0
  151.0270  139.7954  156.6597 N   0  0  0  0  0  0  0  0  0  0  0  0
  151.8329  140.0061  157.8605 C   0  0  2  0  0  0  0  0  0  0  0  0
  151.6507  138.7717  158.7653 C   0  0  0  0  0  0  0  0  0  0  0  0
  151.3883  141.3353  158.5277 C   0  0  2  0  0  0  0  0  0  0  0  0
  151.2863  142.4961  157.5187 C   0  0  0  0  0  0  0  0  0  0  0  0
  152.2558  141.7088  159.6385 N   0  0  0  0  0  0  0  0  0  0  0  0
  153.4644  141.1503  160.0006 C   0  0  0  0  0  0  0  0  0  0  0  0
  153.9181  141.8295  161.0947 C   0  0  0  0  0  0  0  0  0  0  0  0
  152.9052  142.7994  161.3338 C   0  0  0  0  0  0  0  0  0  0  0  0
  151.9133  142.7264  160.4615 N   0  0  0  0  0  0  0  0  0  0  0  0
  150.7728  138.8330  154.4131 C   0  0  0  0  0  0  0  0  0  0  0  0
  150.7120  137.5552  154.0293 N   0  0  0  0  0  0  0  0  0  0  0  0
  150.0890  139.7050  153.8794 O   0  0  0  0  0  0  0  0  0  0  0  0
  153.0167  137.4193  155.1645 H   0  0  0  0  0  0  0  0  0  0  0  0
  151.8940  137.1989  156.5049 H   0  0  0  0  0  0  0  0  0  0  0  0
  153.3361  138.1885  156.7045 H   0  0  0  0  0  0  0  0  0  0  0  0
  152.4621  139.8885  155.1337 H   0  0  0  0  0  0  0  0  0  0  0  0
  150.1856  139.2878  156.8933 H   0  0  0  0  0  0  0  0  0  0  0  0
  152.8918  140.0886  157.6095 H   0  0  0  0  0  0  0  0  0  0  0  0
  152.2919  138.8215  159.6453 H   0  0  0  0  0  0  0  0  0  0  0  0
  151.9068  137.8507  158.2412 H   0  0  0  0  0  0  0  0  0  0  0  0
  150.6203  138.6804  159.1106 H   0  0  0  0  0  0  0  0  0  0  0  0
  150.3949  141.1844  158.9540 H   0  0  0  0  0  0  0  0  0  0  0  0
  150.5432  142.2894  156.7485 H   0  0  0  0  0  0  0  0  0  0  0  0
  152.2380  142.6765  157.0177 H   0  0  0  0  0  0  0  0  0  0  0  0
  150.9901  143.4211  158.0143 H   0  0  0  0  0  0  0  0  0  0  0  0
  153.8977  140.3259  159.4537 H   0  0  0  0  0  0  0  0  0  0  0  0
  154.8343  141.6597  161.6406 H   0  0  0  0  0  0  0  0  0  0  0  0
  152.8619  143.5501  162.1091 H   0  0  0  0  0  0  0  0  0  0  0  0
  150.0801  137.2825  153.2907 H   0  0  0  0  0  0  0  0  0  0  0  0
  151.2960  136.8671  154.4818 H   0  0  0  0  0  0  0  0  0  0  0  0
  1  2  1  0  0  0  0
  1 16  1  0  0  0  0
  1 17  1  0  0  0  0
  1 18  1  0  0  0  0
  2  3  1  0  0  0  0
  2 13  1  0  0  0  0
  2 19  1  0  0  0  0
  3  4  1  0  0  0  0
  3 20  1  0  0  0  0
  4  5  1  0  0  0  0
  4  6  1  0  0  0  0
  4 21  1  0  0  0  0
  5 22  1  0  0  0  0
  5 23  1  0  0  0  0
  5 24  1  0  0  0  0
  6  7  1  0  0  0  0
  6  8  1  0  0  0  0
  6 25  1  0  0  0  0
  7 26  1  0  0  0  0
  7 27  1  0  0  0  0
  7 28  1  0  0  0  0
  8 12  1  0  0  0  0
  8  9  1  0  0  0  0
  9 10  2  0  0  0  0
  9 29  1  0  0  0  0
 10 11  1  0  0  0  0
 10 30  1  0  0  0  0
 11 12  2  0  0  0  0
 11 31  1  0  0  0  0
 13 14  1  0  0  0  0
 13 15  2  0  0  0  0
 14 32  1  0  0  0  0
 14 33  1  0  0  0  0
M  END
> <s_m_source_file>
AV-unprocessed.smi

> <i_m_source_file_index>
3116

> <i_lp_mmshare_version>
43012

> <i_f3d_flags>
0

> <s_epik_input>
W05IMl1DKD1PKVtDQEhdKFtDSDNdKVtOSF1bQ0BIXShbQ0gzXSlbQ0BIXShbQ0gzXSluMVtjSF1bY0hdW2NIXW4x

> <s_epik_cmdline>
J2VwaWtfcHl0aG9uJywgJy1waCcsICc3LjAnLCAnLXRuJywgJzgnLCAnLW1hJywgJzIwMCcsICctbWV0YWxfYmluZGluZycsICctaW1hZScsICc8aW5maWxlLm1hZT4nLCAnLW9tYWUnLCAnPG91dGZpbGUubWFlPic=

> <r_lp_tautomer_probability>
1

> <r_epik_Ionization_Penalty>
0.865977

> <r_epik_Ionization_Penalty_Charging>
0

> <r_epik_Ionization_Penalty_Neutral>
0.865977

> <r_epik_State_Penalty>
0.901888

> <r_epik_Charging_Adjusted_Penalty>
0.901888

> <i_epik_Tot_Q>
0

> <i_epik_Tot_abs_Q>
0

> <r_epik_Metal_State_Penalty>
0.901181

> <b_epik_Metal_Only>
0

> <s_lp_Force_Field>
OPLS_2005

> <r_lp_Energy>
9.43225

> <b_lp_Chiralities_Consistent>
1

> <s_lp_Variant>
AV-unprocessed.smi:3116-9

> <Gold.Version>
5.8.1

> <Gold.Id.Protein>
6NUR|6NUR_protein|mol2

> <Gold.PLP.Fitness>
34.6039

> <Gold.PLP.PLP>
-31.1414

> <Gold.PLP.part.hbond>
-3.4674

> <Gold.PLP.part.metal>
0.0000

> <Gold.PLP.part.buried>
-6.0177

> <Gold.PLP.part.nonpolar>
-24.2351

> <Gold.PLP.part.repulsive>
2.3432

> <Gold.PLP.ligand.clash>
1.1080

> <Gold.PLP.ligand.torsion>
0.7194

> <Gold.PLP.Chemscore.Hbond>
1.9510

> <Gold.PLP.Chemscore.CHOScore>
0.0000

> <Gold.PLP.Chemscore.Metal>
0.0000

> <Gold.Chemscore.Hbonds>
donor molecule, donor type, donor heavy atom, donor atom, acceptor molecule, acceptor atom, score
      L1  H    14    32       P1  7948  0.90
      P1  H  7989  7998       L1    15  0.71

> <Gold.PLP.Chemscore.Internal.Correction>
0.1562

> <Gold.Rescore>
     Score         DG    S(hbond)    S(metal)    S(lipo)     H(rot)  DE(clash)    DE(int)     intcor
     11.44     -12.72       1.62        0.00      67.90       2.38       0.08       1.20       ----

> <Gold.Chemscore.Fitness>
11.4427

> <Gold.Chemscore.DG>
-12.7220

> <Gold.Chemscore.ZeroCoef>
-5.4800

> <Gold.Chemscore.Hbond>
1.6168

> <Gold.Chemscore.Metal>
0.0000

> <Gold.Chemscore.Lipo>
67.8953

> <Gold.Chemscore.Internal_Hbond>
0.0000

> <Gold.Chemscore.DEClash>
0.0785

> <Gold.Chemscore.DEInternal>
1.2008

> <Gold.Chemscore.Rot>
2.3836

> <Gold.Chemscore.Internal.Correction>
   9.000000E+99

> <Gold.Chemscore.Hbonds>
donor molecule, donor type, donor heavy atom, donor atom, acceptor molecule, acceptor atom, score
      L1  H    14    32       P1  7948  0.19
      P1  H  7989  7998       L1    15  0.08

> <Gold.Chemscore.Hbond.Weighted>
-5.4002

> <Gold.Chemscore.Metal.Weighted>
-0.0000

> <Gold.Chemscore.Lipo.Weighted>
-7.9437

> <Gold.Chemscore.Internal_Hbond.Weighted>
0.0000

> <Gold.Chemscore.DEClash.Weighted>
0.0785

> <Gold.Chemscore.DEInternal.Weighted>
1.2008

> <Gold.Chemscore.Rot.Weighted>
6.1020

> <Gold.Chemscore.Internal.Correction.Weighted>
   9.000000E+99

> <Gold.Protein.RotatedTorsions>
[ 6907 6896 6895 6894 ] final  109.89 input  -60.11 | X-H torsion
[ 7974 7965 7964 7962 ] final -107.14 input  175.53 | X-H torsion
[ 8008 7997 7996 7995 ] final -159.81 input   59.86 | X-H torsion
[ 10167 10162 10161 10158 ] final   83.79 input  -65.29 | X-H torsion
[ 10718 10713 10712 10709 ] final    0.25 input   66.30 | X-H torsion
[ 10763 10752 10751 10750 ] final  -55.69 input  -60.55 | X-H torsion
[ 11005 11000 10999 10996 ] final   73.05 input  -57.11 | X-H torsion

> <Gold.Protein.ActiveResidues>
 VAL166  LYS551  ARG553  GLY616  TRP617  ASP618  TYR619  PRO620  LYS621  CYS622 
 ASP623  PHE694  ASN695  SER759  ASP760  ASP761  ALA762  ILE779  LEU786  VAL792 
 PHE793  MET794  SER795  GLU796  ALA797  LYS798  CYS799  TRP800  GLU811  SER814 

> <Gold.Protein.RotatedAtoms>
  152.5046  133.8880  159.7379 H   0  0  0  0  0  0  0  0  0  0  0  0  # atno 6907 bound_to 6896
  150.9325  133.6741  159.2814 H   0  0  0  0  0  0  0  0  0  0  0  0  # atno 6908 bound_to 6896
  151.4080  135.0985  159.9629 H   0  0  0  0  0  0  0  0  0  0  0  0  # atno 6909 bound_to 6896
  145.2090  140.9088  143.3325 H   0  0  0  0  0  0  0  0  0  0  0  0  # atno 7974 bound_to 7965
  155.7681  140.0848  157.2122 H   0  0  0  0  0  0  0  0  0  0  0  0  # atno 8008 bound_to 7997
  154.3998  140.1530  156.2967 H   0  0  0  0  0  0  0  0  0  0  0  0  # atno 8009 bound_to 7997
  155.8774  140.3422  155.5866 H   0  0  0  0  0  0  0  0  0  0  0  0  # atno 8010 bound_to 7997
  139.9147  144.6250  150.8501 H   0  0  0  0  0  0  0  0  0  0  0  0  # atno 10167 bound_to 10162
  156.8306  130.5487  149.5687 H   0  0  0  0  0  0  0  0  0  0  0  0  # atno 10718 bound_to 10713
  154.1948  135.6421  153.5070 H   0  0  0  0  0  0  0  0  0  0  0  0  # atno 10763 bound_to 10752
  153.0026  135.5437  154.6377 H   0  0  0  0  0  0  0  0  0  0  0  0  # atno 10764 bound_to 10752
  154.5775  135.2922  155.0739 H   0  0  0  0  0  0  0  0  0  0  0  0  # atno 10765 bound_to 10752
  139.9459  134.7313  156.0980 H   0  0  0  0  0  0  0  0  0  0  0  0  # atno 11005 bound_to 11000
  144.9874  139.3723  143.6232 LP  0  0  0  0  0  0  0  0  0  0  0  0  # atno 17320 bound_to 7965
  146.3401  139.9042  142.8790 LP  0  0  0  0  0  0  0  0  0  0  0  0  # atno 17321 bound_to 7965
  140.7677  143.3340  151.2349 LP  0  0  0  0  0  0  0  0  0  0  0  0  # atno 17342 bound_to 10162
  139.6912  143.9688  152.2860 LP  0  0  0  0  0  0  0  0  0  0  0  0  # atno 17343 bound_to 10162
  156.0936  130.5915  150.9776 LP  0  0  0  0  0  0  0  0  0  0  0  0  # atno 17370 bound_to 10713
  157.6409  131.0910  150.8253 LP  0  0  0  0  0  0  0  0  0  0  0  0  # atno 17371 bound_to 10713
  141.1109  133.6643  156.2977 LP  0  0  0  0  0  0  0  0  0  0  0  0  # atno 17394 bound_to 11000
  140.5835  134.5722  157.5485 LP  0  0  0  0  0  0  0  0  0  0  0  0  # atno 17395 bound_to 11000

$$$$
