AV-unprocessed.smi:287|AV-procd|sdf|2203|dock7
  -GOLD-   2262022 23D 1   1.00000     0.00000
 Structure written by MMmdl.
 55 58  0  0  0  0  0  0  0  0  1 V2000
  147.3118  123.6493  154.8430 C   0  0  0  0  0  0  0  0  0  0  0  0
  148.0805  124.8753  154.4863 C   0  0  0  0  0  0  0  0  0  0  0  0
  148.8390  125.7557  155.2011 C   0  0  0  0  0  0  0  0  0  0  0  0
  149.3202  126.7425  154.2895 C   0  0  0  0  0  0  0  0  0  0  0  0
  150.2137  127.9243  154.6415 C   0  0  1  0  0  0  0  0  0  0  0  0
  151.5123  127.4184  155.2916 C   0  0  0  0  0  0  0  0  0  0  0  0
  150.6261  128.6592  153.5055 O   0  0  0  0  0  0  0  0  0  0  0  0
  149.5131  128.9390  155.5739 C   0  0  0  0  0  0  0  0  0  0  0  0
  148.2404  129.4118  155.0447 N   0  0  0  0  0  0  0  0  0  0  0  0
  148.1563  130.5708  154.3581 C   0  0  0  0  0  0  0  0  0  0  0  0
  148.9286  131.5784  154.8275 N   0  0  0  0  0  0  0  0  0  0  0  0
  148.9149  132.7695  154.2258 C   0  0  0  0  0  0  0  0  0  0  0  0
  148.2145  133.1544  153.1592 N   0  0  0  0  0  0  0  0  0  0  0  0
  147.4368  132.1458  152.6669 C   0  0  0  0  0  0  0  0  0  0  0  0
  147.3465  130.8303  153.2115 C   0  0  0  0  0  0  0  0  0  0  0  0
  146.4435  130.0858  152.4621 N   0  0  0  0  0  0  0  0  0  0  0  0
  146.0281  130.9106  151.5418 C   0  0  0  0  0  0  0  0  0  0  0  0
  146.5924  132.1670  151.5689 N   0  0  0  0  0  0  0  0  0  0  0  0
  146.2768  133.3179  150.6495 C   0  0  1  0  0  0  0  0  0  0  0  0
  145.4625  132.8722  149.6088 O   0  0  0  0  0  0  0  0  0  0  0  0
  144.0985  133.0650  149.9616 C   0  0  2  0  0  0  0  0  0  0  0  0
  143.1799  132.9358  148.7342 C   0  0  0  0  0  0  0  0  0  0  0  0
  143.5198  133.9108  147.7715 O   0  0  0  0  0  0  0  0  0  0  0  0
  144.1513  134.4505  150.6152 C   0  0  2  0  0  0  0  0  0  0  0  0
  144.1480  135.4680  149.6264 O   0  0  0  0  0  0  0  0  0  0  0  0
  145.4628  134.3928  151.4020 C   0  0  2  0  0  0  0  0  0  0  0  0
  146.1183  135.6457  151.4736 O   0  0  0  0  0  0  0  0  0  0  0  0
  148.8126  126.3683  153.0682 C   0  0  0  0  0  0  0  0  0  0  0  0
  148.9170  126.9246  151.6861 C   0  0  0  0  0  0  0  0  0  0  0  0
  148.0581  125.2396  153.1796 O   0  0  0  0  0  0  0  0  0  0  0  0
  147.2485  133.6497  150.2825 H   0  0  0  0  0  0  0  0  0  0  0  0
  143.8143  132.3338  150.7216 H   0  0  0  0  0  0  0  0  0  0  0  0
  143.2977  134.6168  151.2732 H   0  0  0  0  0  0  0  0  0  0  0  0
  145.2490  134.0525  152.4160 H   0  0  0  0  0  0  0  0  0  0  0  0
  147.1994  123.5617  155.9237 H   0  0  0  0  0  0  0  0  0  0  0  0
  147.8219  122.7559  154.4827 H   0  0  0  0  0  0  0  0  0  0  0  0
  146.3155  123.6726  154.4011 H   0  0  0  0  0  0  0  0  0  0  0  0
  149.0263  125.7018  156.2633 H   0  0  0  0  0  0  0  0  0  0  0  0
  151.3066  126.8663  156.2095 H   0  0  0  0  0  0  0  0  0  0  0  0
  152.1794  128.2421  155.5488 H   0  0  0  0  0  0  0  0  0  0  0  0
  152.0556  126.7499  154.6227 H   0  0  0  0  0  0  0  0  0  0  0  0
  151.0817  128.0744  152.9196 H   0  0  0  0  0  0  0  0  0  0  0  0
  149.3007  128.4469  156.5240 H   0  0  0  0  0  0  0  0  0  0  0  0
  150.1717  129.7809  155.7922 H   0  0  0  0  0  0  0  0  0  0  0  0
  147.4415  128.8256  155.2414 H   0  0  0  0  0  0  0  0  0  0  0  0
  149.5568  133.5219  154.6596 H   0  0  0  0  0  0  0  0  0  0  0  0
  145.2923  130.6195  150.8064 H   0  0  0  0  0  0  0  0  0  0  0  0
  143.3096  131.9581  148.2690 H   0  0  0  0  0  0  0  0  0  0  0  0
  142.1292  133.0290  149.0108 H   0  0  0  0  0  0  0  0  0  0  0  0
  144.4104  134.1866  147.9258 H   0  0  0  0  0  0  0  0  0  0  0  0
  144.8561  135.2985  149.0235 H   0  0  0  0  0  0  0  0  0  0  0  0
  147.0268  135.4983  151.6872 H   0  0  0  0  0  0  0  0  0  0  0  0
  149.9596  127.0000  151.3778 H   0  0  0  0  0  0  0  0  0  0  0  0
  148.4752  127.9195  151.6361 H   0  0  0  0  0  0  0  0  0  0  0  0
  148.3993  126.2920  150.9647 H   0  0  0  0  0  0  0  0  0  0  0  0
  1  2  1  0  0  0  0
  1 35  1  0  0  0  0
  1 36  1  0  0  0  0
  1 37  1  0  0  0  0
  2 30  1  0  0  0  0
  2  3  2  0  0  0  0
  3  4  1  0  0  0  0
  3 38  1  0  0  0  0
  4  5  1  0  0  0  0
  4 28  2  0  0  0  0
  5  6  1  0  0  0  0
  5  7  1  0  0  0  0
  5  8  1  0  0  0  0
  6 39  1  0  0  0  0
  6 40  1  0  0  0  0
  6 41  1  0  0  0  0
  7 42  1  0  0  0  0
  8  9  1  0  0  0  0
  8 43  1  0  0  0  0
  8 44  1  0  0  0  0
  9 10  1  0  0  0  0
  9 45  1  0  0  0  0
 10 15  1  0  0  0  0
 10 11  2  0  0  0  0
 11 12  1  0  0  0  0
 12 13  2  0  0  0  0
 12 46  1  0  0  0  0
 13 14  1  0  0  0  0
 14 18  1  0  0  0  0
 14 15  2  0  0  0  0
 15 16  1  0  0  0  0
 16 17  2  0  0  0  0
 17 18  1  0  0  0  0
 17 47  1  0  0  0  0
 18 19  1  0  0  0  0
 19 31  1  0  0  0  0
 19 26  1  0  0  0  0
 19 20  1  0  0  0  0
 20 21  1  0  0  0  0
 21 32  1  0  0  0  0
 21 22  1  0  0  0  0
 21 24  1  0  0  0  0
 22 23  1  0  0  0  0
 22 48  1  0  0  0  0
 22 49  1  0  0  0  0
 23 50  1  0  0  0  0
 24 33  1  0  0  0  0
 24 25  1  0  0  0  0
 24 26  1  0  0  0  0
 25 51  1  0  0  0  0
 26 34  1  0  0  0  0
 26 27  1  0  0  0  0
 27 52  1  0  0  0  0
 28 29  1  0  0  0  0
 28 30  1  0  0  0  0
 29 53  1  0  0  0  0
 29 54  1  0  0  0  0
 29 55  1  0  0  0  0
M  END
> <s_m_source_file>
AV-unprocessed.smi

> <i_m_source_file_index>
287

> <i_lp_mmshare_version>
43012

> <i_f3d_flags>
0

> <s_epik_input>
W0NIM11jMVtjSF1jKGMobzEpW0NIM10pW0NAQF0oW0NIM10pKFtPSF0pW0NIMl1bTkhdYyhuW2NIXW4yKWMoYzIzKW5bY0hdbjNbQ0BASF00T1tDQEhdKFtDSDJdW09IXSlbQ0BASF0oW09IXSlbQ0BIXTRbT0hd

> <s_epik_cmdline>
J2VwaWtfcHl0aG9uJywgJy1waCcsICc3LjAnLCAnLXRuJywgJzgnLCAnLW1hJywgJzIwMCcsICctbWV0YWxfYmluZGluZycsICctaW1hZScsICc8aW5maWxlLm1hZT4nLCAnLW9tYWUnLCAnPG91dGZpbGUubWFlPic=

> <r_lp_tautomer_probability>
1

> <r_epik_Ionization_Penalty>
0.000992612

> <r_epik_Ionization_Penalty_Charging>
0

> <r_epik_Ionization_Penalty_Neutral>
0.000992612

> <r_epik_State_Penalty>
-0

> <r_epik_Charging_Adjusted_Penalty>
0

> <i_epik_Tot_Q>
0

> <i_epik_Tot_abs_Q>
0

> <r_epik_Metal_State_Penalty>
-0

> <b_epik_Metal_Only>
0

> <s_epik_Chemistry_Notes>
This compound contains an acetal/aminal-like group ( X-CH(R)-Y where X, Y are N, S, or O) that may be acid/base labile, releasing an aldehyde.

> <s_lp_Force_Field>
OPLS_2005

> <r_lp_Energy>
46.8376

> <b_lp_Chiralities_Consistent>
1

> <s_lp_Variant>
AV-unprocessed.smi:287-27

> <Gold.Version>
5.8.1

> <Gold.Id.Protein>
6NUR|6NUR_protein|mol2

> <Gold.PLP.Fitness>
52.3890

> <Gold.PLP.PLP>
-38.9248

> <Gold.PLP.part.hbond>
-8.1456

> <Gold.PLP.part.metal>
0.0000

> <Gold.PLP.part.buried>
0.5700

> <Gold.PLP.part.nonpolar>
-32.6381

> <Gold.PLP.part.repulsive>
2.2671

> <Gold.PLP.ligand.clash>
0.0000

> <Gold.PLP.ligand.torsion>
0.7187

> <Gold.PLP.Chemscore.Hbond>
4.9348

> <Gold.PLP.Chemscore.CHOScore>
0.0000

> <Gold.PLP.Chemscore.Metal>
0.0000

> <Gold.Chemscore.Hbonds>
donor molecule, donor type, donor heavy atom, donor atom, acceptor molecule, acceptor atom, score
      L1  H     7    42       P1 10737  1.00
      L1  H    23    50       P1  7921  1.00
      L1  H    25    51       P1  7921  1.00
      L1  H    27    52       P1  7948  0.99
      P1  H 10192 10197       L1    23  0.96

> <Gold.PLP.Chemscore.Internal.Correction>
0.0974

> <Gold.Rescore>
     Score         DG    S(hbond)    S(metal)    S(lipo)     H(rot)  DE(clash)    DE(int)     intcor
     10.73     -15.59       4.84        0.00      63.51       5.27       3.36       1.50       ----

> <Gold.Chemscore.Fitness>
10.7281

> <Gold.Chemscore.DG>
-15.5885

> <Gold.Chemscore.ZeroCoef>
-5.4800

> <Gold.Chemscore.Hbond>
4.8390

> <Gold.Chemscore.Metal>
0.0000

> <Gold.Chemscore.Lipo>
63.5068

> <Gold.Chemscore.Internal_Hbond>
0.0000

> <Gold.Chemscore.DEClash>
3.3643

> <Gold.Chemscore.DEInternal>
1.4961

> <Gold.Chemscore.Rot>
5.2672

> <Gold.Chemscore.Internal.Correction>
   9.000000E+99

> <Gold.Chemscore.Hbonds>
donor molecule, donor type, donor heavy atom, donor atom, acceptor molecule, acceptor atom, score
      L1  H     7    42       P1 10737  0.95
      L1  H    23    50       P1  7921  1.00
      L1  H    25    51       P1  7921  0.99
      L1  H    27    52       P1  7948  0.88
      P1  H 10192 10197       L1    23  0.84

> <Gold.Chemscore.Hbond.Weighted>
-16.1622

> <Gold.Chemscore.Metal.Weighted>
-0.0000

> <Gold.Chemscore.Lipo.Weighted>
-7.4303

> <Gold.Chemscore.Internal_Hbond.Weighted>
0.0000

> <Gold.Chemscore.DEClash.Weighted>
3.3643

> <Gold.Chemscore.DEInternal.Weighted>
1.4961

> <Gold.Chemscore.Rot.Weighted>
13.4839

> <Gold.Chemscore.Internal.Correction.Weighted>
   9.000000E+99

> <Gold.Protein.RotatedTorsions>
[ 6907 6896 6895 6894 ] final  -39.13 input  -60.11 | X-H torsion
[ 7974 7965 7964 7962 ] final  -12.18 input  175.53 | X-H torsion
[ 8008 7997 7996 7995 ] final   83.84 input   59.86 | X-H torsion
[ 10167 10162 10161 10158 ] final   50.35 input  -65.29 | X-H torsion
[ 10718 10713 10712 10709 ] final  -74.70 input   66.30 | X-H torsion
[ 10763 10752 10751 10750 ] final  -43.59 input  -60.55 | X-H torsion
[ 11005 11000 10999 10996 ] final   -1.43 input  -57.11 | X-H torsion

> <Gold.Protein.ActiveResidues>
 VAL166  LYS551  ARG553  GLY616  TRP617  ASP618  TYR619  PRO620  LYS621  CYS622 
 ASP623  PHE694  ASN695  SER759  ASP760  ASP761  ALA762  ILE779  LEU786  VAL792 
 PHE793  MET794  SER795  GLU796  ALA797  LYS798  CYS799  TRP800  GLU811  SER814 

> <Gold.Protein.RotatedAtoms>
  150.9940  134.9268  159.7915 H   0  0  0  0  0  0  0  0  0  0  0  0  # atno 6907 bound_to 6896
  152.5259  134.3243  159.9170 H   0  0  0  0  0  0  0  0  0  0  0  0  # atno 6908 bound_to 6896
  151.3249  133.3983  159.2692 H   0  0  0  0  0  0  0  0  0  0  0  0  # atno 6909 bound_to 6896
  146.2161  140.3020  142.8376 H   0  0  0  0  0  0  0  0  0  0  0  0  # atno 7974 bound_to 7965
  155.9293  140.3416  155.6236 H   0  0  0  0  0  0  0  0  0  0  0  0  # atno 8008 bound_to 7997
  155.7177  140.0779  157.2362 H   0  0  0  0  0  0  0  0  0  0  0  0  # atno 8009 bound_to 7997
  154.4082  140.1611  156.2355 H   0  0  0  0  0  0  0  0  0  0  0  0  # atno 8010 bound_to 7997
  140.2734  144.3240  150.6284 H   0  0  0  0  0  0  0  0  0  0  0  0  # atno 10167 bound_to 10162
  156.0233  130.4423  150.2931 H   0  0  0  0  0  0  0  0  0  0  0  0  # atno 10718 bound_to 10713
  153.9980  135.6697  153.4757 H   0  0  0  0  0  0  0  0  0  0  0  0  # atno 10763 bound_to 10752
  153.0675  135.4993  154.8228 H   0  0  0  0  0  0  0  0  0  0  0  0  # atno 10764 bound_to 10752
  154.7070  135.3090  154.9219 H   0  0  0  0  0  0  0  0  0  0  0  0  # atno 10765 bound_to 10752
  140.6473  133.9436  155.8360 H   0  0  0  0  0  0  0  0  0  0  0  0  # atno 11005 bound_to 11000
  144.9050  140.7689  143.5843 LP  0  0  0  0  0  0  0  0  0  0  0  0  # atno 17320 bound_to 7965
  145.2948  139.1871  143.4721 LP  0  0  0  0  0  0  0  0  0  0  0  0  # atno 17321 bound_to 7965
  140.5871  143.2169  151.7321 LP  0  0  0  0  0  0  0  0  0  0  0  0  # atno 17342 bound_to 10162
  139.4982  144.3994  152.0197 LP  0  0  0  0  0  0  0  0  0  0  0  0  # atno 17343 bound_to 10162
  157.1035  131.0202  151.3076 LP  0  0  0  0  0  0  0  0  0  0  0  0  # atno 17370 bound_to 10713
  157.4761  130.7737  149.7369 LP  0  0  0  0  0  0  0  0  0  0  0  0  # atno 17371 bound_to 10713
  141.0563  134.0412  157.3718 LP  0  0  0  0  0  0  0  0  0  0  0  0  # atno 17394 bound_to 11000
  139.9058  135.0179  156.7480 LP  0  0  0  0  0  0  0  0  0  0  0  0  # atno 17395 bound_to 11000

$$$$
