AV-unprocessed.smi:719|AV-procd|sdf|3493|dock9
  -GOLD-   22720 0493D 1   1.00000     0.00000
 Structure written by MMmdl.
 41 43  0  0  0  0  0  0  0  0  1 V2000
  151.9523  144.4512  157.9307 C   0  0  0  0  0  0  0  0  0  0  0  0
  152.0261  144.6202  159.4522 C   0  0  0  0  0  0  0  0  0  0  0  0
  152.5620  143.3965  160.1346 C   0  0  0  0  0  0  0  0  0  0  0  0
  152.8379  142.2553  159.3760 N   0  0  0  0  0  0  0  0  0  0  0  0
  153.3049  141.2457  160.1138 C   0  0  0  0  0  0  0  0  0  0  0  0
  153.7409  139.9352  159.5422 C   0  0  0  0  0  0  0  0  0  0  0  0
  153.2520  138.7104  160.3386 C   0  0  0  0  0  0  0  0  0  0  0  0
  154.3230  138.0683  161.0973 N   0  0  0  0  0  0  0  0  0  0  0  0
  154.5194  136.7445  161.2023 C   0  0  0  0  0  0  0  0  0  0  0  0
  153.7898  135.9051  160.6745 O   0  0  0  0  0  0  0  0  0  0  0  0
  155.6658  136.3682  162.0792 C   0  0  2  0  0  0  0  0  0  0  0  0
  155.4262  135.5737  163.3533 C   0  0  2  0  0  0  0  0  0  0  0  0
  154.0847  135.3806  164.0324 C   0  0  0  0  0  0  0  0  0  0  0  0
  153.5140  136.7843  164.2925 C   0  0  0  0  0  0  0  0  0  0  0  0
  154.7058  137.7516  164.1994 C   0  0  0  0  0  0  0  0  0  0  0  0
  155.8032  137.0247  163.4458 C   0  0  2  0  0  0  0  0  0  0  0  0
  153.4404  141.6427  161.8202 S   0  0  0  0  0  0  0  0  0  0  0  0
  152.8241  143.2383  161.4757 C   0  0  0  0  0  0  0  0  0  0  0  0
  152.6437  144.2392  162.5680 C   0  0  0  0  0  0  0  0  0  0  0  0
  151.5586  145.3509  157.4577 H   0  0  0  0  0  0  0  0  0  0  0  0
  151.3008  143.6198  157.6596 H   0  0  0  0  0  0  0  0  0  0  0  0
  152.9379  144.2563  157.5069 H   0  0  0  0  0  0  0  0  0  0  0  0
  152.6531  145.4814  159.6871 H   0  0  0  0  0  0  0  0  0  0  0  0
  151.0348  144.8643  159.8351 H   0  0  0  0  0  0  0  0  0  0  0  0
  153.3808  139.8713  158.5153 H   0  0  0  0  0  0  0  0  0  0  0  0
  154.8302  139.9257  159.4849 H   0  0  0  0  0  0  0  0  0  0  0  0
  152.4333  138.9994  160.9998 H   0  0  0  0  0  0  0  0  0  0  0  0
  152.8377  137.9729  159.6511 H   0  0  0  0  0  0  0  0  0  0  0  0
  154.9619  138.6784  161.5863 H   0  0  0  0  0  0  0  0  0  0  0  0
  156.6028  136.2014  161.5515 H   0  0  0  0  0  0  0  0  0  0  0  0
  156.1757  134.8200  163.5865 H   0  0  0  0  0  0  0  0  0  0  0  0
  153.4217  134.7679  163.4211 H   0  0  0  0  0  0  0  0  0  0  0  0
  154.2456  134.8609  164.9773 H   0  0  0  0  0  0  0  0  0  0  0  0
  152.7824  137.0299  163.5222 H   0  0  0  0  0  0  0  0  0  0  0  0
  153.0029  136.8509  165.2532 H   0  0  0  0  0  0  0  0  0  0  0  0
  154.4456  138.6884  163.7062 H   0  0  0  0  0  0  0  0  0  0  0  0
  155.0722  137.9901  165.1983 H   0  0  0  0  0  0  0  0  0  0  0  0
  156.8170  137.2843  163.7445 H   0  0  0  0  0  0  0  0  0  0  0  0
  151.6429  144.6701  162.5374 H   0  0  0  0  0  0  0  0  0  0  0  0
  153.3646  145.0505  162.4688 H   0  0  0  0  0  0  0  0  0  0  0  0
  152.7830  143.7836  163.5486 H   0  0  0  0  0  0  0  0  0  0  0  0
  1  2  1  0  0  0  0
  1 20  1  0  0  0  0
  1 21  1  0  0  0  0
  1 22  1  0  0  0  0
  2  3  1  0  0  0  0
  2 23  1  0  0  0  0
  2 24  1  0  0  0  0
  3 18  2  0  0  0  0
  3  4  1  0  0  0  0
  4  5  2  0  0  0  0
  5  6  1  0  0  0  0
  5 17  1  0  0  0  0
  6  7  1  0  0  0  0
  6 25  1  0  0  0  0
  6 26  1  0  0  0  0
  7  8  1  0  0  0  0
  7 27  1  0  0  0  0
  7 28  1  0  0  0  0
  8  9  1  0  0  0  0
  8 29  1  0  0  0  0
  9 10  2  0  0  0  0
  9 11  1  0  0  0  0
 11 16  1  0  0  0  0
 11 12  1  0  0  0  0
 11 30  1  0  0  0  0
 12 16  1  0  0  0  0
 12 13  1  0  0  0  0
 12 31  1  0  0  0  0
 13 14  1  0  0  0  0
 13 32  1  0  0  0  0
 13 33  1  0  0  0  0
 14 15  1  0  0  0  0
 14 34  1  0  0  0  0
 14 35  1  0  0  0  0
 15 16  1  0  0  0  0
 15 36  1  0  0  0  0
 15 37  1  0  0  0  0
 16 38  1  0  0  0  0
 17 18  1  0  0  0  0
 18 19  1  0  0  0  0
 19 39  1  0  0  0  0
 19 40  1  0  0  0  0
 19 41  1  0  0  0  0
M  END
> <s_m_source_file>
AV-unprocessed.smi

> <i_m_source_file_index>
719

> <i_lp_mmshare_version>
43012

> <i_f3d_flags>
0

> <s_epik_input>
W0NIM11bQ0gyXWMxbmMoc2MxW0NIM10pW0NIMl1bQ0gyXVtOSF1DKD1PKVtDQEhdMltDQEhdKFtDQEBIXTIzKVtDSDJdW0NIMl1bQ0gyXTM=

> <s_epik_cmdline>
J2VwaWtfcHl0aG9uJywgJy1waCcsICc3LjAnLCAnLXRuJywgJzgnLCAnLW1hJywgJzIwMCcsICctbWV0YWxfYmluZGluZycsICctaW1hZScsICc8aW5maWxlLm1hZT4nLCAnLW9tYWUnLCAnPG91dGZpbGUubWFlPic=

> <r_epik_Ionization_Penalty>
0.00247473

> <r_epik_Ionization_Penalty_Charging>
0

> <r_epik_Ionization_Penalty_Neutral>
0.00247473

> <r_epik_State_Penalty>
0.00171502

> <r_epik_Charging_Adjusted_Penalty>
0.00171502

> <i_epik_Tot_Q>
0

> <i_epik_Tot_abs_Q>
0

> <r_epik_Metal_State_Penalty>
-0

> <b_epik_Metal_Only>
0

> <s_lp_Force_Field>
OPLS_2005

> <r_lp_Energy>
22.4904

> <b_lp_Chiralities_Consistent>
1

> <s_lp_Variant>
AV-unprocessed.smi:719-1

> <Gold.Version>
5.8.1

> <Gold.Id.Protein>
6NUR|6NUR_protein|mol2

> <Gold.PLP.Fitness>
45.0632

> <Gold.PLP.PLP>
-43.4946

> <Gold.PLP.part.hbond>
-1.0000

> <Gold.PLP.part.metal>
0.0000

> <Gold.PLP.part.buried>
-5.1621

> <Gold.PLP.part.nonpolar>
-36.8661

> <Gold.PLP.part.repulsive>
0.0001

> <Gold.PLP.ligand.clash>
0.0000

> <Gold.PLP.ligand.torsion>
0.7691

> <Gold.PLP.Chemscore.Hbond>
1.0000

> <Gold.PLP.Chemscore.CHOScore>
0.0000

> <Gold.PLP.Chemscore.Metal>
0.0000

> <Gold.Chemscore.Hbonds>
donor molecule, donor type, donor heavy atom, donor atom, acceptor molecule, acceptor atom, score
      P1  H  6896  6909       L1    10  1.00

> <Gold.PLP.Chemscore.Internal.Correction>
0.1068

> <Gold.Rescore>
     Score         DG    S(hbond)    S(metal)    S(lipo)     H(rot)  DE(clash)    DE(int)     intcor
     20.05     -20.88       1.00        0.00     134.23       1.42       0.12       0.71       ----

> <Gold.Chemscore.Fitness>
20.0540

> <Gold.Chemscore.DG>
-20.8820

> <Gold.Chemscore.ZeroCoef>
-5.4800

> <Gold.Chemscore.Hbond>
0.9983

> <Gold.Chemscore.Metal>
0.0000

> <Gold.Chemscore.Lipo>
134.2332

> <Gold.Chemscore.Internal_Hbond>
0.0000

> <Gold.Chemscore.DEClash>
0.1199

> <Gold.Chemscore.DEInternal>
0.7081

> <Gold.Chemscore.Rot>
1.4209

> <Gold.Chemscore.Internal.Correction>
   9.000000E+99

> <Gold.Chemscore.Hbonds>
donor molecule, donor type, donor heavy atom, donor atom, acceptor molecule, acceptor atom, score
      P1  H  6896  6909       L1    10  1.00

> <Gold.Chemscore.Hbond.Weighted>
-3.3342

> <Gold.Chemscore.Metal.Weighted>
-0.0000

> <Gold.Chemscore.Lipo.Weighted>
-15.7053

> <Gold.Chemscore.Internal_Hbond.Weighted>
0.0000

> <Gold.Chemscore.DEClash.Weighted>
0.1199

> <Gold.Chemscore.DEInternal.Weighted>
0.7081

> <Gold.Chemscore.Rot.Weighted>
3.6376

> <Gold.Chemscore.Internal.Correction.Weighted>
   9.000000E+99

> <Gold.Protein.RotatedTorsions>
[ 6907 6896 6895 6894 ] final  170.78 input  -60.11 | X-H torsion
[ 7974 7965 7964 7962 ] final  -33.31 input  175.53 | X-H torsion
[ 8008 7997 7996 7995 ] final   85.15 input   59.86 | X-H torsion
[ 10167 10162 10161 10158 ] final  -58.90 input  -65.29 | X-H torsion
[ 10718 10713 10712 10709 ] final -101.74 input   66.30 | X-H torsion
[ 10763 10752 10751 10750 ] final  -36.54 input  -60.55 | X-H torsion
[ 11005 11000 10999 10996 ] final   62.57 input  -57.11 | X-H torsion

> <Gold.Protein.ActiveResidues>
 VAL166  LYS551  ARG553  GLY616  TRP617  ASP618  TYR619  PRO620  LYS621  CYS622 
 ASP623  PHE694  ASN695  SER759  ASP760  ASP761  ALA762  ILE779  LEU786  VAL792 
 PHE793  MET794  SER795  GLU796  ALA797  LYS798  CYS799  TRP800  GLU811  SER814 

> <Gold.Protein.RotatedAtoms>
  151.8106  133.3381  159.3553 H   0  0  0  0  0  0  0  0  0  0  0  0  # atno 6907 bound_to 6896
  150.7327  134.5668  159.5879 H   0  0  0  0  0  0  0  0  0  0  0  0  # atno 6908 bound_to 6896
  152.3078  134.7535  160.0394 H   0  0  0  0  0  0  0  0  0  0  0  0  # atno 6909 bound_to 6896
  146.0921  140.5900  142.8860 H   0  0  0  0  0  0  0  0  0  0  0  0  # atno 7974 bound_to 7965
  155.9463  140.3404  155.6369 H   0  0  0  0  0  0  0  0  0  0  0  0  # atno 8008 bound_to 7997
  155.6977  140.0756  157.2441 H   0  0  0  0  0  0  0  0  0  0  0  0  # atno 8009 bound_to 7997
  154.4112  140.1646  156.2143 H   0  0  0  0  0  0  0  0  0  0  0  0  # atno 8010 bound_to 7997
  140.6168  143.2405  151.5576 H   0  0  0  0  0  0  0  0  0  0  0  0  # atno 10167 bound_to 10162
  156.0204  130.5387  150.7006 H   0  0  0  0  0  0  0  0  0  0  0  0  # atno 10718 bound_to 10713
  153.8815  135.6821  153.4766 H   0  0  0  0  0  0  0  0  0  0  0  0  # atno 10763 bound_to 10752
  153.1231  135.4731  154.9226 H   0  0  0  0  0  0  0  0  0  0  0  0  # atno 10764 bound_to 10752
  154.7666  135.3226  154.8225 H   0  0  0  0  0  0  0  0  0  0  0  0  # atno 10765 bound_to 10752
  140.0083  134.6335  155.9820 H   0  0  0  0  0  0  0  0  0  0  0  0  # atno 11005 bound_to 11000
  144.7368  140.4830  143.6898 LP  0  0  0  0  0  0  0  0  0  0  0  0  # atno 17320 bound_to 7965
  145.6019  139.1504  143.3124 LP  0  0  0  0  0  0  0  0  0  0  0  0  # atno 17321 bound_to 7965
  139.5406  144.2659  152.1342 LP  0  0  0  0  0  0  0  0  0  0  0  0  # atno 17342 bound_to 10162
  140.1871  144.4788  150.6498 LP  0  0  0  0  0  0  0  0  0  0  0  0  # atno 17343 bound_to 10162
  157.4667  131.0889  151.0687 LP  0  0  0  0  0  0  0  0  0  0  0  0  # atno 17370 bound_to 10713
  157.1159  130.6041  149.5493 LP  0  0  0  0  0  0  0  0  0  0  0  0  # atno 17371 bound_to 10713
  141.1693  133.6537  156.4593 LP  0  0  0  0  0  0  0  0  0  0  0  0  # atno 17394 bound_to 11000
  140.4600  134.6850  157.5081 LP  0  0  0  0  0  0  0  0  0  0  0  0  # atno 17395 bound_to 11000

$$$$
