AV-unprocessed.smi:1033|AV-procd|sdf|4496|dock5
  -GOLD-   22720 2483D 1   1.00000     0.00000
 Structure written by MMmdl.
 56 58  0  0  0  0  0  0  0  0  2 V2000
  152.9110  142.8776  161.7698 C   0  0  0  0  0  0  0  0  0  0  0  0
  152.5671  142.2646  160.4238 C   0  0  0  0  0  0  0  0  0  0  0  0
  152.9645  140.9361  160.1516 C   0  0  0  0  0  0  0  0  0  0  0  0
  152.6689  140.3312  158.9104 C   0  0  0  0  0  0  0  0  0  0  0  0
  152.9592  139.0634  158.4373 N   0  0  0  0  0  0  0  0  0  0  0  0
  152.4277  139.1041  157.2191 C   0  0  0  0  0  0  0  0  0  0  0  0
  151.8328  140.2525  156.8421 N   0  0  0  0  0  0  0  0  0  0  0  0
  151.1942  140.5326  155.5655 C   0  0  0  0  0  0  0  0  0  0  0  0
  149.6541  140.6418  155.6488 C   0  0  2  0  0  0  0  0  0  0  0  0
  149.1864  139.8138  156.6940 O   0  0  0  0  0  0  0  0  0  0  0  0
  148.9080  140.2247  154.3623 C   0  0  0  0  0  0  0  0  0  0  0  0
  147.4954  140.6152  154.2976 N   0  0  0  0  0  0  0  0  0  0  0  0
  147.0148  140.7754  152.9259 C   0  0  0  0  0  0  0  0  0  0  0  0
  146.8464  139.4361  152.1788 C   0  0  0  0  0  0  0  0  0  0  0  0
  145.9266  138.5387  152.9285 N   0  3  0  0  0  0  0  0  0  0  0  0
  145.6644  137.2449  152.2473 C   0  0  0  0  0  0  0  0  0  0  0  0
  144.2022  136.7790  152.3944 C   0  0  1  0  0  0  0  0  0  0  0  0
  143.9323  136.1550  153.7699 C   0  0  0  0  0  0  0  0  0  0  0  0
  143.3403  137.8886  152.2384 O   0  0  0  0  0  0  0  0  0  0  0  0
  146.3965  138.3576  154.3265 C   0  0  0  0  0  0  0  0  0  0  0  0
  146.5784  139.7258  155.0131 C   0  0  0  0  0  0  0  0  0  0  0  0
  151.9581  141.0972  157.9408 C   0  0  0  0  0  0  0  0  0  0  0  0
  151.5496  142.4166  158.2042 C   0  0  0  0  0  0  0  0  0  0  0  0
  151.8569  143.0075  159.4471 C   0  0  0  0  0  0  0  0  0  0  0  0
  151.4204  144.4367  159.7144 C   0  0  0  0  0  0  0  0  0  0  0  0
  153.4591  142.1756  162.3986 H   0  0  0  0  0  0  0  0  0  0  0  0
  152.0040  143.1659  162.3014 H   0  0  0  0  0  0  0  0  0  0  0  0
  153.5327  143.7634  161.6382 H   0  0  0  0  0  0  0  0  0  0  0  0
  153.5035  140.3687  160.8960 H   0  0  0  0  0  0  0  0  0  0  0  0
  152.4797  138.2512  156.5584 H   0  0  0  0  0  0  0  0  0  0  0  0
  151.6187  141.4527  155.1615 H   0  0  0  0  0  0  0  0  0  0  0  0
  151.4688  139.7426  154.8660 H   0  0  0  0  0  0  0  0  0  0  0  0
  149.3857  141.6610  155.9243 H   0  0  0  0  0  0  0  0  0  0  0  0
  149.8709  139.2043  156.9248 H   0  0  0  0  0  0  0  0  0  0  0  0
  149.4317  140.6592  153.5097 H   0  0  0  0  0  0  0  0  0  0  0  0
  149.0026  139.1465  154.2353 H   0  0  0  0  0  0  0  0  0  0  0  0
  146.0542  141.2923  152.9449 H   0  0  0  0  0  0  0  0  0  0  0  0
  147.6897  141.4285  152.3710 H   0  0  0  0  0  0  0  0  0  0  0  0
  146.4504  139.6376  151.1845 H   0  0  0  0  0  0  0  0  0  0  0  0
  147.8116  138.9481  152.0365 H   0  0  0  0  0  0  0  0  0  0  0  0
  145.9335  137.3342  151.1937 H   0  0  0  0  0  0  0  0  0  0  0  0
  146.3165  136.4741  152.6619 H   0  0  0  0  0  0  0  0  0  0  0  0
  143.9533  136.0426  151.6311 H   0  0  0  0  0  0  0  0  0  0  0  0
  144.5601  135.2781  153.9309 H   0  0  0  0  0  0  0  0  0  0  0  0
  142.8935  135.8352  153.8605 H   0  0  0  0  0  0  0  0  0  0  0  0
  144.1345  136.8612  154.5760 H   0  0  0  0  0  0  0  0  0  0  0  0
  143.6290  138.3965  151.4950 H   0  0  0  0  0  0  0  0  0  0  0  0
  145.6627  137.7744  154.8840 H   0  0  0  0  0  0  0  0  0  0  0  0
  147.3258  137.7866  154.3383 H   0  0  0  0  0  0  0  0  0  0  0  0
  146.9040  139.5873  156.0432 H   0  0  0  0  0  0  0  0  0  0  0  0
  145.6038  140.2109  155.0833 H   0  0  0  0  0  0  0  0  0  0  0  0
  151.0091  142.9726  157.4530 H   0  0  0  0  0  0  0  0  0  0  0  0
  150.8887  144.8565  158.8599 H   0  0  0  0  0  0  0  0  0  0  0  0
  152.2860  145.0689  159.9126 H   0  0  0  0  0  0  0  0  0  0  0  0
  150.7544  144.4783  160.5766 H   0  0  0  0  0  0  0  0  0  0  0  0
  145.0377  139.0147  152.9904 H   0  0  0  0  0  0  0  0  0  0  0  0
  1  2  1  0  0  0  0
  1 26  1  0  0  0  0
  1 27  1  0  0  0  0
  1 28  1  0  0  0  0
  2 24  1  0  0  0  0
  2  3  2  0  0  0  0
  3  4  1  0  0  0  0
  3 29  1  0  0  0  0
  4 22  2  0  0  0  0
  4  5  1  0  0  0  0
  5  6  2  0  0  0  0
  6  7  1  0  0  0  0
  6 30  1  0  0  0  0
  7  8  1  0  0  0  0
  7 22  1  0  0  0  0
  8  9  1  0  0  0  0
  8 31  1  0  0  0  0
  8 32  1  0  0  0  0
  9 10  1  0  0  0  0
  9 11  1  0  0  0  0
  9 33  1  0  0  0  0
 10 34  1  0  0  0  0
 11 12  1  0  0  0  0
 11 35  1  0  0  0  0
 11 36  1  0  0  0  0
 12 21  1  0  0  0  0
 12 13  1  0  0  0  0
 13 14  1  0  0  0  0
 13 37  1  0  0  0  0
 13 38  1  0  0  0  0
 14 15  1  0  0  0  0
 14 39  1  0  0  0  0
 14 40  1  0  0  0  0
 15 16  1  0  0  0  0
 15 20  1  0  0  0  0
 15 56  1  0  0  0  0
 16 17  1  0  0  0  0
 16 41  1  0  0  0  0
 16 42  1  0  0  0  0
 17 18  1  0  0  0  0
 17 19  1  0  0  0  0
 17 43  1  0  0  0  0
 18 44  1  0  0  0  0
 18 45  1  0  0  0  0
 18 46  1  0  0  0  0
 19 47  1  0  0  0  0
 20 21  1  0  0  0  0
 20 48  1  0  0  0  0
 20 49  1  0  0  0  0
 21 50  1  0  0  0  0
 21 51  1  0  0  0  0
 22 23  1  0  0  0  0
 23 24  2  0  0  0  0
 23 52  1  0  0  0  0
 24 25  1  0  0  0  0
 25 53  1  0  0  0  0
 25 54  1  0  0  0  0
 25 55  1  0  0  0  0
M  CHG  1  15   1
M  END
> <s_m_source_file>
AV-unprocessed.smi

> <i_m_source_file_index>
1033

> <i_lp_mmshare_version>
43012

> <i_f3d_flags>
0

> <s_epik_input>
W0NIM11jKFtjSF0xKWMoW0NIM10pW2NIXWMoYzEyKW4oW2NIXW4yKVtDSDJdW0NASF0oW09IXSlbQ0gyXU4zW0NIMl1bQ0gyXU4oW0NIMl1bQ0gyXTMpW0NIMl1bQ0BIXShbQ0gzXSlbT0hd

> <s_epik_cmdline>
J2VwaWtfcHl0aG9uJywgJy1waCcsICc3LjAnLCAnLXRuJywgJzgnLCAnLW1hJywgJzIwMCcsICctbWV0YWxfYmluZGluZycsICctaW1hZScsICc8aW5maWxlLm1hZT4nLCAnLW9tYWUnLCAnPG91dGZpbGUubWFlPic=

> <r_epik_Ionization_Penalty>
0.129152

> <r_epik_Ionization_Penalty_Charging>
0.00083231

> <r_epik_Ionization_Penalty_Neutral>
0.128319

> <r_epik_State_Penalty>
0.556973

> <r_epik_Charging_Adjusted_Penalty>
0.557805

> <i_epik_Tot_Q>
1

> <i_epik_Tot_abs_Q>
1

> <r_epik_Metal_State_Penalty>
0.490047

> <b_epik_Metal_Only>
0

> <s_lp_Force_Field>
OPLS_2005

> <r_lp_Energy>
31.9095

> <b_lp_Chiralities_Consistent>
1

> <s_lp_Variant>
AV-unprocessed.smi:1033-7

> <Gold.Version>
5.8.1

> <Gold.Id.Protein>
6NUR|6NUR_protein|mol2

> <Gold.PLP.Fitness>
52.5252

> <Gold.PLP.PLP>
-46.1777

> <Gold.PLP.part.hbond>
-2.7165

> <Gold.PLP.part.metal>
0.0000

> <Gold.PLP.part.buried>
-3.3116

> <Gold.PLP.part.nonpolar>
-39.8188

> <Gold.PLP.part.repulsive>
0.1242

> <Gold.PLP.ligand.clash>
0.0000

> <Gold.PLP.ligand.torsion>
1.4595

> <Gold.PLP.Chemscore.Hbond>
3.0000

> <Gold.PLP.Chemscore.CHOScore>
0.0000

> <Gold.PLP.Chemscore.Metal>
0.0000

> <Gold.Chemscore.Hbonds>
donor molecule, donor type, donor heavy atom, donor atom, acceptor molecule, acceptor atom, score
      L1  H    15    56       P1 10175  1.89
      L1  H    19    47       P1 10171  1.00

> <Gold.PLP.Chemscore.Internal.Correction>
0.2664

> <Gold.Rescore>
     Score         DG    S(hbond)    S(metal)    S(lipo)     H(rot)  DE(clash)    DE(int)     intcor
     16.75     -18.64       1.75        0.00     129.51       3.07       0.46       1.42       ----

> <Gold.Chemscore.Fitness>
16.7502

> <Gold.Chemscore.DG>
-18.6375

> <Gold.Chemscore.ZeroCoef>
-5.4800

> <Gold.Chemscore.Hbond>
1.7520

> <Gold.Chemscore.Metal>
0.0000

> <Gold.Chemscore.Lipo>
129.5060

> <Gold.Chemscore.Internal_Hbond>
0.0000

> <Gold.Chemscore.DEClash>
0.4624

> <Gold.Chemscore.DEInternal>
1.4249

> <Gold.Chemscore.Rot>
3.0650

> <Gold.Chemscore.Internal.Correction>
   9.000000E+99

> <Gold.Chemscore.Hbonds>
donor molecule, donor type, donor heavy atom, donor atom, acceptor molecule, acceptor atom, score
      L1  H    15    56       P1 10175  0.88
      L1  H    19    47       P1 10171  0.79

> <Gold.Chemscore.Hbond.Weighted>
-5.8518

> <Gold.Chemscore.Metal.Weighted>
-0.0000

> <Gold.Chemscore.Lipo.Weighted>
-15.1522

> <Gold.Chemscore.Internal_Hbond.Weighted>
0.0000

> <Gold.Chemscore.DEClash.Weighted>
0.4624

> <Gold.Chemscore.DEInternal.Weighted>
1.4249

> <Gold.Chemscore.Rot.Weighted>
7.8465

> <Gold.Chemscore.Internal.Correction.Weighted>
   9.000000E+99

> <Gold.Protein.RotatedTorsions>
[ 6907 6896 6895 6894 ] final  168.88 input  -60.11 | X-H torsion
[ 7974 7965 7964 7962 ] final  118.05 input  175.53 | X-H torsion
[ 8008 7997 7996 7995 ] final  -69.18 input   59.86 | X-H torsion
[ 10167 10162 10161 10158 ] final  -57.32 input  -65.29 | X-H torsion
[ 10718 10713 10712 10709 ] final -175.08 input   66.30 | X-H torsion
[ 10763 10752 10751 10750 ] final -108.01 input  -60.55 | X-H torsion
[ 11005 11000 10999 10996 ] final  158.56 input  -57.11 | X-H torsion

> <Gold.Protein.ActiveResidues>
 VAL166  LYS551  ARG553  GLY616  TRP617  ASP618  TYR619  PRO620  LYS621  CYS622 
 ASP623  PHE694  ASN695  SER759  ASP760  ASP761  ALA762  ILE779  LEU786  VAL792 
 PHE793  MET794  SER795  GLU796  ALA797  LYS798  CYS799  TRP800  GLU811  SER814 

> <Gold.Protein.RotatedAtoms>
  151.8407  133.3423  159.3641 H   0  0  0  0  0  0  0  0  0  0  0  0  # atno 6907 bound_to 6896
  150.7236  134.5394  159.5749 H   0  0  0  0  0  0  0  0  0  0  0  0  # atno 6908 bound_to 6896
  152.2867  134.7768  160.0437 H   0  0  0  0  0  0  0  0  0  0  0  0  # atno 6909 bound_to 6896
  145.1599  139.3161  143.4522 H   0  0  0  0  0  0  0  0  0  0  0  0  # atno 7974 bound_to 7965
  154.4920  140.0858  156.7615 H   0  0  0  0  0  0  0  0  0  0  0  0  # atno 8008 bound_to 7997
  155.4207  140.3445  155.4253 H   0  0  0  0  0  0  0  0  0  0  0  0  # atno 8009 bound_to 7997
  156.1343  140.1510  156.9006 H   0  0  0  0  0  0  0  0  0  0  0  0  # atno 8010 bound_to 7997
  140.6265  143.2440  151.5350 H   0  0  0  0  0  0  0  0  0  0  0  0  # atno 10167 bound_to 10162
  156.7946  130.9530  151.3120 H   0  0  0  0  0  0  0  0  0  0  0  0  # atno 10718 bound_to 10713
  154.8110  135.4653  154.0516 H   0  0  0  0  0  0  0  0  0  0  0  0  # atno 10763 bound_to 10752
  153.1947  135.6860  153.8314 H   0  0  0  0  0  0  0  0  0  0  0  0  # atno 10764 bound_to 10752
  153.7819  135.3255  155.3344 H   0  0  0  0  0  0  0  0  0  0  0  0  # atno 10765 bound_to 10752
  140.1877  134.8430  157.2876 H   0  0  0  0  0  0  0  0  0  0  0  0  # atno 11005 bound_to 11000
  146.3484  140.1705  142.8589 LP  0  0  0  0  0  0  0  0  0  0  0  0  # atno 17320 bound_to 7965
  145.0342  140.8895  143.5091 LP  0  0  0  0  0  0  0  0  0  0  0  0  # atno 17321 bound_to 7965
  139.5485  144.2458  152.1486 LP  0  0  0  0  0  0  0  0  0  0  0  0  # atno 17342 bound_to 10162
  140.1691  144.4953  150.6589 LP  0  0  0  0  0  0  0  0  0  0  0  0  # atno 17343 bound_to 10162
  157.6584  130.8944  149.9777 LP  0  0  0  0  0  0  0  0  0  0  0  0  # atno 17370 bound_to 10713
  156.1138  130.3648  150.0003 LP  0  0  0  0  0  0  0  0  0  0  0  0  # atno 17371 bound_to 10713
  140.2195  134.4041  155.7573 LP  0  0  0  0  0  0  0  0  0  0  0  0  # atno 17394 bound_to 11000
  141.2225  133.7158  156.8467 LP  0  0  0  0  0  0  0  0  0  0  0  0  # atno 17395 bound_to 11000

$$$$
