AV-unprocessed.smi:35|AV-procd|sdf|248|dock4
  -GOLD-   2262016 03D 1   1.00000     0.00000
 Structure written by MMmdl.
 29 30  0  0  0  0  0  0  0  0  1 V2000
  151.2175  137.1297  159.5249 O   0  0  0  0  0  0  0  0  0  0  0  0
  150.9373  137.7769  158.5183 C   0  0  0  0  0  0  0  0  0  0  0  0
  151.9491  138.3567  157.7471 N   0  0  0  0  0  0  0  0  0  0  0  0
  151.7546  139.1113  156.5882 C   0  0  0  0  0  0  0  0  0  0  0  0
  152.7215  139.5931  155.9996 O   0  0  0  0  0  0  0  0  0  0  0  0
  150.4222  139.2937  156.1536 N   0  0  0  0  0  0  0  0  0  0  0  0
  150.1449  140.1033  154.9049 C   0  0  1  0  0  0  0  0  0  0  0  0
  149.2803  139.3730  154.0881 O   0  0  0  0  0  0  0  0  0  0  0  0
  148.3234  140.2533  153.5128 C   0  0  1  0  0  0  0  0  0  0  0  0
  147.0966  139.4801  152.9972 C   0  0  0  0  0  0  0  0  0  0  0  0
  147.4263  138.7646  151.8259 O   0  0  0  0  0  0  0  0  0  0  0  0
  148.0823  141.3023  154.6083 C   0  0  1  0  0  0  0  0  0  0  0  0
  147.1348  140.8437  155.5582 O   0  0  0  0  0  0  0  0  0  0  0  0
  149.4791  141.4659  155.2035 C   0  0  1  0  0  0  0  0  0  0  0  0
  149.4695  141.8633  156.5651 O   0  0  0  0  0  0  0  0  0  0  0  0
  149.3838  138.7441  156.8932 C   0  0  0  0  0  0  0  0  0  0  0  0
  149.5887  138.0199  158.0179 C   0  0  0  0  0  0  0  0  0  0  0  0
  147.9731  137.3269  158.9307 Br  0  0  0  0  0  0  0  0  0  0  0  0
  152.9005  138.2220  158.0577 H   0  0  0  0  0  0  0  0  0  0  0  0
  151.0922  140.2076  154.3732 H   0  0  0  0  0  0  0  0  0  0  0  0
  148.8161  140.7394  152.6682 H   0  0  0  0  0  0  0  0  0  0  0  0
  146.7675  138.7644  153.7509 H   0  0  0  0  0  0  0  0  0  0  0  0
  146.2527  140.1421  152.8024 H   0  0  0  0  0  0  0  0  0  0  0  0
  148.0573  138.0973  152.0493 H   0  0  0  0  0  0  0  0  0  0  0  0
  147.7113  142.2388  154.1904 H   0  0  0  0  0  0  0  0  0  0  0  0
  147.3942  141.1535  156.4122 H   0  0  0  0  0  0  0  0  0  0  0  0
  150.0224  142.2188  154.6310 H   0  0  0  0  0  0  0  0  0  0  0  0
  149.2505  142.7816  156.6071 H   0  0  0  0  0  0  0  0  0  0  0  0
  148.3653  138.8968  156.5688 H   0  0  0  0  0  0  0  0  0  0  0  0
  1  2  2  0  0  0  0
  2 17  1  0  0  0  0
  2  3  1  0  0  0  0
  3 19  1  0  0  0  0
  3  4  1  0  0  0  0
  4  5  2  0  0  0  0
  4  6  1  0  0  0  0
  6  7  1  0  0  0  0
  6 16  1  0  0  0  0
  7 14  1  0  0  0  0
  7  8  1  0  0  0  0
  7 20  1  0  0  0  0
  8  9  1  0  0  0  0
  9 10  1  0  0  0  0
  9 12  1  0  0  0  0
  9 21  1  0  0  0  0
 10 11  1  0  0  0  0
 10 22  1  0  0  0  0
 10 23  1  0  0  0  0
 11 24  1  0  0  0  0
 12 13  1  0  0  0  0
 12 14  1  0  0  0  0
 12 25  1  0  0  0  0
 13 26  1  0  0  0  0
 14 15  1  0  0  0  0
 14 27  1  0  0  0  0
 15 28  1  0  0  0  0
 16 17  2  0  0  0  0
 16 29  1  0  0  0  0
 17 18  1  0  0  0  0
M  END
> <s_m_source_file>
AV-unprocessed.smi

> <i_m_source_file_index>
35

> <i_lp_mmshare_version>
43012

> <i_f3d_flags>
0

> <s_epik_input>
Tz1jMVtuSF1jKD1PKW4oW2NIXWMxQnIpW0NAQEhdMk9bQ0BASF0oW0NIMl1bT0hdKVtDQEBIXShbT0hdKVtDQEhdMltPSF0=

> <s_epik_cmdline>
J2VwaWtfcHl0aG9uJywgJy1waCcsICc3LjAnLCAnLXRuJywgJzgnLCAnLW1hJywgJzIwMCcsICctbWV0YWxfYmluZGluZycsICctaW1hZScsICc8aW5maWxlLm1hZT4nLCAnLW9tYWUnLCAnPG91dGZpbGUubWFlPic=

> <r_lp_tautomer_probability>
0.999537

> <r_epik_Ionization_Penalty>
0.10812

> <r_epik_Ionization_Penalty_Charging>
0.108119

> <r_epik_Ionization_Penalty_Neutral>
4.93006e-07

> <r_epik_State_Penalty>
0.0979238

> <r_epik_Charging_Adjusted_Penalty>
0.206043

> <i_epik_Tot_Q>
0

> <i_epik_Tot_abs_Q>
0

> <r_epik_Metal_State_Penalty>
3.07911

> <b_epik_Metal_Only>
0

> <s_epik_Chemistry_Notes>
This compound contains an acetal/aminal-like group ( X-CH(R)-Y where X, Y are N, S, or O) that may be acid/base labile, releasing an aldehyde.

> <s_lp_Force_Field>
OPLS_2005

> <r_lp_Energy>
38.9756

> <b_lp_Chiralities_Consistent>
1

> <s_lp_Variant>
AV-unprocessed.smi:35-2

> <Gold.Version>
5.8.1

> <Gold.Id.Protein>
6NUR|6NUR_protein|mol2

> <Gold.PLP.Fitness>
33.8024

> <Gold.PLP.PLP>
-23.6426

> <Gold.PLP.part.hbond>
-5.2275

> <Gold.PLP.part.metal>
0.0000

> <Gold.PLP.part.buried>
-0.5869

> <Gold.PLP.part.nonpolar>
-18.5837

> <Gold.PLP.part.repulsive>
0.8636

> <Gold.PLP.ligand.clash>
0.0000

> <Gold.PLP.ligand.torsion>
0.2711

> <Gold.PLP.Chemscore.Hbond>
3.5600

> <Gold.PLP.Chemscore.CHOScore>
0.0000

> <Gold.PLP.Chemscore.Metal>
0.0000

> <Gold.Chemscore.Hbonds>
donor molecule, donor type, donor heavy atom, donor atom, acceptor molecule, acceptor atom, score
      L1  H    11    24       P1  7948  0.96
      L1  H    15    28       P1  8028  0.62
      P1  H  6896  6908       L1     1  1.00
      P1  H  7997  8010       L1     5  1.00

> <Gold.PLP.Chemscore.Internal.Correction>
0.0219

> <Gold.Rescore>
     Score         DG    S(hbond)    S(metal)    S(lipo)     H(rot)  DE(clash)    DE(int)     intcor
     10.02     -11.79       3.42        0.00      36.70       3.67       1.52       0.25       ----

> <Gold.Chemscore.Fitness>
10.0215

> <Gold.Chemscore.DG>
-11.7908

> <Gold.Chemscore.ZeroCoef>
-5.4800

> <Gold.Chemscore.Hbond>
3.4167

> <Gold.Chemscore.Metal>
0.0000

> <Gold.Chemscore.Lipo>
36.7041

> <Gold.Chemscore.Internal_Hbond>
0.0000

> <Gold.Chemscore.DEClash>
1.5211

> <Gold.Chemscore.DEInternal>
0.2482

> <Gold.Chemscore.Rot>
3.6701

> <Gold.Chemscore.Internal.Correction>
   9.000000E+99

> <Gold.Chemscore.Hbonds>
donor molecule, donor type, donor heavy atom, donor atom, acceptor molecule, acceptor atom, score
      L1  H    11    24       P1  7948  0.89
      L1  H    15    28       P1  8028  0.58
      P1  H  6896  6908       L1     1  0.93
      P1  H  7997  8010       L1     5  1.00

> <Gold.Chemscore.Hbond.Weighted>
-11.4118

> <Gold.Chemscore.Metal.Weighted>
-0.0000

> <Gold.Chemscore.Lipo.Weighted>
-4.2944

> <Gold.Chemscore.Internal_Hbond.Weighted>
0.0000

> <Gold.Chemscore.DEClash.Weighted>
1.5211

> <Gold.Chemscore.DEInternal.Weighted>
0.2482

> <Gold.Chemscore.Rot.Weighted>
9.3955

> <Gold.Chemscore.Internal.Correction.Weighted>
   9.000000E+99

> <Gold.Protein.RotatedTorsions>
[ 6907 6896 6895 6894 ] final -125.29 input  -60.11 | X-H torsion
[ 7974 7965 7964 7962 ] final  123.55 input  175.53 | X-H torsion
[ 8008 7997 7996 7995 ] final   69.75 input   59.86 | X-H torsion
[ 10167 10162 10161 10158 ] final  -77.22 input  -65.29 | X-H torsion
[ 10718 10713 10712 10709 ] final  166.32 input   66.30 | X-H torsion
[ 10763 10752 10751 10750 ] final   58.23 input  -60.55 | X-H torsion
[ 11005 11000 10999 10996 ] final -179.11 input  -57.11 | X-H torsion

> <Gold.Protein.ActiveResidues>
 VAL166  LYS551  ARG553  GLY616  TRP617  ASP618  TYR619  PRO620  LYS621  CYS622 
 ASP623  PHE694  ASN695  SER759  ASP760  ASP761  ALA762  ILE779  LEU786  VAL792 
 PHE793  MET794  SER795  GLU796  ALA797  LYS798  CYS799  TRP800  GLU811  SER814 

> <Gold.Protein.RotatedAtoms>
  150.8853  133.7316  159.2920 H   0  0  0  0  0  0  0  0  0  0  0  0  # atno 6907 bound_to 6896
  151.4884  135.1055  159.9806 H   0  0  0  0  0  0  0  0  0  0  0  0  # atno 6908 bound_to 6896
  152.4786  133.8152  159.7080 H   0  0  0  0  0  0  0  0  0  0  0  0  # atno 6909 bound_to 6896
  145.0946  139.3562  143.4843 H   0  0  0  0  0  0  0  0  0  0  0  0  # atno 7974 bound_to 7965
  155.7283  140.3492  155.5047 H   0  0  0  0  0  0  0  0  0  0  0  0  # atno 8008 bound_to 7997
  155.9206  140.1066  157.1231 H   0  0  0  0  0  0  0  0  0  0  0  0  # atno 8009 bound_to 7997
  154.4069  140.1250  156.4661 H   0  0  0  0  0  0  0  0  0  0  0  0  # atno 8010 bound_to 7997
  140.4789  143.2407  151.8089 H   0  0  0  0  0  0  0  0  0  0  0  0  # atno 10167 bound_to 10162
  157.0675  131.0357  151.2624 H   0  0  0  0  0  0  0  0  0  0  0  0  # atno 10718 bound_to 10713
  152.9866  135.5614  154.5519 H   0  0  0  0  0  0  0  0  0  0  0  0  # atno 10763 bound_to 10752
  154.4954  135.2795  155.1465 H   0  0  0  0  0  0  0  0  0  0  0  0  # atno 10764 bound_to 10752
  154.2918  135.6325  153.5441 H   0  0  0  0  0  0  0  0  0  0  0  0  # atno 10765 bound_to 10752
  140.4223  134.6594  157.4670 H   0  0  0  0  0  0  0  0  0  0  0  0  # atno 11005 bound_to 11000
  146.3531  140.0796  142.8618 LP  0  0  0  0  0  0  0  0  0  0  0  0  # atno 17320 bound_to 7965
  145.1026  140.9355  143.4703 LP  0  0  0  0  0  0  0  0  0  0  0  0  # atno 17321 bound_to 7965
  139.4830  144.4798  151.9321 LP  0  0  0  0  0  0  0  0  0  0  0  0  # atno 17342 bound_to 10162
  140.3883  144.2648  150.5902 LP  0  0  0  0  0  0  0  0  0  0  0  0  # atno 17343 bound_to 10162
  157.4905  130.7819  149.7503 LP  0  0  0  0  0  0  0  0  0  0  0  0  # atno 17370 bound_to 10713
  155.9960  130.3908  150.2796 LP  0  0  0  0  0  0  0  0  0  0  0  0  # atno 17371 bound_to 10713
  140.0192  134.6573  155.9265 LP  0  0  0  0  0  0  0  0  0  0  0  0  # atno 17394 bound_to 11000
  141.1779  133.6542  156.4902 LP  0  0  0  0  0  0  0  0  0  0  0  0  # atno 17395 bound_to 11000

$$$$
