AV-unprocessed.smi:197|AV-procd|sdf|1551|dock6
  -GOLD-   2262019413D 1   1.00000     0.00000
 Structure written by MMmdl.
 54 57  0  0  0  0  0  0  0  0  1 V2000
  151.5595  144.5360  158.4433 C   0  0  0  0  0  0  0  0  0  0  0  0
  151.6300  143.2910  157.7653 O   0  0  0  0  0  0  0  0  0  0  0  0
  150.3821  142.6230  157.6400 C   0  0  0  0  0  0  0  0  0  0  0  0
  150.5383  141.2388  156.9835 C   0  0  0  0  0  0  0  0  0  0  0  0
  149.2086  140.6456  156.4560 C   0  0  1  0  0  0  0  0  0  0  0  0
  148.6557  141.3997  155.2267 C   0  0  0  0  0  0  0  0  0  0  0  0
  149.4925  141.1761  154.0959 O   0  0  0  0  0  0  0  0  0  0  0  0
  149.5309  139.8020  153.7263 C   0  0  0  0  0  0  0  0  0  0  0  0
  150.0971  138.9669  154.8857 C   0  0  0  0  0  0  0  0  0  0  0  0
  149.3392  139.2265  156.1093 N   0  0  0  0  0  0  0  0  0  0  0  0
  149.4762  138.3559  157.1449 C   0  0  0  0  0  0  0  0  0  0  0  0
  150.5814  138.4215  157.9355 N   0  0  0  0  0  0  0  0  0  0  0  0
  150.7235  137.5922  158.9730 C   0  0  0  0  0  0  0  0  0  0  0  0
  149.8959  136.6350  159.3944 N   0  0  0  0  0  0  0  0  0  0  0  0
  148.7887  136.5554  158.6026 C   0  0  0  0  0  0  0  0  0  0  0  0
  148.5036  137.3655  157.4663 C   0  0  0  0  0  0  0  0  0  0  0  0
  147.2933  136.9752  156.9045 N   0  0  0  0  0  0  0  0  0  0  0  0
  146.8801  136.0045  157.6722 C   0  0  0  0  0  0  0  0  0  0  0  0
  147.7134  135.6925  158.7220 N   0  0  0  0  0  0  0  0  0  0  0  0
  147.4969  134.6634  159.7275 C   0  0  0  0  0  0  0  0  0  0  0  0
  147.0459  135.2297  161.0996 C   0  0  2  0  0  0  0  0  0  0  0  0
  145.8188  135.9136  160.9040 O   0  0  0  0  0  0  0  0  0  0  0  0
  148.0365  136.2138  161.7132 C   0  0  0  0  0  0  0  0  0  0  0  0
  147.7648  136.0839  163.2040 C   0  0  0  0  0  0  0  0  0  0  0  0
  147.5583  134.6910  163.3599 O   0  0  0  0  0  0  0  0  0  0  0  0
  146.8294  134.1943  162.2392 C   0  0  2  0  0  0  0  0  0  0  0  0
  147.3224  132.7631  161.9731 C   0  0  0  0  0  0  0  0  0  0  0  0
  152.5437  145.0041  158.4414 H   0  0  0  0  0  0  0  0  0  0  0  0
  151.2536  144.4196  159.4826 H   0  0  0  0  0  0  0  0  0  0  0  0
  150.8661  145.2170  157.9483 H   0  0  0  0  0  0  0  0  0  0  0  0
  149.8855  142.5462  158.6086 H   0  0  0  0  0  0  0  0  0  0  0  0
  149.7499  143.2557  157.0184 H   0  0  0  0  0  0  0  0  0  0  0  0
  151.2709  141.2998  156.1782 H   0  0  0  0  0  0  0  0  0  0  0  0
  150.9587  140.5539  157.7185 H   0  0  0  0  0  0  0  0  0  0  0  0
  148.4693  140.7514  157.2475 H   0  0  0  0  0  0  0  0  0  0  0  0
  147.6416  141.0649  155.0016 H   0  0  0  0  0  0  0  0  0  0  0  0
  148.5860  142.4702  155.4138 H   0  0  0  0  0  0  0  0  0  0  0  0
  148.5304  139.4604  153.4558 H   0  0  0  0  0  0  0  0  0  0  0  0
  150.1562  139.6880  152.8408 H   0  0  0  0  0  0  0  0  0  0  0  0
  150.0452  137.9086  154.6261 H   0  0  0  0  0  0  0  0  0  0  0  0
  151.1483  139.2098  155.0456 H   0  0  0  0  0  0  0  0  0  0  0  0
  151.6288  137.7151  159.5491 H   0  0  0  0  0  0  0  0  0  0  0  0
  145.9473  135.4885  157.4964 H   0  0  0  0  0  0  0  0  0  0  0  0
  146.7540  133.9640  159.3420 H   0  0  0  0  0  0  0  0  0  0  0  0
  148.4256  134.1017  159.8305 H   0  0  0  0  0  0  0  0  0  0  0  0
  145.2457  135.3590  160.3970 H   0  0  0  0  0  0  0  0  0  0  0  0
  149.0584  135.8889  161.5154 H   0  0  0  0  0  0  0  0  0  0  0  0
  147.9342  137.2348  161.3428 H   0  0  0  0  0  0  0  0  0  0  0  0
  148.5925  136.4391  163.8179 H   0  0  0  0  0  0  0  0  0  0  0  0
  146.8620  136.6255  163.4898 H   0  0  0  0  0  0  0  0  0  0  0  0
  145.7749  134.1481  162.5184 H   0  0  0  0  0  0  0  0  0  0  0  0
  146.7989  132.3100  161.1310 H   0  0  0  0  0  0  0  0  0  0  0  0
  147.1476  132.1295  162.8429 H   0  0  0  0  0  0  0  0  0  0  0  0
  148.3921  132.7407  161.7638 H   0  0  0  0  0  0  0  0  0  0  0  0
  1  2  1  0  0  0  0
  1 28  1  0  0  0  0
  1 29  1  0  0  0  0
  1 30  1  0  0  0  0
  2  3  1  0  0  0  0
  3  4  1  0  0  0  0
  3 31  1  0  0  0  0
  3 32  1  0  0  0  0
  4  5  1  0  0  0  0
  4 33  1  0  0  0  0
  4 34  1  0  0  0  0
  5 10  1  0  0  0  0
  5  6  1  0  0  0  0
  5 35  1  0  0  0  0
  6  7  1  0  0  0  0
  6 36  1  0  0  0  0
  6 37  1  0  0  0  0
  7  8  1  0  0  0  0
  8  9  1  0  0  0  0
  8 38  1  0  0  0  0
  8 39  1  0  0  0  0
  9 10  1  0  0  0  0
  9 40  1  0  0  0  0
  9 41  1  0  0  0  0
 10 11  1  0  0  0  0
 11 16  1  0  0  0  0
 11 12  2  0  0  0  0
 12 13  1  0  0  0  0
 13 14  2  0  0  0  0
 13 42  1  0  0  0  0
 14 15  1  0  0  0  0
 15 19  1  0  0  0  0
 15 16  2  0  0  0  0
 16 17  1  0  0  0  0
 17 18  2  0  0  0  0
 18 19  1  0  0  0  0
 18 43  1  0  0  0  0
 19 20  1  0  0  0  0
 20 21  1  0  0  0  0
 20 44  1  0  0  0  0
 20 45  1  0  0  0  0
 21 26  1  0  0  0  0
 21 22  1  0  0  0  0
 21 23  1  0  0  0  0
 22 46  1  0  0  0  0
 23 24  1  0  0  0  0
 23 47  1  0  0  0  0
 23 48  1  0  0  0  0
 24 25  1  0  0  0  0
 24 49  1  0  0  0  0
 24 50  1  0  0  0  0
 25 26  1  0  0  0  0
 26 27  1  0  0  0  0
 26 51  1  0  0  0  0
 27 52  1  0  0  0  0
 27 53  1  0  0  0  0
 27 54  1  0  0  0  0
M  END
> <s_m_source_file>
AV-unprocessed.smi

> <i_m_source_file_index>
197

> <i_lp_mmshare_version>
43012

> <i_f3d_flags>
0

> <s_epik_input>
W0NIM11PW0NIMl1bQ0gyXVtDQEBIXTFbQ0gyXU9bQ0gyXVtDSDJdTjFjKG5bY0hdbjIpYyhjMjMpbltjSF1uM1tDSDJdW0NAQF00KFtPSF0pW0NIMl1bQ0gyXU9bQ0BIXTRbQ0gzXQ==

> <s_epik_cmdline>
J2VwaWtfcHl0aG9uJywgJy1waCcsICc3LjAnLCAnLXRuJywgJzgnLCAnLW1hJywgJzIwMCcsICctbWV0YWxfYmluZGluZycsICctaW1hZScsICc8aW5maWxlLm1hZT4nLCAnLW9tYWUnLCAnPG91dGZpbGUubWFlPic=

> <r_lp_tautomer_probability>
1

> <r_epik_Ionization_Penalty>
0.000106218

> <r_epik_Ionization_Penalty_Charging>
0

> <r_epik_Ionization_Penalty_Neutral>
0.000106218

> <r_epik_State_Penalty>
-0

> <r_epik_Charging_Adjusted_Penalty>
0

> <i_epik_Tot_Q>
0

> <i_epik_Tot_abs_Q>
0

> <r_epik_Metal_State_Penalty>
-0

> <b_epik_Metal_Only>
0

> <s_lp_Force_Field>
OPLS_2005

> <r_lp_Energy>
41.9523

> <b_lp_Chiralities_Consistent>
1

> <s_lp_Variant>
AV-unprocessed.smi:197-8

> <Gold.Version>
5.8.1

> <Gold.Id.Protein>
6NUR|6NUR_protein|mol2

> <Gold.PLP.Fitness>
42.8997

> <Gold.PLP.PLP>
-39.0461

> <Gold.PLP.part.hbond>
-4.1080

> <Gold.PLP.part.metal>
0.0000

> <Gold.PLP.part.buried>
-1.2645

> <Gold.PLP.part.nonpolar>
-34.0901

> <Gold.PLP.part.repulsive>
0.2744

> <Gold.PLP.ligand.clash>
0.0000

> <Gold.PLP.ligand.torsion>
0.6083

> <Gold.PLP.Chemscore.Hbond>
1.5136

> <Gold.PLP.Chemscore.CHOScore>
0.0000

> <Gold.PLP.Chemscore.Metal>
0.0000

> <Gold.Chemscore.Hbonds>
donor molecule, donor type, donor heavy atom, donor atom, acceptor molecule, acceptor atom, score
      P1  H  6896  6909       L1    14  1.00
      P1  H  8011  8017       L1     7  0.50

> <Gold.PLP.Chemscore.Internal.Correction>
0.5293

> <Gold.Rescore>
     Score         DG    S(hbond)    S(metal)    S(lipo)     H(rot)  DE(clash)    DE(int)     intcor
      7.56     -12.23       0.78        0.00      97.43       2.84       1.72       2.96       ----

> <Gold.Chemscore.Fitness>
7.5554

> <Gold.Chemscore.DG>
-12.2335

> <Gold.Chemscore.ZeroCoef>
-5.4800

> <Gold.Chemscore.Hbond>
0.7827

> <Gold.Chemscore.Metal>
0.0000

> <Gold.Chemscore.Lipo>
97.4259

> <Gold.Chemscore.Internal_Hbond>
0.0000

> <Gold.Chemscore.DEClash>
1.7165

> <Gold.Chemscore.DEInternal>
2.9617

> <Gold.Chemscore.Rot>
2.8358

> <Gold.Chemscore.Internal.Correction>
   9.000000E+99

> <Gold.Chemscore.Hbonds>
donor molecule, donor type, donor heavy atom, donor atom, acceptor molecule, acceptor atom, score
      P1  H  6896  6909       L1    14  0.68
      P1  H  8011  8017       L1     7  0.37

> <Gold.Chemscore.Hbond.Weighted>
-2.6143

> <Gold.Chemscore.Metal.Weighted>
-0.0000

> <Gold.Chemscore.Lipo.Weighted>
-11.3988

> <Gold.Chemscore.Internal_Hbond.Weighted>
0.0000

> <Gold.Chemscore.DEClash.Weighted>
1.7165

> <Gold.Chemscore.DEInternal.Weighted>
2.9617

> <Gold.Chemscore.Rot.Weighted>
7.2596

> <Gold.Chemscore.Internal.Correction.Weighted>
   9.000000E+99

> <Gold.Protein.RotatedTorsions>
[ 6907 6896 6895 6894 ] final   76.66 input  -60.11 | X-H torsion
[ 7974 7965 7964 7962 ] final  -48.35 input  175.53 | X-H torsion
[ 8008 7997 7996 7995 ] final   -4.60 input   59.86 | X-H torsion
[ 10167 10162 10161 10158 ] final  159.91 input  -65.29 | X-H torsion
[ 10718 10713 10712 10709 ] final -100.76 input   66.30 | X-H torsion
[ 10763 10752 10751 10750 ] final  125.02 input  -60.55 | X-H torsion
[ 11005 11000 10999 10996 ] final   94.97 input  -57.11 | X-H torsion

> <Gold.Protein.ActiveResidues>
 VAL166  LYS551  ARG553  GLY616  TRP617  ASP618  TYR619  PRO620  LYS621  CYS622 
 ASP623  PHE694  ASN695  SER759  ASP760  ASP761  ALA762  ILE779  LEU786  VAL792 
 PHE793  MET794  SER795  GLU796  ALA797  LYS798  CYS799  TRP800  GLU811  SER814 

> <Gold.Protein.RotatedAtoms>
  152.5083  134.3936  159.9392 H   0  0  0  0  0  0  0  0  0  0  0  0  # atno 6907 bound_to 6896
  151.3897  133.3787  159.2727 H   0  0  0  0  0  0  0  0  0  0  0  0  # atno 6908 bound_to 6896
  150.9442  134.8869  159.7690 H   0  0  0  0  0  0  0  0  0  0  0  0  # atno 6909 bound_to 6896
  145.9520  140.7563  142.9500 H   0  0  0  0  0  0  0  0  0  0  0  0  # atno 7974 bound_to 7965
  154.6126  140.2480  155.7649 H   0  0  0  0  0  0  0  0  0  0  0  0  # atno 8008 bound_to 7997
  156.2380  140.2943  156.0315 H   0  0  0  0  0  0  0  0  0  0  0  0  # atno 8009 bound_to 7997
  155.2026  140.0395  157.2910 H   0  0  0  0  0  0  0  0  0  0  0  0  # atno 8010 bound_to 7997
  139.4836  144.4685  151.8609 H   0  0  0  0  0  0  0  0  0  0  0  0  # atno 10167 bound_to 10162
  156.0173  130.5342  150.6864 H   0  0  0  0  0  0  0  0  0  0  0  0  # atno 10718 bound_to 10713
  153.6707  135.3331  155.3152 H   0  0  0  0  0  0  0  0  0  0  0  0  # atno 10763 bound_to 10752
  154.8491  135.4385  154.1708 H   0  0  0  0  0  0  0  0  0  0  0  0  # atno 10764 bound_to 10752
  153.2699  135.6999  153.7567 H   0  0  0  0  0  0  0  0  0  0  0  0  # atno 10765 bound_to 10752
  139.8793  134.8874  156.3942 H   0  0  0  0  0  0  0  0  0  0  0  0  # atno 11005 bound_to 11000
  144.6798  140.2451  143.7339 LP  0  0  0  0  0  0  0  0  0  0  0  0  # atno 17320 bound_to 7965
  145.8158  139.2022  143.1967 LP  0  0  0  0  0  0  0  0  0  0  0  0  # atno 17321 bound_to 7965
  140.4152  144.2316  150.5888 LP  0  0  0  0  0  0  0  0  0  0  0  0  # atno 17342 bound_to 10162
  140.4928  143.2342  151.8794 LP  0  0  0  0  0  0  0  0  0  0  0  0  # atno 17343 bound_to 10162
  157.4555  131.0877  151.0801 LP  0  0  0  0  0  0  0  0  0  0  0  0  # atno 17370 bound_to 10713
  157.1304  130.6100  149.5528 LP  0  0  0  0  0  0  0  0  0  0  0  0  # atno 17371 bound_to 10713
  140.9312  133.7578  156.0027 LP  0  0  0  0  0  0  0  0  0  0  0  0  # atno 17394 bound_to 11000
  140.8329  134.3157  157.5342 LP  0  0  0  0  0  0  0  0  0  0  0  0  # atno 17395 bound_to 11000

$$$$
