AV-unprocessed.smi:113|AV-procd|sdf|1100|dock6
  -GOLD-   2262018213D 1   1.00000     0.00000
 Structure written by MMmdl.
 53 56  0  0  0  0  0  0  0  0  2 V2000
  148.5651  141.4068  154.9476 C   0  0  0  0  0  0  0  0  0  0  0  0
  149.4572  141.2539  156.1612 C   0  0  0  0  0  0  0  0  0  0  0  0
  149.6128  140.0221  156.8254 C   0  0  0  0  0  0  0  0  0  0  0  0
  150.4605  139.9305  157.9574 C   0  0  0  0  0  0  0  0  0  0  0  0
  150.6463  138.6044  158.7025 C   0  0  0  0  0  0  0  0  0  0  0  0
  149.8583  137.4717  158.2374 N   0  0  0  0  0  0  0  0  0  0  0  0
  150.0744  137.0168  156.9150 C   0  0  0  0  0  0  0  0  0  0  0  0
  150.9089  137.5487  156.1794 O   0  0  0  0  0  0  0  0  0  0  0  0
  149.2540  135.8739  156.5093 C   0  0  0  0  0  0  0  0  0  0  0  0
  149.4032  135.3580  155.0862 C   0  0  0  0  0  0  0  0  0  0  0  0
  148.3910  135.3148  157.3924 C   0  0  0  0  0  0  0  0  0  0  0  0
  148.2233  135.7579  158.6972 N   0  0  0  0  0  0  0  0  0  0  0  0
  147.2858  135.0966  159.6915 C   0  0  1  0  0  0  0  0  0  0  0  0
  147.9152  134.6419  161.0055 C   0  0  0  0  0  0  0  0  0  0  0  0
  146.6677  134.4919  161.8518 C   0  0  1  0  0  0  0  0  0  0  0  0
  146.9797  134.5525  163.2298 O   0  0  0  0  0  0  0  0  0  0  0  0
  145.7536  135.6244  161.3270 C   0  0  1  0  0  0  0  0  0  0  0  0
  145.6397  136.8819  162.2100 C   0  0  0  0  0  0  0  0  0  0  0  0
  146.8815  137.5501  162.2924 O   0  0  0  0  0  0  0  0  0  0  0  0
  146.3339  136.0322  160.0866 O   0  0  0  0  0  0  0  0  0  0  0  0
  148.9637  136.8704  159.1503 C   0  0  0  0  0  0  0  0  0  0  0  0
  148.8383  137.2869  160.3049 O   0  0  0  0  0  0  0  0  0  0  0  0
  151.1385  141.1041  158.3881 C   0  0  0  0  0  0  0  0  0  0  0  0
  152.0063  141.1061  159.5065 C   0  0  0  0  0  0  0  0  0  0  0  0
  152.6601  142.2896  159.9023 C   0  0  0  0  0  0  0  0  0  0  0  0
  152.4577  143.4857  159.1885 C   0  0  0  0  0  0  0  0  0  0  0  0
  151.5988  143.5014  158.0741 C   0  0  0  0  0  0  0  0  0  0  0  0
  150.9437  142.3187  157.6764 C   0  0  0  0  0  0  0  0  0  0  0  0
  150.1212  142.3401  156.6063 N   0  3  0  0  0  0  0  0  0  0  0  0
  147.7956  140.6342  154.9322 H   0  0  0  0  0  0  0  0  0  0  0  0
  149.1537  141.3224  154.0338 H   0  0  0  0  0  0  0  0  0  0  0  0
  148.0689  142.3778  154.9505 H   0  0  0  0  0  0  0  0  0  0  0  0
  149.0772  139.1605  156.4559 H   0  0  0  0  0  0  0  0  0  0  0  0
  151.6953  138.3048  158.6798 H   0  0  0  0  0  0  0  0  0  0  0  0
  150.4281  138.7349  159.7637 H   0  0  0  0  0  0  0  0  0  0  0  0
  148.7508  134.5066  154.8900 H   0  0  0  0  0  0  0  0  0  0  0  0
  150.4297  135.0391  154.9017 H   0  0  0  0  0  0  0  0  0  0  0  0
  149.1532  136.1404  154.3689 H   0  0  0  0  0  0  0  0  0  0  0  0
  147.8035  134.4889  157.0263 H   0  0  0  0  0  0  0  0  0  0  0  0
  146.8209  134.2693  159.1503 H   0  0  0  0  0  0  0  0  0  0  0  0
  148.4942  133.7254  160.8876 H   0  0  0  0  0  0  0  0  0  0  0  0
  148.5358  135.4349  161.4242 H   0  0  0  0  0  0  0  0  0  0  0  0
  146.2033  133.5275  161.6404 H   0  0  0  0  0  0  0  0  0  0  0  0
  146.3850  133.9858  163.6981 H   0  0  0  0  0  0  0  0  0  0  0  0
  144.7587  135.2280  161.1185 H   0  0  0  0  0  0  0  0  0  0  0  0
  144.8696  137.5593  161.8396 H   0  0  0  0  0  0  0  0  0  0  0  0
  145.3529  136.5996  163.2232 H   0  0  0  0  0  0  0  0  0  0  0  0
  147.0697  137.7250  163.2019 H   0  0  0  0  0  0  0  0  0  0  0  0
  152.1866  140.2083  160.0782 H   0  0  0  0  0  0  0  0  0  0  0  0
  153.3199  142.2789  160.7577 H   0  0  0  0  0  0  0  0  0  0  0  0
  152.9616  144.3905  159.4960 H   0  0  0  0  0  0  0  0  0  0  0  0
  151.4478  144.4225  157.5298 H   0  0  0  0  0  0  0  0  0  0  0  0
  149.9958  143.2221  156.1099 H   0  0  0  0  0  0  0  0  0  0  0  0
  1  2  1  0  0  0  0
  1 30  1  0  0  0  0
  1 31  1  0  0  0  0
  1 32  1  0  0  0  0
  2 29  1  0  0  0  0
  2  3  2  0  0  0  0
  3  4  1  0  0  0  0
  3 33  1  0  0  0  0
  4  5  1  0  0  0  0
  4 23  2  0  0  0  0
  5  6  1  0  0  0  0
  5 34  1  0  0  0  0
  5 35  1  0  0  0  0
  6 21  1  0  0  0  0
  6  7  1  0  0  0  0
  7  8  2  0  0  0  0
  7  9  1  0  0  0  0
  9 10  1  0  0  0  0
  9 11  2  0  0  0  0
 10 36  1  0  0  0  0
 10 37  1  0  0  0  0
 10 38  1  0  0  0  0
 11 12  1  0  0  0  0
 11 39  1  0  0  0  0
 12 13  1  0  0  0  0
 12 21  1  0  0  0  0
 13 20  1  0  0  0  0
 13 14  1  0  0  0  0
 13 40  1  0  0  0  0
 14 15  1  0  0  0  0
 14 41  1  0  0  0  0
 14 42  1  0  0  0  0
 15 16  1  0  0  0  0
 15 17  1  0  0  0  0
 15 43  1  0  0  0  0
 16 44  1  0  0  0  0
 17 18  1  0  0  0  0
 17 20  1  0  0  0  0
 17 45  1  0  0  0  0
 18 19  1  0  0  0  0
 18 46  1  0  0  0  0
 18 47  1  0  0  0  0
 19 48  1  0  0  0  0
 21 22  2  0  0  0  0
 23 28  1  0  0  0  0
 23 24  1  0  0  0  0
 24 25  2  0  0  0  0
 24 49  1  0  0  0  0
 25 26  1  0  0  0  0
 25 50  1  0  0  0  0
 26 27  2  0  0  0  0
 26 51  1  0  0  0  0
 27 28  1  0  0  0  0
 27 52  1  0  0  0  0
 28 29  2  0  0  0  0
 29 53  1  0  0  0  0
M  CHG  1  29   1
M  END
> <s_m_source_file>
AV-unprocessed.smi

> <i_m_source_file_index>
113

> <i_lp_mmshare_version>
43012

> <i_f3d_flags>
0

> <s_epik_input>
W2NIXTFbY0hdW2NIXVtjSF1jKGMxMiluYyhbQ0gzXSlbY0hdYzJbQ0gyXW4zYyg9TyljKFtDSDNdKVtjSF1uKGMzPU8pW0NAQEhdNFtDSDJdW0NAQEhdKFtPSF0pW0NASF0oTzQpW0NIMl1bT0hd

> <s_epik_cmdline>
J2VwaWtfcHl0aG9uJywgJy1waCcsICc3LjAnLCAnLXRuJywgJzgnLCAnLW1hJywgJzIwMCcsICctbWV0YWxfYmluZGluZycsICctaW1hZScsICc8aW5maWxlLm1hZT4nLCAnLW9tYWUnLCAnPG91dGZpbGUubWFlPic=

> <r_lp_tautomer_probability>
1

> <r_epik_Ionization_Penalty>
0.705471

> <r_epik_Ionization_Penalty_Charging>
0.70547

> <r_epik_Ionization_Penalty_Neutral>
1.19947e-07

> <r_epik_State_Penalty>
0.728574

> <r_epik_Charging_Adjusted_Penalty>
1.43404

> <i_epik_Tot_Q>
1

> <i_epik_Tot_abs_Q>
1

> <r_epik_Metal_State_Penalty>
4.61665

> <b_epik_Metal_Only>
0

> <s_epik_Chemistry_Notes>
This compound contains an acetal/aminal-like group ( X-CH(R)-Y where X, Y are N, S, or O) that may be acid/base labile, releasing an aldehyde.

> <s_lp_Force_Field>
OPLS_2005

> <r_lp_Energy>
46.487

> <b_lp_Chiralities_Consistent>
1

> <s_lp_Variant>
AV-unprocessed.smi:113-10

> <Gold.Version>
5.8.1

> <Gold.Id.Protein>
6NUR|6NUR_protein|mol2

> <Gold.PLP.Fitness>
55.6064

> <Gold.PLP.PLP>
-46.2384

> <Gold.PLP.part.hbond>
-5.5335

> <Gold.PLP.part.metal>
0.0000

> <Gold.PLP.part.buried>
-8.3939

> <Gold.PLP.part.nonpolar>
-32.6574

> <Gold.PLP.part.repulsive>
0.0691

> <Gold.PLP.ligand.clash>
0.0000

> <Gold.PLP.ligand.torsion>
0.0570

> <Gold.PLP.Chemscore.Hbond>
3.1520

> <Gold.PLP.Chemscore.CHOScore>
0.0000

> <Gold.PLP.Chemscore.Metal>
0.0000

> <Gold.Chemscore.Hbonds>
donor molecule, donor type, donor heavy atom, donor atom, acceptor molecule, acceptor atom, score
      L1  H    29    53       P1  8028  1.98
      P1  H  6931  6943       L1    22  0.56
      P1  H  6934  6947       L1    19  0.62

> <Gold.PLP.Chemscore.Internal.Correction>
0.0261

> <Gold.Rescore>
     Score         DG    S(hbond)    S(metal)    S(lipo)     H(rot)  DE(clash)    DE(int)     intcor
     13.47     -17.72       2.16        0.00     108.90       3.01       0.12       4.13       ----

> <Gold.Chemscore.Fitness>
13.4703

> <Gold.Chemscore.DG>
-17.7187

> <Gold.Chemscore.ZeroCoef>
-5.4800

> <Gold.Chemscore.Hbond>
2.1582

> <Gold.Chemscore.Metal>
0.0000

> <Gold.Chemscore.Lipo>
108.8991

> <Gold.Chemscore.Internal_Hbond>
0.0000

> <Gold.Chemscore.DEClash>
0.1191

> <Gold.Chemscore.DEInternal>
4.1293

> <Gold.Chemscore.Rot>
3.0120

> <Gold.Chemscore.Internal.Correction>
   9.000000E+99

> <Gold.Chemscore.Hbonds>
donor molecule, donor type, donor heavy atom, donor atom, acceptor molecule, acceptor atom, score
      L1  H    29    53       P1  8028  0.94
      P1  H  6931  6943       L1    22  0.56
      P1  H  6934  6947       L1    19  0.52

> <Gold.Chemscore.Hbond.Weighted>
-7.2083

> <Gold.Chemscore.Metal.Weighted>
-0.0000

> <Gold.Chemscore.Lipo.Weighted>
-12.7412

> <Gold.Chemscore.Internal_Hbond.Weighted>
0.0000

> <Gold.Chemscore.DEClash.Weighted>
0.1191

> <Gold.Chemscore.DEInternal.Weighted>
4.1293

> <Gold.Chemscore.Rot.Weighted>
7.7108

> <Gold.Chemscore.Internal.Correction.Weighted>
   9.000000E+99

> <Gold.Protein.RotatedTorsions>
[ 6907 6896 6895 6894 ] final  139.38 input  -60.11 | X-H torsion
[ 7974 7965 7964 7962 ] final -158.80 input  175.53 | X-H torsion
[ 8008 7997 7996 7995 ] final -132.98 input   59.86 | X-H torsion
[ 10167 10162 10161 10158 ] final  -78.04 input  -65.29 | X-H torsion
[ 10718 10713 10712 10709 ] final  -64.93 input   66.30 | X-H torsion
[ 10763 10752 10751 10750 ] final  -19.48 input  -60.55 | X-H torsion
[ 11005 11000 10999 10996 ] final   41.38 input  -57.11 | X-H torsion

> <Gold.Protein.ActiveResidues>
 VAL166  LYS551  ARG553  GLY616  TRP617  ASP618  TYR619  PRO620  LYS621  CYS622 
 ASP623  PHE694  ASN695  SER759  ASP760  ASP761  ALA762  ILE779  LEU786  VAL792 
 PHE793  MET794  SER795  GLU796  ALA797  LYS798  CYS799  TRP800  GLU811  SER814 

> <Gold.Protein.RotatedAtoms>
  152.2556  133.5252  159.5350 H   0  0  0  0  0  0  0  0  0  0  0  0  # atno 6907 bound_to 6896
  150.7108  134.0901  159.3937 H   0  0  0  0  0  0  0  0  0  0  0  0  # atno 6908 bound_to 6896
  151.8820  135.0450  160.0540 H   0  0  0  0  0  0  0  0  0  0  0  0  # atno 6909 bound_to 6896
  144.7491  140.3776  143.6062 H   0  0  0  0  0  0  0  0  0  0  0  0  # atno 7974 bound_to 7965
  155.3380  140.0470  157.3044 H   0  0  0  0  0  0  0  0  0  0  0  0  # atno 8008 bound_to 7997
  154.5293  140.2251  155.8799 H   0  0  0  0  0  0  0  0  0  0  0  0  # atno 8009 bound_to 7997
  156.1772  140.3082  155.9086 H   0  0  0  0  0  0  0  0  0  0  0  0  # atno 8010 bound_to 7997
  140.4718  143.2425  151.8194 H   0  0  0  0  0  0  0  0  0  0  0  0  # atno 10167 bound_to 10162
  156.0700  130.4240  150.1490 H   0  0  0  0  0  0  0  0  0  0  0  0  # atno 10718 bound_to 10713
  153.6055  135.6998  153.5367 H   0  0  0  0  0  0  0  0  0  0  0  0  # atno 10763 bound_to 10752
  153.3061  135.4115  155.1295 H   0  0  0  0  0  0  0  0  0  0  0  0  # atno 10764 bound_to 10752
  154.8574  135.3660  154.5591 H   0  0  0  0  0  0  0  0  0  0  0  0  # atno 10765 bound_to 10752
  140.1840  134.4068  155.8184 H   0  0  0  0  0  0  0  0  0  0  0  0  # atno 11005 bound_to 11000
  145.7011  139.1661  143.2592 LP  0  0  0  0  0  0  0  0  0  0  0  0  # atno 17320 bound_to 7965
  146.1414  140.7052  142.9365 LP  0  0  0  0  0  0  0  0  0  0  0  0  # atno 17321 bound_to 7965
  139.4819  144.4883  151.9218 LP  0  0  0  0  0  0  0  0  0  0  0  0  # atno 17342 bound_to 10162
  140.3968  144.2545  150.5895 LP  0  0  0  0  0  0  0  0  0  0  0  0  # atno 17343 bound_to 10162
  156.9543  130.9784  151.3492 LP  0  0  0  0  0  0  0  0  0  0  0  0  # atno 17370 bound_to 10713
  157.5765  130.8346  149.8462 LP  0  0  0  0  0  0  0  0  0  0  0  0  # atno 17371 bound_to 10713
  141.2224  133.7014  156.7980 LP  0  0  0  0  0  0  0  0  0  0  0  0  # atno 17394 bound_to 11000
  140.2235  134.8739  157.3402 LP  0  0  0  0  0  0  0  0  0  0  0  0  # atno 17395 bound_to 11000

$$$$
