AV-unprocessed.smi:2164|AV-procd|sdf|8808|dock3
  -GOLD-   2272011593D 1   1.00000     0.00000
 Structure written by MMmdl.
 39 41  0  0  0  0  0  0  0  0  1 V2000
  150.9882  137.0352  159.5953 O   0  0  0  0  0  0  0  0  0  0  0  0
  149.9486  137.6326  159.3111 C   0  0  0  0  0  0  0  0  0  0  0  0
  149.9597  138.8019  158.6461 N   0  0  0  0  0  0  0  0  0  0  0  0
  151.1472  139.4894  158.1429 C   0  0  0  0  0  0  0  0  0  0  0  0
  150.7940  140.7794  157.3772 C   0  0  0  0  0  0  0  0  0  0  0  0
  151.4475  142.0248  157.9506 C   0  0  0  0  0  0  0  0  0  0  0  0
  152.2458  141.9521  159.1107 C   0  0  0  0  0  0  0  0  0  0  0  0
  152.8589  143.1271  159.5865 C   0  0  0  0  0  0  0  0  0  0  0  0
  152.6465  144.3277  158.8798 C   0  0  0  0  0  0  0  0  0  0  0  0
  151.8815  144.4102  157.7700 N   0  0  0  0  0  0  0  0  0  0  0  0
  151.2953  143.2795  157.3221 C   0  0  0  0  0  0  0  0  0  0  0  0
  148.6039  137.1509  159.6337 C   0  0  0  0  0  0  0  0  0  0  0  0
  148.4289  136.3025  160.6646 C   0  0  0  0  0  0  0  0  0  0  0  0
  147.1853  135.7922  161.0423 N   0  0  0  0  0  0  0  0  0  0  0  0
  147.1466  134.7991  162.1091 C   0  0  0  0  0  0  0  0  0  0  0  0
  145.9738  135.0702  163.0374 C   0  0  0  0  0  0  0  0  0  0  0  0
  144.4582  134.8740  162.0244 S   0  0  0  0  0  0  0  0  0  0  0  0
  144.4235  133.4920  161.5207 O   0  0  0  0  0  0  0  0  0  0  0  0
  143.3202  135.3866  162.8022 O   0  0  0  0  0  0  0  0  0  0  0  0
  144.7938  135.9142  160.7529 N   0  0  0  0  0  0  0  0  0  0  0  0
  146.0019  136.2214  160.3894 C   0  0  0  0  0  0  0  0  0  0  0  0
  146.1918  137.1000  159.2462 C   0  0  0  0  0  0  0  0  0  0  0  0
  147.4150  137.5414  158.8875 C   0  0  0  0  0  0  0  0  0  0  0  0
  149.0700  139.2359  158.4482 H   0  0  0  0  0  0  0  0  0  0  0  0
  151.7827  139.7345  158.9941 H   0  0  0  0  0  0  0  0  0  0  0  0
  151.7373  138.8264  157.5081 H   0  0  0  0  0  0  0  0  0  0  0  0
  151.0844  140.6754  156.3311 H   0  0  0  0  0  0  0  0  0  0  0  0
  149.7127  140.9210  157.3776 H   0  0  0  0  0  0  0  0  0  0  0  0
  152.3949  141.0118  159.6211 H   0  0  0  0  0  0  0  0  0  0  0  0
  153.4807  143.1082  160.4692 H   0  0  0  0  0  0  0  0  0  0  0  0
  153.1044  145.2468  159.2146 H   0  0  0  0  0  0  0  0  0  0  0  0
  150.6998  143.3771  156.4262 H   0  0  0  0  0  0  0  0  0  0  0  0
  149.2532  135.9562  161.2725 H   0  0  0  0  0  0  0  0  0  0  0  0
  147.0734  133.8029  161.6718 H   0  0  0  0  0  0  0  0  0  0  0  0
  148.0707  134.8199  162.6879 H   0  0  0  0  0  0  0  0  0  0  0  0
  145.9386  134.3581  163.8616 H   0  0  0  0  0  0  0  0  0  0  0  0
  146.0053  136.0784  163.4519 H   0  0  0  0  0  0  0  0  0  0  0  0
  145.3510  137.4341  158.6557 H   0  0  0  0  0  0  0  0  0  0  0  0
  147.4831  138.1946  158.0301 H   0  0  0  0  0  0  0  0  0  0  0  0
  1  2  2  0  0  0  0
  2  3  1  0  0  0  0
  2 12  1  0  0  0  0
  3  4  1  0  0  0  0
  3 24  1  0  0  0  0
  4  5  1  0  0  0  0
  4 25  1  0  0  0  0
  4 26  1  0  0  0  0
  5  6  1  0  0  0  0
  5 27  1  0  0  0  0
  5 28  1  0  0  0  0
  6 11  1  0  0  0  0
  6  7  2  0  0  0  0
  7  8  1  0  0  0  0
  7 29  1  0  0  0  0
  8  9  2  0  0  0  0
  8 30  1  0  0  0  0
  9 10  1  0  0  0  0
  9 31  1  0  0  0  0
 10 11  2  0  0  0  0
 11 32  1  0  0  0  0
 12 23  1  0  0  0  0
 12 13  2  0  0  0  0
 13 14  1  0  0  0  0
 13 33  1  0  0  0  0
 14 21  1  0  0  0  0
 14 15  1  0  0  0  0
 15 16  1  0  0  0  0
 15 34  1  0  0  0  0
 15 35  1  0  0  0  0
 16 17  1  0  0  0  0
 16 36  1  0  0  0  0
 16 37  1  0  0  0  0
 17 18  2  0  0  0  0
 17 19  2  0  0  0  0
 17 20  1  0  0  0  0
 20 21  2  0  0  0  0
 21 22  1  0  0  0  0
 22 23  2  0  0  0  0
 22 38  1  0  0  0  0
 23 39  1  0  0  0  0
M  END
> <s_m_source_file>
AV-unprocessed.smi

> <i_m_source_file_index>
2164

> <i_lp_mmshare_version>
43012

> <i_f3d_flags>
0

> <s_epik_input>
W0NIMl0xW0NIMl1TKD1PKSg9TylOPUMoTjEyKVtDSF09W0NIXUMoPVtDSF0yKUMoPU8pW05IXVtDSDJdW0NIMl1jM1tjSF1bY0hdW2NIXW5bY0hdMw==

> <s_epik_cmdline>
J2VwaWtfcHl0aG9uJywgJy1waCcsICc3LjAnLCAnLXRuJywgJzgnLCAnLW1hJywgJzIwMCcsICctbWV0YWxfYmluZGluZycsICctaW1hZScsICc8aW5maWxlLm1hZT4nLCAnLW9tYWUnLCAnPG91dGZpbGUubWFlPic=

> <r_epik_Ionization_Penalty>
0.0095026

> <r_epik_Ionization_Penalty_Charging>
4.80604e-09

> <r_epik_Ionization_Penalty_Neutral>
0.00950259

> <r_epik_State_Penalty>
0.0071398

> <r_epik_Charging_Adjusted_Penalty>
0.0071398

> <i_epik_Tot_Q>
0

> <i_epik_Tot_abs_Q>
0

> <r_epik_Metal_State_Penalty>
0.0838865

> <b_epik_Metal_Only>
0

> <s_lp_Force_Field>
OPLS_2005

> <r_lp_Energy>
19.9083

> <b_lp_Chiralities_Consistent>
1

> <s_lp_Variant>
AV-unprocessed.smi:2164-1

> <Gold.Version>
5.8.1

> <Gold.Id.Protein>
6NUR|6NUR_protein|mol2

> <Gold.PLP.Fitness>
42.1601

> <Gold.PLP.PLP>
-37.4281

> <Gold.PLP.part.hbond>
-1.0000

> <Gold.PLP.part.metal>
0.0000

> <Gold.PLP.part.buried>
-6.6776

> <Gold.PLP.part.nonpolar>
-31.3905

> <Gold.PLP.part.repulsive>
0.4030

> <Gold.PLP.ligand.clash>
0.0000

> <Gold.PLP.ligand.torsion>
0.6396

> <Gold.PLP.Chemscore.Hbond>
1.0000

> <Gold.PLP.Chemscore.CHOScore>
1.0000

> <Gold.PLP.Chemscore.Metal>
0.0000

> <Gold.Chemscore.Hbonds>
donor molecule, donor type, donor heavy atom, donor atom, acceptor molecule, acceptor atom, score
      P1  H  6896  6907       L1     1  1.00
      L1  C    11    32       P1  8028  1.00

> <Gold.PLP.Chemscore.Internal.Correction>
0.0113

> <Gold.Rescore>
     Score         DG    S(hbond)    S(metal)    S(lipo)     H(rot)  DE(clash)    DE(int)     intcor
     15.28     -16.05       0.99        0.00      94.18       1.47       0.02       0.75       ----

> <Gold.Chemscore.Fitness>
15.2784

> <Gold.Chemscore.DG>
-16.0454

> <Gold.Chemscore.ZeroCoef>
-5.4800

> <Gold.Chemscore.Hbond>
0.9893

> <Gold.Chemscore.Metal>
0.0000

> <Gold.Chemscore.Lipo>
94.1776

> <Gold.Chemscore.Internal_Hbond>
0.0000

> <Gold.Chemscore.DEClash>
0.0164

> <Gold.Chemscore.DEInternal>
0.7505

> <Gold.Chemscore.Rot>
1.4679

> <Gold.Chemscore.Internal.Correction>
   9.000000E+99

> <Gold.Chemscore.Hbonds>
donor molecule, donor type, donor heavy atom, donor atom, acceptor molecule, acceptor atom, score
      P1  H  6896  6907       L1     1  0.99

> <Gold.Chemscore.Hbond.Weighted>
-3.3044

> <Gold.Chemscore.Metal.Weighted>
-0.0000

> <Gold.Chemscore.Lipo.Weighted>
-11.0188

> <Gold.Chemscore.Internal_Hbond.Weighted>
0.0000

> <Gold.Chemscore.DEClash.Weighted>
0.0164

> <Gold.Chemscore.DEInternal.Weighted>
0.7505

> <Gold.Chemscore.Rot.Weighted>
3.7578

> <Gold.Chemscore.Internal.Correction.Weighted>
   9.000000E+99

> <Gold.Protein.RotatedTorsions>
[ 6907 6896 6895 6894 ] final  -21.26 input  -60.11 | X-H torsion
[ 7974 7965 7964 7962 ] final -126.22 input  175.53 | X-H torsion
[ 8008 7997 7996 7995 ] final  -93.99 input   59.86 | X-H torsion
[ 10167 10162 10161 10158 ] final  167.79 input  -65.29 | X-H torsion
[ 10718 10713 10712 10709 ] final  119.68 input   66.30 | X-H torsion
[ 10763 10752 10751 10750 ] final   -0.17 input  -60.55 | X-H torsion
[ 11005 11000 10999 10996 ] final   -3.80 input  -57.11 | X-H torsion

> <Gold.Protein.ActiveResidues>
 VAL166  LYS551  ARG553  GLY616  TRP617  ASP618  TYR619  PRO620  LYS621  CYS622 
 ASP623  PHE694  ASN695  SER759  ASP760  ASP761  ALA762  ILE779  LEU786  VAL792 
 PHE793  MET794  SER795  GLU796  ALA797  LYS798  CYS799  TRP800  GLU811  SER814 

> <Gold.Protein.RotatedAtoms>
  151.2359  135.0571  159.9005 H   0  0  0  0  0  0  0  0  0  0  0  0  # atno 6907 bound_to 6896
  152.5399  134.0486  159.8110 H   0  0  0  0  0  0  0  0  0  0  0  0  # atno 6908 bound_to 6896
  151.0673  133.5446  159.2661 H   0  0  0  0  0  0  0  0  0  0  0  0  # atno 6909 bound_to 6896
  144.9895  140.7719  143.4562 H   0  0  0  0  0  0  0  0  0  0  0  0  # atno 7974 bound_to 7965
  154.7427  140.0493  157.0825 H   0  0  0  0  0  0  0  0  0  0  0  0  # atno 8008 bound_to 7997
  155.0158  140.3141  155.4793 H   0  0  0  0  0  0  0  0  0  0  0  0  # atno 8009 bound_to 7997
  156.2868  140.2176  156.5274 H   0  0  0  0  0  0  0  0  0  0  0  0  # atno 8010 bound_to 7997
  139.4953  144.3884  151.9544 H   0  0  0  0  0  0  0  0  0  0  0  0  # atno 10167 bound_to 10162
  157.5944  131.1060  150.7931 H   0  0  0  0  0  0  0  0  0  0  0  0  # atno 10718 bound_to 10713
  153.3284  135.6973  153.6969 H   0  0  0  0  0  0  0  0  0  0  0  0  # atno 10763 bound_to 10752
  153.5781  135.3503  155.2865 H   0  0  0  0  0  0  0  0  0  0  0  0  # atno 10764 bound_to 10752
  154.8613  135.4288  154.2466 H   0  0  0  0  0  0  0  0  0  0  0  0  # atno 10765 bound_to 10752
  140.6733  133.9217  155.8508 H   0  0  0  0  0  0  0  0  0  0  0  0  # atno 11005 bound_to 11000
  145.2305  139.2117  143.5045 LP  0  0  0  0  0  0  0  0  0  0  0  0  # atno 17320 bound_to 7965
  146.3428  140.2181  142.8591 LP  0  0  0  0  0  0  0  0  0  0  0  0  # atno 17321 bound_to 7965
  140.3321  144.3303  150.5985 LP  0  0  0  0  0  0  0  0  0  0  0  0  # atno 17342 bound_to 10162
  140.5636  143.2189  151.7722 LP  0  0  0  0  0  0  0  0  0  0  0  0  # atno 17343 bound_to 10162
  156.8345  130.5027  149.5328 LP  0  0  0  0  0  0  0  0  0  0  0  0  # atno 17370 bound_to 10713
  156.1004  130.5965  150.9884 LP  0  0  0  0  0  0  0  0  0  0  0  0  # atno 17371 bound_to 10713
  141.0375  134.0669  157.3942 LP  0  0  0  0  0  0  0  0  0  0  0  0  # atno 17394 bound_to 11000
  139.8975  135.0150  156.7101 LP  0  0  0  0  0  0  0  0  0  0  0  0  # atno 17395 bound_to 11000

$$$$
