AV-unprocessed.smi:461|AV-procd|sdf|2631|dock1
  -GOLD-   2262023 33D 1   1.00000     0.00000
 Structure written by MMmdl.
 33 34  0  0  0  0  0  0  0  0  1 V2000
  147.8125  141.4034  154.2640 C   0  0  0  0  0  0  0  0  0  0  0  0
  149.0806  140.8896  154.7839 N   0  0  0  0  0  0  0  0  0  0  0  0
  149.6915  141.7362  155.6946 N   0  0  0  0  0  0  0  0  0  0  0  0
  150.8270  141.3458  156.1953 C   0  0  0  0  0  0  0  0  0  0  0  0
  151.5959  142.0509  157.1121 N   0  0  0  0  0  0  0  0  0  0  0  0
  151.2512  143.3525  157.6651 C   0  0  0  0  0  0  0  0  0  0  0  0
  152.0515  143.6756  158.9376 C   0  0  1  0  0  0  0  0  0  0  0  0
  151.5526  144.9104  159.6801 C   0  0  0  0  0  0  0  0  0  0  0  0
  152.1290  144.6973  161.0650 C   0  0  0  0  0  0  0  0  0  0  0  0
  152.1688  143.1725  161.1999 C   0  0  0  0  0  0  0  0  0  0  0  0
  151.8871  142.6485  159.9050 O   0  0  0  0  0  0  0  0  0  0  0  0
  151.4422  140.0143  155.7945 C   0  0  0  0  0  0  0  0  0  0  0  0
  152.5221  139.6551  156.2733 O   0  0  0  0  0  0  0  0  0  0  0  0
  150.7343  139.2765  154.8950 N   0  0  0  0  0  0  0  0  0  0  0  0
  151.3152  137.9831  154.4909 C   0  0  0  0  0  0  0  0  0  0  0  0
  149.5467  139.6798  154.3550 C   0  0  0  0  0  0  0  0  0  0  0  0
  148.9241  139.0060  153.5304 O   0  0  0  0  0  0  0  0  0  0  0  0
  146.9933  140.7261  154.5098 H   0  0  0  0  0  0  0  0  0  0  0  0
  147.8553  141.5092  153.1791 H   0  0  0  0  0  0  0  0  0  0  0  0
  147.5633  142.3823  154.6774 H   0  0  0  0  0  0  0  0  0  0  0  0
  150.1819  143.3693  157.8775 H   0  0  0  0  0  0  0  0  0  0  0  0
  151.4272  144.1189  156.9087 H   0  0  0  0  0  0  0  0  0  0  0  0
  153.1141  143.7925  158.7169 H   0  0  0  0  0  0  0  0  0  0  0  0
  151.8784  145.8442  159.2212 H   0  0  0  0  0  0  0  0  0  0  0  0
  150.4627  144.9134  159.7264 H   0  0  0  0  0  0  0  0  0  0  0  0
  153.1414  145.1006  161.1132 H   0  0  0  0  0  0  0  0  0  0  0  0
  151.5370  145.1766  161.8451 H   0  0  0  0  0  0  0  0  0  0  0  0
  153.1483  142.8345  161.5399 H   0  0  0  0  0  0  0  0  0  0  0  0
  151.4216  142.8105  161.9064 H   0  0  0  0  0  0  0  0  0  0  0  0
  150.6652  137.3662  153.8695 H   0  0  0  0  0  0  0  0  0  0  0  0
  151.5601  137.3782  155.3657 H   0  0  0  0  0  0  0  0  0  0  0  0
  152.2355  138.1444  153.9276 H   0  0  0  0  0  0  0  0  0  0  0  0
  152.5039  141.7085  157.3930 H   0  0  0  0  0  0  0  0  0  0  0  0
  1 18  1  0  0  0  0
  1 19  1  0  0  0  0
  1 20  1  0  0  0  0
  1  2  1  0  0  0  0
  2 16  1  0  0  0  0
  2  3  1  0  0  0  0
  3  4  2  0  0  0  0
  4 12  1  0  0  0  0
  4  5  1  0  0  0  0
  5  6  1  0  0  0  0
  5 33  1  0  0  0  0
  6  7  1  0  0  0  0
  6 21  1  0  0  0  0
  6 22  1  0  0  0  0
  7 11  1  0  0  0  0
  7  8  1  0  0  0  0
  7 23  1  0  0  0  0
  8  9  1  0  0  0  0
  8 24  1  0  0  0  0
  8 25  1  0  0  0  0
  9 10  1  0  0  0  0
  9 26  1  0  0  0  0
  9 27  1  0  0  0  0
 10 11  1  0  0  0  0
 10 28  1  0  0  0  0
 10 29  1  0  0  0  0
 12 13  2  0  0  0  0
 12 14  1  0  0  0  0
 14 15  1  0  0  0  0
 14 16  1  0  0  0  0
 15 30  1  0  0  0  0
 15 31  1  0  0  0  0
 15 32  1  0  0  0  0
 16 17  2  0  0  0  0
M  END
> <s_m_source_file>
AV-unprocessed.smi

> <i_m_source_file_index>
461

> <i_lp_mmshare_version>
43012

> <i_f3d_flags>
0

> <s_epik_input>
Tz1jMW4oW0NIM10pYyg9TyljKG5uMVtDSDNdKVtOSF1bQ0gyXVtDQEBIXTJbQ0gyXVtDSDJdW0NIMl1PMg==

> <s_epik_cmdline>
J2VwaWtfcHl0aG9uJywgJy1waCcsICc3LjAnLCAnLXRuJywgJzgnLCAnLW1hJywgJzIwMCcsICctbWV0YWxfYmluZGluZycsICctaW1hZScsICc8aW5maWxlLm1hZT4nLCAnLW9tYWUnLCAnPG91dGZpbGUubWFlPic=

> <r_lp_tautomer_probability>
1

> <r_epik_Ionization_Penalty>
0.000103292

> <r_epik_Ionization_Penalty_Charging>
5.59445e-09

> <r_epik_Ionization_Penalty_Neutral>
0.000103287

> <r_epik_State_Penalty>
-0

> <r_epik_Charging_Adjusted_Penalty>
5.59445e-09

> <i_epik_Tot_Q>
0

> <i_epik_Tot_abs_Q>
0

> <r_epik_Metal_State_Penalty>
-0

> <b_epik_Metal_Only>
0

> <s_lp_Force_Field>
OPLS_2005

> <r_lp_Energy>
40.9993

> <b_lp_Chiralities_Consistent>
1

> <s_lp_Variant>
AV-unprocessed.smi:461-2

> <Gold.Version>
5.8.1

> <Gold.Id.Protein>
6NUR|6NUR_protein|mol2

> <Gold.PLP.Fitness>
39.4235

> <Gold.PLP.PLP>
-36.7113

> <Gold.PLP.part.hbond>
-1.0000

> <Gold.PLP.part.metal>
0.0000

> <Gold.PLP.part.buried>
-5.1046

> <Gold.PLP.part.nonpolar>
-34.2183

> <Gold.PLP.part.repulsive>
2.9982

> <Gold.PLP.ligand.clash>
0.0000

> <Gold.PLP.ligand.torsion>
0.1476

> <Gold.PLP.Chemscore.Hbond>
1.0000

> <Gold.PLP.Chemscore.CHOScore>
0.0000

> <Gold.PLP.Chemscore.Metal>
0.0000

> <Gold.Chemscore.Hbonds>
donor molecule, donor type, donor heavy atom, donor atom, acceptor molecule, acceptor atom, score
      P1  H  7997  8010       L1    13  1.00

> <Gold.PLP.Chemscore.Internal.Correction>
0.0073

> <Gold.Rescore>
     Score         DG    S(hbond)    S(metal)    S(lipo)     H(rot)  DE(clash)    DE(int)     intcor
     13.35     -13.80       0.99        0.00      71.08       1.30       0.27       0.19       ----

> <Gold.Chemscore.Fitness>
13.3470

> <Gold.Chemscore.DG>
-13.7989

> <Gold.Chemscore.ZeroCoef>
-5.4800

> <Gold.Chemscore.Hbond>
0.9937

> <Gold.Chemscore.Metal>
0.0000

> <Gold.Chemscore.Lipo>
71.0783

> <Gold.Chemscore.Internal_Hbond>
0.0000

> <Gold.Chemscore.DEClash>
0.2668

> <Gold.Chemscore.DEInternal>
0.1851

> <Gold.Chemscore.Rot>
1.2954

> <Gold.Chemscore.Internal.Correction>
   9.000000E+99

> <Gold.Chemscore.Hbonds>
donor molecule, donor type, donor heavy atom, donor atom, acceptor molecule, acceptor atom, score
      P1  H  7997  8010       L1    13  1.00

> <Gold.Chemscore.Hbond.Weighted>
-3.3191

> <Gold.Chemscore.Metal.Weighted>
-0.0000

> <Gold.Chemscore.Lipo.Weighted>
-8.3162

> <Gold.Chemscore.Internal_Hbond.Weighted>
0.0000

> <Gold.Chemscore.DEClash.Weighted>
0.2668

> <Gold.Chemscore.DEInternal.Weighted>
0.1851

> <Gold.Chemscore.Rot.Weighted>
3.3163

> <Gold.Chemscore.Internal.Correction.Weighted>
   9.000000E+99

> <Gold.Protein.RotatedTorsions>
[ 6907 6896 6895 6894 ] final -129.19 input  -60.11 | X-H torsion
[ 7974 7965 7964 7962 ] final   94.23 input  175.53 | X-H torsion
[ 8008 7997 7996 7995 ] final   79.78 input   59.86 | X-H torsion
[ 10167 10162 10161 10158 ] final   26.34 input  -65.29 | X-H torsion
[ 10718 10713 10712 10709 ] final   96.70 input   66.30 | X-H torsion
[ 10763 10752 10751 10750 ] final  -51.54 input  -60.55 | X-H torsion
[ 11005 11000 10999 10996 ] final   18.07 input  -57.11 | X-H torsion

> <Gold.Protein.ActiveResidues>
 VAL166  LYS551  ARG553  GLY616  TRP617  ASP618  TYR619  PRO620  LYS621  CYS622 
 ASP623  PHE694  ASN695  SER759  ASP760  ASP761  ALA762  ILE779  LEU786  VAL792 
 PHE793  MET794  SER795  GLU796  ALA797  LYS798  CYS799  TRP800  GLU811  SER814 

> <Gold.Protein.RotatedAtoms>
  150.9261  133.6822  159.2820 H   0  0  0  0  0  0  0  0  0  0  0  0  # atno 6907 bound_to 6896
  151.4260  135.1002  159.9638 H   0  0  0  0  0  0  0  0  0  0  0  0  # atno 6908 bound_to 6896
  152.5003  133.8702  159.7349 H   0  0  0  0  0  0  0  0  0  0  0  0  # atno 6909 bound_to 6896
  145.4683  139.2283  143.2949 H   0  0  0  0  0  0  0  0  0  0  0  0  # atno 7974 bound_to 7965
  155.8745  140.3447  155.5844 H   0  0  0  0  0  0  0  0  0  0  0  0  # atno 8008 bound_to 7997
  155.7790  140.0856  157.2088 H   0  0  0  0  0  0  0  0  0  0  0  0  # atno 8009 bound_to 7997
  154.4020  140.1504  156.3017 H   0  0  0  0  0  0  0  0  0  0  0  0  # atno 8010 bound_to 7997
  140.5031  144.0283  150.6341 H   0  0  0  0  0  0  0  0  0  0  0  0  # atno 10167 bound_to 10162
  157.6923  131.0586  150.4531 H   0  0  0  0  0  0  0  0  0  0  0  0  # atno 10718 bound_to 10713
  154.1282  135.6524  153.4916 H   0  0  0  0  0  0  0  0  0  0  0  0  # atno 10763 bound_to 10752
  153.0203  135.5286  154.7028 H   0  0  0  0  0  0  0  0  0  0  0  0  # atno 10764 bound_to 10752
  154.6255  135.2970  155.0247 H   0  0  0  0  0  0  0  0  0  0  0  0  # atno 10765 bound_to 10752
  140.4289  134.1441  155.7679 H   0  0  0  0  0  0  0  0  0  0  0  0  # atno 11005 bound_to 11000
  146.2411  140.5459  142.8933 LP  0  0  0  0  0  0  0  0  0  0  0  0  # atno 17320 bound_to 7965
  144.7960  140.6124  143.6509 LP  0  0  0  0  0  0  0  0  0  0  0  0  # atno 17321 bound_to 7965
  140.3584  143.2922  152.0410 LP  0  0  0  0  0  0  0  0  0  0  0  0  # atno 17342 bound_to 10162
  139.4877  144.6321  151.7049 LP  0  0  0  0  0  0  0  0  0  0  0  0  # atno 17343 bound_to 10162
  156.4881  130.4089  149.6422 LP  0  0  0  0  0  0  0  0  0  0  0  0  # atno 17370 bound_to 10713
  156.3443  130.7398  151.2349 LP  0  0  0  0  0  0  0  0  0  0  0  0  # atno 17371 bound_to 10713
  141.1754  133.8525  157.1439 LP  0  0  0  0  0  0  0  0  0  0  0  0  # atno 17394 bound_to 11000
  140.0148  134.9972  157.0471 LP  0  0  0  0  0  0  0  0  0  0  0  0  # atno 17395 bound_to 11000

$$$$
