AV-unprocessed.smi:2136|AV-procd|sdf|8705|dock8
  -GOLD-   2272011463D 1   1.00000     0.00000
 Structure written by MMmdl.
 43 44  0  0  0  0  0  0  0  0  2 V2000
  155.1984  139.7633  160.9109 C   0  0  0  0  0  0  0  0  0  0  0  0
  154.1699  139.4167  159.4246 S   0  0  0  0  0  0  0  0  0  0  0  0
  155.0488  139.4442  158.2461 O   0  0  0  0  0  0  0  0  0  0  0  0
  153.3738  138.2090  159.6917 O   0  0  0  0  0  0  0  0  0  0  0  0
  153.0726  140.7855  159.3779 N   0  0  0  0  0  0  0  0  0  0  0  0
  153.3796  141.8413  160.3750 C   0  0  0  0  0  0  0  0  0  0  0  0
  152.2783  142.9006  160.5009 C   0  0  0  0  0  0  0  0  0  0  0  0
  151.9827  143.5286  159.1449 C   0  0  0  0  0  0  0  0  0  0  0  0
  151.5286  142.4201  158.2014 C   0  0  0  0  0  0  0  0  0  0  0  0
  152.5805  141.2929  158.0546 C   0  0  2  0  0  0  0  0  0  0  0  0
  152.0033  140.2470  157.0891 C   0  0  0  0  0  0  0  0  0  0  0  0
  152.5823  140.0045  156.0302 O   0  0  0  0  0  0  0  0  0  0  0  0
  150.8668  139.6362  157.4625 N   0  0  0  0  0  0  0  0  0  0  0  0
  150.1885  138.5956  156.7008 C   0  0  0  0  0  0  0  0  0  0  0  0
  148.6927  138.9039  156.5253 C   0  0  0  0  0  0  0  0  0  0  0  0
  148.4579  140.0714  155.5871 C   0  0  0  0  0  0  0  0  0  0  0  0
  147.8423  139.8757  154.3309 C   0  0  0  0  0  0  0  0  0  0  0  0
  147.6414  140.9826  153.4799 C   0  0  0  0  0  0  0  0  0  0  0  0
  148.0621  142.2599  153.9039 C   0  0  0  0  0  0  0  0  0  0  0  0
  148.6490  142.4079  155.1121 N   0  3  0  0  0  0  0  0  0  0  0  0
  148.8583  141.3739  155.9561 C   0  0  0  0  0  0  0  0  0  0  0  0
  155.9024  138.9447  161.0586 H   0  0  0  0  0  0  0  0  0  0  0  0
  154.5614  139.8513  161.7901 H   0  0  0  0  0  0  0  0  0  0  0  0
  155.7535  140.6896  160.7664 H   0  0  0  0  0  0  0  0  0  0  0  0
  153.5336  141.3898  161.3546 H   0  0  0  0  0  0  0  0  0  0  0  0
  154.3194  142.3211  160.1007 H   0  0  0  0  0  0  0  0  0  0  0  0
  151.3734  142.4501  160.9115 H   0  0  0  0  0  0  0  0  0  0  0  0
  152.5876  143.6719  161.2066 H   0  0  0  0  0  0  0  0  0  0  0  0
  151.2058  144.2877  159.2388 H   0  0  0  0  0  0  0  0  0  0  0  0
  152.8704  144.0256  158.7515 H   0  0  0  0  0  0  0  0  0  0  0  0
  150.5870  142.0106  158.5715 H   0  0  0  0  0  0  0  0  0  0  0  0
  151.3061  142.8533  157.2249 H   0  0  0  0  0  0  0  0  0  0  0  0
  153.4450  141.7322  157.5546 H   0  0  0  0  0  0  0  0  0  0  0  0
  150.4640  139.8908  158.3531 H   0  0  0  0  0  0  0  0  0  0  0  0
  150.6735  138.4751  155.7302 H   0  0  0  0  0  0  0  0  0  0  0  0
  150.3154  137.6508  157.2301 H   0  0  0  0  0  0  0  0  0  0  0  0
  148.1711  138.0246  156.1442 H   0  0  0  0  0  0  0  0  0  0  0  0
  148.2369  139.1368  157.4886 H   0  0  0  0  0  0  0  0  0  0  0  0
  147.5284  138.8895  154.0207 H   0  0  0  0  0  0  0  0  0  0  0  0
  147.1721  140.8529  152.5158 H   0  0  0  0  0  0  0  0  0  0  0  0
  147.9485  143.1602  153.3179 H   0  0  0  0  0  0  0  0  0  0  0  0
  149.3382  141.6177  156.8932 H   0  0  0  0  0  0  0  0  0  0  0  0
  148.9477  143.3405  155.3993 H   0  0  0  0  0  0  0  0  0  0  0  0
  1  2  1  0  0  0  0
  1 22  1  0  0  0  0
  1 23  1  0  0  0  0
  1 24  1  0  0  0  0
  2  3  2  0  0  0  0
  2  4  2  0  0  0  0
  2  5  1  0  0  0  0
  5 10  1  0  0  0  0
  5  6  1  0  0  0  0
  6  7  1  0  0  0  0
  6 25  1  0  0  0  0
  6 26  1  0  0  0  0
  7  8  1  0  0  0  0
  7 27  1  0  0  0  0
  7 28  1  0  0  0  0
  8  9  1  0  0  0  0
  8 29  1  0  0  0  0
  8 30  1  0  0  0  0
  9 10  1  0  0  0  0
  9 31  1  0  0  0  0
  9 32  1  0  0  0  0
 10 11  1  0  0  0  0
 10 33  1  0  0  0  0
 11 12  2  0  0  0  0
 11 13  1  0  0  0  0
 13 14  1  0  0  0  0
 13 34  1  0  0  0  0
 14 15  1  0  0  0  0
 14 35  1  0  0  0  0
 14 36  1  0  0  0  0
 15 16  1  0  0  0  0
 15 37  1  0  0  0  0
 15 38  1  0  0  0  0
 16 21  1  0  0  0  0
 16 17  2  0  0  0  0
 17 18  1  0  0  0  0
 17 39  1  0  0  0  0
 18 19  2  0  0  0  0
 18 40  1  0  0  0  0
 19 20  1  0  0  0  0
 19 41  1  0  0  0  0
 20 21  2  0  0  0  0
 20 43  1  0  0  0  0
 21 42  1  0  0  0  0
M  CHG  1  20   1
M  END
> <s_m_source_file>
AV-unprocessed.smi

> <i_m_source_file_index>
2136

> <i_lp_mmshare_version>
43012

> <i_f3d_flags>
0

> <s_epik_input>
W0NIM11TKD1PKSg9TylOMVtDSDJdW0NIMl1bQ0gyXVtDSDJdW0NASF0xQyg9TylbTkhdW0NIMl1bQ0gyXWMyW2NIXVtjSF1bY0hdbltjSF0y

> <s_epik_cmdline>
J2VwaWtfcHl0aG9uJywgJy1waCcsICc3LjAnLCAnLXRuJywgJzgnLCAnLW1hJywgJzIwMCcsICctbWV0YWxfYmluZGluZycsICctaW1hZScsICc8aW5maWxlLm1hZT4nLCAnLW9tYWUnLCAnPG91dGZpbGUubWFlPic=

> <r_epik_Ionization_Penalty>
2.2835

> <r_epik_Ionization_Penalty_Charging>
2.2835

> <r_epik_Ionization_Penalty_Neutral>
1.35461e-07

> <r_epik_State_Penalty>
2.43297

> <r_epik_Charging_Adjusted_Penalty>
4.71647

> <i_epik_Tot_Q>
1

> <i_epik_Tot_abs_Q>
1

> <r_epik_Metal_State_Penalty>
2.44557

> <b_epik_Metal_Only>
0

> <s_lp_Force_Field>
OPLS_2005

> <r_lp_Energy>
10.903

> <b_lp_Chiralities_Consistent>
1

> <s_lp_Variant>
AV-unprocessed.smi:2136-4

> <Gold.Version>
5.8.1

> <Gold.Id.Protein>
6NUR|6NUR_protein|mol2

> <Gold.PLP.Fitness>
42.9077

> <Gold.PLP.PLP>
-32.0517

> <Gold.PLP.part.hbond>
-2.9683

> <Gold.PLP.part.metal>
0.0000

> <Gold.PLP.part.buried>
-4.8632

> <Gold.PLP.part.nonpolar>
-23.3615

> <Gold.PLP.part.repulsive>
0.2418

> <Gold.PLP.ligand.clash>
0.0000

> <Gold.PLP.ligand.torsion>
0.7809

> <Gold.PLP.Chemscore.Hbond>
3.8880

> <Gold.PLP.Chemscore.CHOScore>
0.0000

> <Gold.PLP.Chemscore.Metal>
0.0000

> <Gold.Chemscore.Hbonds>
donor molecule, donor type, donor heavy atom, donor atom, acceptor molecule, acceptor atom, score
      L1  H    20    43       P1  8028  1.33
      P1  H  7997  8008       L1    12  1.00
      P1  H  7997  8010       L1     3  0.10

> <Gold.PLP.Chemscore.Internal.Correction>
0.7538

> <Gold.Rescore>
     Score         DG    S(hbond)    S(metal)    S(lipo)     H(rot)  DE(clash)    DE(int)     intcor
     18.84     -19.80       2.67        0.00      88.82       1.95       0.05       0.91       ----

> <Gold.Chemscore.Fitness>
18.8446

> <Gold.Chemscore.DG>
-19.8016

> <Gold.Chemscore.ZeroCoef>
-5.4800

> <Gold.Chemscore.Hbond>
2.6687

> <Gold.Chemscore.Metal>
0.0000

> <Gold.Chemscore.Lipo>
88.8151

> <Gold.Chemscore.Internal_Hbond>
0.0000

> <Gold.Chemscore.DEClash>
0.0490

> <Gold.Chemscore.DEInternal>
0.9080

> <Gold.Chemscore.Rot>
1.9466

> <Gold.Chemscore.Internal.Correction>
   9.000000E+99

> <Gold.Chemscore.Hbonds>
donor molecule, donor type, donor heavy atom, donor atom, acceptor molecule, acceptor atom, score
      L1  H    20    43       P1  8028  0.66
      P1  H  7997  8008       L1    12  0.91
      P1  H  7997  8010       L1     3  0.12

> <Gold.Chemscore.Hbond.Weighted>
-8.9135

> <Gold.Chemscore.Metal.Weighted>
-0.0000

> <Gold.Chemscore.Lipo.Weighted>
-10.3914

> <Gold.Chemscore.Internal_Hbond.Weighted>
0.0000

> <Gold.Chemscore.DEClash.Weighted>
0.0490

> <Gold.Chemscore.DEInternal.Weighted>
0.9080

> <Gold.Chemscore.Rot.Weighted>
4.9832

> <Gold.Chemscore.Internal.Correction.Weighted>
   9.000000E+99

> <Gold.Protein.RotatedTorsions>
[ 6907 6896 6895 6894 ] final   -1.48 input  -60.11 | X-H torsion
[ 7974 7965 7964 7962 ] final  -25.07 input  175.53 | X-H torsion
[ 8008 7997 7996 7995 ] final  -25.50 input   59.86 | X-H torsion
[ 10167 10162 10161 10158 ] final  -15.51 input  -65.29 | X-H torsion
[ 10718 10713 10712 10709 ] final  -50.38 input   66.30 | X-H torsion
[ 10763 10752 10751 10750 ] final   95.27 input  -60.55 | X-H torsion
[ 11005 11000 10999 10996 ] final -134.00 input  -57.11 | X-H torsion

> <Gold.Protein.ActiveResidues>
 VAL166  LYS551  ARG553  GLY616  TRP617  ASP618  TYR619  PRO620  LYS621  CYS622 
 ASP623  PHE694  ASN695  SER759  ASP760  ASP761  ALA762  ILE779  LEU786  VAL792 
 PHE793  MET794  SER795  GLU796  ALA797  LYS798  CYS799  TRP800  GLU811  SER814 

> <Gold.Protein.RotatedAtoms>
  151.5454  135.1068  159.9936 H   0  0  0  0  0  0  0  0  0  0  0  0  # atno 6907 bound_to 6896
  152.4516  133.7636  159.6771 H   0  0  0  0  0  0  0  0  0  0  0  0  # atno 6908 bound_to 6896
  150.8446  133.7815  159.3072 H   0  0  0  0  0  0  0  0  0  0  0  0  # atno 6909 bound_to 6896
  146.1514  140.4837  142.8609 H   0  0  0  0  0  0  0  0  0  0  0  0  # atno 7974 bound_to 7965
  154.4472  140.1924  156.0630 H   0  0  0  0  0  0  0  0  0  0  0  0  # atno 8008 bound_to 7997
  156.0569  140.3301  155.7388 H   0  0  0  0  0  0  0  0  0  0  0  0  # atno 8009 bound_to 7997
  155.5472  140.0591  157.2848 H   0  0  0  0  0  0  0  0  0  0  0  0  # atno 8010 bound_to 7997
  140.7219  143.5211  150.9633 H   0  0  0  0  0  0  0  0  0  0  0  0  # atno 10167 bound_to 10162
  156.1805  130.4150  149.9513 H   0  0  0  0  0  0  0  0  0  0  0  0  # atno 10718 bound_to 10713
  153.2512  135.4260  155.0800 H   0  0  0  0  0  0  0  0  0  0  0  0  # atno 10763 bound_to 10752
  154.8382  135.3426  154.6509 H   0  0  0  0  0  0  0  0  0  0  0  0  # atno 10764 bound_to 10752
  153.6931  135.7032  153.5141 H   0  0  0  0  0  0  0  0  0  0  0  0  # atno 10765 bound_to 10752
  140.9030  134.1666  157.4446 H   0  0  0  0  0  0  0  0  0  0  0  0  # atno 11005 bound_to 11000
  144.7909  140.6030  143.6542 LP  0  0  0  0  0  0  0  0  0  0  0  0  # atno 17320 bound_to 7965
  145.4813  139.1495  143.3760 LP  0  0  0  0  0  0  0  0  0  0  0  0  # atno 17321 bound_to 7965
  139.8928  143.6932  152.3143 LP  0  0  0  0  0  0  0  0  0  0  0  0  # atno 17342 bound_to 10162
  139.7254  144.7594  151.0887 LP  0  0  0  0  0  0  0  0  0  0  0  0  # atno 17343 bound_to 10162
  156.7285  130.9034  151.3624 LP  0  0  0  0  0  0  0  0  0  0  0  0  # atno 17370 bound_to 10713
  157.6865  130.9191  150.0400 LP  0  0  0  0  0  0  0  0  0  0  0  0  # atno 17371 bound_to 10713
  139.8745  134.9905  156.5508 LP  0  0  0  0  0  0  0  0  0  0  0  0  # atno 17394 bound_to 11000
  140.8206  133.8356  155.8892 LP  0  0  0  0  0  0  0  0  0  0  0  0  # atno 17395 bound_to 11000

$$$$
