AV-unprocessed.smi:910|AV-procd|sdf|4120|dock5
  -GOLD-   22720 2 23D 1   1.00000     0.00000
 Structure written by MMmdl.
 46 47  0  0  0  0  0  0  0  0  1 V2000
  145.7317  132.2916  149.8404 C   0  0  0  0  0  0  0  0  0  0  0  0
  146.3389  132.8197  151.1218 C   0  0  0  0  0  0  0  0  0  0  0  0
  147.6554  132.6188  151.4367 N   0  0  0  0  0  0  0  0  0  0  0  0
  147.9062  133.2234  152.6588 C   0  0  0  0  0  0  0  0  0  0  0  0
  149.0288  133.2611  153.3077 N   0  0  0  0  0  0  0  0  0  0  0  0
  149.0953  133.9305  154.5208 C   0  0  0  0  0  0  0  0  0  0  0  0
  149.0919  133.4565  155.6615 O   0  0  0  0  0  0  0  0  0  0  0  0
  149.1910  135.2519  154.3116 N   0  0  0  0  0  0  0  0  0  0  0  0
  149.3229  136.2694  155.3496 C   0  0  0  0  0  0  0  0  0  0  0  0
  150.6909  136.9640  155.2891 C   0  0  0  0  0  0  0  0  0  0  0  0
  150.7453  137.7614  154.1152 O   0  0  0  0  0  0  0  0  0  0  0  0
  150.6004  139.1580  154.3401 C   0  0  2  0  0  0  0  0  0  0  0  0
  151.5848  139.6125  155.4381 C   0  0  0  0  0  0  0  0  0  0  0  0
  151.3667  141.0846  155.8168 C   0  0  0  0  0  0  0  0  0  0  0  0
  149.9140  141.3342  156.2458 C   0  0  0  0  0  0  0  0  0  0  0  0
  148.9319  140.8930  155.1502 C   0  0  0  0  0  0  0  0  0  0  0  0
  149.1357  139.4150  154.7606 C   0  0  1  0  0  0  0  0  0  0  0  0
  148.1473  139.0028  153.6567 C   0  0  0  0  0  0  0  0  0  0  0  0
  146.7166  133.7827  153.0662 O   0  0  0  0  0  0  0  0  0  0  0  0
  145.7848  133.5199  152.1087 C   0  0  0  0  0  0  0  0  0  0  0  0
  144.3769  134.0343  152.3074 C   0  0  0  0  0  0  0  0  0  0  0  0
  145.3368  133.1140  149.2436 H   0  0  0  0  0  0  0  0  0  0  0  0
  144.9153  131.6048  150.0645 H   0  0  0  0  0  0  0  0  0  0  0  0
  146.4747  131.7604  149.2450 H   0  0  0  0  0  0  0  0  0  0  0  0
  148.2990  132.1124  150.8461 H   0  0  0  0  0  0  0  0  0  0  0  0
  149.1955  135.5774  153.3558 H   0  0  0  0  0  0  0  0  0  0  0  0
  148.5280  137.0032  155.2155 H   0  0  0  0  0  0  0  0  0  0  0  0
  149.1686  135.8213  156.3324 H   0  0  0  0  0  0  0  0  0  0  0  0
  150.8272  137.5848  156.1746 H   0  0  0  0  0  0  0  0  0  0  0  0
  151.4901  136.2214  155.2872 H   0  0  0  0  0  0  0  0  0  0  0  0
  150.7952  139.7130  153.4202 H   0  0  0  0  0  0  0  0  0  0  0  0
  151.4576  138.9879  156.3233 H   0  0  0  0  0  0  0  0  0  0  0  0
  152.6148  139.4754  155.1099 H   0  0  0  0  0  0  0  0  0  0  0  0
  152.0462  141.3663  156.6217 H   0  0  0  0  0  0  0  0  0  0  0  0
  151.6122  141.7215  154.9661 H   0  0  0  0  0  0  0  0  0  0  0  0
  149.7041  140.7891  157.1671 H   0  0  0  0  0  0  0  0  0  0  0  0
  149.7694  142.3912  156.4713 H   0  0  0  0  0  0  0  0  0  0  0  0
  147.9092  141.0500  155.4948 H   0  0  0  0  0  0  0  0  0  0  0  0
  149.0610  141.5269  154.2719 H   0  0  0  0  0  0  0  0  0  0  0  0
  148.9235  138.8055  155.6406 H   0  0  0  0  0  0  0  0  0  0  0  0
  148.3169  139.5696  152.7406 H   0  0  0  0  0  0  0  0  0  0  0  0
  147.1170  139.1753  153.9689 H   0  0  0  0  0  0  0  0  0  0  0  0
  148.2405  137.9440  153.4131 H   0  0  0  0  0  0  0  0  0  0  0  0
  143.6797  133.5203  151.6454 H   0  0  0  0  0  0  0  0  0  0  0  0
  144.3335  135.1026  152.0953 H   0  0  0  0  0  0  0  0  0  0  0  0
  144.0574  133.8726  153.3370 H   0  0  0  0  0  0  0  0  0  0  0  0
  1 22  1  0  0  0  0
  1 23  1  0  0  0  0
  1 24  1  0  0  0  0
  1  2  1  0  0  0  0
  2  3  1  0  0  0  0
  2 20  2  0  0  0  0
  3 25  1  0  0  0  0
  3  4  1  0  0  0  0
  4 19  1  0  0  0  0
  4  5  2  0  0  0  0
  5  6  1  0  0  0  0
  6  8  1  0  0  0  0
  6  7  2  0  0  0  0
  8  9  1  0  0  0  0
  8 26  1  0  0  0  0
  9 10  1  0  0  0  0
  9 27  1  0  0  0  0
  9 28  1  0  0  0  0
 10 11  1  0  0  0  0
 10 29  1  0  0  0  0
 10 30  1  0  0  0  0
 11 12  1  0  0  0  0
 12 17  1  0  0  0  0
 12 13  1  0  0  0  0
 12 31  1  0  0  0  0
 13 14  1  0  0  0  0
 13 32  1  0  0  0  0
 13 33  1  0  0  0  0
 14 15  1  0  0  0  0
 14 34  1  0  0  0  0
 14 35  1  0  0  0  0
 15 16  1  0  0  0  0
 15 36  1  0  0  0  0
 15 37  1  0  0  0  0
 16 17  1  0  0  0  0
 16 38  1  0  0  0  0
 16 39  1  0  0  0  0
 17 18  1  0  0  0  0
 17 40  1  0  0  0  0
 18 41  1  0  0  0  0
 18 42  1  0  0  0  0
 18 43  1  0  0  0  0
 19 20  1  0  0  0  0
 20 21  1  0  0  0  0
 21 44  1  0  0  0  0
 21 45  1  0  0  0  0
 21 46  1  0  0  0  0
M  END
> <s_m_source_file>
AV-unprocessed.smi

> <i_m_source_file_index>
910

> <i_lp_mmshare_version>
43012

> <i_f3d_flags>
0

> <s_epik_input>
W0NIM11jMW5jKG9jMVtDSDNdKVtOSF1DKD1PKVtOSF1bQ0gyXVtDSDJdT1tDQEBIXTJbQ0gyXVtDSDJdW0NIMl1bQ0gyXVtDQEhdMltDSDNd

> <s_epik_cmdline>
J2VwaWtfcHl0aG9uJywgJy1waCcsICc3LjAnLCAnLXRuJywgJzgnLCAnLW1hJywgJzIwMCcsICctbWV0YWxfYmluZGluZycsICctaW1hZScsICc8aW5maWxlLm1hZT4nLCAnLW9tYWUnLCAnPG91dGZpbGUubWFlPic=

> <r_lp_tautomer_probability>
0.107061

> <r_epik_Ionization_Penalty>
0.727192

> <r_epik_Ionization_Penalty_Charging>
0.726719

> <r_epik_Ionization_Penalty_Neutral>
0.000473387

> <r_epik_State_Penalty>
2.53712

> <r_epik_Charging_Adjusted_Penalty>
3.26383

> <i_epik_Tot_Q>
0

> <i_epik_Tot_abs_Q>
0

> <r_epik_Metal_State_Penalty>
3.71015

> <b_epik_Metal_Only>
0

> <s_lp_Force_Field>
OPLS_2005

> <r_lp_Energy>
30.8071

> <b_lp_Chiralities_Consistent>
1

> <s_lp_Variant>
AV-unprocessed.smi:910-5

> <Gold.Version>
5.8.1

> <Gold.Id.Protein>
6NUR|6NUR_protein|mol2

> <Gold.PLP.Fitness>
38.4198

> <Gold.PLP.PLP>
-34.6164

> <Gold.PLP.part.hbond>
-1.8492

> <Gold.PLP.part.metal>
0.0000

> <Gold.PLP.part.buried>
-3.6170

> <Gold.PLP.part.nonpolar>
-28.2198

> <Gold.PLP.part.repulsive>
0.6526

> <Gold.PLP.ligand.clash>
0.0000

> <Gold.PLP.ligand.torsion>
1.1247

> <Gold.PLP.Chemscore.Hbond>
2.0000

> <Gold.PLP.Chemscore.CHOScore>
0.0000

> <Gold.PLP.Chemscore.Metal>
0.0000

> <Gold.Chemscore.Hbonds>
donor molecule, donor type, donor heavy atom, donor atom, acceptor molecule, acceptor atom, score
      L1  H     3    25       P1 10747  0.99
      L1  H     8    26       P1  7948  1.00

> <Gold.PLP.Chemscore.Internal.Correction>
0.0527

> <Gold.Rescore>
     Score         DG    S(hbond)    S(metal)    S(lipo)     H(rot)  DE(clash)    DE(int)     intcor
     15.42     -16.60       1.88        0.00      77.60       1.66       0.01       1.17       ----

> <Gold.Chemscore.Fitness>
15.4186

> <Gold.Chemscore.DG>
-16.6007

> <Gold.Chemscore.ZeroCoef>
-5.4800

> <Gold.Chemscore.Hbond>
1.8819

> <Gold.Chemscore.Metal>
0.0000

> <Gold.Chemscore.Lipo>
77.5951

> <Gold.Chemscore.Internal_Hbond>
0.0000

> <Gold.Chemscore.DEClash>
0.0075

> <Gold.Chemscore.DEInternal>
1.1746

> <Gold.Chemscore.Rot>
1.6576

> <Gold.Chemscore.Internal.Correction>
   9.000000E+99

> <Gold.Chemscore.Hbonds>
donor molecule, donor type, donor heavy atom, donor atom, acceptor molecule, acceptor atom, score
      L1  H     3    25       P1 10747  0.91
      L1  H     8    26       P1  7948  0.44

> <Gold.Chemscore.Hbond.Weighted>
-6.2857

> <Gold.Chemscore.Metal.Weighted>
-0.0000

> <Gold.Chemscore.Lipo.Weighted>
-9.0786

> <Gold.Chemscore.Internal_Hbond.Weighted>
0.0000

> <Gold.Chemscore.DEClash.Weighted>
0.0075

> <Gold.Chemscore.DEInternal.Weighted>
1.1746

> <Gold.Chemscore.Rot.Weighted>
4.2436

> <Gold.Chemscore.Internal.Correction.Weighted>
   9.000000E+99

> <Gold.Protein.RotatedTorsions>
[ 6907 6896 6895 6894 ] final   91.07 input  -60.11 | X-H torsion
[ 7974 7965 7964 7962 ] final  151.42 input  175.53 | X-H torsion
[ 8008 7997 7996 7995 ] final   95.11 input   59.86 | X-H torsion
[ 10167 10162 10161 10158 ] final -109.47 input  -65.29 | X-H torsion
[ 10718 10713 10712 10709 ] final -145.14 input   66.30 | X-H torsion
[ 10763 10752 10751 10750 ] final   10.45 input  -60.55 | X-H torsion
[ 11005 11000 10999 10996 ] final  154.01 input  -57.11 | X-H torsion

> <Gold.Protein.ActiveResidues>
 VAL166  LYS551  ARG553  GLY616  TRP617  ASP618  TYR619  PRO620  LYS621  CYS622 
 ASP623  PHE694  ASN695  SER759  ASP760  ASP761  ALA762  ILE779  LEU786  VAL792 
 PHE793  MET794  SER795  GLU796  ALA797  LYS798  CYS799  TRP800  GLU811  SER814 

> <Gold.Protein.RotatedAtoms>
  152.5448  134.1713  159.8597 H   0  0  0  0  0  0  0  0  0  0  0  0  # atno 6907 bound_to 6896
  151.1723  133.4769  159.2601 H   0  0  0  0  0  0  0  0  0  0  0  0  # atno 6908 bound_to 6896
  151.1262  135.0117  159.8616 H   0  0  0  0  0  0  0  0  0  0  0  0  # atno 6909 bound_to 6896
  144.8294  139.6535  143.6065 H   0  0  0  0  0  0  0  0  0  0  0  0  # atno 7974 bound_to 7965
  156.0653  140.3291  155.7510 H   0  0  0  0  0  0  0  0  0  0  0  0  # atno 8008 bound_to 7997
  155.5391  140.0600  157.2891 H   0  0  0  0  0  0  0  0  0  0  0  0  # atno 8009 bound_to 7997
  154.4502  140.1914  156.0561 H   0  0  0  0  0  0  0  0  0  0  0  0  # atno 8010 bound_to 7997
  140.1549  143.4168  152.1468 H   0  0  0  0  0  0  0  0  0  0  0  0  # atno 10167 bound_to 10162
  156.3787  130.7826  151.2015 H   0  0  0  0  0  0  0  0  0  0  0  0  # atno 10718 bound_to 10713
  153.2030  135.6858  153.8207 H   0  0  0  0  0  0  0  0  0  0  0  0  # atno 10763 bound_to 10752
  153.7466  135.3230  155.3315 H   0  0  0  0  0  0  0  0  0  0  0  0  # atno 10764 bound_to 10752
  154.8182  135.4671  154.0805 H   0  0  0  0  0  0  0  0  0  0  0  0  # atno 10765 bound_to 10752
  140.1450  134.8714  157.2380 H   0  0  0  0  0  0  0  0  0  0  0  0  # atno 11005 bound_to 11000
  146.2598  139.6384  142.9370 LP  0  0  0  0  0  0  0  0  0  0  0  0  # atno 17320 bound_to 7965
  145.4929  141.0438  143.2583 LP  0  0  0  0  0  0  0  0  0  0  0  0  # atno 17321 bound_to 7965
  139.5408  144.7254  151.4740 LP  0  0  0  0  0  0  0  0  0  0  0  0  # atno 17342 bound_to 10162
  140.6679  143.8358  150.6964 LP  0  0  0  0  0  0  0  0  0  0  0  0  # atno 17343 bound_to 10162
  157.7490  131.0350  150.4345 LP  0  0  0  0  0  0  0  0  0  0  0  0  # atno 17370 bound_to 10713
  156.4585  130.4027  149.6591 LP  0  0  0  0  0  0  0  0  0  0  0  0  # atno 17371 bound_to 10713
  140.2675  134.3499  155.7385 LP  0  0  0  0  0  0  0  0  0  0  0  0  # atno 17394 bound_to 11000
  141.2191  133.7404  156.9173 LP  0  0  0  0  0  0  0  0  0  0  0  0  # atno 17395 bound_to 11000

$$$$
