AV-unprocessed.smi:1661|AV-procd|sdf|6654|dock7
  -GOLD-   22720 7363D 1   1.00000     0.00000
 Structure written by MMmdl.
 38 39  0  0  0  0  0  0  0  0  2 V2000
  144.2661  132.6860  151.5055 C   0  0  0  0  0  0  0  0  0  0  0  0
  145.6005  133.2534  150.9904 C   0  0  2  0  0  0  0  0  0  0  0  0
  146.6471  133.4228  152.1064 C   0  0  0  0  0  0  0  0  0  0  0  0
  146.3336  134.6187  153.0235 C   0  0  0  0  0  0  0  0  0  0  0  0
  146.1955  135.8766  152.2444 N   0  3  2  0  0  0  0  0  0  0  0  0
  146.0218  137.0610  153.1233 C   0  0  0  0  0  0  0  0  0  0  0  0
  146.3673  138.3828  152.4093 C   0  0  0  0  0  0  0  0  0  0  0  0
  147.7469  138.7844  152.6593 N   0  0  0  0  0  0  0  0  0  0  0  0
  148.3134  138.8669  153.8718 C   0  0  0  0  0  0  0  0  0  0  0  0
  147.7098  138.6221  154.9167 O   0  0  0  0  0  0  0  0  0  0  0  0
  149.6002  139.2473  153.7853 N   0  0  0  0  0  0  0  0  0  0  0  0
  150.5291  139.4541  154.8394 C   0  0  0  0  0  0  0  0  0  0  0  0
  151.8228  139.7530  154.6433 N   0  0  0  0  0  0  0  0  0  0  0  0
  152.5090  139.9010  155.8420 N   0  0  0  0  0  0  0  0  0  0  0  0
  151.7069  139.7085  156.8929 C   0  0  0  0  0  0  0  0  0  0  0  0
  150.0345  139.3273  156.5214 S   0  0  0  0  0  0  0  0  0  0  0  0
  145.1423  135.7594  151.2008 C   0  0  0  0  0  0  0  0  0  0  0  0
  145.4313  134.5888  150.2439 C   0  0  0  0  0  0  0  0  0  0  0  0
  143.7875  133.3469  152.2274 H   0  0  0  0  0  0  0  0  0  0  0  0
  144.4141  131.7209  151.9906 H   0  0  0  0  0  0  0  0  0  0  0  0
  143.5649  132.5334  150.6846 H   0  0  0  0  0  0  0  0  0  0  0  0
  145.9914  132.5248  150.2790 H   0  0  0  0  0  0  0  0  0  0  0  0
  146.7226  132.5083  152.6960 H   0  0  0  0  0  0  0  0  0  0  0  0
  147.6291  133.5724  151.6552 H   0  0  0  0  0  0  0  0  0  0  0  0
  145.4211  134.4372  153.5927 H   0  0  0  0  0  0  0  0  0  0  0  0
  147.1397  134.7243  153.7506 H   0  0  0  0  0  0  0  0  0  0  0  0
  145.0038  137.0855  153.5151 H   0  0  0  0  0  0  0  0  0  0  0  0
  146.6797  136.9559  153.9871 H   0  0  0  0  0  0  0  0  0  0  0  0
  146.1961  138.2944  151.3350 H   0  0  0  0  0  0  0  0  0  0  0  0
  145.7304  139.1939  152.7594 H   0  0  0  0  0  0  0  0  0  0  0  0
  148.3135  139.0008  151.8519 H   0  0  0  0  0  0  0  0  0  0  0  0
  149.9591  139.4104  152.8563 H   0  0  0  0  0  0  0  0  0  0  0  0
  152.1027  139.7909  157.8943 H   0  0  0  0  0  0  0  0  0  0  0  0
  144.1683  135.6331  151.6749 H   0  0  0  0  0  0  0  0  0  0  0  0
  145.0852  136.6763  150.6158 H   0  0  0  0  0  0  0  0  0  0  0  0
  146.3444  134.8046  149.6872 H   0  0  0  0  0  0  0  0  0  0  0  0
  144.6374  134.5078  149.5006 H   0  0  0  0  0  0  0  0  0  0  0  0
  147.0747  136.0053  151.7640 H   0  0  0  0  0  0  0  0  0  0  0  0
  1  2  1  0  0  0  0
  1 19  1  0  0  0  0
  1 20  1  0  0  0  0
  1 21  1  0  0  0  0
  2 18  1  0  0  0  0
  2  3  1  0  0  0  0
  2 22  1  0  0  0  0
  3  4  1  0  0  0  0
  3 23  1  0  0  0  0
  3 24  1  0  0  0  0
  4  5  1  0  0  0  0
  4 25  1  0  0  0  0
  4 26  1  0  0  0  0
  5  6  1  0  0  0  0
  5 17  1  0  0  0  0
  5 38  1  0  0  0  0
  6  7  1  0  0  0  0
  6 27  1  0  0  0  0
  6 28  1  0  0  0  0
  7  8  1  0  0  0  0
  7 29  1  0  0  0  0
  7 30  1  0  0  0  0
  8  9  1  0  0  0  0
  8 31  1  0  0  0  0
  9 10  2  0  0  0  0
  9 11  1  0  0  0  0
 11 12  1  0  0  0  0
 11 32  1  0  0  0  0
 12 16  1  0  0  0  0
 12 13  2  0  0  0  0
 13 14  1  0  0  0  0
 14 15  2  0  0  0  0
 15 16  1  0  0  0  0
 15 33  1  0  0  0  0
 17 18  1  0  0  0  0
 17 34  1  0  0  0  0
 17 35  1  0  0  0  0
 18 36  1  0  0  0  0
 18 37  1  0  0  0  0
M  CHG  1   5   1
M  END
> <s_m_source_file>
AV-unprocessed.smi

> <i_m_source_file_index>
1661

> <i_lp_mmshare_version>
43012

> <i_f3d_flags>
0

> <s_epik_input>
W0NIM11bQ0hdMVtDSDJdW0NIMl1OKFtDSDJdW0NIMl0xKVtDSDJdW0NIMl1bTkhdQyg9TylbTkhdYzJubltjSF1zMg==

> <s_epik_cmdline>
J2VwaWtfcHl0aG9uJywgJy1waCcsICc3LjAnLCAnLXRuJywgJzgnLCAnLW1hJywgJzIwMCcsICctbWV0YWxfYmluZGluZycsICctaW1hZScsICc8aW5maWxlLm1hZT4nLCAnLW9tYWUnLCAnPG91dGZpbGUubWFlPic=

> <r_lp_tautomer_probability>
1

> <r_epik_Ionization_Penalty>
0.0053917

> <r_epik_Ionization_Penalty_Charging>
0.00168873

> <r_epik_Ionization_Penalty_Neutral>
0.00370297

> <r_epik_State_Penalty>
-0

> <r_epik_Charging_Adjusted_Penalty>
0.00168873

> <i_epik_Tot_Q>
1

> <i_epik_Tot_abs_Q>
1

> <r_epik_Metal_State_Penalty>
0.36997

> <b_epik_Metal_Only>
0

> <s_lp_Force_Field>
OPLS_2005

> <r_lp_Energy>
16.5964

> <b_lp_Chiralities_Consistent>
1

> <s_lp_Variant>
AV-unprocessed.smi:1661-2

> <Gold.Version>
5.8.1

> <Gold.Id.Protein>
6NUR|6NUR_protein|mol2

> <Gold.PLP.Fitness>
45.1784

> <Gold.PLP.PLP>
-28.1732

> <Gold.PLP.part.hbond>
-6.0000

> <Gold.PLP.part.metal>
0.0000

> <Gold.PLP.part.buried>
-1.2695

> <Gold.PLP.part.nonpolar>
-20.8579

> <Gold.PLP.part.repulsive>
0.3276

> <Gold.PLP.ligand.clash>
0.0000

> <Gold.PLP.ligand.torsion>
0.4113

> <Gold.PLP.Chemscore.Hbond>
5.9360

> <Gold.PLP.Chemscore.CHOScore>
0.0000

> <Gold.PLP.Chemscore.Metal>
0.0000

> <Gold.Chemscore.Hbonds>
donor molecule, donor type, donor heavy atom, donor atom, acceptor molecule, acceptor atom, score
      L1  H     5    38       P1  7948  2.00
      L1  H     8    31       P1  7957  0.98
      L1  H    11    32       P1  7957  0.94
      P1  H  7989  7998       L1    13  1.00
      P1  H  7997  8009       L1    14  1.00

> <Gold.PLP.Chemscore.Internal.Correction>
0.0199

> <Gold.Rescore>
     Score         DG    S(hbond)    S(metal)    S(lipo)     H(rot)  DE(clash)    DE(int)     intcor
     18.45     -23.05       4.65        0.00      54.66       1.70       1.46       3.15       ----

> <Gold.Chemscore.Fitness>
18.4463

> <Gold.Chemscore.DG>
-23.0520

> <Gold.Chemscore.ZeroCoef>
-5.4800

> <Gold.Chemscore.Hbond>
4.6530

> <Gold.Chemscore.Metal>
0.0000

> <Gold.Chemscore.Lipo>
54.6561

> <Gold.Chemscore.Internal_Hbond>
0.0000

> <Gold.Chemscore.DEClash>
1.4587

> <Gold.Chemscore.DEInternal>
3.1469

> <Gold.Chemscore.Rot>
1.7046

> <Gold.Chemscore.Internal.Correction>
   9.000000E+99

> <Gold.Chemscore.Hbonds>
donor molecule, donor type, donor heavy atom, donor atom, acceptor molecule, acceptor atom, score
      L1  H     5    38       P1  7948  0.94
      L1  H     8    31       P1  7957  0.87
      L1  H    11    32       P1  7957  0.90
      P1  H  7989  7998       L1    13  0.24
      P1  H  7997  8009       L1    14  0.81

> <Gold.Chemscore.Hbond.Weighted>
-15.5411

> <Gold.Chemscore.Metal.Weighted>
-0.0000

> <Gold.Chemscore.Lipo.Weighted>
-6.3948

> <Gold.Chemscore.Internal_Hbond.Weighted>
0.0000

> <Gold.Chemscore.DEClash.Weighted>
1.4587

> <Gold.Chemscore.DEInternal.Weighted>
3.1469

> <Gold.Chemscore.Rot.Weighted>
4.3638

> <Gold.Chemscore.Internal.Correction.Weighted>
   9.000000E+99

> <Gold.Protein.RotatedTorsions>
[ 6907 6896 6895 6894 ] final   12.48 input  -60.11 | X-H torsion
[ 7974 7965 7964 7962 ] final  -65.88 input  175.53 | X-H torsion
[ 8008 7997 7996 7995 ] final -165.94 input   59.86 | X-H torsion
[ 10167 10162 10161 10158 ] final -109.52 input  -65.29 | X-H torsion
[ 10718 10713 10712 10709 ] final -147.03 input   66.30 | X-H torsion
[ 10763 10752 10751 10750 ] final  -41.70 input  -60.55 | X-H torsion
[ 11005 11000 10999 10996 ] final   80.53 input  -57.11 | X-H torsion

> <Gold.Protein.ActiveResidues>
 VAL166  LYS551  ARG553  GLY616  TRP617  ASP618  TYR619  PRO620  LYS621  CYS622 
 ASP623  PHE694  ASN695  SER759  ASP760  ASP761  ALA762  ILE779  LEU786  VAL792 
 PHE793  MET794  SER795  GLU796  ALA797  LYS798  CYS799  TRP800  GLU811  SER814 

> <Gold.Protein.RotatedAtoms>
  151.7710  135.0786  160.0359 H   0  0  0  0  0  0  0  0  0  0  0  0  # atno 6907 bound_to 6896
  152.3288  133.5931  159.5804 H   0  0  0  0  0  0  0  0  0  0  0  0  # atno 6908 bound_to 6896
  150.7411  133.9815  159.3619 H   0  0  0  0  0  0  0  0  0  0  0  0  # atno 6909 bound_to 6896
  145.7487  140.8919  143.0491 H   0  0  0  0  0  0  0  0  0  0  0  0  # atno 7974 bound_to 7965
  155.8568  140.0972  157.1639 H   0  0  0  0  0  0  0  0  0  0  0  0  # atno 8008 bound_to 7997
  154.3988  140.1372  156.3974 H   0  0  0  0  0  0  0  0  0  0  0  0  # atno 8009 bound_to 7997
  155.7900  140.3456  155.5347 H   0  0  0  0  0  0  0  0  0  0  0  0  # atno 8010 bound_to 7997
  140.1544  143.4172  152.1471 H   0  0  0  0  0  0  0  0  0  0  0  0  # atno 10167 bound_to 10162
  156.4024  130.7940  151.2152 H   0  0  0  0  0  0  0  0  0  0  0  0  # atno 10718 bound_to 10713
  153.9668  135.6733  153.4746 H   0  0  0  0  0  0  0  0  0  0  0  0  # atno 10763 bound_to 10752
  153.0812  135.4922  154.8502 H   0  0  0  0  0  0  0  0  0  0  0  0  # atno 10764 bound_to 10752
  154.7241  135.3123  154.8959 H   0  0  0  0  0  0  0  0  0  0  0  0  # atno 10765 bound_to 10752
  139.9131  134.7927  156.1921 H   0  0  0  0  0  0  0  0  0  0  0  0  # atno 11005 bound_to 11000
  144.6854  139.9561  143.7479 LP  0  0  0  0  0  0  0  0  0  0  0  0  # atno 17320 bound_to 7965
  146.0377  139.3393  143.0716 LP  0  0  0  0  0  0  0  0  0  0  0  0  # atno 17321 bound_to 7965
  139.5410  144.7256  151.4733 LP  0  0  0  0  0  0  0  0  0  0  0  0  # atno 17342 bound_to 10162
  140.6682  143.8351  150.6967 LP  0  0  0  0  0  0  0  0  0  0  0  0  # atno 17343 bound_to 10162
  157.7504  131.0282  150.4041 LP  0  0  0  0  0  0  0  0  0  0  0  0  # atno 17370 bound_to 10713
  156.4323  130.3974  149.6752 LP  0  0  0  0  0  0  0  0  0  0  0  0  # atno 17371 bound_to 10713
  141.0577  133.6857  156.1892 LP  0  0  0  0  0  0  0  0  0  0  0  0  # atno 17394 bound_to 11000
  140.6710  134.4867  157.5587 LP  0  0  0  0  0  0  0  0  0  0  0  0  # atno 17395 bound_to 11000

$$$$
