AV-unprocessed.smi:2730|AV-procd|sdf|10529|dock4
  -GOLD-   2272014573D 1   1.00000     0.00000
 Structure written by MMmdl.
 43 44  0  0  0  0  0  0  0  0  1 V2000
  149.1130  132.2733  154.3000 C   0  0  0  0  0  0  0  0  0  0  0  0
  149.3912  133.7259  153.8865 C   0  0  0  0  0  0  0  0  0  0  0  0
  148.9875  134.7634  154.9504 C   0  0  1  0  0  0  0  0  0  0  0  0
  149.6738  134.4721  156.2958 C   0  0  0  0  0  0  0  0  0  0  0  0
  151.0596  134.9623  156.3736 C   0  0  0  0  0  0  0  0  0  0  0  0
  152.1486  135.3478  156.4358 N   0  0  0  0  0  0  0  0  0  0  0  0
  149.3295  136.1092  154.4894 N   0  0  0  0  0  0  0  0  0  0  0  0
  149.3261  137.2187  155.2437 C   0  0  0  0  0  0  0  0  0  0  0  0
  149.0431  137.2252  156.4419 O   0  0  0  0  0  0  0  0  0  0  0  0
  149.6674  138.2993  154.5202 N   0  0  0  0  0  0  0  0  0  0  0  0
  149.7644  139.6482  154.9513 C   0  0  0  0  0  0  0  0  0  0  0  0
  149.3459  140.7241  154.2165 N   0  0  0  0  0  0  0  0  0  0  0  0
  149.6655  141.6941  155.0624 C   0  0  0  0  0  0  0  0  0  0  0  0
  150.2168  141.2631  156.2019 N   0  0  0  0  0  0  0  0  0  0  0  0
  150.7106  141.9965  157.3573 C   0  0  0  0  0  0  0  0  0  0  0  0
  151.5189  143.2379  156.9285 C   0  0  0  0  0  0  0  0  0  0  0  0
  152.0532  144.0062  158.1484 C   0  0  0  0  0  0  0  0  0  0  0  0
  152.8842  143.0927  159.0638 C   0  0  0  0  0  0  0  0  0  0  0  0
  152.0791  141.8563  159.4953 C   0  0  0  0  0  0  0  0  0  0  0  0
  151.5466  141.0843  158.2768 C   0  0  0  0  0  0  0  0  0  0  0  0
  150.2961  139.9114  156.1435 N   0  0  0  0  0  0  0  0  0  0  0  0
  149.4642  131.5801  153.5356 H   0  0  0  0  0  0  0  0  0  0  0  0
  148.0473  132.0927  154.4423 H   0  0  0  0  0  0  0  0  0  0  0  0
  149.6228  132.0255  155.2314 H   0  0  0  0  0  0  0  0  0  0  0  0
  150.4564  133.8282  153.6767 H   0  0  0  0  0  0  0  0  0  0  0  0
  148.8771  133.9396  152.9485 H   0  0  0  0  0  0  0  0  0  0  0  0
  147.9089  134.6801  155.0951 H   0  0  0  0  0  0  0  0  0  0  0  0
  149.1238  134.9486  157.1077 H   0  0  0  0  0  0  0  0  0  0  0  0
  149.6807  133.4014  156.5014 H   0  0  0  0  0  0  0  0  0  0  0  0
  149.5751  136.2027  153.5146 H   0  0  0  0  0  0  0  0  0  0  0  0
  149.8759  138.1417  153.5456 H   0  0  0  0  0  0  0  0  0  0  0  0
  149.4957  142.7388  154.8468 H   0  0  0  0  0  0  0  0  0  0  0  0
  149.8442  142.3422  157.9247 H   0  0  0  0  0  0  0  0  0  0  0  0
  152.3577  142.9393  156.2982 H   0  0  0  0  0  0  0  0  0  0  0  0
  150.8963  143.8976  156.3229 H   0  0  0  0  0  0  0  0  0  0  0  0
  152.6583  144.8515  157.8195 H   0  0  0  0  0  0  0  0  0  0  0  0
  151.2177  144.4244  158.7113 H   0  0  0  0  0  0  0  0  0  0  0  0
  153.7883  142.7764  158.5418 H   0  0  0  0  0  0  0  0  0  0  0  0
  153.2135  143.6476  159.9428 H   0  0  0  0  0  0  0  0  0  0  0  0
  152.7014  141.2027  160.1070 H   0  0  0  0  0  0  0  0  0  0  0  0
  151.2442  142.1656  160.1254 H   0  0  0  0  0  0  0  0  0  0  0  0
  150.9447  140.2387  158.6120 H   0  0  0  0  0  0  0  0  0  0  0  0
  152.3866  140.6650  157.7214 H   0  0  0  0  0  0  0  0  0  0  0  0
  1  2  1  0  0  0  0
  1 22  1  0  0  0  0
  1 23  1  0  0  0  0
  1 24  1  0  0  0  0
  2  3  1  0  0  0  0
  2 25  1  0  0  0  0
  2 26  1  0  0  0  0
  3  4  1  0  0  0  0
  3  7  1  0  0  0  0
  3 27  1  0  0  0  0
  4  5  1  0  0  0  0
  4 28  1  0  0  0  0
  4 29  1  0  0  0  0
  5  6  3  0  0  0  0
  7  8  1  0  0  0  0
  7 30  1  0  0  0  0
  8  9  2  0  0  0  0
  8 10  1  0  0  0  0
 10 11  1  0  0  0  0
 10 31  1  0  0  0  0
 11 21  2  0  0  0  0
 11 12  1  0  0  0  0
 12 13  2  0  0  0  0
 13 14  1  0  0  0  0
 13 32  1  0  0  0  0
 14 15  1  0  0  0  0
 14 21  1  0  0  0  0
 15 20  1  0  0  0  0
 15 16  1  0  0  0  0
 15 33  1  0  0  0  0
 16 17  1  0  0  0  0
 16 34  1  0  0  0  0
 16 35  1  0  0  0  0
 17 18  1  0  0  0  0
 17 36  1  0  0  0  0
 17 37  1  0  0  0  0
 18 19  1  0  0  0  0
 18 38  1  0  0  0  0
 18 39  1  0  0  0  0
 19 20  1  0  0  0  0
 19 40  1  0  0  0  0
 19 41  1  0  0  0  0
 20 42  1  0  0  0  0
 20 43  1  0  0  0  0
M  END
> <s_m_source_file>
AV-unprocessed.smi

> <i_m_source_file_index>
2730

> <i_lp_mmshare_version>
43012

> <i_f3d_flags>
0

> <s_epik_input>
TiNDW0NIMl1bQ0BASF0oW0NIMl1bQ0gzXSlbTkhdQyg9TylbTkhdYzFuW2NIXW4objEpW0NIXTJbQ0gyXVtDSDJdW0NIMl1bQ0gyXVtDSDJdMg==

> <s_epik_cmdline>
J2VwaWtfcHl0aG9uJywgJy1waCcsICc3LjAnLCAnLXRuJywgJzgnLCAnLW1hJywgJzIwMCcsICctbWV0YWxfYmluZGluZycsICctaW1hZScsICc8aW5maWxlLm1hZT4nLCAnLW9tYWUnLCAnPG91dGZpbGUubWFlPic=

> <r_lp_tautomer_probability>
1

> <r_epik_Ionization_Penalty>
7.18854e-05

> <r_epik_Ionization_Penalty_Charging>
0

> <r_epik_Ionization_Penalty_Neutral>
7.18854e-05

> <r_epik_State_Penalty>
-0

> <r_epik_Charging_Adjusted_Penalty>
0

> <i_epik_Tot_Q>
0

> <i_epik_Tot_abs_Q>
0

> <r_epik_Metal_State_Penalty>
-0

> <b_epik_Metal_Only>
0

> <s_lp_Force_Field>
OPLS_2005

> <r_lp_Energy>
17.9717

> <b_lp_Chiralities_Consistent>
1

> <s_lp_Variant>
AV-unprocessed.smi:2730-2

> <Gold.Version>
5.8.1

> <Gold.Id.Protein>
6NUR|6NUR_protein|mol2

> <Gold.PLP.Fitness>
42.7522

> <Gold.PLP.PLP>
-35.9086

> <Gold.PLP.part.hbond>
-2.6615

> <Gold.PLP.part.metal>
0.0000

> <Gold.PLP.part.buried>
-3.0787

> <Gold.PLP.part.nonpolar>
-30.8043

> <Gold.PLP.part.repulsive>
0.4184

> <Gold.PLP.ligand.clash>
0.0000

> <Gold.PLP.ligand.torsion>
1.0165

> <Gold.PLP.Chemscore.Hbond>
1.9309

> <Gold.PLP.Chemscore.CHOScore>
1.0000

> <Gold.PLP.Chemscore.Metal>
0.0000

> <Gold.Chemscore.Hbonds>
donor molecule, donor type, donor heavy atom, donor atom, acceptor molecule, acceptor atom, score
      L1  H     7    30       P1  7948  0.93
      P1  H  7989  7998       L1    12  0.01
      P1  H 10752 10763       L1     6  1.00
      L1  C    13    32       P1  8028  1.00

> <Gold.PLP.Chemscore.Internal.Correction>
0.0838

> <Gold.Rescore>
     Score         DG    S(hbond)    S(metal)    S(lipo)     H(rot)  DE(clash)    DE(int)     intcor
     11.94     -16.13       1.91        0.00      76.35       1.82       0.99       3.20       ----

> <Gold.Chemscore.Fitness>
11.9405

> <Gold.Chemscore.DG>
-16.1309

> <Gold.Chemscore.ZeroCoef>
-5.4800

> <Gold.Chemscore.Hbond>
1.9129

> <Gold.Chemscore.Metal>
0.0000

> <Gold.Chemscore.Lipo>
76.3545

> <Gold.Chemscore.Internal_Hbond>
0.0000

> <Gold.Chemscore.DEClash>
0.9916

> <Gold.Chemscore.DEInternal>
3.1988

> <Gold.Chemscore.Rot>
1.8249

> <Gold.Chemscore.Internal.Correction>
   9.000000E+99

> <Gold.Chemscore.Hbonds>
donor molecule, donor type, donor heavy atom, donor atom, acceptor molecule, acceptor atom, score
      L1  H     7    30       P1  7948  0.41
      P1  H 10752 10763       L1     6  0.99

> <Gold.Chemscore.Hbond.Weighted>
-6.3892

> <Gold.Chemscore.Metal.Weighted>
-0.0000

> <Gold.Chemscore.Lipo.Weighted>
-8.9335

> <Gold.Chemscore.Internal_Hbond.Weighted>
0.0000

> <Gold.Chemscore.DEClash.Weighted>
0.9916

> <Gold.Chemscore.DEInternal.Weighted>
3.1988

> <Gold.Chemscore.Rot.Weighted>
4.6718

> <Gold.Chemscore.Internal.Correction.Weighted>
   9.000000E+99

> <Gold.Protein.RotatedTorsions>
[ 6907 6896 6895 6894 ] final -129.40 input  -60.11 | X-H torsion
[ 7974 7965 7964 7962 ] final   23.40 input  175.53 | X-H torsion
[ 8008 7997 7996 7995 ] final  157.19 input   59.86 | X-H torsion
[ 10167 10162 10161 10158 ] final  -87.25 input  -65.29 | X-H torsion
[ 10718 10713 10712 10709 ] final   64.59 input   66.30 | X-H torsion
[ 10763 10752 10751 10750 ] final  106.22 input  -60.55 | X-H torsion
[ 11005 11000 10999 10996 ] final  -61.35 input  -57.11 | X-H torsion

> <Gold.Protein.ActiveResidues>
 VAL166  LYS551  ARG553  GLY616  TRP617  ASP618  TYR619  PRO620  LYS621  CYS622 
 ASP623  PHE694  ASN695  SER759  ASP760  ASP761  ALA762  ILE779  LEU786  VAL792 
 PHE793  MET794  SER795  GLU796  ALA797  LYS798  CYS799  TRP800  GLU811  SER814 

> <Gold.Protein.RotatedAtoms>
  150.9283  133.6798  159.2816 H   0  0  0  0  0  0  0  0  0  0  0  0  # atno 6907 bound_to 6896
  151.4228  135.0999  159.9629 H   0  0  0  0  0  0  0  0  0  0  0  0  # atno 6908 bound_to 6896
  152.5013  133.8730  159.7363 H   0  0  0  0  0  0  0  0  0  0  0  0  # atno 6909 bound_to 6896
  146.1986  139.7750  142.8778 H   0  0  0  0  0  0  0  0  0  0  0  0  # atno 7974 bound_to 7965
  156.2378  140.1892  156.7070 H   0  0  0  0  0  0  0  0  0  0  0  0  # atno 8008 bound_to 7997
  154.6140  140.0618  156.9557 H   0  0  0  0  0  0  0  0  0  0  0  0  # atno 8009 bound_to 7997
  155.1969  140.3289  155.4352 H   0  0  0  0  0  0  0  0  0  0  0  0  # atno 8010 bound_to 7997
  140.3862  143.2725  151.9321 H   0  0  0  0  0  0  0  0  0  0  0  0  # atno 10167 bound_to 10162
  157.6050  130.9168  149.9866 H   0  0  0  0  0  0  0  0  0  0  0  0  # atno 10718 bound_to 10713
  153.3900  135.3884  155.1917 H   0  0  0  0  0  0  0  0  0  0  0  0  # atno 10763 bound_to 10752
  154.8718  135.3746  154.4749 H   0  0  0  0  0  0  0  0  0  0  0  0  # atno 10764 bound_to 10752
  153.5235  135.7086  153.5781 H   0  0  0  0  0  0  0  0  0  0  0  0  # atno 10765 bound_to 10752
  141.1321  133.6629  156.5362 H   0  0  0  0  0  0  0  0  0  0  0  0  # atno 11005 bound_to 11000
  145.3560  141.0317  143.3311 LP  0  0  0  0  0  0  0  0  0  0  0  0  # atno 17320 bound_to 7965
  144.8634  139.5144  143.6802 LP  0  0  0  0  0  0  0  0  0  0  0  0  # atno 17321 bound_to 7965
  139.4792  144.5771  151.7994 LP  0  0  0  0  0  0  0  0  0  0  0  0  # atno 17342 bound_to 10162
  140.4886  144.1343  150.5946 LP  0  0  0  0  0  0  0  0  0  0  0  0  # atno 17343 bound_to 10162
  156.1133  130.3649  150.0011 LP  0  0  0  0  0  0  0  0  0  0  0  0  # atno 17370 bound_to 10713
  156.8105  130.9323  151.3644 LP  0  0  0  0  0  0  0  0  0  0  0  0  # atno 17371 bound_to 10713
  140.4176  134.7216  157.4872 LP  0  0  0  0  0  0  0  0  0  0  0  0  # atno 17394 bound_to 11000
  140.0383  134.6305  155.9015 LP  0  0  0  0  0  0  0  0  0  0  0  0  # atno 17395 bound_to 11000

$$$$
