AV-unprocessed.smi:1748|AV-procd|sdf|7043|dock1
  -GOLD-   22720 8263D 1   1.00000     0.00000
 Structure written by MMmdl.
 39 40  0  0  0  0  0  0  0  0  3 V2000
  146.9321  136.4183  154.4919 C   0  0  0  0  0  0  0  0  0  0  0  0
  148.4081  136.4566  154.4106 N   0  3  2  0  0  0  0  0  0  0  0  0
  149.0395  135.2784  155.0559 C   0  0  0  0  0  0  0  0  0  0  0  0
  150.5624  135.2834  154.8433 C   0  0  0  0  0  0  0  0  0  0  0  0
  151.1863  136.5920  155.3482 C   0  0  0  0  0  0  0  0  0  0  0  0
  150.4956  137.7972  154.6893 C   0  0  2  0  0  0  0  0  0  0  0  0
  151.0485  139.0400  155.2194 N   0  0  0  0  0  0  0  0  0  0  0  0
  151.2312  139.3103  156.5202 C   0  0  0  0  0  0  0  0  0  0  0  0
  150.9497  138.5152  157.4167 O   0  0  0  0  0  0  0  0  0  0  0  0
  151.7727  140.5303  156.6868 N   0  0  0  0  0  0  0  0  0  0  0  0
  152.0935  141.2049  157.8770 C   0  0  0  0  0  0  0  0  0  0  0  0
  151.5663  142.4022  158.2558 C   0  0  0  0  0  0  0  0  0  0  0  0
  151.9521  143.0651  159.4958 C   0  0  0  0  0  0  0  0  0  0  0  0
  151.3936  144.3958  159.9659 C   0  0  0  0  0  0  0  0  0  0  0  0
  151.8375  144.6743  161.1911 F   0  0  0  0  0  0  0  0  0  0  0  0
  151.7887  145.3748  159.1525 F   0  0  0  0  0  0  0  0  0  0  0  0
  150.0610  144.3832  159.9933 F   0  0  0  0  0  0  0  0  0  0  0  0
  152.8988  142.3502  160.2017 C   0  0  0  0  0  0  0  0  0  0  0  0
  153.4766  141.1682  159.8942 N   0  5  0  0  0  0  0  0  0  0  0  0
  153.1056  140.5540  158.7351 C   0  0  0  0  0  0  0  0  0  0  0  0
  153.5926  139.4759  158.3923 O   0  0  0  0  0  0  0  0  0  0  0  0
  148.9697  137.7345  154.9149 C   0  0  0  0  0  0  0  0  0  0  0  0
  146.5960  136.4674  155.5285 H   0  0  0  0  0  0  0  0  0  0  0  0
  146.5456  135.4994  154.0499 H   0  0  0  0  0  0  0  0  0  0  0  0
  146.4945  137.2568  153.9494 H   0  0  0  0  0  0  0  0  0  0  0  0
  148.8087  135.2783  156.1225 H   0  0  0  0  0  0  0  0  0  0  0  0
  148.6175  134.3627  154.6398 H   0  0  0  0  0  0  0  0  0  0  0  0
  151.0131  134.4336  155.3571 H   0  0  0  0  0  0  0  0  0  0  0  0
  150.7843  135.1566  153.7828 H   0  0  0  0  0  0  0  0  0  0  0  0
  151.0857  136.6495  156.4331 H   0  0  0  0  0  0  0  0  0  0  0  0
  152.2554  136.6019  155.1321 H   0  0  0  0  0  0  0  0  0  0  0  0
  150.6960  137.7559  153.6166 H   0  0  0  0  0  0  0  0  0  0  0  0
  151.3083  139.7484  154.5484 H   0  0  0  0  0  0  0  0  0  0  0  0
  152.0240  141.0319  155.8473 H   0  0  0  0  0  0  0  0  0  0  0  0
  150.8536  142.9119  157.6289 H   0  0  0  0  0  0  0  0  0  0  0  0
  153.2435  142.7987  161.1581 H   0  0  0  0  0  0  0  0  0  0  0  0
  148.4842  138.5643  154.3992 H   0  0  0  0  0  0  0  0  0  0  0  0
  148.7364  137.8415  155.9758 H   0  0  0  0  0  0  0  0  0  0  0  0
  148.6419  136.4091  153.4289 H   0  0  0  0  0  0  0  0  0  0  0  0
  1  2  1  0  0  0  0
  1 23  1  0  0  0  0
  1 24  1  0  0  0  0
  1 25  1  0  0  0  0
  2 22  1  0  0  0  0
  2  3  1  0  0  0  0
  2 39  1  0  0  0  0
  3  4  1  0  0  0  0
  3 26  1  0  0  0  0
  3 27  1  0  0  0  0
  4  5  1  0  0  0  0
  4 28  1  0  0  0  0
  4 29  1  0  0  0  0
  5  6  1  0  0  0  0
  5 30  1  0  0  0  0
  5 31  1  0  0  0  0
  6  7  1  0  0  0  0
  6 22  1  0  0  0  0
  6 32  1  0  0  0  0
  7  8  1  0  0  0  0
  7 33  1  0  0  0  0
  8  9  2  0  0  0  0
  8 10  1  0  0  0  0
 10 11  1  0  0  0  0
 10 34  1  0  0  0  0
 11 20  1  0  0  0  0
 11 12  2  0  0  0  0
 12 13  1  0  0  0  0
 12 35  1  0  0  0  0
 13 14  1  0  0  0  0
 13 18  2  0  0  0  0
 14 15  1  0  0  0  0
 14 16  1  0  0  0  0
 14 17  1  0  0  0  0
 18 19  1  0  0  0  0
 18 36  1  0  0  0  0
 19 20  1  0  0  0  0
 20 21  2  0  0  0  0
 22 37  1  0  0  0  0
 22 38  1  0  0  0  0
M  CHG  1   2   1
M  CHG  1  19  -1
M  END
> <s_m_source_file>
AV-unprocessed.smi

> <i_m_source_file_index>
1748

> <i_lp_mmshare_version>
43012

> <i_f3d_flags>
0

> <s_epik_input>
W0NIM11OMVtDSDJdW0NIMl1bQ0gyXVtDQEhdKFtDSDJdMSlbTkhdQyg9TylbTkhdYzJbY0hdYyhDKEYpKEYpRilbY0hdW25IXWMyPU8=

> <s_epik_cmdline>
J2VwaWtfcHl0aG9uJywgJy1waCcsICc3LjAnLCAnLXRuJywgJzgnLCAnLW1hJywgJzIwMCcsICctbWV0YWxfYmluZGluZycsICctaW1hZScsICc8aW5maWxlLm1hZT4nLCAnLW9tYWUnLCAnPG91dGZpbGUubWFlPic=

> <r_lp_tautomer_probability>
1

> <r_epik_Ionization_Penalty>
3.00907

> <r_epik_Ionization_Penalty_Charging>
0.148702

> <r_epik_Ionization_Penalty_Neutral>
2.86036

> <r_epik_State_Penalty>
2.85557

> <r_epik_Charging_Adjusted_Penalty>
3.00428

> <i_epik_Tot_Q>
0

> <i_epik_Tot_abs_Q>
2

> <r_epik_Metal_State_Penalty>
0.443779

> <b_epik_Metal_Only>
1

> <s_lp_Force_Field>
OPLS_2005

> <r_lp_Energy>
26.5131

> <b_lp_Chiralities_Consistent>
1

> <s_lp_Variant>
AV-unprocessed.smi:1748-8

> <Gold.Version>
5.8.1

> <Gold.Id.Protein>
6NUR|6NUR_protein|mol2

> <Gold.PLP.Fitness>
43.4301

> <Gold.PLP.PLP>
-36.9785

> <Gold.PLP.part.hbond>
-2.0000

> <Gold.PLP.part.metal>
0.0000

> <Gold.PLP.part.buried>
-4.6273

> <Gold.PLP.part.nonpolar>
-31.3834

> <Gold.PLP.part.repulsive>
0.2297

> <Gold.PLP.ligand.clash>
0.3692

> <Gold.PLP.ligand.torsion>
0.8695

> <Gold.PLP.Chemscore.Hbond>
2.8500

> <Gold.PLP.Chemscore.CHOScore>
0.0000

> <Gold.PLP.Chemscore.Metal>
0.0000

> <Gold.Chemscore.Hbonds>
donor molecule, donor type, donor heavy atom, donor atom, acceptor molecule, acceptor atom, score
      L1  H     2    39       P1  7948  2.00
      P1  H  7997  8009       L1    21  1.00

> <Gold.PLP.Chemscore.Internal.Correction>
0.0099

> <Gold.Rescore>
     Score         DG    S(hbond)    S(metal)    S(lipo)     H(rot)  DE(clash)    DE(int)     intcor
     14.90     -17.68       1.90        0.00      71.88       1.00       0.54       2.24       ----

> <Gold.Chemscore.Fitness>
14.8986

> <Gold.Chemscore.DG>
-17.6756

> <Gold.Chemscore.ZeroCoef>
-5.4800

> <Gold.Chemscore.Hbond>
1.8998

> <Gold.Chemscore.Metal>
0.0000

> <Gold.Chemscore.Lipo>
71.8811

> <Gold.Chemscore.Internal_Hbond>
0.0000

> <Gold.Chemscore.DEClash>
0.5396

> <Gold.Chemscore.DEInternal>
2.2373

> <Gold.Chemscore.Rot>
1.0000

> <Gold.Chemscore.Internal.Correction>
   9.000000E+99

> <Gold.Chemscore.Hbonds>
donor molecule, donor type, donor heavy atom, donor atom, acceptor molecule, acceptor atom, score
      L1  H     2    39       P1  7948  0.99
      P1  H  7997  8009       L1    21  0.26

> <Gold.Chemscore.Hbond.Weighted>
-6.3455

> <Gold.Chemscore.Metal.Weighted>
-0.0000

> <Gold.Chemscore.Lipo.Weighted>
-8.4101

> <Gold.Chemscore.Internal_Hbond.Weighted>
0.0000

> <Gold.Chemscore.DEClash.Weighted>
0.5396

> <Gold.Chemscore.DEInternal.Weighted>
2.2373

> <Gold.Chemscore.Rot.Weighted>
2.5600

> <Gold.Chemscore.Internal.Correction.Weighted>
   9.000000E+99

> <Gold.Protein.RotatedTorsions>
[ 6907 6896 6895 6894 ] final  -80.43 input  -60.11 | X-H torsion
[ 7974 7965 7964 7962 ] final -177.02 input  175.53 | X-H torsion
[ 8008 7997 7996 7995 ] final  143.29 input   59.86 | X-H torsion
[ 10167 10162 10161 10158 ] final  -89.28 input  -65.29 | X-H torsion
[ 10718 10713 10712 10709 ] final  102.97 input   66.30 | X-H torsion
[ 10763 10752 10751 10750 ] final  -46.87 input  -60.55 | X-H torsion
[ 11005 11000 10999 10996 ] final   44.24 input  -57.11 | X-H torsion

> <Gold.Protein.ActiveResidues>
 VAL166  LYS551  ARG553  GLY616  TRP617  ASP618  TYR619  PRO620  LYS621  CYS622 
 ASP623  PHE694  ASN695  SER759  ASP760  ASP761  ALA762  ILE779  LEU786  VAL792 
 PHE793  MET794  SER795  GLU796  ALA797  LYS798  CYS799  TRP800  GLU811  SER814 

> <Gold.Protein.RotatedAtoms>
  150.6929  134.3970  159.5101 H   0  0  0  0  0  0  0  0  0  0  0  0  # atno 6907 bound_to 6896
  152.1750  134.8800  160.0540 H   0  0  0  0  0  0  0  0  0  0  0  0  # atno 6908 bound_to 6896
  151.9812  133.3723  159.4145 H   0  0  0  0  0  0  0  0  0  0  0  0  # atno 6909 bound_to 6896
  144.7127  140.1082  143.6412 H   0  0  0  0  0  0  0  0  0  0  0  0  # atno 7974 bound_to 7965
  156.2933  140.2266  156.4866 H   0  0  0  0  0  0  0  0  0  0  0  0  # atno 8008 bound_to 7997
  154.7806  140.0460  157.1146 H   0  0  0  0  0  0  0  0  0  0  0  0  # atno 8009 bound_to 7997
  154.9763  140.3073  155.4969 H   0  0  0  0  0  0  0  0  0  0  0  0  # atno 8010 bound_to 7997
  140.3664  143.2816  151.9553 H   0  0  0  0  0  0  0  0  0  0  0  0  # atno 10167 bound_to 10162
  157.6786  131.0767  150.5484 H   0  0  0  0  0  0  0  0  0  0  0  0  # atno 10718 bound_to 10713
  154.0521  135.6629  153.4801 H   0  0  0  0  0  0  0  0  0  0  0  0  # atno 10763 bound_to 10752
  153.0459  135.5115  154.7740 H   0  0  0  0  0  0  0  0  0  0  0  0  # atno 10764 bound_to 10752
  154.6750  135.3035  154.9657 H   0  0  0  0  0  0  0  0  0  0  0  0  # atno 10765 bound_to 10752
  140.1570  134.4390  155.8343 H   0  0  0  0  0  0  0  0  0  0  0  0  # atno 11005 bound_to 11000
  145.9478  139.2712  143.1230 LP  0  0  0  0  0  0  0  0  0  0  0  0  # atno 17320 bound_to 7965
  145.9356  140.9017  143.0334 LP  0  0  0  0  0  0  0  0  0  0  0  0  # atno 17321 bound_to 7965
  139.4808  144.5947  151.7711 LP  0  0  0  0  0  0  0  0  0  0  0  0  # atno 17342 bound_to 10162
  140.5077  144.1073  150.5987 LP  0  0  0  0  0  0  0  0  0  0  0  0  # atno 17343 bound_to 10162
  156.5790  130.4299  149.5986 LP  0  0  0  0  0  0  0  0  0  0  0  0  # atno 17370 bound_to 10713
  156.2677  130.6999  151.1787 LP  0  0  0  0  0  0  0  0  0  0  0  0  # atno 17371 bound_to 10713
  141.2205  133.6896  156.7525 LP  0  0  0  0  0  0  0  0  0  0  0  0  # atno 17394 bound_to 11000
  140.2536  134.8521  157.3691 LP  0  0  0  0  0  0  0  0  0  0  0  0  # atno 17395 bound_to 11000

$$$$
