AV-unprocessed.smi:1570|AV-procd|sdf|6318|dock5
  -GOLD-   22720 6523D 1   1.00000     0.00000
 Structure written by MMmdl.
 52 54  0  0  0  0  0  0  0  0  2 V2000
  153.6948  141.4996  162.0986 C   0  0  0  0  0  0  0  0  0  0  0  0
  154.1635  140.9789  160.7338 C   0  0  0  0  0  0  0  0  0  0  0  0
  153.1022  141.0842  159.7358 N   0  0  0  0  0  0  0  0  0  0  0  0
  152.5801  140.0719  159.0044 C   0  0  0  0  0  0  0  0  0  0  0  0
  152.9081  138.8875  159.0702 O   0  0  0  0  0  0  0  0  0  0  0  0
  151.6608  140.5942  158.1581 N   0  0  0  0  0  0  0  0  0  0  0  0
  150.8884  139.8694  157.1495 C   0  0  0  0  0  0  0  0  0  0  0  0
  151.7565  139.4587  155.9425 C   0  0  2  0  0  0  0  0  0  0  0  0
  152.3943  140.6195  155.4500 O   0  0  0  0  0  0  0  0  0  0  0  0
  150.9413  138.8217  154.7963 C   0  0  0  0  0  0  0  0  0  0  0  0
  149.4848  139.0777  154.9207 N   0  3  1  0  0  0  0  0  0  0  0  0
  149.0914  140.4501  154.5161 C   0  0  0  0  0  0  0  0  0  0  0  0
  147.5780  140.6587  154.7105 C   0  0  1  0  0  0  0  0  0  0  0  0
  147.1204  142.0380  154.2233 C   0  0  0  0  0  0  0  0  0  0  0  0
  146.8728  139.6696  153.9684 O   0  0  0  0  0  0  0  0  0  0  0  0
  147.1684  138.3458  154.4004 C   0  0  1  0  0  0  0  0  0  0  0  0
  146.2907  137.3758  153.6016 C   0  0  0  0  0  0  0  0  0  0  0  0
  148.6707  138.0743  154.1956 C   0  0  0  0  0  0  0  0  0  0  0  0
  151.6019  141.9825  158.3468 C   0  0  0  0  0  0  0  0  0  0  0  0
  150.8268  142.9696  157.7132 C   0  0  0  0  0  0  0  0  0  0  0  0
  151.0155  144.3074  158.1322 C   0  0  0  0  0  0  0  0  0  0  0  0
  151.9528  144.6255  159.1491 C   0  0  0  0  0  0  0  0  0  0  0  0
  152.7203  143.6121  159.7699 C   0  0  0  0  0  0  0  0  0  0  0  0
  152.5106  142.2912  159.3370 C   0  0  0  0  0  0  0  0  0  0  0  0
  154.4914  141.4183  162.8383 H   0  0  0  0  0  0  0  0  0  0  0  0
  152.8408  140.9300  162.4664 H   0  0  0  0  0  0  0  0  0  0  0  0
  153.4000  142.5479  162.0417 H   0  0  0  0  0  0  0  0  0  0  0  0
  155.0400  141.5389  160.4044 H   0  0  0  0  0  0  0  0  0  0  0  0
  154.4838  139.9402  160.8195 H   0  0  0  0  0  0  0  0  0  0  0  0
  150.4118  138.9923  157.5912 H   0  0  0  0  0  0  0  0  0  0  0  0
  150.0741  140.5169  156.8213 H   0  0  0  0  0  0  0  0  0  0  0  0
  152.5352  138.7795  156.2875 H   0  0  0  0  0  0  0  0  0  0  0  0
  151.7457  141.2989  155.3428 H   0  0  0  0  0  0  0  0  0  0  0  0
  151.2713  139.1905  153.8253 H   0  0  0  0  0  0  0  0  0  0  0  0
  151.1324  137.7471  154.7906 H   0  0  0  0  0  0  0  0  0  0  0  0
  149.6366  141.1905  155.1005 H   0  0  0  0  0  0  0  0  0  0  0  0
  149.3592  140.6111  153.4703 H   0  0  0  0  0  0  0  0  0  0  0  0
  147.3252  140.5629  155.7679 H   0  0  0  0  0  0  0  0  0  0  0  0
  147.6234  142.8350  154.7716 H   0  0  0  0  0  0  0  0  0  0  0  0
  146.0469  142.1650  154.3643 H   0  0  0  0  0  0  0  0  0  0  0  0
  147.3352  142.1740  153.1629 H   0  0  0  0  0  0  0  0  0  0  0  0
  146.9181  138.2487  155.4586 H   0  0  0  0  0  0  0  0  0  0  0  0
  146.4729  136.3434  153.9005 H   0  0  0  0  0  0  0  0  0  0  0  0
  146.4870  137.4546  152.5319 H   0  0  0  0  0  0  0  0  0  0  0  0
  145.2330  137.5859  153.7617 H   0  0  0  0  0  0  0  0  0  0  0  0
  148.9202  138.1030  153.1335 H   0  0  0  0  0  0  0  0  0  0  0  0
  148.9148  137.0740  154.5561 H   0  0  0  0  0  0  0  0  0  0  0  0
  150.1167  142.7219  156.9381 H   0  0  0  0  0  0  0  0  0  0  0  0
  150.4399  145.0967  157.6714 H   0  0  0  0  0  0  0  0  0  0  0  0
  152.0827  145.6539  159.4524 H   0  0  0  0  0  0  0  0  0  0  0  0
  153.4368  143.8489  160.5424 H   0  0  0  0  0  0  0  0  0  0  0  0
  149.2579  138.9740  155.8998 H   0  0  0  0  0  0  0  0  0  0  0  0
  1  2  1  0  0  0  0
  1 25  1  0  0  0  0
  1 26  1  0  0  0  0
  1 27  1  0  0  0  0
  2  3  1  0  0  0  0
  2 28  1  0  0  0  0
  2 29  1  0  0  0  0
  3 24  1  0  0  0  0
  3  4  1  0  0  0  0
  4  5  2  0  0  0  0
  4  6  1  0  0  0  0
  6  7  1  0  0  0  0
  6 19  1  0  0  0  0
  7  8  1  0  0  0  0
  7 30  1  0  0  0  0
  7 31  1  0  0  0  0
  8  9  1  0  0  0  0
  8 10  1  0  0  0  0
  8 32  1  0  0  0  0
  9 33  1  0  0  0  0
 10 11  1  0  0  0  0
 10 34  1  0  0  0  0
 10 35  1  0  0  0  0
 11 18  1  0  0  0  0
 11 12  1  0  0  0  0
 11 52  1  0  0  0  0
 12 13  1  0  0  0  0
 12 36  1  0  0  0  0
 12 37  1  0  0  0  0
 13 14  1  0  0  0  0
 13 15  1  0  0  0  0
 13 38  1  0  0  0  0
 14 39  1  0  0  0  0
 14 40  1  0  0  0  0
 14 41  1  0  0  0  0
 15 16  1  0  0  0  0
 16 17  1  0  0  0  0
 16 18  1  0  0  0  0
 16 42  1  0  0  0  0
 17 43  1  0  0  0  0
 17 44  1  0  0  0  0
 17 45  1  0  0  0  0
 18 46  1  0  0  0  0
 18 47  1  0  0  0  0
 19 24  2  0  0  0  0
 19 20  1  0  0  0  0
 20 21  2  0  0  0  0
 20 48  1  0  0  0  0
 21 22  1  0  0  0  0
 21 49  1  0  0  0  0
 22 23  2  0  0  0  0
 22 50  1  0  0  0  0
 23 24  1  0  0  0  0
 23 51  1  0  0  0  0
M  CHG  1  11   1
M  END
> <s_m_source_file>
AV-unprocessed.smi

> <i_m_source_file_index>
1570

> <i_lp_mmshare_version>
43012

> <i_f3d_flags>
0

> <s_epik_input>
W2NIXTFbY0hdW2NIXVtjSF1jKGMxMiluKFtDSDJdW0NIM10pYyg9TyluMltDSDJdW0NASF0oW09IXSlbQ0gyXU4zW0NIMl1bQ0BASF0oW0NIM10pT1tDQEBIXShbQ0gzXSlbQ0gyXTM=

> <s_epik_cmdline>
J2VwaWtfcHl0aG9uJywgJy1waCcsICc3LjAnLCAnLXRuJywgJzgnLCAnLW1hJywgJzIwMCcsICctbWV0YWxfYmluZGluZycsICctaW1hZScsICc8aW5maWxlLm1hZT4nLCAnLW9tYWUnLCAnPG91dGZpbGUubWFlPic=

> <r_epik_Ionization_Penalty>
0.706332

> <r_epik_Ionization_Penalty_Charging>
0.706318

> <r_epik_Ionization_Penalty_Neutral>
1.42224e-05

> <r_epik_State_Penalty>
0.729493

> <r_epik_Charging_Adjusted_Penalty>
1.43581

> <i_epik_Tot_Q>
1

> <i_epik_Tot_abs_Q>
1

> <r_epik_Metal_State_Penalty>
0.729493

> <b_epik_Metal_Only>
0

> <s_lp_Force_Field>
OPLS_2005

> <r_lp_Energy>
50.1879

> <b_lp_Chiralities_Consistent>
1

> <s_lp_Variant>
AV-unprocessed.smi:1570-7

> <Gold.Version>
5.8.1

> <Gold.Id.Protein>
6NUR|6NUR_protein|mol2

> <Gold.PLP.Fitness>
50.1869

> <Gold.PLP.PLP>
-49.0708

> <Gold.PLP.part.hbond>
-2.0000

> <Gold.PLP.part.metal>
0.0000

> <Gold.PLP.part.buried>
-3.3100

> <Gold.PLP.part.nonpolar>
-44.2087

> <Gold.PLP.part.repulsive>
0.1921

> <Gold.PLP.ligand.clash>
0.0000

> <Gold.PLP.ligand.torsion>
1.0125

> <Gold.PLP.Chemscore.Hbond>
1.0000

> <Gold.PLP.Chemscore.CHOScore>
0.0000

> <Gold.PLP.Chemscore.Metal>
0.0000

> <Gold.Chemscore.Hbonds>
donor molecule, donor type, donor heavy atom, donor atom, acceptor molecule, acceptor atom, score
      P1  H  7997  8010       L1     9  0.55

> <Gold.PLP.Chemscore.Internal.Correction>
0.1412

> <Gold.Rescore>
     Score         DG    S(hbond)    S(metal)    S(lipo)     H(rot)  DE(clash)    DE(int)     intcor
     17.22     -18.35       0.90        0.00     130.94       2.13       0.12       1.00       ----

> <Gold.Chemscore.Fitness>
17.2237

> <Gold.Chemscore.DG>
-18.3456

> <Gold.Chemscore.ZeroCoef>
-5.4800

> <Gold.Chemscore.Hbond>
0.8980

> <Gold.Chemscore.Metal>
0.0000

> <Gold.Chemscore.Lipo>
130.9395

> <Gold.Chemscore.Internal_Hbond>
0.0000

> <Gold.Chemscore.DEClash>
0.1238

> <Gold.Chemscore.DEInternal>
0.9982

> <Gold.Chemscore.Rot>
2.1303

> <Gold.Chemscore.Internal.Correction>
   9.000000E+99

> <Gold.Chemscore.Hbonds>
donor molecule, donor type, donor heavy atom, donor atom, acceptor molecule, acceptor atom, score
      P1  H  7997  8010       L1     9  0.09

> <Gold.Chemscore.Hbond.Weighted>
-2.9993

> <Gold.Chemscore.Metal.Weighted>
-0.0000

> <Gold.Chemscore.Lipo.Weighted>
-15.3199

> <Gold.Chemscore.Internal_Hbond.Weighted>
0.0000

> <Gold.Chemscore.DEClash.Weighted>
0.1238

> <Gold.Chemscore.DEInternal.Weighted>
0.9982

> <Gold.Chemscore.Rot.Weighted>
5.4535

> <Gold.Chemscore.Internal.Correction.Weighted>
   9.000000E+99

> <Gold.Protein.RotatedTorsions>
[ 6907 6896 6895 6894 ] final -140.36 input  -60.11 | X-H torsion
[ 7974 7965 7964 7962 ] final   78.12 input  175.53 | X-H torsion
[ 8008 7997 7996 7995 ] final   83.61 input   59.86 | X-H torsion
[ 10167 10162 10161 10158 ] final    1.43 input  -65.29 | X-H torsion
[ 10718 10713 10712 10709 ] final  -92.95 input   66.30 | X-H torsion
[ 10763 10752 10751 10750 ] final -103.64 input  -60.55 | X-H torsion
[ 11005 11000 10999 10996 ] final  -45.66 input  -57.11 | X-H torsion

> <Gold.Protein.ActiveResidues>
 VAL166  LYS551  ARG553  GLY616  TRP617  ASP618  TYR619  PRO620  LYS621  CYS622 
 ASP623  PHE694  ASN695  SER759  ASP760  ASP761  ALA762  ILE779  LEU786  VAL792 
 PHE793  MET794  SER795  GLU796  ALA797  LYS798  CYS799  TRP800  GLU811  SER814 

> <Gold.Protein.RotatedAtoms>
  151.0597  133.5554  159.2635 H   0  0  0  0  0  0  0  0  0  0  0  0  # atno 6907 bound_to 6896
  151.2534  135.0629  159.9080 H   0  0  0  0  0  0  0  0  0  0  0  0  # atno 6908 bound_to 6896
  152.5395  134.0354  159.8097 H   0  0  0  0  0  0  0  0  0  0  0  0  # atno 6909 bound_to 6896
  145.6812  139.2524  143.1813 H   0  0  0  0  0  0  0  0  0  0  0  0  # atno 7974 bound_to 7965
  155.9262  140.3418  155.6212 H   0  0  0  0  0  0  0  0  0  0  0  0  # atno 8008 bound_to 7997
  155.7213  140.0784  157.2348 H   0  0  0  0  0  0  0  0  0  0  0  0  # atno 8009 bound_to 7997
  154.4077  140.1605  156.2392 H   0  0  0  0  0  0  0  0  0  0  0  0  # atno 8010 bound_to 7997
  140.6683  143.7120  150.7870 H   0  0  0  0  0  0  0  0  0  0  0  0  # atno 10167 bound_to 10162
  156.0008  130.5007  150.5703 H   0  0  0  0  0  0  0  0  0  0  0  0  # atno 10718 bound_to 10713
  154.7822  135.4816  153.9869 H   0  0  0  0  0  0  0  0  0  0  0  0  # atno 10763 bound_to 10752
  153.1509  135.6791  153.8890 H   0  0  0  0  0  0  0  0  0  0  0  0  # atno 10764 bound_to 10752
  153.8535  135.3164  155.3412 H   0  0  0  0  0  0  0  0  0  0  0  0  # atno 10765 bound_to 10752
  141.0530  133.6736  156.3045 H   0  0  0  0  0  0  0  0  0  0  0  0  # atno 11005 bound_to 11000
  146.0963  140.7597  142.9571 LP  0  0  0  0  0  0  0  0  0  0  0  0  # atno 17320 bound_to 7965
  144.7025  140.3716  143.7144 LP  0  0  0  0  0  0  0  0  0  0  0  0  # atno 17321 bound_to 7965
  140.0801  143.4977  152.2535 LP  0  0  0  0  0  0  0  0  0  0  0  0  # atno 17342 bound_to 10162
  139.5940  144.7560  151.3331 LP  0  0  0  0  0  0  0  0  0  0  0  0  # atno 17343 bound_to 10162
  157.3599  131.0748  151.1645 LP  0  0  0  0  0  0  0  0  0  0  0  0  # atno 17370 bound_to 10713
  157.2433  130.6579  149.5899 LP  0  0  0  0  0  0  0  0  0  0  0  0  # atno 17371 bound_to 10713
  140.6019  134.5546  157.5519 LP  0  0  0  0  0  0  0  0  0  0  0  0  # atno 17394 bound_to 11000
  139.9366  134.7864  156.0787 LP  0  0  0  0  0  0  0  0  0  0  0  0  # atno 17395 bound_to 11000

$$$$
