AV-unprocessed.smi:1492|AV-procd|sdf|6036|dock8
  -GOLD-   22720 6143D 1   1.00000     0.00000
 Structure written by MMmdl.
 52 53  0  0  0  0  0  0  0  0  1 V2000
  149.6629  138.3998  154.2425 C   0  0  0  0  0  0  0  0  0  0  0  0
  148.3772  139.0542  153.7016 C   0  0  0  0  0  0  0  0  0  0  0  0
  147.5473  139.9548  154.6797 C   0  0  1  0  0  0  0  0  0  0  0  0
  146.8999  141.0987  153.8583 C   0  0  0  0  0  0  0  0  0  0  0  0
  146.3848  139.1008  155.2705 C   0  0  0  0  0  0  0  0  0  0  0  0
  145.4372  138.7011  154.2382 N   0  0  0  0  0  0  0  0  0  0  0  0
  145.3345  137.4707  153.7206 C   0  0  0  0  0  0  0  0  0  0  0  0
  146.0959  136.5467  154.0045 O   0  0  0  0  0  0  0  0  0  0  0  0
  144.1791  137.2513  152.7449 C   0  0  0  0  0  0  0  0  0  0  0  0
  144.1890  135.8997  152.0318 C   0  0  0  0  0  0  0  0  0  0  0  0
  143.4032  134.8512  152.4160 C   0  0  0  0  0  0  0  0  0  0  0  0
  142.4473  134.9263  153.5938 C   0  0  0  0  0  0  0  0  0  0  0  0
  143.4326  133.6240  151.7392 N   0  0  0  0  0  0  0  0  0  0  0  0
  144.2230  133.4918  150.7255 C   0  0  0  0  0  0  0  0  0  0  0  0
  144.3512  132.2189  149.9159 C   0  0  0  0  0  0  0  0  0  0  0  0
  145.0445  134.5245  150.2766 N   0  0  0  0  0  0  0  0  0  0  0  0
  145.0805  135.7406  150.8661 C   0  0  0  0  0  0  0  0  0  0  0  0
  145.8112  136.6251  150.4221 O   0  0  0  0  0  0  0  0  0  0  0  0
  148.4341  140.4715  155.7677 N   0  0  0  0  0  0  0  0  0  0  0  0
  147.7508  141.1971  156.8479 C   0  0  0  0  0  0  0  0  0  0  0  0
  148.7086  141.5901  157.9854 C   0  0  0  0  0  0  0  0  0  0  0  0
  149.7790  142.3675  157.4654 O   0  0  0  0  0  0  0  0  0  0  0  0
  150.5109  141.6725  156.4644 C   0  0  0  0  0  0  0  0  0  0  0  0
  149.5710  141.2827  155.3112 C   0  0  0  0  0  0  0  0  0  0  0  0
  145.6376  134.3652  149.4752 H   0  0  0  0  0  0  0  0  0  0  0  0
  150.0844  137.7264  153.4961 H   0  0  0  0  0  0  0  0  0  0  0  0
  149.4774  137.8105  155.1397 H   0  0  0  0  0  0  0  0  0  0  0  0
  150.4339  139.1365  154.4685 H   0  0  0  0  0  0  0  0  0  0  0  0
  148.6474  139.6329  152.8166 H   0  0  0  0  0  0  0  0  0  0  0  0
  147.7530  138.2376  153.3395 H   0  0  0  0  0  0  0  0  0  0  0  0
  146.2280  140.7117  153.0927 H   0  0  0  0  0  0  0  0  0  0  0  0
  147.6429  141.7079  153.3445 H   0  0  0  0  0  0  0  0  0  0  0  0
  146.3008  141.7628  154.4806 H   0  0  0  0  0  0  0  0  0  0  0  0
  146.7494  138.2148  155.7892 H   0  0  0  0  0  0  0  0  0  0  0  0
  145.8561  139.6573  156.0451 H   0  0  0  0  0  0  0  0  0  0  0  0
  144.7775  139.4027  153.9335 H   0  0  0  0  0  0  0  0  0  0  0  0
  143.2379  137.3928  153.2781 H   0  0  0  0  0  0  0  0  0  0  0  0
  144.1971  138.0498  152.0029 H   0  0  0  0  0  0  0  0  0  0  0  0
  141.7404  135.7458  153.4654 H   0  0  0  0  0  0  0  0  0  0  0  0
  142.9964  135.0819  154.5226 H   0  0  0  0  0  0  0  0  0  0  0  0
  141.8722  134.0052  153.6965 H   0  0  0  0  0  0  0  0  0  0  0  0
  144.6724  131.3980  150.5576 H   0  0  0  0  0  0  0  0  0  0  0  0
  145.0775  132.3253  149.1089 H   0  0  0  0  0  0  0  0  0  0  0  0
  143.3887  131.9550  149.4771 H   0  0  0  0  0  0  0  0  0  0  0  0
  147.2798  142.0999  156.4594 H   0  0  0  0  0  0  0  0  0  0  0  0
  146.9633  140.5922  157.2917 H   0  0  0  0  0  0  0  0  0  0  0  0
  148.1803  142.1731  158.7399 H   0  0  0  0  0  0  0  0  0  0  0  0
  149.1014  140.7024  158.4834 H   0  0  0  0  0  0  0  0  0  0  0  0
  151.3113  142.3157  156.0988 H   0  0  0  0  0  0  0  0  0  0  0  0
  150.9825  140.7877  156.8948 H   0  0  0  0  0  0  0  0  0  0  0  0
  150.1684  140.7449  154.5781 H   0  0  0  0  0  0  0  0  0  0  0  0
  149.2151  142.1919  154.8267 H   0  0  0  0  0  0  0  0  0  0  0  0
  1  2  1  0  0  0  0
  1 26  1  0  0  0  0
  1 27  1  0  0  0  0
  1 28  1  0  0  0  0
  2  3  1  0  0  0  0
  2 29  1  0  0  0  0
  2 30  1  0  0  0  0
  3  4  1  0  0  0  0
  3  5  1  0  0  0  0
  3 19  1  0  0  0  0
  4 31  1  0  0  0  0
  4 32  1  0  0  0  0
  4 33  1  0  0  0  0
  5  6  1  0  0  0  0
  5 34  1  0  0  0  0
  5 35  1  0  0  0  0
  6  7  1  0  0  0  0
  6 36  1  0  0  0  0
  7  8  2  0  0  0  0
  7  9  1  0  0  0  0
  9 10  1  0  0  0  0
  9 37  1  0  0  0  0
  9 38  1  0  0  0  0
 10 17  1  0  0  0  0
 10 11  2  0  0  0  0
 11 12  1  0  0  0  0
 11 13  1  0  0  0  0
 12 39  1  0  0  0  0
 12 40  1  0  0  0  0
 12 41  1  0  0  0  0
 13 14  2  0  0  0  0
 14 15  1  0  0  0  0
 14 16  1  0  0  0  0
 15 42  1  0  0  0  0
 15 43  1  0  0  0  0
 15 44  1  0  0  0  0
 16 25  1  0  0  0  0
 16 17  1  0  0  0  0
 17 18  2  0  0  0  0
 19 24  1  0  0  0  0
 19 20  1  0  0  0  0
 20 21  1  0  0  0  0
 20 45  1  0  0  0  0
 20 46  1  0  0  0  0
 21 22  1  0  0  0  0
 21 47  1  0  0  0  0
 21 48  1  0  0  0  0
 22 23  1  0  0  0  0
 23 24  1  0  0  0  0
 23 49  1  0  0  0  0
 23 50  1  0  0  0  0
 24 51  1  0  0  0  0
 24 52  1  0  0  0  0
M  END
> <s_m_source_file>
AV-unprocessed.smi

> <i_m_source_file_index>
1492

> <i_lp_mmshare_version>
43012

> <i_f3d_flags>
0

> <s_epik_input>
W0NIMl0xW0NIMl1PW0NIMl1bQ0gyXU4xW0NAQF0oW0NIM10pKFtDSDJdW0NIM10pW0NIMl1bTkhdQyg9TylbQ0gyXWMyYyhbQ0gzXSluYyhbQ0gzXSlbbkhdYzI9Tw==

> <s_epik_cmdline>
J2VwaWtfcHl0aG9uJywgJy1waCcsICc3LjAnLCAnLXRuJywgJzgnLCAnLW1hJywgJzIwMCcsICctbWV0YWxfYmluZGluZycsICctaW1hZScsICc8aW5maWxlLm1hZT4nLCAnLW9tYWUnLCAnPG91dGZpbGUubWFlPic=

> <r_lp_tautomer_probability>
0.839158

> <r_epik_Ionization_Penalty>
0.328652

> <r_epik_Ionization_Penalty_Charging>
0.000364731

> <r_epik_Ionization_Penalty_Neutral>
0.328288

> <r_epik_State_Penalty>
0.414451

> <r_epik_Charging_Adjusted_Penalty>
0.414816

> <i_epik_Tot_Q>
0

> <i_epik_Tot_abs_Q>
0

> <r_epik_Metal_State_Penalty>
0.592978

> <b_epik_Metal_Only>
0

> <s_lp_Force_Field>
OPLS_2005

> <r_lp_Energy>
47.024

> <b_lp_Chiralities_Consistent>
1

> <s_lp_Variant>
AV-unprocessed.smi:1492-1

> <Gold.Version>
5.8.1

> <Gold.Id.Protein>
6NUR|6NUR_protein|mol2

> <Gold.PLP.Fitness>
35.9336

> <Gold.PLP.PLP>
-32.8078

> <Gold.PLP.part.hbond>
-2.0000

> <Gold.PLP.part.metal>
0.0000

> <Gold.PLP.part.buried>
-4.4167

> <Gold.PLP.part.nonpolar>
-29.1544

> <Gold.PLP.part.repulsive>
2.5555

> <Gold.PLP.ligand.clash>
0.0000

> <Gold.PLP.ligand.torsion>
1.2269

> <Gold.PLP.Chemscore.Hbond>
1.8247

> <Gold.PLP.Chemscore.CHOScore>
0.0000

> <Gold.PLP.Chemscore.Metal>
0.0000

> <Gold.Chemscore.Hbonds>
donor molecule, donor type, donor heavy atom, donor atom, acceptor molecule, acceptor atom, score
      L1  H     6    36       P1 10175  0.80
      L1  H    16    25       P1  7921  0.99

> <Gold.PLP.Chemscore.Internal.Correction>
0.1055

> <Gold.Rescore>
     Score         DG    S(hbond)    S(metal)    S(lipo)     H(rot)  DE(clash)    DE(int)     intcor
     11.00     -14.62       1.90        0.00      70.13       2.12       2.36       1.26       ----

> <Gold.Chemscore.Fitness>
10.9966

> <Gold.Chemscore.DG>
-14.6192

> <Gold.Chemscore.ZeroCoef>
-5.4800

> <Gold.Chemscore.Hbond>
1.9012

> <Gold.Chemscore.Metal>
0.0000

> <Gold.Chemscore.Lipo>
70.1292

> <Gold.Chemscore.Internal_Hbond>
0.0000

> <Gold.Chemscore.DEClash>
2.3600

> <Gold.Chemscore.DEInternal>
1.2626

> <Gold.Chemscore.Rot>
2.1155

> <Gold.Chemscore.Internal.Correction>
   9.000000E+99

> <Gold.Chemscore.Hbonds>
donor molecule, donor type, donor heavy atom, donor atom, acceptor molecule, acceptor atom, score
      L1  H     6    36       P1 10175  0.77
      L1  H    16    25       P1  7921  0.76

> <Gold.Chemscore.Hbond.Weighted>
-6.3499

> <Gold.Chemscore.Metal.Weighted>
-0.0000

> <Gold.Chemscore.Lipo.Weighted>
-8.2051

> <Gold.Chemscore.Internal_Hbond.Weighted>
0.0000

> <Gold.Chemscore.DEClash.Weighted>
2.3600

> <Gold.Chemscore.DEInternal.Weighted>
1.2626

> <Gold.Chemscore.Rot.Weighted>
5.4157

> <Gold.Chemscore.Internal.Correction.Weighted>
   9.000000E+99

> <Gold.Protein.RotatedTorsions>
[ 6907 6896 6895 6894 ] final  118.05 input  -60.11 | X-H torsion
[ 7974 7965 7964 7962 ] final  -25.96 input  175.53 | X-H torsion
[ 8008 7997 7996 7995 ] final   55.35 input   59.86 | X-H torsion
[ 10167 10162 10161 10158 ] final  115.99 input  -65.29 | X-H torsion
[ 10718 10713 10712 10709 ] final -155.55 input   66.30 | X-H torsion
[ 10763 10752 10751 10750 ] final    5.98 input  -60.55 | X-H torsion
[ 11005 11000 10999 10996 ] final  -85.89 input  -57.11 | X-H torsion

> <Gold.Protein.ActiveResidues>
 VAL166  LYS551  ARG553  GLY616  TRP617  ASP618  TYR619  PRO620  LYS621  CYS622 
 ASP623  PHE694  ASN695  SER759  ASP760  ASP761  ALA762  ILE779  LEU786  VAL792 
 PHE793  MET794  SER795  GLU796  ALA797  LYS798  CYS799  TRP800  GLU811  SER814 

> <Gold.Protein.RotatedAtoms>
  152.4570  133.7744  159.6815 H   0  0  0  0  0  0  0  0  0  0  0  0  # atno 6907 bound_to 6896
  150.8500  133.7792  159.3035 H   0  0  0  0  0  0  0  0  0  0  0  0  # atno 6908 bound_to 6896
  151.5390  135.1071  159.9973 H   0  0  0  0  0  0  0  0  0  0  0  0  # atno 6909 bound_to 6896
  146.1457  140.4957  142.8633 H   0  0  0  0  0  0  0  0  0  0  0  0  # atno 7974 bound_to 7965
  155.4996  140.3474  155.4369 H   0  0  0  0  0  0  0  0  0  0  0  0  # atno 8008 bound_to 7997
  156.0922  140.1413  156.9605 H   0  0  0  0  0  0  0  0  0  0  0  0  # atno 8009 bound_to 7997
  154.4642  140.0924  156.6952 H   0  0  0  0  0  0  0  0  0  0  0  0  # atno 8010 bound_to 7997
  139.6278  144.7111  151.2496 H   0  0  0  0  0  0  0  0  0  0  0  0  # atno 10167 bound_to 10162
  156.5144  130.8449  151.2658 H   0  0  0  0  0  0  0  0  0  0  0  0  # atno 10718 bound_to 10713
  153.2531  135.6915  153.7658 H   0  0  0  0  0  0  0  0  0  0  0  0  # atno 10763 bound_to 10752
  153.6746  135.3338  155.3163 H   0  0  0  0  0  0  0  0  0  0  0  0  # atno 10764 bound_to 10752
  154.8402  135.4508  154.1494 H   0  0  0  0  0  0  0  0  0  0  0  0  # atno 10765 bound_to 10752
  141.1636  133.7424  156.9081 H   0  0  0  0  0  0  0  0  0  0  0  0  # atno 11005 bound_to 11000
  144.7843  140.5905  143.6584 LP  0  0  0  0  0  0  0  0  0  0  0  0  # atno 17320 bound_to 7965
  145.4944  139.1487  143.3692 LP  0  0  0  0  0  0  0  0  0  0  0  0  # atno 17321 bound_to 7965
  140.7421  143.6536  150.8227 LP  0  0  0  0  0  0  0  0  0  0  0  0  # atno 17342 bound_to 10162
  140.0156  143.5596  152.2821 LP  0  0  0  0  0  0  0  0  0  0  0  0  # atno 17343 bound_to 10162
  157.7446  130.9939  150.2687 LP  0  0  0  0  0  0  0  0  0  0  0  0  # atno 17370 bound_to 10713
  156.3210  130.3786  149.7575 LP  0  0  0  0  0  0  0  0  0  0  0  0  # atno 17371 bound_to 10713
  140.1536  134.9214  157.2624 LP  0  0  0  0  0  0  0  0  0  0  0  0  # atno 17394 bound_to 11000
  140.2694  134.3478  155.7379 LP  0  0  0  0  0  0  0  0  0  0  0  0  # atno 17395 bound_to 11000

$$$$
