AV-unprocessed.smi:2597|AV-procd|sdf|10174|dock5
  -GOLD-   2272014183D 1   1.00000     0.00000
 Structure written by MMmdl.
 30 31  0  0  0  0  0  0  0  0  1 V2000
  151.1948  145.4144  159.1671 N   0  0  0  0  0  0  0  0  0  0  0  0
  152.2001  144.5595  159.7740 C   0  0  1  0  0  0  0  0  0  0  0  0
  151.7524  144.1270  161.1859 C   0  0  0  0  0  0  0  0  0  0  0  0
  152.7910  143.1993  161.8366 C   0  0  0  0  0  0  0  0  0  0  0  0
  153.1129  141.9892  160.9449 C   0  0  0  0  0  0  0  0  0  0  0  0
  153.5847  142.4350  159.5488 C   0  0  0  0  0  0  0  0  0  0  0  0
  152.5826  143.3746  158.8422 C   0  0  1  0  0  0  0  0  0  0  0  0
  151.4555  142.6332  158.2704 N   0  0  0  0  0  0  0  0  0  0  0  0
  151.0442  142.6302  156.9526 C   0  0  0  0  0  0  0  0  0  0  0  0
  149.9898  141.7595  156.9376 C   0  0  0  0  0  0  0  0  0  0  0  0
  149.1090  141.3143  155.8054 C   0  0  0  0  0  0  0  0  0  0  0  0
  149.4811  142.0433  154.6538 O   0  0  0  0  0  0  0  0  0  0  0  0
  149.8132  141.2622  158.2265 N   0  0  0  0  0  0  0  0  0  0  0  0
  150.7000  141.7855  159.0122 N   0  0  0  0  0  0  0  0  0  0  0  0
  153.0919  145.1755  159.8951 H   0  0  0  0  0  0  0  0  0  0  0  0
  153.1079  143.8069  157.9891 H   0  0  0  0  0  0  0  0  0  0  0  0
  150.5219  145.6993  159.8642 H   0  0  0  0  0  0  0  0  0  0  0  0
  151.6273  146.2579  158.8184 H   0  0  0  0  0  0  0  0  0  0  0  0
  151.6147  145.0075  161.8145 H   0  0  0  0  0  0  0  0  0  0  0  0
  150.7832  143.6304  161.1579 H   0  0  0  0  0  0  0  0  0  0  0  0
  153.7065  143.7602  162.0281 H   0  0  0  0  0  0  0  0  0  0  0  0
  152.4288  142.8602  162.8075 H   0  0  0  0  0  0  0  0  0  0  0  0
  153.8875  141.3836  161.4161 H   0  0  0  0  0  0  0  0  0  0  0  0
  152.2374  141.3456  160.8621 H   0  0  0  0  0  0  0  0  0  0  0  0
  154.5379  142.9542  159.6550 H   0  0  0  0  0  0  0  0  0  0  0  0
  153.7872  141.5628  158.9259 H   0  0  0  0  0  0  0  0  0  0  0  0
  151.5133  143.2187  156.1782 H   0  0  0  0  0  0  0  0  0  0  0  0
  149.2242  140.2472  155.6148 H   0  0  0  0  0  0  0  0  0  0  0  0
  148.0576  141.5012  156.0254 H   0  0  0  0  0  0  0  0  0  0  0  0
  149.5289  142.9590  154.8822 H   0  0  0  0  0  0  0  0  0  0  0  0
  1  2  1  0  0  0  0
  1 17  1  0  0  0  0
  1 18  1  0  0  0  0
  2 15  1  0  0  0  0
  2  7  1  0  0  0  0
  2  3  1  0  0  0  0
  3  4  1  0  0  0  0
  3 19  1  0  0  0  0
  3 20  1  0  0  0  0
  4  5  1  0  0  0  0
  4 21  1  0  0  0  0
  4 22  1  0  0  0  0
  5  6  1  0  0  0  0
  5 23  1  0  0  0  0
  5 24  1  0  0  0  0
  6  7  1  0  0  0  0
  6 25  1  0  0  0  0
  6 26  1  0  0  0  0
  7 16  1  0  0  0  0
  7  8  1  0  0  0  0
  8 14  1  0  0  0  0
  8  9  1  0  0  0  0
  9 10  2  0  0  0  0
  9 27  1  0  0  0  0
 10 11  1  0  0  0  0
 10 13  1  0  0  0  0
 11 12  1  0  0  0  0
 11 28  1  0  0  0  0
 11 29  1  0  0  0  0
 12 30  1  0  0  0  0
 13 14  2  0  0  0  0
M  END
> <s_m_source_file>
AV-unprocessed.smi

> <i_m_source_file_index>
2597

> <i_lp_mmshare_version>
43012

> <i_f3d_flags>
0

> <s_epik_input>
W05IMl1bQ0BIXTFbQ0gyXVtDSDJdW0NIMl1bQ0gyXVtDQEhdMW4yW2NIXWMobm4yKVtDSDJdW09IXQ==

> <s_epik_cmdline>
J2VwaWtfcHl0aG9uJywgJy1waCcsICc3LjAnLCAnLXRuJywgJzgnLCAnLW1hJywgJzIwMCcsICctbWV0YWxfYmluZGluZycsICctaW1hZScsICc8aW5maWxlLm1hZT4nLCAnLW9tYWUnLCAnPG91dGZpbGUubWFlPic=

> <r_lp_tautomer_probability>
1

> <r_epik_Ionization_Penalty>
2.21303

> <r_epik_Ionization_Penalty_Charging>
0

> <r_epik_Ionization_Penalty_Neutral>
2.21303

> <r_epik_State_Penalty>
2.3573

> <r_epik_Charging_Adjusted_Penalty>
2.3573

> <i_epik_Tot_Q>
0

> <i_epik_Tot_abs_Q>
0

> <r_epik_Metal_State_Penalty>
2.35724

> <b_epik_Metal_Only>
0

> <s_lp_Force_Field>
OPLS_2005

> <r_lp_Energy>
16.8416

> <b_lp_Chiralities_Consistent>
1

> <s_lp_Variant>
AV-unprocessed.smi:2597-5

> <Gold.Version>
5.8.1

> <Gold.Id.Protein>
6NUR|6NUR_protein|mol2

> <Gold.PLP.Fitness>
38.3539

> <Gold.PLP.PLP>
-35.5217

> <Gold.PLP.part.hbond>
-3.7282

> <Gold.PLP.part.metal>
0.0000

> <Gold.PLP.part.buried>
-3.5094

> <Gold.PLP.part.nonpolar>
-28.1072

> <Gold.PLP.part.repulsive>
0.0367

> <Gold.PLP.ligand.clash>
0.0000

> <Gold.PLP.ligand.torsion>
0.1695

> <Gold.PLP.Chemscore.Hbond>
1.0360

> <Gold.PLP.Chemscore.CHOScore>
0.0000

> <Gold.PLP.Chemscore.Metal>
0.0000

> <Gold.Chemscore.Hbonds>
donor molecule, donor type, donor heavy atom, donor atom, acceptor molecule, acceptor atom, score
      L1  H    12    30       P1  8028  1.00
      P1  H  8011  8017       L1    12  0.04

> <Gold.PLP.Chemscore.Internal.Correction>
0.0631

> <Gold.Rescore>
     Score         DG    S(hbond)    S(metal)    S(lipo)     H(rot)  DE(clash)    DE(int)     intcor
     14.96     -15.16       1.00        0.00      93.96       1.82       0.08       0.13       ----

> <Gold.Chemscore.Fitness>
14.9588

> <Gold.Chemscore.DG>
-15.1646

> <Gold.Chemscore.ZeroCoef>
-5.4800

> <Gold.Chemscore.Hbond>
1.0047

> <Gold.Chemscore.Metal>
0.0000

> <Gold.Chemscore.Lipo>
93.9641

> <Gold.Chemscore.Internal_Hbond>
0.0000

> <Gold.Chemscore.DEClash>
0.0770

> <Gold.Chemscore.DEInternal>
0.1288

> <Gold.Chemscore.Rot>
1.8222

> <Gold.Chemscore.Internal.Correction>
   9.000000E+99

> <Gold.Chemscore.Hbonds>
donor molecule, donor type, donor heavy atom, donor atom, acceptor molecule, acceptor atom, score
      L1  H    12    30       P1  8028  0.93

> <Gold.Chemscore.Hbond.Weighted>
-3.3557

> <Gold.Chemscore.Metal.Weighted>
-0.0000

> <Gold.Chemscore.Lipo.Weighted>
-10.9938

> <Gold.Chemscore.Internal_Hbond.Weighted>
0.0000

> <Gold.Chemscore.DEClash.Weighted>
0.0770

> <Gold.Chemscore.DEInternal.Weighted>
0.1288

> <Gold.Chemscore.Rot.Weighted>
4.6649

> <Gold.Chemscore.Internal.Correction.Weighted>
   9.000000E+99

> <Gold.Protein.RotatedTorsions>
[ 6907 6896 6895 6894 ] final  105.72 input  -60.11 | X-H torsion
[ 7974 7965 7964 7962 ] final   -5.03 input  175.53 | X-H torsion
[ 8008 7997 7996 7995 ] final -114.10 input   59.86 | X-H torsion
[ 10167 10162 10161 10158 ] final -173.07 input  -65.29 | X-H torsion
[ 10718 10713 10712 10709 ] final  161.77 input   66.30 | X-H torsion
[ 10763 10752 10751 10750 ] final -155.99 input  -60.55 | X-H torsion
[ 11005 11000 10999 10996 ] final   50.96 input  -57.11 | X-H torsion

> <Gold.Protein.ActiveResidues>
 VAL166  LYS551  ARG553  GLY616  TRP617  ASP618  TYR619  PRO620  LYS621  CYS622 
 ASP623  PHE694  ASN695  SER759  ASP760  ASP761  ALA762  ILE779  LEU786  VAL792 
 PHE793  MET794  SER795  GLU796  ALA797  LYS798  CYS799  TRP800  GLU811  SER814 

> <Gold.Protein.RotatedAtoms>
  152.5220  133.9487  159.7661 H   0  0  0  0  0  0  0  0  0  0  0  0  # atno 6907 bound_to 6896
  150.9801  133.6245  159.2731 H   0  0  0  0  0  0  0  0  0  0  0  0  # atno 6908 bound_to 6896
  151.3426  135.0873  159.9429 H   0  0  0  0  0  0  0  0  0  0  0  0  # atno 6909 bound_to 6896
  146.2361  140.1960  142.8333 H   0  0  0  0  0  0  0  0  0  0  0  0  # atno 7974 bound_to 7965
  155.0310  140.0393  157.2474 H   0  0  0  0  0  0  0  0  0  0  0  0  # atno 8008 bound_to 7997
  154.7297  140.2728  155.6444 H   0  0  0  0  0  0  0  0  0  0  0  0  # atno 8009 bound_to 7997
  156.2838  140.2686  156.1993 H   0  0  0  0  0  0  0  0  0  0  0  0  # atno 8010 bound_to 7997
  139.5709  144.1644  152.1382 H   0  0  0  0  0  0  0  0  0  0  0  0  # atno 10167 bound_to 10162
  157.1319  131.0519  151.2367 H   0  0  0  0  0  0  0  0  0  0  0  0  # atno 10718 bound_to 10713
  154.7746  135.3155  154.8118 H   0  0  0  0  0  0  0  0  0  0  0  0  # atno 10763 bound_to 10752
  153.8845  135.6831  153.4769 H   0  0  0  0  0  0  0  0  0  0  0  0  # atno 10764 bound_to 10752
  153.1367  135.4756  154.9369 H   0  0  0  0  0  0  0  0  0  0  0  0  # atno 10765 bound_to 10752
  140.0973  134.5129  155.8795 H   0  0  0  0  0  0  0  0  0  0  0  0  # atno 11005 bound_to 11000
  144.9820  140.8468  143.5392 LP  0  0  0  0  0  0  0  0  0  0  0  0  # atno 17320 bound_to 7965
  145.1955  139.2279  143.5220 LP  0  0  0  0  0  0  0  0  0  0  0  0  # atno 17321 bound_to 7965
  140.1177  144.5401  150.6883 LP  0  0  0  0  0  0  0  0  0  0  0  0  # atno 17342 bound_to 10162
  140.6993  143.2424  151.4910 LP  0  0  0  0  0  0  0  0  0  0  0  0  # atno 17343 bound_to 10162
  157.4384  130.7530  149.7049 LP  0  0  0  0  0  0  0  0  0  0  0  0  # atno 17370 bound_to 10713
  155.9806  130.4028  150.3519 LP  0  0  0  0  0  0  0  0  0  0  0  0  # atno 17371 bound_to 10713
  141.2095  133.6685  156.6447 LP  0  0  0  0  0  0  0  0  0  0  0  0  # atno 17394 bound_to 11000
  140.3269  134.7961  157.4296 LP  0  0  0  0  0  0  0  0  0  0  0  0  # atno 17395 bound_to 11000

$$$$
