AV-unprocessed.smi:2076|AV-procd|sdf|8458|dock3
  -GOLD-   2272011153D 1   1.00000     0.00000
 Structure written by MMmdl.
 44 45  0  0  0  0  0  0  0  0  1 V2000
  151.0690  144.1417  158.7758 C   0  0  0  0  0  0  0  0  0  0  0  0
  151.8489  143.5986  159.9364 C   0  0  0  0  0  0  0  0  0  0  0  0
  151.9362  144.1150  161.2594 C   0  0  0  0  0  0  0  0  0  0  0  0
  152.7692  143.2468  161.9070 C   0  0  0  0  0  0  0  0  0  0  0  0
  153.2472  143.2465  163.3219 C   0  0  0  0  0  0  0  0  0  0  0  0
  153.1371  142.2813  160.9862 N   0  0  0  0  0  0  0  0  0  0  0  0
  154.0023  141.1253  161.1630 C   0  0  0  0  0  0  0  0  0  0  0  0
  153.8096  140.1117  160.0343 C   0  0  0  0  0  0  0  0  0  0  0  0
  154.7638  139.7849  159.3290 O   0  0  0  0  0  0  0  0  0  0  0  0
  152.5711  139.6236  159.8755 N   0  0  0  0  0  0  0  0  0  0  0  0
  152.1847  138.6478  158.8631 C   0  0  0  0  0  0  0  0  0  0  0  0
  150.8204  138.9909  158.2036 C   0  0  1  0  0  0  0  0  0  0  0  0
  150.8602  140.4605  157.7117 C   0  0  0  0  0  0  0  0  0  0  0  0
  150.4282  138.0432  157.1341 N   0  0  0  0  0  0  0  0  0  0  0  0
  150.3692  136.6555  157.6082 C   0  0  0  0  0  0  0  0  0  0  0  0
  149.9892  135.6590  156.4993 C   0  0  0  0  0  0  0  0  0  0  0  0
  150.9076  135.7685  155.4209 O   0  0  0  0  0  0  0  0  0  0  0  0
  150.9374  137.0811  154.8785 C   0  0  0  0  0  0  0  0  0  0  0  0
  151.3278  138.0868  155.9753 C   0  0  0  0  0  0  0  0  0  0  0  0
  152.5705  142.5009  159.7790 N   0  0  0  0  0  0  0  0  0  0  0  0
  150.4875  145.0168  159.0670 H   0  0  0  0  0  0  0  0  0  0  0  0
  150.3743  143.3973  158.3859 H   0  0  0  0  0  0  0  0  0  0  0  0
  151.7317  144.4396  157.9631 H   0  0  0  0  0  0  0  0  0  0  0  0
  151.4577  144.9909  161.6717 H   0  0  0  0  0  0  0  0  0  0  0  0
  152.9143  144.1431  163.8448 H   0  0  0  0  0  0  0  0  0  0  0  0
  154.3357  143.2194  163.3670 H   0  0  0  0  0  0  0  0  0  0  0  0
  152.8623  142.3809  163.8611 H   0  0  0  0  0  0  0  0  0  0  0  0
  155.0435  141.4511  161.1967 H   0  0  0  0  0  0  0  0  0  0  0  0
  153.7868  140.6606  162.1256 H   0  0  0  0  0  0  0  0  0  0  0  0
  151.8489  139.9441  160.5045 H   0  0  0  0  0  0  0  0  0  0  0  0
  152.9602  138.5770  158.0981 H   0  0  0  0  0  0  0  0  0  0  0  0
  152.1529  137.6892  159.3784 H   0  0  0  0  0  0  0  0  0  0  0  0
  150.0664  138.9387  158.9906 H   0  0  0  0  0  0  0  0  0  0  0  0
  151.2057  141.1508  158.4806 H   0  0  0  0  0  0  0  0  0  0  0  0
  149.8754  140.8271  157.4253 H   0  0  0  0  0  0  0  0  0  0  0  0
  151.5242  140.5699  156.8537 H   0  0  0  0  0  0  0  0  0  0  0  0
  151.3311  136.3697  158.0366 H   0  0  0  0  0  0  0  0  0  0  0  0
  149.6274  136.5500  158.3976 H   0  0  0  0  0  0  0  0  0  0  0  0
  150.0132  134.6391  156.8833 H   0  0  0  0  0  0  0  0  0  0  0  0
  148.9742  135.8437  156.1443 H   0  0  0  0  0  0  0  0  0  0  0  0
  151.6593  137.1124  154.0622 H   0  0  0  0  0  0  0  0  0  0  0  0
  149.9637  137.3308  154.4537 H   0  0  0  0  0  0  0  0  0  0  0  0
  151.3169  139.0725  155.5148 H   0  0  0  0  0  0  0  0  0  0  0  0
  152.3532  137.8952  156.2950 H   0  0  0  0  0  0  0  0  0  0  0  0
  1  2  1  0  0  0  0
  1 21  1  0  0  0  0
  1 22  1  0  0  0  0
  1 23  1  0  0  0  0
  2 20  2  0  0  0  0
  2  3  1  0  0  0  0
  3  4  2  0  0  0  0
  3 24  1  0  0  0  0
  4  5  1  0  0  0  0
  4  6  1  0  0  0  0
  5 25  1  0  0  0  0
  5 26  1  0  0  0  0
  5 27  1  0  0  0  0
  6  7  1  0  0  0  0
  6 20  1  0  0  0  0
  7  8  1  0  0  0  0
  7 28  1  0  0  0  0
  7 29  1  0  0  0  0
  8  9  2  0  0  0  0
  8 10  1  0  0  0  0
 10 11  1  0  0  0  0
 10 30  1  0  0  0  0
 11 12  1  0  0  0  0
 11 31  1  0  0  0  0
 11 32  1  0  0  0  0
 12 13  1  0  0  0  0
 12 14  1  0  0  0  0
 12 33  1  0  0  0  0
 13 34  1  0  0  0  0
 13 35  1  0  0  0  0
 13 36  1  0  0  0  0
 14 19  1  0  0  0  0
 14 15  1  0  0  0  0
 15 16  1  0  0  0  0
 15 37  1  0  0  0  0
 15 38  1  0  0  0  0
 16 17  1  0  0  0  0
 16 39  1  0  0  0  0
 16 40  1  0  0  0  0
 17 18  1  0  0  0  0
 18 19  1  0  0  0  0
 18 41  1  0  0  0  0
 18 42  1  0  0  0  0
 19 43  1  0  0  0  0
 19 44  1  0  0  0  0
M  END
> <s_m_source_file>
AV-unprocessed.smi

> <i_m_source_file_index>
2076

> <i_lp_mmshare_version>
43012

> <i_f3d_flags>
0

> <s_epik_input>
W0NIM11jMVtjSF1jKFtDSDNdKW4objEpW0NIMl1DKD1PKVtOSF1bQ0gyXVtDQEhdKFtDSDNdKU4yW0NIMl1bQ0gyXU9bQ0gyXVtDSDJdMg==

> <s_epik_cmdline>
J2VwaWtfcHl0aG9uJywgJy1waCcsICc3LjAnLCAnLXRuJywgJzgnLCAnLW1hJywgJzIwMCcsICctbWV0YWxfYmluZGluZycsICctaW1hZScsICc8aW5maWxlLm1hZT4nLCAnLW9tYWUnLCAnPG91dGZpbGUubWFlPic=

> <r_lp_tautomer_probability>
1

> <r_epik_Ionization_Penalty>
0.197284

> <r_epik_Ionization_Penalty_Charging>
0

> <r_epik_Ionization_Penalty_Neutral>
0.197284

> <r_epik_State_Penalty>
0.186684

> <r_epik_Charging_Adjusted_Penalty>
0.186684

> <i_epik_Tot_Q>
0

> <i_epik_Tot_abs_Q>
0

> <r_epik_Metal_State_Penalty>
0.186636

> <b_epik_Metal_Only>
0

> <s_lp_Force_Field>
OPLS_2005

> <r_lp_Energy>
27.1724

> <b_lp_Chiralities_Consistent>
1

> <s_lp_Variant>
AV-unprocessed.smi:2076-2

> <Gold.Version>
5.8.1

> <Gold.Id.Protein>
6NUR|6NUR_protein|mol2

> <Gold.PLP.Fitness>
49.7706

> <Gold.PLP.PLP>
-44.4491

> <Gold.PLP.part.hbond>
-2.0000

> <Gold.PLP.part.metal>
0.0000

> <Gold.PLP.part.buried>
-5.9126

> <Gold.PLP.part.nonpolar>
-36.4251

> <Gold.PLP.part.repulsive>
0.6017

> <Gold.PLP.ligand.clash>
0.0000

> <Gold.PLP.ligand.torsion>
0.3734

> <Gold.PLP.Chemscore.Hbond>
2.0000

> <Gold.PLP.Chemscore.CHOScore>
0.0000

> <Gold.PLP.Chemscore.Metal>
0.0000

> <Gold.Chemscore.Hbonds>
donor molecule, donor type, donor heavy atom, donor atom, acceptor molecule, acceptor atom, score
      P1  H  7997  8010       L1     9  0.99
      P1  H 10752 10764       L1    17  0.02

> <Gold.PLP.Chemscore.Internal.Correction>
0.0682

> <Gold.Rescore>
     Score         DG    S(hbond)    S(metal)    S(lipo)     H(rot)  DE(clash)    DE(int)     intcor
     18.29     -20.93       1.94        0.00     113.79       1.70       0.97       1.66       ----

> <Gold.Chemscore.Fitness>
18.2897

> <Gold.Chemscore.DG>
-20.9254

> <Gold.Chemscore.ZeroCoef>
-5.4800

> <Gold.Chemscore.Hbond>
1.9408

> <Gold.Chemscore.Metal>
0.0000

> <Gold.Chemscore.Lipo>
113.7892

> <Gold.Chemscore.Internal_Hbond>
0.0000

> <Gold.Chemscore.DEClash>
0.9730

> <Gold.Chemscore.DEInternal>
1.6627

> <Gold.Chemscore.Rot>
1.6993

> <Gold.Chemscore.Internal.Correction>
   9.000000E+99

> <Gold.Chemscore.Hbonds>
donor molecule, donor type, donor heavy atom, donor atom, acceptor molecule, acceptor atom, score
      P1  H  7997  8010       L1     9  0.91

> <Gold.Chemscore.Hbond.Weighted>
-6.4823

> <Gold.Chemscore.Metal.Weighted>
-0.0000

> <Gold.Chemscore.Lipo.Weighted>
-13.3133

> <Gold.Chemscore.Internal_Hbond.Weighted>
0.0000

> <Gold.Chemscore.DEClash.Weighted>
0.9730

> <Gold.Chemscore.DEInternal.Weighted>
1.6627

> <Gold.Chemscore.Rot.Weighted>
4.3502

> <Gold.Chemscore.Internal.Correction.Weighted>
   9.000000E+99

> <Gold.Protein.RotatedTorsions>
[ 6907 6896 6895 6894 ] final  -51.17 input  -60.11 | X-H torsion
[ 7974 7965 7964 7962 ] final -116.90 input  175.53 | X-H torsion
[ 8008 7997 7996 7995 ] final   -7.94 input   59.86 | X-H torsion
[ 10167 10162 10161 10158 ] final  -74.19 input  -65.29 | X-H torsion
[ 10718 10713 10712 10709 ] final   70.35 input   66.30 | X-H torsion
[ 10763 10752 10751 10750 ] final  -78.04 input  -60.55 | X-H torsion
[ 11005 11000 10999 10996 ] final   48.90 input  -57.11 | X-H torsion

> <Gold.Protein.ActiveResidues>
 VAL166  LYS551  ARG553  GLY616  TRP617  ASP618  TYR619  PRO620  LYS621  CYS622 
 ASP623  PHE694  ASN695  SER759  ASP760  ASP761  ALA762  ILE779  LEU786  VAL792 
 PHE793  MET794  SER795  GLU796  ALA797  LYS798  CYS799  TRP800  GLU811  SER814 

> <Gold.Protein.RotatedAtoms>
  150.8637  134.7995  159.7101 H   0  0  0  0  0  0  0  0  0  0  0  0  # atno 6907 bound_to 6896
  152.4665  134.5059  159.9749 H   0  0  0  0  0  0  0  0  0  0  0  0  # atno 6908 bound_to 6896
  151.5158  133.3437  159.2928 H   0  0  0  0  0  0  0  0  0  0  0  0  # atno 6909 bound_to 6896
  145.0915  140.8493  143.3980 H   0  0  0  0  0  0  0  0  0  0  0  0  # atno 7974 bound_to 7965
  154.5789  140.2394  155.8082 H   0  0  0  0  0  0  0  0  0  0  0  0  # atno 8008 bound_to 7997
  156.2164  140.3011  155.9806 H   0  0  0  0  0  0  0  0  0  0  0  0  # atno 8009 bound_to 7997
  155.2577  140.0413  157.2984 H   0  0  0  0  0  0  0  0  0  0  0  0  # atno 8010 bound_to 7997
  140.5048  143.2355  151.7692 H   0  0  0  0  0  0  0  0  0  0  0  0  # atno 10167 bound_to 10162
  157.6395  130.9472  150.0638 H   0  0  0  0  0  0  0  0  0  0  0  0  # atno 10718 bound_to 10713
  154.5207  135.5743  153.6679 H   0  0  0  0  0  0  0  0  0  0  0  0  # atno 10763 bound_to 10752
  152.9916  135.6181  154.2758 H   0  0  0  0  0  0  0  0  0  0  0  0  # atno 10764 bound_to 10752
  154.2678  135.2854  155.2730 H   0  0  0  0  0  0  0  0  0  0  0  0  # atno 10765 bound_to 10752
  140.1151  134.4904  155.8645 H   0  0  0  0  0  0  0  0  0  0  0  0  # atno 11005 bound_to 11000
  145.1061  139.2789  143.5661 LP  0  0  0  0  0  0  0  0  0  0  0  0  # atno 17320 bound_to 7965
  146.3531  140.0642  142.8627 LP  0  0  0  0  0  0  0  0  0  0  0  0  # atno 17321 bound_to 7965
  139.4881  144.4472  151.9696 LP  0  0  0  0  0  0  0  0  0  0  0  0  # atno 17342 bound_to 10162
  140.3563  144.3028  150.5941 LP  0  0  0  0  0  0  0  0  0  0  0  0  # atno 17343 bound_to 10162
  156.1663  130.3645  149.9228 LP  0  0  0  0  0  0  0  0  0  0  0  0  # atno 17370 bound_to 10713
  156.7214  130.9008  151.3618 LP  0  0  0  0  0  0  0  0  0  0  0  0  # atno 17371 bound_to 10713
  141.2139  133.6740  156.6779 LP  0  0  0  0  0  0  0  0  0  0  0  0  # atno 17394 bound_to 11000
  140.3040  134.8141  157.4121 LP  0  0  0  0  0  0  0  0  0  0  0  0  # atno 17395 bound_to 11000

$$$$
