AV-unprocessed.smi:434|AV-procd|sdf|2555|dock4
  -GOLD-   2262022523D 1   1.00000     0.00000
 Structure written by MMmdl.
 40 42  0  0  0  0  0  0  0  0  2 V2000
  149.5022  140.7471  155.2456 C   0  0  0  0  0  0  0  0  0  0  0  0
  150.3221  141.4034  156.3051 C   0  0  0  0  0  0  0  0  0  0  0  0
  150.4431  142.7454  156.5087 N   0  3  0  0  0  0  0  0  0  0  0  0
  151.2913  142.9840  157.5909 C   0  0  0  0  0  0  0  0  0  0  0  0
  151.7150  144.1765  158.1693 C   0  0  0  0  0  0  0  0  0  0  0  0
  152.5927  144.0704  159.2681 C   0  0  0  0  0  0  0  0  0  0  0  0
  153.0158  142.8149  159.7506 C   0  0  0  0  0  0  0  0  0  0  0  0
  152.5777  141.6126  159.1570 C   0  0  0  0  0  0  0  0  0  0  0  0
  151.7089  141.7256  158.0715 C   0  0  0  0  0  0  0  0  0  0  0  0
  151.0838  140.7801  157.2488 N   0  0  0  0  0  0  0  0  0  0  0  0
  151.3073  139.3439  157.4818 C   0  0  0  0  0  0  0  0  0  0  0  0
  150.2729  138.7239  158.4428 C   0  0  1  0  0  0  0  0  0  0  0  0
  148.9805  139.1797  158.0961 O   0  0  0  0  0  0  0  0  0  0  0  0
  150.2776  137.1890  158.3777 C   0  0  0  0  0  0  0  0  0  0  0  0
  149.7216  136.6776  159.5775 O   0  0  0  0  0  0  0  0  0  0  0  0
  148.3294  136.4336  159.4754 C   0  0  0  0  0  0  0  0  0  0  0  0
  147.8403  136.1825  160.8612 C   0  0  0  0  0  0  0  0  0  0  0  0
  147.4587  135.0547  161.5339 C   0  0  0  0  0  0  0  0  0  0  0  0
  147.0965  135.4728  162.8443 C   0  0  0  0  0  0  0  0  0  0  0  0
  147.2845  136.8253  162.8730 C   0  0  0  0  0  0  0  0  0  0  0  0
  147.7385  137.2742  161.6710 O   0  0  0  0  0  0  0  0  0  0  0  0
  149.0795  141.4920  154.5710 H   0  0  0  0  0  0  0  0  0  0  0  0
  148.6850  140.1852  155.6982 H   0  0  0  0  0  0  0  0  0  0  0  0
  150.1165  140.0613  154.6623 H   0  0  0  0  0  0  0  0  0  0  0  0
  151.3946  145.1392  157.7992 H   0  0  0  0  0  0  0  0  0  0  0  0
  152.9499  144.9696  159.7491 H   0  0  0  0  0  0  0  0  0  0  0  0
  153.6919  142.7724  160.5921 H   0  0  0  0  0  0  0  0  0  0  0  0
  152.9147  140.6573  159.5311 H   0  0  0  0  0  0  0  0  0  0  0  0
  151.3266  138.8196  156.5261 H   0  0  0  0  0  0  0  0  0  0  0  0
  152.3091  139.2417  157.9007 H   0  0  0  0  0  0  0  0  0  0  0  0
  150.4974  139.0453  159.4607 H   0  0  0  0  0  0  0  0  0  0  0  0
  148.3930  138.9756  158.8080 H   0  0  0  0  0  0  0  0  0  0  0  0
  149.7370  136.8286  157.5004 H   0  0  0  0  0  0  0  0  0  0  0  0
  151.3040  136.8275  158.2961 H   0  0  0  0  0  0  0  0  0  0  0  0
  147.8175  137.2927  159.0391 H   0  0  0  0  0  0  0  0  0  0  0  0
  148.1354  135.5666  158.8424 H   0  0  0  0  0  0  0  0  0  0  0  0
  147.4437  134.0523  161.1323 H   0  0  0  0  0  0  0  0  0  0  0  0
  146.7438  134.8619  163.6621 H   0  0  0  0  0  0  0  0  0  0  0  0
  147.1519  137.5853  163.6289 H   0  0  0  0  0  0  0  0  0  0  0  0
  149.9785  143.4459  155.9452 H   0  0  0  0  0  0  0  0  0  0  0  0
  1  2  1  0  0  0  0
  1 22  1  0  0  0  0
  1 23  1  0  0  0  0
  1 24  1  0  0  0  0
  2 10  1  0  0  0  0
  2  3  2  0  0  0  0
  3  4  1  0  0  0  0
  3 40  1  0  0  0  0
  4  9  2  0  0  0  0
  4  5  1  0  0  0  0
  5  6  2  0  0  0  0
  5 25  1  0  0  0  0
  6  7  1  0  0  0  0
  6 26  1  0  0  0  0
  7  8  2  0  0  0  0
  7 27  1  0  0  0  0
  8  9  1  0  0  0  0
  8 28  1  0  0  0  0
  9 10  1  0  0  0  0
 10 11  1  0  0  0  0
 11 12  1  0  0  0  0
 11 29  1  0  0  0  0
 11 30  1  0  0  0  0
 12 13  1  0  0  0  0
 12 14  1  0  0  0  0
 12 31  1  0  0  0  0
 13 32  1  0  0  0  0
 14 15  1  0  0  0  0
 14 33  1  0  0  0  0
 14 34  1  0  0  0  0
 15 16  1  0  0  0  0
 16 17  1  0  0  0  0
 16 35  1  0  0  0  0
 16 36  1  0  0  0  0
 17 21  1  0  0  0  0
 17 18  2  0  0  0  0
 18 19  1  0  0  0  0
 18 37  1  0  0  0  0
 19 20  2  0  0  0  0
 19 38  1  0  0  0  0
 20 21  1  0  0  0  0
 20 39  1  0  0  0  0
M  CHG  1   3   1
M  END
> <s_m_source_file>
AV-unprocessed.smi

> <i_m_source_file_index>
434

> <i_lp_mmshare_version>
43012

> <i_f3d_flags>
0

> <s_epik_input>
W2NIXTFbY0hdW2NIXVtjSF1jKGMxMiluKGMobjIpW0NIM10pW0NIMl1bQ0BIXShbT0hdKVtDSDJdT1tDSDJdYzNbY0hdW2NIXVtjSF1vMw==

> <s_epik_cmdline>
J2VwaWtfcHl0aG9uJywgJy1waCcsICc3LjAnLCAnLXRuJywgJzgnLCAnLW1hJywgJzIwMCcsICctbWV0YWxfYmluZGluZycsICctaW1hZScsICc8aW5maWxlLm1hZT4nLCAnLW9tYWUnLCAnPG91dGZpbGUubWFlPic=

> <r_epik_Ionization_Penalty>
0.976413

> <r_epik_Ionization_Penalty_Charging>
0.976412

> <r_epik_Ionization_Penalty_Neutral>
9.34185e-07

> <r_epik_State_Penalty>
1.02286

> <r_epik_Charging_Adjusted_Penalty>
1.99927

> <i_epik_Tot_Q>
1

> <i_epik_Tot_abs_Q>
1

> <r_epik_Metal_State_Penalty>
4.99966

> <b_epik_Metal_Only>
0

> <s_lp_Force_Field>
OPLS_2005

> <r_lp_Energy>
13.0994

> <b_lp_Chiralities_Consistent>
1

> <s_lp_Variant>
AV-unprocessed.smi:434-4

> <Gold.Version>
5.8.1

> <Gold.Id.Protein>
6NUR|6NUR_protein|mol2

> <Gold.PLP.Fitness>
63.3911

> <Gold.PLP.PLP>
-51.5043

> <Gold.PLP.part.hbond>
-3.9598

> <Gold.PLP.part.metal>
0.0000

> <Gold.PLP.part.buried>
-6.7810

> <Gold.PLP.part.nonpolar>
-41.9548

> <Gold.PLP.part.repulsive>
0.0512

> <Gold.PLP.ligand.clash>
0.0000

> <Gold.PLP.ligand.torsion>
1.1351

> <Gold.PLP.Chemscore.Hbond>
4.6953

> <Gold.PLP.Chemscore.CHOScore>
0.0000

> <Gold.PLP.Chemscore.Metal>
0.0000

> <Gold.Chemscore.Hbonds>
donor molecule, donor type, donor heavy atom, donor atom, acceptor molecule, acceptor atom, score
      L1  H     3    40       P1  8028  2.00
      P1  H  6896  6908       L1    15  0.72
      P1  H  6931  6943       L1    21  0.99
      P1  H  6934  6947       L1    21  0.69

> <Gold.PLP.Chemscore.Internal.Correction>
0.0713

> <Gold.Rescore>
     Score         DG    S(hbond)    S(metal)    S(lipo)     H(rot)  DE(clash)    DE(int)     intcor
     21.20     -22.32       2.65        0.00     121.99       2.45       0.07       1.04       ----

> <Gold.Chemscore.Fitness>
21.2017

> <Gold.Chemscore.DG>
-22.3173

> <Gold.Chemscore.ZeroCoef>
-5.4800

> <Gold.Chemscore.Hbond>
2.6491

> <Gold.Chemscore.Metal>
0.0000

> <Gold.Chemscore.Lipo>
121.9856

> <Gold.Chemscore.Internal_Hbond>
0.0000

> <Gold.Chemscore.DEClash>
0.0736

> <Gold.Chemscore.DEInternal>
1.0419

> <Gold.Chemscore.Rot>
2.4543

> <Gold.Chemscore.Internal.Correction>
   9.000000E+99

> <Gold.Chemscore.Hbonds>
donor molecule, donor type, donor heavy atom, donor atom, acceptor molecule, acceptor atom, score
      L1  H     3    40       P1  8028  0.98
      P1  H  6896  6908       L1    15  0.13
      P1  H  6931  6943       L1    21  0.65
      P1  H  6934  6947       L1    21  0.65

> <Gold.Chemscore.Hbond.Weighted>
-8.8478

> <Gold.Chemscore.Metal.Weighted>
-0.0000

> <Gold.Chemscore.Lipo.Weighted>
-14.2723

> <Gold.Chemscore.Internal_Hbond.Weighted>
0.0000

> <Gold.Chemscore.DEClash.Weighted>
0.0736

> <Gold.Chemscore.DEInternal.Weighted>
1.0419

> <Gold.Chemscore.Rot.Weighted>
6.2829

> <Gold.Chemscore.Internal.Correction.Weighted>
   9.000000E+99

> <Gold.Protein.RotatedTorsions>
[ 6907 6896 6895 6894 ] final -154.76 input  -60.11 | X-H torsion
[ 7974 7965 7964 7962 ] final  162.14 input  175.53 | X-H torsion
[ 8008 7997 7996 7995 ] final  -19.00 input   59.86 | X-H torsion
[ 10167 10162 10161 10158 ] final -117.34 input  -65.29 | X-H torsion
[ 10718 10713 10712 10709 ] final  -60.11 input   66.30 | X-H torsion
[ 10763 10752 10751 10750 ] final -130.67 input  -60.55 | X-H torsion
[ 11005 11000 10999 10996 ] final -124.35 input  -57.11 | X-H torsion

> <Gold.Protein.ActiveResidues>
 VAL166  LYS551  ARG553  GLY616  TRP617  ASP618  TYR619  PRO620  LYS621  CYS622 
 ASP623  PHE694  ASN695  SER759  ASP760  ASP761  ALA762  ILE779  LEU786  VAL792 
 PHE793  MET794  SER795  GLU796  ALA797  LYS798  CYS799  TRP800  GLU811  SER814 

> <Gold.Protein.RotatedAtoms>
  151.2622  133.4296  159.2616 H   0  0  0  0  0  0  0  0  0  0  0  0  # atno 6907 bound_to 6896
  151.0520  134.9679  159.8226 H   0  0  0  0  0  0  0  0  0  0  0  0  # atno 6908 bound_to 6896
  152.5384  134.2576  159.8975 H   0  0  0  0  0  0  0  0  0  0  0  0  # atno 6909 bound_to 6896
  144.7651  139.7997  143.6318 H   0  0  0  0  0  0  0  0  0  0  0  0  # atno 7974 bound_to 7965
  154.4867  140.2101  155.9639 H   0  0  0  0  0  0  0  0  0  0  0  0  # atno 8008 bound_to 7997
  156.1246  140.3207  155.8227 H   0  0  0  0  0  0  0  0  0  0  0  0  # atno 8009 bound_to 7997
  155.4406  140.0510  157.3001 H   0  0  0  0  0  0  0  0  0  0  0  0  # atno 8010 bound_to 7997
  140.0694  143.4892  152.1988 H   0  0  0  0  0  0  0  0  0  0  0  0  # atno 10167 bound_to 10162
  156.1014  130.4186  150.0808 H   0  0  0  0  0  0  0  0  0  0  0  0  # atno 10718 bound_to 10713
  154.8754  135.3855  154.4120 H   0  0  0  0  0  0  0  0  0  0  0  0  # atno 10763 bound_to 10752
  153.4833  135.7030  153.5931 H   0  0  0  0  0  0  0  0  0  0  0  0  # atno 10764 bound_to 10752
  153.4336  135.3872  155.2153 H   0  0  0  0  0  0  0  0  0  0  0  0  # atno 10765 bound_to 10752
  140.9848  134.0623  157.3724 H   0  0  0  0  0  0  0  0  0  0  0  0  # atno 11005 bound_to 11000
  146.1751  139.4918  142.9902 LP  0  0  0  0  0  0  0  0  0  0  0  0  # atno 17320 bound_to 7965
  145.6496  141.0266  143.1768 LP  0  0  0  0  0  0  0  0  0  0  0  0  # atno 17321 bound_to 7965
  139.5845  144.7525  151.3555 LP  0  0  0  0  0  0  0  0  0  0  0  0  # atno 17342 bound_to 10162
  140.7133  143.7333  150.7607 LP  0  0  0  0  0  0  0  0  0  0  0  0  # atno 17343 bound_to 10162
  156.8794  130.9551  151.3601 LP  0  0  0  0  0  0  0  0  0  0  0  0  # atno 17370 bound_to 10713
  157.6184  130.8636  149.9068 LP  0  0  0  0  0  0  0  0  0  0  0  0  # atno 17371 bound_to 10713
  139.8965  135.0146  156.7057 LP  0  0  0  0  0  0  0  0  0  0  0  0  # atno 17394 bound_to 11000
  140.7132  133.9205  155.8098 LP  0  0  0  0  0  0  0  0  0  0  0  0  # atno 17395 bound_to 11000

$$$$
