AV-unprocessed.smi:908|AV-procd|sdf|4114|dock7
  -GOLD-   22720 2 13D 1   1.00000     0.00000
 Structure written by MMmdl.
 38 38  0  0  0  0  0  0  0  0  1 V2000
  152.3314  138.6374  154.5195 C   0  0  0  0  0  0  0  0  0  0  0  0
  151.1599  137.6912  154.8026 C   0  0  0  0  0  0  0  0  0  0  0  0
  149.8037  138.3039  154.4176 C   0  0  0  0  0  0  0  0  0  0  0  0
  149.4027  139.3463  155.3552 N   0  0  0  0  0  0  0  0  0  0  0  0
  149.2269  140.6390  155.0425 C   0  0  0  0  0  0  0  0  0  0  0  0
  149.4126  141.0919  153.9118 O   0  0  0  0  0  0  0  0  0  0  0  0
  148.7953  141.5575  156.1920 C   0  0  0  0  0  0  0  0  0  0  0  0
  149.8932  142.3744  156.7012 N   0  0  0  0  0  0  0  0  0  0  0  0
  150.8816  141.9348  157.4979 C   0  0  0  0  0  0  0  0  0  0  0  0
  150.9709  140.7682  157.8798 O   0  0  0  0  0  0  0  0  0  0  0  0
  151.9178  142.9673  157.9529 C   0  0  0  0  0  0  0  0  0  0  0  0
  152.5857  142.5691  159.1842 N   0  0  0  0  0  0  0  0  0  0  0  0
  153.1886  141.3536  159.2390 N   0  0  0  0  0  0  0  0  0  0  0  0
  153.7074  141.2710  160.4546 C   0  0  0  0  0  0  0  0  0  0  0  0
  154.4638  140.0416  160.8666 C   0  0  0  0  0  0  0  0  0  0  0  0
  153.4338  142.4514  161.1931 C   0  0  0  0  0  0  0  0  0  0  0  0
  153.9199  142.7855  162.8157 Cl  0  0  0  0  0  0  0  0  0  0  0  0
  152.7155  143.2707  160.3735 C   0  0  0  0  0  0  0  0  0  0  0  0
  152.1460  144.6353  160.5927 C   0  0  0  0  0  0  0  0  0  0  0  0
  153.2785  138.1790  154.8050 H   0  0  0  0  0  0  0  0  0  0  0  0
  152.2301  139.5682  155.0781 H   0  0  0  0  0  0  0  0  0  0  0  0
  152.3885  138.8862  153.4594 H   0  0  0  0  0  0  0  0  0  0  0  0
  151.3150  136.7599  154.2561 H   0  0  0  0  0  0  0  0  0  0  0  0
  151.1569  137.4303  155.8617 H   0  0  0  0  0  0  0  0  0  0  0  0
  149.8667  138.7498  153.4246 H   0  0  0  0  0  0  0  0  0  0  0  0
  149.0351  137.5308  154.3625 H   0  0  0  0  0  0  0  0  0  0  0  0
  149.2341  139.0613  156.3091 H   0  0  0  0  0  0  0  0  0  0  0  0
  147.9670  142.1950  155.8767 H   0  0  0  0  0  0  0  0  0  0  0  0
  148.4214  140.9391  157.0081 H   0  0  0  0  0  0  0  0  0  0  0  0
  149.8916  143.3501  156.4423 H   0  0  0  0  0  0  0  0  0  0  0  0
  152.6583  143.1104  157.1657 H   0  0  0  0  0  0  0  0  0  0  0  0
  151.4353  143.9334  158.1098 H   0  0  0  0  0  0  0  0  0  0  0  0
  154.5270  139.9614  161.9517 H   0  0  0  0  0  0  0  0  0  0  0  0
  155.4809  140.0605  160.4753 H   0  0  0  0  0  0  0  0  0  0  0  0
  153.9804  139.1366  160.4974 H   0  0  0  0  0  0  0  0  0  0  0  0
  152.3718  144.9994  161.5948 H   0  0  0  0  0  0  0  0  0  0  0  0
  151.0620  144.6264  160.4784 H   0  0  0  0  0  0  0  0  0  0  0  0
  152.5574  145.3488  159.8789 H   0  0  0  0  0  0  0  0  0  0  0  0
  1  2  1  0  0  0  0
  1 20  1  0  0  0  0
  1 21  1  0  0  0  0
  1 22  1  0  0  0  0
  2  3  1  0  0  0  0
  2 23  1  0  0  0  0
  2 24  1  0  0  0  0
  3  4  1  0  0  0  0
  3 25  1  0  0  0  0
  3 26  1  0  0  0  0
  4  5  1  0  0  0  0
  4 27  1  0  0  0  0
  5  6  2  0  0  0  0
  5  7  1  0  0  0  0
  7  8  1  0  0  0  0
  7 28  1  0  0  0  0
  7 29  1  0  0  0  0
  8  9  1  0  0  0  0
  8 30  1  0  0  0  0
  9 10  2  0  0  0  0
  9 11  1  0  0  0  0
 11 12  1  0  0  0  0
 11 31  1  0  0  0  0
 11 32  1  0  0  0  0
 12 18  1  0  0  0  0
 12 13  1  0  0  0  0
 13 14  2  0  0  0  0
 14 15  1  0  0  0  0
 14 16  1  0  0  0  0
 15 33  1  0  0  0  0
 15 34  1  0  0  0  0
 15 35  1  0  0  0  0
 16 17  1  0  0  0  0
 16 18  2  0  0  0  0
 18 19  1  0  0  0  0
 19 36  1  0  0  0  0
 19 37  1  0  0  0  0
 19 38  1  0  0  0  0
M  END
> <s_m_source_file>
AV-unprocessed.smi

> <i_m_source_file_index>
908

> <i_lp_mmshare_version>
43012

> <i_f3d_flags>
0

> <s_epik_input>
W0NIM11bQ0gyXVtDSDJdW05IXUMoPU8pW0NIMl1bTkhdQyg9TylbQ0gyXW4xbmMoW0NIM10pYyhDbCljMVtDSDNd

> <s_epik_cmdline>
J2VwaWtfcHl0aG9uJywgJy1waCcsICc3LjAnLCAnLXRuJywgJzgnLCAnLW1hJywgJzIwMCcsICctbWV0YWxfYmluZGluZycsICctaW1hZScsICc8aW5maWxlLm1hZT4nLCAnLW9tYWUnLCAnPG91dGZpbGUubWFlPic=

> <r_lp_tautomer_probability>
1

> <r_epik_Ionization_Penalty>
3.40177e-06

> <r_epik_Ionization_Penalty_Charging>
0

> <r_epik_Ionization_Penalty_Neutral>
3.40177e-06

> <r_epik_State_Penalty>
-0

> <r_epik_Charging_Adjusted_Penalty>
0

> <i_epik_Tot_Q>
0

> <i_epik_Tot_abs_Q>
0

> <r_epik_Metal_State_Penalty>
-0

> <b_epik_Metal_Only>
0

> <s_lp_Force_Field>
OPLS_2005

> <r_lp_Energy>
0.427377

> <b_lp_Chiralities_Consistent>
1

> <s_lp_Variant>
AV-unprocessed.smi:908-1

> <Gold.Version>
5.8.1

> <Gold.Id.Protein>
6NUR|6NUR_protein|mol2

> <Gold.PLP.Fitness>
50.6486

> <Gold.PLP.PLP>
-45.3994

> <Gold.PLP.part.hbond>
-2.9378

> <Gold.PLP.part.metal>
0.0000

> <Gold.PLP.part.buried>
-5.9086

> <Gold.PLP.part.nonpolar>
-38.6905

> <Gold.PLP.part.repulsive>
1.9974

> <Gold.PLP.ligand.clash>
0.0000

> <Gold.PLP.ligand.torsion>
0.7216

> <Gold.PLP.Chemscore.Hbond>
2.2080

> <Gold.PLP.Chemscore.CHOScore>
0.0000

> <Gold.PLP.Chemscore.Metal>
0.0000

> <Gold.Chemscore.Hbonds>
donor molecule, donor type, donor heavy atom, donor atom, acceptor molecule, acceptor atom, score
      L1  H     8    30       P1  8028  0.91
      P1  H  7989  7998       L1     6  0.18
      P1  H  8011  8017       L1     6  0.76

> <Gold.PLP.Chemscore.Internal.Correction>
0.0685

> <Gold.Rescore>
     Score         DG    S(hbond)    S(metal)    S(lipo)     H(rot)  DE(clash)    DE(int)     intcor
     15.12     -18.53       1.89        0.00     104.23       2.13       1.10       2.31       ----

> <Gold.Chemscore.Fitness>
15.1229

> <Gold.Chemscore.DG>
-18.5297

> <Gold.Chemscore.ZeroCoef>
-5.4800

> <Gold.Chemscore.Hbond>
1.8881

> <Gold.Chemscore.Metal>
0.0000

> <Gold.Chemscore.Lipo>
104.2345

> <Gold.Chemscore.Internal_Hbond>
0.0000

> <Gold.Chemscore.DEClash>
1.0963

> <Gold.Chemscore.DEInternal>
2.3106

> <Gold.Chemscore.Rot>
2.1297

> <Gold.Chemscore.Internal.Correction>
   9.000000E+99

> <Gold.Chemscore.Hbonds>
donor molecule, donor type, donor heavy atom, donor atom, acceptor molecule, acceptor atom, score
      L1  H     8    30       P1  8028  0.88
      P1  H  7989  7998       L1     6  0.11
      P1  H  8011  8017       L1     6  0.71

> <Gold.Chemscore.Hbond.Weighted>
-6.3063

> <Gold.Chemscore.Metal.Weighted>
-0.0000

> <Gold.Chemscore.Lipo.Weighted>
-12.1954

> <Gold.Chemscore.Internal_Hbond.Weighted>
0.0000

> <Gold.Chemscore.DEClash.Weighted>
1.0963

> <Gold.Chemscore.DEInternal.Weighted>
2.3106

> <Gold.Chemscore.Rot.Weighted>
5.4520

> <Gold.Chemscore.Internal.Correction.Weighted>
   9.000000E+99

> <Gold.Protein.RotatedTorsions>
[ 6907 6896 6895 6894 ] final  -29.79 input  -60.11 | X-H torsion
[ 7974 7965 7964 7962 ] final   34.92 input  175.53 | X-H torsion
[ 8008 7997 7996 7995 ] final  -61.30 input   59.86 | X-H torsion
[ 10167 10162 10161 10158 ] final -165.78 input  -65.29 | X-H torsion
[ 10718 10713 10712 10709 ] final -108.45 input   66.30 | X-H torsion
[ 10763 10752 10751 10750 ] final -126.88 input  -60.55 | X-H torsion
[ 11005 11000 10999 10996 ] final  112.98 input  -57.11 | X-H torsion

> <Gold.Protein.ActiveResidues>
 VAL166  LYS551  ARG553  GLY616  TRP617  ASP618  TYR619  PRO620  LYS621  CYS622 
 ASP623  PHE694  ASN695  SER759  ASP760  ASP761  ALA762  ILE779  LEU786  VAL792 
 PHE793  MET794  SER795  GLU796  ALA797  LYS798  CYS799  TRP800  GLU811  SER814 

> <Gold.Protein.RotatedAtoms>
  151.1144  135.0044  159.8508 H   0  0  0  0  0  0  0  0  0  0  0  0  # atno 6907 bound_to 6896
  152.5445  134.1797  159.8640 H   0  0  0  0  0  0  0  0  0  0  0  0  # atno 6908 bound_to 6896
  151.1850  133.4657  159.2627 H   0  0  0  0  0  0  0  0  0  0  0  0  # atno 6909 bound_to 6896
  146.1319  139.6208  142.9221 H   0  0  0  0  0  0  0  0  0  0  0  0  # atno 7974 bound_to 7965
  154.4441  140.1020  156.6410 H   0  0  0  0  0  0  0  0  0  0  0  0  # atno 8008 bound_to 7997
  155.5502  140.3485  155.4448 H   0  0  0  0  0  0  0  0  0  0  0  0  # atno 8009 bound_to 7997
  156.0534  140.1309  157.0013 H   0  0  0  0  0  0  0  0  0  0  0  0  # atno 8010 bound_to 7997
  139.6159  144.0721  152.1887 H   0  0  0  0  0  0  0  0  0  0  0  0  # atno 10167 bound_to 10162
  156.0486  130.5713  150.7963 H   0  0  0  0  0  0  0  0  0  0  0  0  # atno 10718 bound_to 10713
  154.8749  135.3980  154.3503 H   0  0  0  0  0  0  0  0  0  0  0  0  # atno 10763 bound_to 10752
  153.4289  135.7024  153.6249 H   0  0  0  0  0  0  0  0  0  0  0  0  # atno 10764 bound_to 10752
  153.4879  135.3755  155.2446 H   0  0  0  0  0  0  0  0  0  0  0  0  # atno 10765 bound_to 10752
  139.8941  134.9541  156.6669 H   0  0  0  0  0  0  0  0  0  0  0  0  # atno 11005 bound_to 11000
  145.5241  141.0430  143.2419 LP  0  0  0  0  0  0  0  0  0  0  0  0  # atno 17320 bound_to 7965
  144.7699  139.6758  143.7199 LP  0  0  0  0  0  0  0  0  0  0  0  0  # atno 17321 bound_to 7965
  140.0351  144.6051  150.7456 LP  0  0  0  0  0  0  0  0  0  0  0  0  # atno 17342 bound_to 10162
  140.7350  143.2736  151.3811 LP  0  0  0  0  0  0  0  0  0  0  0  0  # atno 17343 bound_to 10162
  157.5389  131.0940  150.9855 LP  0  0  0  0  0  0  0  0  0  0  0  0  # atno 17370 bound_to 10713
  157.0142  130.5648  149.5324 LP  0  0  0  0  0  0  0  0  0  0  0  0  # atno 17371 bound_to 10713
  140.7404  133.8983  155.8274 LP  0  0  0  0  0  0  0  0  0  0  0  0  # atno 17394 bound_to 11000
  141.0082  134.1056  157.4248 LP  0  0  0  0  0  0  0  0  0  0  0  0  # atno 17395 bound_to 11000

$$$$
