AV-unprocessed.smi:35|AV-procd|sdf|249|dock10
  -GOLD-   2262016 13D 1   1.00000     0.00000
 Structure written by MMmdl.
 29 30  0  0  0  0  0  0  0  0  1 V2000
  153.6252  139.1301  160.3440 O   0  0  0  0  0  0  0  0  0  0  0  0
  153.1593  139.1612  159.2070 C   0  0  0  0  0  0  0  0  0  0  0  0
  153.2215  138.0306  158.3870 N   0  0  0  0  0  0  0  0  0  0  0  0
  152.7291  137.9445  157.0828 C   0  0  0  0  0  0  0  0  0  0  0  0
  152.8272  136.8879  156.4606 O   0  0  0  0  0  0  0  0  0  0  0  0
  152.1242  139.1035  156.5455 N   0  0  0  0  0  0  0  0  0  0  0  0
  151.5701  139.0837  155.1396 C   0  0  2  0  0  0  0  0  0  0  0  0
  150.8326  140.2532  154.9449 O   0  0  0  0  0  0  0  0  0  0  0  0
  149.5771  139.9420  154.3532 C   0  0  2  0  0  0  0  0  0  0  0  0
  148.5627  141.0338  154.7277 C   0  0  0  0  0  0  0  0  0  0  0  0
  148.9465  142.2778  154.1820 O   0  0  0  0  0  0  0  0  0  0  0  0
  149.2604  138.5488  154.9032 C   0  0  1  0  0  0  0  0  0  0  0  0
  148.3169  137.8434  154.1184 O   0  0  0  0  0  0  0  0  0  0  0  0
  150.6323  137.8798  154.9433 C   0  0  1  0  0  0  0  0  0  0  0  0
  150.9374  137.1891  153.7447 O   0  0  0  0  0  0  0  0  0  0  0  0
  152.0323  140.2476  157.3261 C   0  0  0  0  0  0  0  0  0  0  0  0
  152.5112  140.3131  158.5901 C   0  0  0  0  0  0  0  0  0  0  0  0
  152.2793  142.0381  159.5359 Br  0  0  0  0  0  0  0  0  0  0  0  0
  153.6567  137.2046  158.7718 H   0  0  0  0  0  0  0  0  0  0  0  0
  152.4161  139.0984  154.4505 H   0  0  0  0  0  0  0  0  0  0  0  0
  149.7212  139.9010  153.2718 H   0  0  0  0  0  0  0  0  0  0  0  0
  147.5613  140.7739  154.3835 H   0  0  0  0  0  0  0  0  0  0  0  0
  148.5126  141.1391  155.8117 H   0  0  0  0  0  0  0  0  0  0  0  0
  148.7201  142.9588  154.7973 H   0  0  0  0  0  0  0  0  0  0  0  0
  148.8750  138.6347  155.9199 H   0  0  0  0  0  0  0  0  0  0  0  0
  148.7549  137.5164  153.3470 H   0  0  0  0  0  0  0  0  0  0  0  0
  150.7154  137.1777  155.7741 H   0  0  0  0  0  0  0  0  0  0  0  0
  150.1580  137.1560  153.2116 H   0  0  0  0  0  0  0  0  0  0  0  0
  151.5593  141.1281  156.9172 H   0  0  0  0  0  0  0  0  0  0  0  0
  1  2  2  0  0  0  0
  2 17  1  0  0  0  0
  2  3  1  0  0  0  0
  3 19  1  0  0  0  0
  3  4  1  0  0  0  0
  4  5  2  0  0  0  0
  4  6  1  0  0  0  0
  6  7  1  0  0  0  0
  6 16  1  0  0  0  0
  7 14  1  0  0  0  0
  7  8  1  0  0  0  0
  7 20  1  0  0  0  0
  8  9  1  0  0  0  0
  9 10  1  0  0  0  0
  9 12  1  0  0  0  0
  9 21  1  0  0  0  0
 10 11  1  0  0  0  0
 10 22  1  0  0  0  0
 10 23  1  0  0  0  0
 11 24  1  0  0  0  0
 12 13  1  0  0  0  0
 12 14  1  0  0  0  0
 12 25  1  0  0  0  0
 13 26  1  0  0  0  0
 14 15  1  0  0  0  0
 14 27  1  0  0  0  0
 15 28  1  0  0  0  0
 16 17  2  0  0  0  0
 16 29  1  0  0  0  0
 17 18  1  0  0  0  0
M  END
> <s_m_source_file>
AV-unprocessed.smi

> <i_m_source_file_index>
35

> <i_lp_mmshare_version>
43012

> <i_f3d_flags>
0

> <s_epik_input>
Tz1jMVtuSF1jKD1PKW4oW2NIXWMxQnIpW0NAQEhdMk9bQ0BASF0oW0NIMl1bT0hdKVtDQEBIXShbT0hdKVtDQEhdMltPSF0=

> <s_epik_cmdline>
J2VwaWtfcHl0aG9uJywgJy1waCcsICc3LjAnLCAnLXRuJywgJzgnLCAnLW1hJywgJzIwMCcsICctbWV0YWxfYmluZGluZycsICctaW1hZScsICc8aW5maWxlLm1hZT4nLCAnLW9tYWUnLCAnPG91dGZpbGUubWFlPic=

> <r_lp_tautomer_probability>
0.999537

> <r_epik_Ionization_Penalty>
0.10812

> <r_epik_Ionization_Penalty_Charging>
0.108119

> <r_epik_Ionization_Penalty_Neutral>
4.93006e-07

> <r_epik_State_Penalty>
0.0979238

> <r_epik_Charging_Adjusted_Penalty>
0.206043

> <i_epik_Tot_Q>
0

> <i_epik_Tot_abs_Q>
0

> <r_epik_Metal_State_Penalty>
3.07911

> <b_epik_Metal_Only>
0

> <s_epik_Chemistry_Notes>
This compound contains an acetal/aminal-like group ( X-CH(R)-Y where X, Y are N, S, or O) that may be acid/base labile, releasing an aldehyde.

> <s_lp_Force_Field>
OPLS_2005

> <r_lp_Energy>
30.5202

> <b_lp_Chiralities_Consistent>
1

> <s_lp_Variant>
AV-unprocessed.smi:35-3

> <Gold.Version>
5.8.1

> <Gold.Id.Protein>
6NUR|6NUR_protein|mol2

> <Gold.PLP.Fitness>
43.6361

> <Gold.PLP.PLP>
-29.0015

> <Gold.PLP.part.hbond>
-7.0000

> <Gold.PLP.part.metal>
0.0000

> <Gold.PLP.part.buried>
-3.2977

> <Gold.PLP.part.nonpolar>
-19.5884

> <Gold.PLP.part.repulsive>
0.1472

> <Gold.PLP.ligand.clash>
0.0000

> <Gold.PLP.ligand.torsion>
0.1626

> <Gold.PLP.Chemscore.Hbond>
4.9840

> <Gold.PLP.Chemscore.CHOScore>
0.0000

> <Gold.PLP.Chemscore.Metal>
0.0000

> <Gold.Chemscore.Hbonds>
donor molecule, donor type, donor heavy atom, donor atom, acceptor molecule, acceptor atom, score
      L1  H    11    24       P1  8028  1.00
      L1  H    13    26       P1  7948  1.00
      L1  H    15    28       P1  7948  0.75
      P1  H  7989  7998       L1     8  0.90
      P1  H  8011  8017       L1    11  0.26
      P1  H 10752 10765       L1     5  0.91

> <Gold.PLP.Chemscore.Internal.Correction>
0.0077

> <Gold.Rescore>
     Score         DG    S(hbond)    S(metal)    S(lipo)     H(rot)  DE(clash)    DE(int)     intcor
     10.93     -12.55       3.29        0.00      46.71       3.67       0.12       1.50       ----

> <Gold.Chemscore.Fitness>
10.9252

> <Gold.Chemscore.DG>
-12.5527

> <Gold.Chemscore.ZeroCoef>
-5.4800

> <Gold.Chemscore.Hbond>
3.2944

> <Gold.Chemscore.Metal>
0.0000

> <Gold.Chemscore.Lipo>
46.7073

> <Gold.Chemscore.Internal_Hbond>
0.0000

> <Gold.Chemscore.DEClash>
0.1243

> <Gold.Chemscore.DEInternal>
1.5031

> <Gold.Chemscore.Rot>
3.6701

> <Gold.Chemscore.Internal.Correction>
   9.000000E+99

> <Gold.Chemscore.Hbonds>
donor molecule, donor type, donor heavy atom, donor atom, acceptor molecule, acceptor atom, score
      L1  H    11    24       P1  8028  0.97
      L1  H    13    26       P1  7948  0.96
      L1  H    15    28       P1  7948  0.09
      P1  H  7989  7998       L1     8  0.05
      P1  H  8011  8017       L1    11  0.22
      P1  H 10752 10765       L1     5  0.88

> <Gold.Chemscore.Hbond.Weighted>
-11.0034

> <Gold.Chemscore.Metal.Weighted>
-0.0000

> <Gold.Chemscore.Lipo.Weighted>
-5.4648

> <Gold.Chemscore.Internal_Hbond.Weighted>
0.0000

> <Gold.Chemscore.DEClash.Weighted>
0.1243

> <Gold.Chemscore.DEInternal.Weighted>
1.5031

> <Gold.Chemscore.Rot.Weighted>
9.3955

> <Gold.Chemscore.Internal.Correction.Weighted>
   9.000000E+99

> <Gold.Protein.RotatedTorsions>
[ 6907 6896 6895 6894 ] final  106.29 input  -60.11 | X-H torsion
[ 7974 7965 7964 7962 ] final   96.11 input  175.53 | X-H torsion
[ 8008 7997 7996 7995 ] final -108.46 input   59.86 | X-H torsion
[ 10167 10162 10161 10158 ] final  -35.58 input  -65.29 | X-H torsion
[ 10718 10713 10712 10709 ] final  120.18 input   66.30 | X-H torsion
[ 10763 10752 10751 10750 ] final -137.65 input  -60.55 | X-H torsion
[ 11005 11000 10999 10996 ] final  -14.72 input  -57.11 | X-H torsion

> <Gold.Protein.ActiveResidues>
 VAL166  LYS551  ARG553  GLY616  TRP617  ASP618  TYR619  PRO620  LYS621  CYS622 
 ASP623  PHE694  ASN695  SER759  ASP760  ASP761  ALA762  ILE779  LEU786  VAL792 
 PHE793  MET794  SER795  GLU796  ALA797  LYS798  CYS799  TRP800  GLU811  SER814 

> <Gold.Protein.RotatedAtoms>
  152.5199  133.9402  159.7622 H   0  0  0  0  0  0  0  0  0  0  0  0  # atno 6907 bound_to 6896
  150.9734  133.6312  159.2741 H   0  0  0  0  0  0  0  0  0  0  0  0  # atno 6908 bound_to 6896
  151.3515  135.0891  159.9457 H   0  0  0  0  0  0  0  0  0  0  0  0  # atno 6909 bound_to 6896
  145.4433  139.2299  143.3080 H   0  0  0  0  0  0  0  0  0  0  0  0  # atno 7974 bound_to 7965
  154.9446  140.0402  157.2114 H   0  0  0  0  0  0  0  0  0  0  0  0  # atno 8008 bound_to 7997
  154.8036  140.2856  155.5881 H   0  0  0  0  0  0  0  0  0  0  0  0  # atno 8009 bound_to 7997
  156.2964  140.2550  156.2910 H   0  0  0  0  0  0  0  0  0  0  0  0  # atno 8010 bound_to 7997
  140.7162  143.3468  151.2240 H   0  0  0  0  0  0  0  0  0  0  0  0  # atno 10167 bound_to 10162
  157.5909  131.1064  150.7999 H   0  0  0  0  0  0  0  0  0  0  0  0  # atno 10718 bound_to 10713
  154.8657  135.3636  154.5257 H   0  0  0  0  0  0  0  0  0  0  0  0  # atno 10763 bound_to 10752
  153.5885  135.7016  153.5438 H   0  0  0  0  0  0  0  0  0  0  0  0  # atno 10764 bound_to 10752
  153.3395  135.4102  155.1522 H   0  0  0  0  0  0  0  0  0  0  0  0  # atno 10765 bound_to 10752
  140.7893  133.8300  155.9364 H   0  0  0  0  0  0  0  0  0  0  0  0  # atno 11005 bound_to 11000
  146.2544  140.5184  142.8879 LP  0  0  0  0  0  0  0  0  0  0  0  0  # atno 17320 bound_to 7965
  144.8108  140.6381  143.6417 LP  0  0  0  0  0  0  0  0  0  0  0  0  # atno 17321 bound_to 7965
  139.6989  143.9567  152.2896 LP  0  0  0  0  0  0  0  0  0  0  0  0  # atno 17342 bound_to 10162
  139.9253  144.6775  150.8419 LP  0  0  0  0  0  0  0  0  0  0  0  0  # atno 17343 bound_to 10162
  156.8422  130.5052  149.5320 LP  0  0  0  0  0  0  0  0  0  0  0  0  # atno 17370 bound_to 10713
  156.0964  130.5935  150.9820 LP  0  0  0  0  0  0  0  0  0  0  0  0  # atno 17371 bound_to 10713
  140.9405  134.1906  157.4801 LP  0  0  0  0  0  0  0  0  0  0  0  0  # atno 17394 bound_to 11000
  139.8733  134.9870  156.5348 LP  0  0  0  0  0  0  0  0  0  0  0  0  # atno 17395 bound_to 11000

$$$$
