AV-unprocessed.smi:671|AV-procd|sdf|3287|dock8
  -GOLD-   22720 0243D 1   1.00000     0.00000
 Structure written by MMmdl.
 50 51  0  0  0  0  0  0  0  0  2 V2000
  147.5146  141.8204  154.1469 C   0  0  0  0  0  0  0  0  0  0  0  0
  148.7630  141.4566  154.8785 C   0  0  0  0  0  0  0  0  0  0  0  0
  149.4255  142.2829  155.7312 N   0  3  0  0  0  0  0  0  0  0  0  0
  150.5054  141.6641  156.2295 N   0  0  0  0  0  0  0  0  0  0  0  0
  151.3626  142.3819  157.1733 C   0  0  0  0  0  0  0  0  0  0  0  0
  150.6038  140.4028  155.7212 C   0  0  0  0  0  0  0  0  0  0  0  0
  151.6924  139.4395  156.0682 C   0  0  0  0  0  0  0  0  0  0  0  0
  149.4996  140.2669  154.8684 C   0  0  0  0  0  0  0  0  0  0  0  0
  149.1405  139.0526  154.0593 C   0  0  0  0  0  0  0  0  0  0  0  0
  147.6173  138.8112  153.9760 C   0  0  2  0  0  0  0  0  0  0  0  0
  146.9440  138.8044  155.3570 C   0  0  0  0  0  0  0  0  0  0  0  0
  147.3464  137.5340  153.3118 N   0  0  0  0  0  0  0  0  0  0  0  0
  146.1559  136.9432  153.0992 C   0  0  0  0  0  0  0  0  0  0  0  0
  145.1023  137.4573  153.4685 O   0  0  0  0  0  0  0  0  0  0  0  0
  146.2224  135.7640  152.4579 N   0  0  0  0  0  0  0  0  0  0  0  0
  145.0854  134.9117  152.1241 C   0  0  1  0  0  0  0  0  0  0  0  0
  144.1412  135.6355  151.1446 C   0  0  0  0  0  0  0  0  0  0  0  0
  144.2270  134.8730  149.8217 C   0  0  0  0  0  0  0  0  0  0  0  0
  144.5765  133.4471  150.2335 C   0  0  0  0  0  0  0  0  0  0  0  0
  145.5442  133.6219  151.4076 C   0  0  2  0  0  0  0  0  0  0  0  0
  145.6171  132.3935  152.3254 C   0  0  0  0  0  0  0  0  0  0  0  0
  146.7033  141.1497  154.4305 H   0  0  0  0  0  0  0  0  0  0  0  0
  147.6715  141.7387  153.0711 H   0  0  0  0  0  0  0  0  0  0  0  0
  147.2153  142.8433  154.3776 H   0  0  0  0  0  0  0  0  0  0  0  0
  151.7208  141.6881  157.9342 H   0  0  0  0  0  0  0  0  0  0  0  0
  150.8003  143.1832  157.6547 H   0  0  0  0  0  0  0  0  0  0  0  0
  152.2116  142.8021  156.6335 H   0  0  0  0  0  0  0  0  0  0  0  0
  151.6853  138.5801  155.3990 H   0  0  0  0  0  0  0  0  0  0  0  0
  151.5628  139.0822  157.0898 H   0  0  0  0  0  0  0  0  0  0  0  0
  152.6651  139.9256  155.9907 H   0  0  0  0  0  0  0  0  0  0  0  0
  149.5463  139.1728  153.0543 H   0  0  0  0  0  0  0  0  0  0  0  0
  149.6336  138.1637  154.4530 H   0  0  0  0  0  0  0  0  0  0  0  0
  147.1569  139.6136  153.3971 H   0  0  0  0  0  0  0  0  0  0  0  0
  147.0533  139.7661  155.8579 H   0  0  0  0  0  0  0  0  0  0  0  0
  147.3726  138.0395  156.0056 H   0  0  0  0  0  0  0  0  0  0  0  0
  145.8752  138.6057  155.2704 H   0  0  0  0  0  0  0  0  0  0  0  0
  148.1551  137.0509  152.9472 H   0  0  0  0  0  0  0  0  0  0  0  0
  147.1342  135.4262  152.1878 H   0  0  0  0  0  0  0  0  0  0  0  0
  144.5187  134.6699  153.0257 H   0  0  0  0  0  0  0  0  0  0  0  0
  143.1206  135.5807  151.5258 H   0  0  0  0  0  0  0  0  0  0  0  0
  144.3760  136.6933  151.0171 H   0  0  0  0  0  0  0  0  0  0  0  0
  143.3039  134.9303  149.2443 H   0  0  0  0  0  0  0  0  0  0  0  0
  145.0290  135.2845  149.2084 H   0  0  0  0  0  0  0  0  0  0  0  0
  143.6724  132.9328  150.5631 H   0  0  0  0  0  0  0  0  0  0  0  0
  145.0089  132.8692  149.4162 H   0  0  0  0  0  0  0  0  0  0  0  0
  146.5357  133.7882  150.9812 H   0  0  0  0  0  0  0  0  0  0  0  0
  144.6471  132.1738  152.7726 H   0  0  0  0  0  0  0  0  0  0  0  0
  146.3289  132.5528  153.1357 H   0  0  0  0  0  0  0  0  0  0  0  0
  145.9370  131.5104  151.7723 H   0  0  0  0  0  0  0  0  0  0  0  0
  149.1966  143.2324  155.9975 H   0  0  0  0  0  0  0  0  0  0  0  0
  1  2  1  0  0  0  0
  1 22  1  0  0  0  0
  1 23  1  0  0  0  0
  1 24  1  0  0  0  0
  2  8  1  0  0  0  0
  2  3  2  0  0  0  0
  3  4  1  0  0  0  0
  3 50  1  0  0  0  0
  4  5  1  0  0  0  0
  4  6  1  0  0  0  0
  5 25  1  0  0  0  0
  5 26  1  0  0  0  0
  5 27  1  0  0  0  0
  6  7  1  0  0  0  0
  6  8  2  0  0  0  0
  7 28  1  0  0  0  0
  7 29  1  0  0  0  0
  7 30  1  0  0  0  0
  8  9  1  0  0  0  0
  9 10  1  0  0  0  0
  9 31  1  0  0  0  0
  9 32  1  0  0  0  0
 10 11  1  0  0  0  0
 10 12  1  0  0  0  0
 10 33  1  0  0  0  0
 11 34  1  0  0  0  0
 11 35  1  0  0  0  0
 11 36  1  0  0  0  0
 12 13  1  0  0  0  0
 12 37  1  0  0  0  0
 13 14  2  0  0  0  0
 13 15  1  0  0  0  0
 15 16  1  0  0  0  0
 15 38  1  0  0  0  0
 16 20  1  0  0  0  0
 16 17  1  0  0  0  0
 16 39  1  0  0  0  0
 17 18  1  0  0  0  0
 17 40  1  0  0  0  0
 17 41  1  0  0  0  0
 18 19  1  0  0  0  0
 18 42  1  0  0  0  0
 18 43  1  0  0  0  0
 19 20  1  0  0  0  0
 19 44  1  0  0  0  0
 19 45  1  0  0  0  0
 20 21  1  0  0  0  0
 20 46  1  0  0  0  0
 21 47  1  0  0  0  0
 21 48  1  0  0  0  0
 21 49  1  0  0  0  0
M  CHG  1   3   1
M  END
> <s_m_source_file>
AV-unprocessed.smi

> <i_m_source_file_index>
671

> <i_lp_mmshare_version>
43012

> <i_f3d_flags>
0

> <s_epik_input>
W0NIM11jMW5uKFtDSDNdKWMoW0NIM10pYzFbQ0gyXVtDQEhdKFtDSDNdKVtOSF1DKD1PKVtOSF1bQ0BASF0yW0NIMl1bQ0gyXVtDSDJdW0NASF0yW0NIM10=

> <s_epik_cmdline>
J2VwaWtfcHl0aG9uJywgJy1waCcsICc3LjAnLCAnLXRuJywgJzgnLCAnLW1hJywgJzIwMCcsICctbWV0YWxfYmluZGluZycsICctaW1hZScsICc8aW5maWxlLm1hZT4nLCAnLW9tYWUnLCAnPG91dGZpbGUubWFlPic=

> <r_lp_tautomer_probability>
1

> <r_epik_Ionization_Penalty>
2.28705

> <r_epik_Ionization_Penalty_Charging>
2.28698

> <r_epik_Ionization_Penalty_Neutral>
6.23157e-05

> <r_epik_State_Penalty>
2.43671

> <r_epik_Charging_Adjusted_Penalty>
4.72369

> <i_epik_Tot_Q>
1

> <i_epik_Tot_abs_Q>
1

> <r_epik_Metal_State_Penalty>
2.44911

> <b_epik_Metal_Only>
0

> <s_lp_Force_Field>
OPLS_2005

> <r_lp_Energy>
34.681

> <b_lp_Chiralities_Consistent>
1

> <s_lp_Variant>
AV-unprocessed.smi:671-15

> <Gold.Version>
5.8.1

> <Gold.Id.Protein>
6NUR|6NUR_protein|mol2

> <Gold.PLP.Fitness>
45.6767

> <Gold.PLP.PLP>
-35.2934

> <Gold.PLP.part.hbond>
-2.7159

> <Gold.PLP.part.metal>
0.0000

> <Gold.PLP.part.buried>
-2.6532

> <Gold.PLP.part.nonpolar>
-30.8659

> <Gold.PLP.part.repulsive>
0.3515

> <Gold.PLP.ligand.clash>
0.0000

> <Gold.PLP.ligand.torsion>
0.3920

> <Gold.PLP.Chemscore.Hbond>
3.7185

> <Gold.PLP.Chemscore.CHOScore>
0.0000

> <Gold.PLP.Chemscore.Metal>
0.0000

> <Gold.Chemscore.Hbonds>
donor molecule, donor type, donor heavy atom, donor atom, acceptor molecule, acceptor atom, score
      L1  H     3    50       P1  8028  2.00
      L1  H    12    37       P1  7948  1.00
      L1  H    15    38       P1  7948  0.75

> <Gold.PLP.Chemscore.Internal.Correction>
0.0119

> <Gold.Rescore>
     Score         DG    S(hbond)    S(metal)    S(lipo)     H(rot)  DE(clash)    DE(int)     intcor
     18.85     -20.75       2.73        0.00      85.60       1.51       0.39       1.51       ----

> <Gold.Chemscore.Fitness>
18.8516

> <Gold.Chemscore.DG>
-20.7538

> <Gold.Chemscore.ZeroCoef>
-5.4800

> <Gold.Chemscore.Hbond>
2.7284

> <Gold.Chemscore.Metal>
0.0000

> <Gold.Chemscore.Lipo>
85.6048

> <Gold.Chemscore.Internal_Hbond>
0.0000

> <Gold.Chemscore.DEClash>
0.3924

> <Gold.Chemscore.DEInternal>
1.5098

> <Gold.Chemscore.Rot>
1.5057

> <Gold.Chemscore.Internal.Correction>
   9.000000E+99

> <Gold.Chemscore.Hbonds>
donor molecule, donor type, donor heavy atom, donor atom, acceptor molecule, acceptor atom, score
      L1  H     3    50       P1  8028  0.92
      L1  H    12    37       P1  7948  0.95
      L1  H    15    38       P1  7948  0.74

> <Gold.Chemscore.Hbond.Weighted>
-9.1128

> <Gold.Chemscore.Metal.Weighted>
-0.0000

> <Gold.Chemscore.Lipo.Weighted>
-10.0158

> <Gold.Chemscore.Internal_Hbond.Weighted>
0.0000

> <Gold.Chemscore.DEClash.Weighted>
0.3924

> <Gold.Chemscore.DEInternal.Weighted>
1.5098

> <Gold.Chemscore.Rot.Weighted>
3.8547

> <Gold.Chemscore.Internal.Correction.Weighted>
   9.000000E+99

> <Gold.Protein.RotatedTorsions>
[ 6907 6896 6895 6894 ] final   34.73 input  -60.11 | X-H torsion
[ 7974 7965 7964 7962 ] final  -16.03 input  175.53 | X-H torsion
[ 8008 7997 7996 7995 ] final  171.57 input   59.86 | X-H torsion
[ 10167 10162 10161 10158 ] final  129.70 input  -65.29 | X-H torsion
[ 10718 10713 10712 10709 ] final  125.19 input   66.30 | X-H torsion
[ 10763 10752 10751 10750 ] final   77.15 input  -60.55 | X-H torsion
[ 11005 11000 10999 10996 ] final  -63.25 input  -57.11 | X-H torsion

> <Gold.Protein.ActiveResidues>
 VAL166  LYS551  ARG553  GLY616  TRP617  ASP618  TYR619  PRO620  LYS621  CYS622 
 ASP623  PHE694  ASN695  SER759  ASP760  ASP761  ALA762  ILE779  LEU786  VAL792 
 PHE793  MET794  SER795  GLU796  ALA797  LYS798  CYS799  TRP800  GLU811  SER814 

> <Gold.Protein.RotatedAtoms>
  152.1064  134.9305  160.0567 H   0  0  0  0  0  0  0  0  0  0  0  0  # atno 6907 bound_to 6896
  152.0500  133.4010  159.4381 H   0  0  0  0  0  0  0  0  0  0  0  0  # atno 6908 bound_to 6896
  150.6841  134.3239  159.4842 H   0  0  0  0  0  0  0  0  0  0  0  0  # atno 6909 bound_to 6896
  146.2006  140.3578  142.8425 H   0  0  0  0  0  0  0  0  0  0  0  0  # atno 7974 bound_to 7965
  156.1258  140.1508  156.9138 H   0  0  0  0  0  0  0  0  0  0  0  0  # atno 8008 bound_to 7997
  154.4870  140.0862  156.7550 H   0  0  0  0  0  0  0  0  0  0  0  0  # atno 8009 bound_to 7997
  155.4346  140.3428  155.4286 H   0  0  0  0  0  0  0  0  0  0  0  0  # atno 8010 bound_to 7997
  139.5465  144.6778  151.4456 H   0  0  0  0  0  0  0  0  0  0  0  0  # atno 10167 bound_to 10162
  157.5523  131.1093  150.8680 H   0  0  0  0  0  0  0  0  0  0  0  0  # atno 10718 bound_to 10713
  153.0777  135.4925  154.8439 H   0  0  0  0  0  0  0  0  0  0  0  0  # atno 10763 bound_to 10752
  154.7110  135.3020  154.9200 H   0  0  0  0  0  0  0  0  0  0  0  0  # atno 10764 bound_to 10752
  153.9894  135.6780  153.4806 H   0  0  0  0  0  0  0  0  0  0  0  0  # atno 10765 bound_to 10752
  141.1387  133.6649  156.5651 H   0  0  0  0  0  0  0  0  0  0  0  0  # atno 11005 bound_to 11000
  144.8674  140.7226  143.6068 LP  0  0  0  0  0  0  0  0  0  0  0  0  # atno 17320 bound_to 7965
  145.3497  139.1709  143.4441 LP  0  0  0  0  0  0  0  0  0  0  0  0  # atno 17321 bound_to 7965
  140.6715  143.8283  150.7005 LP  0  0  0  0  0  0  0  0  0  0  0  0  # atno 17342 bound_to 10162
  140.1709  143.4195  152.2001 LP  0  0  0  0  0  0  0  0  0  0  0  0  # atno 17343 bound_to 10162
  156.9202  130.5312  149.5279 LP  0  0  0  0  0  0  0  0  0  0  0  0  # atno 17370 bound_to 10713
  156.0588  130.5644  150.9148 LP  0  0  0  0  0  0  0  0  0  0  0  0  # atno 17371 bound_to 10713
  140.3957  134.7401  157.4749 LP  0  0  0  0  0  0  0  0  0  0  0  0  # atno 17394 bound_to 11000
  140.0533  134.6099  155.8835 LP  0  0  0  0  0  0  0  0  0  0  0  0  # atno 17395 bound_to 11000

$$$$
