AV-unprocessed.smi:3165|AV-procd|sdf|12088|dock5
  -GOLD-   2272017523D 1   1.00000     0.00000
 Structure written by MMmdl.
 38 39  0  0  0  0  0  0  0  0  2 V2000
  146.8947  142.1100  155.0159 C   0  0  0  0  0  0  0  0  0  0  0  0
  148.1449  141.3948  155.5454 C   0  0  1  0  0  0  0  0  0  0  0  0
  149.1687  141.1705  154.4126 C   0  0  0  0  0  0  0  0  0  0  0  0
  149.9011  139.9250  154.5535 N   0  0  0  0  0  0  0  0  0  0  0  0
  149.4311  138.6345  154.4306 C   0  0  0  0  0  0  0  0  0  0  0  0
  150.4822  137.7960  154.6685 C   0  0  0  0  0  0  0  0  0  0  0  0
  151.5680  138.6786  154.9271 C   0  0  0  0  0  0  0  0  0  0  0  0
  151.2172  139.9525  154.8563 N   0  0  0  0  0  0  0  0  0  0  0  0
  148.7369  142.1861  156.6479 N   0  3  0  0  0  0  0  0  0  0  0  0
  149.8661  141.5352  157.3449 C   0  0  0  0  0  0  0  0  0  0  0  0
  150.5581  142.5123  158.3046 C   0  0  1  0  0  0  0  0  0  0  0  0
  151.6225  141.8082  159.1683 C   0  0  0  0  0  0  0  0  0  0  0  0
  152.3727  142.8243  160.0369 C   0  0  0  0  0  0  0  0  0  0  0  0
  152.9258  143.9478  159.1543 C   0  0  0  0  0  0  0  0  0  0  0  0
  151.8061  144.5450  158.2879 C   0  0  0  0  0  0  0  0  0  0  0  0
  151.1918  143.5178  157.5159 O   0  0  0  0  0  0  0  0  0  0  0  0
  146.4215  141.5359  154.2188 H   0  0  0  0  0  0  0  0  0  0  0  0
  147.1385  143.0952  154.6163 H   0  0  0  0  0  0  0  0  0  0  0  0
  146.1548  142.2442  155.8057 H   0  0  0  0  0  0  0  0  0  0  0  0
  147.8245  140.4248  155.9301 H   0  0  0  0  0  0  0  0  0  0  0  0
  148.6597  141.1497  153.4479 H   0  0  0  0  0  0  0  0  0  0  0  0
  149.8792  141.9979  154.3684 H   0  0  0  0  0  0  0  0  0  0  0  0
  148.3993  138.4225  154.1914 H   0  0  0  0  0  0  0  0  0  0  0  0
  150.4769  136.7161  154.6585 H   0  0  0  0  0  0  0  0  0  0  0  0
  152.5931  138.4338  155.1633 H   0  0  0  0  0  0  0  0  0  0  0  0
  149.0569  143.0654  156.2663 H   0  0  0  0  0  0  0  0  0  0  0  0
  149.4809  140.6754  157.8943 H   0  0  0  0  0  0  0  0  0  0  0  0
  150.5900  141.1543  156.6239 H   0  0  0  0  0  0  0  0  0  0  0  0
  149.8096  142.9729  158.9524 H   0  0  0  0  0  0  0  0  0  0  0  0
  151.1581  141.0503  159.7999 H   0  0  0  0  0  0  0  0  0  0  0  0
  152.3327  141.2867  158.5252 H   0  0  0  0  0  0  0  0  0  0  0  0
  151.6960  143.2422  160.7835 H   0  0  0  0  0  0  0  0  0  0  0  0
  153.1806  142.3363  160.5826 H   0  0  0  0  0  0  0  0  0  0  0  0
  153.3818  144.7228  159.7708 H   0  0  0  0  0  0  0  0  0  0  0  0
  153.7138  143.5548  158.5105 H   0  0  0  0  0  0  0  0  0  0  0  0
  151.0598  145.0457  158.9065 H   0  0  0  0  0  0  0  0  0  0  0  0
  152.2152  145.2963  157.6122 H   0  0  0  0  0  0  0  0  0  0  0  0
  148.0177  142.3761  157.3310 H   0  0  0  0  0  0  0  0  0  0  0  0
  1  2  1  0  0  0  0
  1 17  1  0  0  0  0
  1 18  1  0  0  0  0
  1 19  1  0  0  0  0
  2  3  1  0  0  0  0
  2  9  1  0  0  0  0
  2 20  1  0  0  0  0
  3  4  1  0  0  0  0
  3 21  1  0  0  0  0
  3 22  1  0  0  0  0
  4  8  1  0  0  0  0
  4  5  1  0  0  0  0
  5  6  2  0  0  0  0
  5 23  1  0  0  0  0
  6  7  1  0  0  0  0
  6 24  1  0  0  0  0
  7  8  2  0  0  0  0
  7 25  1  0  0  0  0
  9 10  1  0  0  0  0
  9 26  1  0  0  0  0
  9 38  1  0  0  0  0
 10 11  1  0  0  0  0
 10 27  1  0  0  0  0
 10 28  1  0  0  0  0
 11 16  1  0  0  0  0
 11 12  1  0  0  0  0
 11 29  1  0  0  0  0
 12 13  1  0  0  0  0
 12 30  1  0  0  0  0
 12 31  1  0  0  0  0
 13 14  1  0  0  0  0
 13 32  1  0  0  0  0
 13 33  1  0  0  0  0
 14 15  1  0  0  0  0
 14 34  1  0  0  0  0
 14 35  1  0  0  0  0
 15 16  1  0  0  0  0
 15 36  1  0  0  0  0
 15 37  1  0  0  0  0
M  CHG  1   9   1
M  END
> <s_m_source_file>
AV-unprocessed.smi

> <i_m_source_file_index>
3165

> <i_lp_mmshare_version>
43012

> <i_f3d_flags>
0

> <s_epik_input>
bjFbY0hdW2NIXVtjSF1uMVtDSDJdW0NAQEhdKFtDSDNdKVtOSF1bQ0gyXVtDQEBIXTJbQ0gyXVtDSDJdW0NIMl1bQ0gyXU8y

> <s_epik_cmdline>
J2VwaWtfcHl0aG9uJywgJy1waCcsICc3LjAnLCAnLXRuJywgJzgnLCAnLW1hJywgJzIwMCcsICctbWV0YWxfYmluZGluZycsICctaW1hZScsICc8aW5maWxlLm1hZT4nLCAnLW9tYWUnLCAnPG91dGZpbGUubWFlPic=

> <r_lp_tautomer_probability>
1

> <r_epik_Ionization_Penalty>
0.00849196

> <r_epik_Ionization_Penalty_Charging>
0.00848754

> <r_epik_Ionization_Penalty_Neutral>
4.42049e-06

> <r_epik_State_Penalty>
0.00639836

> <r_epik_Charging_Adjusted_Penalty>
0.0148859

> <i_epik_Tot_Q>
1

> <i_epik_Tot_abs_Q>
1

> <r_epik_Metal_State_Penalty>
0.00639878

> <b_epik_Metal_Only>
0

> <s_lp_Force_Field>
OPLS_2005

> <r_lp_Energy>
13.0452

> <b_lp_Chiralities_Consistent>
1

> <s_lp_Variant>
AV-unprocessed.smi:3165-4

> <Gold.Version>
5.8.1

> <Gold.Id.Protein>
6NUR|6NUR_protein|mol2

> <Gold.PLP.Fitness>
46.4191

> <Gold.PLP.PLP>
-38.5441

> <Gold.PLP.part.hbond>
-2.0000

> <Gold.PLP.part.metal>
0.0000

> <Gold.PLP.part.buried>
-5.0084

> <Gold.PLP.part.nonpolar>
-32.4251

> <Gold.PLP.part.repulsive>
0.2253

> <Gold.PLP.ligand.clash>
0.0000

> <Gold.PLP.ligand.torsion>
0.5867

> <Gold.PLP.Chemscore.Hbond>
3.0000

> <Gold.PLP.Chemscore.CHOScore>
0.0000

> <Gold.PLP.Chemscore.Metal>
0.0000

> <Gold.Chemscore.Hbonds>
donor molecule, donor type, donor heavy atom, donor atom, acceptor molecule, acceptor atom, score
      L1  H     9    26       P1  8028  2.00
      P1  H  7989  7998       L1     8  0.75

> <Gold.PLP.Chemscore.Internal.Correction>
0.0484

> <Gold.Rescore>
     Score         DG    S(hbond)    S(metal)    S(lipo)     H(rot)  DE(clash)    DE(int)     intcor
     18.46     -19.04       1.94        0.00      96.42       1.64       0.00       0.59       ----

> <Gold.Chemscore.Fitness>
18.4551

> <Gold.Chemscore.DG>
-19.0449

> <Gold.Chemscore.ZeroCoef>
-5.4800

> <Gold.Chemscore.Hbond>
1.9442

> <Gold.Chemscore.Metal>
0.0000

> <Gold.Chemscore.Lipo>
96.4173

> <Gold.Chemscore.Internal_Hbond>
0.0000

> <Gold.Chemscore.DEClash>
0.0000

> <Gold.Chemscore.DEInternal>
0.5897

> <Gold.Chemscore.Rot>
1.6444

> <Gold.Chemscore.Internal.Correction>
   9.000000E+99

> <Gold.Chemscore.Hbonds>
donor molecule, donor type, donor heavy atom, donor atom, acceptor molecule, acceptor atom, score
      L1  H     9    26       P1  8028  0.98
      P1  H  7989  7998       L1     8  0.09

> <Gold.Chemscore.Hbond.Weighted>
-6.4937

> <Gold.Chemscore.Metal.Weighted>
-0.0000

> <Gold.Chemscore.Lipo.Weighted>
-11.2808

> <Gold.Chemscore.Internal_Hbond.Weighted>
0.0000

> <Gold.Chemscore.DEClash.Weighted>
0.0000

> <Gold.Chemscore.DEInternal.Weighted>
0.5897

> <Gold.Chemscore.Rot.Weighted>
4.2097

> <Gold.Chemscore.Internal.Correction.Weighted>
   9.000000E+99

> <Gold.Protein.RotatedTorsions>
[ 6907 6896 6895 6894 ] final   88.08 input  -60.11 | X-H torsion
[ 7974 7965 7964 7962 ] final  131.39 input  175.53 | X-H torsion
[ 8008 7997 7996 7995 ] final -147.34 input   59.86 | X-H torsion
[ 10167 10162 10161 10158 ] final  -83.98 input  -65.29 | X-H torsion
[ 10718 10713 10712 10709 ] final  124.32 input   66.30 | X-H torsion
[ 10763 10752 10751 10750 ] final -169.59 input  -60.55 | X-H torsion
[ 11005 11000 10999 10996 ] final  -97.23 input  -57.11 | X-H torsion

> <Gold.Protein.ActiveResidues>
 VAL166  LYS551  ARG553  GLY616  TRP617  ASP618  TYR619  PRO620  LYS621  CYS622 
 ASP623  PHE694  ASN695  SER759  ASP760  ASP761  ALA762  ILE779  LEU786  VAL792 
 PHE793  MET794  SER795  GLU796  ALA797  LYS798  CYS799  TRP800  GLU811  SER814 

> <Gold.Protein.RotatedAtoms>
  152.5420  134.2177  159.8774 H   0  0  0  0  0  0  0  0  0  0  0  0  # atno 6907 bound_to 6896
  151.2156  133.4524  159.2607 H   0  0  0  0  0  0  0  0  0  0  0  0  # atno 6908 bound_to 6896
  151.0855  134.9897  159.8433 H   0  0  0  0  0  0  0  0  0  0  0  0  # atno 6909 bound_to 6896
  145.0078  139.4249  143.5260 H   0  0  0  0  0  0  0  0  0  0  0  0  # atno 7974 bound_to 7965
  155.5740  140.0637  157.2799 H   0  0  0  0  0  0  0  0  0  0  0  0  # atno 8008 bound_to 7997
  154.4352  140.1864  156.0954 H   0  0  0  0  0  0  0  0  0  0  0  0  # atno 8009 bound_to 7997
  156.0355  140.3301  155.7190 H   0  0  0  0  0  0  0  0  0  0  0  0  # atno 8010 bound_to 7997
  140.4176  143.2597  151.8934 H   0  0  0  0  0  0  0  0  0  0  0  0  # atno 10167 bound_to 10162
  157.5594  131.1090  150.8565 H   0  0  0  0  0  0  0  0  0  0  0  0  # atno 10718 bound_to 10713
  154.6507  135.2911  154.9990 H   0  0  0  0  0  0  0  0  0  0  0  0  # atno 10763 bound_to 10752
  154.1084  135.6566  153.4884 H   0  0  0  0  0  0  0  0  0  0  0  0  # atno 10764 bound_to 10752
  153.0375  135.5259  154.7414 H   0  0  0  0  0  0  0  0  0  0  0  0  # atno 10765 bound_to 10752
  141.1385  133.8156  157.0679 H   0  0  0  0  0  0  0  0  0  0  0  0  # atno 11005 bound_to 11000
  146.3464  139.9504  142.8729 LP  0  0  0  0  0  0  0  0  0  0  0  0  # atno 17320 bound_to 7965
  145.2065  140.9877  143.4125 LP  0  0  0  0  0  0  0  0  0  0  0  0  # atno 17321 bound_to 7965
  139.4782  144.5472  151.8440 LP  0  0  0  0  0  0  0  0  0  0  0  0  # atno 17342 bound_to 10162
  140.4570  144.1776  150.5902 LP  0  0  0  0  0  0  0  0  0  0  0  0  # atno 17343 bound_to 10162
  156.9067  130.5266  149.5281 LP  0  0  0  0  0  0  0  0  0  0  0  0  # atno 17370 bound_to 10713
  156.0649  130.5694  150.9267 LP  0  0  0  0  0  0  0  0  0  0  0  0  # atno 17371 bound_to 10713
  140.0530  134.9795  157.1170 LP  0  0  0  0  0  0  0  0  0  0  0  0  # atno 17394 bound_to 11000
  140.3961  134.2132  155.7164 LP  0  0  0  0  0  0  0  0  0  0  0  0  # atno 17395 bound_to 11000

$$$$
