AV-unprocessed.smi:2412|AV-procd|sdf|9532|dock5
  -GOLD-   2272013163D 1   1.00000     0.00000
 Structure written by MMmdl.
 37 38  0  0  0  0  0  0  0  0  1 V2000
  147.7492  133.1207  152.4573 C   0  0  0  0  0  0  0  0  0  0  0  0
  146.4192  133.1651  151.7254 C   0  0  0  0  0  0  0  0  0  0  0  0
  145.7631  131.9622  151.3855 C   0  0  0  0  0  0  0  0  0  0  0  0
  144.5795  131.9141  150.7403 N   0  0  0  0  0  0  0  0  0  0  0  0
  143.9959  133.0843  150.4106 C   0  0  0  0  0  0  0  0  0  0  0  0
  144.5604  134.3414  150.7009 C   0  0  0  0  0  0  0  0  0  0  0  0
  145.8104  134.3917  151.3642 C   0  0  0  0  0  0  0  0  0  0  0  0
  146.4565  135.6090  151.7227 N   0  0  0  0  0  0  0  0  0  0  0  0
  145.9154  136.7403  152.2071 C   0  0  0  0  0  0  0  0  0  0  0  0
  144.7149  136.9337  152.3991 O   0  0  0  0  0  0  0  0  0  0  0  0
  146.8584  137.6638  152.4475 N   0  0  0  0  0  0  0  0  0  0  0  0
  146.6105  138.9942  153.0006 C   0  0  0  0  0  0  0  0  0  0  0  0
  146.8468  139.0778  154.5203 C   0  0  0  0  0  0  0  0  0  0  0  0
  146.1350  138.4303  155.2906 O   0  0  0  0  0  0  0  0  0  0  0  0
  147.8514  139.8606  154.9659 N   0  0  0  0  0  0  0  0  0  0  0  0
  148.2228  140.0629  156.3664 C   0  0  0  0  0  0  0  0  0  0  0  0
  149.5275  140.8603  156.3384 C   0  0  0  0  0  0  0  0  0  0  0  0
  149.4936  141.5884  155.0022 C   0  0  0  0  0  0  0  0  0  0  0  0
  148.7107  140.6491  154.0849 C   0  0  0  0  0  0  0  0  0  0  0  0
  148.0775  132.0940  152.6215 H   0  0  0  0  0  0  0  0  0  0  0  0
  147.6652  133.6072  153.4294 H   0  0  0  0  0  0  0  0  0  0  0  0
  148.5197  133.6315  151.8790 H   0  0  0  0  0  0  0  0  0  0  0  0
  146.1981  131.0069  151.6406 H   0  0  0  0  0  0  0  0  0  0  0  0
  143.0437  133.0179  149.9054 H   0  0  0  0  0  0  0  0  0  0  0  0
  144.0195  135.2326  150.4230 H   0  0  0  0  0  0  0  0  0  0  0  0
  147.4487  135.6377  151.5407 H   0  0  0  0  0  0  0  0  0  0  0  0
  147.8206  137.4227  152.2603 H   0  0  0  0  0  0  0  0  0  0  0  0
  147.2785  139.6966  152.5018 H   0  0  0  0  0  0  0  0  0  0  0  0
  145.5915  139.3031  152.7633 H   0  0  0  0  0  0  0  0  0  0  0  0
  147.4376  140.6330  156.8649 H   0  0  0  0  0  0  0  0  0  0  0  0
  148.3567  139.1229  156.9031 H   0  0  0  0  0  0  0  0  0  0  0  0
  149.6277  141.5376  157.1870 H   0  0  0  0  0  0  0  0  0  0  0  0
  150.3754  140.1743  156.3571 H   0  0  0  0  0  0  0  0  0  0  0  0
  148.9509  142.5281  155.1133 H   0  0  0  0  0  0  0  0  0  0  0  0
  150.4884  141.8201  154.6205 H   0  0  0  0  0  0  0  0  0  0  0  0
  149.3877  139.9760  153.5569 H   0  0  0  0  0  0  0  0  0  0  0  0
  148.1393  141.2074  153.3413 H   0  0  0  0  0  0  0  0  0  0  0  0
  1  2  1  0  0  0  0
  1 20  1  0  0  0  0
  1 21  1  0  0  0  0
  1 22  1  0  0  0  0
  2  7  1  0  0  0  0
  2  3  2  0  0  0  0
  3  4  1  0  0  0  0
  3 23  1  0  0  0  0
  4  5  2  0  0  0  0
  5  6  1  0  0  0  0
  5 24  1  0  0  0  0
  6  7  2  0  0  0  0
  6 25  1  0  0  0  0
  7  8  1  0  0  0  0
  8  9  1  0  0  0  0
  8 26  1  0  0  0  0
  9 10  2  0  0  0  0
  9 11  1  0  0  0  0
 11 12  1  0  0  0  0
 11 27  1  0  0  0  0
 12 13  1  0  0  0  0
 12 28  1  0  0  0  0
 12 29  1  0  0  0  0
 13 14  2  0  0  0  0
 13 15  1  0  0  0  0
 15 19  1  0  0  0  0
 15 16  1  0  0  0  0
 16 17  1  0  0  0  0
 16 30  1  0  0  0  0
 16 31  1  0  0  0  0
 17 18  1  0  0  0  0
 17 32  1  0  0  0  0
 17 33  1  0  0  0  0
 18 19  1  0  0  0  0
 18 34  1  0  0  0  0
 18 35  1  0  0  0  0
 19 36  1  0  0  0  0
 19 37  1  0  0  0  0
M  END
> <s_m_source_file>
AV-unprocessed.smi

> <i_m_source_file_index>
2412

> <i_lp_mmshare_version>
43012

> <i_f3d_flags>
0

> <s_epik_input>
W0NIM11jMVtjSF1uW2NIXVtjSF1jMVtOSF1DKD1PKVtOSF1bQ0gyXUMoPU8pTjJbQ0gyXVtDSDJdW0NIMl1bQ0gyXTI=

> <s_epik_cmdline>
J2VwaWtfcHl0aG9uJywgJy1waCcsICc3LjAnLCAnLXRuJywgJzgnLCAnLW1hJywgJzIwMCcsICctbWV0YWxfYmluZGluZycsICctaW1hZScsICc8aW5maWxlLm1hZT4nLCAnLW9tYWUnLCAnPG91dGZpbGUubWFlPic=

> <r_epik_Ionization_Penalty>
0.157619

> <r_epik_Ionization_Penalty_Charging>
0

> <r_epik_Ionization_Penalty_Neutral>
0.157619

> <r_epik_State_Penalty>
0.146889

> <r_epik_Charging_Adjusted_Penalty>
0.146889

> <i_epik_Tot_Q>
0

> <i_epik_Tot_abs_Q>
0

> <r_epik_Metal_State_Penalty>
0.115729

> <b_epik_Metal_Only>
0

> <s_lp_Force_Field>
OPLS_2005

> <r_lp_Energy>
29.7149

> <b_lp_Chiralities_Consistent>
1

> <s_lp_Variant>
AV-unprocessed.smi:2412-1

> <Gold.Version>
5.8.1

> <Gold.Id.Protein>
6NUR|6NUR_protein|mol2

> <Gold.PLP.Fitness>
36.1215

> <Gold.PLP.PLP>
-28.2064

> <Gold.PLP.part.hbond>
-2.0000

> <Gold.PLP.part.metal>
0.0000

> <Gold.PLP.part.buried>
-3.7483

> <Gold.PLP.part.nonpolar>
-24.0808

> <Gold.PLP.part.repulsive>
0.5130

> <Gold.PLP.ligand.clash>
0.0000

> <Gold.PLP.ligand.torsion>
0.5072

> <Gold.PLP.Chemscore.Hbond>
1.9760

> <Gold.PLP.Chemscore.CHOScore>
1.0000

> <Gold.PLP.Chemscore.Metal>
0.0000

> <Gold.Chemscore.Hbonds>
donor molecule, donor type, donor heavy atom, donor atom, acceptor molecule, acceptor atom, score
      L1  H     8    26       P1  7948  1.00
      L1  H    11    27       P1  7948  0.98
      L1  C     5    24       P1 10186  1.00

> <Gold.PLP.Chemscore.Internal.Correction>
0.0014

> <Gold.Rescore>
     Score         DG    S(hbond)    S(metal)    S(lipo)     H(rot)  DE(clash)    DE(int)     intcor
     16.09     -16.70       1.87        0.00      70.17       1.26       0.14       0.47       ----

> <Gold.Chemscore.Fitness>
16.0880

> <Gold.Chemscore.DG>
-16.7014

> <Gold.Chemscore.ZeroCoef>
-5.4800

> <Gold.Chemscore.Hbond>
1.8699

> <Gold.Chemscore.Metal>
0.0000

> <Gold.Chemscore.Lipo>
70.1700

> <Gold.Chemscore.Internal_Hbond>
0.0000

> <Gold.Chemscore.DEClash>
0.1446

> <Gold.Chemscore.DEInternal>
0.4688

> <Gold.Chemscore.Rot>
1.2633

> <Gold.Chemscore.Internal.Correction>
   9.000000E+99

> <Gold.Chemscore.Hbonds>
donor molecule, donor type, donor heavy atom, donor atom, acceptor molecule, acceptor atom, score
      L1  H     8    26       P1  7948  0.93
      L1  H    11    27       P1  7948  0.93

> <Gold.Chemscore.Hbond.Weighted>
-6.2456

> <Gold.Chemscore.Metal.Weighted>
-0.0000

> <Gold.Chemscore.Lipo.Weighted>
-8.2099

> <Gold.Chemscore.Internal_Hbond.Weighted>
0.0000

> <Gold.Chemscore.DEClash.Weighted>
0.1446

> <Gold.Chemscore.DEInternal.Weighted>
0.4688

> <Gold.Chemscore.Rot.Weighted>
3.2341

> <Gold.Chemscore.Internal.Correction.Weighted>
   9.000000E+99

> <Gold.Protein.RotatedTorsions>
[ 6907 6896 6895 6894 ] final   49.38 input  -60.11 | X-H torsion
[ 7974 7965 7964 7962 ] final   99.15 input  175.53 | X-H torsion
[ 8008 7997 7996 7995 ] final   84.91 input   59.86 | X-H torsion
[ 10167 10162 10161 10158 ] final  -19.01 input  -65.29 | X-H torsion
[ 10718 10713 10712 10709 ] final    8.61 input   66.30 | X-H torsion
[ 10763 10752 10751 10750 ] final  146.19 input  -60.55 | X-H torsion
[ 11005 11000 10999 10996 ] final  -78.09 input  -57.11 | X-H torsion

> <Gold.Protein.ActiveResidues>
 VAL166  LYS551  ARG553  GLY616  TRP617  ASP618  TYR619  PRO620  LYS621  CYS622 
 ASP623  PHE694  ASN695  SER759  ASP760  ASP761  ALA762  ILE779  LEU786  VAL792 
 PHE793  MET794  SER795  GLU796  ALA797  LYS798  CYS799  TRP800  GLU811  SER814 

> <Gold.Protein.RotatedAtoms>
  152.2901  134.7731  160.0379 H   0  0  0  0  0  0  0  0  0  0  0  0  # atno 6907 bound_to 6896
  151.8280  133.3399  159.3612 H   0  0  0  0  0  0  0  0  0  0  0  0  # atno 6908 bound_to 6896
  150.7227  134.5439  159.5805 H   0  0  0  0  0  0  0  0  0  0  0  0  # atno 6909 bound_to 6896
  145.4027  139.2345  143.3291 H   0  0  0  0  0  0  0  0  0  0  0  0  # atno 7974 bound_to 7965
  155.9433  140.3406  155.6345 H   0  0  0  0  0  0  0  0  0  0  0  0  # atno 8008 bound_to 7997
  155.7013  140.0760  157.2427 H   0  0  0  0  0  0  0  0  0  0  0  0  # atno 8009 bound_to 7997
  154.4107  140.1639  156.2181 H   0  0  0  0  0  0  0  0  0  0  0  0  # atno 8010 bound_to 7997
  140.7264  143.4861  151.0054 H   0  0  0  0  0  0  0  0  0  0  0  0  # atno 10167 bound_to 10162
  156.9541  130.5908  149.5658 H   0  0  0  0  0  0  0  0  0  0  0  0  # atno 10718 bound_to 10713
  154.0178  135.2908  155.3384 H   0  0  0  0  0  0  0  0  0  0  0  0  # atno 10763 bound_to 10752
  154.7064  135.5167  153.8605 H   0  0  0  0  0  0  0  0  0  0  0  0  # atno 10764 bound_to 10752
  153.0694  135.6642  154.0403 H   0  0  0  0  0  0  0  0  0  0  0  0  # atno 10765 bound_to 10752
  141.1663  133.7049  156.7920 H   0  0  0  0  0  0  0  0  0  0  0  0  # atno 11005 bound_to 11000
  146.2744  140.4727  142.8801 LP  0  0  0  0  0  0  0  0  0  0  0  0  # atno 17320 bound_to 7965
  144.8362  140.6786  143.6258 LP  0  0  0  0  0  0  0  0  0  0  0  0  # atno 17321 bound_to 7965
  139.8562  143.7374  152.3176 LP  0  0  0  0  0  0  0  0  0  0  0  0  # atno 17342 bound_to 10162
  139.7573  144.7517  151.0416 LP  0  0  0  0  0  0  0  0  0  0  0  0  # atno 17343 bound_to 10162
  156.0350  130.5438  150.8630 LP  0  0  0  0  0  0  0  0  0  0  0  0  # atno 17370 bound_to 10713
  157.5702  131.0946  150.9429 LP  0  0  0  0  0  0  0  0  0  0  0  0  # atno 17371 bound_to 10713
  140.2318  134.8680  157.3485 LP  0  0  0  0  0  0  0  0  0  0  0  0  # atno 17394 bound_to 11000
  140.1883  134.4404  155.7731 LP  0  0  0  0  0  0  0  0  0  0  0  0  # atno 17395 bound_to 11000

$$$$
