AV-unprocessed.smi:2816|AV-procd|sdf|10844|dock10
  -GOLD-   2272015283D 1   1.00000     0.00000
 Structure written by MMmdl.
 43 45  0  0  0  0  0  0  0  0  1 V2000
  151.4538  129.2547  154.9986 C   0  0  0  0  0  0  0  0  0  0  0  0
  151.0324  129.6376  156.4280 C   0  0  0  0  0  0  0  0  0  0  0  0
  149.5512  129.2737  156.6392 C   0  0  0  0  0  0  0  0  0  0  0  0
  151.9186  128.8932  157.4431 C   0  0  0  0  0  0  0  0  0  0  0  0
  151.2741  131.4739  156.6175 S   0  0  0  0  0  0  0  0  0  0  0  0
  150.7487  131.8621  157.9362 O   0  0  0  0  0  0  0  0  0  0  0  0
  152.6694  131.7964  156.2785 O   0  0  0  0  0  0  0  0  0  0  0  0
  150.2287  132.2383  155.3756 C   0  0  0  0  0  0  0  0  0  0  0  0
  149.9230  133.6116  155.4599 C   0  0  0  0  0  0  0  0  0  0  0  0
  149.0633  134.1608  154.4906 C   0  0  0  0  0  0  0  0  0  0  0  0
  148.5349  133.3179  153.4839 C   0  0  0  0  0  0  0  0  0  0  0  0
  147.6652  133.7657  152.4788 N   0  0  0  0  0  0  0  0  0  0  0  0
  146.6161  132.9072  151.9402 C   0  0  2  0  0  0  0  0  0  0  0  0
  146.5029  132.9357  150.4114 C   0  0  0  0  0  0  0  0  0  0  0  0
  145.0177  133.2686  150.2122 C   0  0  2  0  0  0  0  0  0  0  0  0
  144.7300  134.7465  150.5027 C   0  0  0  0  0  0  0  0  0  0  0  0
  144.8531  134.7918  152.0243 C   0  0  0  0  0  0  0  0  0  0  0  0
  145.1974  133.3302  152.3620 C   0  0  1  0  0  0  0  0  0  0  0  0
  144.4465  132.6636  151.3608 O   0  0  0  0  0  0  0  0  0  0  0  0
  148.9071  131.9563  153.5039 C   0  0  0  0  0  0  0  0  0  0  0  0
  149.7289  131.4166  154.4282 N   0  0  0  0  0  0  0  0  0  0  0  0
  151.3332  128.1857  154.8206 H   0  0  0  0  0  0  0  0  0  0  0  0
  152.4995  129.5026  154.8135 H   0  0  0  0  0  0  0  0  0  0  0  0
  150.8555  129.7824  154.2552 H   0  0  0  0  0  0  0  0  0  0  0  0
  148.9021  129.8352  155.9668 H   0  0  0  0  0  0  0  0  0  0  0  0
  149.2265  129.4743  157.6595 H   0  0  0  0  0  0  0  0  0  0  0  0
  149.3774  128.2137  156.4514 H   0  0  0  0  0  0  0  0  0  0  0  0
  151.8389  127.8129  157.3174 H   0  0  0  0  0  0  0  0  0  0  0  0
  151.6319  129.1208  158.4697 H   0  0  0  0  0  0  0  0  0  0  0  0
  152.9694  129.1599  157.3265 H   0  0  0  0  0  0  0  0  0  0  0  0
  150.3307  134.2297  156.2457 H   0  0  0  0  0  0  0  0  0  0  0  0
  148.8216  135.2117  154.5369 H   0  0  0  0  0  0  0  0  0  0  0  0
  147.8867  134.6162  151.9809 H   0  0  0  0  0  0  0  0  0  0  0  0
  146.7793  131.8830  152.2777 H   0  0  0  0  0  0  0  0  0  0  0  0
  147.1521  133.6717  149.9345 H   0  0  0  0  0  0  0  0  0  0  0  0
  146.7420  131.9556  149.9971 H   0  0  0  0  0  0  0  0  0  0  0  0
  144.6081  132.9166  149.2652 H   0  0  0  0  0  0  0  0  0  0  0  0
  145.4307  135.4141  150.0002 H   0  0  0  0  0  0  0  0  0  0  0  0
  143.7194  135.0146  150.1928 H   0  0  0  0  0  0  0  0  0  0  0  0
  145.6045  135.5019  152.3693 H   0  0  0  0  0  0  0  0  0  0  0  0
  143.8984  135.0720  152.4709 H   0  0  0  0  0  0  0  0  0  0  0  0
  144.9372  133.0411  153.3806 H   0  0  0  0  0  0  0  0  0  0  0  0
  148.5272  131.2738  152.7576 H   0  0  0  0  0  0  0  0  0  0  0  0
  1  2  1  0  0  0  0
  1 22  1  0  0  0  0
  1 23  1  0  0  0  0
  1 24  1  0  0  0  0
  2  3  1  0  0  0  0
  2  4  1  0  0  0  0
  2  5  1  0  0  0  0
  3 25  1  0  0  0  0
  3 26  1  0  0  0  0
  3 27  1  0  0  0  0
  4 28  1  0  0  0  0
  4 29  1  0  0  0  0
  4 30  1  0  0  0  0
  5  6  2  0  0  0  0
  5  7  2  0  0  0  0
  5  8  1  0  0  0  0
  8 21  1  0  0  0  0
  8  9  2  0  0  0  0
  9 10  1  0  0  0  0
  9 31  1  0  0  0  0
 10 11  2  0  0  0  0
 10 32  1  0  0  0  0
 11 12  1  0  0  0  0
 11 20  1  0  0  0  0
 12 13  1  0  0  0  0
 12 33  1  0  0  0  0
 13 18  1  0  0  0  0
 13 14  1  0  0  0  0
 13 34  1  0  0  0  0
 14 15  1  0  0  0  0
 14 35  1  0  0  0  0
 14 36  1  0  0  0  0
 15 19  1  0  0  0  0
 15 16  1  0  0  0  0
 15 37  1  0  0  0  0
 16 17  1  0  0  0  0
 16 38  1  0  0  0  0
 16 39  1  0  0  0  0
 17 18  1  0  0  0  0
 17 40  1  0  0  0  0
 17 41  1  0  0  0  0
 18 19  1  0  0  0  0
 18 42  1  0  0  0  0
 20 21  2  0  0  0  0
 20 43  1  0  0  0  0
M  END
> <s_m_source_file>
AV-unprocessed.smi

> <i_m_source_file_index>
2816

> <i_lp_mmshare_version>
43012

> <i_f3d_flags>
0

> <s_epik_input>
W0NIM11DKFtDSDNdKShbQ0gzXSlTKD1PKSg9TyljMVtjSF1bY0hdYyhbY0hdbjEpW05IXVtDQEhdKFtDSDJdW0NAQEhdMjMpW0NAQEhdKE8zKVtDSDJdW0NIMl0y

> <s_epik_cmdline>
J2VwaWtfcHl0aG9uJywgJy1waCcsICc3LjAnLCAnLXRuJywgJzgnLCAnLW1hJywgJzIwMCcsICctbWV0YWxfYmluZGluZycsICctaW1hZScsICc8aW5maWxlLm1hZT4nLCAnLW9tYWUnLCAnPG91dGZpbGUubWFlPic=

> <r_lp_tautomer_probability>
1

> <r_epik_Ionization_Penalty>
1.94439e-07

> <r_epik_Ionization_Penalty_Charging>
0

> <r_epik_Ionization_Penalty_Neutral>
1.94439e-07

> <r_epik_State_Penalty>
-0

> <r_epik_Charging_Adjusted_Penalty>
0

> <i_epik_Tot_Q>
0

> <i_epik_Tot_abs_Q>
0

> <r_epik_Metal_State_Penalty>
-0

> <b_epik_Metal_Only>
0

> <s_lp_Force_Field>
OPLS_2005

> <r_lp_Energy>
43.8741

> <b_lp_Chiralities_Consistent>
1

> <s_lp_Variant>
AV-unprocessed.smi:2816-3

> <Gold.Version>
5.8.1

> <Gold.Id.Protein>
6NUR|6NUR_protein|mol2

> <Gold.PLP.Fitness>
38.3380

> <Gold.PLP.PLP>
-30.5857

> <Gold.PLP.part.hbond>
-1.9749

> <Gold.PLP.part.metal>
0.0000

> <Gold.PLP.part.buried>
-0.7885

> <Gold.PLP.part.nonpolar>
-26.5542

> <Gold.PLP.part.repulsive>
0.1928

> <Gold.PLP.ligand.clash>
0.0000

> <Gold.PLP.ligand.torsion>
1.6753

> <Gold.PLP.Chemscore.Hbond>
1.9760

> <Gold.PLP.Chemscore.CHOScore>
0.9842

> <Gold.PLP.Chemscore.Metal>
0.0000

> <Gold.Chemscore.Hbonds>
donor molecule, donor type, donor heavy atom, donor atom, acceptor molecule, acceptor atom, score
      L1  H    12    33       P1  7948  0.98
      P1  H  6896  6908       L1     6  0.96
      L1  C    20    43       P1 10747  0.99

> <Gold.PLP.Chemscore.Internal.Correction>
2.2222

> <Gold.Rescore>
     Score         DG    S(hbond)    S(metal)    S(lipo)     H(rot)  DE(clash)    DE(int)     intcor
     13.60     -16.53       1.79        0.00      68.36       1.15       0.02       2.91       ----

> <Gold.Chemscore.Fitness>
13.6038

> <Gold.Chemscore.DG>
-16.5306

> <Gold.Chemscore.ZeroCoef>
-5.4800

> <Gold.Chemscore.Hbond>
1.7931

> <Gold.Chemscore.Metal>
0.0000

> <Gold.Chemscore.Lipo>
68.3603

> <Gold.Chemscore.Internal_Hbond>
0.0000

> <Gold.Chemscore.DEClash>
0.0203

> <Gold.Chemscore.DEInternal>
2.9065

> <Gold.Chemscore.Rot>
1.1471

> <Gold.Chemscore.Internal.Correction>
   9.000000E+99

> <Gold.Chemscore.Hbonds>
donor molecule, donor type, donor heavy atom, donor atom, acceptor molecule, acceptor atom, score
      L1  H    12    33       P1  7948  0.28
      P1  H  6896  6908       L1     6  0.91

> <Gold.Chemscore.Hbond.Weighted>
-5.9890

> <Gold.Chemscore.Metal.Weighted>
-0.0000

> <Gold.Chemscore.Lipo.Weighted>
-7.9982

> <Gold.Chemscore.Internal_Hbond.Weighted>
0.0000

> <Gold.Chemscore.DEClash.Weighted>
0.0203

> <Gold.Chemscore.DEInternal.Weighted>
2.9065

> <Gold.Chemscore.Rot.Weighted>
2.9366

> <Gold.Chemscore.Internal.Correction.Weighted>
   9.000000E+99

> <Gold.Protein.RotatedTorsions>
[ 6907 6896 6895 6894 ] final   83.41 input  -60.11 | X-H torsion
[ 7974 7965 7964 7962 ] final -106.55 input  175.53 | X-H torsion
[ 8008 7997 7996 7995 ] final -128.94 input   59.86 | X-H torsion
[ 10167 10162 10161 10158 ] final  -43.02 input  -65.29 | X-H torsion
[ 10718 10713 10712 10709 ] final -101.20 input   66.30 | X-H torsion
[ 10763 10752 10751 10750 ] final   20.53 input  -60.55 | X-H torsion
[ 11005 11000 10999 10996 ] final -173.15 input  -57.11 | X-H torsion

> <Gold.Protein.ActiveResidues>
 VAL166  LYS551  ARG553  GLY616  TRP617  ASP618  TYR619  PRO620  LYS621  CYS622 
 ASP623  PHE694  ASN695  SER759  ASP760  ASP761  ALA762  ILE779  LEU786  VAL792 
 PHE793  MET794  SER795  GLU796  ALA797  LYS798  CYS799  TRP800  GLU811  SER814 

> <Gold.Protein.RotatedAtoms>
  152.5326  134.2899  159.9038 H   0  0  0  0  0  0  0  0  0  0  0  0  # atno 6907 bound_to 6896
  151.2852  133.4184  159.2637 H   0  0  0  0  0  0  0  0  0  0  0  0  # atno 6908 bound_to 6896
  151.0249  134.9512  159.8136 H   0  0  0  0  0  0  0  0  0  0  0  0  # atno 6909 bound_to 6896
  145.2165  140.9117  143.3284 H   0  0  0  0  0  0  0  0  0  0  0  0  # atno 7974 bound_to 7965
  155.2710  140.0440  157.3007 H   0  0  0  0  0  0  0  0  0  0  0  0  # atno 8008 bound_to 7997
  154.5653  140.2358  155.8241 H   0  0  0  0  0  0  0  0  0  0  0  0  # atno 8009 bound_to 7997
  156.2080  140.3007  155.9677 H   0  0  0  0  0  0  0  0  0  0  0  0  # atno 8010 bound_to 7997
  140.6949  143.3006  151.3292 H   0  0  0  0  0  0  0  0  0  0  0  0  # atno 10167 bound_to 10162
  156.0187  130.5363  150.6929 H   0  0  0  0  0  0  0  0  0  0  0  0  # atno 10718 bound_to 10713
  153.1070  135.6687  153.9569 H   0  0  0  0  0  0  0  0  0  0  0  0  # atno 10763 bound_to 10752
  153.9123  135.3024  155.3450 H   0  0  0  0  0  0  0  0  0  0  0  0  # atno 10764 bound_to 10752
  154.7491  135.5043  153.9333 H   0  0  0  0  0  0  0  0  0  0  0  0  # atno 10765 bound_to 10752
  140.4890  134.6003  157.4947 H   0  0  0  0  0  0  0  0  0  0  0  0  # atno 11005 bound_to 11000
  144.9806  139.3787  143.6264 LP  0  0  0  0  0  0  0  0  0  0  0  0  # atno 17320 bound_to 7965
  146.3386  139.8945  142.8804 LP  0  0  0  0  0  0  0  0  0  0  0  0  # atno 17321 bound_to 7965
  139.6392  144.0572  152.2541 LP  0  0  0  0  0  0  0  0  0  0  0  0  # atno 17342 bound_to 10162
  140.0071  144.6251  150.7679 LP  0  0  0  0  0  0  0  0  0  0  0  0  # atno 17343 bound_to 10162
  157.4606  131.0883  151.0749 LP  0  0  0  0  0  0  0  0  0  0  0  0  # atno 17370 bound_to 10713
  157.1238  130.6073  149.5512 LP  0  0  0  0  0  0  0  0  0  0  0  0  # atno 17371 bound_to 10713
  139.9780  134.7183  155.9912 LP  0  0  0  0  0  0  0  0  0  0  0  0  # atno 17394 bound_to 11000
  141.1493  133.6551  156.3965 LP  0  0  0  0  0  0  0  0  0  0  0  0  # atno 17395 bound_to 11000

$$$$
