AV-unprocessed.smi:2424|AV-procd|sdf|9567|dock2
  -GOLD-   2272013193D 1   1.00000     0.00000
 Structure written by MMmdl.
 49 50  0  0  0  0  0  0  0  0  2 V2000
  150.5055  139.2018  155.0569 C   0  0  0  0  0  0  0  0  0  0  0  0
  149.2838  138.9669  154.1539 C   0  0  0  0  0  0  0  0  0  0  0  0
  147.9170  139.3472  154.7824 C   0  0  0  0  0  0  0  0  0  0  0  0
  147.8944  140.8767  155.0248 C   0  0  0  0  0  0  0  0  0  0  0  0
  147.7599  141.7426  153.7608 C   0  0  0  0  0  0  0  0  0  0  0  0
  146.6288  138.8008  154.0988 C   0  0  1  0  0  0  0  0  0  0  0  0
  146.8504  137.5784  153.3235 N   0  0  0  0  0  0  0  0  0  0  0  0
  145.8917  136.7821  152.8338 C   0  0  0  0  0  0  0  0  0  0  0  0
  144.6898  136.9852  153.0040 O   0  0  0  0  0  0  0  0  0  0  0  0
  146.4307  135.7643  152.1401 N   0  0  0  0  0  0  0  0  0  0  0  0
  145.7813  134.7094  151.4867 C   0  0  0  0  0  0  0  0  0  0  0  0
  144.8806  134.9671  150.4733 C   0  0  0  0  0  0  0  0  0  0  0  0
  144.1632  134.0933  149.7346 N   0  5  0  0  0  0  0  0  0  0  0  0
  144.3166  132.7618  149.9864 C   0  0  0  0  0  0  0  0  0  0  0  0
  143.6915  131.9079  149.3584 O   0  0  0  0  0  0  0  0  0  0  0  0
  145.2606  132.3405  151.0412 C   0  0  0  0  0  0  0  0  0  0  0  0
  145.4399  130.8561  151.3098 C   0  0  0  0  0  0  0  0  0  0  0  0
  145.9453  133.2786  151.7421 C   0  0  0  0  0  0  0  0  0  0  0  0
  146.0408  138.4990  155.4878 C   0  0  1  0  0  0  0  0  0  0  0  0
  145.1257  137.2976  155.7161 C   0  0  0  0  0  0  0  0  0  0  0  0
  147.4844  138.5205  156.0245 C   0  0  1  0  0  0  0  0  0  0  0  0
  148.0816  137.2280  156.0407 O   0  0  0  0  0  0  0  0  0  0  0  0
  147.6675  136.4364  157.1411 C   0  0  0  0  0  0  0  0  0  0  0  0
  151.4039  138.7917  154.5951 H   0  0  0  0  0  0  0  0  0  0  0  0
  150.3837  138.7169  156.0258 H   0  0  0  0  0  0  0  0  0  0  0  0
  150.6902  140.2618  155.2277 H   0  0  0  0  0  0  0  0  0  0  0  0
  149.4292  139.4795  153.2036 H   0  0  0  0  0  0  0  0  0  0  0  0
  149.2993  137.9098  153.8896 H   0  0  0  0  0  0  0  0  0  0  0  0
  147.0595  141.1331  155.6767 H   0  0  0  0  0  0  0  0  0  0  0  0
  148.7738  141.1937  155.5845 H   0  0  0  0  0  0  0  0  0  0  0  0
  147.6261  142.7904  154.0303 H   0  0  0  0  0  0  0  0  0  0  0  0
  146.9011  141.4472  153.1586 H   0  0  0  0  0  0  0  0  0  0  0  0
  148.6485  141.6868  153.1329 H   0  0  0  0  0  0  0  0  0  0  0  0
  146.0572  139.5657  153.5713 H   0  0  0  0  0  0  0  0  0  0  0  0
  147.8114  137.3325  153.1359 H   0  0  0  0  0  0  0  0  0  0  0  0
  147.4376  135.7505  152.0693 H   0  0  0  0  0  0  0  0  0  0  0  0
  144.7066  136.0358  150.2220 H   0  0  0  0  0  0  0  0  0  0  0  0
  146.1727  130.6799  152.0977 H   0  0  0  0  0  0  0  0  0  0  0  0
  145.7838  130.3448  150.4103 H   0  0  0  0  0  0  0  0  0  0  0  0
  144.4956  130.4087  151.6214 H   0  0  0  0  0  0  0  0  0  0  0  0
  146.6307  132.9332  152.4987 H   0  0  0  0  0  0  0  0  0  0  0  0
  145.5343  139.3995  155.8389 H   0  0  0  0  0  0  0  0  0  0  0  0
  145.6106  136.3571  155.4537 H   0  0  0  0  0  0  0  0  0  0  0  0
  144.2201  137.3769  155.1146 H   0  0  0  0  0  0  0  0  0  0  0  0
  144.8201  137.2294  156.7599 H   0  0  0  0  0  0  0  0  0  0  0  0
  147.6082  139.0666  156.9618 H   0  0  0  0  0  0  0  0  0  0  0  0
  148.1231  135.4488  157.0717 H   0  0  0  0  0  0  0  0  0  0  0  0
  146.5854  136.3074  157.1607 H   0  0  0  0  0  0  0  0  0  0  0  0
  147.9819  136.8855  158.0840 H   0  0  0  0  0  0  0  0  0  0  0  0
  1  2  1  0  0  0  0
  1 24  1  0  0  0  0
  1 25  1  0  0  0  0
  1 26  1  0  0  0  0
  2  3  1  0  0  0  0
  2 27  1  0  0  0  0
  2 28  1  0  0  0  0
  3 21  1  0  0  0  0
  3  4  1  0  0  0  0
  3  6  1  0  0  0  0
  4  5  1  0  0  0  0
  4 29  1  0  0  0  0
  4 30  1  0  0  0  0
  5 31  1  0  0  0  0
  5 32  1  0  0  0  0
  5 33  1  0  0  0  0
  6  7  1  0  0  0  0
  6 19  1  0  0  0  0
  6 34  1  0  0  0  0
  7  8  1  0  0  0  0
  7 35  1  0  0  0  0
  8  9  2  0  0  0  0
  8 10  1  0  0  0  0
 10 11  1  0  0  0  0
 10 36  1  0  0  0  0
 11 18  1  0  0  0  0
 11 12  2  0  0  0  0
 12 13  1  0  0  0  0
 12 37  1  0  0  0  0
 13 14  1  0  0  0  0
 14 15  2  0  0  0  0
 14 16  1  0  0  0  0
 16 17  1  0  0  0  0
 16 18  2  0  0  0  0
 17 38  1  0  0  0  0
 17 39  1  0  0  0  0
 17 40  1  0  0  0  0
 18 41  1  0  0  0  0
 19 20  1  0  0  0  0
 19 21  1  0  0  0  0
 19 42  1  0  0  0  0
 20 43  1  0  0  0  0
 20 44  1  0  0  0  0
 20 45  1  0  0  0  0
 21 22  1  0  0  0  0
 21 46  1  0  0  0  0
 22 23  1  0  0  0  0
 23 47  1  0  0  0  0
 23 48  1  0  0  0  0
 23 49  1  0  0  0  0
M  CHG  1  13  -1
M  END
> <s_m_source_file>
AV-unprocessed.smi

> <i_m_source_file_index>
2424

> <i_lp_mmshare_version>
43012

> <i_f3d_flags>
0

> <s_epik_input>
W0NIM11PW0NAQEhdMVtDQEhdKFtDSDNdKVtDQEBIXShDMShbQ0gyXVtDSDNdKVtDSDJdW0NIM10pW05IXUMoPU8pW05IXWMyW2NIXVtuSF1jKD1PKWMoW0NIM10pW2NIXTI=

> <s_epik_cmdline>
J2VwaWtfcHl0aG9uJywgJy1waCcsICc3LjAnLCAnLXRuJywgJzgnLCAnLW1hJywgJzIwMCcsICctbWV0YWxfYmluZGluZycsICctaW1hZScsICc8aW5maWxlLm1hZT4nLCAnLW9tYWUnLCAnPG91dGZpbGUubWFlPic=

> <r_lp_tautomer_probability>
1

> <r_epik_Ionization_Penalty>
7.6122

> <r_epik_Ionization_Penalty_Charging>
1.53843

> <r_epik_Ionization_Penalty_Neutral>
6.07377

> <r_epik_State_Penalty>
6.07371

> <r_epik_Charging_Adjusted_Penalty>
7.61214

> <i_epik_Tot_Q>
-1

> <i_epik_Tot_abs_Q>
1

> <r_epik_Metal_State_Penalty>
2.02136

> <b_epik_Metal_Only>
1

> <s_lp_Force_Field>
OPLS_2005

> <r_lp_Energy>
42.7103

> <b_lp_Chiralities_Consistent>
1

> <s_lp_Variant>
AV-unprocessed.smi:2424-9

> <Gold.Version>
5.8.1

> <Gold.Id.Protein>
6NUR|6NUR_protein|mol2

> <Gold.PLP.Fitness>
36.9635

> <Gold.PLP.PLP>
-29.9673

> <Gold.PLP.part.hbond>
-3.0000

> <Gold.PLP.part.metal>
0.0000

> <Gold.PLP.part.buried>
-6.1124

> <Gold.PLP.part.nonpolar>
-22.2057

> <Gold.PLP.part.repulsive>
0.7647

> <Gold.PLP.ligand.clash>
0.0000

> <Gold.PLP.ligand.torsion>
0.9762

> <Gold.PLP.Chemscore.Hbond>
2.7440

> <Gold.PLP.Chemscore.CHOScore>
0.0000

> <Gold.PLP.Chemscore.Metal>
0.0000

> <Gold.Chemscore.Hbonds>
donor molecule, donor type, donor heavy atom, donor atom, acceptor molecule, acceptor atom, score
      L1  H     7    35       P1  7948  0.83
      L1  H    10    36       P1  7948  1.00
      P1  H 10785 10796       L1    15  0.88

> <Gold.PLP.Chemscore.Internal.Correction>
0.7165

> <Gold.Rescore>
     Score         DG    S(hbond)    S(metal)    S(lipo)     H(rot)  DE(clash)    DE(int)     intcor
     14.11     -18.81       2.71        0.00      69.77       1.52       1.91       2.79       ----

> <Gold.Chemscore.Fitness>
14.1137

> <Gold.Chemscore.DG>
-18.8138

> <Gold.Chemscore.ZeroCoef>
-5.4800

> <Gold.Chemscore.Hbond>
2.7135

> <Gold.Chemscore.Metal>
0.0000

> <Gold.Chemscore.Lipo>
69.7693

> <Gold.Chemscore.Internal_Hbond>
0.0000

> <Gold.Chemscore.DEClash>
1.9078

> <Gold.Chemscore.DEInternal>
2.7923

> <Gold.Chemscore.Rot>
1.5204

> <Gold.Chemscore.Internal.Correction>
   9.000000E+99

> <Gold.Chemscore.Hbonds>
donor molecule, donor type, donor heavy atom, donor atom, acceptor molecule, acceptor atom, score
      L1  H     7    35       P1  7948  0.78
      L1  H    10    36       P1  7948  0.97
      P1  H 10785 10796       L1    15  0.86

> <Gold.Chemscore.Hbond.Weighted>
-9.0630

> <Gold.Chemscore.Metal.Weighted>
-0.0000

> <Gold.Chemscore.Lipo.Weighted>
-8.1630

> <Gold.Chemscore.Internal_Hbond.Weighted>
0.0000

> <Gold.Chemscore.DEClash.Weighted>
1.9078

> <Gold.Chemscore.DEInternal.Weighted>
2.7923

> <Gold.Chemscore.Rot.Weighted>
3.8922

> <Gold.Chemscore.Internal.Correction.Weighted>
   9.000000E+99

> <Gold.Protein.RotatedTorsions>
[ 6907 6896 6895 6894 ] final -158.62 input  -60.11 | X-H torsion
[ 7974 7965 7964 7962 ] final  -52.00 input  175.53 | X-H torsion
[ 8008 7997 7996 7995 ] final  167.29 input   59.86 | X-H torsion
[ 10167 10162 10161 10158 ] final   -1.63 input  -65.29 | X-H torsion
[ 10718 10713 10712 10709 ] final  119.81 input   66.30 | X-H torsion
[ 10763 10752 10751 10750 ] final -106.25 input  -60.55 | X-H torsion
[ 11005 11000 10999 10996 ] final  179.09 input  -57.11 | X-H torsion

> <Gold.Protein.ActiveResidues>
 VAL166  LYS551  ARG553  GLY616  TRP617  ASP618  TYR619  PRO620  LYS621  CYS622 
 ASP623  PHE694  ASN695  SER759  ASP760  ASP761  ALA762  ILE779  LEU786  VAL792 
 PHE793  MET794  SER795  GLU796  ALA797  LYS798  CYS799  TRP800  GLU811  SER814 

> <Gold.Protein.RotatedAtoms>
  151.3210  133.4040  159.2654 H   0  0  0  0  0  0  0  0  0  0  0  0  # atno 6907 bound_to 6896
  151.0034  134.9341  159.7977 H   0  0  0  0  0  0  0  0  0  0  0  0  # atno 6908 bound_to 6896
  152.5281  134.3175  159.9189 H   0  0  0  0  0  0  0  0  0  0  0  0  # atno 6909 bound_to 6896
  145.9128  140.7901  142.9687 H   0  0  0  0  0  0  0  0  0  0  0  0  # atno 7974 bound_to 7965
  156.1647  140.1621  156.8553 H   0  0  0  0  0  0  0  0  0  0  0  0  # atno 8008 bound_to 7997
  154.5195  140.0781  156.8180 H   0  0  0  0  0  0  0  0  0  0  0  0  # atno 8009 bound_to 7997
  155.3637  140.3396  155.4243 H   0  0  0  0  0  0  0  0  0  0  0  0  # atno 8010 bound_to 7997
  140.6818  143.6752  150.8151 H   0  0  0  0  0  0  0  0  0  0  0  0  # atno 10167 bound_to 10162
  157.5935  131.1061  150.7948 H   0  0  0  0  0  0  0  0  0  0  0  0  # atno 10718 bound_to 10713
  154.8000  135.4719  154.0253 H   0  0  0  0  0  0  0  0  0  0  0  0  # atno 10763 bound_to 10752
  153.1766  135.6834  153.8542 H   0  0  0  0  0  0  0  0  0  0  0  0  # atno 10764 bound_to 10752
  153.8106  135.3217  155.3378 H   0  0  0  0  0  0  0  0  0  0  0  0  # atno 10765 bound_to 10752
  140.4023  134.6766  157.4569 H   0  0  0  0  0  0  0  0  0  0  0  0  # atno 11005 bound_to 11000
  144.6745  140.1852  143.7402 LP  0  0  0  0  0  0  0  0  0  0  0  0  # atno 17320 bound_to 7965
  145.8650  139.2242  143.1694 LP  0  0  0  0  0  0  0  0  0  0  0  0  # atno 17321 bound_to 7965
  140.0454  143.5304  152.2698 LP  0  0  0  0  0  0  0  0  0  0  0  0  # atno 17342 bound_to 10162
  139.6146  144.7616  151.2875 LP  0  0  0  0  0  0  0  0  0  0  0  0  # atno 17343 bound_to 10162
  156.8364  130.5033  149.5326 LP  0  0  0  0  0  0  0  0  0  0  0  0  # atno 17370 bound_to 10713
  156.0994  130.5957  150.9868 LP  0  0  0  0  0  0  0  0  0  0  0  0  # atno 17371 bound_to 10713
  140.0327  134.6383  155.9085 LP  0  0  0  0  0  0  0  0  0  0  0  0  # atno 17394 bound_to 11000
  141.1852  133.6554  156.5188 LP  0  0  0  0  0  0  0  0  0  0  0  0  # atno 17395 bound_to 11000

$$$$
