AV-unprocessed.smi:2470|AV-procd|sdf|9735|dock8
  -GOLD-   2272013373D 1   1.00000     0.00000
 Structure written by MMmdl.
 33 34  0  0  0  0  0  0  0  0  1 V2000
  153.0463  138.5886  154.7327 C   0  0  0  0  0  0  0  0  0  0  0  0
  152.4844  139.8076  155.2057 O   0  0  0  0  0  0  0  0  0  0  0  0
  151.1334  140.0166  155.0214 C   0  0  0  0  0  0  0  0  0  0  0  0
  150.3625  139.0261  154.3789 C   0  0  0  0  0  0  0  0  0  0  0  0
  148.9820  139.2776  154.2138 C   0  0  0  0  0  0  0  0  0  0  0  0
  148.2424  138.2551  153.5628 N   0  0  0  0  0  0  0  0  0  0  0  0
  146.9075  138.1037  153.5087 C   0  0  0  0  0  0  0  0  0  0  0  0
  146.0867  138.8419  154.0542 O   0  0  0  0  0  0  0  0  0  0  0  0
  146.5724  137.0290  152.7785 N   0  0  0  0  0  0  0  0  0  0  0  0
  145.2137  136.5658  152.5098 C   0  0  2  0  0  0  0  0  0  0  0  0
  144.4917  136.3224  153.8426 C   0  0  0  0  0  0  0  0  0  0  0  0
  145.1838  135.3246  151.6383 C   0  0  0  0  0  0  0  0  0  0  0  0
  144.4272  135.3090  150.3320 C   0  0  0  0  0  0  0  0  0  0  0  0
  143.9276  134.4970  151.5062 C   0  0  0  0  0  0  0  0  0  0  0  0
  148.4475  140.4394  154.6648 N   0  0  0  0  0  0  0  0  0  0  0  0
  149.2621  141.3137  155.2583 C   0  0  0  0  0  0  0  0  0  0  0  0
  150.5720  141.1685  155.4620 N   0  0  0  0  0  0  0  0  0  0  0  0
  154.1169  138.5818  154.9369 H   0  0  0  0  0  0  0  0  0  0  0  0
  152.9148  138.4798  153.6552 H   0  0  0  0  0  0  0  0  0  0  0  0
  152.6073  137.7262  155.2362 H   0  0  0  0  0  0  0  0  0  0  0  0
  150.8178  138.1106  154.0301 H   0  0  0  0  0  0  0  0  0  0  0  0
  148.7931  137.5615  153.0792 H   0  0  0  0  0  0  0  0  0  0  0  0
  147.3193  136.4850  152.3724 H   0  0  0  0  0  0  0  0  0  0  0  0
  144.6611  137.3422  151.9776 H   0  0  0  0  0  0  0  0  0  0  0  0
  143.4594  136.0117  153.6782 H   0  0  0  0  0  0  0  0  0  0  0  0
  144.4682  137.2289  154.4484 H   0  0  0  0  0  0  0  0  0  0  0  0
  144.9846  135.5434  154.4255 H   0  0  0  0  0  0  0  0  0  0  0  0
  146.1157  134.7620  151.6506 H   0  0  0  0  0  0  0  0  0  0  0  0
  143.8653  136.2010  150.0617 H   0  0  0  0  0  0  0  0  0  0  0  0
  144.8740  134.7689  149.4997 H   0  0  0  0  0  0  0  0  0  0  0  0
  144.0413  133.4162  151.4563 H   0  0  0  0  0  0  0  0  0  0  0  0
  143.0311  134.8490  152.0130 H   0  0  0  0  0  0  0  0  0  0  0  0
  148.8152  142.2322  155.6088 H   0  0  0  0  0  0  0  0  0  0  0  0
  1  2  1  0  0  0  0
  1 18  1  0  0  0  0
  1 19  1  0  0  0  0
  1 20  1  0  0  0  0
  2  3  1  0  0  0  0
  3 17  1  0  0  0  0
  3  4  2  0  0  0  0
  4  5  1  0  0  0  0
  4 21  1  0  0  0  0
  5  6  1  0  0  0  0
  5 15  2  0  0  0  0
  6  7  1  0  0  0  0
  6 22  1  0  0  0  0
  7  8  2  0  0  0  0
  7  9  1  0  0  0  0
  9 10  1  0  0  0  0
  9 23  1  0  0  0  0
 10 11  1  0  0  0  0
 10 12  1  0  0  0  0
 10 24  1  0  0  0  0
 11 25  1  0  0  0  0
 11 26  1  0  0  0  0
 11 27  1  0  0  0  0
 12 14  1  0  0  0  0
 12 13  1  0  0  0  0
 12 28  1  0  0  0  0
 13 14  1  0  0  0  0
 13 29  1  0  0  0  0
 13 30  1  0  0  0  0
 14 31  1  0  0  0  0
 14 32  1  0  0  0  0
 15 16  1  0  0  0  0
 16 17  2  0  0  0  0
 16 33  1  0  0  0  0
M  END
> <s_m_source_file>
AV-unprocessed.smi

> <i_m_source_file_index>
2470

> <i_lp_mmshare_version>
43012

> <i_f3d_flags>
0

> <s_epik_input>
W0NIM11PYzFbY0hdYyhuW2NIXW4xKVtOSF1DKD1PKVtOSF1bQ0BIXShbQ0gzXSlbQ0hdMltDSDJdW0NIMl0y

> <s_epik_cmdline>
J2VwaWtfcHl0aG9uJywgJy1waCcsICc3LjAnLCAnLXRuJywgJzgnLCAnLW1hJywgJzIwMCcsICctbWV0YWxfYmluZGluZycsICctaW1hZScsICc8aW5maWxlLm1hZT4nLCAnLW9tYWUnLCAnPG91dGZpbGUubWFlPic=

> <r_lp_tautomer_probability>
1

> <r_epik_Ionization_Penalty>
2.81207e-05

> <r_epik_Ionization_Penalty_Charging>
0

> <r_epik_Ionization_Penalty_Neutral>
2.81207e-05

> <r_epik_State_Penalty>
-0

> <r_epik_Charging_Adjusted_Penalty>
0

> <i_epik_Tot_Q>
0

> <i_epik_Tot_abs_Q>
0

> <r_epik_Metal_State_Penalty>
-0

> <b_epik_Metal_Only>
0

> <s_lp_Force_Field>
OPLS_2005

> <r_lp_Energy>
11.3699

> <b_lp_Chiralities_Consistent>
1

> <s_lp_Variant>
AV-unprocessed.smi:2470-1

> <Gold.Version>
5.8.1

> <Gold.Id.Protein>
6NUR|6NUR_protein|mol2

> <Gold.PLP.Fitness>
36.1589

> <Gold.PLP.PLP>
-27.4068

> <Gold.PLP.part.hbond>
-4.9316

> <Gold.PLP.part.metal>
0.0000

> <Gold.PLP.part.buried>
-0.5828

> <Gold.PLP.part.nonpolar>
-22.8859

> <Gold.PLP.part.repulsive>
0.3685

> <Gold.PLP.ligand.clash>
0.2855

> <Gold.PLP.ligand.torsion>
0.9151

> <Gold.PLP.Chemscore.Hbond>
2.2652

> <Gold.PLP.Chemscore.CHOScore>
1.0000

> <Gold.PLP.Chemscore.Metal>
0.0000

> <Gold.Chemscore.Hbonds>
donor molecule, donor type, donor heavy atom, donor atom, acceptor molecule, acceptor atom, score
      L1  H     6    22       P1  7948  1.00
      L1  H     9    23       P1  7948  1.00
      P1  H  7997  8008       L1     2  0.21
      L1  C    16    33       P1  8028  1.00

> <Gold.PLP.Chemscore.Internal.Correction>
1.0722

> <Gold.Rescore>
     Score         DG    S(hbond)    S(metal)    S(lipo)     H(rot)  DE(clash)    DE(int)     intcor
     10.39     -12.64       1.97        0.00      40.26       1.61       0.01       2.24       ----

> <Gold.Chemscore.Fitness>
10.3943

> <Gold.Chemscore.DG>
-12.6358

> <Gold.Chemscore.ZeroCoef>
-5.4800

> <Gold.Chemscore.Hbond>
1.9668

> <Gold.Chemscore.Metal>
0.0000

> <Gold.Chemscore.Lipo>
40.2622

> <Gold.Chemscore.Internal_Hbond>
0.0000

> <Gold.Chemscore.DEClash>
0.0063

> <Gold.Chemscore.DEInternal>
2.2353

> <Gold.Chemscore.Rot>
1.6109

> <Gold.Chemscore.Internal.Correction>
   9.000000E+99

> <Gold.Chemscore.Hbonds>
donor molecule, donor type, donor heavy atom, donor atom, acceptor molecule, acceptor atom, score
      L1  H     6    22       P1  7948  0.96
      L1  H     9    23       P1  7948  0.98
      P1  H  7997  8008       L1     2  0.01

> <Gold.Chemscore.Hbond.Weighted>
-6.5691

> <Gold.Chemscore.Metal.Weighted>
-0.0000

> <Gold.Chemscore.Lipo.Weighted>
-4.7107

> <Gold.Chemscore.Internal_Hbond.Weighted>
0.0000

> <Gold.Chemscore.DEClash.Weighted>
0.0063

> <Gold.Chemscore.DEInternal.Weighted>
2.2353

> <Gold.Chemscore.Rot.Weighted>
4.1240

> <Gold.Chemscore.Internal.Correction.Weighted>
   9.000000E+99

> <Gold.Protein.RotatedTorsions>
[ 6907 6896 6895 6894 ] final  -44.37 input  -60.11 | X-H torsion
[ 7974 7965 7964 7962 ] final  141.45 input  175.53 | X-H torsion
[ 8008 7997 7996 7995 ] final  -45.97 input   59.86 | X-H torsion
[ 10167 10162 10161 10158 ] final  -53.08 input  -65.29 | X-H torsion
[ 10718 10713 10712 10709 ] final  -94.29 input   66.30 | X-H torsion
[ 10763 10752 10751 10750 ] final  -70.05 input  -60.55 | X-H torsion
[ 11005 11000 10999 10996 ] final  -71.81 input  -57.11 | X-H torsion

> <Gold.Protein.ActiveResidues>
 VAL166  LYS551  ARG553  GLY616  TRP617  ASP618  TYR619  PRO620  LYS621  CYS622 
 ASP623  PHE694  ASN695  SER759  ASP760  ASP761  ALA762  ILE779  LEU786  VAL792 
 PHE793  MET794  SER795  GLU796  ALA797  LYS798  CYS799  TRP800  GLU811  SER814 

> <Gold.Protein.RotatedAtoms>
  150.9336  134.8750  159.7566 H   0  0  0  0  0  0  0  0  0  0  0  0  # atno 6907 bound_to 6896
  152.5049  134.4043  159.9437 H   0  0  0  0  0  0  0  0  0  0  0  0  # atno 6908 bound_to 6896
  151.4068  133.3700  159.2774 H   0  0  0  0  0  0  0  0  0  0  0  0  # atno 6909 bound_to 6896
  144.9095  139.5312  143.5715 H   0  0  0  0  0  0  0  0  0  0  0  0  # atno 7974 bound_to 7965
  154.4004  140.1383  156.3934 H   0  0  0  0  0  0  0  0  0  0  0  0  # atno 8008 bound_to 7997
  155.7893  140.3479  155.5320 H   0  0  0  0  0  0  0  0  0  0  0  0  # atno 8009 bound_to 7997
  155.8596  140.0954  157.1612 H   0  0  0  0  0  0  0  0  0  0  0  0  # atno 8010 bound_to 7997
  140.6504  143.2562  151.4740 H   0  0  0  0  0  0  0  0  0  0  0  0  # atno 10167 bound_to 10162
  156.0025  130.5062  150.5905 H   0  0  0  0  0  0  0  0  0  0  0  0  # atno 10718 bound_to 10713
  154.4121  135.6006  153.5959 H   0  0  0  0  0  0  0  0  0  0  0  0  # atno 10763 bound_to 10752
  152.9790  135.5932  154.4057 H   0  0  0  0  0  0  0  0  0  0  0  0  # atno 10764 bound_to 10752
  154.3871  135.2841  155.2155 H   0  0  0  0  0  0  0  0  0  0  0  0  # atno 10765 bound_to 10752
  141.1598  133.6828  156.6963 H   0  0  0  0  0  0  0  0  0  0  0  0  # atno 11005 bound_to 11000
  146.3151  139.7890  142.8989 LP  0  0  0  0  0  0  0  0  0  0  0  0  # atno 17320 bound_to 7965
  145.3478  141.0301  143.3356 LP  0  0  0  0  0  0  0  0  0  0  0  0  # atno 17321 bound_to 7965
  139.5718  144.1910  152.1847 LP  0  0  0  0  0  0  0  0  0  0  0  0  # atno 17342 bound_to 10162
  140.1209  144.5374  150.6864 LP  0  0  0  0  0  0  0  0  0  0  0  0  # atno 17343 bound_to 10162
  157.3770  131.0775  151.1509 LP  0  0  0  0  0  0  0  0  0  0  0  0  # atno 17370 bound_to 10713
  157.2244  130.6496  149.5824 LP  0  0  0  0  0  0  0  0  0  0  0  0  # atno 17371 bound_to 10713
  140.2993  134.8177  157.4084 LP  0  0  0  0  0  0  0  0  0  0  0  0  # atno 17394 bound_to 11000
  140.1276  134.5137  155.8131 LP  0  0  0  0  0  0  0  0  0  0  0  0  # atno 17395 bound_to 11000

$$$$
