AV-unprocessed.smi:1643|AV-procd|sdf|6572|dock5
  -GOLD-   22720 7253D 1   1.00000     0.00000
 Structure written by MMmdl.
 54 56  0  0  0  0  0  0  0  0  2 V2000
  142.3081  141.5826  155.3301 C   0  0  0  0  0  0  0  0  0  0  0  0
  143.2534  141.4254  156.5243 C   0  0  0  0  0  0  0  0  0  0  0  0
  143.0947  140.4535  157.2629 O   0  0  0  0  0  0  0  0  0  0  0  0
  144.2309  142.3440  156.7228 N   0  0  0  0  0  0  0  0  0  0  0  0
  144.3313  143.5459  155.8815 C   0  0  0  0  0  0  0  0  0  0  0  0
  145.4237  143.4142  154.7967 C   0  0  0  0  0  0  0  0  0  0  0  0
  146.4295  142.2565  154.9891 C   0  0  0  0  0  0  0  0  0  0  0  0
  147.2854  142.3536  156.2077 N   0  3  2  0  0  0  0  0  0  0  0  0
  148.0465  141.1034  156.4798 C   0  0  0  0  0  0  0  0  0  0  0  0
  148.7432  140.5202  155.2326 C   0  0  2  0  0  0  0  0  0  0  0  0
  148.8386  139.1216  155.4124 O   0  0  0  0  0  0  0  0  0  0  0  0
  150.1530  141.1032  155.0033 C   0  0  0  0  0  0  0  0  0  0  0  0
  151.0580  140.8136  156.1012 N   0  0  0  0  0  0  0  0  0  0  0  0
  151.8242  139.7161  156.2509 C   0  0  0  0  0  0  0  0  0  0  0  0
  152.5840  139.6475  157.3396 N   0  0  0  0  0  0  0  0  0  0  0  0
  152.2774  140.8412  157.9701 C   0  0  0  0  0  0  0  0  0  0  0  0
  152.7481  141.3833  159.1858 C   0  0  0  0  0  0  0  0  0  0  0  0
  152.2886  142.6378  159.6458 C   0  0  0  0  0  0  0  0  0  0  0  0
  152.8201  143.1825  160.9601 C   0  0  0  0  0  0  0  0  0  0  0  0
  151.3430  143.3709  158.8847 C   0  0  0  0  0  0  0  0  0  0  0  0
  150.8351  144.7209  159.3595 C   0  0  0  0  0  0  0  0  0  0  0  0
  150.8626  142.8441  157.6676 C   0  0  0  0  0  0  0  0  0  0  0  0
  151.3269  141.5944  157.2207 C   0  0  0  0  0  0  0  0  0  0  0  0
  146.6192  142.8835  157.4334 C   0  0  0  0  0  0  0  0  0  0  0  0
  145.2553  142.2292  157.7783 C   0  0  0  0  0  0  0  0  0  0  0  0
  142.8649  141.7531  154.4083 H   0  0  0  0  0  0  0  0  0  0  0  0
  141.6209  142.4137  155.4892 H   0  0  0  0  0  0  0  0  0  0  0  0
  141.7120  140.6797  155.1929 H   0  0  0  0  0  0  0  0  0  0  0  0
  143.3798  143.7966  155.4097 H   0  0  0  0  0  0  0  0  0  0  0  0
  144.5316  144.4078  156.5183 H   0  0  0  0  0  0  0  0  0  0  0  0
  144.9279  143.2606  153.8375 H   0  0  0  0  0  0  0  0  0  0  0  0
  145.9572  144.3605  154.6992 H   0  0  0  0  0  0  0  0  0  0  0  0
  145.9016  141.3016  154.9804 H   0  0  0  0  0  0  0  0  0  0  0  0
  147.0818  142.2380  154.1165 H   0  0  0  0  0  0  0  0  0  0  0  0
  148.8113  141.2954  157.2338 H   0  0  0  0  0  0  0  0  0  0  0  0
  147.3704  140.3652  156.9148 H   0  0  0  0  0  0  0  0  0  0  0  0
  148.1301  140.6784  154.3459 H   0  0  0  0  0  0  0  0  0  0  0  0
  149.6139  138.8121  154.9683 H   0  0  0  0  0  0  0  0  0  0  0  0
  150.5901  140.6945  154.0917 H   0  0  0  0  0  0  0  0  0  0  0  0
  150.1043  142.1842  154.8658 H   0  0  0  0  0  0  0  0  0  0  0  0
  151.8219  138.9206  155.5200 H   0  0  0  0  0  0  0  0  0  0  0  0
  153.4678  140.8240  159.7654 H   0  0  0  0  0  0  0  0  0  0  0  0
  153.3249  144.1359  160.8029 H   0  0  0  0  0  0  0  0  0  0  0  0
  153.5348  142.4964  161.4157 H   0  0  0  0  0  0  0  0  0  0  0  0
  152.0050  143.3342  161.6682 H   0  0  0  0  0  0  0  0  0  0  0  0
  150.1029  145.1364  158.6666 H   0  0  0  0  0  0  0  0  0  0  0  0
  151.6580  145.4311  159.4423 H   0  0  0  0  0  0  0  0  0  0  0  0
  150.3568  144.6285  160.3348 H   0  0  0  0  0  0  0  0  0  0  0  0
  150.1408  143.3915  157.0797 H   0  0  0  0  0  0  0  0  0  0  0  0
  147.2880  142.7751  158.2880 H   0  0  0  0  0  0  0  0  0  0  0  0
  146.5170  143.9629  157.3264 H   0  0  0  0  0  0  0  0  0  0  0  0
  144.8568  142.6827  158.6866 H   0  0  0  0  0  0  0  0  0  0  0  0
  145.4544  141.1856  158.0210 H   0  0  0  0  0  0  0  0  0  0  0  0
  147.9876  143.0466  155.9917 H   0  0  0  0  0  0  0  0  0  0  0  0
  1  2  1  0  0  0  0
  1 26  1  0  0  0  0
  1 27  1  0  0  0  0
  1 28  1  0  0  0  0
  2  3  2  0  0  0  0
  2  4  1  0  0  0  0
  4 25  1  0  0  0  0
  4  5  1  0  0  0  0
  5  6  1  0  0  0  0
  5 29  1  0  0  0  0
  5 30  1  0  0  0  0
  6  7  1  0  0  0  0
  6 31  1  0  0  0  0
  6 32  1  0  0  0  0
  7  8  1  0  0  0  0
  7 33  1  0  0  0  0
  7 34  1  0  0  0  0
  8  9  1  0  0  0  0
  8 24  1  0  0  0  0
  8 54  1  0  0  0  0
  9 10  1  0  0  0  0
  9 35  1  0  0  0  0
  9 36  1  0  0  0  0
 10 11  1  0  0  0  0
 10 12  1  0  0  0  0
 10 37  1  0  0  0  0
 11 38  1  0  0  0  0
 12 13  1  0  0  0  0
 12 39  1  0  0  0  0
 12 40  1  0  0  0  0
 13 23  1  0  0  0  0
 13 14  1  0  0  0  0
 14 15  2  0  0  0  0
 14 41  1  0  0  0  0
 15 16  1  0  0  0  0
 16 23  2  0  0  0  0
 16 17  1  0  0  0  0
 17 18  2  0  0  0  0
 17 42  1  0  0  0  0
 18 19  1  0  0  0  0
 18 20  1  0  0  0  0
 19 43  1  0  0  0  0
 19 44  1  0  0  0  0
 19 45  1  0  0  0  0
 20 21  1  0  0  0  0
 20 22  2  0  0  0  0
 21 46  1  0  0  0  0
 21 47  1  0  0  0  0
 21 48  1  0  0  0  0
 22 23  1  0  0  0  0
 22 49  1  0  0  0  0
 24 25  1  0  0  0  0
 24 50  1  0  0  0  0
 24 51  1  0  0  0  0
 25 52  1  0  0  0  0
 25 53  1  0  0  0  0
M  CHG  1   8   1
M  END
> <s_m_source_file>
AV-unprocessed.smi

> <i_m_source_file_index>
1643

> <i_lp_mmshare_version>
43012

> <i_f3d_flags>
0

> <s_epik_input>
W0NIM11DKD1PKU4xW0NIMl1bQ0gyXVtDSDJdTihbQ0gyXVtDSDJdMSlbQ0gyXVtDQEhdKFtPSF0pW0NIMl1uKFtjSF1uMiljKGMyMylbY0hdYyhbQ0gzXSljKFtjSF0zKVtDSDNd

> <s_epik_cmdline>
J2VwaWtfcHl0aG9uJywgJy1waCcsICc3LjAnLCAnLXRuJywgJzgnLCAnLW1hJywgJzIwMCcsICctbWV0YWxfYmluZGluZycsICctaW1hZScsICc8aW5maWxlLm1hZT4nLCAnLW9tYWUnLCAnPG91dGZpbGUubWFlPic=

> <r_epik_Ionization_Penalty>
0.189467

> <r_epik_Ionization_Penalty_Charging>
0.101761

> <r_epik_Ionization_Penalty_Neutral>
0.0877056

> <r_epik_State_Penalty>
0.170758

> <r_epik_Charging_Adjusted_Penalty>
0.272519

> <i_epik_Tot_Q>
1

> <i_epik_Tot_abs_Q>
1

> <r_epik_Metal_State_Penalty>
0.0948013

> <b_epik_Metal_Only>
0

> <s_lp_Force_Field>
OPLS_2005

> <r_lp_Energy>
49.989

> <b_lp_Chiralities_Consistent>
1

> <s_lp_Variant>
AV-unprocessed.smi:1643-1

> <Gold.Version>
5.8.1

> <Gold.Id.Protein>
6NUR|6NUR_protein|mol2

> <Gold.PLP.Fitness>
47.7047

> <Gold.PLP.PLP>
-40.1287

> <Gold.PLP.part.hbond>
-2.0000

> <Gold.PLP.part.metal>
0.0000

> <Gold.PLP.part.buried>
-3.7676

> <Gold.PLP.part.nonpolar>
-34.2823

> <Gold.PLP.part.repulsive>
0.0245

> <Gold.PLP.ligand.clash>
0.0000

> <Gold.PLP.ligand.torsion>
0.7632

> <Gold.PLP.Chemscore.Hbond>
3.0000

> <Gold.PLP.Chemscore.CHOScore>
0.0000

> <Gold.PLP.Chemscore.Metal>
0.0000

> <Gold.Chemscore.Hbonds>
donor molecule, donor type, donor heavy atom, donor atom, acceptor molecule, acceptor atom, score
      L1  H     8    54       P1  8028  2.00
      P1  H  7997  8010       L1    15  0.95

> <Gold.PLP.Chemscore.Internal.Correction>
0.1023

> <Gold.Rescore>
     Score         DG    S(hbond)    S(metal)    S(lipo)     H(rot)  DE(clash)    DE(int)     intcor
     14.56     -15.80       0.83        0.00     110.91       2.12       0.47       0.77       ----

> <Gold.Chemscore.Fitness>
14.5583

> <Gold.Chemscore.DG>
-15.7963

> <Gold.Chemscore.ZeroCoef>
-5.4800

> <Gold.Chemscore.Hbond>
0.8268

> <Gold.Chemscore.Metal>
0.0000

> <Gold.Chemscore.Lipo>
110.9082

> <Gold.Chemscore.Internal_Hbond>
0.0000

> <Gold.Chemscore.DEClash>
0.4657

> <Gold.Chemscore.DEInternal>
0.7723

> <Gold.Chemscore.Rot>
2.1178

> <Gold.Chemscore.Internal.Correction>
   9.000000E+99

> <Gold.Chemscore.Hbonds>
donor molecule, donor type, donor heavy atom, donor atom, acceptor molecule, acceptor atom, score
      L1  H     8    54       P1  8028  0.55
      P1  H  7997  8010       L1    15  0.09

> <Gold.Chemscore.Hbond.Weighted>
-2.7615

> <Gold.Chemscore.Metal.Weighted>
-0.0000

> <Gold.Chemscore.Lipo.Weighted>
-12.9763

> <Gold.Chemscore.Internal_Hbond.Weighted>
0.0000

> <Gold.Chemscore.DEClash.Weighted>
0.4657

> <Gold.Chemscore.DEInternal.Weighted>
0.7723

> <Gold.Chemscore.Rot.Weighted>
5.4215

> <Gold.Chemscore.Internal.Correction.Weighted>
   9.000000E+99

> <Gold.Protein.RotatedTorsions>
[ 6907 6896 6895 6894 ] final  -43.60 input  -60.11 | X-H torsion
[ 7974 7965 7964 7962 ] final  148.23 input  175.53 | X-H torsion
[ 8008 7997 7996 7995 ] final   56.86 input   59.86 | X-H torsion
[ 10167 10162 10161 10158 ] final -104.31 input  -65.29 | X-H torsion
[ 10718 10713 10712 10709 ] final -144.39 input   66.30 | X-H torsion
[ 10763 10752 10751 10750 ] final   52.05 input  -60.55 | X-H torsion
[ 11005 11000 10999 10996 ] final -131.79 input  -57.11 | X-H torsion

> <Gold.Protein.ActiveResidues>
 VAL166  LYS551  ARG553  GLY616  TRP617  ASP618  TYR619  PRO620  LYS621  CYS622 
 ASP623  PHE694  ASN695  SER759  ASP760  ASP761  ALA762  ILE779  LEU786  VAL792 
 PHE793  MET794  SER795  GLU796  ALA797  LYS798  CYS799  TRP800  GLU811  SER814 

> <Gold.Protein.RotatedAtoms>
  150.9422  134.8830  159.7618 H   0  0  0  0  0  0  0  0  0  0  0  0  # atno 6907 bound_to 6896
  152.5085  134.3926  159.9399 H   0  0  0  0  0  0  0  0  0  0  0  0  # atno 6908 bound_to 6896
  151.3947  133.3737  159.2760 H   0  0  0  0  0  0  0  0  0  0  0  0  # atno 6909 bound_to 6896
  144.8530  139.6127  143.5965 H   0  0  0  0  0  0  0  0  0  0  0  0  # atno 7974 bound_to 7965
  155.5244  140.3480  155.4413 H   0  0  0  0  0  0  0  0  0  0  0  0  # atno 8008 bound_to 7997
  156.0762  140.1375  156.9795 H   0  0  0  0  0  0  0  0  0  0  0  0  # atno 8009 bound_to 7997
  154.4554  140.0955  156.6718 H   0  0  0  0  0  0  0  0  0  0  0  0  # atno 8010 bound_to 7997
  140.2107  143.3749  152.1053 H   0  0  0  0  0  0  0  0  0  0  0  0  # atno 10167 bound_to 10162
  156.3696  130.7781  151.1960 H   0  0  0  0  0  0  0  0  0  0  0  0  # atno 10718 bound_to 10713
  152.9787  135.5825  154.4515 H   0  0  0  0  0  0  0  0  0  0  0  0  # atno 10763 bound_to 10752
  154.4103  135.2770  155.2043 H   0  0  0  0  0  0  0  0  0  0  0  0  # atno 10764 bound_to 10752
  154.3836  135.6141  153.5858 H   0  0  0  0  0  0  0  0  0  0  0  0  # atno 10765 bound_to 10752
  140.9227  134.1423  157.4300 H   0  0  0  0  0  0  0  0  0  0  0  0  # atno 11005 bound_to 11000
  146.2800  139.6853  142.9235 LP  0  0  0  0  0  0  0  0  0  0  0  0  # atno 17320 bound_to 7965
  145.4462  141.0425  143.2830 LP  0  0  0  0  0  0  0  0  0  0  0  0  # atno 17321 bound_to 7965
  139.5181  144.7001  151.5518 LP  0  0  0  0  0  0  0  0  0  0  0  0  # atno 17342 bound_to 10162
  140.6326  143.9047  150.6618 LP  0  0  0  0  0  0  0  0  0  0  0  0  # atno 17343 bound_to 10162
  157.7482  131.0376  150.4464 LP  0  0  0  0  0  0  0  0  0  0  0  0  # atno 17370 bound_to 10713
  156.4689  130.4048  149.6530 LP  0  0  0  0  0  0  0  0  0  0  0  0  # atno 17371 bound_to 10713
  139.8779  134.9977  156.5862 LP  0  0  0  0  0  0  0  0  0  0  0  0  # atno 17394 bound_to 11000
  140.7966  133.8539  155.8691 LP  0  0  0  0  0  0  0  0  0  0  0  0  # atno 17395 bound_to 11000

$$$$
