AV-unprocessed.smi:1736|AV-procd|sdf|6990|dock2
  -GOLD-   22720 8203D 1   1.00000     0.00000
 Structure written by MMmdl.
 45 46  0  0  0  0  0  0  0  0  2 V2000
  145.5971  131.0314  150.8649 C   0  0  0  0  0  0  0  0  0  0  0  0
  146.5999  132.0457  151.2643 N   0  3  0  0  0  0  0  0  0  0  0  0
  146.6073  132.3456  152.7142 C   0  0  0  0  0  0  0  0  0  0  0  0
  145.4210  133.2467  153.1111 C   0  0  0  0  0  0  0  0  0  0  0  0
  145.4639  134.5138  152.3618 N   0  0  0  0  0  0  0  0  0  0  0  0
  144.5135  135.5524  152.8450 C   0  0  0  0  0  0  0  0  0  0  0  0
  143.0928  135.2550  152.3014 C   0  0  0  0  0  0  0  0  0  0  0  0
  144.4487  135.5979  154.3904 C   0  0  0  0  0  0  0  0  0  0  0  0
  144.9335  136.9592  152.3240 C   0  0  0  0  0  0  0  0  0  0  0  0
  146.3423  137.2664  152.5735 N   0  0  0  0  0  0  0  0  0  0  0  0
  146.8047  138.3153  153.2688 C   0  0  0  0  0  0  0  0  0  0  0  0
  146.0802  139.1572  153.7990 O   0  0  0  0  0  0  0  0  0  0  0  0
  148.1469  138.3253  153.2959 N   0  0  0  0  0  0  0  0  0  0  0  0
  148.9841  139.2615  153.9521 C   0  0  0  0  0  0  0  0  0  0  0  0
  150.3534  139.1382  154.3311 C   0  0  0  0  0  0  0  0  0  0  0  0
  150.7882  140.2424  154.9220 N   0  0  0  0  0  0  0  0  0  0  0  0
  149.7155  141.0653  154.9234 N   0  0  0  0  0  0  0  0  0  0  0  0
  148.5978  140.5089  154.3419 C   0  0  0  0  0  0  0  0  0  0  0  0
  145.3452  134.1822  150.9317 C   0  0  0  0  0  0  0  0  0  0  0  0
  146.5287  133.3012  150.4832 C   0  0  0  0  0  0  0  0  0  0  0  0
  149.7621  141.9934  155.3190 H   0  0  0  0  0  0  0  0  0  0  0  0
  144.5773  131.3732  151.0413 H   0  0  0  0  0  0  0  0  0  0  0  0
  145.7458  130.1069  151.4238 H   0  0  0  0  0  0  0  0  0  0  0  0
  145.6965  130.7949  149.8050 H   0  0  0  0  0  0  0  0  0  0  0  0
  146.5907  131.4172  153.2863 H   0  0  0  0  0  0  0  0  0  0  0  0
  147.5448  132.8446  152.9638 H   0  0  0  0  0  0  0  0  0  0  0  0
  144.4773  132.7282  152.9420 H   0  0  0  0  0  0  0  0  0  0  0  0
  145.4962  133.4195  154.1821 H   0  0  0  0  0  0  0  0  0  0  0  0
  142.4286  136.1069  152.4520 H   0  0  0  0  0  0  0  0  0  0  0  0
  142.6183  134.4146  152.8075 H   0  0  0  0  0  0  0  0  0  0  0  0
  143.1029  135.0398  151.2323 H   0  0  0  0  0  0  0  0  0  0  0  0
  143.7293  136.3476  154.7215 H   0  0  0  0  0  0  0  0  0  0  0  0
  145.4054  135.8659  154.8382 H   0  0  0  0  0  0  0  0  0  0  0  0
  144.1313  134.6489  154.8217 H   0  0  0  0  0  0  0  0  0  0  0  0
  144.7120  137.0359  151.2577 H   0  0  0  0  0  0  0  0  0  0  0  0
  144.3317  137.7479  152.7735 H   0  0  0  0  0  0  0  0  0  0  0  0
  147.0176  136.6344  152.1704 H   0  0  0  0  0  0  0  0  0  0  0  0
  148.6194  137.5840  152.8001 H   0  0  0  0  0  0  0  0  0  0  0  0
  151.0372  138.3123  154.2027 H   0  0  0  0  0  0  0  0  0  0  0  0
  147.6575  141.0339  154.2601 H   0  0  0  0  0  0  0  0  0  0  0  0
  144.3984  133.6831  150.7261 H   0  0  0  0  0  0  0  0  0  0  0  0
  145.3692  135.0782  150.3155 H   0  0  0  0  0  0  0  0  0  0  0  0
  147.4628  133.8494  150.6163 H   0  0  0  0  0  0  0  0  0  0  0  0
  146.4549  133.0739  149.4191 H   0  0  0  0  0  0  0  0  0  0  0  0
  147.4968  131.6310  151.0552 H   0  0  0  0  0  0  0  0  0  0  0  0
  1  2  1  0  0  0  0
  1 22  1  0  0  0  0
  1 23  1  0  0  0  0
  1 24  1  0  0  0  0
  2 20  1  0  0  0  0
  2  3  1  0  0  0  0
  2 45  1  0  0  0  0
  3  4  1  0  0  0  0
  3 25  1  0  0  0  0
  3 26  1  0  0  0  0
  4  5  1  0  0  0  0
  4 27  1  0  0  0  0
  4 28  1  0  0  0  0
  5  6  1  0  0  0  0
  5 19  1  0  0  0  0
  6  7  1  0  0  0  0
  6  8  1  0  0  0  0
  6  9  1  0  0  0  0
  7 29  1  0  0  0  0
  7 30  1  0  0  0  0
  7 31  1  0  0  0  0
  8 32  1  0  0  0  0
  8 33  1  0  0  0  0
  8 34  1  0  0  0  0
  9 10  1  0  0  0  0
  9 35  1  0  0  0  0
  9 36  1  0  0  0  0
 10 11  1  0  0  0  0
 10 37  1  0  0  0  0
 11 12  2  0  0  0  0
 11 13  1  0  0  0  0
 13 14  1  0  0  0  0
 13 38  1  0  0  0  0
 14 18  2  0  0  0  0
 14 15  1  0  0  0  0
 15 16  2  0  0  0  0
 15 39  1  0  0  0  0
 16 17  1  0  0  0  0
 17 21  1  0  0  0  0
 17 18  1  0  0  0  0
 18 40  1  0  0  0  0
 19 20  1  0  0  0  0
 19 41  1  0  0  0  0
 19 42  1  0  0  0  0
 20 43  1  0  0  0  0
 20 44  1  0  0  0  0
M  CHG  1   2   1
M  END
> <s_m_source_file>
AV-unprocessed.smi

> <i_m_source_file_index>
1736

> <i_lp_mmshare_version>
43012

> <i_f3d_flags>
0

> <s_epik_input>
W0NIM11OMVtDSDJdW0NIMl1OKFtDSDJdW0NIMl0xKUMoW0NIM10pKFtDSDNdKVtDSDJdW05IXUMoPU8pW05IXWMyW2NIXW5bbkhdW2NIXTI=

> <s_epik_cmdline>
J2VwaWtfcHl0aG9uJywgJy1waCcsICc3LjAnLCAnLXRuJywgJzgnLCAnLW1hJywgJzIwMCcsICctbWV0YWxfYmluZGluZycsICctaW1hZScsICc8aW5maWxlLm1hZT4nLCAnLW9tYWUnLCAnPG91dGZpbGUubWFlPic=

> <r_lp_tautomer_probability>
0.5

> <r_epik_Ionization_Penalty>
0.0248316

> <r_epik_Ionization_Penalty_Charging>
0.0238192

> <r_epik_Ionization_Penalty_Neutral>
0.00101244

> <r_epik_State_Penalty>
0.139266

> <r_epik_Charging_Adjusted_Penalty>
0.163085

> <i_epik_Tot_Q>
1

> <i_epik_Tot_abs_Q>
1

> <r_epik_Metal_State_Penalty>
0.139266

> <b_epik_Metal_Only>
0

> <s_lp_Force_Field>
OPLS_2005

> <r_lp_Energy>
29.1357

> <b_lp_Chiralities_Consistent>
1

> <s_lp_Variant>
AV-unprocessed.smi:1736-1

> <Gold.Version>
5.8.1

> <Gold.Id.Protein>
6NUR|6NUR_protein|mol2

> <Gold.PLP.Fitness>
38.3445

> <Gold.PLP.PLP>
-28.1154

> <Gold.PLP.part.hbond>
-4.6336

> <Gold.PLP.part.metal>
0.0000

> <Gold.PLP.part.buried>
-5.1941

> <Gold.PLP.part.nonpolar>
-19.9607

> <Gold.PLP.part.repulsive>
0.5528

> <Gold.PLP.ligand.clash>
0.0000

> <Gold.PLP.ligand.torsion>
0.5720

> <Gold.PLP.Chemscore.Hbond>
3.7780

> <Gold.PLP.Chemscore.CHOScore>
0.0000

> <Gold.PLP.Chemscore.Metal>
0.0000

> <Gold.Chemscore.Hbonds>
donor molecule, donor type, donor heavy atom, donor atom, acceptor molecule, acceptor atom, score
      L1  H     2    45       P1 10747  1.00
      L1  H    10    37       P1  7948  0.94
      L1  H    13    38       P1  7948  1.00
      P1  H  7989  7998       L1    16  0.76

> <Gold.PLP.Chemscore.Internal.Correction>
0.0391

> <Gold.Rescore>
     Score         DG    S(hbond)    S(metal)    S(lipo)     H(rot)  DE(clash)    DE(int)     intcor
     17.43     -19.12       2.91        0.00      68.97       1.63       0.05       1.63       ----

> <Gold.Chemscore.Fitness>
17.4350

> <Gold.Chemscore.DG>
-19.1192

> <Gold.Chemscore.ZeroCoef>
-5.4800

> <Gold.Chemscore.Hbond>
2.9145

> <Gold.Chemscore.Metal>
0.0000

> <Gold.Chemscore.Lipo>
68.9669

> <Gold.Chemscore.Internal_Hbond>
0.0000

> <Gold.Chemscore.DEClash>
0.0501

> <Gold.Chemscore.DEInternal>
1.6341

> <Gold.Chemscore.Rot>
1.6267

> <Gold.Chemscore.Internal.Correction>
   9.000000E+99

> <Gold.Chemscore.Hbonds>
donor molecule, donor type, donor heavy atom, donor atom, acceptor molecule, acceptor atom, score
      L1  H     2    45       P1 10747  1.00
      L1  H    10    37       P1  7948  0.89
      L1  H    13    38       P1  7948  1.00
      P1  H  7989  7998       L1    16  0.03

> <Gold.Chemscore.Hbond.Weighted>
-9.7345

> <Gold.Chemscore.Metal.Weighted>
-0.0000

> <Gold.Chemscore.Lipo.Weighted>
-8.0691

> <Gold.Chemscore.Internal_Hbond.Weighted>
0.0000

> <Gold.Chemscore.DEClash.Weighted>
0.0501

> <Gold.Chemscore.DEInternal.Weighted>
1.6341

> <Gold.Chemscore.Rot.Weighted>
4.1645

> <Gold.Chemscore.Internal.Correction.Weighted>
   9.000000E+99

> <Gold.Protein.RotatedTorsions>
[ 6907 6896 6895 6894 ] final  -16.14 input  -60.11 | X-H torsion
[ 7974 7965 7964 7962 ] final   39.70 input  175.53 | X-H torsion
[ 8008 7997 7996 7995 ] final  -79.25 input   59.86 | X-H torsion
[ 10167 10162 10161 10158 ] final  147.87 input  -65.29 | X-H torsion
[ 10718 10713 10712 10709 ] final -100.64 input   66.30 | X-H torsion
[ 10763 10752 10751 10750 ] final -169.20 input  -60.55 | X-H torsion
[ 11005 11000 10999 10996 ] final  108.37 input  -57.11 | X-H torsion

> <Gold.Protein.ActiveResidues>
 VAL166  LYS551  ARG553  GLY616  TRP617  ASP618  TYR619  PRO620  LYS621  CYS622 
 ASP623  PHE694  ASN695  SER759  ASP760  ASP761  ALA762  ILE779  LEU786  VAL792 
 PHE793  MET794  SER795  GLU796  ALA797  LYS798  CYS799  TRP800  GLU811  SER814 

> <Gold.Protein.RotatedAtoms>
  151.3132  135.0799  159.9279 H   0  0  0  0  0  0  0  0  0  0  0  0  # atno 6907 bound_to 6896
  152.5273  133.9715  159.7774 H   0  0  0  0  0  0  0  0  0  0  0  0  # atno 6908 bound_to 6896
  151.0022  133.5993  159.2723 H   0  0  0  0  0  0  0  0  0  0  0  0  # atno 6909 bound_to 6896
  146.0964  139.5621  142.9443 H   0  0  0  0  0  0  0  0  0  0  0  0  # atno 7974 bound_to 7965
  154.5767  140.0681  156.9045 H   0  0  0  0  0  0  0  0  0  0  0  0  # atno 8008 bound_to 7997
  155.2535  140.3353  155.4261 H   0  0  0  0  0  0  0  0  0  0  0  0  # atno 8009 bound_to 7997
  156.2159  140.1778  156.7574 H   0  0  0  0  0  0  0  0  0  0  0  0  # atno 8010 bound_to 7997
  139.4883  144.5722  151.7032 H   0  0  0  0  0  0  0  0  0  0  0  0  # atno 10167 bound_to 10162
  156.0169  130.5337  150.6846 H   0  0  0  0  0  0  0  0  0  0  0  0  # atno 10718 bound_to 10713
  154.6548  135.2916  154.9942 H   0  0  0  0  0  0  0  0  0  0  0  0  # atno 10763 bound_to 10752
  154.1022  135.6575  153.4874 H   0  0  0  0  0  0  0  0  0  0  0  0  # atno 10764 bound_to 10752
  153.0396  135.5245  154.7472 H   0  0  0  0  0  0  0  0  0  0  0  0  # atno 10765 bound_to 10752
  139.8843  134.9428  156.5963 H   0  0  0  0  0  0  0  0  0  0  0  0  # atno 11005 bound_to 11000
  145.5940  141.0365  143.2054 LP  0  0  0  0  0  0  0  0  0  0  0  0  # atno 17320 bound_to 7965
  144.7398  139.7480  143.7315 LP  0  0  0  0  0  0  0  0  0  0  0  0  # atno 17321 bound_to 7965
  140.5312  144.0728  150.6054 LP  0  0  0  0  0  0  0  0  0  0  0  0  # atno 17342 bound_to 10162
  140.3718  143.2850  152.0269 LP  0  0  0  0  0  0  0  0  0  0  0  0  # atno 17343 bound_to 10162
  157.4541  131.0876  151.0815 LP  0  0  0  0  0  0  0  0  0  0  0  0  # atno 17370 bound_to 10713
  157.1322  130.6107  149.5532 LP  0  0  0  0  0  0  0  0  0  0  0  0  # atno 17371 bound_to 10713
  140.7918  133.8576  155.8652 LP  0  0  0  0  0  0  0  0  0  0  0  0  # atno 17394 bound_to 11000
  140.9671  134.1580  157.4607 LP  0  0  0  0  0  0  0  0  0  0  0  0  # atno 17395 bound_to 11000

$$$$
