AV-unprocessed.smi:995|AV-procd|sdf|4345|dock6
  -GOLD-   22720 2243D 1   1.00000     0.00000
 Structure written by MMmdl.
 37 38  0  0  0  0  0  0  0  0  1 V2000
  145.5020  133.4641  153.6221 O   0  0  0  0  0  0  0  0  0  0  0  0
  146.4904  133.8083  152.9745 C   0  0  0  0  0  0  0  0  0  0  0  0
  147.6836  134.1260  153.5112 N   0  0  0  0  0  0  0  0  0  0  0  0
  148.0854  134.1342  154.8753 C   0  0  0  0  0  0  0  0  0  0  0  0
  149.4000  134.3995  155.3290 C   0  0  0  0  0  0  0  0  0  0  0  0
  149.6614  134.3699  156.7124 C   0  0  0  0  0  0  0  0  0  0  0  0
  148.6094  134.0686  157.5997 C   0  0  0  0  0  0  0  0  0  0  0  0
  148.8730  134.0489  158.9539 O   0  0  0  0  0  0  0  0  0  0  0  0
  147.8101  133.7330  159.8495 C   0  0  0  0  0  0  0  0  0  0  0  0
  147.2511  135.0313  160.4502 C   0  0  0  0  0  0  0  0  0  0  0  0
  148.2547  135.8790  160.6805 F   0  0  0  0  0  0  0  0  0  0  0  0
  146.4079  135.5678  159.5670 F   0  0  0  0  0  0  0  0  0  0  0  0
  146.4848  134.7887  161.7606 C   0  0  0  0  0  0  0  0  0  0  0  0
  145.5913  133.8089  161.6217 F   0  0  0  0  0  0  0  0  0  0  0  0
  147.3253  134.4853  162.7499 F   0  0  0  0  0  0  0  0  0  0  0  0
  147.3521  133.7976  157.1717 N   0  0  0  0  0  0  0  0  0  0  0  0
  147.1079  133.8297  155.8452 C   0  0  0  0  0  0  0  0  0  0  0  0
  146.4212  133.8963  151.4376 C   0  0  2  0  0  0  0  0  0  0  0  0
  145.3837  134.9080  150.8953 C   0  0  0  0  0  0  0  0  0  0  0  0
  144.0620  134.4267  151.1103 O   0  0  0  0  0  0  0  0  0  0  0  0
  143.8538  133.1760  150.4699 C   0  0  0  0  0  0  0  0  0  0  0  0
  144.8343  132.1458  151.0522 C   0  0  0  0  0  0  0  0  0  0  0  0
  146.1684  132.6119  150.8613 O   0  0  0  0  0  0  0  0  0  0  0  0
  148.4148  134.3362  152.8470 H   0  0  0  0  0  0  0  0  0  0  0  0
  150.2137  134.6146  154.6550 H   0  0  0  0  0  0  0  0  0  0  0  0
  150.6539  134.5735  157.0867 H   0  0  0  0  0  0  0  0  0  0  0  0
  147.0136  133.2052  159.3220 H   0  0  0  0  0  0  0  0  0  0  0  0
  148.1760  133.0808  160.6444 H   0  0  0  0  0  0  0  0  0  0  0  0
  145.9352  135.6790  162.0676 H   0  0  0  0  0  0  0  0  0  0  0  0
  146.0929  133.6078  155.5493 H   0  0  0  0  0  0  0  0  0  0  0  0
  147.4105  134.2110  151.1037 H   0  0  0  0  0  0  0  0  0  0  0  0
  145.4945  135.8807  151.3761 H   0  0  0  0  0  0  0  0  0  0  0  0
  145.5422  135.0742  149.8287 H   0  0  0  0  0  0  0  0  0  0  0  0
  142.8254  132.8565  150.6385 H   0  0  0  0  0  0  0  0  0  0  0  0
  143.9872  133.2759  149.3916 H   0  0  0  0  0  0  0  0  0  0  0  0
  144.6273  131.9669  152.1081 H   0  0  0  0  0  0  0  0  0  0  0  0
  144.7200  131.1884  150.5440 H   0  0  0  0  0  0  0  0  0  0  0  0
  1  2  2  0  0  0  0
  2  3  1  0  0  0  0
  2 18  1  0  0  0  0
  3  4  1  0  0  0  0
  3 24  1  0  0  0  0
  4 17  1  0  0  0  0
  4  5  2  0  0  0  0
  5  6  1  0  0  0  0
  5 25  1  0  0  0  0
  6  7  2  0  0  0  0
  6 26  1  0  0  0  0
  7  8  1  0  0  0  0
  7 16  1  0  0  0  0
  8  9  1  0  0  0  0
  9 10  1  0  0  0  0
  9 27  1  0  0  0  0
  9 28  1  0  0  0  0
 10 11  1  0  0  0  0
 10 12  1  0  0  0  0
 10 13  1  0  0  0  0
 13 14  1  0  0  0  0
 13 15  1  0  0  0  0
 13 29  1  0  0  0  0
 16 17  2  0  0  0  0
 17 30  1  0  0  0  0
 18 23  1  0  0  0  0
 18 19  1  0  0  0  0
 18 31  1  0  0  0  0
 19 20  1  0  0  0  0
 19 32  1  0  0  0  0
 19 33  1  0  0  0  0
 20 21  1  0  0  0  0
 21 22  1  0  0  0  0
 21 34  1  0  0  0  0
 21 35  1  0  0  0  0
 22 23  1  0  0  0  0
 22 36  1  0  0  0  0
 22 37  1  0  0  0  0
M  END
> <s_m_source_file>
AV-unprocessed.smi

> <i_m_source_file_index>
995

> <i_lp_mmshare_version>
43012

> <i_f3d_flags>
0

> <s_epik_input>
TzFbQ0gyXVtDSDJdT1tDSDJdW0NASF0xQyg9TylbTkhdYzJbY0hdW2NIXWMobltjSF0yKU9bQ0gyXUMoRikoRilbQ0hdKEYpRg==

> <s_epik_cmdline>
J2VwaWtfcHl0aG9uJywgJy1waCcsICc3LjAnLCAnLXRuJywgJzgnLCAnLW1hJywgJzIwMCcsICctbWV0YWxfYmluZGluZycsICctaW1hZScsICc8aW5maWxlLm1hZT4nLCAnLW9tYWUnLCAnPG91dGZpbGUubWFlPic=

> <r_lp_tautomer_probability>
1

> <r_epik_Ionization_Penalty>
2.54436e-06

> <r_epik_Ionization_Penalty_Charging>
0

> <r_epik_Ionization_Penalty_Neutral>
2.54436e-06

> <r_epik_State_Penalty>
-0

> <r_epik_Charging_Adjusted_Penalty>
0

> <i_epik_Tot_Q>
0

> <i_epik_Tot_abs_Q>
0

> <r_epik_Metal_State_Penalty>
-0

> <b_epik_Metal_Only>
0

> <s_lp_Force_Field>
OPLS_2005

> <r_lp_Energy>
9.34037

> <b_lp_Chiralities_Consistent>
1

> <s_lp_Variant>
AV-unprocessed.smi:995-1

> <Gold.Version>
5.8.1

> <Gold.Id.Protein>
6NUR|6NUR_protein|mol2

> <Gold.PLP.Fitness>
36.4021

> <Gold.PLP.PLP>
-31.8710

> <Gold.PLP.part.hbond>
-2.0000

> <Gold.PLP.part.metal>
0.0000

> <Gold.PLP.part.buried>
-6.1403

> <Gold.PLP.part.nonpolar>
-24.6793

> <Gold.PLP.part.repulsive>
0.4490

> <Gold.PLP.ligand.clash>
0.0000

> <Gold.PLP.ligand.torsion>
0.7743

> <Gold.PLP.Chemscore.Hbond>
1.9920

> <Gold.PLP.Chemscore.CHOScore>
0.0000

> <Gold.PLP.Chemscore.Metal>
0.0000

> <Gold.Chemscore.Hbonds>
donor molecule, donor type, donor heavy atom, donor atom, acceptor molecule, acceptor atom, score
      L1  H     3    24       P1  7948  0.39
      P1  H  6896  6907       L1     8  1.00

> <Gold.PLP.Chemscore.Internal.Correction>
0.1038

> <Gold.Rescore>
     Score         DG    S(hbond)    S(metal)    S(lipo)     H(rot)  DE(clash)    DE(int)     intcor
      9.08     -12.48       1.86        0.00      52.93       2.12       0.01       3.39       ----

> <Gold.Chemscore.Fitness>
9.0846

> <Gold.Chemscore.DG>
-12.4798

> <Gold.Chemscore.ZeroCoef>
-5.4800

> <Gold.Chemscore.Hbond>
1.8645

> <Gold.Chemscore.Metal>
0.0000

> <Gold.Chemscore.Lipo>
52.9269

> <Gold.Chemscore.Internal_Hbond>
0.0000

> <Gold.Chemscore.DEClash>
0.0062

> <Gold.Chemscore.DEInternal>
3.3890

> <Gold.Chemscore.Rot>
2.1172

> <Gold.Chemscore.Internal.Correction>
   9.000000E+99

> <Gold.Chemscore.Hbonds>
donor molecule, donor type, donor heavy atom, donor atom, acceptor molecule, acceptor atom, score
      L1  H     3    24       P1  7948  0.08
      P1  H  6896  6907       L1     8  0.92

> <Gold.Chemscore.Hbond.Weighted>
-6.2274

> <Gold.Chemscore.Metal.Weighted>
-0.0000

> <Gold.Chemscore.Lipo.Weighted>
-6.1924

> <Gold.Chemscore.Internal_Hbond.Weighted>
0.0000

> <Gold.Chemscore.DEClash.Weighted>
0.0062

> <Gold.Chemscore.DEInternal.Weighted>
3.3890

> <Gold.Chemscore.Rot.Weighted>
5.4200

> <Gold.Chemscore.Internal.Correction.Weighted>
   9.000000E+99

> <Gold.Protein.RotatedTorsions>
[ 6907 6896 6895 6894 ] final  -92.12 input  -60.11 | X-H torsion
[ 7974 7965 7964 7962 ] final  -83.65 input  175.53 | X-H torsion
[ 8008 7997 7996 7995 ] final  117.68 input   59.86 | X-H torsion
[ 10167 10162 10161 10158 ] final  125.88 input  -65.29 | X-H torsion
[ 10718 10713 10712 10709 ] final -146.23 input   66.30 | X-H torsion
[ 10763 10752 10751 10750 ] final  130.59 input  -60.55 | X-H torsion
[ 11005 11000 10999 10996 ] final   10.20 input  -57.11 | X-H torsion

> <Gold.Protein.ActiveResidues>
 VAL166  LYS551  ARG553  GLY616  TRP617  ASP618  TYR619  PRO620  LYS621  CYS622 
 ASP623  PHE694  ASN695  SER759  ASP760  ASP761  ALA762  ILE779  LEU786  VAL792 
 PHE793  MET794  SER795  GLU796  ALA797  LYS798  CYS799  TRP800  GLU811  SER814 

> <Gold.Protein.RotatedAtoms>
  150.6901  134.2171  159.4381 H   0  0  0  0  0  0  0  0  0  0  0  0  # atno 6907 bound_to 6896
  152.0129  134.9863  160.0578 H   0  0  0  0  0  0  0  0  0  0  0  0  # atno 6908 bound_to 6896
  152.1471  133.4464  159.4832 H   0  0  0  0  0  0  0  0  0  0  0  0  # atno 6909 bound_to 6896
  145.5171  140.9535  143.1675 H   0  0  0  0  0  0  0  0  0  0  0  0  # atno 7974 bound_to 7965
  156.2507  140.2891  156.0716 H   0  0  0  0  0  0  0  0  0  0  0  0  # atno 8008 bound_to 7997
  155.1664  140.0401  157.2871 H   0  0  0  0  0  0  0  0  0  0  0  0  # atno 8009 bound_to 7997
  154.6356  140.2510  155.7388 H   0  0  0  0  0  0  0  0  0  0  0  0  # atno 8010 bound_to 7997
  139.5661  144.6912  151.3905 H   0  0  0  0  0  0  0  0  0  0  0  0  # atno 10167 bound_to 10162
  156.3923  130.7892  151.2095 H   0  0  0  0  0  0  0  0  0  0  0  0  # atno 10718 bound_to 10713
  153.7605  135.3196  155.3336 H   0  0  0  0  0  0  0  0  0  0  0  0  # atno 10763 bound_to 10752
  154.8232  135.4588  154.0843 H   0  0  0  0  0  0  0  0  0  0  0  0  # atno 10764 bound_to 10752
  153.2072  135.6931  153.8241 H   0  0  0  0  0  0  0  0  0  0  0  0  # atno 10765 bound_to 10752
  140.5171  134.0595  155.7834 H   0  0  0  0  0  0  0  0  0  0  0  0  # atno 11005 bound_to 11000
  144.7696  139.6766  143.7200 LP  0  0  0  0  0  0  0  0  0  0  0  0  # atno 17320 bound_to 7965
  146.2130  139.5499  142.9669 LP  0  0  0  0  0  0  0  0  0  0  0  0  # atno 17321 bound_to 7965
  140.6945  143.7782  150.7305 LP  0  0  0  0  0  0  0  0  0  0  0  0  # atno 17342 bound_to 10162
  140.1275  143.4556  152.2275 LP  0  0  0  0  0  0  0  0  0  0  0  0  # atno 17343 bound_to 10162
  157.7499  131.0312  150.4170 LP  0  0  0  0  0  0  0  0  0  0  0  0  # atno 17370 bound_to 10713
  156.4433  130.3996  149.6683 LP  0  0  0  0  0  0  0  0  0  0  0  0  # atno 17371 bound_to 10713
  141.1354  133.9230  157.2445 LP  0  0  0  0  0  0  0  0  0  0  0  0  # atno 17394 bound_to 11000
  139.9626  135.0150  156.9302 LP  0  0  0  0  0  0  0  0  0  0  0  0  # atno 17395 bound_to 11000

$$$$
