AV-unprocessed.smi:2018|AV-procd|sdf|8169|dock9
  -GOLD-   2272010413D 1   1.00000     0.00000
 Structure written by MMmdl.
 35 36  0  0  0  0  0  0  0  0  1 V2000
  152.8891  143.1654  161.2999 C   0  0  0  0  0  0  0  0  0  0  0  0
  152.2631  143.0799  159.9502 C   0  0  0  0  0  0  0  0  0  0  0  0
  151.8019  141.9441  159.4203 N   0  0  0  0  0  0  0  0  0  0  0  0
  151.2620  142.1265  158.1430 C   0  0  0  0  0  0  0  0  0  0  0  0
  150.6979  140.9577  157.3942 C   0  0  0  0  0  0  0  0  0  0  0  0
  150.3757  141.3041  155.9310 C   0  0  0  0  0  0  0  0  0  0  0  0
  149.0006  141.7651  155.7798 N   0  0  0  0  0  0  0  0  0  0  0  0
  148.3016  141.7534  154.6299 C   0  0  0  0  0  0  0  0  0  0  0  0
  148.7655  141.3322  153.5699 O   0  0  0  0  0  0  0  0  0  0  0  0
  146.9167  142.2920  154.7019 C   0  0  0  0  0  0  0  0  0  0  0  0
  146.5598  143.2705  153.9299 N   0  0  0  0  0  0  0  0  0  0  0  0
  145.2815  143.7905  153.9485 N   0  0  0  0  0  0  0  0  0  0  0  0
  144.9698  144.6926  152.8414 C   0  0  0  0  0  0  0  0  0  0  0  0
  144.3594  143.5367  154.9102 C   0  0  0  0  0  0  0  0  0  0  0  0
  143.2172  143.9954  154.9011 O   0  0  0  0  0  0  0  0  0  0  0  0
  144.8123  142.6493  156.0731 C   0  0  0  0  0  0  0  0  0  0  0  0
  145.9222  141.6630  155.6580 C   0  0  0  0  0  0  0  0  0  0  0  0
  151.3243  143.4274  157.7099 C   0  0  0  0  0  0  0  0  0  0  0  0
  152.0628  144.4717  158.8928 S   0  0  0  0  0  0  0  0  0  0  0  0
  152.7047  142.2526  161.8672 H   0  0  0  0  0  0  0  0  0  0  0  0
  152.4734  144.0086  161.8516 H   0  0  0  0  0  0  0  0  0  0  0  0
  153.9655  143.3059  161.2023 H   0  0  0  0  0  0  0  0  0  0  0  0
  151.4015  140.1246  157.4236 H   0  0  0  0  0  0  0  0  0  0  0  0
  149.7961  140.6027  157.8946 H   0  0  0  0  0  0  0  0  0  0  0  0
  151.0678  142.0596  155.5552 H   0  0  0  0  0  0  0  0  0  0  0  0
  150.5068  140.4230  155.3019 H   0  0  0  0  0  0  0  0  0  0  0  0
  148.5460  142.1273  156.6059 H   0  0  0  0  0  0  0  0  0  0  0  0
  144.7017  145.6824  153.2138 H   0  0  0  0  0  0  0  0  0  0  0  0
  144.1310  144.3082  152.2592 H   0  0  0  0  0  0  0  0  0  0  0  0
  145.8144  144.8137  152.1610 H   0  0  0  0  0  0  0  0  0  0  0  0
  145.1815  143.3064  156.8615 H   0  0  0  0  0  0  0  0  0  0  0  0
  143.9602  142.1092  156.4874 H   0  0  0  0  0  0  0  0  0  0  0  0
  145.4811  140.7828  155.1888 H   0  0  0  0  0  0  0  0  0  0  0  0
  146.4240  141.3112  156.5602 H   0  0  0  0  0  0  0  0  0  0  0  0
  150.9823  143.8326  156.7690 H   0  0  0  0  0  0  0  0  0  0  0  0
  1  2  1  0  0  0  0
  1 20  1  0  0  0  0
  1 21  1  0  0  0  0
  1 22  1  0  0  0  0
  2 19  1  0  0  0  0
  2  3  2  0  0  0  0
  3  4  1  0  0  0  0
  4  5  1  0  0  0  0
  4 18  2  0  0  0  0
  5  6  1  0  0  0  0
  5 23  1  0  0  0  0
  5 24  1  0  0  0  0
  6  7  1  0  0  0  0
  6 25  1  0  0  0  0
  6 26  1  0  0  0  0
  7  8  1  0  0  0  0
  7 27  1  0  0  0  0
  8  9  2  0  0  0  0
  8 10  1  0  0  0  0
 10 17  1  0  0  0  0
 10 11  2  0  0  0  0
 11 12  1  0  0  0  0
 12 13  1  0  0  0  0
 12 14  1  0  0  0  0
 13 28  1  0  0  0  0
 13 29  1  0  0  0  0
 13 30  1  0  0  0  0
 14 15  2  0  0  0  0
 14 16  1  0  0  0  0
 16 17  1  0  0  0  0
 16 31  1  0  0  0  0
 16 32  1  0  0  0  0
 17 33  1  0  0  0  0
 17 34  1  0  0  0  0
 18 19  1  0  0  0  0
 18 35  1  0  0  0  0
M  END
> <s_m_source_file>
AV-unprocessed.smi

> <i_m_source_file_index>
2018

> <i_lp_mmshare_version>
43012

> <i_f3d_flags>
0

> <s_epik_input>
W0NIM11jMW5jKFtjSF1zMSlbQ0gyXVtDSDJdW05IXUMoPU8pQzI9Tk4oW0NIM10pQyg9TylbQ0gyXVtDSDJdMg==

> <s_epik_cmdline>
J2VwaWtfcHl0aG9uJywgJy1waCcsICc3LjAnLCAnLXRuJywgJzgnLCAnLW1hJywgJzIwMCcsICctbWV0YWxfYmluZGluZycsICctaW1hZScsICc8aW5maWxlLm1hZT4nLCAnLW9tYWUnLCAnPG91dGZpbGUubWFlPic=

> <r_epik_Ionization_Penalty>
0.000694267

> <r_epik_Ionization_Penalty_Charging>
0

> <r_epik_Ionization_Penalty_Neutral>
0.000694267

> <r_epik_State_Penalty>
0.000389372

> <r_epik_Charging_Adjusted_Penalty>
0.000389372

> <i_epik_Tot_Q>
0

> <i_epik_Tot_abs_Q>
0

> <r_epik_Metal_State_Penalty>
0.0645979

> <b_epik_Metal_Only>
0

> <s_epik_Chemistry_Notes>
This compound has an imine and may undergo hydrolysis.

> <s_lp_Force_Field>
OPLS_2005

> <r_lp_Energy>
11.1599

> <b_lp_Chiralities_Consistent>
1

> <s_lp_Variant>
AV-unprocessed.smi:2018-1

> <Gold.Version>
5.8.1

> <Gold.Id.Protein>
6NUR|6NUR_protein|mol2

> <Gold.PLP.Fitness>
43.3279

> <Gold.PLP.PLP>
-40.6154

> <Gold.PLP.part.hbond>
-3.2695

> <Gold.PLP.part.metal>
0.0000

> <Gold.PLP.part.buried>
-4.8970

> <Gold.PLP.part.nonpolar>
-37.0908

> <Gold.PLP.part.repulsive>
3.2544

> <Gold.PLP.ligand.clash>
0.0000

> <Gold.PLP.ligand.torsion>
1.5091

> <Gold.PLP.Chemscore.Hbond>
0.9093

> <Gold.PLP.Chemscore.CHOScore>
1.0000

> <Gold.PLP.Chemscore.Metal>
0.0000

> <Gold.Chemscore.Hbonds>
donor molecule, donor type, donor heavy atom, donor atom, acceptor molecule, acceptor atom, score
      P1  H  8011  8017       L1     9  0.85
      L1  C    18    35       P1  8028  1.00

> <Gold.PLP.Chemscore.Internal.Correction>
0.0030

> <Gold.Rescore>
     Score         DG    S(hbond)    S(metal)    S(lipo)     H(rot)  DE(clash)    DE(int)     intcor
     12.23     -14.62       0.77        0.00      87.68       1.45       0.95       1.44       ----

> <Gold.Chemscore.Fitness>
12.2324

> <Gold.Chemscore.DG>
-14.6155

> <Gold.Chemscore.ZeroCoef>
-5.4800

> <Gold.Chemscore.Hbond>
0.7735

> <Gold.Chemscore.Metal>
0.0000

> <Gold.Chemscore.Lipo>
87.6837

> <Gold.Chemscore.Internal_Hbond>
0.0000

> <Gold.Chemscore.DEClash>
0.9465

> <Gold.Chemscore.DEInternal>
1.4366

> <Gold.Chemscore.Rot>
1.4480

> <Gold.Chemscore.Internal.Correction>
   9.000000E+99

> <Gold.Chemscore.Hbonds>
donor molecule, donor type, donor heavy atom, donor atom, acceptor molecule, acceptor atom, score
      P1  H  8011  8017       L1     9  0.84

> <Gold.Chemscore.Hbond.Weighted>
-2.5834

> <Gold.Chemscore.Metal.Weighted>
-0.0000

> <Gold.Chemscore.Lipo.Weighted>
-10.2590

> <Gold.Chemscore.Internal_Hbond.Weighted>
0.0000

> <Gold.Chemscore.DEClash.Weighted>
0.9465

> <Gold.Chemscore.DEInternal.Weighted>
1.4366

> <Gold.Chemscore.Rot.Weighted>
3.7070

> <Gold.Chemscore.Internal.Correction.Weighted>
   9.000000E+99

> <Gold.Protein.RotatedTorsions>
[ 6907 6896 6895 6894 ] final  -77.25 input  -60.11 | X-H torsion
[ 7974 7965 7964 7962 ] final -120.18 input  175.53 | X-H torsion
[ 8008 7997 7996 7995 ] final   26.06 input   59.86 | X-H torsion
[ 10167 10162 10161 10158 ] final  -83.53 input  -65.29 | X-H torsion
[ 10718 10713 10712 10709 ] final -132.05 input   66.30 | X-H torsion
[ 10763 10752 10751 10750 ] final   67.64 input  -60.55 | X-H torsion
[ 11005 11000 10999 10996 ] final  113.30 input  -57.11 | X-H torsion

> <Gold.Protein.ActiveResidues>
 VAL166  LYS551  ARG553  GLY616  TRP617  ASP618  TYR619  PRO620  LYS621  CYS622 
 ASP623  PHE694  ASN695  SER759  ASP760  ASP761  ALA762  ILE779  LEU786  VAL792 
 PHE793  MET794  SER795  GLU796  ALA797  LYS798  CYS799  TRP800  GLU811  SER814 

> <Gold.Protein.RotatedAtoms>
  150.7004  134.4450  159.5309 H   0  0  0  0  0  0  0  0  0  0  0  0  # atno 6907 bound_to 6896
  152.2153  134.8461  160.0501 H   0  0  0  0  0  0  0  0  0  0  0  0  # atno 6908 bound_to 6896
  151.9331  133.3582  159.3975 H   0  0  0  0  0  0  0  0  0  0  0  0  # atno 6909 bound_to 6896
  145.0543  140.8242  143.4191 H   0  0  0  0  0  0  0  0  0  0  0  0  # atno 7974 bound_to 7965
  155.0214  140.3148  155.4792 H   0  0  0  0  0  0  0  0  0  0  0  0  # atno 8008 bound_to 7997
  156.2891  140.2196  156.5275 H   0  0  0  0  0  0  0  0  0  0  0  0  # atno 8009 bound_to 7997
  154.7448  140.0471  157.0831 H   0  0  0  0  0  0  0  0  0  0  0  0  # atno 8010 bound_to 7997
  140.4218  143.2582  151.8880 H   0  0  0  0  0  0  0  0  0  0  0  0  # atno 10167 bound_to 10162
  156.2306  130.7035  151.0854 H   0  0  0  0  0  0  0  0  0  0  0  0  # atno 10718 bound_to 10713
  153.0196  135.5276  154.7011 H   0  0  0  0  0  0  0  0  0  0  0  0  # atno 10763 bound_to 10752
  154.6119  135.2879  155.0425 H   0  0  0  0  0  0  0  0  0  0  0  0  # atno 10764 bound_to 10752
  154.1443  135.6573  153.5001 H   0  0  0  0  0  0  0  0  0  0  0  0  # atno 10765 bound_to 10752
  139.8949  134.9547  156.6718 H   0  0  0  0  0  0  0  0  0  0  0  0  # atno 11005 bound_to 11000
  145.1488  139.2527  143.5451 LP  0  0  0  0  0  0  0  0  0  0  0  0  # atno 17320 bound_to 7965
  146.3520  140.1185  142.8601 LP  0  0  0  0  0  0  0  0  0  0  0  0  # atno 17321 bound_to 7965
  139.4783  144.5430  151.8500 LP  0  0  0  0  0  0  0  0  0  0  0  0  # atno 17342 bound_to 10162
  140.4526  144.1834  150.5898 LP  0  0  0  0  0  0  0  0  0  0  0  0  # atno 17343 bound_to 10162
  157.7131  131.0724  150.6427 LP  0  0  0  0  0  0  0  0  0  0  0  0  # atno 17370 bound_to 10713
  156.6494  130.4481  149.5724 LP  0  0  0  0  0  0  0  0  0  0  0  0  # atno 17371 bound_to 10713
  140.7367  133.9012  155.8249 LP  0  0  0  0  0  0  0  0  0  0  0  0  # atno 17394 bound_to 11000
  141.0110  134.1020  157.4221 LP  0  0  0  0  0  0  0  0  0  0  0  0  # atno 17395 bound_to 11000

$$$$
