AV-unprocessed.smi:2133|AV-procd|sdf|8692|dock9
  -GOLD-   2272011453D 1   1.00000     0.00000
 Structure written by MMmdl.
 45 47  0  0  0  0  0  0  0  0  1 V2000
  143.4424  143.2636  158.5156 C   0  0  0  0  0  0  0  0  0  0  0  0
  143.8652  143.4317  157.1122 N   0  0  0  0  0  0  0  0  0  0  0  0
  144.8535  142.6137  156.6305 C   0  0  0  0  0  0  0  0  0  0  0  0
  145.4166  141.7329  157.2809 O   0  0  0  0  0  0  0  0  0  0  0  0
  145.2056  142.8697  155.2299 C   0  0  0  0  0  0  0  0  0  0  0  0
  144.5970  143.8206  154.4803 C   0  0  0  0  0  0  0  0  0  0  0  0
  145.1099  143.8549  153.1888 N   0  0  0  0  0  0  0  0  0  0  0  0
  146.0322  142.8932  153.2316 C   0  0  0  0  0  0  0  0  0  0  0  0
  146.1542  142.2544  154.4131 N   0  0  0  0  0  0  0  0  0  0  0  0
  147.0862  141.1757  154.7051 C   0  0  0  0  0  0  0  0  0  0  0  0
  148.5581  141.6193  154.5915 C   0  0  2  0  0  0  0  0  0  0  0  0
  149.0283  141.4212  153.2729 O   0  0  0  0  0  0  0  0  0  0  0  0
  149.4743  140.8547  155.5576 C   0  0  0  0  0  0  0  0  0  0  0  0
  150.4309  141.7552  156.0913 O   0  0  0  0  0  0  0  0  0  0  0  0
  151.0237  141.2878  157.2921 C   0  0  0  0  0  0  0  0  0  0  0  0
  151.4592  142.4273  158.1948 C   0  0  0  0  0  0  0  0  0  0  0  0
  152.0238  142.1624  159.4612 C   0  0  0  0  0  0  0  0  0  0  0  0
  152.4113  143.2250  160.3009 C   0  0  0  0  0  0  0  0  0  0  0  0
  152.2296  144.5570  159.8817 C   0  0  0  0  0  0  0  0  0  0  0  0
  151.6581  144.8263  158.6232 C   0  0  0  0  0  0  0  0  0  0  0  0
  151.2710  143.7639  157.7830 C   0  0  0  0  0  0  0  0  0  0  0  0
  143.5796  144.6078  155.0737 N   0  0  0  0  0  0  0  0  0  0  0  0
  142.9438  145.6246  154.2305 C   0  0  0  0  0  0  0  0  0  0  0  0
  143.2176  144.4170  156.3854 C   0  0  0  0  0  0  0  0  0  0  0  0
  142.3358  145.1084  156.9021 O   0  0  0  0  0  0  0  0  0  0  0  0
  143.9669  142.4801  159.0633 H   0  0  0  0  0  0  0  0  0  0  0  0
  142.3806  143.0176  158.5659 H   0  0  0  0  0  0  0  0  0  0  0  0
  143.5991  144.1884  159.0734 H   0  0  0  0  0  0  0  0  0  0  0  0
  146.6390  142.6422  152.3738 H   0  0  0  0  0  0  0  0  0  0  0  0
  146.8836  140.8303  155.7197 H   0  0  0  0  0  0  0  0  0  0  0  0
  146.8818  140.3241  154.0583 H   0  0  0  0  0  0  0  0  0  0  0  0
  148.6327  142.6861  154.8064 H   0  0  0  0  0  0  0  0  0  0  0  0
  149.0449  140.4930  153.0965 H   0  0  0  0  0  0  0  0  0  0  0  0
  148.8907  140.3979  156.3587 H   0  0  0  0  0  0  0  0  0  0  0  0
  149.9899  140.0524  155.0269 H   0  0  0  0  0  0  0  0  0  0  0  0
  150.3146  140.6548  157.8281 H   0  0  0  0  0  0  0  0  0  0  0  0
  151.8977  140.6771  157.0616 H   0  0  0  0  0  0  0  0  0  0  0  0
  152.1625  141.1442  159.7945 H   0  0  0  0  0  0  0  0  0  0  0  0
  152.8462  143.0177  161.2676 H   0  0  0  0  0  0  0  0  0  0  0  0
  152.5255  145.3715  160.5265 H   0  0  0  0  0  0  0  0  0  0  0  0
  151.5151  145.8477  158.3027 H   0  0  0  0  0  0  0  0  0  0  0  0
  150.8303  143.9789  156.8205 H   0  0  0  0  0  0  0  0  0  0  0  0
  142.1693  146.2065  154.7310 H   0  0  0  0  0  0  0  0  0  0  0  0
  142.4829  145.1511  153.3630 H   0  0  0  0  0  0  0  0  0  0  0  0
  143.6937  146.3284  153.8677 H   0  0  0  0  0  0  0  0  0  0  0  0
  1  2  1  0  0  0  0
  1 26  1  0  0  0  0
  1 27  1  0  0  0  0
  1 28  1  0  0  0  0
  2 24  1  0  0  0  0
  2  3  1  0  0  0  0
  3  4  2  0  0  0  0
  3  5  1  0  0  0  0
  5  9  1  0  0  0  0
  5  6  2  0  0  0  0
  6  7  1  0  0  0  0
  6 22  1  0  0  0  0
  7  8  2  0  0  0  0
  8  9  1  0  0  0  0
  8 29  1  0  0  0  0
  9 10  1  0  0  0  0
 10 11  1  0  0  0  0
 10 30  1  0  0  0  0
 10 31  1  0  0  0  0
 11 12  1  0  0  0  0
 11 13  1  0  0  0  0
 11 32  1  0  0  0  0
 12 33  1  0  0  0  0
 13 14  1  0  0  0  0
 13 34  1  0  0  0  0
 13 35  1  0  0  0  0
 14 15  1  0  0  0  0
 15 16  1  0  0  0  0
 15 36  1  0  0  0  0
 15 37  1  0  0  0  0
 16 21  1  0  0  0  0
 16 17  2  0  0  0  0
 17 18  1  0  0  0  0
 17 38  1  0  0  0  0
 18 19  2  0  0  0  0
 18 39  1  0  0  0  0
 19 20  1  0  0  0  0
 19 40  1  0  0  0  0
 20 21  2  0  0  0  0
 20 41  1  0  0  0  0
 21 42  1  0  0  0  0
 22 23  1  0  0  0  0
 22 24  1  0  0  0  0
 23 43  1  0  0  0  0
 23 44  1  0  0  0  0
 23 45  1  0  0  0  0
 24 25  2  0  0  0  0
M  END
> <s_m_source_file>
AV-unprocessed.smi

> <i_m_source_file_index>
2133

> <i_lp_mmshare_version>
43012

> <i_f3d_flags>
0

> <s_epik_input>
Tz1jMW4oW0NIM10pYyg9TyluKFtDSDNdKWMoYzEyKW5bY0hdbjJbQ0gyXVtDQEhdKFtPSF0pW0NIMl1PW0NIMl1jM1tjSF1bY0hdW2NIXVtjSF1bY0hdMw==

> <s_epik_cmdline>
J2VwaWtfcHl0aG9uJywgJy1waCcsICc3LjAnLCAnLXRuJywgJzgnLCAnLW1hJywgJzIwMCcsICctbWV0YWxfYmluZGluZycsICctaW1hZScsICc8aW5maWxlLm1hZT4nLCAnLW9tYWUnLCAnPG91dGZpbGUubWFlPic=

> <r_lp_tautomer_probability>
1

> <r_epik_Ionization_Penalty>
1.52174e-06

> <r_epik_Ionization_Penalty_Charging>
3.83535e-09

> <r_epik_Ionization_Penalty_Neutral>
1.5179e-06

> <r_epik_State_Penalty>
-0

> <r_epik_Charging_Adjusted_Penalty>
3.83535e-09

> <i_epik_Tot_Q>
0

> <i_epik_Tot_abs_Q>
0

> <r_epik_Metal_State_Penalty>
-0

> <b_epik_Metal_Only>
0

> <s_lp_Force_Field>
OPLS_2005

> <r_lp_Energy>
38.2919

> <b_lp_Chiralities_Consistent>
1

> <s_lp_Variant>
AV-unprocessed.smi:2133-1

> <Gold.Version>
5.8.1

> <Gold.Id.Protein>
6NUR|6NUR_protein|mol2

> <Gold.PLP.Fitness>
50.5281

> <Gold.PLP.PLP>
-49.2264

> <Gold.PLP.part.hbond>
-2.7163

> <Gold.PLP.part.metal>
0.0000

> <Gold.PLP.part.buried>
-7.5639

> <Gold.PLP.part.nonpolar>
-39.2620

> <Gold.PLP.part.repulsive>
0.3343

> <Gold.PLP.ligand.clash>
0.0000

> <Gold.PLP.ligand.torsion>
1.1980

> <Gold.PLP.Chemscore.Hbond>
1.2062

> <Gold.PLP.Chemscore.CHOScore>
0.0000

> <Gold.PLP.Chemscore.Metal>
0.0000

> <Gold.Chemscore.Hbonds>
donor molecule, donor type, donor heavy atom, donor atom, acceptor molecule, acceptor atom, score
      L1  H    12    33       P1  7957  0.23
      P1  H  8011  8017       L1    12  0.96

> <Gold.PLP.Chemscore.Internal.Correction>
0.0791

> <Gold.Rescore>
     Score         DG    S(hbond)    S(metal)    S(lipo)     H(rot)  DE(clash)    DE(int)     intcor
     12.10     -13.99       0.99        0.00     108.33       2.91       0.63       1.26       ----

> <Gold.Chemscore.Fitness>
12.0987

> <Gold.Chemscore.DG>
-13.9943

> <Gold.Chemscore.ZeroCoef>
-5.4800

> <Gold.Chemscore.Hbond>
0.9874

> <Gold.Chemscore.Metal>
0.0000

> <Gold.Chemscore.Lipo>
108.3252

> <Gold.Chemscore.Internal_Hbond>
0.0000

> <Gold.Chemscore.DEClash>
0.6345

> <Gold.Chemscore.DEInternal>
1.2610

> <Gold.Chemscore.Rot>
2.9132

> <Gold.Chemscore.Internal.Correction>
   9.000000E+99

> <Gold.Chemscore.Hbonds>
donor molecule, donor type, donor heavy atom, donor atom, acceptor molecule, acceptor atom, score
      L1  H    12    33       P1  7957  0.23
      P1  H  8011  8017       L1    12  0.87

> <Gold.Chemscore.Hbond.Weighted>
-3.2980

> <Gold.Chemscore.Metal.Weighted>
-0.0000

> <Gold.Chemscore.Lipo.Weighted>
-12.6741

> <Gold.Chemscore.Internal_Hbond.Weighted>
0.0000

> <Gold.Chemscore.DEClash.Weighted>
0.6345

> <Gold.Chemscore.DEInternal.Weighted>
1.2610

> <Gold.Chemscore.Rot.Weighted>
7.4578

> <Gold.Chemscore.Internal.Correction.Weighted>
   9.000000E+99

> <Gold.Protein.RotatedTorsions>
[ 6907 6896 6895 6894 ] final  -36.03 input  -60.11 | X-H torsion
[ 7974 7965 7964 7962 ] final -165.66 input  175.53 | X-H torsion
[ 8008 7997 7996 7995 ] final  -88.73 input   59.86 | X-H torsion
[ 10167 10162 10161 10158 ] final  -34.98 input  -65.29 | X-H torsion
[ 10718 10713 10712 10709 ] final   48.27 input   66.30 | X-H torsion
[ 10763 10752 10751 10750 ] final   88.98 input  -60.55 | X-H torsion
[ 11005 11000 10999 10996 ] final   62.04 input  -57.11 | X-H torsion

> <Gold.Protein.ActiveResidues>
 VAL166  LYS551  ARG553  GLY616  TRP617  ASP618  TYR619  PRO620  LYS621  CYS622 
 ASP623  PHE694  ASN695  SER759  ASP760  ASP761  ALA762  ILE779  LEU786  VAL792 
 PHE793  MET794  SER795  GLU796  ALA797  LYS798  CYS799  TRP800  GLU811  SER814 

> <Gold.Protein.RotatedAtoms>
  151.0323  134.9548  159.8117 H   0  0  0  0  0  0  0  0  0  0  0  0  # atno 6907 bound_to 6896
  152.5348  134.2764  159.9001 H   0  0  0  0  0  0  0  0  0  0  0  0  # atno 6908 bound_to 6896
  151.2774  133.4183  159.2659 H   0  0  0  0  0  0  0  0  0  0  0  0  # atno 6909 bound_to 6896
  144.7264  140.2781  143.6240 H   0  0  0  0  0  0  0  0  0  0  0  0  # atno 7974 bound_to 7965
  154.6783  140.0550  157.0238 H   0  0  0  0  0  0  0  0  0  0  0  0  # atno 8008 bound_to 7997
  155.0989  140.3227  155.4534 H   0  0  0  0  0  0  0  0  0  0  0  0  # atno 8009 bound_to 7997
  156.2684  140.2034  156.6115 H   0  0  0  0  0  0  0  0  0  0  0  0  # atno 8010 bound_to 7997
  140.7175  143.3510  151.2156 H   0  0  0  0  0  0  0  0  0  0  0  0  # atno 10167 bound_to 10162
  157.4669  130.8231  149.7946 H   0  0  0  0  0  0  0  0  0  0  0  0  # atno 10718 bound_to 10713
  153.1824  135.4487  155.0045 H   0  0  0  0  0  0  0  0  0  0  0  0  # atno 10763 bound_to 10752
  154.8038  135.3266  154.7485 H   0  0  0  0  0  0  0  0  0  0  0  0  # atno 10764 bound_to 10752
  153.7948  135.6967  153.4920 H   0  0  0  0  0  0  0  0  0  0  0  0  # atno 10765 bound_to 10752
  140.0119  134.6283  155.9767 H   0  0  0  0  0  0  0  0  0  0  0  0  # atno 11005 bound_to 11000
  145.7977  139.1952  143.2066 LP  0  0  0  0  0  0  0  0  0  0  0  0  # atno 17320 bound_to 7965
  146.0703  140.7876  142.9691 LP  0  0  0  0  0  0  0  0  0  0  0  0  # atno 17321 bound_to 7965
  139.7040  143.9485  152.2918 LP  0  0  0  0  0  0  0  0  0  0  0  0  # atno 17342 bound_to 10162
  139.9188  144.6812  150.8483 LP  0  0  0  0  0  0  0  0  0  0  0  0  # atno 17343 bound_to 10162
  156.0055  130.3858  150.2448 LP  0  0  0  0  0  0  0  0  0  0  0  0  # atno 17370 bound_to 10713
  157.0629  131.0095  151.3216 LP  0  0  0  0  0  0  0  0  0  0  0  0  # atno 17371 bound_to 10713
  141.1717  133.6538  156.4676 LP  0  0  0  0  0  0  0  0  0  0  0  0  # atno 17394 bound_to 11000
  140.4539  134.6903  157.5053 LP  0  0  0  0  0  0  0  0  0  0  0  0  # atno 17395 bound_to 11000

$$$$
