AV-unprocessed.smi:787|AV-procd|sdf|3727|dock9
  -GOLD-   22720 1163D 1   1.00000     0.00000
 Structure written by MMmdl.
 47 49  0  0  0  0  0  0  0  0  2 V2000
  143.3868  144.9213  156.8982 C   0  0  0  0  0  0  0  0  0  0  0  0
  144.3820  144.6535  157.9242 N   0  0  0  0  0  0  0  0  0  0  0  0
  144.9354  145.7023  158.6721 C   0  0  0  0  0  0  0  0  0  0  0  0
  144.4405  146.9554  158.5467 N   0  0  0  0  0  0  0  0  0  0  0  0
  144.9930  147.9252  159.2871 C   0  0  0  0  0  0  0  0  0  0  0  0
  146.0021  147.8444  160.1683 N   0  0  0  0  0  0  0  0  0  0  0  0
  146.5014  146.6079  160.2976 C   0  0  0  0  0  0  0  0  0  0  0  0
  147.5415  146.2348  161.1312 N   0  0  0  0  0  0  0  0  0  0  0  0
  147.6366  144.9321  160.8799 C   0  0  0  0  0  0  0  0  0  0  0  0
  146.7915  144.4109  159.9683 N   0  0  0  0  0  0  0  0  0  0  0  0
  146.7355  143.0263  159.5319 C   0  0  0  0  0  0  0  0  0  0  0  0
  147.2002  142.8410  158.0730 C   0  0  2  0  0  0  0  0  0  0  0  0
  146.0913  142.3997  157.3169 O   0  0  0  0  0  0  0  0  0  0  0  0
  148.3564  141.8301  157.9033 C   0  0  0  0  0  0  0  0  0  0  0  0
  149.0953  142.0478  156.6346 N   0  3  2  0  0  0  0  0  0  0  0  0
  148.4137  141.4304  155.4736 C   0  0  0  0  0  0  0  0  0  0  0  0
  150.5290  141.6688  156.7212 C   0  0  0  0  0  0  0  0  0  0  0  0
  151.2754  142.5569  157.6988 C   0  0  0  0  0  0  0  0  0  0  0  0
  151.4332  143.9351  157.4396 C   0  0  0  0  0  0  0  0  0  0  0  0
  152.1244  144.7520  158.3557 C   0  0  0  0  0  0  0  0  0  0  0  0
  152.6609  144.1943  159.5322 C   0  0  0  0  0  0  0  0  0  0  0  0
  152.5076  142.8188  159.7922 C   0  0  0  0  0  0  0  0  0  0  0  0
  151.8168  142.0012  158.8770 C   0  0  0  0  0  0  0  0  0  0  0  0
  146.0060  145.4883  159.5631 C   0  0  0  0  0  0  0  0  0  0  0  0
  143.0681  143.9868  156.4367 H   0  0  0  0  0  0  0  0  0  0  0  0
  143.7974  145.5644  156.1193 H   0  0  0  0  0  0  0  0  0  0  0  0
  142.5095  145.4062  157.3276 H   0  0  0  0  0  0  0  0  0  0  0  0
  144.6194  143.6959  158.1390 H   0  0  0  0  0  0  0  0  0  0  0  0
  144.5668  148.9089  159.1570 H   0  0  0  0  0  0  0  0  0  0  0  0
  148.3744  144.3220  161.3806 H   0  0  0  0  0  0  0  0  0  0  0  0
  147.3547  142.4286  160.2031 H   0  0  0  0  0  0  0  0  0  0  0  0
  145.7124  142.6692  159.6561 H   0  0  0  0  0  0  0  0  0  0  0  0
  147.4942  143.8110  157.6763 H   0  0  0  0  0  0  0  0  0  0  0  0
  146.1372  141.4595  157.2277 H   0  0  0  0  0  0  0  0  0  0  0  0
  149.0665  141.8908  158.7290 H   0  0  0  0  0  0  0  0  0  0  0  0
  147.9431  140.8206  157.9340 H   0  0  0  0  0  0  0  0  0  0  0  0
  148.3756  140.3450  155.5749 H   0  0  0  0  0  0  0  0  0  0  0  0
  148.9288  141.6690  154.5429 H   0  0  0  0  0  0  0  0  0  0  0  0
  147.3924  141.8015  155.3832 H   0  0  0  0  0  0  0  0  0  0  0  0
  150.6425  140.6399  157.0627 H   0  0  0  0  0  0  0  0  0  0  0  0
  150.9916  141.7074  155.7337 H   0  0  0  0  0  0  0  0  0  0  0  0
  151.0238  144.3711  156.5403 H   0  0  0  0  0  0  0  0  0  0  0  0
  152.2434  145.8069  158.1561 H   0  0  0  0  0  0  0  0  0  0  0  0
  153.1905  144.8211  160.2344 H   0  0  0  0  0  0  0  0  0  0  0  0
  152.9201  142.3912  160.6944 H   0  0  0  0  0  0  0  0  0  0  0  0
  151.7013  140.9470  159.0833 H   0  0  0  0  0  0  0  0  0  0  0  0
  149.0710  143.0457  156.4773 H   0  0  0  0  0  0  0  0  0  0  0  0
  1  2  1  0  0  0  0
  1 25  1  0  0  0  0
  1 26  1  0  0  0  0
  1 27  1  0  0  0  0
  2  3  1  0  0  0  0
  2 28  1  0  0  0  0
  3 24  1  0  0  0  0
  3  4  2  0  0  0  0
  4  5  1  0  0  0  0
  5  6  2  0  0  0  0
  5 29  1  0  0  0  0
  6  7  1  0  0  0  0
  7 24  2  0  0  0  0
  7  8  1  0  0  0  0
  8  9  2  0  0  0  0
  9 10  1  0  0  0  0
  9 30  1  0  0  0  0
 10 11  1  0  0  0  0
 10 24  1  0  0  0  0
 11 12  1  0  0  0  0
 11 31  1  0  0  0  0
 11 32  1  0  0  0  0
 12 13  1  0  0  0  0
 12 14  1  0  0  0  0
 12 33  1  0  0  0  0
 13 34  1  0  0  0  0
 14 15  1  0  0  0  0
 14 35  1  0  0  0  0
 14 36  1  0  0  0  0
 15 16  1  0  0  0  0
 15 17  1  0  0  0  0
 15 47  1  0  0  0  0
 16 37  1  0  0  0  0
 16 38  1  0  0  0  0
 16 39  1  0  0  0  0
 17 18  1  0  0  0  0
 17 40  1  0  0  0  0
 17 41  1  0  0  0  0
 18 23  1  0  0  0  0
 18 19  2  0  0  0  0
 19 20  1  0  0  0  0
 19 42  1  0  0  0  0
 20 21  2  0  0  0  0
 20 43  1  0  0  0  0
 21 22  1  0  0  0  0
 21 44  1  0  0  0  0
 22 23  2  0  0  0  0
 22 45  1  0  0  0  0
 23 46  1  0  0  0  0
M  CHG  1  15   1
M  END
> <s_m_source_file>
AV-unprocessed.smi

> <i_m_source_file_index>
787

> <i_lp_mmshare_version>
43012

> <i_f3d_flags>
0

> <s_epik_input>
bjFbY0hdbmMoW05IXVtDSDNdKWMoYzEyKW4oW2NIXW4yKVtDSDJdW0NASF0oW09IXSlbQ0gyXU4oW0NIM10pW0NIMl1jM1tjSF1bY0hdW2NIXVtjSF1bY0hdMw==

> <s_epik_cmdline>
J2VwaWtfcHl0aG9uJywgJy1waCcsICc3LjAnLCAnLXRuJywgJzgnLCAnLW1hJywgJzIwMCcsICctbWV0YWxfYmluZGluZycsICctaW1hZScsICc8aW5maWxlLm1hZT4nLCAnLW9tYWUnLCAnPG91dGZpbGUubWFlPic=

> <r_lp_tautomer_probability>
0.999987

> <r_epik_Ionization_Penalty>
0.0526284

> <r_epik_Ionization_Penalty_Charging>
0.0475377

> <r_epik_Ionization_Penalty_Neutral>
0.00509065

> <r_epik_State_Penalty>
0.0404888

> <r_epik_Charging_Adjusted_Penalty>
0.0880265

> <i_epik_Tot_Q>
1

> <i_epik_Tot_abs_Q>
1

> <r_epik_Metal_State_Penalty>
0.040507

> <b_epik_Metal_Only>
0

> <s_lp_Force_Field>
OPLS_2005

> <r_lp_Energy>
15.7703

> <b_lp_Chiralities_Consistent>
1

> <s_lp_Variant>
AV-unprocessed.smi:787-3

> <Gold.Version>
5.8.1

> <Gold.Id.Protein>
6NUR|6NUR_protein|mol2

> <Gold.PLP.Fitness>
47.8397

> <Gold.PLP.PLP>
-44.3222

> <Gold.PLP.part.hbond>
-4.7073

> <Gold.PLP.part.metal>
0.0000

> <Gold.PLP.part.buried>
-2.5553

> <Gold.PLP.part.nonpolar>
-37.2886

> <Gold.PLP.part.repulsive>
0.5625

> <Gold.PLP.ligand.clash>
0.0000

> <Gold.PLP.ligand.torsion>
1.4144

> <Gold.PLP.Chemscore.Hbond>
2.0000

> <Gold.PLP.Chemscore.CHOScore>
0.0000

> <Gold.PLP.Chemscore.Metal>
0.0000

> <Gold.Chemscore.Hbonds>
donor molecule, donor type, donor heavy atom, donor atom, acceptor molecule, acceptor atom, score
      L1  H    15    47       P1  8028  2.00

> <Gold.PLP.Chemscore.Internal.Correction>
0.3462

> <Gold.Rescore>
     Score         DG    S(hbond)    S(metal)    S(lipo)     H(rot)  DE(clash)    DE(int)     intcor
      8.79     -12.04       1.00        0.00      97.45       3.19       0.39       2.86       ----

> <Gold.Chemscore.Fitness>
8.7868

> <Gold.Chemscore.DG>
-12.0368

> <Gold.Chemscore.ZeroCoef>
-5.4800

> <Gold.Chemscore.Hbond>
0.9968

> <Gold.Chemscore.Metal>
0.0000

> <Gold.Chemscore.Lipo>
97.4465

> <Gold.Chemscore.Internal_Hbond>
0.0000

> <Gold.Chemscore.DEClash>
0.3930

> <Gold.Chemscore.DEInternal>
2.8569

> <Gold.Chemscore.Rot>
3.1928

> <Gold.Chemscore.Internal.Correction>
   9.000000E+99

> <Gold.Chemscore.Hbonds>
donor molecule, donor type, donor heavy atom, donor atom, acceptor molecule, acceptor atom, score
      L1  H    15    47       P1  8028  0.99

> <Gold.Chemscore.Hbond.Weighted>
-3.3292

> <Gold.Chemscore.Metal.Weighted>
-0.0000

> <Gold.Chemscore.Lipo.Weighted>
-11.4012

> <Gold.Chemscore.Internal_Hbond.Weighted>
0.0000

> <Gold.Chemscore.DEClash.Weighted>
0.3930

> <Gold.Chemscore.DEInternal.Weighted>
2.8569

> <Gold.Chemscore.Rot.Weighted>
8.1736

> <Gold.Chemscore.Internal.Correction.Weighted>
   9.000000E+99

> <Gold.Protein.RotatedTorsions>
[ 6907 6896 6895 6894 ] final -111.56 input  -60.11 | X-H torsion
[ 7974 7965 7964 7962 ] final -178.50 input  175.53 | X-H torsion
[ 8008 7997 7996 7995 ] final -169.70 input   59.86 | X-H torsion
[ 10167 10162 10161 10158 ] final   90.93 input  -65.29 | X-H torsion
[ 10718 10713 10712 10709 ] final   95.00 input   66.30 | X-H torsion
[ 10763 10752 10751 10750 ] final   74.72 input  -60.55 | X-H torsion
[ 11005 11000 10999 10996 ] final   50.35 input  -57.11 | X-H torsion

> <Gold.Protein.ActiveResidues>
 VAL166  LYS551  ARG553  GLY616  TRP617  ASP618  TYR619  PRO620  LYS621  CYS622 
 ASP623  PHE694  ASN695  SER759  ASP760  ASP761  ALA762  ILE779  LEU786  VAL792 
 PHE793  MET794  SER795  GLU796  ALA797  LYS798  CYS799  TRP800  GLU811  SER814 

> <Gold.Protein.RotatedAtoms>
  150.7699  133.9217  159.3399 H   0  0  0  0  0  0  0  0  0  0  0  0  # atno 6907 bound_to 6896
  151.7106  135.0911  160.0276 H   0  0  0  0  0  0  0  0  0  0  0  0  # atno 6908 bound_to 6896
  152.3711  133.6383  159.6124 H   0  0  0  0  0  0  0  0  0  0  0  0  # atno 6909 bound_to 6896
  144.7131  140.0859  143.6423 H   0  0  0  0  0  0  0  0  0  0  0  0  # atno 7974 bound_to 7965
  155.9085  140.1053  157.1297 H   0  0  0  0  0  0  0  0  0  0  0  0  # atno 8008 bound_to 7997
  154.4036  140.1279  156.4591 H   0  0  0  0  0  0  0  0  0  0  0  0  # atno 8009 bound_to 7997
  155.7338  140.3468  155.5074 H   0  0  0  0  0  0  0  0  0  0  0  0  # atno 8010 bound_to 7997
  139.8425  144.6634  150.9266 H   0  0  0  0  0  0  0  0  0  0  0  0  # atno 10167 bound_to 10162
  157.6943  131.0531  150.4272 H   0  0  0  0  0  0  0  0  0  0  0  0  # atno 10718 bound_to 10713
  153.0606  135.5015  154.8083 H   0  0  0  0  0  0  0  0  0  0  0  0  # atno 10763 bound_to 10752
  154.6876  135.2979  154.9528 H   0  0  0  0  0  0  0  0  0  0  0  0  # atno 10764 bound_to 10752
  154.0293  135.6731  153.4832 H   0  0  0  0  0  0  0  0  0  0  0  0  # atno 10765 bound_to 10752
  140.1025  134.5062  155.8749 H   0  0  0  0  0  0  0  0  0  0  0  0  # atno 11005 bound_to 11000
  145.9662  139.2836  143.1126 LP  0  0  0  0  0  0  0  0  0  0  0  0  # atno 17320 bound_to 7965
  145.9166  140.9144  143.0426 LP  0  0  0  0  0  0  0  0  0  0  0  0  # atno 17321 bound_to 7965
  140.7796  143.3900  151.1327 LP  0  0  0  0  0  0  0  0  0  0  0  0  # atno 17342 bound_to 10162
  139.7545  143.8728  152.3085 LP  0  0  0  0  0  0  0  0  0  0  0  0  # atno 17343 bound_to 10162
  156.4642  130.4038  149.6557 LP  0  0  0  0  0  0  0  0  0  0  0  0  # atno 17370 bound_to 10713
  156.3661  130.7507  151.2484 LP  0  0  0  0  0  0  0  0  0  0  0  0  # atno 17371 bound_to 10713
  141.2109  133.6701  156.6546 LP  0  0  0  0  0  0  0  0  0  0  0  0  # atno 17394 bound_to 11000
  140.3200  134.8015  157.4245 LP  0  0  0  0  0  0  0  0  0  0  0  0  # atno 17395 bound_to 11000

$$$$
