AV-unprocessed.smi:288|AV-procd|sdf|2209|dock5
  -GOLD-   2262022 43D 1   1.00000     0.00000
 Structure written by MMmdl.
 33 34  0  0  0  0  0  0  0  0  1 V2000
  152.6307  136.8680  160.1099 O   0  0  0  0  0  0  0  0  0  0  0  0
  152.7123  138.0920  159.9942 C   0  0  0  0  0  0  0  0  0  0  0  0
  151.8726  138.8716  159.0922 C   0  0  0  0  0  0  0  0  0  0  0  0
  150.9609  138.2463  158.3280 F   0  0  0  0  0  0  0  0  0  0  0  0
  151.9881  140.2151  159.0144 C   0  0  0  0  0  0  0  0  0  0  0  0
  152.8912  140.9443  159.7742 N   0  0  0  0  0  0  0  0  0  0  0  0
  153.0346  142.4503  159.6696 C   0  0  2  0  0  0  0  0  0  0  0  0
  152.4692  143.2517  160.8461 C   0  0  0  0  0  0  0  0  0  0  0  0
  152.2863  144.5957  160.1810 C   0  0  0  0  0  0  0  0  0  0  0  0
  151.7735  144.1827  158.8021 C   0  0  0  0  0  0  0  0  0  0  0  0
  152.3146  142.8854  158.5542 O   0  0  0  0  0  0  0  0  0  0  0  0
  153.7330  140.2688  160.6869 C   0  0  0  0  0  0  0  0  0  0  0  0
  154.5174  140.8953  161.4034 O   0  0  0  0  0  0  0  0  0  0  0  0
  153.6305  138.8596  160.7509 N   0  0  0  0  0  0  0  0  0  0  0  0
  154.4982  138.1532  161.6795 C   0  0  0  0  0  0  0  0  0  0  0  0
  154.4185  138.6958  163.1241 C   0  0  2  0  0  0  0  0  0  0  0  0
  155.5617  139.4924  163.3691 O   0  0  0  0  0  0  0  0  0  0  0  0
  154.3920  137.5684  164.1749 C   0  0  0  0  0  0  0  0  0  0  0  0
  155.4406  136.7612  164.0121 F   0  0  0  0  0  0  0  0  0  0  0  0
  154.4704  138.0981  165.3959 F   0  0  0  0  0  0  0  0  0  0  0  0
  153.2646  136.8608  164.0891 F   0  0  0  0  0  0  0  0  0  0  0  0
  151.3172  140.7130  158.3339 H   0  0  0  0  0  0  0  0  0  0  0  0
  154.1020  142.6331  159.5294 H   0  0  0  0  0  0  0  0  0  0  0  0
  151.4885  142.8791  161.1421 H   0  0  0  0  0  0  0  0  0  0  0  0
  153.1480  143.2570  161.6992 H   0  0  0  0  0  0  0  0  0  0  0  0
  151.5965  145.2505  160.7141 H   0  0  0  0  0  0  0  0  0  0  0  0
  153.2468  145.1057  160.0924 H   0  0  0  0  0  0  0  0  0  0  0  0
  150.6852  144.1095  158.8022 H   0  0  0  0  0  0  0  0  0  0  0  0
  152.0654  144.8897  158.0253 H   0  0  0  0  0  0  0  0  0  0  0  0
  154.2051  137.1030  161.6349 H   0  0  0  0  0  0  0  0  0  0  0  0
  155.5158  138.1566  161.2848 H   0  0  0  0  0  0  0  0  0  0  0  0
  153.5294  139.3143  163.2535 H   0  0  0  0  0  0  0  0  0  0  0  0
  155.6784  140.0823  162.6400 H   0  0  0  0  0  0  0  0  0  0  0  0
  1  2  2  0  0  0  0
  2 14  1  0  0  0  0
  2  3  1  0  0  0  0
  3  4  1  0  0  0  0
  3  5  2  0  0  0  0
  5  6  1  0  0  0  0
  5 22  1  0  0  0  0
  6  7  1  0  0  0  0
  6 12  1  0  0  0  0
  7 11  1  0  0  0  0
  7  8  1  0  0  0  0
  7 23  1  0  0  0  0
  8  9  1  0  0  0  0
  8 24  1  0  0  0  0
  8 25  1  0  0  0  0
  9 10  1  0  0  0  0
  9 26  1  0  0  0  0
  9 27  1  0  0  0  0
 10 11  1  0  0  0  0
 10 28  1  0  0  0  0
 10 29  1  0  0  0  0
 12 13  2  0  0  0  0
 12 14  1  0  0  0  0
 14 15  1  0  0  0  0
 15 16  1  0  0  0  0
 15 30  1  0  0  0  0
 15 31  1  0  0  0  0
 16 17  1  0  0  0  0
 16 18  1  0  0  0  0
 16 32  1  0  0  0  0
 17 33  1  0  0  0  0
 18 19  1  0  0  0  0
 18 20  1  0  0  0  0
 18 21  1  0  0  0  0
M  END
> <s_m_source_file>
AV-unprocessed.smi

> <i_m_source_file_index>
288

> <i_lp_mmshare_version>
43012

> <i_f3d_flags>
0

> <s_epik_input>
TzFbQ0gyXVtDSDJdW0NIMl1bQ0BIXTFuKFtjSF1jKEYpYzI9TyljKD1PKW4yW0NIMl1bQ0BIXShbT0hdKUMoRikoRilG

> <s_epik_cmdline>
J2VwaWtfcHl0aG9uJywgJy1waCcsICc3LjAnLCAnLXRuJywgJzgnLCAnLW1hJywgJzIwMCcsICctbWV0YWxfYmluZGluZycsICctaW1hZScsICc8aW5maWxlLm1hZT4nLCAnLW9tYWUnLCAnPG91dGZpbGUubWFlPic=

> <r_lp_tautomer_probability>
1

> <r_epik_Ionization_Penalty>
0.000551119

> <r_epik_Ionization_Penalty_Charging>
2.51184e-08

> <r_epik_Ionization_Penalty_Neutral>
0.000551094

> <r_epik_State_Penalty>
0.000345115

> <r_epik_Charging_Adjusted_Penalty>
0.00034514

> <i_epik_Tot_Q>
0

> <i_epik_Tot_abs_Q>
0

> <r_epik_Metal_State_Penalty>
-0

> <b_epik_Metal_Only>
0

> <s_epik_Chemistry_Notes>
This compound contains an acetal/aminal-like group ( X-CH(R)-Y where X, Y are N, S, or O) that may be acid/base labile, releasing an aldehyde.

> <s_lp_Force_Field>
OPLS_2005

> <r_lp_Energy>
36.863

> <b_lp_Chiralities_Consistent>
1

> <s_lp_Variant>
AV-unprocessed.smi:288-1

> <Gold.Version>
5.8.1

> <Gold.Id.Protein>
6NUR|6NUR_protein|mol2

> <Gold.PLP.Fitness>
44.9585

> <Gold.PLP.PLP>
-43.9174

> <Gold.PLP.part.hbond>
-1.9461

> <Gold.PLP.part.metal>
0.0000

> <Gold.PLP.part.buried>
-6.9470

> <Gold.PLP.part.nonpolar>
-35.3615

> <Gold.PLP.part.repulsive>
0.0042

> <Gold.PLP.ligand.clash>
0.0000

> <Gold.PLP.ligand.torsion>
0.9721

> <Gold.PLP.Chemscore.Hbond>
0.9913

> <Gold.PLP.Chemscore.CHOScore>
0.0000

> <Gold.PLP.Chemscore.Metal>
0.0000

> <Gold.Chemscore.Hbonds>
donor molecule, donor type, donor heavy atom, donor atom, acceptor molecule, acceptor atom, score
      P1  H  6896  6907       L1     1  1.00

> <Gold.PLP.Chemscore.Internal.Correction>
0.0116

> <Gold.Rescore>
     Score         DG    S(hbond)    S(metal)    S(lipo)     H(rot)  DE(clash)    DE(int)     intcor
      8.20     -10.07       1.00        0.00      66.90       2.57       0.02       1.84       ----

> <Gold.Chemscore.Fitness>
8.2038

> <Gold.Chemscore.DG>
-10.0700

> <Gold.Chemscore.ZeroCoef>
-5.4800

> <Gold.Chemscore.Hbond>
0.9971

> <Gold.Chemscore.Metal>
0.0000

> <Gold.Chemscore.Lipo>
66.9037

> <Gold.Chemscore.Internal_Hbond>
0.0000

> <Gold.Chemscore.DEClash>
0.0243

> <Gold.Chemscore.DEInternal>
1.8419

> <Gold.Chemscore.Rot>
2.5656

> <Gold.Chemscore.Internal.Correction>
   9.000000E+99

> <Gold.Chemscore.Hbonds>
donor molecule, donor type, donor heavy atom, donor atom, acceptor molecule, acceptor atom, score
      P1  H  6896  6907       L1     1  1.00

> <Gold.Chemscore.Hbond.Weighted>
-3.3302

> <Gold.Chemscore.Metal.Weighted>
-0.0000

> <Gold.Chemscore.Lipo.Weighted>
-7.8277

> <Gold.Chemscore.Internal_Hbond.Weighted>
0.0000

> <Gold.Chemscore.DEClash.Weighted>
0.0243

> <Gold.Chemscore.DEInternal.Weighted>
1.8419

> <Gold.Chemscore.Rot.Weighted>
6.5679

> <Gold.Chemscore.Internal.Correction.Weighted>
   9.000000E+99

> <Gold.Protein.RotatedTorsions>
[ 6907 6896 6895 6894 ] final   26.86 input  -60.11 | X-H torsion
[ 7974 7965 7964 7962 ] final   78.87 input  175.53 | X-H torsion
[ 8008 7997 7996 7995 ] final -156.37 input   59.86 | X-H torsion
[ 10167 10162 10161 10158 ] final -134.45 input  -65.29 | X-H torsion
[ 10718 10713 10712 10709 ] final  -75.27 input   66.30 | X-H torsion
[ 10763 10752 10751 10750 ] final  -95.22 input  -60.55 | X-H torsion
[ 11005 11000 10999 10996 ] final  -36.11 input  -57.11 | X-H torsion

> <Gold.Protein.ActiveResidues>
 VAL166  LYS551  ARG553  GLY616  TRP617  ASP618  TYR619  PRO620  LYS621  CYS622 
 ASP623  PHE694  ASN695  SER759  ASP760  ASP761  ALA762  ILE779  LEU786  VAL792 
 PHE793  MET794  SER795  GLU796  ALA797  LYS798  CYS799  TRP800  GLU811  SER814 

> <Gold.Protein.RotatedAtoms>
  151.9938  134.9965  160.0562 H   0  0  0  0  0  0  0  0  0  0  0  0  # atno 6907 bound_to 6896
  152.1584  133.4561  159.4857 H   0  0  0  0  0  0  0  0  0  0  0  0  # atno 6908 bound_to 6896
  150.6884  134.2020  159.4369 H   0  0  0  0  0  0  0  0  0  0  0  0  # atno 6909 bound_to 6896
  145.6716  139.2498  143.1865 H   0  0  0  0  0  0  0  0  0  0  0  0  # atno 7974 bound_to 7965
  155.7162  140.0784  157.2350 H   0  0  0  0  0  0  0  0  0  0  0  0  # atno 8008 bound_to 7997
  154.4051  140.1621  156.2405 H   0  0  0  0  0  0  0  0  0  0  0  0  # atno 8009 bound_to 7997
  155.9238  140.3396  155.6197 H   0  0  0  0  0  0  0  0  0  0  0  0  # atno 8010 bound_to 7997
  139.8879  143.6758  152.2617 H   0  0  0  0  0  0  0  0  0  0  0  0  # atno 10167 bound_to 10162
  156.0213  130.4437  150.3018 H   0  0  0  0  0  0  0  0  0  0  0  0  # atno 10718 bound_to 10713
  154.7128  135.5129  153.8692 H   0  0  0  0  0  0  0  0  0  0  0  0  # atno 10763 bound_to 10752
  153.0795  135.6627  154.0084 H   0  0  0  0  0  0  0  0  0  0  0  0  # atno 10764 bound_to 10752
  153.9923  135.3018  155.3390 H   0  0  0  0  0  0  0  0  0  0  0  0  # atno 10765 bound_to 10752
  140.9849  133.7036  156.1747 H   0  0  0  0  0  0  0  0  0  0  0  0  # atno 11005 bound_to 11000
  146.1040  140.7509  142.9535 LP  0  0  0  0  0  0  0  0  0  0  0  0  # atno 17320 bound_to 7965
  144.7055  140.3833  143.7122 LP  0  0  0  0  0  0  0  0  0  0  0  0  # atno 17321 bound_to 7965
  139.7136  144.7616  151.1071 LP  0  0  0  0  0  0  0  0  0  0  0  0  # atno 17342 bound_to 10162
  140.7732  143.5298  150.9436 LP  0  0  0  0  0  0  0  0  0  0  0  0  # atno 17343 bound_to 10162
  157.1121  131.0224  151.3044 LP  0  0  0  0  0  0  0  0  0  0  0  0  # atno 17370 bound_to 10713
  157.4696  130.7701  149.7311 LP  0  0  0  0  0  0  0  0  0  0  0  0  # atno 17371 bound_to 10713
  140.7130  134.4441  157.5580 LP  0  0  0  0  0  0  0  0  0  0  0  0  # atno 17394 bound_to 11000
  139.8966  134.8656  156.2081 LP  0  0  0  0  0  0  0  0  0  0  0  0  # atno 17395 bound_to 11000

$$$$
