AV-unprocessed.smi:13|AV-procd|sdf|71|dock1
  -GOLD-   2262015193D 1   1.00000     0.00000
 Structure written by MMmdl.
 54 58  0  0  0  0  0  0  0  0  1 V2000
  154.1262  137.3205  162.3245 C   0  0  0  0  0  0  0  0  0  0  0  0
  154.4646  137.7915  160.9103 C   0  0  0  0  0  0  0  0  0  0  0  0
  155.9384  138.2206  160.9307 C   0  0  0  0  0  0  0  0  0  0  0  0
  154.0909  136.8238  159.7770 C   0  0  0  0  0  0  0  0  0  0  0  0
  153.6356  137.9848  159.0329 N   0  0  0  0  0  0  0  0  0  0  0  0
  152.5066  137.7306  158.2014 C   0  0  0  0  0  0  0  0  0  0  0  0
  151.5879  136.7873  158.5412 N   0  0  0  0  0  0  0  0  0  0  0  0
  150.5220  136.5515  157.7715 C   0  0  0  0  0  0  0  0  0  0  0  0
  150.1759  137.1388  156.6257 N   0  0  0  0  0  0  0  0  0  0  0  0
  151.0825  138.0931  156.2734 C   0  0  0  0  0  0  0  0  0  0  0  0
  152.2556  138.4494  156.9980 C   0  0  0  0  0  0  0  0  0  0  0  0
  152.9256  139.4715  156.3361 N   0  0  0  0  0  0  0  0  0  0  0  0
  152.1959  139.7003  155.2788 C   0  0  0  0  0  0  0  0  0  0  0  0
  151.0747  138.9113  155.1572 N   0  0  0  0  0  0  0  0  0  0  0  0
  150.0981  138.9495  154.0796 C   0  0  0  0  0  0  0  0  0  0  0  0
  148.8108  139.7225  154.4489 C   0  0  1  0  0  0  0  0  0  0  0  0
  148.4012  139.3394  155.7508 O   0  0  0  0  0  0  0  0  0  0  0  0
  148.9631  141.2405  154.4160 C   0  0  0  0  0  0  0  0  0  0  0  0
  147.5761  141.7122  154.0036 C   0  0  0  0  0  0  0  0  0  0  0  0
  147.1980  140.7475  153.0367 O   0  0  0  0  0  0  0  0  0  0  0  0
  147.6419  139.4676  153.4763 C   0  0  0  0  0  0  0  0  0  0  0  0
  153.4394  138.7508  160.2590 C   0  0  2  0  0  0  0  0  0  0  0  0
  153.7361  140.2435  160.0785 C   0  0  2  0  0  0  0  0  0  0  0  0
  153.7633  141.0314  161.3892 C   0  0  0  0  0  0  0  0  0  0  0  0
  153.3786  142.4446  160.9769 C   0  0  0  0  0  0  0  0  0  0  0  0
  152.8557  142.2875  159.5477 C   0  0  0  0  0  0  0  0  0  0  0  0
  152.6857  140.8890  159.3766 O   0  0  0  0  0  0  0  0  0  0  0  0
  154.7572  136.4858  162.6311 H   0  0  0  0  0  0  0  0  0  0  0  0
  153.0912  136.9848  162.3962 H   0  0  0  0  0  0  0  0  0  0  0  0
  154.2563  138.1205  163.0541 H   0  0  0  0  0  0  0  0  0  0  0  0
  156.2571  138.6197  159.9674 H   0  0  0  0  0  0  0  0  0  0  0  0
  156.5924  137.3777  161.1563 H   0  0  0  0  0  0  0  0  0  0  0  0
  156.1296  138.9881  161.6800 H   0  0  0  0  0  0  0  0  0  0  0  0
  154.9357  136.3092  159.3182 H   0  0  0  0  0  0  0  0  0  0  0  0
  153.2806  136.1397  160.0371 H   0  0  0  0  0  0  0  0  0  0  0  0
  149.8511  135.7828  158.1259 H   0  0  0  0  0  0  0  0  0  0  0  0
  152.4607  140.4518  154.5492 H   0  0  0  0  0  0  0  0  0  0  0  0
  150.5701  139.4022  153.2065 H   0  0  0  0  0  0  0  0  0  0  0  0
  149.8567  137.9237  153.7979 H   0  0  0  0  0  0  0  0  0  0  0  0
  148.8884  139.8494  156.3799 H   0  0  0  0  0  0  0  0  0  0  0  0
  149.3049  141.6715  155.3580 H   0  0  0  0  0  0  0  0  0  0  0  0
  149.6724  141.5318  153.6409 H   0  0  0  0  0  0  0  0  0  0  0  0
  146.8836  141.6834  154.8463 H   0  0  0  0  0  0  0  0  0  0  0  0
  147.5774  142.7203  153.5887 H   0  0  0  0  0  0  0  0  0  0  0  0
  147.9440  138.8794  152.6092 H   0  0  0  0  0  0  0  0  0  0  0  0
  146.8157  138.9395  153.9552 H   0  0  0  0  0  0  0  0  0  0  0  0
  152.4499  138.5688  160.6835 H   0  0  0  0  0  0  0  0  0  0  0  0
  154.6702  140.4011  159.5361 H   0  0  0  0  0  0  0  0  0  0  0  0
  153.0160  140.6375  162.0795 H   0  0  0  0  0  0  0  0  0  0  0  0
  154.7313  140.9917  161.8873 H   0  0  0  0  0  0  0  0  0  0  0  0
  152.6120  142.8444  161.6413 H   0  0  0  0  0  0  0  0  0  0  0  0
  154.2335  143.1210  161.0037 H   0  0  0  0  0  0  0  0  0  0  0  0
  151.9208  142.8227  159.3805 H   0  0  0  0  0  0  0  0  0  0  0  0
  153.5903  142.6500  158.8273 H   0  0  0  0  0  0  0  0  0  0  0  0
  1  2  1  0  0  0  0
  1 28  1  0  0  0  0
  1 29  1  0  0  0  0
  1 30  1  0  0  0  0
  2 22  1  0  0  0  0
  2  3  1  0  0  0  0
  2  4  1  0  0  0  0
  3 31  1  0  0  0  0
  3 32  1  0  0  0  0
  3 33  1  0  0  0  0
  4  5  1  0  0  0  0
  4 34  1  0  0  0  0
  4 35  1  0  0  0  0
  5  6  1  0  0  0  0
  5 22  1  0  0  0  0
  6 11  1  0  0  0  0
  6  7  2  0  0  0  0
  7  8  1  0  0  0  0
  8  9  2  0  0  0  0
  8 36  1  0  0  0  0
  9 10  1  0  0  0  0
 10 14  1  0  0  0  0
 10 11  2  0  0  0  0
 11 12  1  0  0  0  0
 12 13  2  0  0  0  0
 13 14  1  0  0  0  0
 13 37  1  0  0  0  0
 14 15  1  0  0  0  0
 15 16  1  0  0  0  0
 15 38  1  0  0  0  0
 15 39  1  0  0  0  0
 16 21  1  0  0  0  0
 16 17  1  0  0  0  0
 16 18  1  0  0  0  0
 17 40  1  0  0  0  0
 18 19  1  0  0  0  0
 18 41  1  0  0  0  0
 18 42  1  0  0  0  0
 19 20  1  0  0  0  0
 19 43  1  0  0  0  0
 19 44  1  0  0  0  0
 20 21  1  0  0  0  0
 21 45  1  0  0  0  0
 21 46  1  0  0  0  0
 22 23  1  0  0  0  0
 22 47  1  0  0  0  0
 23 27  1  0  0  0  0
 23 24  1  0  0  0  0
 23 48  1  0  0  0  0
 24 25  1  0  0  0  0
 24 49  1  0  0  0  0
 24 50  1  0  0  0  0
 25 26  1  0  0  0  0
 25 51  1  0  0  0  0
 25 52  1  0  0  0  0
 26 27  1  0  0  0  0
 26 53  1  0  0  0  0
 26 54  1  0  0  0  0
M  END
> <s_m_source_file>
AV-unprocessed.smi

> <i_m_source_file_index>
13

> <i_lp_mmshare_version>
43012

> <i_f3d_flags>
0

> <s_epik_input>
TzFbQ0gyXVtDSDJdW0NIMl1bQ0BIXTFbQ0BASF0yTihbQ0gyXUMyKFtDSDNdKVtDSDNdKWMobltjSF1uMyljKGMzNCluW2NIXW40W0NIMl1bQ0BAXTUoW09IXSlbQ0gyXVtDSDJdT1tDSDJdNQ==

> <s_epik_cmdline>
J2VwaWtfcHl0aG9uJywgJy1waCcsICc3LjAnLCAnLXRuJywgJzgnLCAnLW1hJywgJzIwMCcsICctbWV0YWxfYmluZGluZycsICctaW1hZScsICc8aW5maWxlLm1hZT4nLCAnLW9tYWUnLCAnPG91dGZpbGUubWFlPic=

> <r_lp_tautomer_probability>
1

> <r_epik_Ionization_Penalty>
0.00202764

> <r_epik_Ionization_Penalty_Charging>
0

> <r_epik_Ionization_Penalty_Neutral>
0.00202764

> <r_epik_State_Penalty>
0.00134017

> <r_epik_Charging_Adjusted_Penalty>
0.00134017

> <i_epik_Tot_Q>
0

> <i_epik_Tot_abs_Q>
0

> <r_epik_Metal_State_Penalty>
-0

> <b_epik_Metal_Only>
0

> <s_lp_Force_Field>
OPLS_2005

> <r_lp_Energy>
61.7559

> <b_lp_Chiralities_Consistent>
1

> <s_lp_Variant>
AV-unprocessed.smi:13-3

> <Gold.Version>
5.8.1

> <Gold.Id.Protein>
6NUR|6NUR_protein|mol2

> <Gold.PLP.Fitness>
46.5528

> <Gold.PLP.PLP>
-43.2413

> <Gold.PLP.part.hbond>
-2.0000

> <Gold.PLP.part.metal>
0.0000

> <Gold.PLP.part.buried>
-4.3306

> <Gold.PLP.part.nonpolar>
-37.5805

> <Gold.PLP.part.repulsive>
0.2941

> <Gold.PLP.ligand.clash>
0.0000

> <Gold.PLP.ligand.torsion>
1.1553

> <Gold.PLP.Chemscore.Hbond>
1.7301

> <Gold.PLP.Chemscore.CHOScore>
0.0000

> <Gold.PLP.Chemscore.Metal>
0.0000

> <Gold.Chemscore.Hbonds>
donor molecule, donor type, donor heavy atom, donor atom, acceptor molecule, acceptor atom, score
      P1  H  6896  6908       L1     7  0.55
      P1  H  7997  8009       L1    12  1.00

> <Gold.PLP.Chemscore.Internal.Correction>
0.4318

> <Gold.Rescore>
     Score         DG    S(hbond)    S(metal)    S(lipo)     H(rot)  DE(clash)    DE(int)     intcor
     14.79     -16.75       1.57        0.00     101.71       2.30       0.05       1.90       ----

> <Gold.Chemscore.Fitness>
14.7947

> <Gold.Chemscore.DG>
-16.7530

> <Gold.Chemscore.ZeroCoef>
-5.4800

> <Gold.Chemscore.Hbond>
1.5747

> <Gold.Chemscore.Metal>
0.0000

> <Gold.Chemscore.Lipo>
101.7123

> <Gold.Chemscore.Internal_Hbond>
0.0000

> <Gold.Chemscore.DEClash>
0.0534

> <Gold.Chemscore.DEInternal>
1.9050

> <Gold.Chemscore.Rot>
2.2996

> <Gold.Chemscore.Internal.Correction>
   9.000000E+99

> <Gold.Chemscore.Hbonds>
donor molecule, donor type, donor heavy atom, donor atom, acceptor molecule, acceptor atom, score
      P1  H  6896  6908       L1     7  0.14
      P1  H  7997  8009       L1    12  0.91

> <Gold.Chemscore.Hbond.Weighted>
-5.2596

> <Gold.Chemscore.Metal.Weighted>
-0.0000

> <Gold.Chemscore.Lipo.Weighted>
-11.9003

> <Gold.Chemscore.Internal_Hbond.Weighted>
0.0000

> <Gold.Chemscore.DEClash.Weighted>
0.0534

> <Gold.Chemscore.DEInternal.Weighted>
1.9050

> <Gold.Chemscore.Rot.Weighted>
5.8869

> <Gold.Chemscore.Internal.Correction.Weighted>
   9.000000E+99

> <Gold.Protein.RotatedTorsions>
[ 6907 6896 6895 6894 ] final -130.45 input  -60.11 | X-H torsion
[ 7974 7965 7964 7962 ] final  140.38 input  175.53 | X-H torsion
[ 8008 7997 7996 7995 ] final -165.50 input   59.86 | X-H torsion
[ 10167 10162 10161 10158 ] final -121.25 input  -65.29 | X-H torsion
[ 10718 10713 10712 10709 ] final  105.45 input   66.30 | X-H torsion
[ 10763 10752 10751 10750 ] final   36.74 input  -60.55 | X-H torsion
[ 11005 11000 10999 10996 ] final  138.22 input  -57.11 | X-H torsion

> <Gold.Protein.ActiveResidues>
 VAL166  LYS551  ARG553  GLY616  TRP617  ASP618  TYR619  PRO620  LYS621  CYS622 
 ASP623  PHE694  ASN695  SER759  ASP760  ASP761  ALA762  ILE779  LEU786  VAL792 
 PHE793  MET794  SER795  GLU796  ALA797  LYS798  CYS799  TRP800  GLU811  SER814 

> <Gold.Protein.RotatedAtoms>
  150.9399  133.6668  159.2792 H   0  0  0  0  0  0  0  0  0  0  0  0  # atno 6907 bound_to 6896
  151.4061  135.0977  159.9580 H   0  0  0  0  0  0  0  0  0  0  0  0  # atno 6908 bound_to 6896
  152.5065  133.8882  159.7435 H   0  0  0  0  0  0  0  0  0  0  0  0  # atno 6909 bound_to 6896
  144.9191  139.5191  143.5672 H   0  0  0  0  0  0  0  0  0  0  0  0  # atno 7974 bound_to 7965
  155.8506  140.0962  157.1677 H   0  0  0  0  0  0  0  0  0  0  0  0  # atno 8008 bound_to 7997
  154.3985  140.1384  156.3902 H   0  0  0  0  0  0  0  0  0  0  0  0  # atno 8009 bound_to 7997
  155.7965  140.3454  155.5381 H   0  0  0  0  0  0  0  0  0  0  0  0  # atno 8010 bound_to 7997
  140.0271  143.5285  152.2194 H   0  0  0  0  0  0  0  0  0  0  0  0  # atno 10167 bound_to 10162
  157.6705  131.0828  150.5858 H   0  0  0  0  0  0  0  0  0  0  0  0  # atno 10718 bound_to 10713
  153.0065  135.6297  154.2034 H   0  0  0  0  0  0  0  0  0  0  0  0  # atno 10763 bound_to 10752
  154.1777  135.2815  155.3063 H   0  0  0  0  0  0  0  0  0  0  0  0  # atno 10764 bound_to 10752
  154.5859  135.5633  153.7290 H   0  0  0  0  0  0  0  0  0  0  0  0  # atno 10765 bound_to 10752
  140.0169  134.9414  157.0394 H   0  0  0  0  0  0  0  0  0  0  0  0  # atno 11005 bound_to 11000
  146.3196  139.8057  142.8956 LP  0  0  0  0  0  0  0  0  0  0  0  0  # atno 17320 bound_to 7965
  145.3325  141.0270  143.3438 LP  0  0  0  0  0  0  0  0  0  0  0  0  # atno 17321 bound_to 7965
  139.6101  144.7606  151.2972 LP  0  0  0  0  0  0  0  0  0  0  0  0  # atno 17342 bound_to 10162
  140.7318  143.6842  150.7976 LP  0  0  0  0  0  0  0  0  0  0  0  0  # atno 17343 bound_to 10162
  156.6158  130.4392  149.5841 LP  0  0  0  0  0  0  0  0  0  0  0  0  # atno 17370 bound_to 10713
  156.2394  130.6842  151.1541 LP  0  0  0  0  0  0  0  0  0  0  0  0  # atno 17371 bound_to 10713
  140.4456  134.1636  155.7177 LP  0  0  0  0  0  0  0  0  0  0  0  0  # atno 17394 bound_to 11000
  141.1748  133.8535  157.1455 LP  0  0  0  0  0  0  0  0  0  0  0  0  # atno 17395 bound_to 11000

$$$$
