AV-unprocessed.smi:1053|AV-procd|sdf|4622|dock6
  -GOLD-   22720 3123D 1   1.00000     0.00000
 Structure written by MMmdl.
 37 38  0  0  0  0  0  0  0  0  1 V2000
  147.8564  141.0067  155.2437 C   0  0  0  0  0  0  0  0  0  0  0  0
  149.2000  141.3505  154.5850 C   0  0  0  0  0  0  0  0  0  0  0  0
  150.2612  140.3682  154.7992 N   0  0  0  0  0  0  0  0  0  0  0  0
  149.9283  139.0557  154.2507 C   0  0  0  0  0  0  0  0  0  0  0  0
  151.0390  138.0261  154.5164 C   0  0  0  0  0  0  0  0  0  0  0  0
  151.2923  137.9504  155.9149 O   0  0  0  0  0  0  0  0  0  0  0  0
  151.6843  139.2005  156.4776 C   0  0  2  0  0  0  0  0  0  0  0  0
  151.9363  138.9977  157.9771 C   0  0  0  0  0  0  0  0  0  0  0  0
  153.1440  139.6816  158.4139 N   0  0  0  0  0  0  0  0  0  0  0  0
  153.1545  140.7636  159.2727 C   0  0  0  0  0  0  0  0  0  0  0  0
  153.7988  140.5761  160.4268 N   0  0  0  0  0  0  0  0  0  0  0  0
  153.8274  141.6147  161.2894 C   0  0  0  0  0  0  0  0  0  0  0  0
  153.2082  142.8449  160.9924 C   0  0  0  0  0  0  0  0  0  0  0  0
  152.5557  142.9313  159.7422 C   0  0  0  0  0  0  0  0  0  0  0  0
  151.8454  144.1961  159.2849 C   0  0  0  0  0  0  0  0  0  0  0  0
  151.8934  145.1486  160.2171 F   0  0  0  0  0  0  0  0  0  0  0  0
  152.4224  144.6607  158.1763 F   0  0  0  0  0  0  0  0  0  0  0  0
  150.5664  143.9248  159.0239 F   0  0  0  0  0  0  0  0  0  0  0  0
  152.5334  141.8836  158.8863 N   0  0  0  0  0  0  0  0  0  0  0  0
  150.5612  140.2248  156.2202 C   0  0  0  0  0  0  0  0  0  0  0  0
  147.0930  141.7292  154.9553 H   0  0  0  0  0  0  0  0  0  0  0  0
  147.9195  141.0217  156.3314 H   0  0  0  0  0  0  0  0  0  0  0  0
  147.5094  140.0194  154.9374 H   0  0  0  0  0  0  0  0  0  0  0  0
  149.0226  141.4478  153.5132 H   0  0  0  0  0  0  0  0  0  0  0  0
  149.5299  142.3335  154.9239 H   0  0  0  0  0  0  0  0  0  0  0  0
  148.9942  138.6981  154.6866 H   0  0  0  0  0  0  0  0  0  0  0  0
  149.7668  139.1236  153.1754 H   0  0  0  0  0  0  0  0  0  0  0  0
  150.7397  137.0423  154.1545 H   0  0  0  0  0  0  0  0  0  0  0  0
  151.9540  138.2982  153.9877 H   0  0  0  0  0  0  0  0  0  0  0  0
  152.6033  139.5444  155.9988 H   0  0  0  0  0  0  0  0  0  0  0  0
  151.0933  139.3904  158.5466 H   0  0  0  0  0  0  0  0  0  0  0  0
  152.0140  137.9346  158.2086 H   0  0  0  0  0  0  0  0  0  0  0  0
  154.0365  139.2915  158.1477 H   0  0  0  0  0  0  0  0  0  0  0  0
  154.3483  141.4634  162.2232 H   0  0  0  0  0  0  0  0  0  0  0  0
  153.2367  143.6697  161.6887 H   0  0  0  0  0  0  0  0  0  0  0  0
  150.8555  141.1910  156.6321 H   0  0  0  0  0  0  0  0  0  0  0  0
  149.6618  139.9190  156.7574 H   0  0  0  0  0  0  0  0  0  0  0  0
  1  2  1  0  0  0  0
  1 21  1  0  0  0  0
  1 22  1  0  0  0  0
  1 23  1  0  0  0  0
  2  3  1  0  0  0  0
  2 24  1  0  0  0  0
  2 25  1  0  0  0  0
  3 20  1  0  0  0  0
  3  4  1  0  0  0  0
  4  5  1  0  0  0  0
  4 26  1  0  0  0  0
  4 27  1  0  0  0  0
  5  6  1  0  0  0  0
  5 28  1  0  0  0  0
  5 29  1  0  0  0  0
  6  7  1  0  0  0  0
  7  8  1  0  0  0  0
  7 20  1  0  0  0  0
  7 30  1  0  0  0  0
  8  9  1  0  0  0  0
  8 31  1  0  0  0  0
  8 32  1  0  0  0  0
  9 10  1  0  0  0  0
  9 33  1  0  0  0  0
 10 19  1  0  0  0  0
 10 11  2  0  0  0  0
 11 12  1  0  0  0  0
 12 13  2  0  0  0  0
 12 34  1  0  0  0  0
 13 14  1  0  0  0  0
 13 35  1  0  0  0  0
 14 15  1  0  0  0  0
 14 19  2  0  0  0  0
 15 16  1  0  0  0  0
 15 17  1  0  0  0  0
 15 18  1  0  0  0  0
 20 36  1  0  0  0  0
 20 37  1  0  0  0  0
M  END
> <s_m_source_file>
AV-unprocessed.smi

> <i_m_source_file_index>
1053

> <i_lp_mmshare_version>
43012

> <i_f3d_flags>
0

> <s_epik_input>
W0NIM11bQ0gyXU4xW0NIMl1bQ0gyXU9bQ0BIXShbQ0gyXTEpW0NIMl1bTkhdYzJuW2NIXVtjSF1jKG4yKUMoRikoRilG

> <s_epik_cmdline>
J2VwaWtfcHl0aG9uJywgJy1waCcsICc3LjAnLCAnLXRuJywgJzgnLCAnLW1hJywgJzIwMCcsICctbWV0YWxfYmluZGluZycsICctaW1hZScsICc8aW5maWxlLm1hZT4nLCAnLW9tYWUnLCAnPG91dGZpbGUubWFlPic=

> <r_lp_tautomer_probability>
1

> <r_epik_Ionization_Penalty>
0.797829

> <r_epik_Ionization_Penalty_Charging>
0

> <r_epik_Ionization_Penalty_Neutral>
0.797829

> <r_epik_State_Penalty>
0.828842

> <r_epik_Charging_Adjusted_Penalty>
0.828842

> <i_epik_Tot_Q>
0

> <i_epik_Tot_abs_Q>
0

> <r_epik_Metal_State_Penalty>
0.828842

> <b_epik_Metal_Only>
0

> <s_lp_Force_Field>
OPLS_2005

> <r_lp_Energy>
15.9196

> <b_lp_Chiralities_Consistent>
1

> <s_lp_Variant>
AV-unprocessed.smi:1053-6

> <Gold.Version>
5.8.1

> <Gold.Id.Protein>
6NUR|6NUR_protein|mol2

> <Gold.PLP.Fitness>
47.9030

> <Gold.PLP.PLP>
-47.3531

> <Gold.PLP.part.hbond>
-1.0000

> <Gold.PLP.part.metal>
0.0000

> <Gold.PLP.part.buried>
-4.6234

> <Gold.PLP.part.nonpolar>
-41.0522

> <Gold.PLP.part.repulsive>
0.3130

> <Gold.PLP.ligand.clash>
0.0000

> <Gold.PLP.ligand.torsion>
1.2409

> <Gold.PLP.Chemscore.Hbond>
1.0000

> <Gold.PLP.Chemscore.CHOScore>
0.0000

> <Gold.PLP.Chemscore.Metal>
0.0000

> <Gold.Chemscore.Hbonds>
donor molecule, donor type, donor heavy atom, donor atom, acceptor molecule, acceptor atom, score
      P1  H  7989  7998       L1     3  0.90

> <Gold.PLP.Chemscore.Internal.Correction>
0.0316

> <Gold.Rescore>
     Score         DG    S(hbond)    S(metal)    S(lipo)     H(rot)  DE(clash)    DE(int)     intcor
     11.23     -12.53       0.08        0.00      91.33       1.52       0.07       1.22       ----

> <Gold.Chemscore.Fitness>
11.2302

> <Gold.Chemscore.DG>
-12.5261

> <Gold.Chemscore.ZeroCoef>
-5.4800

> <Gold.Chemscore.Hbond>
0.0760

> <Gold.Chemscore.Metal>
0.0000

> <Gold.Chemscore.Lipo>
91.3273

> <Gold.Chemscore.Internal_Hbond>
0.0000

> <Gold.Chemscore.DEClash>
0.0718

> <Gold.Chemscore.DEInternal>
1.2241

> <Gold.Chemscore.Rot>
1.5208

> <Gold.Chemscore.Internal.Correction>
   9.000000E+99

> <Gold.Chemscore.Hbonds>
donor molecule, donor type, donor heavy atom, donor atom, acceptor molecule, acceptor atom, score
      P1  H  7989  7998       L1     3  0.07

> <Gold.Chemscore.Hbond.Weighted>
-0.2539

> <Gold.Chemscore.Metal.Weighted>
-0.0000

> <Gold.Chemscore.Lipo.Weighted>
-10.6853

> <Gold.Chemscore.Internal_Hbond.Weighted>
0.0000

> <Gold.Chemscore.DEClash.Weighted>
0.0718

> <Gold.Chemscore.DEInternal.Weighted>
1.2241

> <Gold.Chemscore.Rot.Weighted>
3.8932

> <Gold.Chemscore.Internal.Correction.Weighted>
   9.000000E+99

> <Gold.Protein.RotatedTorsions>
[ 6907 6896 6895 6894 ] final   97.62 input  -60.11 | X-H torsion
[ 7974 7965 7964 7962 ] final -101.51 input  175.53 | X-H torsion
[ 8008 7997 7996 7995 ] final   -2.23 input   59.86 | X-H torsion
[ 10167 10162 10161 10158 ] final -125.23 input  -65.29 | X-H torsion
[ 10718 10713 10712 10709 ] final   42.45 input   66.30 | X-H torsion
[ 10763 10752 10751 10750 ] final -167.73 input  -60.55 | X-H torsion
[ 11005 11000 10999 10996 ] final  -95.83 input  -57.11 | X-H torsion

> <Gold.Protein.ActiveResidues>
 VAL166  LYS551  ARG553  GLY616  TRP617  ASP618  TYR619  PRO620  LYS621  CYS622 
 ASP623  PHE694  ASN695  SER759  ASP760  ASP761  ALA762  ILE779  LEU786  VAL792 
 PHE793  MET794  SER795  GLU796  ALA797  LYS798  CYS799  TRP800  GLU811  SER814 

> <Gold.Protein.RotatedAtoms>
  152.5421  134.0706  159.8191 H   0  0  0  0  0  0  0  0  0  0  0  0  # atno 6907 bound_to 6896
  151.0821  133.5374  159.2627 H   0  0  0  0  0  0  0  0  0  0  0  0  # atno 6908 bound_to 6896
  151.2198  135.0522  159.8999 H   0  0  0  0  0  0  0  0  0  0  0  0  # atno 6909 bound_to 6896
  145.2806  140.9325  143.2934 H   0  0  0  0  0  0  0  0  0  0  0  0  # atno 7974 bound_to 7965
  154.6380  140.2539  155.7355 H   0  0  0  0  0  0  0  0  0  0  0  0  # atno 8008 bound_to 7997
  156.2514  140.2893  156.0681 H   0  0  0  0  0  0  0  0  0  0  0  0  # atno 8009 bound_to 7997
  155.1641  140.0385  157.2839 H   0  0  0  0  0  0  0  0  0  0  0  0  # atno 8010 bound_to 7997
  139.9843  143.5709  152.2366 H   0  0  0  0  0  0  0  0  0  0  0  0  # atno 10167 bound_to 10162
  157.4049  130.7881  149.7380 H   0  0  0  0  0  0  0  0  0  0  0  0  # atno 10718 bound_to 10713
  154.6702  135.2938  154.9752 H   0  0  0  0  0  0  0  0  0  0  0  0  # atno 10763 bound_to 10752
  154.0782  135.6608  153.4838 H   0  0  0  0  0  0  0  0  0  0  0  0  # atno 10764 bound_to 10752
  153.0482  135.5191  154.7694 H   0  0  0  0  0  0  0  0  0  0  0  0  # atno 10765 bound_to 10752
  141.1430  133.8054  157.0488 H   0  0  0  0  0  0  0  0  0  0  0  0  # atno 11005 bound_to 11000
  144.9256  139.4359  143.6520 LP  0  0  0  0  0  0  0  0  0  0  0  0  # atno 17320 bound_to 7965
  146.3217  139.8140  142.8940 LP  0  0  0  0  0  0  0  0  0  0  0  0  # atno 17321 bound_to 7965
  139.6386  144.7652  151.2385 LP  0  0  0  0  0  0  0  0  0  0  0  0  # atno 17342 bound_to 10162
  140.7478  143.6355  150.8383 LP  0  0  0  0  0  0  0  0  0  0  0  0  # atno 17343 bound_to 10162
  155.9834  130.4001  150.3367 LP  0  0  0  0  0  0  0  0  0  0  0  0  # atno 17370 bound_to 10713
  157.1499  131.0318  151.2890 LP  0  0  0  0  0  0  0  0  0  0  0  0  # atno 17371 bound_to 10713
  140.0645  134.9736  157.1362 LP  0  0  0  0  0  0  0  0  0  0  0  0  # atno 17394 bound_to 11000
  140.3800  134.2297  155.7171 LP  0  0  0  0  0  0  0  0  0  0  0  0  # atno 17395 bound_to 11000

$$$$
