AV-unprocessed.smi:1005|AV-procd|sdf|4365|dock9
  -GOLD-   22720 2273D 1   1.00000     0.00000
 Structure written by MMmdl.
 56 58  0  0  0  0  0  0  0  0  2 V2000
  153.3371  143.8779  162.7993 C   0  0  0  0  0  0  0  0  0  0  0  0
  152.9467  143.2900  161.4546 C   0  0  0  0  0  0  0  0  0  0  0  0
  151.9925  143.9650  160.6605 C   0  0  0  0  0  0  0  0  0  0  0  0
  151.6016  143.4512  159.4047 C   0  0  0  0  0  0  0  0  0  0  0  0
  150.6984  143.9394  158.4758 N   0  0  0  0  0  0  0  0  0  0  0  0
  150.7742  143.0186  157.5194 C   0  0  0  0  0  0  0  0  0  0  0  0
  151.6202  141.9899  157.7187 N   0  0  0  0  0  0  0  0  0  0  0  0
  151.8655  140.8760  156.8198 C   0  0  0  0  0  0  0  0  0  0  0  0
  150.7246  140.6734  155.8043 C   0  0  1  0  0  0  0  0  0  0  0  0
  151.1451  139.7666  154.8029 O   0  0  0  0  0  0  0  0  0  0  0  0
  149.4603  140.1084  156.4840 C   0  0  0  0  0  0  0  0  0  0  0  0
  148.2613  140.0443  155.6453 N   0  0  0  0  0  0  0  0  0  0  0  0
  148.0940  141.2294  154.8070 C   0  0  0  0  0  0  0  0  0  0  0  0
  146.8068  141.1606  153.9691 C   0  0  0  0  0  0  0  0  0  0  0  0
  145.6903  140.9663  154.8299 O   0  0  0  0  0  0  0  0  0  0  0  0
  145.7830  139.7748  155.6066 C   0  0  2  0  0  0  0  0  0  0  0  0
  144.5212  139.6447  156.4818 C   0  0  0  0  0  0  0  0  0  0  0  0
  143.2614  139.9317  155.7470 N   0  3  0  0  0  0  0  0  0  0  0  0
  142.9365  141.3743  155.6607 C   0  0  0  0  0  0  0  0  0  0  0  0
  142.1222  139.1530  156.2821 C   0  0  0  0  0  0  0  0  0  0  0  0
  147.0642  139.8706  156.4611 C   0  0  0  0  0  0  0  0  0  0  0  0
  152.1957  142.2333  158.9613 C   0  0  0  0  0  0  0  0  0  0  0  0
  153.1476  141.5535  159.7418 C   0  0  0  0  0  0  0  0  0  0  0  0
  153.5271  142.0810  160.9938 C   0  0  0  0  0  0  0  0  0  0  0  0
  154.5560  141.3397  161.8288 C   0  0  0  0  0  0  0  0  0  0  0  0
  152.7956  144.8022  163.0029 H   0  0  0  0  0  0  0  0  0  0  0  0
  154.4035  144.1032  162.8223 H   0  0  0  0  0  0  0  0  0  0  0  0
  153.1136  143.1756  163.6028 H   0  0  0  0  0  0  0  0  0  0  0  0
  151.5511  144.8868  161.0101 H   0  0  0  0  0  0  0  0  0  0  0  0
  150.1809  143.0956  156.6199 H   0  0  0  0  0  0  0  0  0  0  0  0
  152.8133  141.0420  156.3062 H   0  0  0  0  0  0  0  0  0  0  0  0
  151.9938  139.9765  157.4234 H   0  0  0  0  0  0  0  0  0  0  0  0
  150.5156  141.6325  155.3325 H   0  0  0  0  0  0  0  0  0  0  0  0
  150.3856  139.3202  154.4619 H   0  0  0  0  0  0  0  0  0  0  0  0
  149.6956  139.1086  156.8523 H   0  0  0  0  0  0  0  0  0  0  0  0
  149.2381  140.7023  157.3721 H   0  0  0  0  0  0  0  0  0  0  0  0
  148.0704  142.1240  155.4309 H   0  0  0  0  0  0  0  0  0  0  0  0
  148.9391  141.3421  154.1296 H   0  0  0  0  0  0  0  0  0  0  0  0
  146.6685  142.0855  153.4091 H   0  0  0  0  0  0  0  0  0  0  0  0
  146.8605  140.3495  153.2412 H   0  0  0  0  0  0  0  0  0  0  0  0
  145.8583  138.9081  154.9469 H   0  0  0  0  0  0  0  0  0  0  0  0
  144.4659  138.6131  156.8328 H   0  0  0  0  0  0  0  0  0  0  0  0
  144.5975  140.2664  157.3752 H   0  0  0  0  0  0  0  0  0  0  0  0
  142.8733  141.8227  156.6530 H   0  0  0  0  0  0  0  0  0  0  0  0
  141.9799  141.5250  155.1592 H   0  0  0  0  0  0  0  0  0  0  0  0
  143.6842  141.9154  155.0824 H   0  0  0  0  0  0  0  0  0  0  0  0
  141.9115  139.4294  157.3161 H   0  0  0  0  0  0  0  0  0  0  0  0
  142.3321  138.0833  156.2493 H   0  0  0  0  0  0  0  0  0  0  0  0
  141.2224  139.3276  155.6910 H   0  0  0  0  0  0  0  0  0  0  0  0
  147.1624  138.9658  157.0623 H   0  0  0  0  0  0  0  0  0  0  0  0
  146.9719  140.7013  157.1630 H   0  0  0  0  0  0  0  0  0  0  0  0
  153.5828  140.6343  159.3787 H   0  0  0  0  0  0  0  0  0  0  0  0
  154.9088  140.4420  161.3201 H   0  0  0  0  0  0  0  0  0  0  0  0
  154.1257  141.0361  162.7833 H   0  0  0  0  0  0  0  0  0  0  0  0
  155.4205  141.9748  162.0240 H   0  0  0  0  0  0  0  0  0  0  0  0
  143.3978  139.6083  154.7997 H   0  0  0  0  0  0  0  0  0  0  0  0
  1  2  1  0  0  0  0
  1 26  1  0  0  0  0
  1 27  1  0  0  0  0
  1 28  1  0  0  0  0
  2 24  1  0  0  0  0
  2  3  2  0  0  0  0
  3  4  1  0  0  0  0
  3 29  1  0  0  0  0
  4 22  2  0  0  0  0
  4  5  1  0  0  0  0
  5  6  2  0  0  0  0
  6  7  1  0  0  0  0
  6 30  1  0  0  0  0
  7  8  1  0  0  0  0
  7 22  1  0  0  0  0
  8  9  1  0  0  0  0
  8 31  1  0  0  0  0
  8 32  1  0  0  0  0
  9 10  1  0  0  0  0
  9 11  1  0  0  0  0
  9 33  1  0  0  0  0
 10 34  1  0  0  0  0
 11 12  1  0  0  0  0
 11 35  1  0  0  0  0
 11 36  1  0  0  0  0
 12 21  1  0  0  0  0
 12 13  1  0  0  0  0
 13 14  1  0  0  0  0
 13 37  1  0  0  0  0
 13 38  1  0  0  0  0
 14 15  1  0  0  0  0
 14 39  1  0  0  0  0
 14 40  1  0  0  0  0
 15 16  1  0  0  0  0
 16 17  1  0  0  0  0
 16 21  1  0  0  0  0
 16 41  1  0  0  0  0
 17 18  1  0  0  0  0
 17 42  1  0  0  0  0
 17 43  1  0  0  0  0
 18 19  1  0  0  0  0
 18 20  1  0  0  0  0
 18 56  1  0  0  0  0
 19 44  1  0  0  0  0
 19 45  1  0  0  0  0
 19 46  1  0  0  0  0
 20 47  1  0  0  0  0
 20 48  1  0  0  0  0
 20 49  1  0  0  0  0
 21 50  1  0  0  0  0
 21 51  1  0  0  0  0
 22 23  1  0  0  0  0
 23 24  2  0  0  0  0
 23 52  1  0  0  0  0
 24 25  1  0  0  0  0
 25 53  1  0  0  0  0
 25 54  1  0  0  0  0
 25 55  1  0  0  0  0
M  CHG  1  18   1
M  END
> <s_m_source_file>
AV-unprocessed.smi

> <i_m_source_file_index>
1005

> <i_lp_mmshare_version>
43012

> <i_f3d_flags>
0

> <s_epik_input>
W0NIM11jKFtjSF0xKWMoW0NIM10pW2NIXWMoYzEyKW4oW2NIXW4yKVtDSDJdW0NASF0oW09IXSlbQ0gyXU4zW0NIMl1bQ0gyXU9bQ0BIXShbQ0gyXTMpW0NIMl1OKFtDSDNdKVtDSDNd

> <s_epik_cmdline>
J2VwaWtfcHl0aG9uJywgJy1waCcsICc3LjAnLCAnLXRuJywgJzgnLCAnLW1hJywgJzIwMCcsICctbWV0YWxfYmluZGluZycsICctaW1hZScsICc8aW5maWxlLm1hZT4nLCAnLW9tYWUnLCAnPG91dGZpbGUubWFlPic=

> <r_epik_Ionization_Penalty>
0.226781

> <r_epik_Ionization_Penalty_Charging>
0.00915946

> <r_epik_Ionization_Penalty_Neutral>
0.217622

> <r_epik_State_Penalty>
0.173018

> <r_epik_Charging_Adjusted_Penalty>
0.182178

> <i_epik_Tot_Q>
1

> <i_epik_Tot_abs_Q>
1

> <r_epik_Metal_State_Penalty>
0.0905268

> <b_epik_Metal_Only>
0

> <s_lp_Force_Field>
OPLS_2005

> <r_lp_Energy>
38.1997

> <b_lp_Chiralities_Consistent>
1

> <s_lp_Variant>
AV-unprocessed.smi:1005-4

> <Gold.Version>
5.8.1

> <Gold.Id.Protein>
6NUR|6NUR_protein|mol2

> <Gold.PLP.Fitness>
56.1648

> <Gold.PLP.PLP>
-46.0057

> <Gold.PLP.part.hbond>
-2.0000

> <Gold.PLP.part.metal>
0.0000

> <Gold.PLP.part.buried>
-6.5779

> <Gold.PLP.part.nonpolar>
-36.9844

> <Gold.PLP.part.repulsive>
0.3450

> <Gold.PLP.ligand.clash>
0.0000

> <Gold.PLP.ligand.torsion>
0.9706

> <Gold.PLP.Chemscore.Hbond>
3.0000

> <Gold.PLP.Chemscore.CHOScore>
1.0000

> <Gold.PLP.Chemscore.Metal>
0.0000

> <Gold.Chemscore.Hbonds>
donor molecule, donor type, donor heavy atom, donor atom, acceptor molecule, acceptor atom, score
      P1  H  7989  7998       L1    10  1.00
      L1  C     6    30       P1  8028  1.00

> <Gold.PLP.Chemscore.Internal.Correction>
0.1002

> <Gold.Rescore>
     Score         DG    S(hbond)    S(metal)    S(lipo)     H(rot)  DE(clash)    DE(int)     intcor
     16.16     -18.73       1.72        0.00     116.95       2.41       0.70       1.88       ----

> <Gold.Chemscore.Fitness>
16.1593

> <Gold.Chemscore.DG>
-18.7330

> <Gold.Chemscore.ZeroCoef>
-5.4800

> <Gold.Chemscore.Hbond>
1.7211

> <Gold.Chemscore.Metal>
0.0000

> <Gold.Chemscore.Lipo>
116.9523

> <Gold.Chemscore.Internal_Hbond>
0.0000

> <Gold.Chemscore.DEClash>
0.6955

> <Gold.Chemscore.DEInternal>
1.8783

> <Gold.Chemscore.Rot>
2.4136

> <Gold.Chemscore.Internal.Correction>
   9.000000E+99

> <Gold.Chemscore.Hbonds>
donor molecule, donor type, donor heavy atom, donor atom, acceptor molecule, acceptor atom, score
      L1  H    18    56       P1 10175  0.03
      P1  H  7989  7998       L1    10  0.17

> <Gold.Chemscore.Hbond.Weighted>
-5.7483

> <Gold.Chemscore.Metal.Weighted>
-0.0000

> <Gold.Chemscore.Lipo.Weighted>
-13.6834

> <Gold.Chemscore.Internal_Hbond.Weighted>
0.0000

> <Gold.Chemscore.DEClash.Weighted>
0.6955

> <Gold.Chemscore.DEInternal.Weighted>
1.8783

> <Gold.Chemscore.Rot.Weighted>
6.1788

> <Gold.Chemscore.Internal.Correction.Weighted>
   9.000000E+99

> <Gold.Protein.RotatedTorsions>
[ 6907 6896 6895 6894 ] final -131.94 input  -60.11 | X-H torsion
[ 7974 7965 7964 7962 ] final  169.00 input  175.53 | X-H torsion
[ 8008 7997 7996 7995 ] final  -19.86 input   59.86 | X-H torsion
[ 10167 10162 10161 10158 ] final  -30.08 input  -65.29 | X-H torsion
[ 10718 10713 10712 10709 ] final  145.73 input   66.30 | X-H torsion
[ 10763 10752 10751 10750 ] final   84.88 input  -60.55 | X-H torsion
[ 11005 11000 10999 10996 ] final  -75.96 input  -57.11 | X-H torsion

> <Gold.Protein.ActiveResidues>
 VAL166  LYS551  ARG553  GLY616  TRP617  ASP618  TYR619  PRO620  LYS621  CYS622 
 ASP623  PHE694  ASN695  SER759  ASP760  ASP761  ALA762  ILE779  LEU786  VAL792 
 PHE793  MET794  SER795  GLU796  ALA797  LYS798  CYS799  TRP800  GLU811  SER814 

> <Gold.Protein.RotatedAtoms>
  150.9567  133.6490  159.2761 H   0  0  0  0  0  0  0  0  0  0  0  0  # atno 6907 bound_to 6896
  151.3827  135.0941  159.9511 H   0  0  0  0  0  0  0  0  0  0  0  0  # atno 6908 bound_to 6896
  152.5131  133.9098  159.7537 H   0  0  0  0  0  0  0  0  0  0  0  0  # atno 6909 bound_to 6896
  144.7369  139.8990  143.6408 H   0  0  0  0  0  0  0  0  0  0  0  0  # atno 7974 bound_to 7965
  154.4808  140.2077  155.9769 H   0  0  0  0  0  0  0  0  0  0  0  0  # atno 8008 bound_to 7997
  156.1161  140.3221  155.8111 H   0  0  0  0  0  0  0  0  0  0  0  0  # atno 8009 bound_to 7997
  155.4549  140.0520  157.2988 H   0  0  0  0  0  0  0  0  0  0  0  0  # atno 8010 bound_to 7997
  140.7253  143.3877  151.1485 H   0  0  0  0  0  0  0  0  0  0  0  0  # atno 10167 bound_to 10162
  157.3418  131.0937  151.1076 H   0  0  0  0  0  0  0  0  0  0  0  0  # atno 10718 bound_to 10713
  153.1423  135.4638  154.9514 H   0  0  0  0  0  0  0  0  0  0  0  0  # atno 10763 bound_to 10752
  154.7757  135.3172  154.8099 H   0  0  0  0  0  0  0  0  0  0  0  0  # atno 10764 bound_to 10752
  153.8620  135.6912  153.4836 H   0  0  0  0  0  0  0  0  0  0  0  0  # atno 10765 bound_to 10752
  141.1650  133.6966  156.7596 H   0  0  0  0  0  0  0  0  0  0  0  0  # atno 11005 bound_to 11000
  146.1085  139.4088  143.0302 LP  0  0  0  0  0  0  0  0  0  0  0  0  # atno 17320 bound_to 7965
  145.7477  140.9984  143.1267 LP  0  0  0  0  0  0  0  0  0  0  0  0  # atno 17321 bound_to 7965
  139.7477  143.8826  152.3068 LP  0  0  0  0  0  0  0  0  0  0  0  0  # atno 17342 bound_to 10162
  139.8669  144.7088  150.9033 LP  0  0  0  0  0  0  0  0  0  0  0  0  # atno 17343 bound_to 10162
  157.2285  130.6514  149.5840 LP  0  0  0  0  0  0  0  0  0  0  0  0  # atno 17370 bound_to 10713
  155.9708  130.4606  150.6079 LP  0  0  0  0  0  0  0  0  0  0  0  0  # atno 17371 bound_to 10713
  140.2544  134.8516  157.3698 LP  0  0  0  0  0  0  0  0  0  0  0  0  # atno 17394 bound_to 11000
  140.1672  134.4654  155.7855 LP  0  0  0  0  0  0  0  0  0  0  0  0  # atno 17395 bound_to 11000

$$$$
