AV-unprocessed.smi:767|AV-procd|sdf|3672|dock5
  -GOLD-   22720 1 83D 1   1.00000     0.00000
 Structure written by MMmdl.
 48 50  0  0  0  0  0  0  0  0  2 V2000
  151.0301  143.2496  157.2645 C   0  0  0  0  0  0  0  0  0  0  0  0
  150.6414  142.0771  156.3901 C   0  0  0  0  0  0  0  0  0  0  0  0
  151.3292  140.8462  156.4358 C   0  0  0  0  0  0  0  0  0  0  0  0
  150.8989  139.7863  155.6116 C   0  0  0  0  0  0  0  0  0  0  0  0
  149.7937  139.9795  154.7536 C   0  0  0  0  0  0  0  0  0  0  0  0
  149.2751  138.8432  153.8879 C   0  0  0  0  0  0  0  0  0  0  0  0
  147.7844  138.9730  153.5131 C   0  0  0  0  0  0  0  0  0  0  0  0
  147.3171  137.8694  152.6756 N   0  0  0  0  0  0  0  0  0  0  0  0
  146.0319  137.5574  152.4518 C   0  0  0  0  0  0  0  0  0  0  0  0
  145.0782  138.1811  152.9186 O   0  0  0  0  0  0  0  0  0  0  0  0
  145.9059  136.4683  151.6835 N   0  0  0  0  0  0  0  0  0  0  0  0
  144.6260  135.8541  151.3513 C   0  0  1  0  0  0  0  0  0  0  0  0
  144.7579  134.3842  150.9567 C   0  0  2  0  0  0  0  0  0  0  0  0
  144.5430  133.6155  149.7019 C   0  0  0  0  0  0  0  0  0  0  0  0
  143.7235  132.4446  150.3075 C   0  0  0  0  0  0  0  0  0  0  0  0
  143.3910  132.8488  151.6583 O   0  0  0  0  0  0  0  0  0  0  0  0
  143.3867  134.2599  151.5954 C   0  0  1  0  0  0  0  0  0  0  0  0
  143.8359  135.3298  152.6102 C   0  0  0  0  0  0  0  0  0  0  0  0
  144.6085  134.8504  153.8558 C   0  0  0  0  0  0  0  0  0  0  0  0
  142.7387  136.2649  153.1202 C   0  0  0  0  0  0  0  0  0  0  0  0
  149.1592  141.2405  154.7344 C   0  0  0  0  0  0  0  0  0  0  0  0
  149.5961  142.2275  155.5464 N   0  3  0  0  0  0  0  0  0  0  0  0
  151.6134  142.9170  158.1239 H   0  0  0  0  0  0  0  0  0  0  0  0
  150.1430  143.7626  157.6375 H   0  0  0  0  0  0  0  0  0  0  0  0
  151.6295  143.9619  156.6972 H   0  0  0  0  0  0  0  0  0  0  0  0
  152.1670  140.7086  157.1035 H   0  0  0  0  0  0  0  0  0  0  0  0
  151.4051  138.8328  155.6515 H   0  0  0  0  0  0  0  0  0  0  0  0
  149.8772  138.7969  152.9800 H   0  0  0  0  0  0  0  0  0  0  0  0
  149.4370  137.8967  154.4054 H   0  0  0  0  0  0  0  0  0  0  0  0
  147.1759  139.0487  154.4159 H   0  0  0  0  0  0  0  0  0  0  0  0
  147.6271  139.9035  152.9676 H   0  0  0  0  0  0  0  0  0  0  0  0
  148.0263  137.2945  152.2446 H   0  0  0  0  0  0  0  0  0  0  0  0
  146.7400  136.0184  151.3355 H   0  0  0  0  0  0  0  0  0  0  0  0
  144.0201  136.4325  150.6475 H   0  0  0  0  0  0  0  0  0  0  0  0
  145.5505  133.9068  151.5375 H   0  0  0  0  0  0  0  0  0  0  0  0
  143.9663  134.1822  148.9693 H   0  0  0  0  0  0  0  0  0  0  0  0
  145.4742  133.2821  149.2429 H   0  0  0  0  0  0  0  0  0  0  0  0
  142.8165  132.2652  149.7289 H   0  0  0  0  0  0  0  0  0  0  0  0
  144.2966  131.5174  150.3355 H   0  0  0  0  0  0  0  0  0  0  0  0
  142.5673  134.6158  150.9601 H   0  0  0  0  0  0  0  0  0  0  0  0
  143.9327  134.4270  154.5995 H   0  0  0  0  0  0  0  0  0  0  0  0
  145.1374  135.6737  154.3334 H   0  0  0  0  0  0  0  0  0  0  0  0
  145.3475  134.0801  153.6439 H   0  0  0  0  0  0  0  0  0  0  0  0
  142.0436  135.7462  153.7810 H   0  0  0  0  0  0  0  0  0  0  0  0
  142.1535  136.6805  152.2995 H   0  0  0  0  0  0  0  0  0  0  0  0
  143.1566  137.1064  153.6732 H   0  0  0  0  0  0  0  0  0  0  0  0
  148.3043  141.4788  154.1184 H   0  0  0  0  0  0  0  0  0  0  0  0
  149.1101  143.1243  155.5274 H   0  0  0  0  0  0  0  0  0  0  0  0
  1  2  1  0  0  0  0
  1 23  1  0  0  0  0
  1 24  1  0  0  0  0
  1 25  1  0  0  0  0
  2 22  1  0  0  0  0
  2  3  2  0  0  0  0
  3  4  1  0  0  0  0
  3 26  1  0  0  0  0
  4  5  2  0  0  0  0
  4 27  1  0  0  0  0
  5  6  1  0  0  0  0
  5 21  1  0  0  0  0
  6  7  1  0  0  0  0
  6 28  1  0  0  0  0
  6 29  1  0  0  0  0
  7  8  1  0  0  0  0
  7 30  1  0  0  0  0
  7 31  1  0  0  0  0
  8  9  1  0  0  0  0
  8 32  1  0  0  0  0
  9 10  2  0  0  0  0
  9 11  1  0  0  0  0
 11 12  1  0  0  0  0
 11 33  1  0  0  0  0
 12 18  1  0  0  0  0
 12 13  1  0  0  0  0
 12 34  1  0  0  0  0
 13 17  1  0  0  0  0
 13 14  1  0  0  0  0
 13 35  1  0  0  0  0
 14 15  1  0  0  0  0
 14 36  1  0  0  0  0
 14 37  1  0  0  0  0
 15 16  1  0  0  0  0
 15 38  1  0  0  0  0
 15 39  1  0  0  0  0
 16 17  1  0  0  0  0
 17 18  1  0  0  0  0
 17 40  1  0  0  0  0
 18 19  1  0  0  0  0
 18 20  1  0  0  0  0
 19 41  1  0  0  0  0
 19 42  1  0  0  0  0
 19 43  1  0  0  0  0
 20 44  1  0  0  0  0
 20 45  1  0  0  0  0
 20 46  1  0  0  0  0
 21 22  2  0  0  0  0
 21 47  1  0  0  0  0
 22 48  1  0  0  0  0
M  CHG  1  22   1
M  END
> <s_m_source_file>
AV-unprocessed.smi

> <i_m_source_file_index>
767

> <i_lp_mmshare_version>
43012

> <i_f3d_flags>
0

> <s_epik_input>
W0NIM11jMVtjSF1bY0hdYyhbY0hdbjEpW0NIMl1bQ0gyXVtOSF1DKD1PKVtOSF1bQ0BIXTJDKFtDSDNdKShbQ0gzXSlbQ0BIXShbQ0BASF0yMylPW0NIMl1bQ0gyXTM=

> <s_epik_cmdline>
J2VwaWtfcHl0aG9uJywgJy1waCcsICc3LjAnLCAnLXRuJywgJzgnLCAnLW1hJywgJzIwMCcsICctbWV0YWxfYmluZGluZycsICctaW1hZScsICc8aW5maWxlLm1hZT4nLCAnLW9tYWUnLCAnPG91dGZpbGUubWFlPic=

> <r_epik_Ionization_Penalty>
1.41853

> <r_epik_Ionization_Penalty_Charging>
1.41848

> <r_epik_Ionization_Penalty_Neutral>
5.17407e-05

> <r_epik_State_Penalty>
1.50205

> <r_epik_Charging_Adjusted_Penalty>
2.92053

> <i_epik_Tot_Q>
1

> <i_epik_Tot_abs_Q>
1

> <r_epik_Metal_State_Penalty>
1.5544

> <b_epik_Metal_Only>
0

> <s_lp_Force_Field>
OPLS_2005

> <r_lp_Energy>
61.237

> <b_lp_Chiralities_Consistent>
1

> <s_lp_Variant>
AV-unprocessed.smi:767-16

> <Gold.Version>
5.8.1

> <Gold.Id.Protein>
6NUR|6NUR_protein|mol2

> <Gold.PLP.Fitness>
46.8250

> <Gold.PLP.PLP>
-36.3285

> <Gold.PLP.part.hbond>
-2.9681

> <Gold.PLP.part.metal>
0.0000

> <Gold.PLP.part.buried>
-4.1173

> <Gold.PLP.part.nonpolar>
-32.6798

> <Gold.PLP.part.repulsive>
2.8747

> <Gold.PLP.ligand.clash>
0.0000

> <Gold.PLP.ligand.torsion>
0.6130

> <Gold.PLP.Chemscore.Hbond>
3.8160

> <Gold.PLP.Chemscore.CHOScore>
0.0000

> <Gold.PLP.Chemscore.Metal>
0.0000

> <Gold.Chemscore.Hbonds>
donor molecule, donor type, donor heavy atom, donor atom, acceptor molecule, acceptor atom, score
      L1  H     8    32       P1  7948  0.78
      L1  H    11    33       P1  7948  0.32
      L1  H    22    48       P1  8028  2.00

> <Gold.PLP.Chemscore.Internal.Correction>
0.2744

> <Gold.Rescore>
     Score         DG    S(hbond)    S(metal)    S(lipo)     H(rot)  DE(clash)    DE(int)     intcor
     21.10     -21.84       2.92        0.00      89.68       1.52       0.17       0.57       ----

> <Gold.Chemscore.Fitness>
21.1000

> <Gold.Chemscore.DG>
-21.8428

> <Gold.Chemscore.ZeroCoef>
-5.4800

> <Gold.Chemscore.Hbond>
2.9250

> <Gold.Chemscore.Metal>
0.0000

> <Gold.Chemscore.Lipo>
89.6833

> <Gold.Chemscore.Internal_Hbond>
0.0000

> <Gold.Chemscore.DEClash>
0.1748

> <Gold.Chemscore.DEInternal>
0.5680

> <Gold.Chemscore.Rot>
1.5233

> <Gold.Chemscore.Internal.Correction>
   9.000000E+99

> <Gold.Chemscore.Hbonds>
donor molecule, donor type, donor heavy atom, donor atom, acceptor molecule, acceptor atom, score
      L1  H     8    32       P1  7948  0.79
      L1  H    11    33       P1  7948  0.31
      L1  H    22    48       P1  8028  0.98

> <Gold.Chemscore.Hbond.Weighted>
-9.7694

> <Gold.Chemscore.Metal.Weighted>
-0.0000

> <Gold.Chemscore.Lipo.Weighted>
-10.4930

> <Gold.Chemscore.Internal_Hbond.Weighted>
0.0000

> <Gold.Chemscore.DEClash.Weighted>
0.1748

> <Gold.Chemscore.DEInternal.Weighted>
0.5680

> <Gold.Chemscore.Rot.Weighted>
3.8995

> <Gold.Chemscore.Internal.Correction.Weighted>
   9.000000E+99

> <Gold.Protein.RotatedTorsions>
[ 6907 6896 6895 6894 ] final  121.95 input  -60.11 | X-H torsion
[ 7974 7965 7964 7962 ] final -135.76 input  175.53 | X-H torsion
[ 8008 7997 7996 7995 ] final  102.29 input   59.86 | X-H torsion
[ 10167 10162 10161 10158 ] final    2.21 input  -65.29 | X-H torsion
[ 10718 10713 10712 10709 ] final  -66.17 input   66.30 | X-H torsion
[ 10763 10752 10751 10750 ] final  -34.05 input  -60.55 | X-H torsion
[ 11005 11000 10999 10996 ] final  105.83 input  -57.11 | X-H torsion

> <Gold.Protein.ActiveResidues>
 VAL166  LYS551  ARG553  GLY616  TRP617  ASP618  TYR619  PRO620  LYS621  CYS622 
 ASP623  PHE694  ASN695  SER759  ASP760  ASP761  ALA762  ILE779  LEU786  VAL792 
 PHE793  MET794  SER795  GLU796  ALA797  LYS798  CYS799  TRP800  GLU811  SER814 

> <Gold.Protein.RotatedAtoms>
  152.4281  133.7230  159.6543 H   0  0  0  0  0  0  0  0  0  0  0  0  # atno 6907 bound_to 6896
  150.8159  133.8328  159.3167 H   0  0  0  0  0  0  0  0  0  0  0  0  # atno 6908 bound_to 6896
  151.6024  135.1048  160.0115 H   0  0  0  0  0  0  0  0  0  0  0  0  # atno 6909 bound_to 6896
  144.8986  140.6740  143.5099 H   0  0  0  0  0  0  0  0  0  0  0  0  # atno 7974 bound_to 7965
  156.1379  140.3183  155.8449 H   0  0  0  0  0  0  0  0  0  0  0  0  # atno 8008 bound_to 7997
  155.4210  140.0512  157.3043 H   0  0  0  0  0  0  0  0  0  0  0  0  # atno 8009 bound_to 7997
  154.4952  140.2108  155.9475 H   0  0  0  0  0  0  0  0  0  0  0  0  # atno 8010 bound_to 7997
  140.6646  143.7213  150.7803 H   0  0  0  0  0  0  0  0  0  0  0  0  # atno 10167 bound_to 10162
  156.0627  130.4258  150.1670 H   0  0  0  0  0  0  0  0  0  0  0  0  # atno 10718 bound_to 10713
  153.8403  135.6858  153.4803 H   0  0  0  0  0  0  0  0  0  0  0  0  # atno 10763 bound_to 10752
  153.1457  135.4638  154.9561 H   0  0  0  0  0  0  0  0  0  0  0  0  # atno 10764 bound_to 10752
  154.7848  135.3281  154.7857 H   0  0  0  0  0  0  0  0  0  0  0  0  # atno 10765 bound_to 10752
  139.8806  134.9349  156.5574 H   0  0  0  0  0  0  0  0  0  0  0  0  # atno 11005 bound_to 11000
  145.3656  139.1671  143.4359 LP  0  0  0  0  0  0  0  0  0  0  0  0  # atno 17320 bound_to 7965
  146.3095  140.3723  142.8675 LP  0  0  0  0  0  0  0  0  0  0  0  0  # atno 17321 bound_to 7965
  140.0888  143.4897  152.2490 LP  0  0  0  0  0  0  0  0  0  0  0  0  # atno 17342 bound_to 10162
  139.5890  144.7543  151.3447 LP  0  0  0  0  0  0  0  0  0  0  0  0  # atno 17343 bound_to 10162
  156.9735  130.9842  151.3453 LP  0  0  0  0  0  0  0  0  0  0  0  0  # atno 17370 bound_to 10713
  157.5648  130.8270  149.8313 LP  0  0  0  0  0  0  0  0  0  0  0  0  # atno 17371 bound_to 10713
  140.8195  133.8365  155.8882 LP  0  0  0  0  0  0  0  0  0  0  0  0  # atno 17394 bound_to 11000
  140.9432  134.1875  157.4783 LP  0  0  0  0  0  0  0  0  0  0  0  0  # atno 17395 bound_to 11000

$$$$
