AV-unprocessed.smi:861|AV-procd|sdf|3967|dock6
  -GOLD-   22720 1443D 1   1.00000     0.00000
 Structure written by MMmdl.
 44 45  0  0  0  0  0  0  0  0  2 V2000
  145.9024  132.2775  149.8705 C   0  0  0  0  0  0  0  0  0  0  0  0
  145.6115  132.9187  151.2357 C   0  0  0  0  0  0  0  0  0  0  0  0
  144.5817  134.0513  151.0858 C   0  0  0  0  0  0  0  0  0  0  0  0
  146.9174  133.3957  151.9044 C   0  0  0  0  0  0  0  0  0  0  0  0
  146.7150  133.9894  153.3118 C   0  0  0  0  0  0  0  0  0  0  0  0
  147.9919  134.4432  153.9250 N   0  3  2  0  0  0  0  0  0  0  0  0
  148.9436  133.3382  154.1955 C   0  0  0  0  0  0  0  0  0  0  0  0
  148.5458  132.5613  155.4630 C   0  0  0  0  0  0  0  0  0  0  0  0
  148.4697  133.4598  156.5625 O   0  0  0  0  0  0  0  0  0  0  0  0
  147.4763  134.4648  156.3815 C   0  0  1  0  0  0  0  0  0  0  0  0
  147.4420  135.3345  157.6456 C   0  0  0  0  0  0  0  0  0  0  0  0
  147.4268  134.5252  158.8564 N   0  0  0  0  0  0  0  0  0  0  0  0
  147.4254  135.1314  160.1197 C   0  0  0  0  0  0  0  0  0  0  0  0
  147.2341  134.3290  161.2620 C   0  0  0  0  0  0  0  0  0  0  0  0
  147.2362  134.9667  162.5148 C   0  0  0  0  0  0  0  0  0  0  0  0
  147.4300  136.3600  162.5294 C   0  0  0  0  0  0  0  0  0  0  0  0
  147.6086  137.0819  161.4002 N   0  0  0  0  0  0  0  0  0  0  0  0
  147.6054  136.4735  160.2088 N   0  0  0  0  0  0  0  0  0  0  0  0
  147.8377  135.2973  155.1313 C   0  0  0  0  0  0  0  0  0  0  0  0
  146.3498  132.9952  149.1822 H   0  0  0  0  0  0  0  0  0  0  0  0
  144.9886  131.9006  149.4099 H   0  0  0  0  0  0  0  0  0  0  0  0
  146.5893  131.4364  149.9677 H   0  0  0  0  0  0  0  0  0  0  0  0
  145.1692  132.1457  151.8656 H   0  0  0  0  0  0  0  0  0  0  0  0
  144.9817  134.8750  150.4937 H   0  0  0  0  0  0  0  0  0  0  0  0
  144.2761  134.4515  152.0520 H   0  0  0  0  0  0  0  0  0  0  0  0
  143.6789  133.6956  150.5882 H   0  0  0  0  0  0  0  0  0  0  0  0
  147.5998  132.5487  151.9863 H   0  0  0  0  0  0  0  0  0  0  0  0
  147.4075  134.1158  151.2494 H   0  0  0  0  0  0  0  0  0  0  0  0
  145.9925  134.8039  153.2938 H   0  0  0  0  0  0  0  0  0  0  0  0
  146.2811  133.2121  153.9421 H   0  0  0  0  0  0  0  0  0  0  0  0
  149.0175  132.6703  153.3366 H   0  0  0  0  0  0  0  0  0  0  0  0
  149.9370  133.7671  154.3342 H   0  0  0  0  0  0  0  0  0  0  0  0
  147.5952  132.0425  155.3306 H   0  0  0  0  0  0  0  0  0  0  0  0
  149.2935  131.7997  155.6842 H   0  0  0  0  0  0  0  0  0  0  0  0
  146.4985  133.9986  156.2504 H   0  0  0  0  0  0  0  0  0  0  0  0
  148.2988  136.0095  157.6621 H   0  0  0  0  0  0  0  0  0  0  0  0
  146.5440  135.9538  157.6361 H   0  0  0  0  0  0  0  0  0  0  0  0
  147.5169  133.5223  158.7796 H   0  0  0  0  0  0  0  0  0  0  0  0
  147.0902  133.2611  161.1844 H   0  0  0  0  0  0  0  0  0  0  0  0
  147.0948  134.4104  163.4293 H   0  0  0  0  0  0  0  0  0  0  0  0
  147.4418  136.9058  163.4611 H   0  0  0  0  0  0  0  0  0  0  0  0
  148.7860  135.8090  155.3022 H   0  0  0  0  0  0  0  0  0  0  0  0
  147.1005  136.0816  154.9648 H   0  0  0  0  0  0  0  0  0  0  0  0
  148.4314  135.0177  153.2197 H   0  0  0  0  0  0  0  0  0  0  0  0
  1  2  1  0  0  0  0
  1 20  1  0  0  0  0
  1 21  1  0  0  0  0
  1 22  1  0  0  0  0
  2  3  1  0  0  0  0
  2  4  1  0  0  0  0
  2 23  1  0  0  0  0
  3 24  1  0  0  0  0
  3 25  1  0  0  0  0
  3 26  1  0  0  0  0
  4  5  1  0  0  0  0
  4 27  1  0  0  0  0
  4 28  1  0  0  0  0
  5  6  1  0  0  0  0
  5 29  1  0  0  0  0
  5 30  1  0  0  0  0
  6 19  1  0  0  0  0
  6  7  1  0  0  0  0
  6 44  1  0  0  0  0
  7  8  1  0  0  0  0
  7 31  1  0  0  0  0
  7 32  1  0  0  0  0
  8  9  1  0  0  0  0
  8 33  1  0  0  0  0
  8 34  1  0  0  0  0
  9 10  1  0  0  0  0
 10 11  1  0  0  0  0
 10 19  1  0  0  0  0
 10 35  1  0  0  0  0
 11 12  1  0  0  0  0
 11 36  1  0  0  0  0
 11 37  1  0  0  0  0
 12 13  1  0  0  0  0
 12 38  1  0  0  0  0
 13 18  1  0  0  0  0
 13 14  2  0  0  0  0
 14 15  1  0  0  0  0
 14 39  1  0  0  0  0
 15 16  2  0  0  0  0
 15 40  1  0  0  0  0
 16 17  1  0  0  0  0
 16 41  1  0  0  0  0
 17 18  2  0  0  0  0
 19 42  1  0  0  0  0
 19 43  1  0  0  0  0
M  CHG  1   6   1
M  END
> <s_m_source_file>
AV-unprocessed.smi

> <i_m_source_file_index>
861

> <i_lp_mmshare_version>
43012

> <i_f3d_flags>
0

> <s_epik_input>
W0NIM11bQ0hdKFtDSDNdKVtDSDJdW0NIMl1OMVtDSDJdW0NIMl1PW0NASF0oW0NIMl0xKVtDSDJdW05IXWMyW2NIXVtjSF1bY0hdbm4y

> <s_epik_cmdline>
J2VwaWtfcHl0aG9uJywgJy1waCcsICc3LjAnLCAnLXRuJywgJzgnLCAnLW1hJywgJzIwMCcsICctbWV0YWxfYmluZGluZycsICctaW1hZScsICc8aW5maWxlLm1hZT4nLCAnLW9tYWUnLCAnPG91dGZpbGUubWFlPic=

> <r_lp_tautomer_probability>
0.999978

> <r_epik_Ionization_Penalty>
0.114704

> <r_epik_Ionization_Penalty_Charging>
0.0953451

> <r_epik_Ionization_Penalty_Neutral>
0.0193593

> <r_epik_State_Penalty>
0.104983

> <r_epik_Charging_Adjusted_Penalty>
0.200328

> <i_epik_Tot_Q>
1

> <i_epik_Tot_abs_Q>
1

> <r_epik_Metal_State_Penalty>
0.100113

> <b_epik_Metal_Only>
0

> <s_lp_Force_Field>
OPLS_2005

> <r_lp_Energy>
26.6721

> <b_lp_Chiralities_Consistent>
1

> <s_lp_Variant>
AV-unprocessed.smi:861-2

> <Gold.Version>
5.8.1

> <Gold.Id.Protein>
6NUR|6NUR_protein|mol2

> <Gold.PLP.Fitness>
42.8749

> <Gold.PLP.PLP>
-31.4862

> <Gold.PLP.part.hbond>
-3.0000

> <Gold.PLP.part.metal>
0.0000

> <Gold.PLP.part.buried>
-5.0790

> <Gold.PLP.part.nonpolar>
-24.1712

> <Gold.PLP.part.repulsive>
0.0448

> <Gold.PLP.ligand.clash>
0.0000

> <Gold.PLP.ligand.torsion>
0.1596

> <Gold.PLP.Chemscore.Hbond>
3.8640

> <Gold.PLP.Chemscore.CHOScore>
0.0000

> <Gold.PLP.Chemscore.Metal>
0.0000

> <Gold.Chemscore.Hbonds>
donor molecule, donor type, donor heavy atom, donor atom, acceptor molecule, acceptor atom, score
      L1  H     6    44       P1  7948  2.00
      P1  H  6931  6943       L1    17  1.00
      P1  H  6934  6947       L1    17  0.86

> <Gold.PLP.Chemscore.Internal.Correction>
0.1160

> <Gold.Rescore>
     Score         DG    S(hbond)    S(metal)    S(lipo)     H(rot)  DE(clash)    DE(int)     intcor
     16.17     -16.36       1.87        0.00      76.96       1.71       0.00       0.18       ----

> <Gold.Chemscore.Fitness>
16.1717

> <Gold.Chemscore.DG>
-16.3579

> <Gold.Chemscore.ZeroCoef>
-5.4800

> <Gold.Chemscore.Hbond>
1.8736

> <Gold.Chemscore.Metal>
0.0000

> <Gold.Chemscore.Lipo>
76.9626

> <Gold.Chemscore.Internal_Hbond>
0.0000

> <Gold.Chemscore.DEClash>
0.0029

> <Gold.Chemscore.DEInternal>
0.1833

> <Gold.Chemscore.Rot>
1.7127

> <Gold.Chemscore.Internal.Correction>
   9.000000E+99

> <Gold.Chemscore.Hbonds>
donor molecule, donor type, donor heavy atom, donor atom, acceptor molecule, acceptor atom, score
      L1  H     6    44       P1  7948  0.82
      P1  H  6931  6943       L1    17  0.32
      P1  H  6934  6947       L1    17  0.35

> <Gold.Chemscore.Hbond.Weighted>
-6.2577

> <Gold.Chemscore.Metal.Weighted>
-0.0000

> <Gold.Chemscore.Lipo.Weighted>
-9.0046

> <Gold.Chemscore.Internal_Hbond.Weighted>
0.0000

> <Gold.Chemscore.DEClash.Weighted>
0.0029

> <Gold.Chemscore.DEInternal.Weighted>
0.1833

> <Gold.Chemscore.Rot.Weighted>
4.3844

> <Gold.Chemscore.Internal.Correction.Weighted>
   9.000000E+99

> <Gold.Protein.RotatedTorsions>
[ 6907 6896 6895 6894 ] final -162.73 input  -60.11 | X-H torsion
[ 7974 7965 7964 7962 ] final -113.35 input  175.53 | X-H torsion
[ 8008 7997 7996 7995 ] final   47.01 input   59.86 | X-H torsion
[ 10167 10162 10161 10158 ] final -123.13 input  -65.29 | X-H torsion
[ 10718 10713 10712 10709 ] final -165.89 input   66.30 | X-H torsion
[ 10763 10752 10751 10750 ] final  -16.91 input  -60.55 | X-H torsion
[ 11005 11000 10999 10996 ] final  141.85 input  -57.11 | X-H torsion

> <Gold.Protein.ActiveResidues>
 VAL166  LYS551  ARG553  GLY616  TRP617  ASP618  TYR619  PRO620  LYS621  CYS622 
 ASP623  PHE694  ASN695  SER759  ASP760  ASP761  ALA762  ILE779  LEU786  VAL792 
 PHE793  MET794  SER795  GLU796  ALA797  LYS798  CYS799  TRP800  GLU811  SER814 

> <Gold.Protein.RotatedAtoms>
  151.3849  133.3808  159.2713 H   0  0  0  0  0  0  0  0  0  0  0  0  # atno 6907 bound_to 6896
  150.9549  134.8946  159.7705 H   0  0  0  0  0  0  0  0  0  0  0  0  # atno 6908 bound_to 6896
  152.5127  134.3806  159.9402 H   0  0  0  0  0  0  0  0  0  0  0  0  # atno 6909 bound_to 6896
  145.1331  140.8736  143.3746 H   0  0  0  0  0  0  0  0  0  0  0  0  # atno 7974 bound_to 7965
  155.3620  140.3419  155.4241 H   0  0  0  0  0  0  0  0  0  0  0  0  # atno 8008 bound_to 7997
  156.1708  140.1631  156.8485 H   0  0  0  0  0  0  0  0  0  0  0  0  # atno 8009 bound_to 7997
  154.5231  140.0762  156.8192 H   0  0  0  0  0  0  0  0  0  0  0  0  # atno 8010 bound_to 7997
  140.0068  143.5483  152.2280 H   0  0  0  0  0  0  0  0  0  0  0  0  # atno 10167 bound_to 10162
  156.6600  130.9042  151.3027 H   0  0  0  0  0  0  0  0  0  0  0  0  # atno 10718 bound_to 10713
  153.5658  135.7008  153.5526 H   0  0  0  0  0  0  0  0  0  0  0  0  # atno 10763 bound_to 10752
  153.3388  135.4027  155.1555 H   0  0  0  0  0  0  0  0  0  0  0  0  # atno 10764 bound_to 10752
  154.8641  135.3737  154.5178 H   0  0  0  0  0  0  0  0  0  0  0  0  # atno 10765 bound_to 10752
  140.0433  134.9294  157.0883 H   0  0  0  0  0  0  0  0  0  0  0  0  # atno 11005 bound_to 11000
  145.0613  139.3103  143.5879 LP  0  0  0  0  0  0  0  0  0  0  0  0  # atno 17320 bound_to 7965
  146.3512  140.0056  142.8672 LP  0  0  0  0  0  0  0  0  0  0  0  0  # atno 17321 bound_to 7965
  139.6233  144.7633  151.2693 LP  0  0  0  0  0  0  0  0  0  0  0  0  # atno 17342 bound_to 10162
  140.7397  143.6609  150.8165 LP  0  0  0  0  0  0  0  0  0  0  0  0  # atno 17343 bound_to 10162
  157.7113  130.9443  150.1098 LP  0  0  0  0  0  0  0  0  0  0  0  0  # atno 17370 bound_to 10713
  156.2018  130.3661  149.8778 LP  0  0  0  0  0  0  0  0  0  0  0  0  # atno 17371 bound_to 10713
  140.4034  134.2058  155.7163 LP  0  0  0  0  0  0  0  0  0  0  0  0  # atno 17394 bound_to 11000
  141.1894  133.8239  157.0958 LP  0  0  0  0  0  0  0  0  0  0  0  0  # atno 17395 bound_to 11000

$$$$
