AV-unprocessed.smi:2495|AV-procd|sdf|9824|dock3
  -GOLD-   2272013453D 1   1.00000     0.00000
 Structure written by MMmdl.
 33 34  0  0  0  0  0  0  0  0  1 V2000
  147.0483  142.3243  154.1178 C   0  0  0  0  0  0  0  0  0  0  0  0
  148.3602  142.1653  154.7262 N   0  0  0  0  0  0  0  0  0  0  0  0
  149.0282  141.0038  154.7954 C   0  0  0  0  0  0  0  0  0  0  0  0
  148.5762  139.9474  154.3517 O   0  0  0  0  0  0  0  0  0  0  0  0
  150.3998  141.0359  155.4866 C   0  0  1  0  0  0  0  0  0  0  0  0
  150.3747  141.8416  156.8059 C   0  0  0  0  0  0  0  0  0  0  0  0
  151.6596  141.7491  157.4960 N   0  0  0  0  0  0  0  0  0  0  0  0
  151.8459  142.6484  158.5686 C   0  0  0  0  0  0  0  0  0  0  0  0
  152.2998  142.1939  159.8306 C   0  0  0  0  0  0  0  0  0  0  0  0
  152.4575  143.1656  160.8408 C   0  0  0  0  0  0  0  0  0  0  0  0
  152.9384  142.7896  162.2264 C   0  0  0  0  0  0  0  0  0  0  0  0
  152.1913  144.4708  160.6222 N   0  0  0  0  0  0  0  0  0  0  0  0
  151.7635  144.7957  159.4011 C   0  0  0  0  0  0  0  0  0  0  0  0
  151.5756  143.9636  158.3742 N   0  0  0  0  0  0  0  0  0  0  0  0
  152.1335  140.3776  157.6666 C   0  0  0  0  0  0  0  0  0  0  0  0
  152.1171  139.6362  156.3213 C   0  0  0  0  0  0  0  0  0  0  0  0
  150.8105  139.6961  155.7617 O   0  0  0  0  0  0  0  0  0  0  0  0
  146.6956  143.3461  154.2572 H   0  0  0  0  0  0  0  0  0  0  0  0
  146.3221  141.6484  154.5714 H   0  0  0  0  0  0  0  0  0  0  0  0
  147.0923  142.1208  153.0471 H   0  0  0  0  0  0  0  0  0  0  0  0
  148.7962  142.9905  155.1122 H   0  0  0  0  0  0  0  0  0  0  0  0
  151.1060  141.4911  154.7899 H   0  0  0  0  0  0  0  0  0  0  0  0
  150.1208  142.8772  156.5840 H   0  0  0  0  0  0  0  0  0  0  0  0
  149.5960  141.4599  157.4682 H   0  0  0  0  0  0  0  0  0  0  0  0
  152.5059  141.1529  160.0301 H   0  0  0  0  0  0  0  0  0  0  0  0
  152.7199  141.7434  162.4424 H   0  0  0  0  0  0  0  0  0  0  0  0
  152.4507  143.4006  162.9867 H   0  0  0  0  0  0  0  0  0  0  0  0
  154.0154  142.9383  162.3034 H   0  0  0  0  0  0  0  0  0  0  0  0
  151.5462  145.8387  159.2253 H   0  0  0  0  0  0  0  0  0  0  0  0
  153.1485  140.3739  158.0662 H   0  0  0  0  0  0  0  0  0  0  0  0
  151.4962  139.8617  158.3863 H   0  0  0  0  0  0  0  0  0  0  0  0
  152.8427  140.0663  155.6290 H   0  0  0  0  0  0  0  0  0  0  0  0
  152.3942  138.5917  156.4654 H   0  0  0  0  0  0  0  0  0  0  0  0
  1  2  1  0  0  0  0
  1 18  1  0  0  0  0
  1 19  1  0  0  0  0
  1 20  1  0  0  0  0
  2  3  1  0  0  0  0
  2 21  1  0  0  0  0
  3  4  2  0  0  0  0
  3  5  1  0  0  0  0
  5 17  1  0  0  0  0
  5  6  1  0  0  0  0
  5 22  1  0  0  0  0
  6  7  1  0  0  0  0
  6 23  1  0  0  0  0
  6 24  1  0  0  0  0
  7  8  1  0  0  0  0
  7 15  1  0  0  0  0
  8 14  1  0  0  0  0
  8  9  2  0  0  0  0
  9 10  1  0  0  0  0
  9 25  1  0  0  0  0
 10 11  1  0  0  0  0
 10 12  2  0  0  0  0
 11 26  1  0  0  0  0
 11 27  1  0  0  0  0
 11 28  1  0  0  0  0
 12 13  1  0  0  0  0
 13 14  2  0  0  0  0
 13 29  1  0  0  0  0
 15 16  1  0  0  0  0
 15 30  1  0  0  0  0
 15 31  1  0  0  0  0
 16 17  1  0  0  0  0
 16 32  1  0  0  0  0
 16 33  1  0  0  0  0
M  END
> <s_m_source_file>
AV-unprocessed.smi

> <i_m_source_file_index>
2495

> <i_lp_mmshare_version>
43012

> <i_f3d_flags>
0

> <s_epik_input>
W0NIM11bTkhdQyg9TylbQ0BASF0xW0NIMl1OKFtDSDJdW0NIMl1PMSljMltjSF1jKFtDSDNdKW5bY0hdbjI=

> <s_epik_cmdline>
J2VwaWtfcHl0aG9uJywgJy1waCcsICc3LjAnLCAnLXRuJywgJzgnLCAnLW1hJywgJzIwMCcsICctbWV0YWxfYmluZGluZycsICctaW1hZScsICc8aW5maWxlLm1hZT4nLCAnLW9tYWUnLCAnPG91dGZpbGUubWFlPic=

> <r_lp_tautomer_probability>
1

> <r_epik_Ionization_Penalty>
0.000466083

> <r_epik_Ionization_Penalty_Charging>
0

> <r_epik_Ionization_Penalty_Neutral>
0.000466083

> <r_epik_State_Penalty>
0.000259726

> <r_epik_Charging_Adjusted_Penalty>
0.000259726

> <i_epik_Tot_Q>
0

> <i_epik_Tot_abs_Q>
0

> <r_epik_Metal_State_Penalty>
-0

> <b_epik_Metal_Only>
0

> <s_lp_Force_Field>
OPLS_2005

> <r_lp_Energy>
12.0364

> <b_lp_Chiralities_Consistent>
1

> <s_lp_Variant>
AV-unprocessed.smi:2495-2

> <Gold.Version>
5.8.1

> <Gold.Id.Protein>
6NUR|6NUR_protein|mol2

> <Gold.PLP.Fitness>
39.0657

> <Gold.PLP.PLP>
-36.7409

> <Gold.PLP.part.hbond>
-1.0000

> <Gold.PLP.part.metal>
0.0000

> <Gold.PLP.part.buried>
-4.7146

> <Gold.PLP.part.nonpolar>
-30.8114

> <Gold.PLP.part.repulsive>
0.5475

> <Gold.PLP.ligand.clash>
0.0000

> <Gold.PLP.ligand.torsion>
0.5116

> <Gold.PLP.Chemscore.Hbond>
1.0000

> <Gold.PLP.Chemscore.CHOScore>
0.0000

> <Gold.PLP.Chemscore.Metal>
0.0000

> <Gold.Chemscore.Hbonds>
donor molecule, donor type, donor heavy atom, donor atom, acceptor molecule, acceptor atom, score
      L1  H     2    21       P1  8028  1.00

> <Gold.PLP.Chemscore.Internal.Correction>
0.3480

> <Gold.Rescore>
     Score         DG    S(hbond)    S(metal)    S(lipo)     H(rot)  DE(clash)    DE(int)     intcor
     12.96     -13.30       0.99        0.00      68.50       1.37       0.07       0.27       ----

> <Gold.Chemscore.Fitness>
12.9646

> <Gold.Chemscore.DG>
-13.3041

> <Gold.Chemscore.ZeroCoef>
-5.4800

> <Gold.Chemscore.Hbond>
0.9936

> <Gold.Chemscore.Metal>
0.0000

> <Gold.Chemscore.Lipo>
68.4984

> <Gold.Chemscore.Internal_Hbond>
0.0000

> <Gold.Chemscore.DEClash>
0.0701

> <Gold.Chemscore.DEInternal>
0.2694

> <Gold.Chemscore.Rot>
1.3706

> <Gold.Chemscore.Internal.Correction>
   9.000000E+99

> <Gold.Chemscore.Hbonds>
donor molecule, donor type, donor heavy atom, donor atom, acceptor molecule, acceptor atom, score
      L1  H     2    21       P1  8028  0.98

> <Gold.Chemscore.Hbond.Weighted>
-3.3185

> <Gold.Chemscore.Metal.Weighted>
-0.0000

> <Gold.Chemscore.Lipo.Weighted>
-8.0143

> <Gold.Chemscore.Internal_Hbond.Weighted>
0.0000

> <Gold.Chemscore.DEClash.Weighted>
0.0701

> <Gold.Chemscore.DEInternal.Weighted>
0.2694

> <Gold.Chemscore.Rot.Weighted>
3.5087

> <Gold.Chemscore.Internal.Correction.Weighted>
   9.000000E+99

> <Gold.Protein.RotatedTorsions>
[ 6907 6896 6895 6894 ] final  171.95 input  -60.11 | X-H torsion
[ 7974 7965 7964 7962 ] final  -69.02 input  175.53 | X-H torsion
[ 8008 7997 7996 7995 ] final  -83.15 input   59.86 | X-H torsion
[ 10167 10162 10161 10158 ] final   97.27 input  -65.29 | X-H torsion
[ 10718 10713 10712 10709 ] final -149.85 input   66.30 | X-H torsion
[ 10763 10752 10751 10750 ] final   80.13 input  -60.55 | X-H torsion
[ 11005 11000 10999 10996 ] final   46.78 input  -57.11 | X-H torsion

> <Gold.Protein.ActiveResidues>
 VAL166  LYS551  ARG553  GLY616  TRP617  ASP618  TYR619  PRO620  LYS621  CYS622 
 ASP623  PHE694  ASN695  SER759  ASP760  ASP761  ALA762  ILE779  LEU786  VAL792 
 PHE793  MET794  SER795  GLU796  ALA797  LYS798  CYS799  TRP800  GLU811  SER814 

> <Gold.Protein.RotatedAtoms>
  151.7921  133.3360  159.3501 H   0  0  0  0  0  0  0  0  0  0  0  0  # atno 6907 bound_to 6896
  150.7388  134.5833  159.5959 H   0  0  0  0  0  0  0  0  0  0  0  0  # atno 6908 bound_to 6896
  152.3203  134.7390  160.0366 H   0  0  0  0  0  0  0  0  0  0  0  0  # atno 6909 bound_to 6896
  145.7091  140.9085  143.0690 H   0  0  0  0  0  0  0  0  0  0  0  0  # atno 7974 bound_to 7965
  154.6161  140.0623  156.9555 H   0  0  0  0  0  0  0  0  0  0  0  0  # atno 8008 bound_to 7997
  155.1894  140.3306  155.4343 H   0  0  0  0  0  0  0  0  0  0  0  0  # atno 8009 bound_to 7997
  156.2405  140.1883  156.6985 H   0  0  0  0  0  0  0  0  0  0  0  0  # atno 8010 bound_to 7997
  139.7816  144.6886  151.0014 H   0  0  0  0  0  0  0  0  0  0  0  0  # atno 10167 bound_to 10162
  156.4385  130.8110  151.2339 H   0  0  0  0  0  0  0  0  0  0  0  0  # atno 10718 bound_to 10713
  153.1008  135.4814  154.8863 H   0  0  0  0  0  0  0  0  0  0  0  0  # atno 10763 bound_to 10752
  154.7376  135.3075  154.8786 H   0  0  0  0  0  0  0  0  0  0  0  0  # atno 10764 bound_to 10752
  153.9403  135.6835  153.4798 H   0  0  0  0  0  0  0  0  0  0  0  0  # atno 10765 bound_to 10752
  140.1338  134.4671  155.8501 H   0  0  0  0  0  0  0  0  0  0  0  0  # atno 11005 bound_to 11000
  144.6947  139.9051  143.7460 LP  0  0  0  0  0  0  0  0  0  0  0  0  # atno 17320 bound_to 7965
  146.0728  139.3717  143.0512 LP  0  0  0  0  0  0  0  0  0  0  0  0  # atno 17321 bound_to 7965
  140.7818  143.4476  151.0459 LP  0  0  0  0  0  0  0  0  0  0  0  0  # atno 17342 bound_to 10162
  139.8157  143.7890  152.3174 LP  0  0  0  0  0  0  0  0  0  0  0  0  # atno 17343 bound_to 10162
  157.7507  131.0176  150.3590 LP  0  0  0  0  0  0  0  0  0  0  0  0  # atno 17370 bound_to 10713
  156.3943  130.3904  149.7007 LP  0  0  0  0  0  0  0  0  0  0  0  0  # atno 17371 bound_to 10713
  141.2175  133.6806  156.7119 LP  0  0  0  0  0  0  0  0  0  0  0  0  # atno 17394 bound_to 11000
  140.2808  134.8318  157.3931 LP  0  0  0  0  0  0  0  0  0  0  0  0  # atno 17395 bound_to 11000

$$$$
