AV-unprocessed.smi:2529|AV-procd|sdf|9960|dock9
  -GOLD-   2272014 03D 1   1.00000     0.00000
 Structure written by MMmdl.
 44 46  0  0  0  0  0  0  0  0  1 V2000
  144.9594  139.1546  155.3213 C   0  0  0  0  0  0  0  0  0  0  0  0
  146.4545  139.5021  155.2853 C   0  0  2  0  0  0  0  0  0  0  0  0
  147.0806  139.4462  156.6895 C   0  0  0  0  0  0  0  0  0  0  0  0
  148.5820  139.7843  156.6597 C   0  0  0  0  0  0  0  0  0  0  0  0
  148.8850  141.1518  155.9960 C   0  0  1  0  0  0  0  0  0  0  0  0
  148.3282  142.1855  156.7895 O   0  0  0  0  0  0  0  0  0  0  0  0
  150.4021  141.4658  155.8354 C   0  0  0  0  0  0  0  0  0  0  0  0
  151.1227  141.7267  157.0974 N   0  0  0  0  0  0  0  0  0  0  0  0
  151.2868  143.0811  157.4468 C   0  0  0  0  0  0  0  0  0  0  0  0
  151.9141  143.4400  158.5210 N   0  0  0  0  0  0  0  0  0  0  0  0
  152.4549  142.4670  159.3684 C   0  0  0  0  0  0  0  0  0  0  0  0
  153.1544  142.9461  160.6327 C   0  0  0  0  0  0  0  0  0  0  0  0
  153.4676  141.8647  161.6795 C   0  0  0  0  0  0  0  0  0  0  0  0
  153.1038  142.8931  162.7562 C   0  0  0  0  0  0  0  0  0  0  0  0
  152.2584  143.6056  161.6948 C   0  0  0  0  0  0  0  0  0  0  0  0
  152.3274  141.1511  159.0753 C   0  0  0  0  0  0  0  0  0  0  0  0
  151.6312  140.7162  157.8641 C   0  0  0  0  0  0  0  0  0  0  0  0
  151.5096  139.5284  157.5644 O   0  0  0  0  0  0  0  0  0  0  0  0
  148.1955  141.2334  154.6124 C   0  0  0  0  0  0  0  0  0  0  0  0
  146.6968  140.8843  154.6549 C   0  0  0  0  0  0  0  0  0  0  0  0
  144.4008  139.8663  155.9300 H   0  0  0  0  0  0  0  0  0  0  0  0
  144.7977  138.1607  155.7395 H   0  0  0  0  0  0  0  0  0  0  0  0
  144.5298  139.1635  154.3193 H   0  0  0  0  0  0  0  0  0  0  0  0
  146.9512  138.7553  154.6640 H   0  0  0  0  0  0  0  0  0  0  0  0
  146.5615  140.1387  157.3534 H   0  0  0  0  0  0  0  0  0  0  0  0
  146.9427  138.4528  157.1179 H   0  0  0  0  0  0  0  0  0  0  0  0
  148.9690  139.7570  157.6788 H   0  0  0  0  0  0  0  0  0  0  0  0
  149.1018  138.9972  156.1125 H   0  0  0  0  0  0  0  0  0  0  0  0
  148.2105  142.9508  156.2480 H   0  0  0  0  0  0  0  0  0  0  0  0
  150.8812  140.6296  155.3238 H   0  0  0  0  0  0  0  0  0  0  0  0
  150.5414  142.2984  155.1423 H   0  0  0  0  0  0  0  0  0  0  0  0
  150.8498  143.7993  156.7510 H   0  0  0  0  0  0  0  0  0  0  0  0
  154.0297  143.5568  160.4040 H   0  0  0  0  0  0  0  0  0  0  0  0
  152.7737  141.0222  161.6570 H   0  0  0  0  0  0  0  0  0  0  0  0
  154.5059  141.5326  161.6967 H   0  0  0  0  0  0  0  0  0  0  0  0
  152.5386  142.4944  163.5992 H   0  0  0  0  0  0  0  0  0  0  0  0
  153.9601  143.4848  163.0841 H   0  0  0  0  0  0  0  0  0  0  0  0
  152.3097  144.6942  161.7233 H   0  0  0  0  0  0  0  0  0  0  0  0
  151.2263  143.2499  161.6803 H   0  0  0  0  0  0  0  0  0  0  0  0
  152.7415  140.4058  159.7385 H   0  0  0  0  0  0  0  0  0  0  0  0
  148.3270  142.2268  154.1812 H   0  0  0  0  0  0  0  0  0  0  0  0
  148.6864  140.5420  153.9258 H   0  0  0  0  0  0  0  0  0  0  0  0
  146.2919  140.9060  153.6426 H   0  0  0  0  0  0  0  0  0  0  0  0
  146.1555  141.6474  155.2155 H   0  0  0  0  0  0  0  0  0  0  0  0
  1  2  1  0  0  0  0
  1 21  1  0  0  0  0
  1 22  1  0  0  0  0
  1 23  1  0  0  0  0
  2 20  1  0  0  0  0
  2  3  1  0  0  0  0
  2 24  1  0  0  0  0
  3  4  1  0  0  0  0
  3 25  1  0  0  0  0
  3 26  1  0  0  0  0
  4  5  1  0  0  0  0
  4 27  1  0  0  0  0
  4 28  1  0  0  0  0
  5  6  1  0  0  0  0
  5  7  1  0  0  0  0
  5 19  1  0  0  0  0
  6 29  1  0  0  0  0
  7  8  1  0  0  0  0
  7 30  1  0  0  0  0
  7 31  1  0  0  0  0
  8 17  1  0  0  0  0
  8  9  1  0  0  0  0
  9 10  2  0  0  0  0
  9 32  1  0  0  0  0
 10 11  1  0  0  0  0
 11 12  1  0  0  0  0
 11 16  2  0  0  0  0
 12 15  1  0  0  0  0
 12 13  1  0  0  0  0
 12 33  1  0  0  0  0
 13 14  1  0  0  0  0
 13 34  1  0  0  0  0
 13 35  1  0  0  0  0
 14 15  1  0  0  0  0
 14 36  1  0  0  0  0
 14 37  1  0  0  0  0
 15 38  1  0  0  0  0
 15 39  1  0  0  0  0
 16 17  1  0  0  0  0
 16 40  1  0  0  0  0
 17 18  2  0  0  0  0
 19 20  1  0  0  0  0
 19 41  1  0  0  0  0
 19 42  1  0  0  0  0
 20 43  1  0  0  0  0
 20 44  1  0  0  0  0
M  END
> <s_m_source_file>
AV-unprocessed.smi

> <i_m_source_file_index>
2529

> <i_lp_mmshare_version>
43012

> <i_f3d_flags>
0

> <s_epik_input>
W0NIMl0xW0NIMl1bQ0BIXShbQ0gzXSlbQ0gyXVtDSDJdW0NAQF0xKFtPSF0pW0NIMl1uMltjSF1uYyhbY0hdYzI9TylbQ0hdM1tDSDJdW0NIMl1bQ0gyXTM=

> <s_epik_cmdline>
J2VwaWtfcHl0aG9uJywgJy1waCcsICc3LjAnLCAnLXRuJywgJzgnLCAnLW1hJywgJzIwMCcsICctbWV0YWxfYmluZGluZycsICctaW1hZScsICc8aW5maWxlLm1hZT4nLCAnLW9tYWUnLCAnPG91dGZpbGUubWFlPic=

> <r_lp_tautomer_probability>
1

> <r_epik_Ionization_Penalty>
9.15498e-05

> <r_epik_Ionization_Penalty_Charging>
1.67865e-07

> <r_epik_Ionization_Penalty_Neutral>
9.13819e-05

> <r_epik_State_Penalty>
-0

> <r_epik_Charging_Adjusted_Penalty>
1.67865e-07

> <i_epik_Tot_Q>
0

> <i_epik_Tot_abs_Q>
0

> <r_epik_Metal_State_Penalty>
-0

> <b_epik_Metal_Only>
0

> <s_lp_Force_Field>
OPLS_2005

> <r_lp_Energy>
32.8679

> <b_lp_Chiralities_Consistent>
1

> <s_lp_Variant>
AV-unprocessed.smi:2529-1

> <Gold.Version>
5.8.1

> <Gold.Id.Protein>
6NUR|6NUR_protein|mol2

> <Gold.PLP.Fitness>
45.5418

> <Gold.PLP.PLP>
-40.3373

> <Gold.PLP.part.hbond>
-1.0000

> <Gold.PLP.part.metal>
0.0000

> <Gold.PLP.part.buried>
-6.2337

> <Gold.PLP.part.nonpolar>
-33.8342

> <Gold.PLP.part.repulsive>
0.0339

> <Gold.PLP.ligand.clash>
0.0000

> <Gold.PLP.ligand.torsion>
0.6113

> <Gold.PLP.Chemscore.Hbond>
1.0000

> <Gold.PLP.Chemscore.CHOScore>
1.0000

> <Gold.PLP.Chemscore.Metal>
0.0000

> <Gold.Chemscore.Hbonds>
donor molecule, donor type, donor heavy atom, donor atom, acceptor molecule, acceptor atom, score
      L1  H     6    29       P1  8028  0.98
      L1  C     9    32       P1  8028  1.00

> <Gold.PLP.Chemscore.Internal.Correction>
0.4271

> <Gold.Rescore>
     Score         DG    S(hbond)    S(metal)    S(lipo)     H(rot)  DE(clash)    DE(int)     intcor
     14.82     -15.68       0.93        0.00     100.00       1.80       0.22       0.65       ----

> <Gold.Chemscore.Fitness>
14.8152

> <Gold.Chemscore.DG>
-15.6843

> <Gold.Chemscore.ZeroCoef>
-5.4800

> <Gold.Chemscore.Hbond>
0.9292

> <Gold.Chemscore.Metal>
0.0000

> <Gold.Chemscore.Lipo>
100.0050

> <Gold.Chemscore.Internal_Hbond>
0.0000

> <Gold.Chemscore.DEClash>
0.2176

> <Gold.Chemscore.DEInternal>
0.6515

> <Gold.Chemscore.Rot>
1.7968

> <Gold.Chemscore.Internal.Correction>
   9.000000E+99

> <Gold.Chemscore.Hbonds>
donor molecule, donor type, donor heavy atom, donor atom, acceptor molecule, acceptor atom, score
      L1  H     6    29       P1  8028  0.64

> <Gold.Chemscore.Hbond.Weighted>
-3.1034

> <Gold.Chemscore.Metal.Weighted>
-0.0000

> <Gold.Chemscore.Lipo.Weighted>
-11.7006

> <Gold.Chemscore.Internal_Hbond.Weighted>
0.0000

> <Gold.Chemscore.DEClash.Weighted>
0.2176

> <Gold.Chemscore.DEInternal.Weighted>
0.6515

> <Gold.Chemscore.Rot.Weighted>
4.5997

> <Gold.Chemscore.Internal.Correction.Weighted>
   9.000000E+99

> <Gold.Protein.RotatedTorsions>
[ 6907 6896 6895 6894 ] final   54.78 input  -60.11 | X-H torsion
[ 7974 7965 7964 7962 ] final  -42.04 input  175.53 | X-H torsion
[ 8008 7997 7996 7995 ] final   80.35 input   59.86 | X-H torsion
[ 10167 10162 10161 10158 ] final -159.02 input  -65.29 | X-H torsion
[ 10718 10713 10712 10709 ] final   28.19 input   66.30 | X-H torsion
[ 10763 10752 10751 10750 ] final  -33.51 input  -60.55 | X-H torsion
[ 11005 11000 10999 10996 ] final   -9.58 input  -57.11 | X-H torsion

> <Gold.Protein.ActiveResidues>
 VAL166  LYS551  ARG553  GLY616  TRP617  ASP618  TYR619  PRO620  LYS621  CYS622 
 ASP623  PHE694  ASN695  SER759  ASP760  ASP761  ALA762  ILE779  LEU786  VAL792 
 PHE793  MET794  SER795  GLU796  ALA797  LYS798  CYS799  TRP800  GLU811  SER814 

> <Gold.Protein.RotatedAtoms>
  152.3473  134.7054  160.0246 H   0  0  0  0  0  0  0  0  0  0  0  0  # atno 6907 bound_to 6896
  151.7419  133.3317  159.3376 H   0  0  0  0  0  0  0  0  0  0  0  0  # atno 6908 bound_to 6896
  150.7517  134.6203  159.6177 H   0  0  0  0  0  0  0  0  0  0  0  0  # atno 6909 bound_to 6896
  146.0154  140.6914  142.9204 H   0  0  0  0  0  0  0  0  0  0  0  0  # atno 7974 bound_to 7965
  155.8822  140.3443  155.5896 H   0  0  0  0  0  0  0  0  0  0  0  0  # atno 8008 bound_to 7997
  155.7706  140.0845  157.2129 H   0  0  0  0  0  0  0  0  0  0  0  0  # atno 8009 bound_to 7997
  154.4025  140.1519  156.2925 H   0  0  0  0  0  0  0  0  0  0  0  0  # atno 8010 bound_to 7997
  139.6647  143.9850  152.2247 H   0  0  0  0  0  0  0  0  0  0  0  0  # atno 10167 bound_to 10162
  157.2301  130.7020  149.6309 H   0  0  0  0  0  0  0  0  0  0  0  0  # atno 10718 bound_to 10713
  153.8315  135.6865  153.4814 H   0  0  0  0  0  0  0  0  0  0  0  0  # atno 10763 bound_to 10752
  153.1508  135.4619  154.9632 H   0  0  0  0  0  0  0  0  0  0  0  0  # atno 10764 bound_to 10752
  154.7885  135.3293  154.7778 H   0  0  0  0  0  0  0  0  0  0  0  0  # atno 10765 bound_to 10752
  140.7356  133.8712  155.8927 H   0  0  0  0  0  0  0  0  0  0  0  0  # atno 11005 bound_to 11000
  144.6969  140.3472  143.7188 LP  0  0  0  0  0  0  0  0  0  0  0  0  # atno 17320 bound_to 7965
  145.7277  139.1727  143.2448 LP  0  0  0  0  0  0  0  0  0  0  0  0  # atno 17321 bound_to 7965
  139.9598  144.6565  150.8090 LP  0  0  0  0  0  0  0  0  0  0  0  0  # atno 17342 bound_to 10162
  140.7594  143.3129  151.2802 LP  0  0  0  0  0  0  0  0  0  0  0  0  # atno 17343 bound_to 10162
  155.9676  130.4491  150.5647 LP  0  0  0  0  0  0  0  0  0  0  0  0  # atno 17370 bound_to 10713
  157.3486  131.0729  151.1731 LP  0  0  0  0  0  0  0  0  0  0  0  0  # atno 17371 bound_to 10713
  140.9882  134.1314  157.4432 LP  0  0  0  0  0  0  0  0  0  0  0  0  # atno 17394 bound_to 11000
  139.8817  135.0032  156.6173 LP  0  0  0  0  0  0  0  0  0  0  0  0  # atno 17395 bound_to 11000

$$$$
