AV-unprocessed.smi:265|AV-procd|sdf|2023|dock9
  -GOLD-   2262021223D 1   1.00000     0.00000
 Structure written by MMmdl.
 52 56  0  0  0  0  0  0  0  0  1 V2000
  152.3561  144.4008  157.2324 C   0  0  0  0  0  0  0  0  0  0  0  0
  152.3134  143.5604  158.5183 C   0  0  2  0  0  0  0  0  0  0  0  0
  153.6593  143.3499  158.9385 O   0  0  0  0  0  0  0  0  0  0  0  0
  153.7453  142.0982  159.5960 C   0  0  0  0  0  0  0  0  0  0  0  0
  152.8445  141.2197  158.7416 C   0  0  0  0  0  0  0  0  0  0  0  0
  151.6775  142.1450  158.4086 C   0  0  1  0  0  0  0  0  0  0  0  0
  150.7181  142.0234  159.4461 O   0  0  0  0  0  0  0  0  0  0  0  0
  150.9764  141.8064  157.0664 C   0  0  0  0  0  0  0  0  0  0  0  0
  150.5322  140.4231  156.9728 N   0  0  0  0  0  0  0  0  0  0  0  0
  149.5898  139.8085  157.7665 C   0  0  0  0  0  0  0  0  0  0  0  0
  149.3609  138.5538  157.4899 N   0  0  0  0  0  0  0  0  0  0  0  0
  150.1978  138.2850  156.4131 C   0  0  0  0  0  0  0  0  0  0  0  0
  150.4557  137.1288  155.6235 C   0  0  0  0  0  0  0  0  0  0  0  0
  149.8148  135.9491  155.8217 N   0  0  0  0  0  0  0  0  0  0  0  0
  150.6272  134.7883  156.1852 C   0  0  0  0  0  0  0  0  0  0  0  0
  149.7461  133.6653  156.7532 C   0  0  0  0  0  0  0  0  0  0  0  0
  148.5981  133.3025  155.7975 C   0  0  2  0  0  0  0  0  0  0  0  0
  149.1128  132.6831  154.6260 O   0  0  0  0  0  0  0  0  0  0  0  0
  148.1046  132.1512  153.7651 C   0  0  0  0  0  0  0  0  0  0  0  0
  146.9824  133.1668  153.4812 C   0  0  0  0  0  0  0  0  0  0  0  0
  146.2106  132.9807  152.5432 O   0  0  0  0  0  0  0  0  0  0  0  0
  146.8561  134.2178  154.3073 N   0  0  0  0  0  0  0  0  0  0  0  0
  147.8109  134.5566  155.3576 C   0  0  2  0  0  0  0  0  0  0  0  0
  148.7518  135.6723  154.8577 C   0  0  0  0  0  0  0  0  0  0  0  0
  151.3831  137.2419  154.6349 N   0  0  0  0  0  0  0  0  0  0  0  0
  152.0070  138.4044  154.4237 C   0  0  0  0  0  0  0  0  0  0  0  0
  151.8613  139.5597  155.0751 N   0  0  0  0  0  0  0  0  0  0  0  0
  150.9417  139.4514  156.0758 C   0  0  0  0  0  0  0  0  0  0  0  0
  147.9344  132.5987  156.3041 H   0  0  0  0  0  0  0  0  0  0  0  0
  147.2486  134.9341  156.2127 H   0  0  0  0  0  0  0  0  0  0  0  0
  151.3538  144.6189  156.8637 H   0  0  0  0  0  0  0  0  0  0  0  0
  152.9094  143.8946  156.4411 H   0  0  0  0  0  0  0  0  0  0  0  0
  152.8498  145.3555  157.4153 H   0  0  0  0  0  0  0  0  0  0  0  0
  151.8129  144.1436  159.2936 H   0  0  0  0  0  0  0  0  0  0  0  0
  154.7724  141.7353  159.6394 H   0  0  0  0  0  0  0  0  0  0  0  0
  153.3629  142.1862  160.6141 H   0  0  0  0  0  0  0  0  0  0  0  0
  153.3846  140.9548  157.8320 H   0  0  0  0  0  0  0  0  0  0  0  0
  152.5497  140.2929  159.2357 H   0  0  0  0  0  0  0  0  0  0  0  0
  151.1715  142.0412  160.2750 H   0  0  0  0  0  0  0  0  0  0  0  0
  150.1053  142.4472  156.9240 H   0  0  0  0  0  0  0  0  0  0  0  0
  151.6434  142.0007  156.2258 H   0  0  0  0  0  0  0  0  0  0  0  0
  149.0786  140.3226  158.5678 H   0  0  0  0  0  0  0  0  0  0  0  0
  151.1628  134.4320  155.3041 H   0  0  0  0  0  0  0  0  0  0  0  0
  151.3764  135.0696  156.9265 H   0  0  0  0  0  0  0  0  0  0  0  0
  150.3514  132.7839  156.9664 H   0  0  0  0  0  0  0  0  0  0  0  0
  149.3276  133.9896  157.7068 H   0  0  0  0  0  0  0  0  0  0  0  0
  148.5663  131.8386  152.8281 H   0  0  0  0  0  0  0  0  0  0  0  0
  147.6686  131.2625  154.2231 H   0  0  0  0  0  0  0  0  0  0  0  0
  146.0972  134.8637  154.1455 H   0  0  0  0  0  0  0  0  0  0  0  0
  148.1675  136.5669  154.6434 H   0  0  0  0  0  0  0  0  0  0  0  0
  149.2162  135.3751  153.9160 H   0  0  0  0  0  0  0  0  0  0  0  0
  152.7258  138.4098  153.6175 H   0  0  0  0  0  0  0  0  0  0  0  0
  1  2  1  0  0  0  0
  1 31  1  0  0  0  0
  1 32  1  0  0  0  0
  1 33  1  0  0  0  0
  2  6  1  0  0  0  0
  2  3  1  0  0  0  0
  2 34  1  0  0  0  0
  3  4  1  0  0  0  0
  4  5  1  0  0  0  0
  4 35  1  0  0  0  0
  4 36  1  0  0  0  0
  5  6  1  0  0  0  0
  5 37  1  0  0  0  0
  5 38  1  0  0  0  0
  6  7  1  0  0  0  0
  6  8  1  0  0  0  0
  7 39  1  0  0  0  0
  8  9  1  0  0  0  0
  8 40  1  0  0  0  0
  8 41  1  0  0  0  0
  9 28  1  0  0  0  0
  9 10  1  0  0  0  0
 10 11  2  0  0  0  0
 10 42  1  0  0  0  0
 11 12  1  0  0  0  0
 12 28  2  0  0  0  0
 12 13  1  0  0  0  0
 13 14  1  0  0  0  0
 13 25  2  0  0  0  0
 14 24  1  0  0  0  0
 14 15  1  0  0  0  0
 15 16  1  0  0  0  0
 15 43  1  0  0  0  0
 15 44  1  0  0  0  0
 16 17  1  0  0  0  0
 16 45  1  0  0  0  0
 16 46  1  0  0  0  0
 17 29  1  0  0  0  0
 17 23  1  0  0  0  0
 17 18  1  0  0  0  0
 18 19  1  0  0  0  0
 19 20  1  0  0  0  0
 19 47  1  0  0  0  0
 19 48  1  0  0  0  0
 20 21  2  0  0  0  0
 20 22  1  0  0  0  0
 22 23  1  0  0  0  0
 22 49  1  0  0  0  0
 23 30  1  0  0  0  0
 23 24  1  0  0  0  0
 24 50  1  0  0  0  0
 24 51  1  0  0  0  0
 25 26  1  0  0  0  0
 26 27  2  0  0  0  0
 26 52  1  0  0  0  0
 27 28  1  0  0  0  0
M  END
> <s_m_source_file>
AV-unprocessed.smi

> <i_m_source_file_index>
265

> <i_lp_mmshare_version>
43012

> <i_f3d_flags>
0

> <s_epik_input>
W0NIMl0xW0NIMl1PW0NAQEhdKFtDSDNdKVtDQEBdMShbT0hdKVtDSDJdbihbY0hdbjIpYyhjMjMpbltjSF1uYzNOKFtDSDJdW0NIMl00KVtDSDJdW0NAQEhdKFtDQEhdNDUpW05IXUMoPU8pW0NIMl1PNQ==

> <s_epik_cmdline>
J2VwaWtfcHl0aG9uJywgJy1waCcsICc3LjAnLCAnLXRuJywgJzgnLCAnLW1hJywgJzIwMCcsICctbWV0YWxfYmluZGluZycsICctaW1hZScsICc8aW5maWxlLm1hZT4nLCAnLW9tYWUnLCAnPG91dGZpbGUubWFlPic=

> <r_lp_tautomer_probability>
1

> <r_epik_Ionization_Penalty>
0.00221504

> <r_epik_Ionization_Penalty_Charging>
0

> <r_epik_Ionization_Penalty_Neutral>
0.00221504

> <r_epik_State_Penalty>
-0

> <r_epik_Charging_Adjusted_Penalty>
0

> <i_epik_Tot_Q>
0

> <i_epik_Tot_abs_Q>
0

> <r_epik_Metal_State_Penalty>
-0

> <b_epik_Metal_Only>
0

> <s_lp_Force_Field>
OPLS_2005

> <r_lp_Energy>
44.3548

> <b_lp_Chiralities_Consistent>
1

> <s_lp_Variant>
AV-unprocessed.smi:265-9

> <Gold.Version>
5.8.1

> <Gold.Id.Protein>
6NUR|6NUR_protein|mol2

> <Gold.PLP.Fitness>
44.9401

> <Gold.PLP.PLP>
-40.1804

> <Gold.PLP.part.hbond>
-3.0490

> <Gold.PLP.part.metal>
0.0000

> <Gold.PLP.part.buried>
-5.5007

> <Gold.PLP.part.nonpolar>
-32.8976

> <Gold.PLP.part.repulsive>
0.4361

> <Gold.PLP.ligand.clash>
0.0000

> <Gold.PLP.ligand.torsion>
0.2725

> <Gold.PLP.Chemscore.Hbond>
1.6520

> <Gold.PLP.Chemscore.CHOScore>
0.0000

> <Gold.PLP.Chemscore.Metal>
0.0000

> <Gold.Chemscore.Hbonds>
donor molecule, donor type, donor heavy atom, donor atom, acceptor molecule, acceptor atom, score
      P1  H  7989  7998       L1    27  0.93
      P1  H 10752 10764       L1    25  0.49

> <Gold.PLP.Chemscore.Internal.Correction>
0.3487

> <Gold.Rescore>
     Score         DG    S(hbond)    S(metal)    S(lipo)     H(rot)  DE(clash)    DE(int)     intcor
     13.21     -13.86       1.02        0.00      91.53       2.25       0.15       0.50       ----

> <Gold.Chemscore.Fitness>
13.2121

> <Gold.Chemscore.DG>
-13.8604

> <Gold.Chemscore.ZeroCoef>
-5.4800

> <Gold.Chemscore.Hbond>
1.0237

> <Gold.Chemscore.Metal>
0.0000

> <Gold.Chemscore.Lipo>
91.5301

> <Gold.Chemscore.Internal_Hbond>
0.0000

> <Gold.Chemscore.DEClash>
0.1463

> <Gold.Chemscore.DEInternal>
0.5019

> <Gold.Chemscore.Rot>
2.2453

> <Gold.Chemscore.Internal.Correction>
   9.000000E+99

> <Gold.Chemscore.Hbonds>
donor molecule, donor type, donor heavy atom, donor atom, acceptor molecule, acceptor atom, score
      P1  H  7989  7998       L1    27  0.25
      P1  H 10752 10764       L1    25  0.25

> <Gold.Chemscore.Hbond.Weighted>
-3.4193

> <Gold.Chemscore.Metal.Weighted>
-0.0000

> <Gold.Chemscore.Lipo.Weighted>
-10.7090

> <Gold.Chemscore.Internal_Hbond.Weighted>
0.0000

> <Gold.Chemscore.DEClash.Weighted>
0.1463

> <Gold.Chemscore.DEInternal.Weighted>
0.5019

> <Gold.Chemscore.Rot.Weighted>
5.7479

> <Gold.Chemscore.Internal.Correction.Weighted>
   9.000000E+99

> <Gold.Protein.RotatedTorsions>
[ 6907 6896 6895 6894 ] final  -49.42 input  -60.11 | X-H torsion
[ 7974 7965 7964 7962 ] final   59.47 input  175.53 | X-H torsion
[ 8008 7997 7996 7995 ] final  108.47 input   59.86 | X-H torsion
[ 10167 10162 10161 10158 ] final  -77.15 input  -65.29 | X-H torsion
[ 10718 10713 10712 10709 ] final  -60.23 input   66.30 | X-H torsion
[ 10763 10752 10751 10750 ] final  -69.85 input  -60.55 | X-H torsion
[ 11005 11000 10999 10996 ] final   96.47 input  -57.11 | X-H torsion

> <Gold.Protein.ActiveResidues>
 VAL166  LYS551  ARG553  GLY616  TRP617  ASP618  TYR619  PRO620  LYS621  CYS622 
 ASP623  PHE694  ASN695  SER759  ASP760  ASP761  ALA762  ILE779  LEU786  VAL792 
 PHE793  MET794  SER795  GLU796  ALA797  LYS798  CYS799  TRP800  GLU811  SER814 

> <Gold.Protein.RotatedAtoms>
  150.8807  134.8197  159.7222 H   0  0  0  0  0  0  0  0  0  0  0  0  # atno 6907 bound_to 6896
  152.4776  134.4801  159.9672 H   0  0  0  0  0  0  0  0  0  0  0  0  # atno 6908 bound_to 6896
  151.4876  133.3493  159.2883 H   0  0  0  0  0  0  0  0  0  0  0  0  # atno 6909 bound_to 6896
  145.9068  139.3623  143.0559 H   0  0  0  0  0  0  0  0  0  0  0  0  # atno 7974 bound_to 7965
  156.1905  140.3076  155.9323 H   0  0  0  0  0  0  0  0  0  0  0  0  # atno 8008 bound_to 7997
  155.3184  140.0454  157.3055 H   0  0  0  0  0  0  0  0  0  0  0  0  # atno 8009 bound_to 7997
  154.5447  140.2272  155.8593 H   0  0  0  0  0  0  0  0  0  0  0  0  # atno 8010 bound_to 7997
  140.4795  143.2406  151.8080 H   0  0  0  0  0  0  0  0  0  0  0  0  # atno 10167 bound_to 10162
  156.1005  130.4187  150.0825 H   0  0  0  0  0  0  0  0  0  0  0  0  # atno 10718 bound_to 10713
  154.4093  135.6012  153.5943 H   0  0  0  0  0  0  0  0  0  0  0  0  # atno 10763 bound_to 10752
  152.9790  135.5925  154.4089 H   0  0  0  0  0  0  0  0  0  0  0  0  # atno 10764 bound_to 10752
  154.3899  135.2842  155.2139 H   0  0  0  0  0  0  0  0  0  0  0  0  # atno 10765 bound_to 10752
  139.8781  134.8952  156.4163 H   0  0  0  0  0  0  0  0  0  0  0  0  # atno 11005 bound_to 11000
  145.8722  140.9413  143.0645 LP  0  0  0  0  0  0  0  0  0  0  0  0  # atno 17320 bound_to 7965
  144.6740  140.0670  143.7474 LP  0  0  0  0  0  0  0  0  0  0  0  0  # atno 17321 bound_to 7965
  139.4831  144.4791  151.9330 LP  0  0  0  0  0  0  0  0  0  0  0  0  # atno 17342 bound_to 10162
  140.3876  144.2657  150.5902 LP  0  0  0  0  0  0  0  0  0  0  0  0  # atno 17343 bound_to 10162
  156.8814  130.9557  151.3599 LP  0  0  0  0  0  0  0  0  0  0  0  0  # atno 17370 bound_to 10713
  157.6174  130.8629  149.9052 LP  0  0  0  0  0  0  0  0  0  0  0  0  # atno 17371 bound_to 10713
  140.9165  133.7675  155.9854 LP  0  0  0  0  0  0  0  0  0  0  0  0  # atno 17394 bound_to 11000
  140.8488  134.2979  157.5284 LP  0  0  0  0  0  0  0  0  0  0  0  0  # atno 17395 bound_to 11000

$$$$
