AV-unprocessed.smi:2172|AV-procd|sdf|8834|dock1
  -GOLD-   2272012 23D 1   1.00000     0.00000
 Structure written by MMmdl.
 36 38  0  0  0  0  0  0  0  0  1 V2000
  150.8937  140.5201  155.1840 O   0  0  0  0  0  0  0  0  0  0  0  0
  151.4123  139.9339  156.3582 C   0  0  0  0  0  0  0  0  0  0  0  0
  151.6813  140.9330  157.4428 C   0  0  0  0  0  0  0  0  0  0  0  0
  151.3149  142.2097  157.3221 N   0  0  0  0  0  0  0  0  0  0  0  0
  151.7221  142.7590  158.5214 C   0  0  0  0  0  0  0  0  0  0  0  0
  151.6161  144.0815  159.0084 C   0  0  0  0  0  0  0  0  0  0  0  0
  152.1048  144.4119  160.2895 C   0  0  0  0  0  0  0  0  0  0  0  0
  152.7031  143.4263  161.1009 C   0  0  0  0  0  0  0  0  0  0  0  0
  152.8197  142.1029  160.6342 C   0  0  0  0  0  0  0  0  0  0  0  0
  152.3345  141.7791  159.3525 C   0  0  0  0  0  0  0  0  0  0  0  0
  152.3003  140.6044  158.6067 N   0  0  0  0  0  0  0  0  0  0  0  0
  152.8178  139.3085  159.0316 C   0  0  0  0  0  0  0  0  0  0  0  0
  154.1461  139.4178  159.8085 C   0  0  2  0  0  0  0  0  0  0  0  0
  155.2394  139.3928  158.9119 O   0  0  0  0  0  0  0  0  0  0  0  0
  154.2484  138.3400  160.8766 C   0  0  0  0  0  0  0  0  0  0  0  0
  154.2034  136.9783  160.5079 C   0  0  0  0  0  0  0  0  0  0  0  0
  154.3051  135.9729  161.4891 C   0  0  0  0  0  0  0  0  0  0  0  0
  154.4549  136.3233  162.8449 C   0  0  0  0  0  0  0  0  0  0  0  0
  154.5785  135.0913  164.0465 Cl  0  0  0  0  0  0  0  0  0  0  0  0
  154.5057  137.6803  163.2183 C   0  0  0  0  0  0  0  0  0  0  0  0
  154.4048  138.6857  162.2371 C   0  0  0  0  0  0  0  0  0  0  0  0
  150.0994  140.0661  154.9483 H   0  0  0  0  0  0  0  0  0  0  0  0
  150.6952  139.1957  156.7189 H   0  0  0  0  0  0  0  0  0  0  0  0
  152.3259  139.3876  156.1250 H   0  0  0  0  0  0  0  0  0  0  0  0
  151.1566  144.8427  158.3955 H   0  0  0  0  0  0  0  0  0  0  0  0
  152.0182  145.4258  160.6516 H   0  0  0  0  0  0  0  0  0  0  0  0
  153.0728  143.6870  162.0819 H   0  0  0  0  0  0  0  0  0  0  0  0
  153.2765  141.3463  161.2544 H   0  0  0  0  0  0  0  0  0  0  0  0
  152.0602  138.8372  159.6589 H   0  0  0  0  0  0  0  0  0  0  0  0
  152.9429  138.6567  158.1682 H   0  0  0  0  0  0  0  0  0  0  0  0
  154.1867  140.3866  160.3072 H   0  0  0  0  0  0  0  0  0  0  0  0
  156.0377  139.4828  159.4094 H   0  0  0  0  0  0  0  0  0  0  0  0
  154.0917  136.6995  159.4704 H   0  0  0  0  0  0  0  0  0  0  0  0
  154.2687  134.9327  161.2000 H   0  0  0  0  0  0  0  0  0  0  0  0
  154.6227  137.9520  164.2570 H   0  0  0  0  0  0  0  0  0  0  0  0
  154.4497  139.7236  162.5335 H   0  0  0  0  0  0  0  0  0  0  0  0
  1  2  1  0  0  0  0
  1 22  1  0  0  0  0
  2  3  1  0  0  0  0
  2 23  1  0  0  0  0
  2 24  1  0  0  0  0
  3 11  1  0  0  0  0
  3  4  2  0  0  0  0
  4  5  1  0  0  0  0
  5 10  2  0  0  0  0
  5  6  1  0  0  0  0
  6  7  2  0  0  0  0
  6 25  1  0  0  0  0
  7  8  1  0  0  0  0
  7 26  1  0  0  0  0
  8  9  2  0  0  0  0
  8 27  1  0  0  0  0
  9 10  1  0  0  0  0
  9 28  1  0  0  0  0
 10 11  1  0  0  0  0
 11 12  1  0  0  0  0
 12 13  1  0  0  0  0
 12 29  1  0  0  0  0
 12 30  1  0  0  0  0
 13 14  1  0  0  0  0
 13 15  1  0  0  0  0
 13 31  1  0  0  0  0
 14 32  1  0  0  0  0
 15 21  1  0  0  0  0
 15 16  2  0  0  0  0
 16 17  1  0  0  0  0
 16 33  1  0  0  0  0
 17 18  2  0  0  0  0
 17 34  1  0  0  0  0
 18 19  1  0  0  0  0
 18 20  1  0  0  0  0
 20 21  2  0  0  0  0
 20 35  1  0  0  0  0
 21 36  1  0  0  0  0
M  END
> <s_m_source_file>
AV-unprocessed.smi

> <i_m_source_file_index>
2172

> <i_lp_mmshare_version>
43012

> <i_f3d_flags>
0

> <s_epik_input>
W2NIXTFbY0hdW2NIXVtjSF1jKGMxMiluKGMobjIpW0NIMl1bT0hdKVtDSDJdW0NASF0oW09IXSljM1tjSF1bY0hdYyhDbClbY0hdW2NIXTM=

> <s_epik_cmdline>
J2VwaWtfcHl0aG9uJywgJy1waCcsICc3LjAnLCAnLXRuJywgJzgnLCAnLW1hJywgJzIwMCcsICctbWV0YWxfYmluZGluZycsICctaW1hZScsICc8aW5maWxlLm1hZT4nLCAnLW9tYWUnLCAnPG91dGZpbGUubWFlPic=

> <r_epik_Ionization_Penalty>
0.0634726

> <r_epik_Ionization_Penalty_Charging>
0

> <r_epik_Ionization_Penalty_Neutral>
0.0634726

> <r_epik_State_Penalty>
0.0551572

> <r_epik_Charging_Adjusted_Penalty>
0.0551572

> <i_epik_Tot_Q>
0

> <i_epik_Tot_abs_Q>
0

> <r_epik_Metal_State_Penalty>
5.78034e-05

> <b_epik_Metal_Only>
0

> <s_lp_Force_Field>
OPLS_2005

> <r_lp_Energy>
12.889

> <b_lp_Chiralities_Consistent>
1

> <s_lp_Variant>
AV-unprocessed.smi:2172-1

> <Gold.Version>
5.8.1

> <Gold.Id.Protein>
6NUR|6NUR_protein|mol2

> <Gold.PLP.Fitness>
48.4013

> <Gold.PLP.PLP>
-43.8680

> <Gold.PLP.part.hbond>
-2.0000

> <Gold.PLP.part.metal>
0.0000

> <Gold.PLP.part.buried>
-5.1664

> <Gold.PLP.part.nonpolar>
-36.7386

> <Gold.PLP.part.repulsive>
0.0595

> <Gold.PLP.ligand.clash>
0.0000

> <Gold.PLP.ligand.torsion>
0.7596

> <Gold.PLP.Chemscore.Hbond>
1.9920

> <Gold.PLP.Chemscore.CHOScore>
0.0000

> <Gold.PLP.Chemscore.Metal>
0.0000

> <Gold.Chemscore.Hbonds>
donor molecule, donor type, donor heavy atom, donor atom, acceptor molecule, acceptor atom, score
      P1  H  7989  7998       L1     1  0.99
      P1  H  7997  8008       L1    14  1.00

> <Gold.PLP.Chemscore.Internal.Correction>
0.0766

> <Gold.Rescore>
     Score         DG    S(hbond)    S(metal)    S(lipo)     H(rot)  DE(clash)    DE(int)     intcor
     18.65     -20.18       1.87        0.00     129.57       2.62       0.01       1.51       ----

> <Gold.Chemscore.Fitness>
18.6480

> <Gold.Chemscore.DG>
-20.1762

> <Gold.Chemscore.ZeroCoef>
-5.4800

> <Gold.Chemscore.Hbond>
1.8718

> <Gold.Chemscore.Metal>
0.0000

> <Gold.Chemscore.Lipo>
129.5725

> <Gold.Chemscore.Internal_Hbond>
0.0000

> <Gold.Chemscore.DEClash>
0.0149

> <Gold.Chemscore.DEInternal>
1.5134

> <Gold.Chemscore.Rot>
2.6232

> <Gold.Chemscore.Internal.Correction>
   9.000000E+99

> <Gold.Chemscore.Hbonds>
donor molecule, donor type, donor heavy atom, donor atom, acceptor molecule, acceptor atom, score
      P1  H  7989  7998       L1     1  0.32
      P1  H  7997  8008       L1    14  0.54

> <Gold.Chemscore.Hbond.Weighted>
-6.2517

> <Gold.Chemscore.Metal.Weighted>
-0.0000

> <Gold.Chemscore.Lipo.Weighted>
-15.1600

> <Gold.Chemscore.Internal_Hbond.Weighted>
0.0000

> <Gold.Chemscore.DEClash.Weighted>
0.0149

> <Gold.Chemscore.DEInternal.Weighted>
1.5134

> <Gold.Chemscore.Rot.Weighted>
6.7154

> <Gold.Chemscore.Internal.Correction.Weighted>
   9.000000E+99

> <Gold.Protein.RotatedTorsions>
[ 6907 6896 6895 6894 ] final   -6.35 input  -60.11 | X-H torsion
[ 7974 7965 7964 7962 ] final   50.34 input  175.53 | X-H torsion
[ 8008 7997 7996 7995 ] final -148.94 input   59.86 | X-H torsion
[ 10167 10162 10161 10158 ] final  -58.08 input  -65.29 | X-H torsion
[ 10718 10713 10712 10709 ] final  120.82 input   66.30 | X-H torsion
[ 10763 10752 10751 10750 ] final  -99.17 input  -60.55 | X-H torsion
[ 11005 11000 10999 10996 ] final   69.80 input  -57.11 | X-H torsion

> <Gold.Protein.ActiveResidues>
 VAL166  LYS551  ARG553  GLY616  TRP617  ASP618  TYR619  PRO620  LYS621  CYS622 
 ASP623  PHE694  ASN695  SER759  ASP760  ASP761  ALA762  ILE779  LEU786  VAL792 
 PHE793  MET794  SER795  GLU796  ALA797  LYS798  CYS799  TRP800  GLU811  SER814 

> <Gold.Protein.RotatedAtoms>
  151.4670  135.1043  159.9740 H   0  0  0  0  0  0  0  0  0  0  0  0  # atno 6907 bound_to 6896
  152.4831  133.8300  159.7108 H   0  0  0  0  0  0  0  0  0  0  0  0  # atno 6908 bound_to 6896
  150.8918  133.7172  159.2929 H   0  0  0  0  0  0  0  0  0  0  0  0  # atno 6909 bound_to 6896
  146.0021  139.4451  143.0008 H   0  0  0  0  0  0  0  0  0  0  0  0  # atno 7974 bound_to 7965
  155.5997  140.0661  157.2736 H   0  0  0  0  0  0  0  0  0  0  0  0  # atno 8008 bound_to 7997
  154.4282  140.1820  156.1207 H   0  0  0  0  0  0  0  0  0  0  0  0  # atno 8009 bound_to 7997
  156.0169  140.3321  155.7001 H   0  0  0  0  0  0  0  0  0  0  0  0  # atno 8010 bound_to 7997
  140.6219  143.2423  151.5459 H   0  0  0  0  0  0  0  0  0  0  0  0  # atno 10167 bound_to 10162
  157.5863  131.1069  150.8088 H   0  0  0  0  0  0  0  0  0  0  0  0  # atno 10718 bound_to 10713
  154.7475  135.4982  153.9230 H   0  0  0  0  0  0  0  0  0  0  0  0  # atno 10763 bound_to 10752
  153.1108  135.6708  153.9512 H   0  0  0  0  0  0  0  0  0  0  0  0  # atno 10764 bound_to 10752
  153.9272  135.3082  155.3425 H   0  0  0  0  0  0  0  0  0  0  0  0  # atno 10765 bound_to 10752
  139.9633  134.7023  156.0599 H   0  0  0  0  0  0  0  0  0  0  0  0  # atno 11005 bound_to 11000
  145.7471  140.9986  143.1270 LP  0  0  0  0  0  0  0  0  0  0  0  0  # atno 17320 bound_to 7965
  144.6923  139.9169  143.7466 LP  0  0  0  0  0  0  0  0  0  0  0  0  # atno 17321 bound_to 7965
  139.5446  144.2555  152.1418 LP  0  0  0  0  0  0  0  0  0  0  0  0  # atno 17342 bound_to 10162
  140.1777  144.4874  150.6545 LP  0  0  0  0  0  0  0  0  0  0  0  0  # atno 17343 bound_to 10162
  156.8521  130.5084  149.5311 LP  0  0  0  0  0  0  0  0  0  0  0  0  # atno 17370 bound_to 10713
  156.0912  130.5897  150.9736 LP  0  0  0  0  0  0  0  0  0  0  0  0  # atno 17371 bound_to 10713
  141.1312  133.6586  156.3469 LP  0  0  0  0  0  0  0  0  0  0  0  0  # atno 17394 bound_to 11000
  140.5451  134.6082  157.5391 LP  0  0  0  0  0  0  0  0  0  0  0  0  # atno 17395 bound_to 11000

$$$$
