AV-unprocessed.smi:2973|AV-procd|sdf|11352|dock5
  -GOLD-   2272016273D 1   1.00000     0.00000
 Structure written by MMmdl.
 49 51  0  0  0  0  0  0  0  0  3 V2000
  148.7720  137.0702  159.3883 C   0  0  0  0  0  0  0  0  0  0  0  0
  148.1520  135.7617  158.8502 C   0  0  1  0  0  0  0  0  0  0  0  0
  146.6132  135.8139  158.9846 C   0  0  0  0  0  0  0  0  0  0  0  0
  145.9522  134.5030  158.5344 C   0  0  0  0  0  0  0  0  0  0  0  0
  146.3443  134.1492  157.0945 C   0  0  0  0  0  0  0  0  0  0  0  0
  147.8736  134.0791  156.9416 C   0  0  0  0  0  0  0  0  0  0  0  0
  148.6014  135.3712  157.4018 C   0  0  2  0  0  0  0  0  0  0  0  0
  150.0337  135.1290  157.3646 N   0  5  0  0  0  0  0  0  0  0  0  0
  150.6013  135.9622  156.4623 C   0  0  0  0  0  0  0  0  0  0  0  0
  151.7933  136.0187  156.1609 O   0  0  0  0  0  0  0  0  0  0  0  0
  149.6794  136.7637  155.8971 N   0  0  0  0  0  0  0  0  0  0  0  0
  149.9630  137.7707  154.8662 C   0  0  0  0  0  0  0  0  0  0  0  0
  150.9162  138.8716  155.3509 C   0  0  0  0  0  0  0  0  0  0  0  0
  151.8891  139.2111  154.6756 O   0  0  0  0  0  0  0  0  0  0  0  0
  150.6109  139.4361  156.5288 N   0  0  0  0  0  0  0  0  0  0  0  0
  151.3841  140.4887  157.1761 C   0  0  0  0  0  0  0  0  0  0  0  0
  150.8755  141.8863  156.7838 C   0  0  0  0  0  0  0  0  0  0  0  0
  151.2811  142.9472  157.7880 C   0  0  0  0  0  0  0  0  0  0  0  0
  152.1767  142.6765  158.8454 C   0  0  0  0  0  0  0  0  0  0  0  0
  152.5180  143.7111  159.7416 C   0  0  0  0  0  0  0  0  0  0  0  0
  151.9586  144.9932  159.5606 C   0  0  0  0  0  0  0  0  0  0  0  0
  151.0713  145.2086  158.4864 C   0  0  0  0  0  0  0  0  0  0  0  0
  150.7688  144.1916  157.6495 N   0  3  0  0  0  0  0  0  0  0  0  0
  148.4599  136.4944  156.3759 C   0  0  0  0  0  0  0  0  0  0  0  0
  147.4013  137.0400  156.0611 O   0  0  0  0  0  0  0  0  0  0  0  0
  148.4413  137.9401  158.8206 H   0  0  0  0  0  0  0  0  0  0  0  0
  149.8611  137.0439  159.3543 H   0  0  0  0  0  0  0  0  0  0  0  0
  148.4886  137.2343  160.4281 H   0  0  0  0  0  0  0  0  0  0  0  0
  148.4950  134.9662  159.5146 H   0  0  0  0  0  0  0  0  0  0  0  0
  146.3405  136.0114  160.0217 H   0  0  0  0  0  0  0  0  0  0  0  0
  146.2096  136.6442  158.4049 H   0  0  0  0  0  0  0  0  0  0  0  0
  146.2508  133.6951  159.2036 H   0  0  0  0  0  0  0  0  0  0  0  0
  144.8680  134.5868  158.6141 H   0  0  0  0  0  0  0  0  0  0  0  0
  145.9041  133.1910  156.8180 H   0  0  0  0  0  0  0  0  0  0  0  0
  145.9267  134.8838  156.4062 H   0  0  0  0  0  0  0  0  0  0  0  0
  148.2399  133.2309  157.5226 H   0  0  0  0  0  0  0  0  0  0  0  0
  148.1183  133.8528  155.9022 H   0  0  0  0  0  0  0  0  0  0  0  0
  150.4008  137.3009  153.9841 H   0  0  0  0  0  0  0  0  0  0  0  0
  149.0271  138.2186  154.5273 H   0  0  0  0  0  0  0  0  0  0  0  0
  149.7904  139.1028  157.0141 H   0  0  0  0  0  0  0  0  0  0  0  0
  151.3532  140.3600  158.2594 H   0  0  0  0  0  0  0  0  0  0  0  0
  152.4264  140.3721  156.8784 H   0  0  0  0  0  0  0  0  0  0  0  0
  151.2605  142.1629  155.8013 H   0  0  0  0  0  0  0  0  0  0  0  0
  149.7881  141.8828  156.6958 H   0  0  0  0  0  0  0  0  0  0  0  0
  152.5983  141.6891  158.9687 H   0  0  0  0  0  0  0  0  0  0  0  0
  153.2013  143.5236  160.5571 H   0  0  0  0  0  0  0  0  0  0  0  0
  152.2066  145.7992  160.2357 H   0  0  0  0  0  0  0  0  0  0  0  0
  150.5974  146.1556  158.2729 H   0  0  0  0  0  0  0  0  0  0  0  0
  150.1243  144.3709  156.8792 H   0  0  0  0  0  0  0  0  0  0  0  0
  1  2  1  0  0  0  0
  1 26  1  0  0  0  0
  1 27  1  0  0  0  0
  1 28  1  0  0  0  0
  2  7  1  0  0  0  0
  2  3  1  0  0  0  0
  2 29  1  0  0  0  0
  3  4  1  0  0  0  0
  3 30  1  0  0  0  0
  3 31  1  0  0  0  0
  4  5  1  0  0  0  0
  4 32  1  0  0  0  0
  4 33  1  0  0  0  0
  5  6  1  0  0  0  0
  5 34  1  0  0  0  0
  5 35  1  0  0  0  0
  6  7  1  0  0  0  0
  6 36  1  0  0  0  0
  6 37  1  0  0  0  0
  7 24  1  0  0  0  0
  7  8  1  0  0  0  0
  8  9  1  0  0  0  0
  9 10  2  0  0  0  0
  9 11  1  0  0  0  0
 11 12  1  0  0  0  0
 11 24  1  0  0  0  0
 12 13  1  0  0  0  0
 12 38  1  0  0  0  0
 12 39  1  0  0  0  0
 13 14  2  0  0  0  0
 13 15  1  0  0  0  0
 15 16  1  0  0  0  0
 15 40  1  0  0  0  0
 16 17  1  0  0  0  0
 16 41  1  0  0  0  0
 16 42  1  0  0  0  0
 17 18  1  0  0  0  0
 17 43  1  0  0  0  0
 17 44  1  0  0  0  0
 18 23  1  0  0  0  0
 18 19  2  0  0  0  0
 19 20  1  0  0  0  0
 19 45  1  0  0  0  0
 20 21  2  0  0  0  0
 20 46  1  0  0  0  0
 21 22  1  0  0  0  0
 21 47  1  0  0  0  0
 22 23  2  0  0  0  0
 22 48  1  0  0  0  0
 23 49  1  0  0  0  0
 24 25  2  0  0  0  0
M  CHG  1   8  -1
M  CHG  1  23   1
M  END
> <s_m_source_file>
AV-unprocessed.smi

> <i_m_source_file_index>
2973

> <i_lp_mmshare_version>
43012

> <i_f3d_flags>
0

> <s_epik_input>
W0NIMl0xW0NIMl1bQ0gyXVtDSDJdW0NAQEhdKFtDSDNdKVtDQF0xMltOSF1DKD1PKU4oQzI9TylbQ0gyXUMoPU8pW05IXVtDSDJdW0NIMl1jM1tjSF1bY0hdW2NIXVtjSF1uMw==

> <s_epik_cmdline>
J2VwaWtfcHl0aG9uJywgJy1waCcsICc3LjAnLCAnLXRuJywgJzgnLCAnLW1hJywgJzIwMCcsICctbWV0YWxfYmluZGluZycsICctaW1hZScsICc8aW5maWxlLm1hZT4nLCAnLW9tYWUnLCAnPG91dGZpbGUubWFlPic=

> <r_lp_tautomer_probability>
1

> <r_epik_Ionization_Penalty>
7.89073

> <r_epik_Ionization_Penalty_Charging>
7.89073

> <r_epik_Ionization_Penalty_Neutral>
1.56557e-07

> <r_epik_State_Penalty>
8.01193

> <r_epik_Charging_Adjusted_Penalty>
15.9027

> <i_epik_Tot_Q>
0

> <i_epik_Tot_abs_Q>
2

> <r_epik_Metal_State_Penalty>
3.98737

> <b_epik_Metal_Only>
1

> <s_lp_Force_Field>
OPLS_2005

> <r_lp_Energy>
17.432

> <b_lp_Chiralities_Consistent>
1

> <s_lp_Variant>
AV-unprocessed.smi:2973-16

> <Gold.Version>
5.8.1

> <Gold.Id.Protein>
6NUR|6NUR_protein|mol2

> <Gold.PLP.Fitness>
49.3302

> <Gold.PLP.PLP>
-34.6277

> <Gold.PLP.part.hbond>
-4.0000

> <Gold.PLP.part.metal>
0.0000

> <Gold.PLP.part.buried>
-5.7606

> <Gold.PLP.part.nonpolar>
-26.3491

> <Gold.PLP.part.repulsive>
0.1373

> <Gold.PLP.ligand.clash>
0.0000

> <Gold.PLP.ligand.torsion>
0.4696

> <Gold.PLP.Chemscore.Hbond>
5.2065

> <Gold.PLP.Chemscore.CHOScore>
0.0000

> <Gold.PLP.Chemscore.Metal>
0.0000

> <Gold.Chemscore.Hbonds>
donor molecule, donor type, donor heavy atom, donor atom, acceptor molecule, acceptor atom, score
      L1  H    23    49       P1  8028  2.00
      P1  H  6896  6909       L1     8  0.44
      P1  H  7989  7998       L1    14  0.97
      P1  H 10752 10764       L1    10  1.00

> <Gold.PLP.Chemscore.Internal.Correction>
0.0223

> <Gold.Rescore>
     Score         DG    S(hbond)    S(metal)    S(lipo)     H(rot)  DE(clash)    DE(int)     intcor
     20.90     -21.39       3.00        0.00      92.36       1.92       0.02       0.48       ----

> <Gold.Chemscore.Fitness>
20.8962

> <Gold.Chemscore.DG>
-21.3904

> <Gold.Chemscore.ZeroCoef>
-5.4800

> <Gold.Chemscore.Hbond>
2.9977

> <Gold.Chemscore.Metal>
0.0000

> <Gold.Chemscore.Lipo>
92.3647

> <Gold.Chemscore.Internal_Hbond>
0.0000

> <Gold.Chemscore.DEClash>
0.0153

> <Gold.Chemscore.DEInternal>
0.4790

> <Gold.Chemscore.Rot>
1.9175

> <Gold.Chemscore.Internal.Correction>
   9.000000E+99

> <Gold.Chemscore.Hbonds>
donor molecule, donor type, donor heavy atom, donor atom, acceptor molecule, acceptor atom, score
      L1  H    23    49       P1  8028  0.85
      P1  H  6896  6909       L1     8  0.16
      P1  H  7989  7998       L1    14  0.81
      P1  H 10752 10764       L1    10  1.00

> <Gold.Chemscore.Hbond.Weighted>
-10.0125

> <Gold.Chemscore.Metal.Weighted>
-0.0000

> <Gold.Chemscore.Lipo.Weighted>
-10.8067

> <Gold.Chemscore.Internal_Hbond.Weighted>
0.0000

> <Gold.Chemscore.DEClash.Weighted>
0.0153

> <Gold.Chemscore.DEInternal.Weighted>
0.4790

> <Gold.Chemscore.Rot.Weighted>
4.9087

> <Gold.Chemscore.Internal.Correction.Weighted>
   9.000000E+99

> <Gold.Protein.RotatedTorsions>
[ 6907 6896 6895 6894 ] final   21.84 input  -60.11 | X-H torsion
[ 7974 7965 7964 7962 ] final  102.61 input  175.53 | X-H torsion
[ 8008 7997 7996 7995 ] final   84.24 input   59.86 | X-H torsion
[ 10167 10162 10161 10158 ] final  -35.53 input  -65.29 | X-H torsion
[ 10718 10713 10712 10709 ] final  -28.73 input   66.30 | X-H torsion
[ 10763 10752 10751 10750 ] final  -32.07 input  -60.55 | X-H torsion
[ 11005 11000 10999 10996 ] final  126.71 input  -57.11 | X-H torsion

> <Gold.Protein.ActiveResidues>
 VAL166  LYS551  ARG553  GLY616  TRP617  ASP618  TYR619  PRO620  LYS621  CYS622 
 ASP623  PHE694  ASN695  SER759  ASP760  ASP761  ALA762  ILE779  LEU786  VAL792 
 PHE793  MET794  SER795  GLU796  ALA797  LYS798  CYS799  TRP800  GLU811  SER814 

> <Gold.Protein.RotatedAtoms>
  151.9179  135.0311  160.0519 H   0  0  0  0  0  0  0  0  0  0  0  0  # atno 6907 bound_to 6896
  152.2224  133.4989  159.5178 H   0  0  0  0  0  0  0  0  0  0  0  0  # atno 6908 bound_to 6896
  150.7003  134.1241  159.4088 H   0  0  0  0  0  0  0  0  0  0  0  0  # atno 6909 bound_to 6896
  145.3569  139.2426  143.3528 H   0  0  0  0  0  0  0  0  0  0  0  0  # atno 7974 bound_to 7965
  155.9345  140.3412  155.6276 H   0  0  0  0  0  0  0  0  0  0  0  0  # atno 8008 bound_to 7997
  155.7116  140.0772  157.2387 H   0  0  0  0  0  0  0  0  0  0  0  0  # atno 8009 bound_to 7997
  154.4091  140.1621  156.2290 H   0  0  0  0  0  0  0  0  0  0  0  0  # atno 8010 bound_to 7997
  140.7163  143.3471  151.2234 H   0  0  0  0  0  0  0  0  0  0  0  0  # atno 10167 bound_to 10162
  156.4215  130.4427  149.7180 H   0  0  0  0  0  0  0  0  0  0  0  0  # atno 10718 bound_to 10713
  153.8078  135.6885  153.4845 H   0  0  0  0  0  0  0  0  0  0  0  0  # atno 10763 bound_to 10752
  153.1648  135.4566  154.9820 H   0  0  0  0  0  0  0  0  0  0  0  0  # atno 10764 bound_to 10752
  154.7980  135.3326  154.7561 H   0  0  0  0  0  0  0  0  0  0  0  0  # atno 10765 bound_to 10752
  139.9470  134.9628  156.8747 H   0  0  0  0  0  0  0  0  0  0  0  0  # atno 11005 bound_to 11000
  146.2944  140.4195  142.8727 LP  0  0  0  0  0  0  0  0  0  0  0  0  # atno 17320 bound_to 7965
  144.8676  140.7227  143.6067 LP  0  0  0  0  0  0  0  0  0  0  0  0  # atno 17321 bound_to 7965
  139.6993  143.9560  152.2897 LP  0  0  0  0  0  0  0  0  0  0  0  0  # atno 17342 bound_to 10162
  139.9248  144.6777  150.8424 LP  0  0  0  0  0  0  0  0  0  0  0  0  # atno 17343 bound_to 10162
  156.4119  130.7726  151.2739 LP  0  0  0  0  0  0  0  0  0  0  0  0  # atno 17370 bound_to 10713
  157.7508  131.0209  150.3727 LP  0  0  0  0  0  0  0  0  0  0  0  0  # atno 17371 bound_to 10713
  140.5811  134.0351  155.7464 LP  0  0  0  0  0  0  0  0  0  0  0  0  # atno 17394 bound_to 11000
  141.1123  133.9597  157.2888 LP  0  0  0  0  0  0  0  0  0  0  0  0  # atno 17395 bound_to 11000

$$$$
