AV-unprocessed.smi:212|AV-procd|sdf|1631|dock10
  -GOLD-   2262019583D 1   1.00000     0.00000
 Structure written by MMmdl.
 65 68  0  0  0  0  0  0  0  0  2 V2000
  144.2736  138.1622  154.9175 C   0  0  0  0  0  0  0  0  0  0  0  0
  145.6748  138.2666  154.2915 C   0  0  2  0  0  0  0  0  0  0  0  0
  145.8191  137.3817  153.0358 C   0  0  0  0  0  0  0  0  0  0  0  0
  145.8838  135.9385  153.3881 N   0  3  1  0  0  0  0  0  0  0  0  0
  145.8920  135.0427  152.2016 C   0  0  0  0  0  0  0  0  0  0  0  0
  145.3512  133.6292  152.5217 C   0  0  0  0  0  0  0  0  0  0  0  0
  145.1565  132.8296  151.2224 C   0  0  0  0  0  0  0  0  0  0  0  0
  146.2693  132.8588  153.4885 C   0  0  0  0  0  0  0  0  0  0  0  0
  144.0750  133.7445  153.1190 O   0  0  0  0  0  0  0  0  0  0  0  0
  146.9750  135.6469  154.3513 C   0  0  0  0  0  0  0  0  0  0  0  0
  146.8502  136.5262  155.6092 C   0  0  0  0  0  0  0  0  0  0  0  0
  146.7260  137.9426  155.2596 N   0  0  0  0  0  0  0  0  0  0  0  0
  147.8526  138.7005  155.1909 C   0  0  0  0  0  0  0  0  0  0  0  0
  148.0550  139.5215  154.1259 N   0  0  0  0  0  0  0  0  0  0  0  0
  149.1527  140.2803  154.0552 C   0  0  0  0  0  0  0  0  0  0  0  0
  150.1612  140.3711  154.9234 N   0  0  0  0  0  0  0  0  0  0  0  0
  149.9698  139.5439  155.9903 C   0  0  0  0  0  0  0  0  0  0  0  0
  148.8562  138.6824  156.2009 C   0  0  0  0  0  0  0  0  0  0  0  0
  149.0180  137.9838  157.3921 N   0  0  0  0  0  0  0  0  0  0  0  0
  150.1588  138.4111  157.8608 C   0  0  0  0  0  0  0  0  0  0  0  0
  150.7983  139.3474  157.0808 N   0  0  0  0  0  0  0  0  0  0  0  0
  152.0735  139.9825  157.3604 C   0  0  0  0  0  0  0  0  0  0  0  0
  152.1047  140.7530  158.7097 C   0  0  1  0  0  0  0  0  0  0  0  0
  153.1010  140.1622  159.7378 C   0  0  0  0  0  0  0  0  0  0  0  0
  154.3797  139.9480  159.1762 O   0  0  0  0  0  0  0  0  0  0  0  0
  152.3562  142.2754  158.5417 C   0  0  1  0  0  0  0  0  0  0  0  0
  151.3462  143.0523  157.6991 C   0  0  0  0  0  0  0  0  0  0  0  0
  151.2805  144.4279  158.3721 C   0  0  0  0  0  0  0  0  0  0  0  0
  152.3252  144.4282  159.3360 O   0  0  0  0  0  0  0  0  0  0  0  0
  152.4458  143.1034  159.8248 C   0  0  0  0  0  0  0  0  0  0  0  0
  143.5065  138.4670  154.2054 H   0  0  0  0  0  0  0  0  0  0  0  0
  144.1883  138.8130  155.7883 H   0  0  0  0  0  0  0  0  0  0  0  0
  144.0396  137.1464  155.2361 H   0  0  0  0  0  0  0  0  0  0  0  0
  145.7851  139.2979  153.9581 H   0  0  0  0  0  0  0  0  0  0  0  0
  144.9917  137.5709  152.3520 H   0  0  0  0  0  0  0  0  0  0  0  0
  146.7310  137.6544  152.5018 H   0  0  0  0  0  0  0  0  0  0  0  0
  145.3289  135.4963  151.3839 H   0  0  0  0  0  0  0  0  0  0  0  0
  146.9118  134.9398  151.8266 H   0  0  0  0  0  0  0  0  0  0  0  0
  146.1028  132.6916  150.6981 H   0  0  0  0  0  0  0  0  0  0  0  0
  144.4746  133.3380  150.5395 H   0  0  0  0  0  0  0  0  0  0  0  0
  144.7446  131.8391  151.4205 H   0  0  0  0  0  0  0  0  0  0  0  0
  147.2730  132.7529  153.0761 H   0  0  0  0  0  0  0  0  0  0  0  0
  145.8877  131.8558  153.6832 H   0  0  0  0  0  0  0  0  0  0  0  0
  146.3600  133.3622  154.4517 H   0  0  0  0  0  0  0  0  0  0  0  0
  143.8686  132.9286  153.5499 H   0  0  0  0  0  0  0  0  0  0  0  0
  146.9405  134.5961  154.6413 H   0  0  0  0  0  0  0  0  0  0  0  0
  147.9374  135.8112  153.8648 H   0  0  0  0  0  0  0  0  0  0  0  0
  145.9651  136.2333  156.1740 H   0  0  0  0  0  0  0  0  0  0  0  0
  147.6947  136.3592  156.2791 H   0  0  0  0  0  0  0  0  0  0  0  0
  149.2346  140.9045  153.1774 H   0  0  0  0  0  0  0  0  0  0  0  0
  150.5727  138.0485  158.7906 H   0  0  0  0  0  0  0  0  0  0  0  0
  152.8452  139.2141  157.3325 H   0  0  0  0  0  0  0  0  0  0  0  0
  152.2818  140.6539  156.5287 H   0  0  0  0  0  0  0  0  0  0  0  0
  151.1086  140.6683  159.1477 H   0  0  0  0  0  0  0  0  0  0  0  0
  153.1873  140.8082  160.6120 H   0  0  0  0  0  0  0  0  0  0  0  0
  152.7520  139.1935  160.0966 H   0  0  0  0  0  0  0  0  0  0  0  0
  154.6839  139.0928  159.4396 H   0  0  0  0  0  0  0  0  0  0  0  0
  153.3247  142.3927  158.0520 H   0  0  0  0  0  0  0  0  0  0  0  0
  151.6853  143.1280  156.6654 H   0  0  0  0  0  0  0  0  0  0  0  0
  150.3578  142.5951  157.6840 H   0  0  0  0  0  0  0  0  0  0  0  0
  151.4016  145.2472  157.6632 H   0  0  0  0  0  0  0  0  0  0  0  0
  150.3246  144.5577  158.8814 H   0  0  0  0  0  0  0  0  0  0  0  0
  151.6232  142.9102  160.5128 H   0  0  0  0  0  0  0  0  0  0  0  0
  153.3854  142.9555  160.3574 H   0  0  0  0  0  0  0  0  0  0  0  0
  145.0255  135.7320  153.8787 H   0  0  0  0  0  0  0  0  0  0  0  0
  1  2  1  0  0  0  0
  1 31  1  0  0  0  0
  1 32  1  0  0  0  0
  1 33  1  0  0  0  0
  2 12  1  0  0  0  0
  2  3  1  0  0  0  0
  2 34  1  0  0  0  0
  3  4  1  0  0  0  0
  3 35  1  0  0  0  0
  3 36  1  0  0  0  0
  4  5  1  0  0  0  0
  4 10  1  0  0  0  0
  4 65  1  0  0  0  0
  5  6  1  0  0  0  0
  5 37  1  0  0  0  0
  5 38  1  0  0  0  0
  6  7  1  0  0  0  0
  6  8  1  0  0  0  0
  6  9  1  0  0  0  0
  7 39  1  0  0  0  0
  7 40  1  0  0  0  0
  7 41  1  0  0  0  0
  8 42  1  0  0  0  0
  8 43  1  0  0  0  0
  8 44  1  0  0  0  0
  9 45  1  0  0  0  0
 10 11  1  0  0  0  0
 10 46  1  0  0  0  0
 10 47  1  0  0  0  0
 11 12  1  0  0  0  0
 11 48  1  0  0  0  0
 11 49  1  0  0  0  0
 12 13  1  0  0  0  0
 13 18  1  0  0  0  0
 13 14  2  0  0  0  0
 14 15  1  0  0  0  0
 15 16  2  0  0  0  0
 15 50  1  0  0  0  0
 16 17  1  0  0  0  0
 17 21  1  0  0  0  0
 17 18  2  0  0  0  0
 18 19  1  0  0  0  0
 19 20  2  0  0  0  0
 20 21  1  0  0  0  0
 20 51  1  0  0  0  0
 21 22  1  0  0  0  0
 22 23  1  0  0  0  0
 22 52  1  0  0  0  0
 22 53  1  0  0  0  0
 23 24  1  0  0  0  0
 23 26  1  0  0  0  0
 23 54  1  0  0  0  0
 24 25  1  0  0  0  0
 24 55  1  0  0  0  0
 24 56  1  0  0  0  0
 25 57  1  0  0  0  0
 26 30  1  0  0  0  0
 26 27  1  0  0  0  0
 26 58  1  0  0  0  0
 27 28  1  0  0  0  0
 27 59  1  0  0  0  0
 27 60  1  0  0  0  0
 28 29  1  0  0  0  0
 28 61  1  0  0  0  0
 28 62  1  0  0  0  0
 29 30  1  0  0  0  0
 30 63  1  0  0  0  0
 30 64  1  0  0  0  0
M  CHG  1   4   1
M  END
> <s_m_source_file>
AV-unprocessed.smi

> <i_m_source_file_index>
212

> <i_lp_mmshare_version>
43012

> <i_f3d_flags>
0

> <s_epik_input>
W0NIM11bQ0BASF0xW0NIMl1OKFtDSDJdQyhbQ0gzXSkoW0NIM10pW09IXSlbQ0gyXVtDSDJdTjFjKG5bY0hdbjIpYyhjMjMpbltjSF1uM1tDSDJdW0NASF0oW0NIMl1bT0hdKVtDQEBIXTRbQ0gyXVtDSDJdT1tDSDJdNA==

> <s_epik_cmdline>
J2VwaWtfcHl0aG9uJywgJy1waCcsICc3LjAnLCAnLXRuJywgJzgnLCAnLW1hJywgJzIwMCcsICctbWV0YWxfYmluZGluZycsICctaW1hZScsICc8aW5maWxlLm1hZT4nLCAnLW9tYWUnLCAnPG91dGZpbGUubWFlPic=

> <r_lp_tautomer_probability>
1

> <r_epik_Ionization_Penalty>
0.00182193

> <r_epik_Ionization_Penalty_Charging>
0.00173996

> <r_epik_Ionization_Penalty_Neutral>
8.19718e-05

> <r_epik_State_Penalty>
-0

> <r_epik_Charging_Adjusted_Penalty>
0.00173996

> <i_epik_Tot_Q>
1

> <i_epik_Tot_abs_Q>
1

> <r_epik_Metal_State_Penalty>
-0

> <b_epik_Metal_Only>
0

> <s_lp_Force_Field>
OPLS_2005

> <r_lp_Energy>
59.1595

> <b_lp_Chiralities_Consistent>
1

> <s_lp_Variant>
AV-unprocessed.smi:212-15

> <Gold.Version>
5.8.1

> <Gold.Id.Protein>
6NUR|6NUR_protein|mol2

> <Gold.PLP.Fitness>
42.9551

> <Gold.PLP.PLP>
-34.5498

> <Gold.PLP.part.hbond>
-3.0000

> <Gold.PLP.part.metal>
0.0000

> <Gold.PLP.part.buried>
-5.3452

> <Gold.PLP.part.nonpolar>
-26.8329

> <Gold.PLP.part.repulsive>
0.2223

> <Gold.PLP.ligand.clash>
0.0000

> <Gold.PLP.ligand.torsion>
1.5759

> <Gold.PLP.Chemscore.Hbond>
2.6258

> <Gold.PLP.Chemscore.CHOScore>
0.8676

> <Gold.PLP.Chemscore.Metal>
0.0000

> <Gold.Chemscore.Hbonds>
donor molecule, donor type, donor heavy atom, donor atom, acceptor molecule, acceptor atom, score
      L1  H     9    45       P1 10957  0.89
      P1  H  7989  7998       L1    16  0.65
      P1  H  7997  8008       L1    25  0.93
      L1  C    15    50       P1  7957  0.85

> <Gold.PLP.Chemscore.Internal.Correction>
1.0771

> <Gold.Rescore>
     Score         DG    S(hbond)    S(metal)    S(lipo)     H(rot)  DE(clash)    DE(int)     intcor
     11.88     -14.04       2.09        0.00      87.77       3.40       0.28       1.88       ----

> <Gold.Chemscore.Fitness>
11.8848

> <Gold.Chemscore.DG>
-14.0404

> <Gold.Chemscore.ZeroCoef>
-5.4800

> <Gold.Chemscore.Hbond>
2.0933

> <Gold.Chemscore.Metal>
0.0000

> <Gold.Chemscore.Lipo>
87.7721

> <Gold.Chemscore.Internal_Hbond>
0.0000

> <Gold.Chemscore.DEClash>
0.2757

> <Gold.Chemscore.DEInternal>
1.8799

> <Gold.Chemscore.Rot>
3.3986

> <Gold.Chemscore.Internal.Correction>
   9.000000E+99

> <Gold.Chemscore.Hbonds>
donor molecule, donor type, donor heavy atom, donor atom, acceptor molecule, acceptor atom, score
      L1  H     9    45       P1 10957  0.69
      P1  H  7989  7998       L1    16  0.09
      P1  H  7997  8008       L1    25  0.19

> <Gold.Chemscore.Hbond.Weighted>
-6.9915

> <Gold.Chemscore.Metal.Weighted>
-0.0000

> <Gold.Chemscore.Lipo.Weighted>
-10.2693

> <Gold.Chemscore.Internal_Hbond.Weighted>
0.0000

> <Gold.Chemscore.DEClash.Weighted>
0.2757

> <Gold.Chemscore.DEInternal.Weighted>
1.8799

> <Gold.Chemscore.Rot.Weighted>
8.7005

> <Gold.Chemscore.Internal.Correction.Weighted>
   9.000000E+99

> <Gold.Protein.RotatedTorsions>
[ 6907 6896 6895 6894 ] final   62.97 input  -60.11 | X-H torsion
[ 7974 7965 7964 7962 ] final  -44.27 input  175.53 | X-H torsion
[ 8008 7997 7996 7995 ] final -126.89 input   59.86 | X-H torsion
[ 10167 10162 10161 10158 ] final -150.90 input  -65.29 | X-H torsion
[ 10718 10713 10712 10709 ] final  126.69 input   66.30 | X-H torsion
[ 10763 10752 10751 10750 ] final  -34.13 input  -60.55 | X-H torsion
[ 11005 11000 10999 10996 ] final  -12.53 input  -57.11 | X-H torsion

> <Gold.Protein.ActiveResidues>
 VAL166  LYS551  ARG553  GLY616  TRP617  ASP618  TYR619  PRO620  LYS621  CYS622 
 ASP623  PHE694  ASN695  SER759  ASP760  ASP761  ALA762  ILE779  LEU786  VAL792 
 PHE793  MET794  SER795  GLU796  ALA797  LYS798  CYS799  TRP800  GLU811  SER814 

> <Gold.Protein.RotatedAtoms>
  152.4215  134.5946  159.9983 H   0  0  0  0  0  0  0  0  0  0  0  0  # atno 6907 bound_to 6896
  151.6094  133.3343  159.3072 H   0  0  0  0  0  0  0  0  0  0  0  0  # atno 6908 bound_to 6896
  150.8103  134.7292  159.6748 H   0  0  0  0  0  0  0  0  0  0  0  0  # atno 6909 bound_to 6896
  145.9937  140.7152  142.9304 H   0  0  0  0  0  0  0  0  0  0  0  0  # atno 7974 bound_to 7965
  155.2371  140.0427  157.2970 H   0  0  0  0  0  0  0  0  0  0  0  0  # atno 8008 bound_to 7997
  154.5852  140.2411  155.7968 H   0  0  0  0  0  0  0  0  0  0  0  0  # atno 8009 bound_to 7997
  156.2221  140.2966  155.9986 H   0  0  0  0  0  0  0  0  0  0  0  0  # atno 8010 bound_to 7997
  139.7314  143.8803  152.2535 H   0  0  0  0  0  0  0  0  0  0  0  0  # atno 10167 bound_to 10162
  157.5397  131.1097  150.8878 H   0  0  0  0  0  0  0  0  0  0  0  0  # atno 10718 bound_to 10713
  153.8416  135.6857  153.4802 H   0  0  0  0  0  0  0  0  0  0  0  0  # atno 10763 bound_to 10752
  153.1450  135.4641  154.9550 H   0  0  0  0  0  0  0  0  0  0  0  0  # atno 10764 bound_to 10752
  154.7842  135.3279  154.7869 H   0  0  0  0  0  0  0  0  0  0  0  0  # atno 10765 bound_to 10752
  140.7667  133.8471  155.9171 H   0  0  0  0  0  0  0  0  0  0  0  0  # atno 11005 bound_to 11000
  144.6897  140.3114  143.7247 LP  0  0  0  0  0  0  0  0  0  0  0  0  # atno 17320 bound_to 7965
  145.7591  139.1819  143.2277 LP  0  0  0  0  0  0  0  0  0  0  0  0  # atno 17321 bound_to 7965
  139.8727  144.7059  150.8969 LP  0  0  0  0  0  0  0  0  0  0  0  0  # atno 17342 bound_to 10162
  140.7772  143.3725  151.1623 LP  0  0  0  0  0  0  0  0  0  0  0  0  # atno 17343 bound_to 10162
  156.9435  130.5393  149.5280 LP  0  0  0  0  0  0  0  0  0  0  0  0  # atno 17370 bound_to 10713
  156.0487  130.5559  150.8939 LP  0  0  0  0  0  0  0  0  0  0  0  0  # atno 17371 bound_to 10713
  140.9612  134.1653  157.4652 LP  0  0  0  0  0  0  0  0  0  0  0  0  # atno 17394 bound_to 11000
  139.8762  134.9945  156.5699 LP  0  0  0  0  0  0  0  0  0  0  0  0  # atno 17395 bound_to 11000

$$$$
