AV-unprocessed.smi:72|AV-procd|sdf|686|dock6
  -GOLD-   2262017 03D 1   1.00000     0.00000
 Structure written by MMmdl.
 29 30  0  0  0  0  0  0  0  0  1 V2000
  151.2172  137.1068  159.3593 N   0  0  0  0  0  0  0  0  0  0  0  0
  150.8772  137.8349  158.3568 C   0  0  0  0  0  0  0  0  0  0  0  0
  149.5682  138.2389  158.0534 N   0  0  0  0  0  0  0  0  0  0  0  0
  149.3733  138.9709  156.9999 C   0  0  0  0  0  0  0  0  0  0  0  0
  150.4633  139.3781  156.1262 N   0  0  0  0  0  0  0  0  0  0  0  0
  150.1997  140.2281  154.9010 C   0  0  1  0  0  0  0  0  0  0  0  0
  149.2316  139.5936  154.1241 O   0  0  0  0  0  0  0  0  0  0  0  0
  148.4046  140.5766  153.5193 C   0  0  1  0  0  0  0  0  0  0  0  0
  147.0552  139.9556  153.1275 C   0  0  0  0  0  0  0  0  0  0  0  0
  147.2409  138.9969  152.1081 O   0  0  0  0  0  0  0  0  0  0  0  0
  148.2935  141.6422  154.6142 C   0  0  2  0  0  0  0  0  0  0  0  0
  147.9922  142.9027  154.0508 O   0  0  0  0  0  0  0  0  0  0  0  0
  149.6869  141.6485  155.2318 C   0  0  1  0  0  0  0  0  0  0  0  0
  149.6233  141.9500  156.6143 O   0  0  0  0  0  0  0  0  0  0  0  0
  151.7925  138.9963  156.4299 C   0  0  0  0  0  0  0  0  0  0  0  0
  152.7549  139.3427  155.7454 O   0  0  0  0  0  0  0  0  0  0  0  0
  151.9392  138.2317  157.5335 N   0  0  0  0  0  0  0  0  0  0  0  0
  151.1248  140.2462  154.3232 H   0  0  0  0  0  0  0  0  0  0  0  0
  148.9202  140.9898  152.6496 H   0  0  0  0  0  0  0  0  0  0  0  0
  147.5399  141.3540  155.3494 H   0  0  0  0  0  0  0  0  0  0  0  0
  150.3413  142.3619  154.7285 H   0  0  0  0  0  0  0  0  0  0  0  0
  152.2162  136.9589  159.3564 H   0  0  0  0  0  0  0  0  0  0  0  0
  148.3873  139.3319  156.7038 H   0  0  0  0  0  0  0  0  0  0  0  0
  146.5593  139.5062  153.9884 H   0  0  0  0  0  0  0  0  0  0  0  0
  146.3890  140.7243  152.7347 H   0  0  0  0  0  0  0  0  0  0  0  0
  148.0178  139.2234  151.6200 H   0  0  0  0  0  0  0  0  0  0  0  0
  148.1935  143.5695  154.6895 H   0  0  0  0  0  0  0  0  0  0  0  0
  149.4196  142.8678  156.7103 H   0  0  0  0  0  0  0  0  0  0  0  0
  152.8731  137.9371  157.7787 H   0  0  0  0  0  0  0  0  0  0  0  0
  1  2  2  0  0  0  0
  1 22  1  0  0  0  0
  2 17  1  0  0  0  0
  2  3  1  0  0  0  0
  3  4  2  0  0  0  0
  4  5  1  0  0  0  0
  4 23  1  0  0  0  0
  5  6  1  0  0  0  0
  5 15  1  0  0  0  0
  6 18  1  0  0  0  0
  6 13  1  0  0  0  0
  6  7  1  0  0  0  0
  7  8  1  0  0  0  0
  8 19  1  0  0  0  0
  8  9  1  0  0  0  0
  8 11  1  0  0  0  0
  9 10  1  0  0  0  0
  9 24  1  0  0  0  0
  9 25  1  0  0  0  0
 10 26  1  0  0  0  0
 11 20  1  0  0  0  0
 11 12  1  0  0  0  0
 11 13  1  0  0  0  0
 12 27  1  0  0  0  0
 13 21  1  0  0  0  0
 13 14  1  0  0  0  0
 14 28  1  0  0  0  0
 15 16  2  0  0  0  0
 15 17  1  0  0  0  0
 17 29  1  0  0  0  0
M  END
> <s_m_source_file>
AV-unprocessed.smi

> <i_m_source_file_index>
72

> <i_lp_mmshare_version>
43012

> <i_f3d_flags>
0

> <s_epik_input>
W05IMl1jMW5bY0hdbihjKD1PKW4xKVtDQEBIXTJPW0NASF0oW0NIMl1bT0hdKVtDQEBIXShbT0hdKVtDQEhdMltPSF0=

> <s_epik_cmdline>
J2VwaWtfcHl0aG9uJywgJy1waCcsICc3LjAnLCAnLXRuJywgJzgnLCAnLW1hJywgJzIwMCcsICctbWV0YWxfYmluZGluZycsICctaW1hZScsICc8aW5maWxlLm1hZT4nLCAnLW9tYWUnLCAnPG91dGZpbGUubWFlPic=

> <r_lp_tautomer_probability>
7.17554e-07

> <r_epik_Ionization_Penalty>
0.0066451

> <r_epik_Ionization_Penalty_Charging>
0.00663793

> <r_epik_Ionization_Penalty_Neutral>
7.17052e-06

> <r_epik_State_Penalty>
0.419231

> <r_epik_Charging_Adjusted_Penalty>
0.425868

> <i_epik_Tot_Q>
0

> <i_epik_Tot_abs_Q>
0

> <r_epik_Metal_State_Penalty>
1.44144

> <b_epik_Metal_Only>
0

> <s_epik_Chemistry_Notes>
This compound contains an acetal/aminal-like group ( X-CH(R)-Y where X, Y are N, S, or O) that may be acid/base labile, releasing an aldehyde.

> <s_lp_Force_Field>
OPLS_2005

> <r_lp_Energy>
42.1084

> <b_lp_Chiralities_Consistent>
1

> <s_lp_Variant>
AV-unprocessed.smi:72-24

> <Gold.Version>
5.8.1

> <Gold.Id.Protein>
6NUR|6NUR_protein|mol2

> <Gold.PLP.Fitness>
36.0379

> <Gold.PLP.PLP>
-24.3350

> <Gold.PLP.part.hbond>
-7.1852

> <Gold.PLP.part.metal>
0.0000

> <Gold.PLP.part.buried>
2.4080

> <Gold.PLP.part.nonpolar>
-18.2654

> <Gold.PLP.part.repulsive>
0.9845

> <Gold.PLP.ligand.clash>
0.0000

> <Gold.PLP.ligand.torsion>
0.0872

> <Gold.PLP.Chemscore.Hbond>
3.9176

> <Gold.PLP.Chemscore.CHOScore>
0.0000

> <Gold.PLP.Chemscore.Metal>
0.0000

> <Gold.Chemscore.Hbonds>
donor molecule, donor type, donor heavy atom, donor atom, acceptor molecule, acceptor atom, score
      L1  H    10    26       P1  7957  1.00
      L1  H    12    27       P1  8028  1.00
      L1  H    14    28       P1  8028  0.53
      P1  H  7997  8008       L1    16  1.00

> <Gold.PLP.Chemscore.Internal.Correction>
0.1245

> <Gold.Rescore>
     Score         DG    S(hbond)    S(metal)    S(lipo)     H(rot)  DE(clash)    DE(int)     intcor
      8.75     -11.67       3.87        0.00      31.30       4.06       1.91       1.01       ----

> <Gold.Chemscore.Fitness>
8.7492

> <Gold.Chemscore.DG>
-11.6716

> <Gold.Chemscore.ZeroCoef>
-5.4800

> <Gold.Chemscore.Hbond>
3.8691

> <Gold.Chemscore.Metal>
0.0000

> <Gold.Chemscore.Lipo>
31.3028

> <Gold.Chemscore.Internal_Hbond>
0.0000

> <Gold.Chemscore.DEClash>
1.9142

> <Gold.Chemscore.DEInternal>
1.0082

> <Gold.Chemscore.Rot>
4.0600

> <Gold.Chemscore.Internal.Correction>
   9.000000E+99

> <Gold.Chemscore.Hbonds>
donor molecule, donor type, donor heavy atom, donor atom, acceptor molecule, acceptor atom, score
      L1  H    10    26       P1  7957  0.96
      L1  H    12    27       P1  8028  0.90
      L1  H    14    28       P1  8028  0.52
      P1  H  7997  8008       L1    16  1.00

> <Gold.Chemscore.Hbond.Weighted>
-12.9227

> <Gold.Chemscore.Metal.Weighted>
-0.0000

> <Gold.Chemscore.Lipo.Weighted>
-3.6624

> <Gold.Chemscore.Internal_Hbond.Weighted>
0.0000

> <Gold.Chemscore.DEClash.Weighted>
1.9142

> <Gold.Chemscore.DEInternal.Weighted>
1.0082

> <Gold.Chemscore.Rot.Weighted>
10.3936

> <Gold.Chemscore.Internal.Correction.Weighted>
   9.000000E+99

> <Gold.Protein.RotatedTorsions>
[ 6907 6896 6895 6894 ] final -127.92 input  -60.11 | X-H torsion
[ 7974 7965 7964 7962 ] final  110.75 input  175.53 | X-H torsion
[ 8008 7997 7996 7995 ] final  -40.33 input   59.86 | X-H torsion
[ 10167 10162 10161 10158 ] final  156.19 input  -65.29 | X-H torsion
[ 10718 10713 10712 10709 ] final   25.40 input   66.30 | X-H torsion
[ 10763 10752 10751 10750 ] final  -65.35 input  -60.55 | X-H torsion
[ 11005 11000 10999 10996 ] final  -99.01 input  -57.11 | X-H torsion

> <Gold.Protein.ActiveResidues>
 VAL166  LYS551  ARG553  GLY616  TRP617  ASP618  TYR619  PRO620  LYS621  CYS622 
 ASP623  PHE694  ASN695  SER759  ASP760  ASP761  ALA762  ILE779  LEU786  VAL792 
 PHE793  MET794  SER795  GLU796  ALA797  LYS798  CYS799  TRP800  GLU811  SER814 

> <Gold.Protein.RotatedAtoms>
  150.9124  133.6981  159.2851 H   0  0  0  0  0  0  0  0  0  0  0  0  # atno 6907 bound_to 6896
  151.4464  135.1024  159.9694 H   0  0  0  0  0  0  0  0  0  0  0  0  # atno 6908 bound_to 6896
  152.4937  133.8520  159.7261 H   0  0  0  0  0  0  0  0  0  0  0  0  # atno 6909 bound_to 6896
  145.2509  139.2740  143.4068 H   0  0  0  0  0  0  0  0  0  0  0  0  # atno 7974 bound_to 7965
  154.4013  140.1528  156.3009 H   0  0  0  0  0  0  0  0  0  0  0  0  # atno 8008 bound_to 7997
  155.8701  140.3449  155.5794 H   0  0  0  0  0  0  0  0  0  0  0  0  # atno 8009 bound_to 7997
  155.7784  140.0840  157.2063 H   0  0  0  0  0  0  0  0  0  0  0  0  # atno 8010 bound_to 7997
  139.4821  144.5031  151.8138 H   0  0  0  0  0  0  0  0  0  0  0  0  # atno 10167 bound_to 10162
  157.1928  130.6854  149.6157 H   0  0  0  0  0  0  0  0  0  0  0  0  # atno 10718 bound_to 10713
  154.3437  135.6151  153.5609 H   0  0  0  0  0  0  0  0  0  0  0  0  # atno 10763 bound_to 10752
  152.9802  135.5776  154.4823 H   0  0  0  0  0  0  0  0  0  0  0  0  # atno 10764 bound_to 10752
  154.4531  135.2853  155.1744 H   0  0  0  0  0  0  0  0  0  0  0  0  # atno 10765 bound_to 10752
  141.1324  133.8289  157.0915 H   0  0  0  0  0  0  0  0  0  0  0  0  # atno 11005 bound_to 11000
  146.3302  140.2900  142.8615 LP  0  0  0  0  0  0  0  0  0  0  0  0  # atno 17320 bound_to 7965
  144.9503  140.8172  143.5576 LP  0  0  0  0  0  0  0  0  0  0  0  0  # atno 17321 bound_to 7965
  140.4526  144.1833  150.5899 LP  0  0  0  0  0  0  0  0  0  0  0  0  # atno 17342 bound_to 10162
  140.4568  143.2464  151.9273 LP  0  0  0  0  0  0  0  0  0  0  0  0  # atno 17343 bound_to 10162
  155.9709  130.4609  150.6088 LP  0  0  0  0  0  0  0  0  0  0  0  0  # atno 17370 bound_to 10713
  157.3843  131.0786  151.1449 LP  0  0  0  0  0  0  0  0  0  0  0  0  # atno 17371 bound_to 10713
  140.0389  134.9864  157.0924 LP  0  0  0  0  0  0  0  0  0  0  0  0  # atno 17394 bound_to 11000
  140.4166  134.1924  155.7163 LP  0  0  0  0  0  0  0  0  0  0  0  0  # atno 17395 bound_to 11000

$$$$
