AV-unprocessed.smi:528|AV-procd|sdf|2833|dock8
  -GOLD-   2262023323D 1   1.00000     0.00000
 Structure written by MMmdl.
 45 47  0  0  0  0  0  0  0  0  1 V2000
  150.0921  135.5260  155.0065 C   0  0  0  0  0  0  0  0  0  0  0  0
  150.3734  136.1364  156.3908 C   0  0  2  0  0  0  0  0  0  0  0  0
  149.1304  136.1318  157.1609 N   0  0  0  0  0  0  0  0  0  0  0  0
  149.0324  136.2640  158.4926 C   0  0  0  0  0  0  0  0  0  0  0  0
  150.0057  136.4299  159.2293 O   0  0  0  0  0  0  0  0  0  0  0  0
  147.6078  136.2067  159.0637 C   0  0  0  0  0  0  0  0  0  0  0  0
  147.4923  135.3921  160.2855 N   0  0  0  0  0  0  0  0  0  0  0  0
  147.4925  133.9924  160.1252 C   0  0  0  0  0  0  0  0  0  0  0  0
  147.4077  133.1354  161.1609 C   0  0  0  0  0  0  0  0  0  0  0  0
  147.3549  131.6299  160.9520 C   0  0  0  0  0  0  0  0  0  0  0  0
  146.2081  131.1224  161.4043 F   0  0  0  0  0  0  0  0  0  0  0  0
  147.4712  131.3173  159.6608 F   0  0  0  0  0  0  0  0  0  0  0  0
  148.3551  131.0465  161.6111 F   0  0  0  0  0  0  0  0  0  0  0  0
  147.2778  133.7267  162.4781 C   0  0  0  0  0  0  0  0  0  0  0  0
  147.2633  135.0633  162.6481 C   0  0  0  0  0  0  0  0  0  0  0  0
  147.3788  135.9820  161.5133 C   0  0  0  0  0  0  0  0  0  0  0  0
  147.3724  137.2050  161.6567 O   0  0  0  0  0  0  0  0  0  0  0  0
  150.9298  137.5801  156.3152 C   0  0  1  0  0  0  0  0  0  0  0  0
  152.3488  137.6641  155.6972 C   0  0  0  0  0  0  0  0  0  0  0  0
  152.1856  138.6970  154.5682 C   0  0  2  0  0  0  0  0  0  0  0  0
  151.9601  140.0932  155.1759 C   0  0  0  0  0  0  0  0  0  0  0  0
  150.5255  139.9934  155.7262 C   0  0  0  0  0  0  0  0  0  0  0  0
  150.1336  138.5404  155.3946 C   0  0  1  0  0  0  0  0  0  0  0  0
  150.8017  138.3521  154.0361 C   0  0  0  0  0  0  0  0  0  0  0  0
  151.0018  135.4152  154.4184 H   0  0  0  0  0  0  0  0  0  0  0  0
  149.3971  136.1419  154.4350 H   0  0  0  0  0  0  0  0  0  0  0  0
  149.6530  134.5320  155.0996 H   0  0  0  0  0  0  0  0  0  0  0  0
  151.1131  135.5111  156.8933 H   0  0  0  0  0  0  0  0  0  0  0  0
  148.2764  136.0067  156.6368 H   0  0  0  0  0  0  0  0  0  0  0  0
  147.2764  137.2288  159.2525 H   0  0  0  0  0  0  0  0  0  0  0  0
  146.9310  135.8261  158.2962 H   0  0  0  0  0  0  0  0  0  0  0  0
  147.5591  133.6575  159.1001 H   0  0  0  0  0  0  0  0  0  0  0  0
  147.1930  133.0870  163.3443 H   0  0  0  0  0  0  0  0  0  0  0  0
  147.1657  135.4687  163.6444 H   0  0  0  0  0  0  0  0  0  0  0  0
  150.9509  137.9844  157.3288 H   0  0  0  0  0  0  0  0  0  0  0  0
  153.1014  137.9629  156.4274 H   0  0  0  0  0  0  0  0  0  0  0  0
  152.6612  136.7072  155.2764 H   0  0  0  0  0  0  0  0  0  0  0  0
  152.9851  138.6651  153.8274 H   0  0  0  0  0  0  0  0  0  0  0  0
  152.6892  140.3272  155.9525 H   0  0  0  0  0  0  0  0  0  0  0  0
  152.0242  140.8674  154.4103 H   0  0  0  0  0  0  0  0  0  0  0  0
  150.4706  140.2095  156.7936 H   0  0  0  0  0  0  0  0  0  0  0  0
  149.8698  140.6967  155.2111 H   0  0  0  0  0  0  0  0  0  0  0  0
  149.0553  138.3875  155.3950 H   0  0  0  0  0  0  0  0  0  0  0  0
  150.4441  139.0513  153.2778 H   0  0  0  0  0  0  0  0  0  0  0  0
  150.7260  137.3355  153.6473 H   0  0  0  0  0  0  0  0  0  0  0  0
  1  2  1  0  0  0  0
  1 25  1  0  0  0  0
  1 26  1  0  0  0  0
  1 27  1  0  0  0  0
  2  3  1  0  0  0  0
  2 18  1  0  0  0  0
  2 28  1  0  0  0  0
  3  4  1  0  0  0  0
  3 29  1  0  0  0  0
  4  5  2  0  0  0  0
  4  6  1  0  0  0  0
  6  7  1  0  0  0  0
  6 30  1  0  0  0  0
  6 31  1  0  0  0  0
  7 16  1  0  0  0  0
  7  8  1  0  0  0  0
  8  9  2  0  0  0  0
  8 32  1  0  0  0  0
  9 10  1  0  0  0  0
  9 14  1  0  0  0  0
 10 11  1  0  0  0  0
 10 12  1  0  0  0  0
 10 13  1  0  0  0  0
 14 15  2  0  0  0  0
 14 33  1  0  0  0  0
 15 16  1  0  0  0  0
 15 34  1  0  0  0  0
 16 17  2  0  0  0  0
 18 23  1  0  0  0  0
 18 19  1  0  0  0  0
 18 35  1  0  0  0  0
 19 20  1  0  0  0  0
 19 36  1  0  0  0  0
 19 37  1  0  0  0  0
 20 24  1  0  0  0  0
 20 21  1  0  0  0  0
 20 38  1  0  0  0  0
 21 22  1  0  0  0  0
 21 39  1  0  0  0  0
 21 40  1  0  0  0  0
 22 23  1  0  0  0  0
 22 41  1  0  0  0  0
 22 42  1  0  0  0  0
 23 24  1  0  0  0  0
 23 43  1  0  0  0  0
 24 44  1  0  0  0  0
 24 45  1  0  0  0  0
M  END
> <s_m_source_file>
AV-unprocessed.smi

> <i_m_source_file_index>
528

> <i_lp_mmshare_version>
43012

> <i_f3d_flags>
0

> <s_epik_input>
W0NIMl0xW0NIMl1bQ0BASF0oW0NIMl0yKVtDQEBIXShbQ0gyXVtDQEhdMTIpW0NASF0oW0NIM10pW05IXUMoPU8pW0NIMl1uM1tjSF1jKEMoRikoRilGKVtjSF1bY0hdYzM9Tw==

> <s_epik_cmdline>
J2VwaWtfcHl0aG9uJywgJy1waCcsICc3LjAnLCAnLXRuJywgJzgnLCAnLW1hJywgJzIwMCcsICctbWV0YWxfYmluZGluZycsICctaW1hZScsICc8aW5maWxlLm1hZT4nLCAnLW9tYWUnLCAnPG91dGZpbGUubWFlPic=

> <r_lp_tautomer_probability>
1

> <r_epik_Ionization_Penalty>
4.09479e-08

> <r_epik_Ionization_Penalty_Charging>
1.9321e-08

> <r_epik_Ionization_Penalty_Neutral>
2.16269e-08

> <r_epik_State_Penalty>
-0

> <r_epik_Charging_Adjusted_Penalty>
1.9321e-08

> <i_epik_Tot_Q>
0

> <i_epik_Tot_abs_Q>
0

> <r_epik_Metal_State_Penalty>
-0

> <b_epik_Metal_Only>
0

> <s_lp_Force_Field>
OPLS_2005

> <r_lp_Energy>
62.8308

> <b_lp_Chiralities_Consistent>
1

> <s_lp_Variant>
AV-unprocessed.smi:528-3

> <Gold.Version>
5.8.1

> <Gold.Id.Protein>
6NUR|6NUR_protein|mol2

> <Gold.PLP.Fitness>
47.5365

> <Gold.PLP.PLP>
-41.9715

> <Gold.PLP.part.hbond>
-3.0000

> <Gold.PLP.part.metal>
0.0000

> <Gold.PLP.part.buried>
-2.3902

> <Gold.PLP.part.nonpolar>
-36.5274

> <Gold.PLP.part.repulsive>
0.0541

> <Gold.PLP.ligand.clash>
1.2575

> <Gold.PLP.ligand.torsion>
0.7461

> <Gold.PLP.Chemscore.Hbond>
2.7440

> <Gold.PLP.Chemscore.CHOScore>
0.0000

> <Gold.PLP.Chemscore.Metal>
0.0000

> <Gold.Chemscore.Hbonds>
donor molecule, donor type, donor heavy atom, donor atom, acceptor molecule, acceptor atom, score
      P1  H  6896  6908       L1     5  1.00
      P1  H  6931  6943       L1    17  0.90
      P1  H  6934  6947       L1    17  0.85

> <Gold.PLP.Chemscore.Internal.Correction>
0.0828

> <Gold.Rescore>
     Score         DG    S(hbond)    S(metal)    S(lipo)     H(rot)  DE(clash)    DE(int)     intcor
     19.12     -20.59       2.66        0.00      90.61       1.71       0.11       1.36       ----

> <Gold.Chemscore.Fitness>
19.1216

> <Gold.Chemscore.DG>
-20.5918

> <Gold.Chemscore.ZeroCoef>
-5.4800

> <Gold.Chemscore.Hbond>
2.6629

> <Gold.Chemscore.Metal>
0.0000

> <Gold.Chemscore.Lipo>
90.6129

> <Gold.Chemscore.Internal_Hbond>
0.0000

> <Gold.Chemscore.DEClash>
0.1136

> <Gold.Chemscore.DEInternal>
1.3567

> <Gold.Chemscore.Rot>
1.7125

> <Gold.Chemscore.Internal.Correction>
   9.000000E+99

> <Gold.Chemscore.Hbonds>
donor molecule, donor type, donor heavy atom, donor atom, acceptor molecule, acceptor atom, score
      P1  H  6896  6908       L1     5  0.97
      P1  H  6931  6943       L1    17  0.86
      P1  H  6934  6947       L1    17  0.82

> <Gold.Chemscore.Hbond.Weighted>
-8.8941

> <Gold.Chemscore.Metal.Weighted>
-0.0000

> <Gold.Chemscore.Lipo.Weighted>
-10.6017

> <Gold.Chemscore.Internal_Hbond.Weighted>
0.0000

> <Gold.Chemscore.DEClash.Weighted>
0.1136

> <Gold.Chemscore.DEInternal.Weighted>
1.3567

> <Gold.Chemscore.Rot.Weighted>
4.3840

> <Gold.Chemscore.Internal.Correction.Weighted>
   9.000000E+99

> <Gold.Protein.RotatedTorsions>
[ 6907 6896 6895 6894 ] final -159.12 input  -60.11 | X-H torsion
[ 7974 7965 7964 7962 ] final  -32.80 input  175.53 | X-H torsion
[ 8008 7997 7996 7995 ] final  -39.20 input   59.86 | X-H torsion
[ 10167 10162 10161 10158 ] final  142.41 input  -65.29 | X-H torsion
[ 10718 10713 10712 10709 ] final  116.70 input   66.30 | X-H torsion
[ 10763 10752 10751 10750 ] final  -28.34 input  -60.55 | X-H torsion
[ 11005 11000 10999 10996 ] final  -52.41 input  -57.11 | X-H torsion

> <Gold.Protein.ActiveResidues>
 VAL166  LYS551  ARG553  GLY616  TRP617  ASP618  TYR619  PRO620  LYS621  CYS622 
 ASP623  PHE694  ASN695  SER759  ASP760  ASP761  ALA762  ILE779  LEU786  VAL792 
 PHE793  MET794  SER795  GLU796  ALA797  LYS798  CYS799  TRP800  GLU811  SER814 

> <Gold.Protein.RotatedAtoms>
  151.3287  133.4009  159.2660 H   0  0  0  0  0  0  0  0  0  0  0  0  # atno 6907 bound_to 6896
  150.9973  134.9295  159.7944 H   0  0  0  0  0  0  0  0  0  0  0  0  # atno 6908 bound_to 6896
  152.5265  134.3252  159.9215 H   0  0  0  0  0  0  0  0  0  0  0  0  # atno 6909 bound_to 6896
  146.0961  140.5837  142.8842 H   0  0  0  0  0  0  0  0  0  0  0  0  # atno 7974 bound_to 7965
  154.4026  140.1558  156.2824 H   0  0  0  0  0  0  0  0  0  0  0  0  # atno 8008 bound_to 7997
  155.8858  140.3441  155.5898 H   0  0  0  0  0  0  0  0  0  0  0  0  # atno 8009 bound_to 7997
  155.7616  140.0818  157.2143 H   0  0  0  0  0  0  0  0  0  0  0  0  # atno 8010 bound_to 7997
  139.4995  144.6108  151.6275 H   0  0  0  0  0  0  0  0  0  0  0  0  # atno 10167 bound_to 10162
  157.6144  131.1028  150.7510 H   0  0  0  0  0  0  0  0  0  0  0  0  # atno 10718 bound_to 10713
  153.7468  135.6929  153.4954 H   0  0  0  0  0  0  0  0  0  0  0  0  # atno 10763 bound_to 10752
  153.2031  135.4429  155.0289 H   0  0  0  0  0  0  0  0  0  0  0  0  # atno 10764 bound_to 10752
  154.8201  135.3418  154.6991 H   0  0  0  0  0  0  0  0  0  0  0  0  # atno 10765 bound_to 10752
  141.0923  133.6630  156.4020 H   0  0  0  0  0  0  0  0  0  0  0  0  # atno 11005 bound_to 11000
  144.7397  140.4907  143.6878 LP  0  0  0  0  0  0  0  0  0  0  0  0  # atno 17320 bound_to 7965
  145.5945  139.1498  143.3164 LP  0  0  0  0  0  0  0  0  0  0  0  0  # atno 17321 bound_to 7965
  140.5782  143.9991  150.6253 LP  0  0  0  0  0  0  0  0  0  0  0  0  # atno 17342 bound_to 10162
  140.3131  143.3185  152.0859 LP  0  0  0  0  0  0  0  0  0  0  0  0  # atno 17343 bound_to 10162
  156.7880  130.4881  149.5389 LP  0  0  0  0  0  0  0  0  0  0  0  0  # atno 17370 bound_to 10713
  156.1260  130.6144  151.0263 LP  0  0  0  0  0  0  0  0  0  0  0  0  # atno 17371 bound_to 10713
  140.5223  134.6292  157.5322 LP  0  0  0  0  0  0  0  0  0  0  0  0  # atno 17394 bound_to 11000
  139.9751  134.7228  155.9965 LP  0  0  0  0  0  0  0  0  0  0  0  0  # atno 17395 bound_to 11000

$$$$
