AV-unprocessed.smi:696|AV-procd|sdf|3386|dock1
  -GOLD-   22720 0363D 1   1.00000     0.00000
 Structure written by MMmdl.
 38 39  0  0  0  0  0  0  0  0  1 V2000
  153.7329  139.9086  158.6313 O   0  0  0  0  0  0  0  0  0  0  0  0
  153.3952  140.3781  159.7186 C   0  0  0  0  0  0  0  0  0  0  0  0
  153.7935  139.8664  160.8940 N   0  0  0  0  0  0  0  0  0  0  0  0
  154.6590  138.7031  161.0507 C   0  0  0  0  0  0  0  0  0  0  0  0
  153.8922  137.5024  161.6442 C   0  0  0  0  0  0  0  0  0  0  0  0
  154.0549  137.3027  163.1458 C   0  0  0  0  0  0  0  0  0  0  0  0
  153.4375  136.4553  163.8923 N   0  0  0  0  0  0  0  0  0  0  0  0
  153.9742  136.7281  165.1076 N   0  0  0  0  0  0  0  0  0  0  0  0
  154.8862  137.7070  165.1011 C   0  0  0  0  0  0  0  0  0  0  0  0
  155.5222  138.1517  166.0537 O   0  0  0  0  0  0  0  0  0  0  0  0
  154.9488  138.0897  163.8321 N   0  0  0  0  0  0  0  0  0  0  0  0
  152.4723  141.6049  159.7774 C   0  0  0  0  0  0  0  0  0  0  0  0
  152.1828  142.1203  158.3480 C   0  0  0  0  0  0  0  0  0  0  0  0
  150.9569  143.0471  158.2801 C   0  0  0  0  0  0  0  0  0  0  0  0
  151.2379  144.5374  158.5446 C   0  0  0  0  0  0  0  0  0  0  0  0
  152.2715  144.8617  159.6379 C   0  0  0  0  0  0  0  0  0  0  0  0
  152.2334  143.9494  160.8746 C   0  0  0  0  0  0  0  0  0  0  0  0
  153.0821  142.6763  160.7063 C   0  0  0  0  0  0  0  0  0  0  0  0
  153.6667  136.2006  165.9120 H   0  0  0  0  0  0  0  0  0  0  0  0
  155.5300  138.8155  163.4387 H   0  0  0  0  0  0  0  0  0  0  0  0
  153.4691  140.3126  161.7398 H   0  0  0  0  0  0  0  0  0  0  0  0
  155.0525  138.4492  160.0657 H   0  0  0  0  0  0  0  0  0  0  0  0
  155.5163  138.9656  161.6739 H   0  0  0  0  0  0  0  0  0  0  0  0
  152.8273  137.6054  161.4332 H   0  0  0  0  0  0  0  0  0  0  0  0
  154.2142  136.5879  161.1450 H   0  0  0  0  0  0  0  0  0  0  0  0
  151.5283  141.2786  160.2175 H   0  0  0  0  0  0  0  0  0  0  0  0
  153.0587  142.6096  157.9194 H   0  0  0  0  0  0  0  0  0  0  0  0
  151.9793  141.2639  157.7029 H   0  0  0  0  0  0  0  0  0  0  0  0
  150.5063  142.9644  157.2903 H   0  0  0  0  0  0  0  0  0  0  0  0
  150.1912  142.6912  158.9704 H   0  0  0  0  0  0  0  0  0  0  0  0
  151.5686  145.0078  157.6178 H   0  0  0  0  0  0  0  0  0  0  0  0
  150.2921  145.0200  158.7936 H   0  0  0  0  0  0  0  0  0  0  0  0
  153.2741  144.8475  159.2087 H   0  0  0  0  0  0  0  0  0  0  0  0
  152.1113  145.8933  159.9533 H   0  0  0  0  0  0  0  0  0  0  0  0
  152.6453  144.5090  161.7151 H   0  0  0  0  0  0  0  0  0  0  0  0
  151.2074  143.7070  161.1537 H   0  0  0  0  0  0  0  0  0  0  0  0
  153.2246  142.2351  161.6942 H   0  0  0  0  0  0  0  0  0  0  0  0
  154.0810  142.9520  160.3636 H   0  0  0  0  0  0  0  0  0  0  0  0
  1  2  2  0  0  0  0
  2  3  1  0  0  0  0
  2 12  1  0  0  0  0
  3  4  1  0  0  0  0
  3 21  1  0  0  0  0
  4  5  1  0  0  0  0
  4 22  1  0  0  0  0
  4 23  1  0  0  0  0
  5  6  1  0  0  0  0
  5 24  1  0  0  0  0
  5 25  1  0  0  0  0
  6 11  1  0  0  0  0
  6  7  2  0  0  0  0
  7  8  1  0  0  0  0
  8 19  1  0  0  0  0
  8  9  1  0  0  0  0
  9 10  2  0  0  0  0
  9 11  1  0  0  0  0
 11 20  1  0  0  0  0
 12 18  1  0  0  0  0
 12 13  1  0  0  0  0
 12 26  1  0  0  0  0
 13 14  1  0  0  0  0
 13 27  1  0  0  0  0
 13 28  1  0  0  0  0
 14 15  1  0  0  0  0
 14 29  1  0  0  0  0
 14 30  1  0  0  0  0
 15 16  1  0  0  0  0
 15 31  1  0  0  0  0
 15 32  1  0  0  0  0
 16 17  1  0  0  0  0
 16 33  1  0  0  0  0
 16 34  1  0  0  0  0
 17 18  1  0  0  0  0
 17 35  1  0  0  0  0
 17 36  1  0  0  0  0
 18 37  1  0  0  0  0
 18 38  1  0  0  0  0
M  END
> <s_m_source_file>
AV-unprocessed.smi

> <i_m_source_file_index>
696

> <i_lp_mmshare_version>
43012

> <i_f3d_flags>
0

> <s_epik_input>
W0NIMl0xW0NIMl1bQ0gyXVtDSDJdW0NIMl1bQ0gyXVtDSF0xQyg9TylbTkhdW0NIMl1bQ0gyXWMybltuSF1jKD1PKVtuSF0y

> <s_epik_cmdline>
J2VwaWtfcHl0aG9uJywgJy1waCcsICc3LjAnLCAnLXRuJywgJzgnLCAnLW1hJywgJzIwMCcsICctbWV0YWxfYmluZGluZycsICctaW1hZScsICc8aW5maWxlLm1hZT4nLCAnLW9tYWUnLCAnPG91dGZpbGUubWFlPic=

> <r_lp_tautomer_probability>
1

> <r_epik_Ionization_Penalty>
0.000812647

> <r_epik_Ionization_Penalty_Charging>
0.000812608

> <r_epik_Ionization_Penalty_Neutral>
3.92257e-08

> <r_epik_State_Penalty>
-0

> <r_epik_Charging_Adjusted_Penalty>
0.000812608

> <i_epik_Tot_Q>
0

> <i_epik_Tot_abs_Q>
0

> <r_epik_Metal_State_Penalty>
0.511782

> <b_epik_Metal_Only>
0

> <s_lp_Force_Field>
OPLS_2005

> <r_lp_Energy>
36.4871

> <b_lp_Chiralities_Consistent>
1

> <s_lp_Variant>
AV-unprocessed.smi:696-1

> <Gold.Version>
5.8.1

> <Gold.Id.Protein>
6NUR|6NUR_protein|mol2

> <Gold.PLP.Fitness>
40.5462

> <Gold.PLP.PLP>
-38.3592

> <Gold.PLP.part.hbond>
-2.0786

> <Gold.PLP.part.metal>
0.0000

> <Gold.PLP.part.buried>
-6.7519

> <Gold.PLP.part.nonpolar>
-29.1593

> <Gold.PLP.part.repulsive>
0.4159

> <Gold.PLP.ligand.clash>
0.0000

> <Gold.PLP.ligand.torsion>
0.4395

> <Gold.PLP.Chemscore.Hbond>
1.0000

> <Gold.PLP.Chemscore.CHOScore>
0.0000

> <Gold.PLP.Chemscore.Metal>
0.0000

> <Gold.Chemscore.Hbonds>
donor molecule, donor type, donor heavy atom, donor atom, acceptor molecule, acceptor atom, score
      P1  H  7997  8009       L1     1  1.00

> <Gold.PLP.Chemscore.Internal.Correction>
0.0660

> <Gold.Rescore>
     Score         DG    S(hbond)    S(metal)    S(lipo)     H(rot)  DE(clash)    DE(int)     intcor
     12.53     -13.07       0.95        0.00      87.51       2.28       0.19       0.35       ----

> <Gold.Chemscore.Fitness>
12.5271

> <Gold.Chemscore.DG>
-13.0660

> <Gold.Chemscore.ZeroCoef>
-5.4800

> <Gold.Chemscore.Hbond>
0.9533

> <Gold.Chemscore.Metal>
0.0000

> <Gold.Chemscore.Lipo>
87.5131

> <Gold.Chemscore.Internal_Hbond>
0.0000

> <Gold.Chemscore.DEClash>
0.1865

> <Gold.Chemscore.DEInternal>
0.3524

> <Gold.Chemscore.Rot>
2.2801

> <Gold.Chemscore.Internal.Correction>
   9.000000E+99

> <Gold.Chemscore.Hbonds>
donor molecule, donor type, donor heavy atom, donor atom, acceptor molecule, acceptor atom, score
      P1  H  7997  8009       L1     1  0.96

> <Gold.Chemscore.Hbond.Weighted>
-3.1839

> <Gold.Chemscore.Metal.Weighted>
-0.0000

> <Gold.Chemscore.Lipo.Weighted>
-10.2390

> <Gold.Chemscore.Internal_Hbond.Weighted>
0.0000

> <Gold.Chemscore.DEClash.Weighted>
0.1865

> <Gold.Chemscore.DEInternal.Weighted>
0.3524

> <Gold.Chemscore.Rot.Weighted>
5.8370

> <Gold.Chemscore.Internal.Correction.Weighted>
   9.000000E+99

> <Gold.Protein.RotatedTorsions>
[ 6907 6896 6895 6894 ] final  -25.58 input  -60.11 | X-H torsion
[ 7974 7965 7964 7962 ] final -149.09 input  175.53 | X-H torsion
[ 8008 7997 7996 7995 ] final  132.52 input   59.86 | X-H torsion
[ 10167 10162 10161 10158 ] final -167.82 input  -65.29 | X-H torsion
[ 10718 10713 10712 10709 ] final -151.32 input   66.30 | X-H torsion
[ 10763 10752 10751 10750 ] final  122.64 input  -60.55 | X-H torsion
[ 11005 11000 10999 10996 ] final   55.33 input  -57.11 | X-H torsion

> <Gold.Protein.ActiveResidues>
 VAL166  LYS551  ARG553  GLY616  TRP617  ASP618  TYR619  PRO620  LYS621  CYS622 
 ASP623  PHE694  ASN695  SER759  ASP760  ASP761  ALA762  ILE779  LEU786  VAL792 
 PHE793  MET794  SER795  GLU796  ALA797  LYS798  CYS799  TRP800  GLU811  SER814 

> <Gold.Protein.RotatedAtoms>
  151.1732  135.0327  159.8760 H   0  0  0  0  0  0  0  0  0  0  0  0  # atno 6907 bound_to 6896
  152.5448  134.1147  159.8383 H   0  0  0  0  0  0  0  0  0  0  0  0  # atno 6908 bound_to 6896
  151.1255  133.5027  159.2633 H   0  0  0  0  0  0  0  0  0  0  0  0  # atno 6909 bound_to 6896
  144.7989  140.5110  143.5721 H   0  0  0  0  0  0  0  0  0  0  0  0  # atno 7974 bound_to 7965
  156.2983  140.2544  156.3102 H   0  0  0  0  0  0  0  0  0  0  0  0  # atno 8008 bound_to 7997
  154.9333  140.0398  157.2078 H   0  0  0  0  0  0  0  0  0  0  0  0  # atno 8009 bound_to 7997
  154.8196  140.2858  155.5800 H   0  0  0  0  0  0  0  0  0  0  0  0  # atno 8010 bound_to 7997
  139.6025  144.0981  152.1758 H   0  0  0  0  0  0  0  0  0  0  0  0  # atno 10167 bound_to 10162
  156.4577  130.8198  151.2429 H   0  0  0  0  0  0  0  0  0  0  0  0  # atno 10718 bound_to 10713
  153.6330  135.3393  155.3047 H   0  0  0  0  0  0  0  0  0  0  0  0  # atno 10763 bound_to 10752
  154.8576  135.4300  154.2086 H   0  0  0  0  0  0  0  0  0  0  0  0  # atno 10764 bound_to 10752
  153.2986  135.7023  153.7298 H   0  0  0  0  0  0  0  0  0  0  0  0  # atno 10765 bound_to 10752
  140.0615  134.5595  155.9146 H   0  0  0  0  0  0  0  0  0  0  0  0  # atno 11005 bound_to 11000
  145.5604  139.1479  143.3344 LP  0  0  0  0  0  0  0  0  0  0  0  0  # atno 17320 bound_to 7965
  146.2265  140.5740  142.8994 LP  0  0  0  0  0  0  0  0  0  0  0  0  # atno 17321 bound_to 7965
  140.0581  144.5879  150.7284 LP  0  0  0  0  0  0  0  0  0  0  0  0  # atno 17342 bound_to 10162
  140.7260  143.2637  151.4118 LP  0  0  0  0  0  0  0  0  0  0  0  0  # atno 17343 bound_to 10162
  157.7499  131.0117  150.3357 LP  0  0  0  0  0  0  0  0  0  0  0  0  # atno 17370 bound_to 10713
  156.3750  130.3870  149.7146 LP  0  0  0  0  0  0  0  0  0  0  0  0  # atno 17371 bound_to 10713
  141.1975  133.6597  156.5745 LP  0  0  0  0  0  0  0  0  0  0  0  0  # atno 17394 bound_to 11000
  140.3762  134.7563  157.4631 LP  0  0  0  0  0  0  0  0  0  0  0  0  # atno 17395 bound_to 11000

$$$$
