AV-unprocessed.smi:359|AV-procd|sdf|2418|dock9
  -GOLD-   2262022353D 1   1.00000     0.00000
 Structure written by MMmdl.
 33 34  0  0  0  0  0  0  0  0  1 V2000
  147.2099  138.9042  152.7738 C   0  0  0  0  0  0  0  0  0  0  0  0
  148.5220  138.7036  153.3641 N   0  0  0  0  0  0  0  0  0  0  0  0
  149.2200  139.5690  154.1964 C   0  0  0  0  0  0  0  0  0  0  0  0
  148.6886  140.8608  154.6021 C   0  0  0  0  0  0  0  0  0  0  0  0
  149.3301  141.6676  155.3744 N   0  0  0  0  0  0  0  0  0  0  0  0
  150.5741  141.3083  155.8530 N   0  0  0  0  0  0  0  0  0  0  0  0
  151.1807  142.3030  156.7457 C   0  0  0  0  0  0  0  0  0  0  0  0
  150.5323  142.2893  158.1399 C   0  0  0  0  0  0  0  0  0  0  0  0
  151.3747  142.9856  159.0494 O   0  0  0  0  0  0  0  0  0  0  0  0
  152.2399  142.2527  159.8324 C   0  0  0  0  0  0  0  0  0  0  0  0
  152.5709  142.7901  161.0935 C   0  0  0  0  0  0  0  0  0  0  0  0
  153.4444  142.1075  161.9619 C   0  0  0  0  0  0  0  0  0  0  0  0
  153.9999  140.8740  161.5738 C   0  0  0  0  0  0  0  0  0  0  0  0
  155.0675  140.0330  162.6369 Cl  0  0  0  0  0  0  0  0  0  0  0  0
  153.6823  140.3285  160.3156 C   0  0  0  0  0  0  0  0  0  0  0  0
  152.8078  141.0116  159.4476 C   0  0  0  0  0  0  0  0  0  0  0  0
  151.2095  140.1343  155.5640 C   0  0  0  0  0  0  0  0  0  0  0  0
  152.3198  139.8556  156.0189 O   0  0  0  0  0  0  0  0  0  0  0  0
  150.4503  139.2420  154.6758 C   0  0  0  0  0  0  0  0  0  0  0  0
  151.1792  137.7282  154.2538 Cl  0  0  0  0  0  0  0  0  0  0  0  0
  146.9291  138.0329  152.1821 H   0  0  0  0  0  0  0  0  0  0  0  0
  147.2103  139.7772  152.1206 H   0  0  0  0  0  0  0  0  0  0  0  0
  146.4583  139.0477  153.5505 H   0  0  0  0  0  0  0  0  0  0  0  0
  148.9578  137.8161  153.1551 H   0  0  0  0  0  0  0  0  0  0  0  0
  147.7035  141.1172  154.2132 H   0  0  0  0  0  0  0  0  0  0  0  0
  152.2525  142.1183  156.8367 H   0  0  0  0  0  0  0  0  0  0  0  0
  151.0971  143.3021  156.3139 H   0  0  0  0  0  0  0  0  0  0  0  0
  149.5422  142.7462  158.1015 H   0  0  0  0  0  0  0  0  0  0  0  0
  150.4121  141.2564  158.4695 H   0  0  0  0  0  0  0  0  0  0  0  0
  152.1484  143.7358  161.3998 H   0  0  0  0  0  0  0  0  0  0  0  0
  153.6858  142.5317  162.9253 H   0  0  0  0  0  0  0  0  0  0  0  0
  154.1092  139.3834  160.0133 H   0  0  0  0  0  0  0  0  0  0  0  0
  152.5894  140.5622  158.4910 H   0  0  0  0  0  0  0  0  0  0  0  0
  1  2  1  0  0  0  0
  1 21  1  0  0  0  0
  1 22  1  0  0  0  0
  1 23  1  0  0  0  0
  2  3  1  0  0  0  0
  2 24  1  0  0  0  0
  3 19  2  0  0  0  0
  3  4  1  0  0  0  0
  4  5  2  0  0  0  0
  4 25  1  0  0  0  0
  5  6  1  0  0  0  0
  6  7  1  0  0  0  0
  6 17  1  0  0  0  0
  7  8  1  0  0  0  0
  7 26  1  0  0  0  0
  7 27  1  0  0  0  0
  8  9  1  0  0  0  0
  8 28  1  0  0  0  0
  8 29  1  0  0  0  0
  9 10  1  0  0  0  0
 10 16  1  0  0  0  0
 10 11  2  0  0  0  0
 11 12  1  0  0  0  0
 11 30  1  0  0  0  0
 12 13  2  0  0  0  0
 12 31  1  0  0  0  0
 13 14  1  0  0  0  0
 13 15  1  0  0  0  0
 15 16  2  0  0  0  0
 15 32  1  0  0  0  0
 16 33  1  0  0  0  0
 17 18  2  0  0  0  0
 17 19  1  0  0  0  0
 19 20  1  0  0  0  0
M  END
> <s_m_source_file>
AV-unprocessed.smi

> <i_m_source_file_index>
359

> <i_lp_mmshare_version>
43012

> <i_f3d_flags>
0

> <s_epik_input>
W0NIM11bTkhdYzFbY0hdbm4oYyg9TyljMUNsKVtDSDJdW0NIMl1PYzJbY0hdW2NIXWMoQ2wpW2NIXVtjSF0y

> <s_epik_cmdline>
J2VwaWtfcHl0aG9uJywgJy1waCcsICc3LjAnLCAnLXRuJywgJzgnLCAnLW1hJywgJzIwMCcsICctbWV0YWxfYmluZGluZycsICctaW1hZScsICc8aW5maWxlLm1hZT4nLCAnLW9tYWUnLCAnPG91dGZpbGUubWFlPic=

> <r_lp_tautomer_probability>
1

> <r_epik_Ionization_Penalty>
1.57682e-05

> <r_epik_Ionization_Penalty_Charging>
1.04488e-09

> <r_epik_Ionization_Penalty_Neutral>
1.57671e-05

> <r_epik_State_Penalty>
-0

> <r_epik_Charging_Adjusted_Penalty>
1.04488e-09

> <i_epik_Tot_Q>
0

> <i_epik_Tot_abs_Q>
0

> <r_epik_Metal_State_Penalty>
-0

> <b_epik_Metal_Only>
0

> <s_lp_Force_Field>
OPLS_2005

> <r_lp_Energy>
30.271

> <b_lp_Chiralities_Consistent>
1

> <s_lp_Variant>
AV-unprocessed.smi:359-1

> <Gold.Version>
5.8.1

> <Gold.Id.Protein>
6NUR|6NUR_protein|mol2

> <Gold.PLP.Fitness>
51.2607

> <Gold.PLP.PLP>
-47.6882

> <Gold.PLP.part.hbond>
-3.0000

> <Gold.PLP.part.metal>
0.0000

> <Gold.PLP.part.buried>
-3.1939

> <Gold.PLP.part.nonpolar>
-41.6197

> <Gold.PLP.part.repulsive>
0.5347

> <Gold.PLP.ligand.clash>
0.0000

> <Gold.PLP.ligand.torsion>
0.8945

> <Gold.PLP.Chemscore.Hbond>
1.7855

> <Gold.PLP.Chemscore.CHOScore>
0.0000

> <Gold.PLP.Chemscore.Metal>
0.0000

> <Gold.Chemscore.Hbonds>
donor molecule, donor type, donor heavy atom, donor atom, acceptor molecule, acceptor atom, score
      L1  H     2    24       P1  7948  0.88
      P1  H  7997  8009       L1    18  0.94

> <Gold.PLP.Chemscore.Internal.Correction>
0.0052

> <Gold.Rescore>
     Score         DG    S(hbond)    S(metal)    S(lipo)     H(rot)  DE(clash)    DE(int)     intcor
     19.82     -20.91       1.70        0.00     117.99       1.58       0.27       0.82       ----

> <Gold.Chemscore.Fitness>
19.8247

> <Gold.Chemscore.DG>
-20.9095

> <Gold.Chemscore.ZeroCoef>
-5.4800

> <Gold.Chemscore.Hbond>
1.6964

> <Gold.Chemscore.Metal>
0.0000

> <Gold.Chemscore.Lipo>
117.9877

> <Gold.Chemscore.Internal_Hbond>
0.0000

> <Gold.Chemscore.DEClash>
0.2678

> <Gold.Chemscore.DEInternal>
0.8169

> <Gold.Chemscore.Rot>
1.5785

> <Gold.Chemscore.Internal.Correction>
   9.000000E+99

> <Gold.Chemscore.Hbonds>
donor molecule, donor type, donor heavy atom, donor atom, acceptor molecule, acceptor atom, score
      L1  H     2    24       P1  7948  0.82
      P1  H  7997  8009       L1    18  0.90

> <Gold.Chemscore.Hbond.Weighted>
-5.6660

> <Gold.Chemscore.Metal.Weighted>
-0.0000

> <Gold.Chemscore.Lipo.Weighted>
-13.8046

> <Gold.Chemscore.Internal_Hbond.Weighted>
0.0000

> <Gold.Chemscore.DEClash.Weighted>
0.2678

> <Gold.Chemscore.DEInternal.Weighted>
0.8169

> <Gold.Chemscore.Rot.Weighted>
4.0411

> <Gold.Chemscore.Internal.Correction.Weighted>
   9.000000E+99

> <Gold.Protein.RotatedTorsions>
[ 6907 6896 6895 6894 ] final   22.72 input  -60.11 | X-H torsion
[ 7974 7965 7964 7962 ] final   28.60 input  175.53 | X-H torsion
[ 8008 7997 7996 7995 ] final -161.62 input   59.86 | X-H torsion
[ 10167 10162 10161 10158 ] final   82.00 input  -65.29 | X-H torsion
[ 10718 10713 10712 10709 ] final  107.09 input   66.30 | X-H torsion
[ 10763 10752 10751 10750 ] final -105.17 input  -60.55 | X-H torsion
[ 11005 11000 10999 10996 ] final  -69.61 input  -57.11 | X-H torsion

> <Gold.Protein.ActiveResidues>
 VAL166  LYS551  ARG553  GLY616  TRP617  ASP618  TYR619  PRO620  LYS621  CYS622 
 ASP623  PHE694  ASN695  SER759  ASP760  ASP761  ALA762  ILE779  LEU786  VAL792 
 PHE793  MET794  SER795  GLU796  ALA797  LYS798  CYS799  TRP800  GLU811  SER814 

> <Gold.Protein.RotatedAtoms>
  151.9314  135.0255  160.0529 H   0  0  0  0  0  0  0  0  0  0  0  0  # atno 6907 bound_to 6896
  152.2115  133.4910  159.5121 H   0  0  0  0  0  0  0  0  0  0  0  0  # atno 6908 bound_to 6896
  150.6977  134.1378  159.4136 H   0  0  0  0  0  0  0  0  0  0  0  0  # atno 6909 bound_to 6896
  146.1719  139.7034  142.8961 H   0  0  0  0  0  0  0  0  0  0  0  0  # atno 7974 bound_to 7965
  155.7949  140.0883  157.1989 H   0  0  0  0  0  0  0  0  0  0  0  0  # atno 8008 bound_to 7997
  154.3984  140.1483  156.3265 H   0  0  0  0  0  0  0  0  0  0  0  0  # atno 8009 bound_to 7997
  155.8521  140.3434  155.5703 H   0  0  0  0  0  0  0  0  0  0  0  0  # atno 8010 bound_to 7997
  139.9333  144.6137  150.8323 H   0  0  0  0  0  0  0  0  0  0  0  0  # atno 10167 bound_to 10162
  157.6642  131.0865  150.6104 H   0  0  0  0  0  0  0  0  0  0  0  0  # atno 10718 bound_to 10713
  154.7928  135.4759  154.0092 H   0  0  0  0  0  0  0  0  0  0  0  0  # atno 10763 bound_to 10752
  153.1657  135.6816  153.8686 H   0  0  0  0  0  0  0  0  0  0  0  0  # atno 10764 bound_to 10752
  153.8285  135.3195  155.3394 H   0  0  0  0  0  0  0  0  0  0  0  0  # atno 10765 bound_to 10752
  141.1557  133.6769  156.6625 H   0  0  0  0  0  0  0  0  0  0  0  0  # atno 11005 bound_to 11000
  145.4316  141.0415  143.2907 LP  0  0  0  0  0  0  0  0  0  0  0  0  # atno 17320 bound_to 7965
  144.8177  139.5848  143.7001 LP  0  0  0  0  0  0  0  0  0  0  0  0  # atno 17321 bound_to 7965
  140.7631  143.3215  151.2611 LP  0  0  0  0  0  0  0  0  0  0  0  0  # atno 17342 bound_to 10162
  139.6764  143.9930  152.2783 LP  0  0  0  0  0  0  0  0  0  0  0  0  # atno 17343 bound_to 10162
  156.6406  130.4457  149.5754 LP  0  0  0  0  0  0  0  0  0  0  0  0  # atno 17370 bound_to 10713
  156.2212  130.6738  151.1370 LP  0  0  0  0  0  0  0  0  0  0  0  0  # atno 17371 bound_to 10713
  140.3236  134.7987  157.4272 LP  0  0  0  0  0  0  0  0  0  0  0  0  # atno 17394 bound_to 11000
  140.1076  134.5389  155.8295 LP  0  0  0  0  0  0  0  0  0  0  0  0  # atno 17395 bound_to 11000

$$$$
