AV-unprocessed.smi:1976|AV-procd|sdf|7983|dock2
  -GOLD-   2272010163D 1   1.00000     0.00000
 Structure written by MMmdl.
 45 47  0  0  0  0  0  0  0  0  2 V2000
  149.8655  141.3053  154.1686 O   0  0  0  0  0  0  0  0  0  0  0  0
  148.9504  141.1331  154.9751 C   0  0  0  0  0  0  0  0  0  0  0  0
  148.8368  141.9959  156.2404 C   0  0  0  0  0  0  0  0  0  0  0  0
  150.0099  141.8977  157.1252 N   0  0  0  0  0  0  0  0  0  0  0  0
  150.5848  143.1066  157.5640 C   0  0  0  0  0  0  0  0  0  0  0  0
  151.6515  143.1559  158.3847 C   0  0  0  0  0  0  0  0  0  0  0  0
  152.2869  144.4766  158.7912 C   0  0  0  0  0  0  0  0  0  0  0  0
  152.7689  145.1241  157.7301 F   0  0  0  0  0  0  0  0  0  0  0  0
  151.4038  145.2691  159.4002 F   0  0  0  0  0  0  0  0  0  0  0  0
  153.2942  144.2540  159.6344 F   0  0  0  0  0  0  0  0  0  0  0  0
  152.2180  141.8822  158.7831 C   0  0  0  0  0  0  0  0  0  0  0  0
  151.6891  140.7169  158.3610 C   0  0  0  0  0  0  0  0  0  0  0  0
  150.5176  140.6801  157.4827 C   0  0  0  0  0  0  0  0  0  0  0  0
  150.0237  139.6223  157.0909 O   0  0  0  0  0  0  0  0  0  0  0  0
  147.9923  140.2103  154.8061 N   0  0  0  0  0  0  0  0  0  0  0  0
  147.9184  139.2895  153.6771 C   0  0  2  0  0  0  0  0  0  0  0  0
  147.5126  139.9559  152.3478 C   0  0  0  0  0  0  0  0  0  0  0  0
  146.5995  138.9345  151.6412 C   0  0  0  0  0  0  0  0  0  0  0  0
  146.6059  137.7405  152.5080 N   0  3  2  0  0  0  0  0  0  0  0  0
  145.4459  136.8279  152.4088 C   0  0  0  0  0  0  0  0  0  0  0  0
  145.6736  135.6123  153.3300 C   0  0  0  0  0  0  0  0  0  0  0  0
  146.0015  136.0411  154.7753 C   0  0  0  0  0  0  0  0  0  0  0  0
  147.1586  137.0588  154.8052 C   0  0  0  0  0  0  0  0  0  0  0  0
  146.8284  138.2370  153.8743 C   0  0  1  0  0  0  0  0  0  0  0  0
  148.6760  143.0302  155.9336 H   0  0  0  0  0  0  0  0  0  0  0  0
  147.9327  141.7177  156.7854 H   0  0  0  0  0  0  0  0  0  0  0  0
  150.1071  143.9966  157.1807 H   0  0  0  0  0  0  0  0  0  0  0  0
  153.0797  141.8613  159.4338 H   0  0  0  0  0  0  0  0  0  0  0  0
  152.1373  139.7868  158.6786 H   0  0  0  0  0  0  0  0  0  0  0  0
  147.2727  140.1359  155.5108 H   0  0  0  0  0  0  0  0  0  0  0  0
  148.8794  138.7866  153.5487 H   0  0  0  0  0  0  0  0  0  0  0  0
  146.9639  140.8833  152.5192 H   0  0  0  0  0  0  0  0  0  0  0  0
  148.3901  140.2006  151.7481 H   0  0  0  0  0  0  0  0  0  0  0  0
  145.5869  139.3329  151.5589 H   0  0  0  0  0  0  0  0  0  0  0  0
  146.9489  138.6872  150.6385 H   0  0  0  0  0  0  0  0  0  0  0  0
  144.5327  137.3550  152.6892 H   0  0  0  0  0  0  0  0  0  0  0  0
  145.3258  136.5000  151.3756 H   0  0  0  0  0  0  0  0  0  0  0  0
  144.7944  134.9673  153.3214 H   0  0  0  0  0  0  0  0  0  0  0  0
  146.4971  135.0135  152.9385 H   0  0  0  0  0  0  0  0  0  0  0  0
  145.1157  136.4865  155.2299 H   0  0  0  0  0  0  0  0  0  0  0  0
  146.2520  135.1679  155.3788 H   0  0  0  0  0  0  0  0  0  0  0  0
  147.3201  137.4137  155.8236 H   0  0  0  0  0  0  0  0  0  0  0  0
  148.0848  136.5764  154.4895 H   0  0  0  0  0  0  0  0  0  0  0  0
  145.9142  138.7270  154.2183 H   0  0  0  0  0  0  0  0  0  0  0  0
  147.4288  137.2098  152.2602 H   0  0  0  0  0  0  0  0  0  0  0  0
  1  2  2  0  0  0  0
  2  3  1  0  0  0  0
  2 15  1  0  0  0  0
  3  4  1  0  0  0  0
  3 25  1  0  0  0  0
  3 26  1  0  0  0  0
  4 13  1  0  0  0  0
  4  5  1  0  0  0  0
  5  6  2  0  0  0  0
  5 27  1  0  0  0  0
  6  7  1  0  0  0  0
  6 11  1  0  0  0  0
  7  8  1  0  0  0  0
  7  9  1  0  0  0  0
  7 10  1  0  0  0  0
 11 12  2  0  0  0  0
 11 28  1  0  0  0  0
 12 13  1  0  0  0  0
 12 29  1  0  0  0  0
 13 14  2  0  0  0  0
 15 16  1  0  0  0  0
 15 30  1  0  0  0  0
 16 24  1  0  0  0  0
 16 17  1  0  0  0  0
 16 31  1  0  0  0  0
 17 18  1  0  0  0  0
 17 32  1  0  0  0  0
 17 33  1  0  0  0  0
 18 19  1  0  0  0  0
 18 34  1  0  0  0  0
 18 35  1  0  0  0  0
 19 24  1  0  0  0  0
 19 20  1  0  0  0  0
 19 45  1  0  0  0  0
 20 21  1  0  0  0  0
 20 36  1  0  0  0  0
 20 37  1  0  0  0  0
 21 22  1  0  0  0  0
 21 38  1  0  0  0  0
 21 39  1  0  0  0  0
 22 23  1  0  0  0  0
 22 40  1  0  0  0  0
 22 41  1  0  0  0  0
 23 24  1  0  0  0  0
 23 42  1  0  0  0  0
 23 43  1  0  0  0  0
 24 44  1  0  0  0  0
M  CHG  1  19   1
M  END
> <s_m_source_file>
AV-unprocessed.smi

> <i_m_source_file_index>
1976

> <i_lp_mmshare_version>
43012

> <i_f3d_flags>
0

> <s_epik_input>
W0NIMl0xW0NIMl1bQ0gyXVtDSDJdW0NASF0oTjEyKVtDQEBIXShbQ0gyXVtDSDJdMilbTkhdQyg9TylbQ0gyXW4zW2NIXWMoQyhGKShGKUYpW2NIXVtjSF1jMz1P

> <s_epik_cmdline>
J2VwaWtfcHl0aG9uJywgJy1waCcsICc3LjAnLCAnLXRuJywgJzgnLCAnLW1hJywgJzIwMCcsICctbWV0YWxfYmluZGluZycsICctaW1hZScsICc8aW5maWxlLm1hZT4nLCAnLW9tYWUnLCAnPG91dGZpbGUubWFlPic=

> <r_lp_tautomer_probability>
1

> <r_epik_Ionization_Penalty>
0.00171506

> <r_epik_Ionization_Penalty_Charging>
0.00171498

> <r_epik_Ionization_Penalty_Neutral>
7.81737e-08

> <r_epik_State_Penalty>
0.00115937

> <r_epik_Charging_Adjusted_Penalty>
0.00287436

> <i_epik_Tot_Q>
1

> <i_epik_Tot_abs_Q>
1

> <r_epik_Metal_State_Penalty>
-0

> <b_epik_Metal_Only>
0

> <s_lp_Force_Field>
OPLS_2005

> <r_lp_Energy>
45.9566

> <b_lp_Chiralities_Consistent>
1

> <s_lp_Variant>
AV-unprocessed.smi:1976-1

> <Gold.Version>
5.8.1

> <Gold.Id.Protein>
6NUR|6NUR_protein|mol2

> <Gold.PLP.Fitness>
51.4150

> <Gold.PLP.PLP>
-40.8411

> <Gold.PLP.part.hbond>
-2.6913

> <Gold.PLP.part.metal>
0.0000

> <Gold.PLP.part.buried>
2.9938

> <Gold.PLP.part.nonpolar>
-41.3288

> <Gold.PLP.part.repulsive>
0.2454

> <Gold.PLP.ligand.clash>
0.3559

> <Gold.PLP.ligand.torsion>
0.2661

> <Gold.PLP.Chemscore.Hbond>
2.7982

> <Gold.PLP.Chemscore.CHOScore>
1.0000

> <Gold.PLP.Chemscore.Metal>
0.0000

> <Gold.Chemscore.Hbonds>
donor molecule, donor type, donor heavy atom, donor atom, acceptor molecule, acceptor atom, score
      L1  H    19    45       P1  7948  2.00
      P1  H  7989  7998       L1     1  0.35
      P1  H  8011  8017       L1     1  0.49
      L1  C     5    27       P1  8028  1.00

> <Gold.PLP.Chemscore.Internal.Correction>
0.0672

> <Gold.Rescore>
     Score         DG    S(hbond)    S(metal)    S(lipo)     H(rot)  DE(clash)    DE(int)     intcor
     14.44     -18.25       1.82        0.00      91.87       1.58       2.04       1.77       ----

> <Gold.Chemscore.Fitness>
14.4444

> <Gold.Chemscore.DG>
-18.2468

> <Gold.Chemscore.ZeroCoef>
-5.4800

> <Gold.Chemscore.Hbond>
1.8173

> <Gold.Chemscore.Metal>
0.0000

> <Gold.Chemscore.Lipo>
91.8746

> <Gold.Chemscore.Internal_Hbond>
0.0000

> <Gold.Chemscore.DEClash>
2.0364

> <Gold.Chemscore.DEInternal>
1.7660

> <Gold.Chemscore.Rot>
1.5830

> <Gold.Chemscore.Internal.Correction>
   9.000000E+99

> <Gold.Chemscore.Hbonds>
donor molecule, donor type, donor heavy atom, donor atom, acceptor molecule, acceptor atom, score
      L1  H    19    45       P1  7948  1.00
      P1  H  7989  7998       L1     1  0.36
      P1  H  8011  8017       L1     1  0.48

> <Gold.Chemscore.Hbond.Weighted>
-6.0699

> <Gold.Chemscore.Metal.Weighted>
-0.0000

> <Gold.Chemscore.Lipo.Weighted>
-10.7493

> <Gold.Chemscore.Internal_Hbond.Weighted>
0.0000

> <Gold.Chemscore.DEClash.Weighted>
2.0364

> <Gold.Chemscore.DEInternal.Weighted>
1.7660

> <Gold.Chemscore.Rot.Weighted>
4.0524

> <Gold.Chemscore.Internal.Correction.Weighted>
   9.000000E+99

> <Gold.Protein.RotatedTorsions>
[ 6907 6896 6895 6894 ] final -175.95 input  -60.11 | X-H torsion
[ 7974 7965 7964 7962 ] final -154.53 input  175.53 | X-H torsion
[ 8008 7997 7996 7995 ] final   92.39 input   59.86 | X-H torsion
[ 10167 10162 10161 10158 ] final   69.89 input  -65.29 | X-H torsion
[ 10718 10713 10712 10709 ] final -103.26 input   66.30 | X-H torsion
[ 10763 10752 10751 10750 ] final -117.43 input  -60.55 | X-H torsion
[ 11005 11000 10999 10996 ] final -119.75 input  -57.11 | X-H torsion

> <Gold.Protein.ActiveResidues>
 VAL166  LYS551  ARG553  GLY616  TRP617  ASP618  TYR619  PRO620  LYS621  CYS622 
 ASP623  PHE694  ASN695  SER759  ASP760  ASP761  ALA762  ILE779  LEU786  VAL792 
 PHE793  MET794  SER795  GLU796  ALA797  LYS798  CYS799  TRP800  GLU811  SER814 

> <Gold.Protein.RotatedAtoms>
  151.5969  133.3360  159.3039 H   0  0  0  0  0  0  0  0  0  0  0  0  # atno 6907 bound_to 6896
  150.8229  134.7449  159.6799 H   0  0  0  0  0  0  0  0  0  0  0  0  # atno 6908 bound_to 6896
  152.4321  134.5763  159.9987 H   0  0  0  0  0  0  0  0  0  0  0  0  # atno 6909 bound_to 6896
  144.7685  140.4375  143.5925 H   0  0  0  0  0  0  0  0  0  0  0  0  # atno 7974 bound_to 7965
  156.0348  140.3326  155.7179 H   0  0  0  0  0  0  0  0  0  0  0  0  # atno 8008 bound_to 7997
  155.5831  140.0639  157.2795 H   0  0  0  0  0  0  0  0  0  0  0  0  # atno 8009 bound_to 7997
  154.4368  140.1840  156.0985 H   0  0  0  0  0  0  0  0  0  0  0  0  # atno 8010 bound_to 7997
  140.0628  144.5218  150.7282 H   0  0  0  0  0  0  0  0  0  0  0  0  # atno 10167 bound_to 10162
  156.0259  130.5459  150.7227 H   0  0  0  0  0  0  0  0  0  0  0  0  # atno 10718 bound_to 10713
  154.8554  135.4310  154.1979 H   0  0  0  0  0  0  0  0  0  0  0  0  # atno 10763 bound_to 10752
  153.3032  135.6970  153.7189 H   0  0  0  0  0  0  0  0  0  0  0  0  # atno 10764 bound_to 10752
  153.6311  135.3484  155.3016 H   0  0  0  0  0  0  0  0  0  0  0  0  # atno 10765 bound_to 10752
  141.0193  134.0148  157.3305 H   0  0  0  0  0  0  0  0  0  0  0  0  # atno 11005 bound_to 11000
  145.6397  139.1548  143.2922 LP  0  0  0  0  0  0  0  0  0  0  0  0  # atno 17320 bound_to 7965
  146.1812  140.6494  142.9188 LP  0  0  0  0  0  0  0  0  0  0  0  0  # atno 17321 bound_to 7965
  140.7163  143.2548  151.4422 LP  0  0  0  0  0  0  0  0  0  0  0  0  # atno 17342 bound_to 10162
  139.5883  144.1555  152.2056 LP  0  0  0  0  0  0  0  0  0  0  0  0  # atno 17343 bound_to 10162
  157.4839  131.0905  151.0505 LP  0  0  0  0  0  0  0  0  0  0  0  0  # atno 17370 bound_to 10713
  157.0930  130.5950  149.5444 LP  0  0  0  0  0  0  0  0  0  0  0  0  # atno 17371 bound_to 10713
  139.9136  135.0194  156.7792 LP  0  0  0  0  0  0  0  0  0  0  0  0  # atno 17394 bound_to 11000
  140.6600  133.9654  155.7800 LP  0  0  0  0  0  0  0  0  0  0  0  0  # atno 17395 bound_to 11000

$$$$
