AV-unprocessed.smi:3028|AV-procd|sdf|11517|dock1
  -GOLD-   2272016453D 1   1.00000     0.00000
 Structure written by MMmdl.
 48 49  0  0  0  0  0  0  0  0  2 V2000
  153.2557  142.8996  163.2732 C   0  0  0  0  0  0  0  0  0  0  0  0
  153.1158  142.6915  161.7928 C   0  0  0  0  0  0  0  0  0  0  0  0
  153.6883  141.6604  160.9956 C   0  0  0  0  0  0  0  0  0  0  0  0
  153.3666  141.7614  159.7165 N   0  0  0  0  0  0  0  0  0  0  0  0
  152.5829  142.8587  159.6477 N   0  0  0  0  0  0  0  0  0  0  0  0
  152.0343  143.2758  158.3635 C   0  0  2  0  0  0  0  0  0  0  0  0
  151.3998  144.6718  158.5006 C   0  0  0  0  0  0  0  0  0  0  0  0
  151.0616  142.2159  157.7803 C   0  0  2  0  0  0  0  0  0  0  0  0
  151.6339  140.7870  157.8140 C   0  0  0  0  0  0  0  0  0  0  0  0
  150.7067  142.5518  156.3832 N   0  3  0  0  0  0  0  0  0  0  0  0
  150.1445  141.4344  155.5940 C   0  0  0  0  0  0  0  0  0  0  0  0
  148.6280  141.2936  155.7801 C   0  0  0  0  0  0  0  0  0  0  0  0
  148.1584  140.2493  156.2294 O   0  0  0  0  0  0  0  0  0  0  0  0
  147.8253  142.3180  155.4457 N   0  0  0  0  0  0  0  0  0  0  0  0
  146.3678  142.3943  155.5411 C   0  0  0  0  0  0  0  0  0  0  0  0
  145.8245  143.3636  154.4802 C   0  0  0  0  0  0  0  0  0  0  0  0
  144.3188  143.6014  154.6797 C   0  0  0  0  0  0  0  0  0  0  0  0
  144.0705  144.0772  155.9981 O   0  0  0  0  0  0  0  0  0  0  0  0
  144.4477  143.1449  157.0055 C   0  0  0  0  0  0  0  0  0  0  0  0
  145.9615  142.8846  156.9393 C   0  0  0  0  0  0  0  0  0  0  0  0
  152.4154  143.4390  160.8892 C   0  0  0  0  0  0  0  0  0  0  0  0
  153.8185  142.0935  163.7443 H   0  0  0  0  0  0  0  0  0  0  0  0
  152.2848  142.9441  163.7669 H   0  0  0  0  0  0  0  0  0  0  0  0
  153.7761  143.8301  163.5007 H   0  0  0  0  0  0  0  0  0  0  0  0
  154.3242  140.8448  161.3075 H   0  0  0  0  0  0  0  0  0  0  0  0
  152.8732  143.3706  157.6707 H   0  0  0  0  0  0  0  0  0  0  0  0
  151.1129  145.0782  157.5309 H   0  0  0  0  0  0  0  0  0  0  0  0
  152.1024  145.3769  158.9465 H   0  0  0  0  0  0  0  0  0  0  0  0
  150.5097  144.6480  159.1299 H   0  0  0  0  0  0  0  0  0  0  0  0
  150.1535  142.2069  158.3857 H   0  0  0  0  0  0  0  0  0  0  0  0
  151.8105  140.4432  158.8334 H   0  0  0  0  0  0  0  0  0  0  0  0
  152.5796  140.7259  157.2743 H   0  0  0  0  0  0  0  0  0  0  0  0
  150.9434  140.0785  157.3554 H   0  0  0  0  0  0  0  0  0  0  0  0
  150.0408  143.3112  156.3927 H   0  0  0  0  0  0  0  0  0  0  0  0
  150.3636  141.6033  154.5388 H   0  0  0  0  0  0  0  0  0  0  0  0
  150.6266  140.5028  155.8911 H   0  0  0  0  0  0  0  0  0  0  0  0
  148.2792  143.1415  155.0763 H   0  0  0  0  0  0  0  0  0  0  0  0
  145.9005  141.4230  155.3814 H   0  0  0  0  0  0  0  0  0  0  0  0
  146.3475  144.3189  154.5463 H   0  0  0  0  0  0  0  0  0  0  0  0
  146.0122  142.9737  153.4791 H   0  0  0  0  0  0  0  0  0  0  0  0
  143.9592  144.3419  153.9650 H   0  0  0  0  0  0  0  0  0  0  0  0
  143.7535  142.6857  154.5000 H   0  0  0  0  0  0  0  0  0  0  0  0
  144.1800  143.5525  157.9805 H   0  0  0  0  0  0  0  0  0  0  0  0
  143.8874  142.2164  156.8848 H   0  0  0  0  0  0  0  0  0  0  0  0
  146.2486  142.1531  157.6955 H   0  0  0  0  0  0  0  0  0  0  0  0
  146.4918  143.8075  157.1798 H   0  0  0  0  0  0  0  0  0  0  0  0
  151.8160  144.3271  161.0270 H   0  0  0  0  0  0  0  0  0  0  0  0
  151.5408  142.8703  155.9107 H   0  0  0  0  0  0  0  0  0  0  0  0
  1  2  1  0  0  0  0
  1 22  1  0  0  0  0
  1 23  1  0  0  0  0
  1 24  1  0  0  0  0
  2 21  2  0  0  0  0
  2  3  1  0  0  0  0
  3  4  2  0  0  0  0
  3 25  1  0  0  0  0
  4  5  1  0  0  0  0
  5  6  1  0  0  0  0
  5 21  1  0  0  0  0
  6  7  1  0  0  0  0
  6  8  1  0  0  0  0
  6 26  1  0  0  0  0
  7 27  1  0  0  0  0
  7 28  1  0  0  0  0
  7 29  1  0  0  0  0
  8  9  1  0  0  0  0
  8 10  1  0  0  0  0
  8 30  1  0  0  0  0
  9 31  1  0  0  0  0
  9 32  1  0  0  0  0
  9 33  1  0  0  0  0
 10 11  1  0  0  0  0
 10 34  1  0  0  0  0
 10 48  1  0  0  0  0
 11 12  1  0  0  0  0
 11 35  1  0  0  0  0
 11 36  1  0  0  0  0
 12 13  2  0  0  0  0
 12 14  1  0  0  0  0
 14 15  1  0  0  0  0
 14 37  1  0  0  0  0
 15 20  1  0  0  0  0
 15 16  1  0  0  0  0
 15 38  1  0  0  0  0
 16 17  1  0  0  0  0
 16 39  1  0  0  0  0
 16 40  1  0  0  0  0
 17 18  1  0  0  0  0
 17 41  1  0  0  0  0
 17 42  1  0  0  0  0
 18 19  1  0  0  0  0
 19 20  1  0  0  0  0
 19 43  1  0  0  0  0
 19 44  1  0  0  0  0
 20 45  1  0  0  0  0
 20 46  1  0  0  0  0
 21 47  1  0  0  0  0
M  CHG  1  10   1
M  END
> <s_m_source_file>
AV-unprocessed.smi

> <i_m_source_file_index>
3028

> <i_lp_mmshare_version>
43012

> <i_f3d_flags>
0

> <s_epik_input>
W0NIM11jMVtjSF1ubihbY0hdMSlbQ0BIXShbQ0gzXSlbQ0BIXShbQ0gzXSlbTkhdW0NIMl1DKD1PKVtOSF1bQ0hdMltDSDJdW0NIMl1PW0NIMl1bQ0gyXTI=

> <s_epik_cmdline>
J2VwaWtfcHl0aG9uJywgJy1waCcsICc3LjAnLCAnLXRuJywgJzgnLCAnLW1hJywgJzIwMCcsICctbWV0YWxfYmluZGluZycsICctaW1hZScsICc8aW5maWxlLm1hZT4nLCAnLW9tYWUnLCAnPG91dGZpbGUubWFlPic=

> <r_lp_tautomer_probability>
1

> <r_epik_Ionization_Penalty>
0.151514

> <r_epik_Ionization_Penalty_Charging>
0.151494

> <r_epik_Ionization_Penalty_Neutral>
1.95502e-05

> <r_epik_State_Penalty>
0.141395

> <r_epik_Charging_Adjusted_Penalty>
0.292889

> <i_epik_Tot_Q>
1

> <i_epik_Tot_abs_Q>
1

> <r_epik_Metal_State_Penalty>
0.141632

> <b_epik_Metal_Only>
0

> <s_lp_Force_Field>
OPLS_2005

> <r_lp_Energy>
18.1204

> <b_lp_Chiralities_Consistent>
1

> <s_lp_Variant>
AV-unprocessed.smi:3028-1

> <Gold.Version>
5.8.1

> <Gold.Id.Protein>
6NUR|6NUR_protein|mol2

> <Gold.PLP.Fitness>
53.6030

> <Gold.PLP.PLP>
-46.7109

> <Gold.PLP.part.hbond>
-2.0000

> <Gold.PLP.part.metal>
0.0000

> <Gold.PLP.part.buried>
-7.6509

> <Gold.PLP.part.nonpolar>
-38.5161

> <Gold.PLP.part.repulsive>
0.2669

> <Gold.PLP.ligand.clash>
0.0000

> <Gold.PLP.ligand.torsion>
0.9120

> <Gold.PLP.Chemscore.Hbond>
2.8000

> <Gold.PLP.Chemscore.CHOScore>
0.0000

> <Gold.PLP.Chemscore.Metal>
0.0000

> <Gold.Chemscore.Hbonds>
donor molecule, donor type, donor heavy atom, donor atom, acceptor molecule, acceptor atom, score
      L1  H    10    34       P1  8028  2.00
      L1  H    14    37       P1  8028  0.78

> <Gold.PLP.Chemscore.Internal.Correction>
0.3161

> <Gold.Rescore>
     Score         DG    S(hbond)    S(metal)    S(lipo)     H(rot)  DE(clash)    DE(int)     intcor
     17.32     -19.71       1.84        0.00     112.51       1.99       0.07       2.33       ----

> <Gold.Chemscore.Fitness>
17.3179

> <Gold.Chemscore.DG>
-19.7112

> <Gold.Chemscore.ZeroCoef>
-5.4800

> <Gold.Chemscore.Hbond>
1.8445

> <Gold.Chemscore.Metal>
0.0000

> <Gold.Chemscore.Lipo>
112.5144

> <Gold.Chemscore.Internal_Hbond>
0.0000

> <Gold.Chemscore.DEClash>
0.0676

> <Gold.Chemscore.DEInternal>
2.3258

> <Gold.Chemscore.Rot>
1.9897

> <Gold.Chemscore.Internal.Correction>
   9.000000E+99

> <Gold.Chemscore.Hbonds>
donor molecule, donor type, donor heavy atom, donor atom, acceptor molecule, acceptor atom, score
      L1  H    10    34       P1  8028  0.98
      L1  H    14    37       P1  8028  0.78

> <Gold.Chemscore.Hbond.Weighted>
-6.1606

> <Gold.Chemscore.Metal.Weighted>
-0.0000

> <Gold.Chemscore.Lipo.Weighted>
-13.1642

> <Gold.Chemscore.Internal_Hbond.Weighted>
0.0000

> <Gold.Chemscore.DEClash.Weighted>
0.0676

> <Gold.Chemscore.DEInternal.Weighted>
2.3258

> <Gold.Chemscore.Rot.Weighted>
5.0936

> <Gold.Chemscore.Internal.Correction.Weighted>
   9.000000E+99

> <Gold.Protein.RotatedTorsions>
[ 6907 6896 6895 6894 ] final -128.56 input  -60.11 | X-H torsion
[ 7974 7965 7964 7962 ] final  132.41 input  175.53 | X-H torsion
[ 8008 7997 7996 7995 ] final  163.39 input   59.86 | X-H torsion
[ 10167 10162 10161 10158 ] final -177.14 input  -65.29 | X-H torsion
[ 10718 10713 10712 10709 ] final -111.31 input   66.30 | X-H torsion
[ 10763 10752 10751 10750 ] final  104.14 input  -60.55 | X-H torsion
[ 11005 11000 10999 10996 ] final   26.97 input  -57.11 | X-H torsion

> <Gold.Protein.ActiveResidues>
 VAL166  LYS551  ARG553  GLY616  TRP617  ASP618  TYR619  PRO620  LYS621  CYS622 
 ASP623  PHE694  ASN695  SER759  ASP760  ASP761  ALA762  ILE779  LEU786  VAL792 
 PHE793  MET794  SER795  GLU796  ALA797  LYS798  CYS799  TRP800  GLU811  SER814 

> <Gold.Protein.RotatedAtoms>
  150.9192  133.6901  159.2835 H   0  0  0  0  0  0  0  0  0  0  0  0  # atno 6907 bound_to 6896
  151.4361  135.1014  159.9666 H   0  0  0  0  0  0  0  0  0  0  0  0  # atno 6908 bound_to 6896
  152.4971  133.8611  159.7306 H   0  0  0  0  0  0  0  0  0  0  0  0  # atno 6909 bound_to 6896
  144.9971  139.4348  143.5310 H   0  0  0  0  0  0  0  0  0  0  0  0  # atno 7974 bound_to 7965
  156.1960  140.1725  156.7996 H   0  0  0  0  0  0  0  0  0  0  0  0  # atno 8008 bound_to 7997
  154.5531  140.0714  156.8731 H   0  0  0  0  0  0  0  0  0  0  0  0  # atno 8009 bound_to 7997
  155.2991  140.3360  155.4251 H   0  0  0  0  0  0  0  0  0  0  0  0  # atno 8010 bound_to 7997
  139.5495  144.2147  152.1050 H   0  0  0  0  0  0  0  0  0  0  0  0  # atno 10167 bound_to 10162
  156.0640  130.5861  150.8356 H   0  0  0  0  0  0  0  0  0  0  0  0  # atno 10718 bound_to 10713
  153.3620  135.3953  155.1725 H   0  0  0  0  0  0  0  0  0  0  0  0  # atno 10763 bound_to 10752
  154.8680  135.3682  154.5087 H   0  0  0  0  0  0  0  0  0  0  0  0  # atno 10764 bound_to 10752
  153.5548  135.7082  153.5635 H   0  0  0  0  0  0  0  0  0  0  0  0  # atno 10765 bound_to 10752
  140.3313  134.2435  155.7702 H   0  0  0  0  0  0  0  0  0  0  0  0  # atno 11005 bound_to 11000
  146.3444  139.9338  142.8750 LP  0  0  0  0  0  0  0  0  0  0  0  0  # atno 17320 bound_to 7965
  145.2204  140.9933  143.4049 LP  0  0  0  0  0  0  0  0  0  0  0  0  # atno 17321 bound_to 7965
  140.1640  144.4999  150.6616 LP  0  0  0  0  0  0  0  0  0  0  0  0  # atno 17342 bound_to 10162
  140.6753  143.2302  151.5523 LP  0  0  0  0  0  0  0  0  0  0  0  0  # atno 17343 bound_to 10162
  157.5669  131.0946  150.9477 LP  0  0  0  0  0  0  0  0  0  0  0  0  # atno 17370 bound_to 10713
  156.9702  130.5488  149.5290 LP  0  0  0  0  0  0  0  0  0  0  0  0  # atno 17371 bound_to 10713
  141.2062  133.7838  157.0187 LP  0  0  0  0  0  0  0  0  0  0  0  0  # atno 17394 bound_to 11000
  140.0858  134.9621  157.1698 LP  0  0  0  0  0  0  0  0  0  0  0  0  # atno 17395 bound_to 11000

$$$$
