AV-unprocessed.smi:249|AV-procd|sdf|1916|dock1
  -GOLD-   2262021 13D 1   1.00000     0.00000
 Structure written by MMmdl.
 64 67  0  0  0  0  0  0  0  0  2 V2000
  146.3787  129.5391  152.9014 C   0  0  0  0  0  0  0  0  0  0  0  0
  146.5809  131.0121  153.2889 C   0  0  0  0  0  0  0  0  0  0  0  0
  147.8645  131.5816  152.7824 N   0  3  2  0  0  0  0  0  0  0  0  0
  149.0552  131.2242  153.6049 C   0  0  0  0  0  0  0  0  0  0  0  0
  149.0856  131.9912  154.9409 C   0  0  0  0  0  0  0  0  0  0  0  0
  149.0247  133.5124  154.7000 C   0  0  2  0  0  0  0  0  0  0  0  0
  149.0579  134.2817  155.9491 N   0  0  0  0  0  0  0  0  0  0  0  0
  149.0780  133.5840  157.2347 C   0  0  0  0  0  0  0  0  0  0  0  0
  149.7380  135.4556  155.8850 C   0  0  0  0  0  0  0  0  0  0  0  0
  150.1992  135.9024  154.6861 N   0  0  0  0  0  0  0  0  0  0  0  0
  150.8508  137.0661  154.6051 C   0  0  0  0  0  0  0  0  0  0  0  0
  151.1414  137.9286  155.5804 N   0  0  0  0  0  0  0  0  0  0  0  0
  150.6856  137.4852  156.7864 C   0  0  0  0  0  0  0  0  0  0  0  0
  149.9871  136.2685  157.0268 C   0  0  0  0  0  0  0  0  0  0  0  0
  149.7042  136.1450  158.3823 N   0  0  0  0  0  0  0  0  0  0  0  0
  150.1981  137.2309  158.9113 C   0  0  0  0  0  0  0  0  0  0  0  0
  150.7815  138.1044  158.0210 N   0  0  0  0  0  0  0  0  0  0  0  0
  151.4052  139.3762  158.3416 C   0  0  0  0  0  0  0  0  0  0  0  0
  150.8149  140.6072  157.5973 C   0  0  2  0  0  0  0  0  0  0  0  0
  151.3455  140.6178  156.1428 C   0  0  0  0  0  0  0  0  0  0  0  0
  150.3374  140.9964  155.2280 O   0  0  0  0  0  0  0  0  0  0  0  0
  151.0989  141.9638  158.3112 C   0  0  2  0  0  0  0  0  0  0  0  0
  151.0214  143.2099  157.4394 C   0  0  0  0  0  0  0  0  0  0  0  0
  151.8044  144.2448  158.2402 C   0  0  0  0  0  0  0  0  0  0  0  0
  152.7593  143.5139  158.9964 O   0  0  0  0  0  0  0  0  0  0  0  0
  152.5323  142.1193  158.8377 C   0  0  0  0  0  0  0  0  0  0  0  0
  147.8155  133.8685  153.8133 C   0  0  0  0  0  0  0  0  0  0  0  0
  147.8432  133.0510  152.5049 C   0  0  2  0  0  0  0  0  0  0  0  0
  146.7412  133.4776  151.5186 C   0  0  0  0  0  0  0  0  0  0  0  0
  145.3686  129.2151  153.1536 H   0  0  0  0  0  0  0  0  0  0  0  0
  147.0634  128.8757  153.4286 H   0  0  0  0  0  0  0  0  0  0  0  0
  146.5135  129.3884  151.8299 H   0  0  0  0  0  0  0  0  0  0  0  0
  145.7424  131.5579  152.8611 H   0  0  0  0  0  0  0  0  0  0  0  0
  146.4999  131.1295  154.3693 H   0  0  0  0  0  0  0  0  0  0  0  0
  149.1117  130.1513  153.7798 H   0  0  0  0  0  0  0  0  0  0  0  0
  149.9513  131.4693  153.0329 H   0  0  0  0  0  0  0  0  0  0  0  0
  148.2587  131.6678  155.5732 H   0  0  0  0  0  0  0  0  0  0  0  0
  149.9979  131.7376  155.4822 H   0  0  0  0  0  0  0  0  0  0  0  0
  149.9094  133.7649  154.1163 H   0  0  0  0  0  0  0  0  0  0  0  0
  148.9359  134.2862  158.0572 H   0  0  0  0  0  0  0  0  0  0  0  0
  150.0268  133.0690  157.3871 H   0  0  0  0  0  0  0  0  0  0  0  0
  148.2765  132.8499  157.2996 H   0  0  0  0  0  0  0  0  0  0  0  0
  151.1834  137.3487  153.6171 H   0  0  0  0  0  0  0  0  0  0  0  0
  150.1367  137.4325  159.9708 H   0  0  0  0  0  0  0  0  0  0  0  0
  151.3398  139.5322  159.4191 H   0  0  0  0  0  0  0  0  0  0  0  0
  152.4662  139.2656  158.1165 H   0  0  0  0  0  0  0  0  0  0  0  0
  149.7324  140.4907  157.5363 H   0  0  0  0  0  0  0  0  0  0  0  0
  152.1563  141.3336  156.0165 H   0  0  0  0  0  0  0  0  0  0  0  0
  151.7366  139.6384  155.8655 H   0  0  0  0  0  0  0  0  0  0  0  0
  149.5436  141.1714  155.7100 H   0  0  0  0  0  0  0  0  0  0  0  0
  150.4113  142.0816  159.1501 H   0  0  0  0  0  0  0  0  0  0  0  0
  151.5093  143.0338  156.4796 H   0  0  0  0  0  0  0  0  0  0  0  0
  150.0066  143.5532  157.2491 H   0  0  0  0  0  0  0  0  0  0  0  0
  152.2852  144.9851  157.6002 H   0  0  0  0  0  0  0  0  0  0  0  0
  151.1454  144.7711  158.9318 H   0  0  0  0  0  0  0  0  0  0  0  0
  152.6935  141.5986  159.7819 H   0  0  0  0  0  0  0  0  0  0  0  0
  153.2525  141.7371  158.1126 H   0  0  0  0  0  0  0  0  0  0  0  0
  146.8773  133.6879  154.3371 H   0  0  0  0  0  0  0  0  0  0  0  0
  147.8384  134.9343  153.5825 H   0  0  0  0  0  0  0  0  0  0  0  0
  148.7865  133.2734  152.0030 H   0  0  0  0  0  0  0  0  0  0  0  0
  146.9016  134.5040  151.1872 H   0  0  0  0  0  0  0  0  0  0  0  0
  145.7483  133.4435  151.9672 H   0  0  0  0  0  0  0  0  0  0  0  0
  146.7374  132.8452  150.6304 H   0  0  0  0  0  0  0  0  0  0  0  0
  148.0088  131.1413  151.8849 H   0  0  0  0  0  0  0  0  0  0  0  0
  1  2  1  0  0  0  0
  1 30  1  0  0  0  0
  1 31  1  0  0  0  0
  1 32  1  0  0  0  0
  2  3  1  0  0  0  0
  2 33  1  0  0  0  0
  2 34  1  0  0  0  0
  3 28  1  0  0  0  0
  3  4  1  0  0  0  0
  3 64  1  0  0  0  0
  4  5  1  0  0  0  0
  4 35  1  0  0  0  0
  4 36  1  0  0  0  0
  5  6  1  0  0  0  0
  5 37  1  0  0  0  0
  5 38  1  0  0  0  0
  6  7  1  0  0  0  0
  6 27  1  0  0  0  0
  6 39  1  0  0  0  0
  7  8  1  0  0  0  0
  7  9  1  0  0  0  0
  8 40  1  0  0  0  0
  8 41  1  0  0  0  0
  8 42  1  0  0  0  0
  9 14  1  0  0  0  0
  9 10  2  0  0  0  0
 10 11  1  0  0  0  0
 11 12  2  0  0  0  0
 11 43  1  0  0  0  0
 12 13  1  0  0  0  0
 13 17  1  0  0  0  0
 13 14  2  0  0  0  0
 14 15  1  0  0  0  0
 15 16  2  0  0  0  0
 16 17  1  0  0  0  0
 16 44  1  0  0  0  0
 17 18  1  0  0  0  0
 18 19  1  0  0  0  0
 18 45  1  0  0  0  0
 18 46  1  0  0  0  0
 19 20  1  0  0  0  0
 19 22  1  0  0  0  0
 19 47  1  0  0  0  0
 20 21  1  0  0  0  0
 20 48  1  0  0  0  0
 20 49  1  0  0  0  0
 21 50  1  0  0  0  0
 22 26  1  0  0  0  0
 22 23  1  0  0  0  0
 22 51  1  0  0  0  0
 23 24  1  0  0  0  0
 23 52  1  0  0  0  0
 23 53  1  0  0  0  0
 24 25  1  0  0  0  0
 24 54  1  0  0  0  0
 24 55  1  0  0  0  0
 25 26  1  0  0  0  0
 26 56  1  0  0  0  0
 26 57  1  0  0  0  0
 27 28  1  0  0  0  0
 27 58  1  0  0  0  0
 27 59  1  0  0  0  0
 28 29  1  0  0  0  0
 28 60  1  0  0  0  0
 29 61  1  0  0  0  0
 29 62  1  0  0  0  0
 29 63  1  0  0  0  0
M  CHG  1   3   1
M  END
> <s_m_source_file>
AV-unprocessed.smi

> <i_m_source_file_index>
249

> <i_lp_mmshare_version>
43012

> <i_f3d_flags>
0

> <s_epik_input>
W0NIM11bQ0gyXU4xW0NIMl1bQ0gyXVtDQEhdKFtDSDJdW0NASF0xW0NIM10pTihbQ0gzXSljKG5bY0hdbjIpYyhjMjMpbltjSF1uM1tDSDJdW0NASF0oW0NIMl1bT0hdKVtDQEBIXTRbQ0gyXVtDSDJdT1tDSDJdNA==

> <s_epik_cmdline>
J2VwaWtfcHl0aG9uJywgJy1waCcsICc3LjAnLCAnLXRuJywgJzgnLCAnLW1hJywgJzIwMCcsICctbWV0YWxfYmluZGluZycsICctaW1hZScsICc8aW5maWxlLm1hZT4nLCAnLW9tYWUnLCAnPG91dGZpbGUubWFlPic=

> <r_lp_tautomer_probability>
1

> <r_epik_Ionization_Penalty>
0.00294688

> <r_epik_Ionization_Penalty_Charging>
0.00169971

> <r_epik_Ionization_Penalty_Neutral>
0.00124717

> <r_epik_State_Penalty>
-0

> <r_epik_Charging_Adjusted_Penalty>
0.00169971

> <i_epik_Tot_Q>
1

> <i_epik_Tot_abs_Q>
1

> <r_epik_Metal_State_Penalty>
-0

> <b_epik_Metal_Only>
0

> <s_lp_Force_Field>
OPLS_2005

> <r_lp_Energy>
55.1027

> <b_lp_Chiralities_Consistent>
1

> <s_lp_Variant>
AV-unprocessed.smi:249-19

> <Gold.Version>
5.8.1

> <Gold.Id.Protein>
6NUR|6NUR_protein|mol2

> <Gold.PLP.Fitness>
55.8815

> <Gold.PLP.PLP>
-47.2200

> <Gold.PLP.part.hbond>
-3.0000

> <Gold.PLP.part.metal>
0.0000

> <Gold.PLP.part.buried>
-7.0305

> <Gold.PLP.part.nonpolar>
-38.0823

> <Gold.PLP.part.repulsive>
0.2115

> <Gold.PLP.ligand.clash>
0.0000

> <Gold.PLP.ligand.torsion>
1.8866

> <Gold.PLP.Chemscore.Hbond>
2.7600

> <Gold.PLP.Chemscore.CHOScore>
0.9595

> <Gold.PLP.Chemscore.Metal>
0.0000

> <Gold.Chemscore.Hbonds>
donor molecule, donor type, donor heavy atom, donor atom, acceptor molecule, acceptor atom, score
      L1  H     3    64       P1 10747  1.00
      P1  H  6896  6909       L1    15  0.62
      P1  H  7989  7998       L1    21  0.38
      L1  C    11    43       P1  7949  0.98

> <Gold.PLP.Chemscore.Internal.Correction>
1.2763

> <Gold.Rescore>
     Score         DG    S(hbond)    S(metal)    S(lipo)     H(rot)  DE(clash)    DE(int)     intcor
     14.60     -19.05       2.36        0.00     106.75       2.65       0.13       4.32       ----

> <Gold.Chemscore.Fitness>
14.6016

> <Gold.Chemscore.DG>
-19.0514

> <Gold.Chemscore.ZeroCoef>
-5.4800

> <Gold.Chemscore.Hbond>
2.3563

> <Gold.Chemscore.Metal>
0.0000

> <Gold.Chemscore.Lipo>
106.7470

> <Gold.Chemscore.Internal_Hbond>
0.0000

> <Gold.Chemscore.DEClash>
0.1263

> <Gold.Chemscore.DEInternal>
4.3235

> <Gold.Chemscore.Rot>
2.6515

> <Gold.Chemscore.Internal.Correction>
   9.000000E+99

> <Gold.Chemscore.Hbonds>
donor molecule, donor type, donor heavy atom, donor atom, acceptor molecule, acceptor atom, score
      L1  H     3    64       P1 10747  0.97
      P1  H  6896  6909       L1    15  0.23
      P1  H  7989  7998       L1    21  0.05

> <Gold.Chemscore.Hbond.Weighted>
-7.8700

> <Gold.Chemscore.Metal.Weighted>
-0.0000

> <Gold.Chemscore.Lipo.Weighted>
-12.4894

> <Gold.Chemscore.Internal_Hbond.Weighted>
0.0000

> <Gold.Chemscore.DEClash.Weighted>
0.1263

> <Gold.Chemscore.DEInternal.Weighted>
4.3235

> <Gold.Chemscore.Rot.Weighted>
6.7880

> <Gold.Chemscore.Internal.Correction.Weighted>
   9.000000E+99

> <Gold.Protein.RotatedTorsions>
[ 6907 6896 6895 6894 ] final   47.70 input  -60.11 | X-H torsion
[ 7974 7965 7964 7962 ] final  162.85 input  175.53 | X-H torsion
[ 8008 7997 7996 7995 ] final -106.93 input   59.86 | X-H torsion
[ 10167 10162 10161 10158 ] final   51.63 input  -65.29 | X-H torsion
[ 10718 10713 10712 10709 ] final  167.23 input   66.30 | X-H torsion
[ 10763 10752 10751 10750 ] final  -71.15 input  -60.55 | X-H torsion
[ 11005 11000 10999 10996 ] final   45.08 input  -57.11 | X-H torsion

> <Gold.Protein.ActiveResidues>
 VAL166  LYS551  ARG553  GLY616  TRP617  ASP618  TYR619  PRO620  LYS621  CYS622 
 ASP623  PHE694  ASN695  SER759  ASP760  ASP761  ALA762  ILE779  LEU786  VAL792 
 PHE793  MET794  SER795  GLU796  ALA797  LYS798  CYS799  TRP800  GLU811  SER814 

> <Gold.Protein.RotatedAtoms>
  152.2711  134.7931  160.0413 H   0  0  0  0  0  0  0  0  0  0  0  0  # atno 6907 bound_to 6896
  151.8544  133.3440  159.3691 H   0  0  0  0  0  0  0  0  0  0  0  0  # atno 6908 bound_to 6896
  150.7152  134.5196  159.5691 H   0  0  0  0  0  0  0  0  0  0  0  0  # atno 6909 bound_to 6896
  144.7617  139.8099  143.6330 H   0  0  0  0  0  0  0  0  0  0  0  0  # atno 7974 bound_to 7965
  154.9218  140.0407  157.2002 H   0  0  0  0  0  0  0  0  0  0  0  0  # atno 8008 bound_to 7997
  154.8246  140.2889  155.5742 H   0  0  0  0  0  0  0  0  0  0  0  0  # atno 8009 bound_to 7997
  156.2982  140.2512  156.3160 H   0  0  0  0  0  0  0  0  0  0  0  0  # atno 8010 bound_to 7997
  140.2599  144.3385  150.6321 H   0  0  0  0  0  0  0  0  0  0  0  0  # atno 10167 bound_to 10162
  157.0545  131.0322  151.2669 H   0  0  0  0  0  0  0  0  0  0  0  0  # atno 10718 bound_to 10713
  154.4277  135.5971  153.6049 H   0  0  0  0  0  0  0  0  0  0  0  0  # atno 10763 bound_to 10752
  152.9797  135.5967  154.3877 H   0  0  0  0  0  0  0  0  0  0  0  0  # atno 10764 bound_to 10752
  154.3711  135.2841  155.2244 H   0  0  0  0  0  0  0  0  0  0  0  0  # atno 10765 bound_to 10752
  140.1492  134.4483  155.8394 H   0  0  0  0  0  0  0  0  0  0  0  0  # atno 11005 bound_to 11000
  146.1686  139.4827  142.9942 LP  0  0  0  0  0  0  0  0  0  0  0  0  # atno 17320 bound_to 7965
  145.6599  141.0243  143.1714 LP  0  0  0  0  0  0  0  0  0  0  0  0  # atno 17321 bound_to 7965
  140.5974  143.2167  151.7137 LP  0  0  0  0  0  0  0  0  0  0  0  0  # atno 17342 bound_to 10162
  139.5020  144.3846  152.0342 LP  0  0  0  0  0  0  0  0  0  0  0  0  # atno 17343 bound_to 10162
  157.5004  130.7876  149.7599 LP  0  0  0  0  0  0  0  0  0  0  0  0  # atno 17370 bound_to 10713
  155.9997  130.3887  150.2653 LP  0  0  0  0  0  0  0  0  0  0  0  0  # atno 17371 bound_to 10713
  141.2197  133.6865  156.7390 LP  0  0  0  0  0  0  0  0  0  0  0  0  # atno 17394 bound_to 11000
  140.2626  134.8455  157.3772 LP  0  0  0  0  0  0  0  0  0  0  0  0  # atno 17395 bound_to 11000

$$$$
