AV-unprocessed.smi:3199|AV-procd|sdf|12231|dock2
  -GOLD-   2272018 63D 1   1.00000     0.00000
 Structure written by MMmdl.
 35 36  0  0  0  0  0  0  0  0  1 V2000
  151.5649  145.5718  160.1643 C   0  0  0  0  0  0  0  0  0  0  0  0
  151.8573  144.1026  159.9427 C   0  0  0  0  0  0  0  0  0  0  0  0
  152.5358  143.3439  160.9198 C   0  0  0  0  0  0  0  0  0  0  0  0
  152.7789  141.9811  160.6610 C   0  0  0  0  0  0  0  0  0  0  0  0
  152.3379  141.4317  159.4397 C   0  0  0  0  0  0  0  0  0  0  0  0
  152.5675  139.9689  159.1148 C   0  0  0  0  0  0  0  0  0  0  0  0
  151.2515  139.2285  158.8261 C   0  0  0  0  0  0  0  0  0  0  0  0
  150.7518  139.5183  157.4875 N   0  0  0  0  0  0  0  0  0  0  0  0
  151.5013  139.5745  156.3758 C   0  0  0  0  0  0  0  0  0  0  0  0
  152.7159  139.3714  156.3762 O   0  0  0  0  0  0  0  0  0  0  0  0
  150.7460  139.9029  155.0794 C   0  0  2  0  0  0  0  0  0  0  0  0
  149.8529  141.1615  155.1139 C   0  0  0  0  0  0  0  0  0  0  0  0
  148.4466  140.6105  154.9765 C   0  0  0  0  0  0  0  0  0  0  0  0
  148.6838  139.3268  154.1950 C   0  0  0  0  0  0  0  0  0  0  0  0
  149.8691  138.8167  154.7831 O   0  0  0  0  0  0  0  0  0  0  0  0
  151.6693  142.2774  158.5296 C   0  0  0  0  0  0  0  0  0  0  0  0
  151.4310  143.5848  158.7695 N   0  0  0  0  0  0  0  0  0  0  0  0
  151.9022  145.8986  161.1484 H   0  0  0  0  0  0  0  0  0  0  0  0
  150.4934  145.7612  160.0924 H   0  0  0  0  0  0  0  0  0  0  0  0
  152.0725  146.1766  159.4122 H   0  0  0  0  0  0  0  0  0  0  0  0
  152.8619  143.7922  161.8469 H   0  0  0  0  0  0  0  0  0  0  0  0
  153.2929  141.3708  161.3891 H   0  0  0  0  0  0  0  0  0  0  0  0
  153.2364  139.9035  158.2556 H   0  0  0  0  0  0  0  0  0  0  0  0
  153.0890  139.4953  159.9478 H   0  0  0  0  0  0  0  0  0  0  0  0
  151.4081  138.1519  158.8992 H   0  0  0  0  0  0  0  0  0  0  0  0
  150.4955  139.4836  159.5706 H   0  0  0  0  0  0  0  0  0  0  0  0
  149.7626  139.7010  157.3988 H   0  0  0  0  0  0  0  0  0  0  0  0
  151.4703  139.9979  154.2686 H   0  0  0  0  0  0  0  0  0  0  0  0
  149.9564  141.7810  156.0048 H   0  0  0  0  0  0  0  0  0  0  0  0
  150.0868  141.7951  154.2574 H   0  0  0  0  0  0  0  0  0  0  0  0
  148.0376  140.3774  155.9604 H   0  0  0  0  0  0  0  0  0  0  0  0
  147.7645  141.2971  154.4739 H   0  0  0  0  0  0  0  0  0  0  0  0
  147.8571  138.6213  154.2781 H   0  0  0  0  0  0  0  0  0  0  0  0
  148.8584  139.5368  153.1386 H   0  0  0  0  0  0  0  0  0  0  0  0
  151.3126  141.8945  157.5846 H   0  0  0  0  0  0  0  0  0  0  0  0
  1  2  1  0  0  0  0
  1 18  1  0  0  0  0
  1 19  1  0  0  0  0
  1 20  1  0  0  0  0
  2 17  1  0  0  0  0
  2  3  2  0  0  0  0
  3  4  1  0  0  0  0
  3 21  1  0  0  0  0
  4  5  2  0  0  0  0
  4 22  1  0  0  0  0
  5  6  1  0  0  0  0
  5 16  1  0  0  0  0
  6  7  1  0  0  0  0
  6 23  1  0  0  0  0
  6 24  1  0  0  0  0
  7  8  1  0  0  0  0
  7 25  1  0  0  0  0
  7 26  1  0  0  0  0
  8  9  1  0  0  0  0
  8 27  1  0  0  0  0
  9 10  2  0  0  0  0
  9 11  1  0  0  0  0
 11 15  1  0  0  0  0
 11 12  1  0  0  0  0
 11 28  1  0  0  0  0
 12 13  1  0  0  0  0
 12 29  1  0  0  0  0
 12 30  1  0  0  0  0
 13 14  1  0  0  0  0
 13 31  1  0  0  0  0
 13 32  1  0  0  0  0
 14 15  1  0  0  0  0
 14 33  1  0  0  0  0
 14 34  1  0  0  0  0
 16 17  2  0  0  0  0
 16 35  1  0  0  0  0
M  END
> <s_m_source_file>
AV-unprocessed.smi

> <i_m_source_file_index>
3199

> <i_lp_mmshare_version>
43012

> <i_f3d_flags>
0

> <s_epik_input>
W0NIM11jMVtjSF1bY0hdYyhbY0hdbjEpW0NIMl1bQ0gyXVtOSF1DKD1PKVtDQEBIXTJbQ0gyXVtDSDJdW0NIMl1PMg==

> <s_epik_cmdline>
J2VwaWtfcHl0aG9uJywgJy1waCcsICc3LjAnLCAnLXRuJywgJzgnLCAnLW1hJywgJzIwMCcsICctbWV0YWxfYmluZGluZycsICctaW1hZScsICc8aW5maWxlLm1hZT4nLCAnLW9tYWUnLCAnPG91dGZpbGUubWFlPic=

> <r_epik_Ionization_Penalty>
0.0519155

> <r_epik_Ionization_Penalty_Charging>
0

> <r_epik_Ionization_Penalty_Neutral>
0.0519155

> <r_epik_State_Penalty>
0.0445047

> <r_epik_Charging_Adjusted_Penalty>
0.0445047

> <i_epik_Tot_Q>
0

> <i_epik_Tot_abs_Q>
0

> <r_epik_Metal_State_Penalty>
0.0408967

> <b_epik_Metal_Only>
0

> <s_lp_Force_Field>
OPLS_2005

> <r_lp_Energy>
17.3487

> <b_lp_Chiralities_Consistent>
1

> <s_lp_Variant>
AV-unprocessed.smi:3199-1

> <Gold.Version>
5.8.1

> <Gold.Id.Protein>
6NUR|6NUR_protein|mol2

> <Gold.PLP.Fitness>
38.3963

> <Gold.PLP.PLP>
-35.9879

> <Gold.PLP.part.hbond>
-1.0000

> <Gold.PLP.part.metal>
0.0000

> <Gold.PLP.part.buried>
-2.3714

> <Gold.PLP.part.nonpolar>
-32.2104

> <Gold.PLP.part.repulsive>
0.2489

> <Gold.PLP.ligand.clash>
0.0000

> <Gold.PLP.ligand.torsion>
0.3074

> <Gold.PLP.Chemscore.Hbond>
1.0000

> <Gold.PLP.Chemscore.CHOScore>
0.0000

> <Gold.PLP.Chemscore.Metal>
0.0000

> <Gold.Chemscore.Hbonds>
donor molecule, donor type, donor heavy atom, donor atom, acceptor molecule, acceptor atom, score
      P1  H  7997  8009       L1    10  1.00

> <Gold.PLP.Chemscore.Internal.Correction>
0.0230

> <Gold.Rescore>
     Score         DG    S(hbond)    S(metal)    S(lipo)     H(rot)  DE(clash)    DE(int)     intcor
     14.84     -16.70       1.00        0.00      99.87       1.49       0.04       1.82       ----

> <Gold.Chemscore.Fitness>
14.8408

> <Gold.Chemscore.DG>
-16.6969

> <Gold.Chemscore.ZeroCoef>
-5.4800

> <Gold.Chemscore.Hbond>
0.9988

> <Gold.Chemscore.Metal>
0.0000

> <Gold.Chemscore.Lipo>
99.8691

> <Gold.Chemscore.Internal_Hbond>
0.0000

> <Gold.Chemscore.DEClash>
0.0383

> <Gold.Chemscore.DEInternal>
1.8178

> <Gold.Chemscore.Rot>
1.4859

> <Gold.Chemscore.Internal.Correction>
   9.000000E+99

> <Gold.Chemscore.Hbonds>
donor molecule, donor type, donor heavy atom, donor atom, acceptor molecule, acceptor atom, score
      P1  H  7997  8009       L1    10  1.00

> <Gold.Chemscore.Hbond.Weighted>
-3.3361

> <Gold.Chemscore.Metal.Weighted>
-0.0000

> <Gold.Chemscore.Lipo.Weighted>
-11.6847

> <Gold.Chemscore.Internal_Hbond.Weighted>
0.0000

> <Gold.Chemscore.DEClash.Weighted>
0.0383

> <Gold.Chemscore.DEInternal.Weighted>
1.8178

> <Gold.Chemscore.Rot.Weighted>
3.8039

> <Gold.Chemscore.Internal.Correction.Weighted>
   9.000000E+99

> <Gold.Protein.RotatedTorsions>
[ 6907 6896 6895 6894 ] final  102.18 input  -60.11 | X-H torsion
[ 7974 7965 7964 7962 ] final   48.08 input  175.53 | X-H torsion
[ 8008 7997 7996 7995 ] final -166.44 input   59.86 | X-H torsion
[ 10167 10162 10161 10158 ] final   12.14 input  -65.29 | X-H torsion
[ 10718 10713 10712 10709 ] final  -88.29 input   66.30 | X-H torsion
[ 10763 10752 10751 10750 ] final -174.33 input  -60.55 | X-H torsion
[ 11005 11000 10999 10996 ] final  -59.27 input  -57.11 | X-H torsion

> <Gold.Protein.ActiveResidues>
 VAL166  LYS551  ARG553  GLY616  TRP617  ASP618  TYR619  PRO620  LYS621  CYS622 
 ASP623  PHE694  ASN695  SER759  ASP760  ASP761  ALA762  ILE779  LEU786  VAL792 
 PHE793  MET794  SER795  GLU796  ALA797  LYS798  CYS799  TRP800  GLU811  SER814 

> <Gold.Protein.RotatedAtoms>
  152.5330  134.0014  159.7896 H   0  0  0  0  0  0  0  0  0  0  0  0  # atno 6907 bound_to 6896
  151.0232  133.5850  159.2676 H   0  0  0  0  0  0  0  0  0  0  0  0  # atno 6908 bound_to 6896
  151.2882  135.0741  159.9248 H   0  0  0  0  0  0  0  0  0  0  0  0  # atno 6909 bound_to 6896
  146.0238  139.4682  142.9880 H   0  0  0  0  0  0  0  0  0  0  0  0  # atno 7974 bound_to 7965
  155.8639  140.0982  157.1595 H   0  0  0  0  0  0  0  0  0  0  0  0  # atno 8008 bound_to 7997
  154.3992  140.1360  156.4057 H   0  0  0  0  0  0  0  0  0  0  0  0  # atno 8009 bound_to 7997
  155.7826  140.3458  155.5308 H   0  0  0  0  0  0  0  0  0  0  0  0  # atno 8010 bound_to 7997
  140.6087  143.8454  150.7041 H   0  0  0  0  0  0  0  0  0  0  0  0  # atno 10167 bound_to 10162
  155.9984  130.4830  150.4997 H   0  0  0  0  0  0  0  0  0  0  0  0  # atno 10718 bound_to 10713
  154.5974  135.2851  155.0571 H   0  0  0  0  0  0  0  0  0  0  0  0  # atno 10763 bound_to 10752
  154.1849  135.6450  153.5048 H   0  0  0  0  0  0  0  0  0  0  0  0  # atno 10764 bound_to 10752
  153.0144  135.5432  154.6681 H   0  0  0  0  0  0  0  0  0  0  0  0  # atno 10765 bound_to 10752
  141.1241  133.6615  156.5045 H   0  0  0  0  0  0  0  0  0  0  0  0  # atno 11005 bound_to 11000
  145.7151  141.0093  143.1432 LP  0  0  0  0  0  0  0  0  0  0  0  0  # atno 17320 bound_to 7965
  144.7001  139.8803  143.7446 LP  0  0  0  0  0  0  0  0  0  0  0  0  # atno 17321 bound_to 7965
  140.2017  143.3954  152.1787 LP  0  0  0  0  0  0  0  0  0  0  0  0  # atno 17342 bound_to 10162
  139.5344  144.7194  151.4943 LP  0  0  0  0  0  0  0  0  0  0  0  0  # atno 17343 bound_to 10162
  157.2982  131.0640  151.2086 LP  0  0  0  0  0  0  0  0  0  0  0  0  # atno 17370 bound_to 10713
  157.3075  130.6873  149.6197 LP  0  0  0  0  0  0  0  0  0  0  0  0  # atno 17371 bound_to 10713
  140.4418  134.7008  157.4996 LP  0  0  0  0  0  0  0  0  0  0  0  0  # atno 17394 bound_to 11000
  140.0224  134.6528  155.9221 LP  0  0  0  0  0  0  0  0  0  0  0  0  # atno 17395 bound_to 11000

$$$$
