AV-unprocessed.smi:1670|AV-procd|sdf|6696|dock8
  -GOLD-   22720 7433D 1   1.00000     0.00000
 Structure written by MMmdl.
 41 42  0  0  0  0  0  0  0  0  1 V2000
  144.5652  137.5433  153.3040 C   0  0  0  0  0  0  0  0  0  0  0  0
  145.4348  136.3487  152.8891 C   0  0  1  0  0  0  0  0  0  0  0  0
  145.1567  135.9310  151.4295 C   0  0  0  0  0  0  0  0  0  0  0  0
  145.2793  134.4979  151.2247 N   0  0  0  0  0  0  0  0  0  0  0  0
  144.3319  133.6165  150.7484 C   0  0  0  0  0  0  0  0  0  0  0  0
  144.8971  132.3736  150.7481 C   0  0  0  0  0  0  0  0  0  0  0  0
  146.2108  132.5999  151.2454 C   0  0  0  0  0  0  0  0  0  0  0  0
  146.4384  133.8727  151.5258 N   0  0  0  0  0  0  0  0  0  0  0  0
  146.8433  136.6983  153.0705 N   0  0  0  0  0  0  0  0  0  0  0  0
  147.3522  137.3678  154.1154 C   0  0  0  0  0  0  0  0  0  0  0  0
  146.6806  137.8109  155.0475 O   0  0  0  0  0  0  0  0  0  0  0  0
  148.6845  137.4825  154.0292 N   0  0  0  0  0  0  0  0  0  0  0  0
  149.5385  138.1252  155.0233 C   0  0  2  0  0  0  0  0  0  0  0  0
  149.7983  139.5970  154.6452 C   0  0  0  0  0  0  0  0  0  0  0  0
  150.7481  140.2774  155.6467 C   0  0  0  0  0  0  0  0  0  0  0  0
  152.0680  139.5024  155.8223 C   0  0  2  0  0  0  0  0  0  0  0  0
  152.8544  139.6112  154.6521 O   0  0  0  0  0  0  0  0  0  0  0  0
  151.8156  138.0189  156.1520 C   0  0  0  0  0  0  0  0  0  0  0  0
  150.8635  137.3514  155.1440 C   0  0  0  0  0  0  0  0  0  0  0  0
  143.5047  137.3078  153.2090 H   0  0  0  0  0  0  0  0  0  0  0  0
  144.7683  138.4177  152.6846 H   0  0  0  0  0  0  0  0  0  0  0  0
  144.7479  137.8206  154.3429 H   0  0  0  0  0  0  0  0  0  0  0  0
  145.1714  135.5166  153.5447 H   0  0  0  0  0  0  0  0  0  0  0  0
  144.1442  136.2204  151.1455 H   0  0  0  0  0  0  0  0  0  0  0  0
  145.8306  136.4514  150.7463 H   0  0  0  0  0  0  0  0  0  0  0  0
  143.3438  133.9430  150.4595 H   0  0  0  0  0  0  0  0  0  0  0  0
  144.4406  131.4442  150.4421 H   0  0  0  0  0  0  0  0  0  0  0  0
  147.0007  131.8820  151.4096 H   0  0  0  0  0  0  0  0  0  0  0  0
  147.4836  136.3762  152.3599 H   0  0  0  0  0  0  0  0  0  0  0  0
  149.1455  137.0820  153.2255 H   0  0  0  0  0  0  0  0  0  0  0  0
  149.0406  138.0930  155.9945 H   0  0  0  0  0  0  0  0  0  0  0  0
  150.2254  139.6513  153.6428 H   0  0  0  0  0  0  0  0  0  0  0  0
  148.8575  140.1472  154.6074 H   0  0  0  0  0  0  0  0  0  0  0  0
  150.9489  141.3030  155.3350 H   0  0  0  0  0  0  0  0  0  0  0  0
  150.2471  140.3475  156.6131 H   0  0  0  0  0  0  0  0  0  0  0  0
  152.6416  139.9538  156.6324 H   0  0  0  0  0  0  0  0  0  0  0  0
  152.8644  138.7720  154.2176 H   0  0  0  0  0  0  0  0  0  0  0  0
  152.7596  137.4741  156.1936 H   0  0  0  0  0  0  0  0  0  0  0  0
  151.3800  137.9464  157.1493 H   0  0  0  0  0  0  0  0  0  0  0  0
  150.6685  136.3236  155.4526 H   0  0  0  0  0  0  0  0  0  0  0  0
  151.3490  137.2924  154.1686 H   0  0  0  0  0  0  0  0  0  0  0  0
  1  2  1  0  0  0  0
  1 20  1  0  0  0  0
  1 21  1  0  0  0  0
  1 22  1  0  0  0  0
  2  3  1  0  0  0  0
  2  9  1  0  0  0  0
  2 23  1  0  0  0  0
  3  4  1  0  0  0  0
  3 24  1  0  0  0  0
  3 25  1  0  0  0  0
  4  8  1  0  0  0  0
  4  5  1  0  0  0  0
  5  6  2  0  0  0  0
  5 26  1  0  0  0  0
  6  7  1  0  0  0  0
  6 27  1  0  0  0  0
  7  8  2  0  0  0  0
  7 28  1  0  0  0  0
  9 10  1  0  0  0  0
  9 29  1  0  0  0  0
 10 11  2  0  0  0  0
 10 12  1  0  0  0  0
 12 13  1  0  0  0  0
 12 30  1  0  0  0  0
 13 19  1  0  0  0  0
 13 14  1  0  0  0  0
 13 31  1  0  0  0  0
 14 15  1  0  0  0  0
 14 32  1  0  0  0  0
 14 33  1  0  0  0  0
 15 16  1  0  0  0  0
 15 34  1  0  0  0  0
 15 35  1  0  0  0  0
 16 17  1  0  0  0  0
 16 18  1  0  0  0  0
 16 36  1  0  0  0  0
 17 37  1  0  0  0  0
 18 19  1  0  0  0  0
 18 38  1  0  0  0  0
 18 39  1  0  0  0  0
 19 40  1  0  0  0  0
 19 41  1  0  0  0  0
M  END
> <s_m_source_file>
AV-unprocessed.smi

> <i_m_source_file_index>
1670

> <i_lp_mmshare_version>
43012

> <i_f3d_flags>
0

> <s_epik_input>
bjFbY0hdW2NIXVtjSF1uMVtDSDJdW0NAQEhdKFtDSDNdKVtOSF1DKD1PKVtOSF1bQ0BASF0yW0NIMl1bQ0gyXVtDQEBIXShbT0hdKVtDSDJdW0NIMl0y

> <s_epik_cmdline>
J2VwaWtfcHl0aG9uJywgJy1waCcsICc3LjAnLCAnLXRuJywgJzgnLCAnLW1hJywgJzIwMCcsICctbWV0YWxfYmluZGluZycsICctaW1hZScsICc8aW5maWxlLm1hZT4nLCAnLW9tYWUnLCAnPG91dGZpbGUubWFlPic=

> <r_lp_tautomer_probability>
1

> <r_epik_Ionization_Penalty>
7.33369e-05

> <r_epik_Ionization_Penalty_Charging>
0

> <r_epik_Ionization_Penalty_Neutral>
7.33369e-05

> <r_epik_State_Penalty>
-0

> <r_epik_Charging_Adjusted_Penalty>
0

> <i_epik_Tot_Q>
0

> <i_epik_Tot_abs_Q>
0

> <r_epik_Metal_State_Penalty>
-0

> <b_epik_Metal_Only>
0

> <s_lp_Force_Field>
OPLS_2005

> <r_lp_Energy>
7.95732

> <b_lp_Chiralities_Consistent>
1

> <s_lp_Variant>
AV-unprocessed.smi:1670-4

> <Gold.Version>
5.8.1

> <Gold.Id.Protein>
6NUR|6NUR_protein|mol2

> <Gold.PLP.Fitness>
42.5418

> <Gold.PLP.PLP>
-29.4122

> <Gold.PLP.part.hbond>
-3.5866

> <Gold.PLP.part.metal>
0.0000

> <Gold.PLP.part.buried>
-3.5550

> <Gold.PLP.part.nonpolar>
-23.2355

> <Gold.PLP.part.repulsive>
0.2535

> <Gold.PLP.ligand.clash>
0.0000

> <Gold.PLP.ligand.torsion>
0.9999

> <Gold.PLP.Chemscore.Hbond>
3.0384

> <Gold.PLP.Chemscore.CHOScore>
2.0000

> <Gold.PLP.Chemscore.Metal>
0.0000

> <Gold.Chemscore.Hbonds>
donor molecule, donor type, donor heavy atom, donor atom, acceptor molecule, acceptor atom, score
      L1  H     9    29       P1  7948  0.99
      L1  H    12    30       P1  7948  0.94
      P1  H  7989  7998       L1    17  0.40
      P1  H  7997  8009       L1    17  0.58
      L1  C     5    26       P1 10186  0.95
      L1  C     7    28       P1 10747  1.00

> <Gold.PLP.Chemscore.Internal.Correction>
0.0141

> <Gold.Rescore>
     Score         DG    S(hbond)    S(metal)    S(lipo)     H(rot)  DE(clash)    DE(int)     intcor
     13.31     -15.70       2.52        0.00      63.93       2.22       0.01       2.37       ----

> <Gold.Chemscore.Fitness>
13.3123

> <Gold.Chemscore.DG>
-15.6980

> <Gold.Chemscore.ZeroCoef>
-5.4800

> <Gold.Chemscore.Hbond>
2.5233

> <Gold.Chemscore.Metal>
0.0000

> <Gold.Chemscore.Lipo>
63.9280

> <Gold.Chemscore.Internal_Hbond>
0.0000

> <Gold.Chemscore.DEClash>
0.0130

> <Gold.Chemscore.DEInternal>
2.3726

> <Gold.Chemscore.Rot>
2.2224

> <Gold.Chemscore.Internal.Correction>
   9.000000E+99

> <Gold.Chemscore.Hbonds>
donor molecule, donor type, donor heavy atom, donor atom, acceptor molecule, acceptor atom, score
      L1  H     9    29       P1  7948  0.90
      L1  H    12    30       P1  7948  0.89
      P1  H  7989  7998       L1    17  0.08
      P1  H  7997  8009       L1    17  0.11

> <Gold.Chemscore.Hbond.Weighted>
-8.4277

> <Gold.Chemscore.Metal.Weighted>
-0.0000

> <Gold.Chemscore.Lipo.Weighted>
-7.4796

> <Gold.Chemscore.Internal_Hbond.Weighted>
0.0000

> <Gold.Chemscore.DEClash.Weighted>
0.0130

> <Gold.Chemscore.DEInternal.Weighted>
2.3726

> <Gold.Chemscore.Rot.Weighted>
5.6893

> <Gold.Chemscore.Internal.Correction.Weighted>
   9.000000E+99

> <Gold.Protein.RotatedTorsions>
[ 6907 6896 6895 6894 ] final    0.36 input  -60.11 | X-H torsion
[ 7974 7965 7964 7962 ] final -100.10 input  175.53 | X-H torsion
[ 8008 7997 7996 7995 ] final -111.62 input   59.86 | X-H torsion
[ 10167 10162 10161 10158 ] final  138.98 input  -65.29 | X-H torsion
[ 10718 10713 10712 10709 ] final -116.06 input   66.30 | X-H torsion
[ 10763 10752 10751 10750 ] final  -71.30 input  -60.55 | X-H torsion
[ 11005 11000 10999 10996 ] final  -67.93 input  -57.11 | X-H torsion

> <Gold.Protein.ActiveResidues>
 VAL166  LYS551  ARG553  GLY616  TRP617  ASP618  TYR619  PRO620  LYS621  CYS622 
 ASP623  PHE694  ASN695  SER759  ASP760  ASP761  ALA762  ILE779  LEU786  VAL792 
 PHE793  MET794  SER795  GLU796  ALA797  LYS798  CYS799  TRP800  GLU811  SER814 

> <Gold.Protein.RotatedAtoms>
  151.5752  135.1061  160.0004 H   0  0  0  0  0  0  0  0  0  0  0  0  # atno 6907 bound_to 6896
  152.4381  133.7393  159.6642 H   0  0  0  0  0  0  0  0  0  0  0  0  # atno 6908 bound_to 6896
  150.8282  133.8067  159.3133 H   0  0  0  0  0  0  0  0  0  0  0  0  # atno 6909 bound_to 6896
  145.2990  140.9372  143.2834 H   0  0  0  0  0  0  0  0  0  0  0  0  # atno 7974 bound_to 7965
  154.9926  140.0395  157.2326 H   0  0  0  0  0  0  0  0  0  0  0  0  # atno 8008 bound_to 7997
  154.7615  140.2785  155.6188 H   0  0  0  0  0  0  0  0  0  0  0  0  # atno 8009 bound_to 7997
  156.2905  140.2627  156.2394 H   0  0  0  0  0  0  0  0  0  0  0  0  # atno 8010 bound_to 7997
  139.5093  144.6322  151.5789 H   0  0  0  0  0  0  0  0  0  0  0  0  # atno 10167 bound_to 10162
  156.0938  130.6115  150.8987 H   0  0  0  0  0  0  0  0  0  0  0  0  # atno 10718 bound_to 10713
  154.4298  135.5966  153.6061 H   0  0  0  0  0  0  0  0  0  0  0  0  # atno 10763 bound_to 10752
  152.9798  135.5972  154.3853 H   0  0  0  0  0  0  0  0  0  0  0  0  # atno 10764 bound_to 10752
  154.3690  135.2841  155.2256 H   0  0  0  0  0  0  0  0  0  0  0  0  # atno 10765 bound_to 10752
  141.1520  133.6729  156.6368 H   0  0  0  0  0  0  0  0  0  0  0  0  # atno 11005 bound_to 11000
  144.9109  139.4529  143.6587 LP  0  0  0  0  0  0  0  0  0  0  0  0  # atno 17320 bound_to 7965
  146.3159  139.7917  142.8984 LP  0  0  0  0  0  0  0  0  0  0  0  0  # atno 17321 bound_to 7965
  140.6058  143.9526  150.6418 LP  0  0  0  0  0  0  0  0  0  0  0  0  # atno 17342 bound_to 10162
  140.2753  143.3427  152.1201 LP  0  0  0  0  0  0  0  0  0  0  0  0  # atno 17343 bound_to 10162
  157.6094  131.0937  150.8822 LP  0  0  0  0  0  0  0  0  0  0  0  0  # atno 17370 bound_to 10713
  156.8964  130.5231  149.5284 LP  0  0  0  0  0  0  0  0  0  0  0  0  # atno 17371 bound_to 10713
  140.3424  134.7837  157.4407 LP  0  0  0  0  0  0  0  0  0  0  0  0  # atno 17394 bound_to 11000
  140.0927  134.5579  155.8429 LP  0  0  0  0  0  0  0  0  0  0  0  0  # atno 17395 bound_to 11000

$$$$
