AV-unprocessed.smi:2736|AV-procd|sdf|10545|dock3
  -GOLD-   2272014593D 1   1.00000     0.00000
 Structure written by MMmdl.
 38 40  0  0  0  0  0  0  0  0  1 V2000
  154.6318  139.6651  160.5791 C   0  0  0  0  0  0  0  0  0  0  0  0
  153.7211  140.7857  160.2784 N   0  0  0  0  0  0  0  0  0  0  0  0
  153.0853  140.7957  159.0647 C   0  0  0  0  0  0  0  0  0  0  0  0
  153.2127  139.9348  158.1939 O   0  0  0  0  0  0  0  0  0  0  0  0
  152.2053  141.9496  158.8662 C   0  0  0  0  0  0  0  0  0  0  0  0
  152.0336  142.9161  159.7997 C   0  0  0  0  0  0  0  0  0  0  0  0
  151.1459  143.8921  159.3612 N   0  0  0  0  0  0  0  0  0  0  0  0
  150.8229  143.4469  158.1458 C   0  0  0  0  0  0  0  0  0  0  0  0
  151.4150  142.2937  157.7716 N   0  0  0  0  0  0  0  0  0  0  0  0
  151.2385  141.6032  156.5024 C   0  0  0  0  0  0  0  0  0  0  0  0
  150.1647  140.4972  156.5647 C   0  0  2  0  0  0  0  0  0  0  0  0
  150.7906  139.2275  156.5941 O   0  0  0  0  0  0  0  0  0  0  0  0
  149.1762  140.6255  155.4080 C   0  0  0  0  0  0  0  0  0  0  0  0
  148.3468  141.7686  155.3326 C   0  0  0  0  0  0  0  0  0  0  0  0
  147.4187  141.9169  154.2850 C   0  0  0  0  0  0  0  0  0  0  0  0
  147.3067  140.9197  153.3001 C   0  0  0  0  0  0  0  0  0  0  0  0
  148.1202  139.7739  153.3688 C   0  0  0  0  0  0  0  0  0  0  0  0
  149.0506  139.6187  154.4163 C   0  0  0  0  0  0  0  0  0  0  0  0
  150.0084  138.1799  154.4493 Cl  0  0  0  0  0  0  0  0  0  0  0  0
  152.7396  142.8113  161.0238 N   0  0  0  0  0  0  0  0  0  0  0  0
  152.5332  143.8776  162.0082 C   0  0  0  0  0  0  0  0  0  0  0  0
  153.5813  141.7514  161.2615 C   0  0  0  0  0  0  0  0  0  0  0  0
  154.1980  141.6634  162.3268 O   0  0  0  0  0  0  0  0  0  0  0  0
  154.7097  138.9125  159.7937 H   0  0  0  0  0  0  0  0  0  0  0  0
  154.3054  139.1394  161.4779 H   0  0  0  0  0  0  0  0  0  0  0  0
  155.6432  140.0349  160.7554 H   0  0  0  0  0  0  0  0  0  0  0  0
  150.1366  143.9801  157.5043 H   0  0  0  0  0  0  0  0  0  0  0  0
  150.9892  142.3376  155.7364 H   0  0  0  0  0  0  0  0  0  0  0  0
  152.1990  141.1767  156.2097 H   0  0  0  0  0  0  0  0  0  0  0  0
  149.6332  140.5739  157.5120 H   0  0  0  0  0  0  0  0  0  0  0  0
  151.7260  139.3562  156.6367 H   0  0  0  0  0  0  0  0  0  0  0  0
  148.4163  142.5409  156.0848 H   0  0  0  0  0  0  0  0  0  0  0  0
  146.7917  142.7953  154.2388 H   0  0  0  0  0  0  0  0  0  0  0  0
  146.5953  141.0311  152.4952 H   0  0  0  0  0  0  0  0  0  0  0  0
  148.0273  139.0076  152.6134 H   0  0  0  0  0  0  0  0  0  0  0  0
  153.0854  143.7463  162.9391 H   0  0  0  0  0  0  0  0  0  0  0  0
  151.4759  143.9437  162.2665 H   0  0  0  0  0  0  0  0  0  0  0  0
  152.8341  144.8367  161.5855 H   0  0  0  0  0  0  0  0  0  0  0  0
  1  2  1  0  0  0  0
  1 24  1  0  0  0  0
  1 25  1  0  0  0  0
  1 26  1  0  0  0  0
  2 22  1  0  0  0  0
  2  3  1  0  0  0  0
  3  4  2  0  0  0  0
  3  5  1  0  0  0  0
  5  9  1  0  0  0  0
  5  6  2  0  0  0  0
  6  7  1  0  0  0  0
  6 20  1  0  0  0  0
  7  8  2  0  0  0  0
  8  9  1  0  0  0  0
  8 27  1  0  0  0  0
  9 10  1  0  0  0  0
 10 11  1  0  0  0  0
 10 28  1  0  0  0  0
 10 29  1  0  0  0  0
 11 12  1  0  0  0  0
 11 13  1  0  0  0  0
 11 30  1  0  0  0  0
 12 31  1  0  0  0  0
 13 18  1  0  0  0  0
 13 14  2  0  0  0  0
 14 15  1  0  0  0  0
 14 32  1  0  0  0  0
 15 16  2  0  0  0  0
 15 33  1  0  0  0  0
 16 17  1  0  0  0  0
 16 34  1  0  0  0  0
 17 18  2  0  0  0  0
 17 35  1  0  0  0  0
 18 19  1  0  0  0  0
 20 21  1  0  0  0  0
 20 22  1  0  0  0  0
 21 36  1  0  0  0  0
 21 37  1  0  0  0  0
 21 38  1  0  0  0  0
 22 23  2  0  0  0  0
M  END
> <s_m_source_file>
AV-unprocessed.smi

> <i_m_source_file_index>
2736

> <i_lp_mmshare_version>
43012

> <i_f3d_flags>
0

> <s_epik_input>
Tz1jMW4oW0NIM10pYyg9TyluKFtDSDNdKWMoYzEyKW5bY0hdbjJbQ0gyXVtDQEhdKFtPSF0pYzNbY0hdW2NIXVtjSF1bY0hdYzNDbA==

> <s_epik_cmdline>
J2VwaWtfcHl0aG9uJywgJy1waCcsICc3LjAnLCAnLXRuJywgJzgnLCAnLW1hJywgJzIwMCcsICctbWV0YWxfYmluZGluZycsICctaW1hZScsICc8aW5maWxlLm1hZT4nLCAnLW9tYWUnLCAnPG91dGZpbGUubWFlPic=

> <r_lp_tautomer_probability>
1

> <r_epik_Ionization_Penalty>
1.63404e-06

> <r_epik_Ionization_Penalty_Charging>
3.74189e-09

> <r_epik_Ionization_Penalty_Neutral>
1.63029e-06

> <r_epik_State_Penalty>
-0

> <r_epik_Charging_Adjusted_Penalty>
3.74189e-09

> <i_epik_Tot_Q>
0

> <i_epik_Tot_abs_Q>
0

> <r_epik_Metal_State_Penalty>
-0

> <b_epik_Metal_Only>
0

> <s_lp_Force_Field>
OPLS_2005

> <r_lp_Energy>
36.4155

> <b_lp_Chiralities_Consistent>
1

> <s_lp_Variant>
AV-unprocessed.smi:2736-1

> <Gold.Version>
5.8.1

> <Gold.Id.Protein>
6NUR|6NUR_protein|mol2

> <Gold.PLP.Fitness>
50.1176

> <Gold.PLP.PLP>
-46.2724

> <Gold.PLP.part.hbond>
-2.0000

> <Gold.PLP.part.metal>
0.0000

> <Gold.PLP.part.buried>
-0.9481

> <Gold.PLP.part.nonpolar>
-42.9815

> <Gold.PLP.part.repulsive>
0.0741

> <Gold.PLP.ligand.clash>
0.0000

> <Gold.PLP.ligand.torsion>
1.0857

> <Gold.PLP.Chemscore.Hbond>
1.0000

> <Gold.PLP.Chemscore.CHOScore>
1.0000

> <Gold.PLP.Chemscore.Metal>
0.0000

> <Gold.Chemscore.Hbonds>
donor molecule, donor type, donor heavy atom, donor atom, acceptor molecule, acceptor atom, score
      P1  H  7997  8009       L1     4  1.00
      L1  C     8    27       P1  8028  1.00

> <Gold.PLP.Chemscore.Internal.Correction>
0.0166

> <Gold.Rescore>
     Score         DG    S(hbond)    S(metal)    S(lipo)     H(rot)  DE(clash)    DE(int)     intcor
      9.08     -13.46       0.99        0.00      87.06       2.15       1.55       2.83       ----

> <Gold.Chemscore.Fitness>
9.0786

> <Gold.Chemscore.DG>
-13.4647

> <Gold.Chemscore.ZeroCoef>
-5.4800

> <Gold.Chemscore.Hbond>
0.9869

> <Gold.Chemscore.Metal>
0.0000

> <Gold.Chemscore.Lipo>
87.0577

> <Gold.Chemscore.Internal_Hbond>
0.0000

> <Gold.Chemscore.DEClash>
1.5515

> <Gold.Chemscore.DEInternal>
2.8347

> <Gold.Chemscore.Rot>
2.1474

> <Gold.Chemscore.Internal.Correction>
   9.000000E+99

> <Gold.Chemscore.Hbonds>
donor molecule, donor type, donor heavy atom, donor atom, acceptor molecule, acceptor atom, score
      P1  H  7997  8009       L1     4  0.95

> <Gold.Chemscore.Hbond.Weighted>
-3.2963

> <Gold.Chemscore.Metal.Weighted>
-0.0000

> <Gold.Chemscore.Lipo.Weighted>
-10.1858

> <Gold.Chemscore.Internal_Hbond.Weighted>
0.0000

> <Gold.Chemscore.DEClash.Weighted>
1.5515

> <Gold.Chemscore.DEInternal.Weighted>
2.8347

> <Gold.Chemscore.Rot.Weighted>
5.4974

> <Gold.Chemscore.Internal.Correction.Weighted>
   9.000000E+99

> <Gold.Protein.RotatedTorsions>
[ 6907 6896 6895 6894 ] final  -11.21 input  -60.11 | X-H torsion
[ 7974 7965 7964 7962 ] final   45.12 input  175.53 | X-H torsion
[ 8008 7997 7996 7995 ] final  164.68 input   59.86 | X-H torsion
[ 10167 10162 10161 10158 ] final -135.82 input  -65.29 | X-H torsion
[ 10718 10713 10712 10709 ] final   35.28 input   66.30 | X-H torsion
[ 10763 10752 10751 10750 ] final   90.23 input  -60.55 | X-H torsion
[ 11005 11000 10999 10996 ] final -119.63 input  -57.11 | X-H torsion

> <Gold.Protein.ActiveResidues>
 VAL166  LYS551  ARG553  GLY616  TRP617  ASP618  TYR619  PRO620  LYS621  CYS622 
 ASP623  PHE694  ASN695  SER759  ASP760  ASP761  ALA762  ILE779  LEU786  VAL792 
 PHE793  MET794  SER795  GLU796  ALA797  LYS798  CYS799  TRP800  GLU811  SER814 

> <Gold.Protein.RotatedAtoms>
  151.3897  135.0954  159.9522 H   0  0  0  0  0  0  0  0  0  0  0  0  # atno 6907 bound_to 6896
  152.5083  133.8991  159.7442 H   0  0  0  0  0  0  0  0  0  0  0  0  # atno 6908 bound_to 6896
  150.9442  133.6566  159.2813 H   0  0  0  0  0  0  0  0  0  0  0  0  # atno 6909 bound_to 6896
  146.0508  139.4999  142.9719 H   0  0  0  0  0  0  0  0  0  0  0  0  # atno 7974 bound_to 7965
  156.1861  140.1690  156.8182 H   0  0  0  0  0  0  0  0  0  0  0  0  # atno 8008 bound_to 7997
  154.5416  140.0735  156.8551 H   0  0  0  0  0  0  0  0  0  0  0  0  # atno 8009 bound_to 7997
  155.3204  140.3373  155.4243 H   0  0  0  0  0  0  0  0  0  0  0  0  # atno 8010 bound_to 7997
  139.8740  143.6922  152.2636 H   0  0  0  0  0  0  0  0  0  0  0  0  # atno 10167 bound_to 10162
  157.3207  130.7447  149.6783 H   0  0  0  0  0  0  0  0  0  0  0  0  # atno 10718 bound_to 10713
  153.1954  135.4441  155.0201 H   0  0  0  0  0  0  0  0  0  0  0  0  # atno 10763 bound_to 10752
  154.8116  135.3297  154.7293 H   0  0  0  0  0  0  0  0  0  0  0  0  # atno 10764 bound_to 10752
  153.7743  135.6982  153.4956 H   0  0  0  0  0  0  0  0  0  0  0  0  # atno 10765 bound_to 10752
  141.0201  134.0136  157.3294 H   0  0  0  0  0  0  0  0  0  0  0  0  # atno 11005 bound_to 11000
  145.6727  141.0212  143.1649 LP  0  0  0  0  0  0  0  0  0  0  0  0  # atno 17320 bound_to 7965
  144.7122  139.8329  143.7411 LP  0  0  0  0  0  0  0  0  0  0  0  0  # atno 17321 bound_to 7965
  139.7257  144.7593  151.0882 LP  0  0  0  0  0  0  0  0  0  0  0  0  # atno 17342 bound_to 10162
  140.7756  143.5150  150.9605 LP  0  0  0  0  0  0  0  0  0  0  0  0  # atno 17343 bound_to 10162
  155.9685  130.4224  150.4513 LP  0  0  0  0  0  0  0  0  0  0  0  0  # atno 17370 bound_to 10713
  157.2528  131.0550  151.2368 LP  0  0  0  0  0  0  0  0  0  0  0  0  # atno 17371 bound_to 10713
  139.9141  135.0194  156.7811 LP  0  0  0  0  0  0  0  0  0  0  0  0  # atno 17394 bound_to 11000
  140.6587  133.9665  155.7793 LP  0  0  0  0  0  0  0  0  0  0  0  0  # atno 17395 bound_to 11000

$$$$
