AV-unprocessed.smi:1216|AV-procd|sdf|5099|dock4
  -GOLD-   22720 4153D 1   1.00000     0.00000
 Structure written by MMmdl.
 43 44  0  0  0  0  0  0  0  0  2 V2000
  144.6098  137.4327  153.3136 C   0  0  0  0  0  0  0  0  0  0  0  0
  145.9181  136.9128  152.7026 C   0  0  1  0  0  0  0  0  0  0  0  0
  145.6597  136.1974  151.3586 C   0  0  0  0  0  0  0  0  0  0  0  0
  144.9274  134.9353  151.5082 N   0  0  0  0  0  0  0  0  0  0  0  0
  144.5730  134.0548  150.5182 C   0  0  0  0  0  0  0  0  0  0  0  0
  143.9115  133.0226  151.1320 C   0  0  0  0  0  0  0  0  0  0  0  0
  143.8842  133.3197  152.4683 N   0  3  0  0  0  0  0  0  0  0  0  0
  144.4986  134.4852  152.6945 C   0  0  0  0  0  0  0  0  0  0  0  0
  146.8378  138.0369  152.5343 N   0  0  0  0  0  0  0  0  0  0  0  0
  147.3038  138.8267  153.5145 C   0  0  0  0  0  0  0  0  0  0  0  0
  147.0300  138.6606  154.7041 O   0  0  0  0  0  0  0  0  0  0  0  0
  148.2439  139.9564  153.0730 C   0  0  0  0  0  0  0  0  0  0  0  0
  148.6014  140.8762  154.1636 N   0  0  0  0  0  0  0  0  0  0  0  0
  147.6039  141.8970  154.5224 C   0  0  0  0  0  0  0  0  0  0  0  0
  146.9413  141.6633  155.8999 C   0  0  0  0  0  0  0  0  0  0  0  0
  147.8105  140.9629  156.9631 C   0  0  0  0  0  0  0  0  0  0  0  0
  149.1992  141.5961  157.1914 C   0  0  0  0  0  0  0  0  0  0  0  0
  150.0914  141.7760  155.9398 C   0  0  0  0  0  0  0  0  0  0  0  0
  149.7966  140.7867  154.8003 C   0  0  0  0  0  0  0  0  0  0  0  0
  150.6515  139.9510  154.5053 O   0  0  0  0  0  0  0  0  0  0  0  0
  143.9066  136.6177  153.4877 H   0  0  0  0  0  0  0  0  0  0  0  0
  144.1238  138.1563  152.6583 H   0  0  0  0  0  0  0  0  0  0  0  0
  144.7895  137.9195  154.2730 H   0  0  0  0  0  0  0  0  0  0  0  0
  146.3396  136.1984  153.4122 H   0  0  0  0  0  0  0  0  0  0  0  0
  145.0711  136.8340  150.6964 H   0  0  0  0  0  0  0  0  0  0  0  0
  146.5981  135.9892  150.8423 H   0  0  0  0  0  0  0  0  0  0  0  0
  144.8174  134.2209  149.4790 H   0  0  0  0  0  0  0  0  0  0  0  0
  143.4695  132.1230  150.7290 H   0  0  0  0  0  0  0  0  0  0  0  0
  144.6304  134.9636  153.6487 H   0  0  0  0  0  0  0  0  0  0  0  0
  147.1234  138.2479  151.5887 H   0  0  0  0  0  0  0  0  0  0  0  0
  149.1421  139.5082  152.6468 H   0  0  0  0  0  0  0  0  0  0  0  0
  147.7840  140.5124  152.2538 H   0  0  0  0  0  0  0  0  0  0  0  0
  148.0731  142.8808  154.5003 H   0  0  0  0  0  0  0  0  0  0  0  0
  146.8270  141.9614  153.7595 H   0  0  0  0  0  0  0  0  0  0  0  0
  146.5900  142.6198  156.2877 H   0  0  0  0  0  0  0  0  0  0  0  0
  146.0452  141.0590  155.7552 H   0  0  0  0  0  0  0  0  0  0  0  0
  147.2683  140.9532  157.9090 H   0  0  0  0  0  0  0  0  0  0  0  0
  147.9296  139.9116  156.6972 H   0  0  0  0  0  0  0  0  0  0  0  0
  149.0701  142.5691  157.6668 H   0  0  0  0  0  0  0  0  0  0  0  0
  149.7362  140.9861  157.9187 H   0  0  0  0  0  0  0  0  0  0  0  0
  150.0000  142.7922  155.5571 H   0  0  0  0  0  0  0  0  0  0  0  0
  151.1385  141.6835  156.2313 H   0  0  0  0  0  0  0  0  0  0  0  0
  143.4626  132.7418  153.1844 H   0  0  0  0  0  0  0  0  0  0  0  0
  1  2  1  0  0  0  0
  1 21  1  0  0  0  0
  1 22  1  0  0  0  0
  1 23  1  0  0  0  0
  2  3  1  0  0  0  0
  2  9  1  0  0  0  0
  2 24  1  0  0  0  0
  3  4  1  0  0  0  0
  3 25  1  0  0  0  0
  3 26  1  0  0  0  0
  4  8  1  0  0  0  0
  4  5  1  0  0  0  0
  5  6  2  0  0  0  0
  5 27  1  0  0  0  0
  6  7  1  0  0  0  0
  6 28  1  0  0  0  0
  7  8  2  0  0  0  0
  7 43  1  0  0  0  0
  8 29  1  0  0  0  0
  9 10  1  0  0  0  0
  9 30  1  0  0  0  0
 10 11  2  0  0  0  0
 10 12  1  0  0  0  0
 12 13  1  0  0  0  0
 12 31  1  0  0  0  0
 12 32  1  0  0  0  0
 13 19  1  0  0  0  0
 13 14  1  0  0  0  0
 14 15  1  0  0  0  0
 14 33  1  0  0  0  0
 14 34  1  0  0  0  0
 15 16  1  0  0  0  0
 15 35  1  0  0  0  0
 15 36  1  0  0  0  0
 16 17  1  0  0  0  0
 16 37  1  0  0  0  0
 16 38  1  0  0  0  0
 17 18  1  0  0  0  0
 17 39  1  0  0  0  0
 17 40  1  0  0  0  0
 18 19  1  0  0  0  0
 18 41  1  0  0  0  0
 18 42  1  0  0  0  0
 19 20  2  0  0  0  0
M  CHG  1   7   1
M  END
> <s_m_source_file>
AV-unprocessed.smi

> <i_m_source_file_index>
1216

> <i_lp_mmshare_version>
43012

> <i_f3d_flags>
0

> <s_epik_input>
W2NIXTFuW2NIXVtjSF1uMVtDSDJdW0NAQEhdKFtDSDNdKVtOSF1DKD1PKVtDSDJdTjJbQ0gyXVtDSDJdW0NIMl1bQ0gyXVtDSDJdQzI9Tw==

> <s_epik_cmdline>
J2VwaWtfcHl0aG9uJywgJy1waCcsICc3LjAnLCAnLXRuJywgJzgnLCAnLW1hJywgJzIwMCcsICctbWV0YWxfYmluZGluZycsICctaW1hZScsICc8aW5maWxlLm1hZT4nLCAnLW9tYWUnLCAnPG91dGZpbGUubWFlPic=

> <r_lp_tautomer_probability>
1

> <r_epik_Ionization_Penalty>
0.254232

> <r_epik_Ionization_Penalty_Charging>
0

> <r_epik_Ionization_Penalty_Neutral>
0.254232

> <r_epik_State_Penalty>
0.245698

> <r_epik_Charging_Adjusted_Penalty>
0.245698

> <i_epik_Tot_Q>
1

> <i_epik_Tot_abs_Q>
1

> <r_epik_Metal_State_Penalty>
0.535799

> <b_epik_Metal_Only>
0

> <s_lp_Force_Field>
OPLS_2005

> <r_lp_Energy>
21.2202

> <b_lp_Chiralities_Consistent>
1

> <s_lp_Variant>
AV-unprocessed.smi:1216-2

> <Gold.Version>
5.8.1

> <Gold.Id.Protein>
6NUR|6NUR_protein|mol2

> <Gold.PLP.Fitness>
43.4765

> <Gold.PLP.PLP>
-32.1470

> <Gold.PLP.part.hbond>
-2.9724

> <Gold.PLP.part.metal>
0.0000

> <Gold.PLP.part.buried>
1.7082

> <Gold.PLP.part.nonpolar>
-30.9047

> <Gold.PLP.part.repulsive>
0.2406

> <Gold.PLP.ligand.clash>
0.0000

> <Gold.PLP.ligand.torsion>
0.3648

> <Gold.PLP.Chemscore.Hbond>
3.0000

> <Gold.PLP.Chemscore.CHOScore>
1.0000

> <Gold.PLP.Chemscore.Metal>
0.0000

> <Gold.Chemscore.Hbonds>
donor molecule, donor type, donor heavy atom, donor atom, acceptor molecule, acceptor atom, score
      L1  H     7    43       P1 10957  2.00
      P1  H  7989  7998       L1    20  1.00
      L1  C     5    27       P1  7921  1.00

> <Gold.PLP.Chemscore.Internal.Correction>
0.0592

> <Gold.Rescore>
     Score         DG    S(hbond)    S(metal)    S(lipo)     H(rot)  DE(clash)    DE(int)     intcor
      9.78     -11.63       1.91        0.00      46.44       2.22       0.53       1.33       ----

> <Gold.Chemscore.Fitness>
9.7760

> <Gold.Chemscore.DG>
-11.6330

> <Gold.Chemscore.ZeroCoef>
-5.4800

> <Gold.Chemscore.Hbond>
1.9141

> <Gold.Chemscore.Metal>
0.0000

> <Gold.Chemscore.Lipo>
46.4363

> <Gold.Chemscore.Internal_Hbond>
0.0000

> <Gold.Chemscore.DEClash>
0.5275

> <Gold.Chemscore.DEInternal>
1.3296

> <Gold.Chemscore.Rot>
2.2161

> <Gold.Chemscore.Internal.Correction>
   9.000000E+99

> <Gold.Chemscore.Hbonds>
donor molecule, donor type, donor heavy atom, donor atom, acceptor molecule, acceptor atom, score
      L1  H     7    43       P1 10957  0.37
      P1  H  7989  7998       L1    20  0.26

> <Gold.Chemscore.Hbond.Weighted>
-6.3932

> <Gold.Chemscore.Metal.Weighted>
-0.0000

> <Gold.Chemscore.Lipo.Weighted>
-5.4330

> <Gold.Chemscore.Internal_Hbond.Weighted>
0.0000

> <Gold.Chemscore.DEClash.Weighted>
0.5275

> <Gold.Chemscore.DEInternal.Weighted>
1.3296

> <Gold.Chemscore.Rot.Weighted>
5.6733

> <Gold.Chemscore.Internal.Correction.Weighted>
   9.000000E+99

> <Gold.Protein.RotatedTorsions>
[ 6907 6896 6895 6894 ] final  -58.36 input  -60.11 | X-H torsion
[ 7974 7965 7964 7962 ] final -113.58 input  175.53 | X-H torsion
[ 8008 7997 7996 7995 ] final  -28.52 input   59.86 | X-H torsion
[ 10167 10162 10161 10158 ] final   11.64 input  -65.29 | X-H torsion
[ 10718 10713 10712 10709 ] final  131.70 input   66.30 | X-H torsion
[ 10763 10752 10751 10750 ] final   74.22 input  -60.55 | X-H torsion
[ 11005 11000 10999 10996 ] final  170.47 input  -57.11 | X-H torsion

> <Gold.Protein.ActiveResidues>
 VAL166  LYS551  ARG553  GLY616  TRP617  ASP618  TYR619  PRO620  LYS621  CYS622 
 ASP623  PHE694  ASN695  SER759  ASP760  ASP761  ALA762  ILE779  LEU786  VAL792 
 PHE793  MET794  SER795  GLU796  ALA797  LYS798  CYS799  TRP800  GLU811  SER814 

> <Gold.Protein.RotatedAtoms>
  150.8013  134.7109  159.6602 H   0  0  0  0  0  0  0  0  0  0  0  0  # atno 6907 bound_to 6896
  152.4130  134.6087  160.0029 H   0  0  0  0  0  0  0  0  0  0  0  0  # atno 6908 bound_to 6896
  151.6325  133.3294  159.3148 H   0  0  0  0  0  0  0  0  0  0  0  0  # atno 6909 bound_to 6896
  145.1303  140.8720  143.3762 H   0  0  0  0  0  0  0  0  0  0  0  0  # atno 7974 bound_to 7965
  154.4329  140.1843  156.1103 H   0  0  0  0  0  0  0  0  0  0  0  0  # atno 8008 bound_to 7997
  156.0223  140.3339  155.7026 H   0  0  0  0  0  0  0  0  0  0  0  0  # atno 8009 bound_to 7997
  155.5958  140.0635  157.2737 H   0  0  0  0  0  0  0  0  0  0  0  0  # atno 8010 bound_to 7997
  140.6119  143.8390  150.7074 H   0  0  0  0  0  0  0  0  0  0  0  0  # atno 10167 bound_to 10162
  157.4942  131.1092  150.9516 H   0  0  0  0  0  0  0  0  0  0  0  0  # atno 10718 bound_to 10713
  153.0572  135.5034  154.8009 H   0  0  0  0  0  0  0  0  0  0  0  0  # atno 10763 bound_to 10752
  154.6826  135.2971  154.9594 H   0  0  0  0  0  0  0  0  0  0  0  0  # atno 10764 bound_to 10752
  154.0375  135.6721  153.4839 H   0  0  0  0  0  0  0  0  0  0  0  0  # atno 10765 bound_to 10752
  140.3087  134.7534  157.3974 H   0  0  0  0  0  0  0  0  0  0  0  0  # atno 11005 bound_to 11000
  145.0643  139.3081  143.5864 LP  0  0  0  0  0  0  0  0  0  0  0  0  # atno 17320 bound_to 7965
  146.3514  140.0095  142.8668 LP  0  0  0  0  0  0  0  0  0  0  0  0  # atno 17321 bound_to 7965
  140.1960  143.3997  152.1827 LP  0  0  0  0  0  0  0  0  0  0  0  0  # atno 17342 bound_to 10162
  139.5368  144.7217  151.4868 LP  0  0  0  0  0  0  0  0  0  0  0  0  # atno 17343 bound_to 10162
  157.0207  130.5673  149.5331 LP  0  0  0  0  0  0  0  0  0  0  0  0  # atno 17370 bound_to 10713
  156.0191  130.5285  150.8222 LP  0  0  0  0  0  0  0  0  0  0  0  0  # atno 17371 bound_to 10713
  140.1044  134.5430  155.8323 LP  0  0  0  0  0  0  0  0  0  0  0  0  # atno 17394 bound_to 11000
  141.2113  133.6704  156.6570 LP  0  0  0  0  0  0  0  0  0  0  0  0  # atno 17395 bound_to 11000

$$$$
