AV-unprocessed.smi:1769|AV-procd|sdf|7154|dock4
  -GOLD-   22720 8393D 1   1.00000     0.00000
 Structure written by MMmdl.
 42 43  0  0  0  0  0  0  0  0  2 V2000
  151.0413  137.9316  154.1559 C   0  0  0  0  0  0  0  0  0  0  0  0
  150.6578  139.3346  154.6317 C   0  0  0  0  0  0  0  0  0  0  0  0
  151.5644  140.1202  154.9097 O   0  0  0  0  0  0  0  0  0  0  0  0
  149.3479  139.6646  154.7337 N   0  0  0  0  0  0  0  0  0  0  0  0
  148.8289  140.9889  155.0997 C   0  0  0  0  0  0  0  0  0  0  0  0
  148.1984  141.6352  153.8527 C   0  0  0  0  0  0  0  0  0  0  0  0
  147.1111  140.7259  153.2473 C   0  0  0  0  0  0  0  0  0  0  0  0
  147.6284  139.2845  153.0305 C   0  0  2  0  0  0  0  0  0  0  0  0
  146.5100  138.3463  152.5621 C   0  0  0  0  0  0  0  0  0  0  0  0
  145.5443  138.1189  153.2920 O   0  0  0  0  0  0  0  0  0  0  0  0
  146.6711  137.7798  151.3551 N   0  0  0  0  0  0  0  0  0  0  0  0
  145.7828  136.7851  150.7585 C   0  0  0  0  0  0  0  0  0  0  0  0
  145.5577  135.5726  151.6843 C   0  0  0  0  0  0  0  0  0  0  0  0
  145.6406  134.2351  150.9681 C   0  0  0  0  0  0  0  0  0  0  0  0
  144.5711  133.7781  150.1654 C   0  0  0  0  0  0  0  0  0  0  0  0
  144.6943  132.5510  149.4814 C   0  0  0  0  0  0  0  0  0  0  0  0
  145.8828  131.8053  149.6190 C   0  0  0  0  0  0  0  0  0  0  0  0
  146.8821  132.2711  150.4002 N   0  3  0  0  0  0  0  0  0  0  0  0
  146.8035  133.4415  151.0704 C   0  0  0  0  0  0  0  0  0  0  0  0
  148.2697  138.7537  154.3322 C   0  0  0  0  0  0  0  0  0  0  0  0
  150.6193  137.1703  154.8126 H   0  0  0  0  0  0  0  0  0  0  0  0
  152.1249  137.8075  154.1572 H   0  0  0  0  0  0  0  0  0  0  0  0
  150.6877  137.7594  153.1391 H   0  0  0  0  0  0  0  0  0  0  0  0
  148.0751  140.8738  155.8801 H   0  0  0  0  0  0  0  0  0  0  0  0
  149.5827  141.6525  155.5209 H   0  0  0  0  0  0  0  0  0  0  0  0
  147.7725  142.6058  154.1078 H   0  0  0  0  0  0  0  0  0  0  0  0
  148.9742  141.8234  153.1094 H   0  0  0  0  0  0  0  0  0  0  0  0
  146.2514  140.7160  153.9193 H   0  0  0  0  0  0  0  0  0  0  0  0
  146.7596  141.1481  152.3050 H   0  0  0  0  0  0  0  0  0  0  0  0
  148.3995  139.3138  152.2579 H   0  0  0  0  0  0  0  0  0  0  0  0
  147.4930  138.0303  150.8238 H   0  0  0  0  0  0  0  0  0  0  0  0
  144.8258  137.2369  150.4925 H   0  0  0  0  0  0  0  0  0  0  0  0
  146.2285  136.4503  149.8216 H   0  0  0  0  0  0  0  0  0  0  0  0
  146.2955  135.5850  152.4873 H   0  0  0  0  0  0  0  0  0  0  0  0
  144.5840  135.6578  152.1686 H   0  0  0  0  0  0  0  0  0  0  0  0
  143.6719  134.3673  150.0599 H   0  0  0  0  0  0  0  0  0  0  0  0
  143.8906  132.1909  148.8557 H   0  0  0  0  0  0  0  0  0  0  0  0
  146.0643  130.8591  149.1305 H   0  0  0  0  0  0  0  0  0  0  0  0
  147.6722  133.7118  151.6527 H   0  0  0  0  0  0  0  0  0  0  0  0
  148.6209  137.7304  154.1919 H   0  0  0  0  0  0  0  0  0  0  0  0
  147.5301  138.7023  155.1333 H   0  0  0  0  0  0  0  0  0  0  0  0
  147.7348  131.7174  150.4843 H   0  0  0  0  0  0  0  0  0  0  0  0
  1  2  1  0  0  0  0
  1 21  1  0  0  0  0
  1 22  1  0  0  0  0
  1 23  1  0  0  0  0
  2  3  2  0  0  0  0
  2  4  1  0  0  0  0
  4 20  1  0  0  0  0
  4  5  1  0  0  0  0
  5  6  1  0  0  0  0
  5 24  1  0  0  0  0
  5 25  1  0  0  0  0
  6  7  1  0  0  0  0
  6 26  1  0  0  0  0
  6 27  1  0  0  0  0
  7  8  1  0  0  0  0
  7 28  1  0  0  0  0
  7 29  1  0  0  0  0
  8  9  1  0  0  0  0
  8 20  1  0  0  0  0
  8 30  1  0  0  0  0
  9 10  2  0  0  0  0
  9 11  1  0  0  0  0
 11 12  1  0  0  0  0
 11 31  1  0  0  0  0
 12 13  1  0  0  0  0
 12 32  1  0  0  0  0
 12 33  1  0  0  0  0
 13 14  1  0  0  0  0
 13 34  1  0  0  0  0
 13 35  1  0  0  0  0
 14 19  1  0  0  0  0
 14 15  2  0  0  0  0
 15 16  1  0  0  0  0
 15 36  1  0  0  0  0
 16 17  2  0  0  0  0
 16 37  1  0  0  0  0
 17 18  1  0  0  0  0
 17 38  1  0  0  0  0
 18 19  2  0  0  0  0
 18 42  1  0  0  0  0
 19 39  1  0  0  0  0
 20 40  1  0  0  0  0
 20 41  1  0  0  0  0
M  CHG  1  18   1
M  END
> <s_m_source_file>
AV-unprocessed.smi

> <i_m_source_file_index>
1769

> <i_lp_mmshare_version>
43012

> <i_f3d_flags>
0

> <s_epik_input>
W0NIM11DKD1PKU4xW0NIMl1bQ0gyXVtDSDJdW0NASF0oW0NIMl0xKUMoPU8pW05IXVtDSDJdW0NIMl1jMltjSF1bY0hdW2NIXW5bY0hdMg==

> <s_epik_cmdline>
J2VwaWtfcHl0aG9uJywgJy1waCcsICc3LjAnLCAnLXRuJywgJzgnLCAnLW1hJywgJzIwMCcsICctbWV0YWxfYmluZGluZycsICctaW1hZScsICc8aW5maWxlLm1hZT4nLCAnLW9tYWUnLCAnPG91dGZpbGUubWFlPic=

> <r_epik_Ionization_Penalty>
2.25127

> <r_epik_Ionization_Penalty_Charging>
2.25127

> <r_epik_Ionization_Penalty_Neutral>
1.02261e-06

> <r_epik_State_Penalty>
2.39841

> <r_epik_Charging_Adjusted_Penalty>
4.64968

> <i_epik_Tot_Q>
1

> <i_epik_Tot_abs_Q>
1

> <r_epik_Metal_State_Penalty>
2.41159

> <b_epik_Metal_Only>
0

> <s_lp_Force_Field>
OPLS_2005

> <r_lp_Energy>
29.6354

> <b_lp_Chiralities_Consistent>
1

> <s_lp_Variant>
AV-unprocessed.smi:1769-4

> <Gold.Version>
5.8.1

> <Gold.Id.Protein>
6NUR|6NUR_protein|mol2

> <Gold.PLP.Fitness>
47.6156

> <Gold.PLP.PLP>
-42.7548

> <Gold.PLP.part.hbond>
-3.2220

> <Gold.PLP.part.metal>
0.0000

> <Gold.PLP.part.buried>
0.0479

> <Gold.PLP.part.nonpolar>
-39.7873

> <Gold.PLP.part.repulsive>
0.6036

> <Gold.PLP.ligand.clash>
0.0000

> <Gold.PLP.ligand.torsion>
0.5836

> <Gold.PLP.Chemscore.Hbond>
2.0000

> <Gold.PLP.Chemscore.CHOScore>
0.0000

> <Gold.PLP.Chemscore.Metal>
0.0000

> <Gold.Chemscore.Hbonds>
donor molecule, donor type, donor heavy atom, donor atom, acceptor molecule, acceptor atom, score
      L1  H    18    42       P1 10747  0.98
      P1  H  7989  7998       L1     3  0.90

> <Gold.PLP.Chemscore.Internal.Correction>
0.0280

> <Gold.Rescore>
     Score         DG    S(hbond)    S(metal)    S(lipo)     H(rot)  DE(clash)    DE(int)     intcor
     16.13     -17.79       1.77        0.00      89.76       1.61       0.17       1.49       ----

> <Gold.Chemscore.Fitness>
16.1274

> <Gold.Chemscore.DG>
-17.7871

> <Gold.Chemscore.ZeroCoef>
-5.4800

> <Gold.Chemscore.Hbond>
1.7745

> <Gold.Chemscore.Metal>
0.0000

> <Gold.Chemscore.Lipo>
89.7610

> <Gold.Chemscore.Internal_Hbond>
0.0000

> <Gold.Chemscore.DEClash>
0.1725

> <Gold.Chemscore.DEInternal>
1.4872

> <Gold.Chemscore.Rot>
1.6100

> <Gold.Chemscore.Internal.Correction>
   9.000000E+99

> <Gold.Chemscore.Hbonds>
donor molecule, donor type, donor heavy atom, donor atom, acceptor molecule, acceptor atom, score
      L1  H    18    42       P1 10747  0.91
      P1  H  7989  7998       L1     3  0.17

> <Gold.Chemscore.Hbond.Weighted>
-5.9267

> <Gold.Chemscore.Metal.Weighted>
-0.0000

> <Gold.Chemscore.Lipo.Weighted>
-10.5020

> <Gold.Chemscore.Internal_Hbond.Weighted>
0.0000

> <Gold.Chemscore.DEClash.Weighted>
0.1725

> <Gold.Chemscore.DEInternal.Weighted>
1.4872

> <Gold.Chemscore.Rot.Weighted>
4.1216

> <Gold.Chemscore.Internal.Correction.Weighted>
   9.000000E+99

> <Gold.Protein.RotatedTorsions>
[ 6907 6896 6895 6894 ] final  129.42 input  -60.11 | X-H torsion
[ 7974 7965 7964 7962 ] final   84.70 input  175.53 | X-H torsion
[ 8008 7997 7996 7995 ] final   55.86 input   59.86 | X-H torsion
[ 10167 10162 10161 10158 ] final  -51.25 input  -65.29 | X-H torsion
[ 10718 10713 10712 10709 ] final -144.19 input   66.30 | X-H torsion
[ 10763 10752 10751 10750 ] final  171.97 input  -60.55 | X-H torsion
[ 11005 11000 10999 10996 ] final  -95.45 input  -57.11 | X-H torsion

> <Gold.Protein.ActiveResidues>
 VAL166  LYS551  ARG553  GLY616  TRP617  ASP618  TYR619  PRO620  LYS621  CYS622 
 ASP623  PHE694  ASN695  SER759  ASP760  ASP761  ALA762  ILE779  LEU786  VAL792 
 PHE793  MET794  SER795  GLU796  ALA797  LYS798  CYS799  TRP800  GLU811  SER814 

> <Gold.Protein.RotatedAtoms>
  152.3625  133.6315  159.6025 H   0  0  0  0  0  0  0  0  0  0  0  0  # atno 6907 bound_to 6896
  150.7611  133.9400  159.3462 H   0  0  0  0  0  0  0  0  0  0  0  0  # atno 6908 bound_to 6896
  151.7236  135.0890  160.0339 H   0  0  0  0  0  0  0  0  0  0  0  0  # atno 6909 bound_to 6896
  145.5953  139.2344  143.2276 H   0  0  0  0  0  0  0  0  0  0  0  0  # atno 7974 bound_to 7965
  155.5080  140.3476  155.4383 H   0  0  0  0  0  0  0  0  0  0  0  0  # atno 8008 bound_to 7997
  156.0868  140.1400  156.9670 H   0  0  0  0  0  0  0  0  0  0  0  0  # atno 8009 bound_to 7997
  154.4611  140.0934  156.6873 H   0  0  0  0  0  0  0  0  0  0  0  0  # atno 8010 bound_to 7997
  140.6598  143.2627  151.4476 H   0  0  0  0  0  0  0  0  0  0  0  0  # atno 10167 bound_to 10162
  156.3672  130.7769  151.1944 H   0  0  0  0  0  0  0  0  0  0  0  0  # atno 10718 bound_to 10713
  154.4194  135.2757  155.1985 H   0  0  0  0  0  0  0  0  0  0  0  0  # atno 10763 bound_to 10752
  154.3938  135.6060  153.5861 H   0  0  0  0  0  0  0  0  0  0  0  0  # atno 10764 bound_to 10752
  152.9832  135.5909  154.4487 H   0  0  0  0  0  0  0  0  0  0  0  0  # atno 10765 bound_to 10752
  141.1441  133.8027  157.0436 H   0  0  0  0  0  0  0  0  0  0  0  0  # atno 11005 bound_to 11000
  146.1617  140.6778  142.9274 LP  0  0  0  0  0  0  0  0  0  0  0  0  # atno 17320 bound_to 7965
  144.7333  140.4737  143.6922 LP  0  0  0  0  0  0  0  0  0  0  0  0  # atno 17321 bound_to 7965
  139.5829  144.1670  152.1991 LP  0  0  0  0  0  0  0  0  0  0  0  0  # atno 17342 bound_to 10162
  140.1001  144.5547  150.6995 LP  0  0  0  0  0  0  0  0  0  0  0  0  # atno 17343 bound_to 10162
  157.7480  131.0383  150.4496 LP  0  0  0  0  0  0  0  0  0  0  0  0  # atno 17370 bound_to 10713
  156.4717  130.4054  149.6514 LP  0  0  0  0  0  0  0  0  0  0  0  0  # atno 17371 bound_to 10713
  140.0677  134.9720  157.1413 LP  0  0  0  0  0  0  0  0  0  0  0  0  # atno 17394 bound_to 11000
  140.3756  134.2342  155.7174 LP  0  0  0  0  0  0  0  0  0  0  0  0  # atno 17395 bound_to 11000

$$$$
