AV-unprocessed.smi:2945|AV-procd|sdf|11279|dock4
  -GOLD-   2272016173D 1   1.00000     0.00000
 Structure written by MMmdl.
 36 37  0  0  0  0  0  0  0  0  1 V2000
  147.1855  138.7448  152.6029 C   0  0  0  0  0  0  0  0  0  0  0  0
  147.3658  139.9233  153.4969 C   0  0  0  0  0  0  0  0  0  0  0  0
  148.3739  140.3094  154.3349 C   0  0  0  0  0  0  0  0  0  0  0  0
  147.8898  141.5299  154.8762 C   0  0  0  0  0  0  0  0  0  0  0  0
  148.6605  142.2663  155.8117 N   0  0  0  0  0  0  0  0  0  0  0  0
  149.3702  141.7871  156.8474 C   0  0  0  0  0  0  0  0  0  0  0  0
  149.4680  140.5971  157.1482 O   0  0  0  0  0  0  0  0  0  0  0  0
  149.9684  142.7792  157.5238 N   0  0  0  0  0  0  0  0  0  0  0  0
  150.8360  142.6234  158.6912 C   0  0  1  0  0  0  0  0  0  0  0  0
  151.8060  141.4540  158.4306 C   0  0  0  0  0  0  0  0  0  0  0  0
  152.8004  141.2695  159.5857 C   0  0  0  0  0  0  0  0  0  0  0  0
  153.5740  142.5668  159.8541 C   0  0  0  0  0  0  0  0  0  0  0  0
  152.6132  143.7312  160.1364 C   0  0  0  0  0  0  0  0  0  0  0  0
  151.6030  143.9379  158.9890 C   0  0  2  0  0  0  0  0  0  0  0  0
  150.6639  145.1151  159.3072 C   0  0  0  0  0  0  0  0  0  0  0  0
  146.6951  141.8600  154.4100 N   0  0  0  0  0  0  0  0  0  0  0  0
  146.3533  140.8320  153.5233 O   0  0  0  0  0  0  0  0  0  0  0  0
  147.9929  138.0252  152.7391 H   0  0  0  0  0  0  0  0  0  0  0  0
  147.1783  139.0513  151.5568 H   0  0  0  0  0  0  0  0  0  0  0  0
  146.2431  138.2393  152.8144 H   0  0  0  0  0  0  0  0  0  0  0  0
  149.3054  139.7985  154.5280 H   0  0  0  0  0  0  0  0  0  0  0  0
  148.6734  143.2664  155.6767 H   0  0  0  0  0  0  0  0  0  0  0  0
  149.8209  143.7237  157.1997 H   0  0  0  0  0  0  0  0  0  0  0  0
  150.2410  142.3687  159.5704 H   0  0  0  0  0  0  0  0  0  0  0  0
  151.2454  140.5304  158.2817 H   0  0  0  0  0  0  0  0  0  0  0  0
  152.3588  141.6312  157.5067 H   0  0  0  0  0  0  0  0  0  0  0  0
  152.2648  140.9673  160.4866 H   0  0  0  0  0  0  0  0  0  0  0  0
  153.4963  140.4631  159.3527 H   0  0  0  0  0  0  0  0  0  0  0  0
  154.2497  142.4287  160.6986 H   0  0  0  0  0  0  0  0  0  0  0  0
  154.1991  142.8066  158.9930 H   0  0  0  0  0  0  0  0  0  0  0  0
  152.0776  143.5399  161.0674 H   0  0  0  0  0  0  0  0  0  0  0  0
  153.1884  144.6441  160.2958 H   0  0  0  0  0  0  0  0  0  0  0  0
  152.1714  144.2062  158.0969 H   0  0  0  0  0  0  0  0  0  0  0  0
  150.0359  144.8960  160.1713 H   0  0  0  0  0  0  0  0  0  0  0  0
  150.0069  145.3460  158.4688 H   0  0  0  0  0  0  0  0  0  0  0  0
  151.2306  146.0195  159.5294 H   0  0  0  0  0  0  0  0  0  0  0  0
  1  2  1  0  0  0  0
  1 18  1  0  0  0  0
  1 19  1  0  0  0  0
  1 20  1  0  0  0  0
  2 17  1  0  0  0  0
  2  3  2  0  0  0  0
  3  4  1  0  0  0  0
  3 21  1  0  0  0  0
  4  5  1  0  0  0  0
  4 16  2  0  0  0  0
  5  6  1  0  0  0  0
  5 22  1  0  0  0  0
  6  7  2  0  0  0  0
  6  8  1  0  0  0  0
  8  9  1  0  0  0  0
  8 23  1  0  0  0  0
  9 14  1  0  0  0  0
  9 10  1  0  0  0  0
  9 24  1  0  0  0  0
 10 11  1  0  0  0  0
 10 25  1  0  0  0  0
 10 26  1  0  0  0  0
 11 12  1  0  0  0  0
 11 27  1  0  0  0  0
 11 28  1  0  0  0  0
 12 13  1  0  0  0  0
 12 29  1  0  0  0  0
 12 30  1  0  0  0  0
 13 14  1  0  0  0  0
 13 31  1  0  0  0  0
 13 32  1  0  0  0  0
 14 15  1  0  0  0  0
 14 33  1  0  0  0  0
 15 34  1  0  0  0  0
 15 35  1  0  0  0  0
 15 36  1  0  0  0  0
 16 17  1  0  0  0  0
M  END
> <s_m_source_file>
AV-unprocessed.smi

> <i_m_source_file_index>
2945

> <i_lp_mmshare_version>
43012

> <i_f3d_flags>
0

> <s_epik_input>
W0NIM11jMVtjSF1jKG5vMSlbTkhdQyg9TylbTkhdW0NAQEhdMltDSDJdW0NIMl1bQ0gyXVtDSDJdW0NASF0yW0NIM10=

> <s_epik_cmdline>
J2VwaWtfcHl0aG9uJywgJy1waCcsICc3LjAnLCAnLXRuJywgJzgnLCAnLW1hJywgJzIwMCcsICctbWV0YWxfYmluZGluZycsICctaW1hZScsICc8aW5maWxlLm1hZT4nLCAnLW9tYWUnLCAnPG91dGZpbGUubWFlPic=

> <r_lp_tautomer_probability>
1

> <r_epik_Ionization_Penalty>
2.357e-05

> <r_epik_Ionization_Penalty_Charging>
0

> <r_epik_Ionization_Penalty_Neutral>
2.357e-05

> <r_epik_State_Penalty>
-0

> <r_epik_Charging_Adjusted_Penalty>
0

> <i_epik_Tot_Q>
0

> <i_epik_Tot_abs_Q>
0

> <r_epik_Metal_State_Penalty>
-0

> <b_epik_Metal_Only>
0

> <s_lp_Force_Field>
OPLS_2005

> <r_lp_Energy>
8.52615

> <b_lp_Chiralities_Consistent>
1

> <s_lp_Variant>
AV-unprocessed.smi:2945-4

> <Gold.Version>
5.8.1

> <Gold.Id.Protein>
6NUR|6NUR_protein|mol2

> <Gold.PLP.Fitness>
37.3006

> <Gold.PLP.PLP>
-33.7789

> <Gold.PLP.part.hbond>
-1.6943

> <Gold.PLP.part.metal>
0.0000

> <Gold.PLP.part.buried>
-3.7015

> <Gold.PLP.part.nonpolar>
-30.5674

> <Gold.PLP.part.repulsive>
1.3690

> <Gold.PLP.ligand.clash>
0.0000

> <Gold.PLP.ligand.torsion>
0.5202

> <Gold.PLP.Chemscore.Hbond>
1.5194

> <Gold.PLP.Chemscore.CHOScore>
0.0000

> <Gold.PLP.Chemscore.Metal>
0.0000

> <Gold.Chemscore.Hbonds>
donor molecule, donor type, donor heavy atom, donor atom, acceptor molecule, acceptor atom, score
      L1  H     5    22       P1  8028  0.83
      L1  H     8    23       P1  8028  0.80

> <Gold.PLP.Chemscore.Internal.Correction>
0.0038

> <Gold.Rescore>
     Score         DG    S(hbond)    S(metal)    S(lipo)     H(rot)  DE(clash)    DE(int)     intcor
     18.70     -19.34       1.82        0.00      88.44       1.00       0.18       0.45       ----

> <Gold.Chemscore.Fitness>
18.7038

> <Gold.Chemscore.DG>
-19.3415

> <Gold.Chemscore.ZeroCoef>
-5.4800

> <Gold.Chemscore.Hbond>
1.8184

> <Gold.Chemscore.Metal>
0.0000

> <Gold.Chemscore.Lipo>
88.4433

> <Gold.Chemscore.Internal_Hbond>
0.0000

> <Gold.Chemscore.DEClash>
0.1836

> <Gold.Chemscore.DEInternal>
0.4541

> <Gold.Chemscore.Rot>
1.0000

> <Gold.Chemscore.Internal.Correction>
   9.000000E+99

> <Gold.Chemscore.Hbonds>
donor molecule, donor type, donor heavy atom, donor atom, acceptor molecule, acceptor atom, score
      L1  H     5    22       P1  8028  0.80
      L1  H     8    23       P1  8028  0.65

> <Gold.Chemscore.Hbond.Weighted>
-6.0736

> <Gold.Chemscore.Metal.Weighted>
-0.0000

> <Gold.Chemscore.Lipo.Weighted>
-10.3479

> <Gold.Chemscore.Internal_Hbond.Weighted>
0.0000

> <Gold.Chemscore.DEClash.Weighted>
0.1836

> <Gold.Chemscore.DEInternal.Weighted>
0.4541

> <Gold.Chemscore.Rot.Weighted>
2.5600

> <Gold.Chemscore.Internal.Correction.Weighted>
   9.000000E+99

> <Gold.Protein.RotatedTorsions>
[ 6907 6896 6895 6894 ] final -141.59 input  -60.11 | X-H torsion
[ 7974 7965 7964 7962 ] final -169.22 input  175.53 | X-H torsion
[ 8008 7997 7996 7995 ] final -111.35 input   59.86 | X-H torsion
[ 10167 10162 10161 10158 ] final   19.03 input  -65.29 | X-H torsion
[ 10718 10713 10712 10709 ] final  119.53 input   66.30 | X-H torsion
[ 10763 10752 10751 10750 ] final -131.38 input  -60.55 | X-H torsion
[ 11005 11000 10999 10996 ] final  -45.69 input  -57.11 | X-H torsion

> <Gold.Protein.ActiveResidues>
 VAL166  LYS551  ARG553  GLY616  TRP617  ASP618  TYR619  PRO620  LYS621  CYS622 
 ASP623  PHE694  ASN695  SER759  ASP760  ASP761  ALA762  ILE779  LEU786  VAL792 
 PHE793  MET794  SER795  GLU796  ALA797  LYS798  CYS799  TRP800  GLU811  SER814 

> <Gold.Protein.RotatedAtoms>
  151.0758  133.5429  159.2623 H   0  0  0  0  0  0  0  0  0  0  0  0  # atno 6907 bound_to 6896
  151.2351  135.0568  159.9013 H   0  0  0  0  0  0  0  0  0  0  0  0  # atno 6908 bound_to 6896
  152.5417  134.0542  159.8177 H   0  0  0  0  0  0  0  0  0  0  0  0  # atno 6909 bound_to 6896
  144.7189  140.2253  143.6311 H   0  0  0  0  0  0  0  0  0  0  0  0  # atno 7974 bound_to 7965
  154.9885  140.0395  157.2309 H   0  0  0  0  0  0  0  0  0  0  0  0  # atno 8008 bound_to 7997
  154.7650  140.2791  155.6161 H   0  0  0  0  0  0  0  0  0  0  0  0  # atno 8009 bound_to 7997
  156.2911  140.2621  156.2438 H   0  0  0  0  0  0  0  0  0  0  0  0  # atno 8010 bound_to 7997
  140.5609  143.9339  150.6642 H   0  0  0  0  0  0  0  0  0  0  0  0  # atno 10167 bound_to 10162
  157.5955  131.1058  150.7909 H   0  0  0  0  0  0  0  0  0  0  0  0  # atno 10718 bound_to 10713
  154.8751  135.3832  154.4237 H   0  0  0  0  0  0  0  0  0  0  0  0  # atno 10763 bound_to 10752
  153.4938  135.7030  153.5874 H   0  0  0  0  0  0  0  0  0  0  0  0  # atno 10764 bound_to 10752
  153.4236  135.3895  155.2093 H   0  0  0  0  0  0  0  0  0  0  0  0  # atno 10765 bound_to 10752
  141.0532  133.6735  156.3049 H   0  0  0  0  0  0  0  0  0  0  0  0  # atno 11005 bound_to 11000
  145.8462  139.2153  143.1798 LP  0  0  0  0  0  0  0  0  0  0  0  0  # atno 17320 bound_to 7965
  146.0302  140.8265  142.9880 LP  0  0  0  0  0  0  0  0  0  0  0  0  # atno 17321 bound_to 7965
  140.2789  143.3403  152.1169 LP  0  0  0  0  0  0  0  0  0  0  0  0  # atno 17342 bound_to 10162
  139.5070  144.6823  151.5976 LP  0  0  0  0  0  0  0  0  0  0  0  0  # atno 17343 bound_to 10162
  156.8321  130.5019  149.5330 LP  0  0  0  0  0  0  0  0  0  0  0  0  # atno 17370 bound_to 10713
  156.1017  130.5974  150.9904 LP  0  0  0  0  0  0  0  0  0  0  0  0  # atno 17371 bound_to 10713
  140.6015  134.5549  157.5518 LP  0  0  0  0  0  0  0  0  0  0  0  0  # atno 17394 bound_to 11000
  139.9367  134.7861  156.0783 LP  0  0  0  0  0  0  0  0  0  0  0  0  # atno 17395 bound_to 11000

$$$$
