AV-unprocessed.smi:1180|AV-procd|sdf|4964|dock9
  -GOLD-   22720 3553D 1   1.00000     0.00000
 Structure written by MMmdl.
 37 38  0  0  0  0  0  0  0  0  2 V2000
  147.9574  136.3628  161.0711 C   0  0  0  0  0  0  0  0  0  0  0  0
  148.4726  136.9266  159.7641 C   0  0  0  0  0  0  0  0  0  0  0  0
  147.8325  137.8788  159.2002 N   0  0  0  0  0  0  0  0  0  0  0  0
  148.3023  138.4036  157.9843 C   0  0  0  0  0  0  0  0  0  0  0  0
  147.4765  139.5280  157.3846 C   0  0  0  0  0  0  0  0  0  0  0  0
  149.4311  137.9155  157.3945 C   0  0  0  0  0  0  0  0  0  0  0  0
  149.9838  138.4457  156.0711 C   0  0  0  0  0  0  0  0  0  0  0  0
  150.3793  139.9246  156.0405 C   0  0  0  0  0  0  0  0  0  0  0  0
  150.7156  140.4682  154.9879 O   0  0  0  0  0  0  0  0  0  0  0  0
  150.3355  140.5665  157.2176 N   0  0  0  0  0  0  0  0  0  0  0  0
  150.6644  141.9733  157.4189 C   0  0  0  0  0  0  0  0  0  0  0  0
  152.0119  142.1568  158.1436 C   0  0  2  0  0  0  0  0  0  0  0  0
  152.1149  141.3929  159.4593 C   0  0  0  0  0  0  0  0  0  0  0  0
  152.8451  142.3533  160.4039 C   0  0  0  0  0  0  0  0  0  0  0  0
  153.2858  143.4262  159.5841 O   0  0  0  0  0  0  0  0  0  0  0  0
  152.3215  143.5945  158.5597 C   0  0  0  0  0  0  0  0  0  0  0  0
  150.1439  136.8232  158.0805 C   0  0  0  0  0  0  0  0  0  0  0  0
  151.1763  136.3581  157.5989 O   0  0  0  0  0  0  0  0  0  0  0  0
  149.6199  136.3626  159.2522 N   0  5  0  0  0  0  0  0  0  0  0  0
  147.2373  137.0397  161.5328 H   0  0  0  0  0  0  0  0  0  0  0  0
  148.7778  136.2108  161.7734 H   0  0  0  0  0  0  0  0  0  0  0  0
  147.4674  135.4044  160.8983 H   0  0  0  0  0  0  0  0  0  0  0  0
  147.0222  139.2080  156.4468 H   0  0  0  0  0  0  0  0  0  0  0  0
  148.0987  140.4017  157.1899 H   0  0  0  0  0  0  0  0  0  0  0  0
  146.6756  139.8327  158.0592 H   0  0  0  0  0  0  0  0  0  0  0  0
  150.8380  137.8460  155.7537 H   0  0  0  0  0  0  0  0  0  0  0  0
  149.2359  138.2913  155.2934 H   0  0  0  0  0  0  0  0  0  0  0  0
  150.0467  140.0430  158.0312 H   0  0  0  0  0  0  0  0  0  0  0  0
  150.6979  142.4537  156.4407 H   0  0  0  0  0  0  0  0  0  0  0  0
  149.8656  142.4657  157.9760 H   0  0  0  0  0  0  0  0  0  0  0  0
  152.8206  141.8144  157.4956 H   0  0  0  0  0  0  0  0  0  0  0  0
  151.1348  141.1397  159.8651 H   0  0  0  0  0  0  0  0  0  0  0  0
  152.6676  140.4626  159.3240 H   0  0  0  0  0  0  0  0  0  0  0  0
  152.1605  142.7389  161.1608 H   0  0  0  0  0  0  0  0  0  0  0  0
  153.6843  141.8808  160.9148 H   0  0  0  0  0  0  0  0  0  0  0  0
  152.7103  144.1970  157.7381 H   0  0  0  0  0  0  0  0  0  0  0  0
  151.4388  144.0916  158.9659 H   0  0  0  0  0  0  0  0  0  0  0  0
  1  2  1  0  0  0  0
  1 20  1  0  0  0  0
  1 21  1  0  0  0  0
  1 22  1  0  0  0  0
  2 19  1  0  0  0  0
  2  3  2  0  0  0  0
  3  4  1  0  0  0  0
  4  5  1  0  0  0  0
  4  6  2  0  0  0  0
  5 23  1  0  0  0  0
  5 24  1  0  0  0  0
  5 25  1  0  0  0  0
  6  7  1  0  0  0  0
  6 17  1  0  0  0  0
  7  8  1  0  0  0  0
  7 26  1  0  0  0  0
  7 27  1  0  0  0  0
  8  9  2  0  0  0  0
  8 10  1  0  0  0  0
 10 11  1  0  0  0  0
 10 28  1  0  0  0  0
 11 12  1  0  0  0  0
 11 29  1  0  0  0  0
 11 30  1  0  0  0  0
 12 16  1  0  0  0  0
 12 13  1  0  0  0  0
 12 31  1  0  0  0  0
 13 14  1  0  0  0  0
 13 32  1  0  0  0  0
 13 33  1  0  0  0  0
 14 15  1  0  0  0  0
 14 34  1  0  0  0  0
 14 35  1  0  0  0  0
 15 16  1  0  0  0  0
 16 36  1  0  0  0  0
 16 37  1  0  0  0  0
 17 18  2  0  0  0  0
 17 19  1  0  0  0  0
M  CHG  1  19  -1
M  END
> <s_m_source_file>
AV-unprocessed.smi

> <i_m_source_file_index>
1180

> <i_lp_mmshare_version>
43012

> <i_f3d_flags>
0

> <s_epik_input>
W0NIM11jMW5jKFtDSDNdKWMoYyg9TylbbkhdMSlbQ0gyXUMoPU8pW05IXVtDSDJdW0NAQEhdMltDSDJdW0NIMl1PW0NIMl0y

> <s_epik_cmdline>
J2VwaWtfcHl0aG9uJywgJy1waCcsICc3LjAnLCAnLXRuJywgJzgnLCAnLW1hJywgJzIwMCcsICctbWV0YWxfYmluZGluZycsICctaW1hZScsICc8aW5maWxlLm1hZT4nLCAnLW9tYWUnLCAnPG91dGZpbGUubWFlPic=

> <r_lp_tautomer_probability>
0.839158

> <r_epik_Ionization_Penalty>
6.60319

> <r_epik_Ionization_Penalty_Charging>
6.85407e-08

> <r_epik_Ionization_Penalty_Neutral>
6.60319

> <r_epik_State_Penalty>
4.42883

> <r_epik_Charging_Adjusted_Penalty>
4.42883

> <i_epik_Tot_Q>
-1

> <i_epik_Tot_abs_Q>
1

> <r_epik_Metal_State_Penalty>
0.797578

> <b_epik_Metal_Only>
1

> <s_lp_Force_Field>
OPLS_2005

> <r_lp_Energy>
24.7937

> <b_lp_Chiralities_Consistent>
1

> <s_lp_Variant>
AV-unprocessed.smi:1180-5

> <Gold.Version>
5.8.1

> <Gold.Id.Protein>
6NUR|6NUR_protein|mol2

> <Gold.PLP.Fitness>
38.1829

> <Gold.PLP.PLP>
-28.5613

> <Gold.PLP.part.hbond>
-3.6751

> <Gold.PLP.part.metal>
0.0000

> <Gold.PLP.part.buried>
-5.8137

> <Gold.PLP.part.nonpolar>
-19.8083

> <Gold.PLP.part.repulsive>
0.0872

> <Gold.PLP.ligand.clash>
0.0000

> <Gold.PLP.ligand.torsion>
0.1448

> <Gold.PLP.Chemscore.Hbond>
3.3016

> <Gold.PLP.Chemscore.CHOScore>
0.0000

> <Gold.PLP.Chemscore.Metal>
0.0000

> <Gold.Chemscore.Hbonds>
donor molecule, donor type, donor heavy atom, donor atom, acceptor molecule, acceptor atom, score
      P1  H  6896  6909       L1    19  1.98
      P1  H  6934  6947       L1     3  0.31
      P1  H  7989  7998       L1     9  1.00

> <Gold.PLP.Chemscore.Internal.Correction>
0.0063

> <Gold.Rescore>
     Score         DG    S(hbond)    S(metal)    S(lipo)     H(rot)  DE(clash)    DE(int)     intcor
     15.08     -15.24       2.12        0.00      61.31       1.76       0.06       0.09       ----

> <Gold.Chemscore.Fitness>
15.0839

> <Gold.Chemscore.DG>
-15.2352

> <Gold.Chemscore.ZeroCoef>
-5.4800

> <Gold.Chemscore.Hbond>
2.1201

> <Gold.Chemscore.Metal>
0.0000

> <Gold.Chemscore.Lipo>
61.3142

> <Gold.Chemscore.Internal_Hbond>
0.0000

> <Gold.Chemscore.DEClash>
0.0588

> <Gold.Chemscore.DEInternal>
0.0924

> <Gold.Chemscore.Rot>
1.7577

> <Gold.Chemscore.Internal.Correction>
   9.000000E+99

> <Gold.Chemscore.Hbonds>
donor molecule, donor type, donor heavy atom, donor atom, acceptor molecule, acceptor atom, score
      P1  H  6896  6909       L1    19  0.36
      P1  H  6934  6947       L1     3  0.11
      P1  H  7989  7998       L1     9  0.96

> <Gold.Chemscore.Hbond.Weighted>
-7.0812

> <Gold.Chemscore.Metal.Weighted>
-0.0000

> <Gold.Chemscore.Lipo.Weighted>
-7.1738

> <Gold.Chemscore.Internal_Hbond.Weighted>
0.0000

> <Gold.Chemscore.DEClash.Weighted>
0.0588

> <Gold.Chemscore.DEInternal.Weighted>
0.0924

> <Gold.Chemscore.Rot.Weighted>
4.4998

> <Gold.Chemscore.Internal.Correction.Weighted>
   9.000000E+99

> <Gold.Protein.RotatedTorsions>
[ 6907 6896 6895 6894 ] final   55.78 input  -60.11 | X-H torsion
[ 7974 7965 7964 7962 ] final  132.82 input  175.53 | X-H torsion
[ 8008 7997 7996 7995 ] final   11.07 input   59.86 | X-H torsion
[ 10167 10162 10161 10158 ] final   52.89 input  -65.29 | X-H torsion
[ 10718 10713 10712 10709 ] final  -45.25 input   66.30 | X-H torsion
[ 10763 10752 10751 10750 ] final   89.28 input  -60.55 | X-H torsion
[ 11005 11000 10999 10996 ] final  162.39 input  -57.11 | X-H torsion

> <Gold.Protein.ActiveResidues>
 VAL166  LYS551  ARG553  GLY616  TRP617  ASP618  TYR619  PRO620  LYS621  CYS622 
 ASP623  PHE694  ASN695  SER759  ASP760  ASP761  ALA762  ILE779  LEU786  VAL792 
 PHE793  MET794  SER795  GLU796  ALA797  LYS798  CYS799  TRP800  GLU811  SER814 

> <Gold.Protein.RotatedAtoms>
  152.3572  134.6923  160.0218 H   0  0  0  0  0  0  0  0  0  0  0  0  # atno 6907 bound_to 6896
  151.7258  133.3310  159.3335 H   0  0  0  0  0  0  0  0  0  0  0  0  # atno 6908 bound_to 6896
  150.7579  134.6341  159.6246 H   0  0  0  0  0  0  0  0  0  0  0  0  # atno 6909 bound_to 6896
  144.9929  139.4388  143.5330 H   0  0  0  0  0  0  0  0  0  0  0  0  # atno 7974 bound_to 7965
  154.8019  140.2853  155.5915 H   0  0  0  0  0  0  0  0  0  0  0  0  # atno 8008 bound_to 7997
  156.2978  140.2585  156.2819 H   0  0  0  0  0  0  0  0  0  0  0  0  # atno 8009 bound_to 7997
  154.9548  140.0378  157.2151 H   0  0  0  0  0  0  0  0  0  0  0  0  # atno 8010 bound_to 7997
  140.2465  144.3526  150.6362 H   0  0  0  0  0  0  0  0  0  0  0  0  # atno 10167 bound_to 10162
  156.2303  130.4172  149.8883 H   0  0  0  0  0  0  0  0  0  0  0  0  # atno 10718 bound_to 10713
  153.1854  135.4476  155.0082 H   0  0  0  0  0  0  0  0  0  0  0  0  # atno 10763 bound_to 10752
  154.8057  135.3273  154.7439 H   0  0  0  0  0  0  0  0  0  0  0  0  # atno 10764 bound_to 10752
  153.7899  135.6971  153.4928 H   0  0  0  0  0  0  0  0  0  0  0  0  # atno 10765 bound_to 10752
  140.2252  134.8166  157.3261 H   0  0  0  0  0  0  0  0  0  0  0  0  # atno 11005 bound_to 11000
  146.3435  139.9272  142.8758 LP  0  0  0  0  0  0  0  0  0  0  0  0  # atno 17320 bound_to 7965
  145.2260  140.9954  143.4018 LP  0  0  0  0  0  0  0  0  0  0  0  0  # atno 17321 bound_to 7965
  140.6073  143.2168  151.6955 LP  0  0  0  0  0  0  0  0  0  0  0  0  # atno 17342 bound_to 10162
  139.5060  144.3698  152.0482 LP  0  0  0  0  0  0  0  0  0  0  0  0  # atno 17343 bound_to 10162
  156.6500  130.8739  151.3529 LP  0  0  0  0  0  0  0  0  0  0  0  0  # atno 17370 bound_to 10713
  157.7130  130.9462  150.1154 LP  0  0  0  0  0  0  0  0  0  0  0  0  # atno 17371 bound_to 10713
  140.1807  134.4493  155.7773 LP  0  0  0  0  0  0  0  0  0  0  0  0  # atno 17394 bound_to 11000
  141.2221  133.6982  156.7864 LP  0  0  0  0  0  0  0  0  0  0  0  0  # atno 17395 bound_to 11000

$$$$
