AV-unprocessed.smi:3029|AV-procd|sdf|11525|dock10
  -GOLD-   2272016463D 1   1.00000     0.00000
 Structure written by MMmdl.
 42 43  0  0  0  0  0  0  0  0  4 V2000
  149.4759  140.9953  153.9047 O   0  0  0  0  0  0  0  0  0  0  0  0
  148.8354  141.3265  154.9019 C   0  0  0  0  0  0  0  0  0  0  0  0
  147.4261  141.7246  154.8265 C   0  0  0  0  0  0  0  0  0  0  0  0
  146.7385  142.1064  155.9208 C   0  0  0  0  0  0  0  0  0  0  0  0
  147.3813  142.1349  157.2200 C   0  0  0  0  0  0  0  0  0  0  0  0
  146.6625  142.5698  158.3970 N   0  3  0  0  0  0  0  0  0  0  0  0
  147.2742  142.6976  159.4534 O   0  0  0  0  0  0  0  0  0  0  0  0
  145.4623  142.8024  158.3006 O   0  5  0  0  0  0  0  0  0  0  0  0
  148.6730  141.7572  157.2885 C   0  0  0  0  0  0  0  0  0  0  0  0
  149.3964  141.3547  156.1486 N   0  0  0  0  0  0  0  0  0  0  0  0
  150.8091  140.9884  156.3419 C   0  0  0  0  0  0  0  0  0  0  0  0
  151.1053  140.5153  157.7788 C   0  0  0  0  0  0  0  0  0  0  0  0
  152.3823  141.0655  158.2834 N   0  3  0  0  0  0  0  0  0  0  0  0
  152.5258  141.1084  159.7558 C   0  0  2  0  0  0  0  0  0  0  0  0
  152.5005  142.5750  160.2415 C   0  0  0  0  0  0  0  0  0  0  0  0
  152.7070  142.6851  161.7569 C   0  0  0  0  0  0  0  0  0  0  0  0
  154.0158  142.0080  162.1745 C   0  0  0  0  0  0  0  0  0  0  0  0
  154.0351  140.5408  161.7267 C   0  0  0  0  0  0  0  0  0  0  0  0
  153.8304  140.3859  160.2011 C   0  0  1  0  0  0  0  0  0  0  0  0
  153.8639  138.8861  159.8080 C   0  0  0  0  0  0  0  0  0  0  0  0
  153.0702  138.1739  160.6080 F   0  0  0  0  0  0  0  0  0  0  0  0
  153.4717  138.7052  158.5470 F   0  0  0  0  0  0  0  0  0  0  0  0
  155.1069  138.4160  159.9098 F   0  0  0  0  0  0  0  0  0  0  0  0
  146.9274  141.7104  153.8685 H   0  0  0  0  0  0  0  0  0  0  0  0
  145.7014  142.3897  155.8158 H   0  0  0  0  0  0  0  0  0  0  0  0
  149.2414  141.7506  158.2073 H   0  0  0  0  0  0  0  0  0  0  0  0
  151.0949  140.2049  155.6385 H   0  0  0  0  0  0  0  0  0  0  0  0
  151.4536  141.8334  156.0932 H   0  0  0  0  0  0  0  0  0  0  0  0
  150.2895  140.8124  158.4375 H   0  0  0  0  0  0  0  0  0  0  0  0
  151.1492  139.4258  157.8024 H   0  0  0  0  0  0  0  0  0  0  0  0
  153.1167  140.4667  157.9325 H   0  0  0  0  0  0  0  0  0  0  0  0
  151.6822  140.5779  160.2001 H   0  0  0  0  0  0  0  0  0  0  0  0
  153.2779  143.1455  159.7310 H   0  0  0  0  0  0  0  0  0  0  0  0
  151.5531  143.0479  159.9823 H   0  0  0  0  0  0  0  0  0  0  0  0
  152.7182  143.7338  162.0559 H   0  0  0  0  0  0  0  0  0  0  0  0
  151.8685  142.2219  162.2788 H   0  0  0  0  0  0  0  0  0  0  0  0
  154.8629  142.5385  161.7373 H   0  0  0  0  0  0  0  0  0  0  0  0
  154.1370  142.0684  163.2564 H   0  0  0  0  0  0  0  0  0  0  0  0
  154.9838  140.0947  162.0260 H   0  0  0  0  0  0  0  0  0  0  0  0
  153.2580  139.9922  162.2607 H   0  0  0  0  0  0  0  0  0  0  0  0
  154.6726  140.8753  159.7085 H   0  0  0  0  0  0  0  0  0  0  0  0
  152.5222  141.9927  157.9078 H   0  0  0  0  0  0  0  0  0  0  0  0
  1  2  2  0  0  0  0
  2 10  1  0  0  0  0
  2  3  1  0  0  0  0
  3  4  2  0  0  0  0
  3 24  1  0  0  0  0
  4  5  1  0  0  0  0
  4 25  1  0  0  0  0
  5  6  1  0  0  0  0
  5  9  2  0  0  0  0
  6  7  2  0  0  0  0
  6  8  1  0  0  0  0
  9 10  1  0  0  0  0
  9 26  1  0  0  0  0
 10 11  1  0  0  0  0
 11 12  1  0  0  0  0
 11 27  1  0  0  0  0
 11 28  1  0  0  0  0
 12 13  1  0  0  0  0
 12 29  1  0  0  0  0
 12 30  1  0  0  0  0
 13 14  1  0  0  0  0
 13 31  1  0  0  0  0
 13 42  1  0  0  0  0
 14 19  1  0  0  0  0
 14 15  1  0  0  0  0
 14 32  1  0  0  0  0
 15 16  1  0  0  0  0
 15 33  1  0  0  0  0
 15 34  1  0  0  0  0
 16 17  1  0  0  0  0
 16 35  1  0  0  0  0
 16 36  1  0  0  0  0
 17 18  1  0  0  0  0
 17 37  1  0  0  0  0
 17 38  1  0  0  0  0
 18 19  1  0  0  0  0
 18 39  1  0  0  0  0
 18 40  1  0  0  0  0
 19 20  1  0  0  0  0
 19 41  1  0  0  0  0
 20 21  1  0  0  0  0
 20 22  1  0  0  0  0
 20 23  1  0  0  0  0
M  CHG  1   6   1
M  CHG  1   8  -1
M  CHG  1  13   1
M  END
> <s_m_source_file>
AV-unprocessed.smi

> <i_m_source_file_index>
3029

> <i_lp_mmshare_version>
43012

> <i_f3d_flags>
0

> <s_epik_input>
Tz1jMVtjSF1bY0hdYyhbTitdKD1PKVtPLV0pW2NIXW4xW0NIMl1bQ0gyXVtOSF1bQ0BASF0yW0NIMl1bQ0gyXVtDSDJdW0NIMl1bQ0BIXTJDKEYpKEYpRg==

> <s_epik_cmdline>
J2VwaWtfcHl0aG9uJywgJy1waCcsICc3LjAnLCAnLXRuJywgJzgnLCAnLW1hJywgJzIwMCcsICctbWV0YWxfYmluZGluZycsICctaW1hZScsICc8aW5maWxlLm1hZT4nLCAnLW9tYWUnLCAnPG91dGZpbGUubWFlPic=

> <r_lp_tautomer_probability>
1

> <r_epik_Ionization_Penalty>
0.037386

> <r_epik_Ionization_Penalty_Charging>
0.037386

> <r_epik_Ionization_Penalty_Neutral>
0

> <r_epik_State_Penalty>
0.0312892

> <r_epik_Charging_Adjusted_Penalty>
0.0686752

> <i_epik_Tot_Q>
1

> <i_epik_Tot_abs_Q>
3

> <r_epik_Metal_State_Penalty>
0.0312892

> <b_epik_Metal_Only>
0

> <s_lp_Force_Field>
OPLS_2005

> <r_lp_Energy>
38.6527

> <b_lp_Chiralities_Consistent>
1

> <s_lp_Variant>
AV-unprocessed.smi:3029-1

> <Gold.Version>
5.8.1

> <Gold.Id.Protein>
6NUR|6NUR_protein|mol2

> <Gold.PLP.Fitness>
42.0385

> <Gold.PLP.PLP>
-39.4644

> <Gold.PLP.part.hbond>
-3.9164

> <Gold.PLP.part.metal>
0.0000

> <Gold.PLP.part.buried>
-3.2444

> <Gold.PLP.part.nonpolar>
-34.5242

> <Gold.PLP.part.repulsive>
1.4849

> <Gold.PLP.ligand.clash>
0.0000

> <Gold.PLP.ligand.torsion>
1.7465

> <Gold.PLP.Chemscore.Hbond>
2.0048

> <Gold.PLP.Chemscore.CHOScore>
0.0000

> <Gold.PLP.Chemscore.Metal>
0.0000

> <Gold.Chemscore.Hbonds>
donor molecule, donor type, donor heavy atom, donor atom, acceptor molecule, acceptor atom, score
      P1  H  6933  6944       L1     7  0.14
      P1  H  6934  6946       L1     7  0.33
      P1  H  7989  7998       L1     1  0.26
      P1  H  8011  8017       L1     1  0.68

> <Gold.PLP.Chemscore.Internal.Correction>
0.0528

> <Gold.Rescore>
     Score         DG    S(hbond)    S(metal)    S(lipo)     H(rot)  DE(clash)    DE(int)     intcor
     13.11     -17.54       1.93        0.00      89.71       1.90       1.32       3.11       ----

> <Gold.Chemscore.Fitness>
13.1109

> <Gold.Chemscore.DG>
-17.5442

> <Gold.Chemscore.ZeroCoef>
-5.4800

> <Gold.Chemscore.Hbond>
1.9286

> <Gold.Chemscore.Metal>
0.0000

> <Gold.Chemscore.Lipo>
89.7117

> <Gold.Chemscore.Internal_Hbond>
0.0000

> <Gold.Chemscore.DEClash>
1.3202

> <Gold.Chemscore.DEInternal>
3.1131

> <Gold.Chemscore.Rot>
1.9037

> <Gold.Chemscore.Internal.Correction>
   9.000000E+99

> <Gold.Chemscore.Hbonds>
donor molecule, donor type, donor heavy atom, donor atom, acceptor molecule, acceptor atom, score
      P1  H  6933  6944       L1     7  0.15
      P1  H  6934  6946       L1     7  0.23
      P1  H  7989  7998       L1     1  0.26
      P1  H  8011  8017       L1     1  0.64

> <Gold.Chemscore.Hbond.Weighted>
-6.4415

> <Gold.Chemscore.Metal.Weighted>
-0.0000

> <Gold.Chemscore.Lipo.Weighted>
-10.4963

> <Gold.Chemscore.Internal_Hbond.Weighted>
0.0000

> <Gold.Chemscore.DEClash.Weighted>
1.3202

> <Gold.Chemscore.DEInternal.Weighted>
3.1131

> <Gold.Chemscore.Rot.Weighted>
4.8736

> <Gold.Chemscore.Internal.Correction.Weighted>
   9.000000E+99

> <Gold.Protein.RotatedTorsions>
[ 6907 6896 6895 6894 ] final   68.92 input  -60.11 | X-H torsion
[ 7974 7965 7964 7962 ] final    5.02 input  175.53 | X-H torsion
[ 8008 7997 7996 7995 ] final   78.06 input   59.86 | X-H torsion
[ 10167 10162 10161 10158 ] final  -24.58 input  -65.29 | X-H torsion
[ 10718 10713 10712 10709 ] final  124.66 input   66.30 | X-H torsion
[ 10763 10752 10751 10750 ] final   64.44 input  -60.55 | X-H torsion
[ 11005 11000 10999 10996 ] final  -63.40 input  -57.11 | X-H torsion

> <Gold.Protein.ActiveResidues>
 VAL166  LYS551  ARG553  GLY616  TRP617  ASP618  TYR619  PRO620  LYS621  CYS622 
 ASP623  PHE694  ASN695  SER759  ASP760  ASP761  ALA762  ILE779  LEU786  VAL792 
 PHE793  MET794  SER795  GLU796  ALA797  LYS798  CYS799  TRP800  GLU811  SER814 

> <Gold.Protein.RotatedAtoms>
  152.4652  134.5091  159.9748 H   0  0  0  0  0  0  0  0  0  0  0  0  # atno 6907 bound_to 6896
  151.5130  133.3475  159.2896 H   0  0  0  0  0  0  0  0  0  0  0  0  # atno 6908 bound_to 6896
  150.8634  134.8020  159.7162 H   0  0  0  0  0  0  0  0  0  0  0  0  # atno 6909 bound_to 6896
  146.2442  140.0446  142.8379 H   0  0  0  0  0  0  0  0  0  0  0  0  # atno 7974 bound_to 7965
  155.8503  140.3458  155.5689 H   0  0  0  0  0  0  0  0  0  0  0  0  # atno 8008 bound_to 7997
  155.8044  140.0890  157.1958 H   0  0  0  0  0  0  0  0  0  0  0  0  # atno 8009 bound_to 7997
  154.4007  140.1459  156.3300 H   0  0  0  0  0  0  0  0  0  0  0  0  # atno 8010 bound_to 7997
  140.7288  143.4340  151.0758 H   0  0  0  0  0  0  0  0  0  0  0  0  # atno 10167 bound_to 10162
  157.5567  131.1091  150.8610 H   0  0  0  0  0  0  0  0  0  0  0  0  # atno 10718 bound_to 10713
  153.0056  135.5393  154.6511 H   0  0  0  0  0  0  0  0  0  0  0  0  # atno 10763 bound_to 10752
  154.5743  135.2844  155.0799 H   0  0  0  0  0  0  0  0  0  0  0  0  # atno 10764 bound_to 10752
  154.1952  135.6493  153.5124 H   0  0  0  0  0  0  0  0  0  0  0  0  # atno 10765 bound_to 10752
  141.1392  133.6651  156.5675 H   0  0  0  0  0  0  0  0  0  0  0  0  # atno 11005 bound_to 11000
  145.1038  140.9363  143.4697 LP  0  0  0  0  0  0  0  0  0  0  0  0  # atno 17320 bound_to 7965
  145.0645  139.3079  143.5863 LP  0  0  0  0  0  0  0  0  0  0  0  0  # atno 17321 bound_to 7965
  139.8000  143.8097  152.3162 LP  0  0  0  0  0  0  0  0  0  0  0  0  # atno 17342 bound_to 10162
  139.8110  144.7335  150.9697 LP  0  0  0  0  0  0  0  0  0  0  0  0  # atno 17343 bound_to 10162
  156.9119  130.5284  149.5280 LP  0  0  0  0  0  0  0  0  0  0  0  0  # atno 17370 bound_to 10713
  156.0625  130.5674  150.9221 LP  0  0  0  0  0  0  0  0  0  0  0  0  # atno 17371 bound_to 10713
  140.3939  134.7416  157.4739 LP  0  0  0  0  0  0  0  0  0  0  0  0  # atno 17394 bound_to 11000
  140.0545  134.6083  155.8821 LP  0  0  0  0  0  0  0  0  0  0  0  0  # atno 17395 bound_to 11000

$$$$
