AV-unprocessed.smi:2013|AV-procd|sdf|8157|dock10
  -GOLD-   2272010403D 1   1.00000     0.00000
 Structure written by MMmdl.
 51 52  0  0  0  0  0  0  0  0  2 V2000
  145.7666  138.5305  154.9512 C   0  0  0  0  0  0  0  0  0  0  0  0
  146.2169  139.6973  154.0515 C   0  0  0  0  0  0  0  0  0  0  0  0
  147.5930  139.3561  153.4450 C   0  0  0  0  0  0  0  0  0  0  0  0
  146.2322  141.0668  154.7913 C   0  0  2  0  0  0  0  0  0  0  0  0
  146.9775  141.0029  156.1549 C   0  0  0  0  0  0  0  0  0  0  0  0
  148.4144  141.2249  156.0320 N   0  0  0  0  0  0  0  0  0  0  0  0
  149.3616  140.2967  156.2298 C   0  0  0  0  0  0  0  0  0  0  0  0
  149.1128  139.1333  156.5476 O   0  0  0  0  0  0  0  0  0  0  0  0
  150.8119  140.7723  156.0729 C   0  0  0  0  0  0  0  0  0  0  0  0
  151.2663  141.6036  157.1949 N   0  0  0  0  0  0  0  0  0  0  0  0
  150.7214  142.8617  157.3793 C   0  0  0  0  0  0  0  0  0  0  0  0
  151.0756  143.6861  158.3889 C   0  0  0  0  0  0  0  0  0  0  0  0
  152.0814  143.2833  159.3634 C   0  0  0  0  0  0  0  0  0  0  0  0
  152.4376  143.9946  160.3042 O   0  0  0  0  0  0  0  0  0  0  0  0
  152.6262  141.9965  159.1507 N   0  0  0  0  0  0  0  0  0  0  0  0
  153.6315  141.5599  160.0973 C   0  0  0  0  0  0  0  0  0  0  0  0
  152.2462  141.1329  158.0966 C   0  0  0  0  0  0  0  0  0  0  0  0
  152.7349  140.0101  157.9514 O   0  0  0  0  0  0  0  0  0  0  0  0
  144.8377  141.6046  154.8853 N   0  3  0  0  0  0  0  0  0  0  0  0
  143.8553  140.7651  155.6161 C   0  0  0  0  0  0  0  0  0  0  0  0
  142.4386  141.3308  155.4257 C   0  0  0  0  0  0  0  0  0  0  0  0
  142.4037  142.6852  155.8609 O   0  0  0  0  0  0  0  0  0  0  0  0
  143.2799  143.5135  155.1055 C   0  0  0  0  0  0  0  0  0  0  0  0
  144.7291  143.0303  155.2824 C   0  0  0  0  0  0  0  0  0  0  0  0
  146.3758  138.4653  155.8532 H   0  0  0  0  0  0  0  0  0  0  0  0
  145.8497  137.5774  154.4280 H   0  0  0  0  0  0  0  0  0  0  0  0
  144.7237  138.6256  155.2520 H   0  0  0  0  0  0  0  0  0  0  0  0
  145.5039  139.7557  153.2284 H   0  0  0  0  0  0  0  0  0  0  0  0
  148.3657  139.3184  154.2136 H   0  0  0  0  0  0  0  0  0  0  0  0
  147.9026  140.0844  152.6956 H   0  0  0  0  0  0  0  0  0  0  0  0
  147.5737  138.3851  152.9491 H   0  0  0  0  0  0  0  0  0  0  0  0
  146.7969  141.7481  154.1527 H   0  0  0  0  0  0  0  0  0  0  0  0
  146.5287  141.7087  156.8558 H   0  0  0  0  0  0  0  0  0  0  0  0
  146.8658  140.0169  156.6038 H   0  0  0  0  0  0  0  0  0  0  0  0
  148.7125  142.1532  155.7693 H   0  0  0  0  0  0  0  0  0  0  0  0
  151.4753  139.9143  155.9487 H   0  0  0  0  0  0  0  0  0  0  0  0
  150.8830  141.3350  155.1411 H   0  0  0  0  0  0  0  0  0  0  0  0
  149.9694  143.2048  156.6837 H   0  0  0  0  0  0  0  0  0  0  0  0
  150.6084  144.6559  158.4772 H   0  0  0  0  0  0  0  0  0  0  0  0
  154.0552  140.5976  159.8126 H   0  0  0  0  0  0  0  0  0  0  0  0
  153.1439  141.4837  161.0705 H   0  0  0  0  0  0  0  0  0  0  0  0
  154.4214  142.3132  160.1058 H   0  0  0  0  0  0  0  0  0  0  0  0
  143.8926  139.7378  155.2538 H   0  0  0  0  0  0  0  0  0  0  0  0
  144.0900  140.7406  156.6802 H   0  0  0  0  0  0  0  0  0  0  0  0
  142.1281  141.2629  154.3816 H   0  0  0  0  0  0  0  0  0  0  0  0
  141.7220  140.7529  156.0095 H   0  0  0  0  0  0  0  0  0  0  0  0
  142.9910  143.5040  154.0532 H   0  0  0  0  0  0  0  0  0  0  0  0
  143.1815  144.5422  155.4527 H   0  0  0  0  0  0  0  0  0  0  0  0
  145.0302  143.1669  156.3201 H   0  0  0  0  0  0  0  0  0  0  0  0
  145.3932  143.6414  154.6704 H   0  0  0  0  0  0  0  0  0  0  0  0
  144.5185  141.5997  153.9268 H   0  0  0  0  0  0  0  0  0  0  0  0
  1  2  1  0  0  0  0
  1 25  1  0  0  0  0
  1 26  1  0  0  0  0
  1 27  1  0  0  0  0
  2  3  1  0  0  0  0
  2  4  1  0  0  0  0
  2 28  1  0  0  0  0
  3 29  1  0  0  0  0
  3 30  1  0  0  0  0
  3 31  1  0  0  0  0
  4  5  1  0  0  0  0
  4 19  1  0  0  0  0
  4 32  1  0  0  0  0
  5  6  1  0  0  0  0
  5 33  1  0  0  0  0
  5 34  1  0  0  0  0
  6  7  1  0  0  0  0
  6 35  1  0  0  0  0
  7  8  2  0  0  0  0
  7  9  1  0  0  0  0
  9 10  1  0  0  0  0
  9 36  1  0  0  0  0
  9 37  1  0  0  0  0
 10 17  1  0  0  0  0
 10 11  1  0  0  0  0
 11 12  2  0  0  0  0
 11 38  1  0  0  0  0
 12 13  1  0  0  0  0
 12 39  1  0  0  0  0
 13 14  2  0  0  0  0
 13 15  1  0  0  0  0
 15 16  1  0  0  0  0
 15 17  1  0  0  0  0
 16 40  1  0  0  0  0
 16 41  1  0  0  0  0
 16 42  1  0  0  0  0
 17 18  2  0  0  0  0
 19 24  1  0  0  0  0
 19 20  1  0  0  0  0
 19 51  1  0  0  0  0
 20 21  1  0  0  0  0
 20 43  1  0  0  0  0
 20 44  1  0  0  0  0
 21 22  1  0  0  0  0
 21 45  1  0  0  0  0
 21 46  1  0  0  0  0
 22 23  1  0  0  0  0
 23 24  1  0  0  0  0
 23 47  1  0  0  0  0
 23 48  1  0  0  0  0
 24 49  1  0  0  0  0
 24 50  1  0  0  0  0
M  CHG  1  19   1
M  END
> <s_m_source_file>
AV-unprocessed.smi

> <i_m_source_file_index>
2013

> <i_lp_mmshare_version>
43012

> <i_f3d_flags>
0

> <s_epik_input>
W0NIMl0xW0NIMl1PW0NIMl1bQ0gyXU4xW0NASF0oW0NIXShbQ0gzXSlbQ0gzXSlbQ0gyXVtOSF1DKD1PKVtDSDJdbjJbY0hdW2NIXWMoPU8pbihbQ0gzXSljMj1P

> <s_epik_cmdline>
J2VwaWtfcHl0aG9uJywgJy1waCcsICc3LjAnLCAnLXRuJywgJzgnLCAnLW1hJywgJzIwMCcsICctbWV0YWxfYmluZGluZycsICctaW1hZScsICc8aW5maWxlLm1hZT4nLCAnLW9tYWUnLCAnPG91dGZpbGUubWFlPic=

> <r_lp_tautomer_probability>
1

> <r_epik_Ionization_Penalty>
0.370738

> <r_epik_Ionization_Penalty_Charging>
0.370738

> <r_epik_Ionization_Penalty_Neutral>
8.1827e-08

> <r_epik_State_Penalty>
0.368162

> <r_epik_Charging_Adjusted_Penalty>
0.7389

> <i_epik_Tot_Q>
1

> <i_epik_Tot_abs_Q>
1

> <r_epik_Metal_State_Penalty>
0.368194

> <b_epik_Metal_Only>
0

> <s_lp_Force_Field>
OPLS_2005

> <r_lp_Energy>
40.4187

> <b_lp_Chiralities_Consistent>
1

> <s_lp_Variant>
AV-unprocessed.smi:2013-1

> <Gold.Version>
5.8.1

> <Gold.Id.Protein>
6NUR|6NUR_protein|mol2

> <Gold.PLP.Fitness>
41.0325

> <Gold.PLP.PLP>
-30.6419

> <Gold.PLP.part.hbond>
-2.0000

> <Gold.PLP.part.metal>
0.0000

> <Gold.PLP.part.buried>
-4.1632

> <Gold.PLP.part.nonpolar>
-25.9602

> <Gold.PLP.part.repulsive>
0.1463

> <Gold.PLP.ligand.clash>
0.0000

> <Gold.PLP.ligand.torsion>
0.9914

> <Gold.PLP.Chemscore.Hbond>
3.0000

> <Gold.PLP.Chemscore.CHOScore>
1.0000

> <Gold.PLP.Chemscore.Metal>
0.0000

> <Gold.Chemscore.Hbonds>
donor molecule, donor type, donor heavy atom, donor atom, acceptor molecule, acceptor atom, score
      L1  H    19    51       P1 10175  1.46
      P1  H  7997  8010       L1    18  0.87
      L1  C    11    38       P1  8028  1.00

> <Gold.PLP.Chemscore.Internal.Correction>
0.3733

> <Gold.Rescore>
     Score         DG    S(hbond)    S(metal)    S(lipo)     H(rot)  DE(clash)    DE(int)     intcor
     11.23     -12.55       1.90        0.00      56.13       2.28       0.13       1.19       ----

> <Gold.Chemscore.Fitness>
11.2307

> <Gold.Chemscore.DG>
-12.5456

> <Gold.Chemscore.ZeroCoef>
-5.4800

> <Gold.Chemscore.Hbond>
1.8979

> <Gold.Chemscore.Metal>
0.0000

> <Gold.Chemscore.Lipo>
56.1281

> <Gold.Chemscore.Internal_Hbond>
0.0000

> <Gold.Chemscore.DEClash>
0.1293

> <Gold.Chemscore.DEInternal>
1.1857

> <Gold.Chemscore.Rot>
2.2814

> <Gold.Chemscore.Internal.Correction>
   9.000000E+99

> <Gold.Chemscore.Hbonds>
donor molecule, donor type, donor heavy atom, donor atom, acceptor molecule, acceptor atom, score
      L1  H    19    51       P1 10175  0.10
      P1  H  7997  8010       L1    18  0.68

> <Gold.Chemscore.Hbond.Weighted>
-6.3391

> <Gold.Chemscore.Metal.Weighted>
-0.0000

> <Gold.Chemscore.Lipo.Weighted>
-6.5670

> <Gold.Chemscore.Internal_Hbond.Weighted>
0.0000

> <Gold.Chemscore.DEClash.Weighted>
0.1293

> <Gold.Chemscore.DEInternal.Weighted>
1.1857

> <Gold.Chemscore.Rot.Weighted>
5.8404

> <Gold.Chemscore.Internal.Correction.Weighted>
   9.000000E+99

> <Gold.Protein.RotatedTorsions>
[ 6907 6896 6895 6894 ] final  121.08 input  -60.11 | X-H torsion
[ 7974 7965 7964 7962 ] final -164.06 input  175.53 | X-H torsion
[ 8008 7997 7996 7995 ] final   32.69 input   59.86 | X-H torsion
[ 10167 10162 10161 10158 ] final  -75.35 input  -65.29 | X-H torsion
[ 10718 10713 10712 10709 ] final   98.72 input   66.30 | X-H torsion
[ 10763 10752 10751 10750 ] final   83.60 input  -60.55 | X-H torsion
[ 11005 11000 10999 10996 ] final   36.03 input  -57.11 | X-H torsion

> <Gold.Protein.ActiveResidues>
 VAL166  LYS551  ARG553  GLY616  TRP617  ASP618  TYR619  PRO620  LYS621  CYS622 
 ASP623  PHE694  ASN695  SER759  ASP760  ASP761  ALA762  ILE779  LEU786  VAL792 
 PHE793  MET794  SER795  GLU796  ALA797  LYS798  CYS799  TRP800  GLU811  SER814 

> <Gold.Protein.RotatedAtoms>
  152.4349  133.7342  159.6604 H   0  0  0  0  0  0  0  0  0  0  0  0  # atno 6907 bound_to 6896
  150.8231  133.8207  159.3136 H   0  0  0  0  0  0  0  0  0  0  0  0  # atno 6908 bound_to 6896
  151.5883  135.1057  160.0085 H   0  0  0  0  0  0  0  0  0  0  0  0  # atno 6909 bound_to 6896
  144.7307  140.3016  143.6203 H   0  0  0  0  0  0  0  0  0  0  0  0  # atno 7974 bound_to 7965
  155.1265  140.3253  155.4484 H   0  0  0  0  0  0  0  0  0  0  0  0  # atno 8008 bound_to 7997
  156.2647  140.2018  156.6334 H   0  0  0  0  0  0  0  0  0  0  0  0  # atno 8009 bound_to 7997
  154.6644  140.0543  157.0085 H   0  0  0  0  0  0  0  0  0  0  0  0  # atno 8010 bound_to 7997
  140.4950  143.2372  151.7846 H   0  0  0  0  0  0  0  0  0  0  0  0  # atno 10167 bound_to 10162
  157.6890  131.0648  150.4838 H   0  0  0  0  0  0  0  0  0  0  0  0  # atno 10718 bound_to 10713
  153.1306  135.4685  154.9343 H   0  0  0  0  0  0  0  0  0  0  0  0  # atno 10763 bound_to 10752
  154.7660  135.3145  154.8286 H   0  0  0  0  0  0  0  0  0  0  0  0  # atno 10764 bound_to 10752
  153.8830  135.6892  153.4819 H   0  0  0  0  0  0  0  0  0  0  0  0  # atno 10765 bound_to 10752
  140.2366  134.3464  155.7942 H   0  0  0  0  0  0  0  0  0  0  0  0  # atno 11005 bound_to 11000
  145.7755  139.1872  143.2188 LP  0  0  0  0  0  0  0  0  0  0  0  0  # atno 17320 bound_to 7965
  146.0876  140.7692  142.9611 LP  0  0  0  0  0  0  0  0  0  0  0  0  # atno 17321 bound_to 7965
  139.4859  144.4599  151.9554 LP  0  0  0  0  0  0  0  0  0  0  0  0  # atno 17342 bound_to 10162
  140.3686  144.2883  150.5923 LP  0  0  0  0  0  0  0  0  0  0  0  0  # atno 17343 bound_to 10162
  156.5169  130.4152  149.6271 LP  0  0  0  0  0  0  0  0  0  0  0  0  # atno 17370 bound_to 10713
  156.3190  130.7270  151.2178 LP  0  0  0  0  0  0  0  0  0  0  0  0  # atno 17371 bound_to 10713
  141.2214  133.7275  156.8818 LP  0  0  0  0  0  0  0  0  0  0  0  0  # atno 17394 bound_to 11000
  140.1695  134.9109  157.2816 LP  0  0  0  0  0  0  0  0  0  0  0  0  # atno 17395 bound_to 11000

$$$$
