AV-unprocessed.smi:1430|AV-procd|sdf|5823|dock7
  -GOLD-   22720 5483D 1   1.00000     0.00000
 Structure written by MMmdl.
 46 47  0  0  0  0  0  0  0  0  1 V2000
  148.4570  130.3879  153.7822 C   0  0  0  0  0  0  0  0  0  0  0  0
  149.4621  130.7538  154.7212 O   0  0  0  0  0  0  0  0  0  0  0  0
  149.6451  132.0934  154.9967 C   0  0  0  0  0  0  0  0  0  0  0  0
  150.6204  132.4595  155.9454 C   0  0  0  0  0  0  0  0  0  0  0  0
  150.8153  133.8244  156.2314 C   0  0  0  0  0  0  0  0  0  0  0  0
  150.0293  134.7850  155.5509 C   0  0  0  0  0  0  0  0  0  0  0  0
  150.1149  136.1883  155.7598 N   0  0  0  0  0  0  0  0  0  0  0  0
  151.1046  136.8942  156.3336 C   0  0  0  0  0  0  0  0  0  0  0  0
  152.1555  136.4254  156.7707 O   0  0  0  0  0  0  0  0  0  0  0  0
  150.8145  138.2028  156.3561 N   0  0  0  0  0  0  0  0  0  0  0  0
  151.6854  139.2429  156.8902 C   0  0  0  0  0  0  0  0  0  0  0  0
  150.9125  140.5557  157.1155 C   0  0  0  0  0  0  0  0  0  0  0  0
  151.6411  141.5806  157.8602 N   0  0  0  0  0  0  0  0  0  0  0  0
  152.1687  141.0398  159.1065 C   0  0  0  0  0  0  0  0  0  0  0  0
  152.9742  142.0871  159.8960 C   0  0  2  0  0  0  0  0  0  0  0  0
  153.4563  141.5447  161.2455 C   0  0  0  0  0  0  0  0  0  0  0  0
  152.1529  143.2263  160.1450 O   0  0  0  0  0  0  0  0  0  0  0  0
  151.5612  143.8147  158.9855 C   0  0  1  0  0  0  0  0  0  0  0  0
  152.5899  144.6077  158.1616 C   0  0  0  0  0  0  0  0  0  0  0  0
  150.8125  142.7461  158.1633 C   0  0  0  0  0  0  0  0  0  0  0  0
  149.0708  134.3135  154.6301 C   0  0  0  0  0  0  0  0  0  0  0  0
  148.8795  133.0071  154.3506 N   0  0  0  0  0  0  0  0  0  0  0  0
  148.4389  129.3030  153.6778 H   0  0  0  0  0  0  0  0  0  0  0  0
  148.6581  130.8116  152.7972 H   0  0  0  0  0  0  0  0  0  0  0  0
  147.4669  130.7047  154.1131 H   0  0  0  0  0  0  0  0  0  0  0  0
  151.2074  131.7053  156.4485 H   0  0  0  0  0  0  0  0  0  0  0  0
  151.5493  134.1006  156.9718 H   0  0  0  0  0  0  0  0  0  0  0  0
  149.3503  136.7273  155.3805 H   0  0  0  0  0  0  0  0  0  0  0  0
  149.9307  138.5026  155.9711 H   0  0  0  0  0  0  0  0  0  0  0  0
  152.0960  138.8878  157.8357 H   0  0  0  0  0  0  0  0  0  0  0  0
  152.5310  139.3854  156.2164 H   0  0  0  0  0  0  0  0  0  0  0  0
  150.5876  140.9624  156.1565 H   0  0  0  0  0  0  0  0  0  0  0  0
  149.9996  140.3098  157.6603 H   0  0  0  0  0  0  0  0  0  0  0  0
  151.3486  140.6687  159.7240 H   0  0  0  0  0  0  0  0  0  0  0  0
  152.8096  140.1832  158.8938 H   0  0  0  0  0  0  0  0  0  0  0  0
  153.8469  142.3888  159.3164 H   0  0  0  0  0  0  0  0  0  0  0  0
  154.0993  140.6744  161.1121 H   0  0  0  0  0  0  0  0  0  0  0  0
  152.6162  141.2481  161.8741 H   0  0  0  0  0  0  0  0  0  0  0  0
  154.0266  142.3000  161.7868 H   0  0  0  0  0  0  0  0  0  0  0  0
  150.8256  144.5328  159.3488 H   0  0  0  0  0  0  0  0  0  0  0  0
  152.1038  145.1407  157.3442 H   0  0  0  0  0  0  0  0  0  0  0  0
  153.3488  143.9611  157.7218 H   0  0  0  0  0  0  0  0  0  0  0  0
  153.0979  145.3464  158.7819 H   0  0  0  0  0  0  0  0  0  0  0  0
  150.4434  143.2041  157.2461 H   0  0  0  0  0  0  0  0  0  0  0  0
  149.9319  142.4266  158.7228 H   0  0  0  0  0  0  0  0  0  0  0  0
  148.4381  135.0068  154.0949 H   0  0  0  0  0  0  0  0  0  0  0  0
  1  2  1  0  0  0  0
  1 23  1  0  0  0  0
  1 24  1  0  0  0  0
  1 25  1  0  0  0  0
  2  3  1  0  0  0  0
  3 22  1  0  0  0  0
  3  4  2  0  0  0  0
  4  5  1  0  0  0  0
  4 26  1  0  0  0  0
  5  6  2  0  0  0  0
  5 27  1  0  0  0  0
  6  7  1  0  0  0  0
  6 21  1  0  0  0  0
  7  8  1  0  0  0  0
  7 28  1  0  0  0  0
  8  9  2  0  0  0  0
  8 10  1  0  0  0  0
 10 11  1  0  0  0  0
 10 29  1  0  0  0  0
 11 12  1  0  0  0  0
 11 30  1  0  0  0  0
 11 31  1  0  0  0  0
 12 13  1  0  0  0  0
 12 32  1  0  0  0  0
 12 33  1  0  0  0  0
 13 20  1  0  0  0  0
 13 14  1  0  0  0  0
 14 15  1  0  0  0  0
 14 34  1  0  0  0  0
 14 35  1  0  0  0  0
 15 16  1  0  0  0  0
 15 17  1  0  0  0  0
 15 36  1  0  0  0  0
 16 37  1  0  0  0  0
 16 38  1  0  0  0  0
 16 39  1  0  0  0  0
 17 18  1  0  0  0  0
 18 19  1  0  0  0  0
 18 20  1  0  0  0  0
 18 40  1  0  0  0  0
 19 41  1  0  0  0  0
 19 42  1  0  0  0  0
 19 43  1  0  0  0  0
 20 44  1  0  0  0  0
 20 45  1  0  0  0  0
 21 22  2  0  0  0  0
 21 46  1  0  0  0  0
M  END
> <s_m_source_file>
AV-unprocessed.smi

> <i_m_source_file_index>
1430

> <i_lp_mmshare_version>
43012

> <i_f3d_flags>
0

> <s_epik_input>
W0NIM11PYzFbY0hdW2NIXWMoW2NIXW4xKVtOSF1DKD1PKVtOSF1bQ0gyXVtDSDJdTjJbQ0gyXVtDQEBIXShbQ0gzXSlPW0NAQEhdKFtDSDNdKVtDSDJdMg==

> <s_epik_cmdline>
J2VwaWtfcHl0aG9uJywgJy1waCcsICc3LjAnLCAnLXRuJywgJzgnLCAnLW1hJywgJzIwMCcsICctbWV0YWxfYmluZGluZycsICctaW1hZScsICc8aW5maWxlLm1hZT4nLCAnLW9tYWUnLCAnPG91dGZpbGUubWFlPic=

> <r_lp_tautomer_probability>
1

> <r_epik_Ionization_Penalty>
0.266083

> <r_epik_Ionization_Penalty_Charging>
0

> <r_epik_Ionization_Penalty_Neutral>
0.266083

> <r_epik_State_Penalty>
0.257924

> <r_epik_Charging_Adjusted_Penalty>
0.257924

> <i_epik_Tot_Q>
0

> <i_epik_Tot_abs_Q>
0

> <r_epik_Metal_State_Penalty>
0.257922

> <b_epik_Metal_Only>
0

> <s_lp_Force_Field>
OPLS_2005

> <r_lp_Energy>
25.3264

> <b_lp_Chiralities_Consistent>
1

> <s_lp_Variant>
AV-unprocessed.smi:1430-2

> <Gold.Version>
5.8.1

> <Gold.Id.Protein>
6NUR|6NUR_protein|mol2

> <Gold.PLP.Fitness>
44.6026

> <Gold.PLP.PLP>
-39.0269

> <Gold.PLP.part.hbond>
-1.0000

> <Gold.PLP.part.metal>
0.0000

> <Gold.PLP.part.buried>
-4.6036

> <Gold.PLP.part.nonpolar>
-33.0165

> <Gold.PLP.part.repulsive>
0.2765

> <Gold.PLP.ligand.clash>
0.0000

> <Gold.PLP.ligand.torsion>
0.2180

> <Gold.PLP.Chemscore.Hbond>
1.0000

> <Gold.PLP.Chemscore.CHOScore>
1.0000

> <Gold.PLP.Chemscore.Metal>
0.0000

> <Gold.Chemscore.Hbonds>
donor molecule, donor type, donor heavy atom, donor atom, acceptor molecule, acceptor atom, score
      P1  H 10752 10763       L1     9  0.62
      L1  C    21    46       P1  7948  0.83

> <Gold.PLP.Chemscore.Internal.Correction>
0.0116

> <Gold.Rescore>
     Score         DG    S(hbond)    S(metal)    S(lipo)     H(rot)  DE(clash)    DE(int)     intcor
     14.96     -16.40       1.00        0.00     102.34       1.71       0.07       1.36       ----

> <Gold.Chemscore.Fitness>
14.9630

> <Gold.Chemscore.DG>
-16.3988

> <Gold.Chemscore.ZeroCoef>
-5.4800

> <Gold.Chemscore.Hbond>
0.9953

> <Gold.Chemscore.Metal>
0.0000

> <Gold.Chemscore.Lipo>
102.3422

> <Gold.Chemscore.Internal_Hbond>
0.0000

> <Gold.Chemscore.DEClash>
0.0736

> <Gold.Chemscore.DEInternal>
1.3623

> <Gold.Chemscore.Rot>
1.7107

> <Gold.Chemscore.Internal.Correction>
   9.000000E+99

> <Gold.Chemscore.Hbonds>
donor molecule, donor type, donor heavy atom, donor atom, acceptor molecule, acceptor atom, score
      P1  H 10752 10763       L1     9  0.36

> <Gold.Chemscore.Hbond.Weighted>
-3.3242

> <Gold.Chemscore.Metal.Weighted>
-0.0000

> <Gold.Chemscore.Lipo.Weighted>
-11.9740

> <Gold.Chemscore.Internal_Hbond.Weighted>
0.0000

> <Gold.Chemscore.DEClash.Weighted>
0.0736

> <Gold.Chemscore.DEInternal.Weighted>
1.3623

> <Gold.Chemscore.Rot.Weighted>
4.3794

> <Gold.Chemscore.Internal.Correction.Weighted>
   9.000000E+99

> <Gold.Protein.RotatedTorsions>
[ 6907 6896 6895 6894 ] final   81.06 input  -60.11 | X-H torsion
[ 7974 7965 7964 7962 ] final  -50.22 input  175.53 | X-H torsion
[ 8008 7997 7996 7995 ] final  140.31 input   59.86 | X-H torsion
[ 10167 10162 10161 10158 ] final -171.28 input  -65.29 | X-H torsion
[ 10718 10713 10712 10709 ] final    0.39 input   66.30 | X-H torsion
[ 10763 10752 10751 10750 ] final   92.59 input  -60.55 | X-H torsion
[ 11005 11000 10999 10996 ] final  126.56 input  -57.11 | X-H torsion

> <Gold.Protein.ActiveResidues>
 VAL166  LYS551  ARG553  GLY616  TRP617  ASP618  TYR619  PRO620  LYS621  CYS622 
 ASP623  PHE694  ASN695  SER759  ASP760  ASP761  ALA762  ILE779  LEU786  VAL792 
 PHE793  MET794  SER795  GLU796  ALA797  LYS798  CYS799  TRP800  GLU811  SER814 

> <Gold.Protein.RotatedAtoms>
  152.5256  134.3262  159.9166 H   0  0  0  0  0  0  0  0  0  0  0  0  # atno 6907 bound_to 6896
  151.3211  133.4033  159.2662 H   0  0  0  0  0  0  0  0  0  0  0  0  # atno 6908 bound_to 6896
  150.9958  134.9299  159.7983 H   0  0  0  0  0  0  0  0  0  0  0  0  # atno 6909 bound_to 6896
  145.9322  140.7739  142.9594 H   0  0  0  0  0  0  0  0  0  0  0  0  # atno 7974 bound_to 7965
  156.2980  140.2344  156.4381 H   0  0  0  0  0  0  0  0  0  0  0  0  # atno 8008 bound_to 7997
  154.8210  140.0438  157.1431 H   0  0  0  0  0  0  0  0  0  0  0  0  # atno 8009 bound_to 7997
  154.9314  140.3017  155.5169 H   0  0  0  0  0  0  0  0  0  0  0  0  # atno 8010 bound_to 7997
  139.5812  144.1420  152.1517 H   0  0  0  0  0  0  0  0  0  0  0  0  # atno 10167 bound_to 10162
  156.8327  130.5494  149.5685 H   0  0  0  0  0  0  0  0  0  0  0  0  # atno 10718 bound_to 10713
  153.2209  135.4356  155.0487 H   0  0  0  0  0  0  0  0  0  0  0  0  # atno 10763 bound_to 10752
  154.8249  135.3356  154.6929 H   0  0  0  0  0  0  0  0  0  0  0  0  # atno 10764 bound_to 10752
  153.7361  135.7008  153.5034 H   0  0  0  0  0  0  0  0  0  0  0  0  # atno 10765 bound_to 10752
  139.9462  134.9629  156.8726 H   0  0  0  0  0  0  0  0  0  0  0  0  # atno 11005 bound_to 11000
  144.6766  140.2145  143.7373 LP  0  0  0  0  0  0  0  0  0  0  0  0  # atno 17320 bound_to 7965
  145.8411  139.2130  143.1827 LP  0  0  0  0  0  0  0  0  0  0  0  0  # atno 17321 bound_to 7965
  140.0974  144.5569  150.7013 LP  0  0  0  0  0  0  0  0  0  0  0  0  # atno 17342 bound_to 10162
  140.7089  143.2490  151.4640 LP  0  0  0  0  0  0  0  0  0  0  0  0  # atno 17343 bound_to 10162
  156.0925  130.5907  150.9757 LP  0  0  0  0  0  0  0  0  0  0  0  0  # atno 17370 bound_to 10713
  157.6398  131.0911  150.8274 LP  0  0  0  0  0  0  0  0  0  0  0  0  # atno 17371 bound_to 10713
  140.5828  134.0336  155.7470 LP  0  0  0  0  0  0  0  0  0  0  0  0  # atno 17394 bound_to 11000
  141.1114  133.9611  157.2904 LP  0  0  0  0  0  0  0  0  0  0  0  0  # atno 17395 bound_to 11000

$$$$
