AV-unprocessed.smi:3031|AV-procd|sdf|11555|dock5
  -GOLD-   2272016523D 1   1.00000     0.00000
 Structure written by MMmdl.
 46 47  0  0  0  0  0  0  0  0  1 V2000
  145.4587  130.9713  150.9674 C   0  0  0  0  0  0  0  0  0  0  0  0
  145.3461  132.4186  151.3509 C   0  0  0  0  0  0  0  0  0  0  0  0
  145.0538  132.9606  152.6347 C   0  0  0  0  0  0  0  0  0  0  0  0
  145.0271  134.2829  152.6403 N   0  0  0  0  0  0  0  0  0  0  0  0
  145.3090  134.6334  151.3669 N   0  0  0  0  0  0  0  0  0  0  0  0
  145.3692  136.0397  150.9992 C   0  0  0  0  0  0  0  0  0  0  0  0
  145.0489  137.0062  152.1682 C   0  0  2  0  0  0  0  0  0  0  0  0
  143.5679  136.9572  152.5758 C   0  0  0  0  0  0  0  0  0  0  0  0
  145.4271  138.3942  151.8812 N   0  0  0  0  0  0  0  0  0  0  0  0
  146.8552  138.6339  151.6744 C   0  0  0  0  0  0  0  0  0  0  0  0
  147.4295  139.5357  152.7786 C   0  0  1  0  0  0  0  0  0  0  0  0
  146.4736  140.5432  153.0372 O   0  0  0  0  0  0  0  0  0  0  0  0
  147.6723  138.7587  154.0919 C   0  0  0  0  0  0  0  0  0  0  0  0
  148.9209  139.0702  154.7894 N   0  0  0  0  0  0  0  0  0  0  0  0
  149.1597  140.5085  154.9007 C   0  0  0  0  0  0  0  0  0  0  0  0
  150.4917  140.8174  155.6065 C   0  0  0  0  0  0  0  0  0  0  0  0
  151.5606  140.1758  154.9185 O   0  0  0  0  0  0  0  0  0  0  0  0
  151.3867  138.7656  154.8295 C   0  0  0  0  0  0  0  0  0  0  0  0
  150.0599  138.4556  154.1155 C   0  0  0  0  0  0  0  0  0  0  0  0
  145.4976  133.5266  150.5660 C   0  0  0  0  0  0  0  0  0  0  0  0
  146.3427  130.5082  151.4059 H   0  0  0  0  0  0  0  0  0  0  0  0
  145.5298  130.8409  149.8873 H   0  0  0  0  0  0  0  0  0  0  0  0
  144.5946  130.3980  151.3033 H   0  0  0  0  0  0  0  0  0  0  0  0
  144.8599  132.4344  153.5577 H   0  0  0  0  0  0  0  0  0  0  0  0
  146.3746  136.2434  150.6287 H   0  0  0  0  0  0  0  0  0  0  0  0
  144.7099  136.2113  150.1482 H   0  0  0  0  0  0  0  0  0  0  0  0
  145.6220  136.6671  153.0321 H   0  0  0  0  0  0  0  0  0  0  0  0
  143.2556  135.9363  152.7975 H   0  0  0  0  0  0  0  0  0  0  0  0
  142.9179  137.3423  151.7895 H   0  0  0  0  0  0  0  0  0  0  0  0
  143.3895  137.5546  153.4705 H   0  0  0  0  0  0  0  0  0  0  0  0
  145.0845  139.0015  152.6189 H   0  0  0  0  0  0  0  0  0  0  0  0
  147.3816  137.6784  151.6746 H   0  0  0  0  0  0  0  0  0  0  0  0
  147.0414  139.0939  150.7044 H   0  0  0  0  0  0  0  0  0  0  0  0
  148.3379  140.0115  152.4111 H   0  0  0  0  0  0  0  0  0  0  0  0
  145.6628  140.3006  152.6168 H   0  0  0  0  0  0  0  0  0  0  0  0
  146.8282  138.9489  154.7573 H   0  0  0  0  0  0  0  0  0  0  0  0
  147.6437  137.6870  153.8894 H   0  0  0  0  0  0  0  0  0  0  0  0
  149.1662  140.9601  153.9075 H   0  0  0  0  0  0  0  0  0  0  0  0
  148.3556  140.9885  155.4565 H   0  0  0  0  0  0  0  0  0  0  0  0
  150.6724  141.8925  155.6213 H   0  0  0  0  0  0  0  0  0  0  0  0
  150.4655  140.4828  156.6449 H   0  0  0  0  0  0  0  0  0  0  0  0
  152.2239  138.3369  154.2788 H   0  0  0  0  0  0  0  0  0  0  0  0
  151.4002  138.3257  155.8281 H   0  0  0  0  0  0  0  0  0  0  0  0
  149.9229  137.3745  154.0687 H   0  0  0  0  0  0  0  0  0  0  0  0
  150.1146  138.8075  153.0839 H   0  0  0  0  0  0  0  0  0  0  0  0
  145.7280  133.6190  149.5147 H   0  0  0  0  0  0  0  0  0  0  0  0
  1  2  1  0  0  0  0
  1 21  1  0  0  0  0
  1 22  1  0  0  0  0
  1 23  1  0  0  0  0
  2 20  2  0  0  0  0
  2  3  1  0  0  0  0
  3  4  2  0  0  0  0
  3 24  1  0  0  0  0
  4  5  1  0  0  0  0
  5  6  1  0  0  0  0
  5 20  1  0  0  0  0
  6  7  1  0  0  0  0
  6 25  1  0  0  0  0
  6 26  1  0  0  0  0
  7  8  1  0  0  0  0
  7  9  1  0  0  0  0
  7 27  1  0  0  0  0
  8 28  1  0  0  0  0
  8 29  1  0  0  0  0
  8 30  1  0  0  0  0
  9 10  1  0  0  0  0
  9 31  1  0  0  0  0
 10 11  1  0  0  0  0
 10 32  1  0  0  0  0
 10 33  1  0  0  0  0
 11 12  1  0  0  0  0
 11 13  1  0  0  0  0
 11 34  1  0  0  0  0
 12 35  1  0  0  0  0
 13 14  1  0  0  0  0
 13 36  1  0  0  0  0
 13 37  1  0  0  0  0
 14 19  1  0  0  0  0
 14 15  1  0  0  0  0
 15 16  1  0  0  0  0
 15 38  1  0  0  0  0
 15 39  1  0  0  0  0
 16 17  1  0  0  0  0
 16 40  1  0  0  0  0
 16 41  1  0  0  0  0
 17 18  1  0  0  0  0
 18 19  1  0  0  0  0
 18 42  1  0  0  0  0
 18 43  1  0  0  0  0
 19 44  1  0  0  0  0
 19 45  1  0  0  0  0
 20 46  1  0  0  0  0
M  END
> <s_m_source_file>
AV-unprocessed.smi

> <i_m_source_file_index>
3031

> <i_lp_mmshare_version>
43012

> <i_f3d_flags>
0

> <s_epik_input>
W0NIM11jMVtjSF1ubihbY0hdMSlbQ0gyXVtDQEhdKFtDSDNdKVtOSF1bQ0gyXVtDQEhdKFtPSF0pW0NIMl1OMltDSDJdW0NIMl1PW0NIMl1bQ0gyXTI=

> <s_epik_cmdline>
J2VwaWtfcHl0aG9uJywgJy1waCcsICc3LjAnLCAnLXRuJywgJzgnLCAnLW1hJywgJzIwMCcsICctbWV0YWxfYmluZGluZycsICctaW1hZScsICc8aW5maWxlLm1hZT4nLCAnLW9tYWUnLCAnPG91dGZpbGUubWFlPic=

> <r_lp_tautomer_probability>
1

> <r_epik_Ionization_Penalty>
2.8101

> <r_epik_Ionization_Penalty_Charging>
0

> <r_epik_Ionization_Penalty_Neutral>
2.8101

> <r_epik_State_Penalty>
2.12351

> <r_epik_Charging_Adjusted_Penalty>
2.12351

> <i_epik_Tot_Q>
0

> <i_epik_Tot_abs_Q>
0

> <r_epik_Metal_State_Penalty>
2.12345

> <b_epik_Metal_Only>
0

> <s_lp_Force_Field>
OPLS_2005

> <r_lp_Energy>
32.0321

> <b_lp_Chiralities_Consistent>
1

> <s_lp_Variant>
AV-unprocessed.smi:3031-15

> <Gold.Version>
5.8.1

> <Gold.Id.Protein>
6NUR|6NUR_protein|mol2

> <Gold.PLP.Fitness>
48.2802

> <Gold.PLP.PLP>
-37.2997

> <Gold.PLP.part.hbond>
-3.8389

> <Gold.PLP.part.metal>
0.0000

> <Gold.PLP.part.buried>
0.0344

> <Gold.PLP.part.nonpolar>
-33.9559

> <Gold.PLP.part.repulsive>
0.2430

> <Gold.PLP.ligand.clash>
0.0000

> <Gold.PLP.ligand.torsion>
1.3398

> <Gold.PLP.Chemscore.Hbond>
2.5120

> <Gold.PLP.Chemscore.CHOScore>
1.9863

> <Gold.PLP.Chemscore.Metal>
0.0000

> <Gold.Chemscore.Hbonds>
donor molecule, donor type, donor heavy atom, donor atom, acceptor molecule, acceptor atom, score
      L1  H     9    31       P1 10175  0.54
      L1  H    12    35       P1 10175  0.99
      P1  H  7989  7998       L1    17  1.00
      L1  C     3    24       P1 10957  0.81
      L1  C    20    46       P1  7921  0.97

> <Gold.PLP.Chemscore.Internal.Correction>
0.1653

> <Gold.Rescore>
     Score         DG    S(hbond)    S(metal)    S(lipo)     H(rot)  DE(clash)    DE(int)     intcor
     15.59     -17.29       2.21        0.00      93.28       2.53       0.22       1.48       ----

> <Gold.Chemscore.Fitness>
15.5893

> <Gold.Chemscore.DG>
-17.2874

> <Gold.Chemscore.ZeroCoef>
-5.4800

> <Gold.Chemscore.Hbond>
2.2091

> <Gold.Chemscore.Metal>
0.0000

> <Gold.Chemscore.Lipo>
93.2827

> <Gold.Chemscore.Internal_Hbond>
0.0000

> <Gold.Chemscore.DEClash>
0.2174

> <Gold.Chemscore.DEInternal>
1.4807

> <Gold.Chemscore.Rot>
2.5333

> <Gold.Chemscore.Internal.Correction>
   9.000000E+99

> <Gold.Chemscore.Hbonds>
donor molecule, donor type, donor heavy atom, donor atom, acceptor molecule, acceptor atom, score
      L1  H     9    31       P1 10175  0.50
      L1  H    12    35       P1 10175  0.72
      P1  H  7989  7998       L1    17  0.44

> <Gold.Chemscore.Hbond.Weighted>
-7.3785

> <Gold.Chemscore.Metal.Weighted>
-0.0000

> <Gold.Chemscore.Lipo.Weighted>
-10.9141

> <Gold.Chemscore.Internal_Hbond.Weighted>
0.0000

> <Gold.Chemscore.DEClash.Weighted>
0.2174

> <Gold.Chemscore.DEInternal.Weighted>
1.4807

> <Gold.Chemscore.Rot.Weighted>
6.4852

> <Gold.Chemscore.Internal.Correction.Weighted>
   9.000000E+99

> <Gold.Protein.RotatedTorsions>
[ 6907 6896 6895 6894 ] final  -39.57 input  -60.11 | X-H torsion
[ 7974 7965 7964 7962 ] final  -50.02 input  175.53 | X-H torsion
[ 8008 7997 7996 7995 ] final   35.37 input   59.86 | X-H torsion
[ 10167 10162 10161 10158 ] final    7.00 input  -65.29 | X-H torsion
[ 10718 10713 10712 10709 ] final  116.89 input   66.30 | X-H torsion
[ 10763 10752 10751 10750 ] final  -84.50 input  -60.55 | X-H torsion
[ 11005 11000 10999 10996 ] final  -91.46 input  -57.11 | X-H torsion

> <Gold.Protein.ActiveResidues>
 VAL166  LYS551  ARG553  GLY616  TRP617  ASP618  TYR619  PRO620  LYS621  CYS622 
 ASP623  PHE694  ASN695  SER759  ASP760  ASP761  ALA762  ILE779  LEU786  VAL792 
 PHE793  MET794  SER795  GLU796  ALA797  LYS798  CYS799  TRP800  GLU811  SER814 

> <Gold.Protein.RotatedAtoms>
  150.9888  134.9227  159.7887 H   0  0  0  0  0  0  0  0  0  0  0  0  # atno 6907 bound_to 6896
  152.5244  134.3310  159.9193 H   0  0  0  0  0  0  0  0  0  0  0  0  # atno 6908 bound_to 6896
  151.3316  133.3957  159.2697 H   0  0  0  0  0  0  0  0  0  0  0  0  # atno 6909 bound_to 6896
  145.9343  140.7721  142.9584 H   0  0  0  0  0  0  0  0  0  0  0  0  # atno 7974 bound_to 7965
  155.1700  140.3291  155.4394 H   0  0  0  0  0  0  0  0  0  0  0  0  # atno 8008 bound_to 7997
  156.2513  140.1945  156.6754 H   0  0  0  0  0  0  0  0  0  0  0  0  # atno 8009 bound_to 7997
  154.6344  140.0578  156.9757 H   0  0  0  0  0  0  0  0  0  0  0  0  # atno 8010 bound_to 7997
  140.6396  143.7805  150.7409 H   0  0  0  0  0  0  0  0  0  0  0  0  # atno 10167 bound_to 10162
  157.6132  131.1031  150.7536 H   0  0  0  0  0  0  0  0  0  0  0  0  # atno 10718 bound_to 10713
  154.6002  135.5518  153.7367 H   0  0  0  0  0  0  0  0  0  0  0  0  # atno 10763 bound_to 10752
  153.0152  135.6364  154.1725 H   0  0  0  0  0  0  0  0  0  0  0  0  # atno 10764 bound_to 10752
  154.1664  135.2894  155.3073 H   0  0  0  0  0  0  0  0  0  0  0  0  # atno 10765 bound_to 10752
  141.1544  133.7757  156.9882 H   0  0  0  0  0  0  0  0  0  0  0  0  # atno 11005 bound_to 11000
  144.6769  140.2177  143.7370 LP  0  0  0  0  0  0  0  0  0  0  0  0  # atno 17320 bound_to 7965
  145.8385  139.2118  143.1841 LP  0  0  0  0  0  0  0  0  0  0  0  0  # atno 17321 bound_to 7965
  140.1433  143.4421  152.2179 LP  0  0  0  0  0  0  0  0  0  0  0  0  # atno 17342 bound_to 10162
  139.5606  144.7403  151.4167 LP  0  0  0  0  0  0  0  0  0  0  0  0  # atno 17343 bound_to 10162
  156.7909  130.4890  149.5385 LP  0  0  0  0  0  0  0  0  0  0  0  0  # atno 17370 bound_to 10713
  156.1243  130.6132  151.0240 LP  0  0  0  0  0  0  0  0  0  0  0  0  # atno 17371 bound_to 10713
  140.1020  134.9529  157.1938 LP  0  0  0  0  0  0  0  0  0  0  0  0  # atno 17394 bound_to 11000
  140.3305  134.2815  155.7229 LP  0  0  0  0  0  0  0  0  0  0  0  0  # atno 17395 bound_to 11000

$$$$
