AV-unprocessed.smi:2252|AV-procd|sdf|9111|dock4
  -GOLD-   2272012313D 1   1.00000     0.00000
 Structure written by MMmdl.
 44 46  0  0  0  0  0  0  0  0  3 V2000
  154.6182  140.6525  162.0733 C   0  0  0  0  0  0  0  0  0  0  0  0
  153.6389  141.6348  161.6489 N   0  0  0  0  0  0  0  0  0  0  0  0
  153.2076  142.7230  162.3964 C   0  0  0  0  0  0  0  0  0  0  0  0
  152.2809  143.3865  161.6304 C   0  0  0  0  0  0  0  0  0  0  0  0
  152.1290  142.7250  160.4178 N   0  0  0  0  0  0  0  0  0  0  0  0
  152.9676  141.6905  160.4788 C   0  0  0  0  0  0  0  0  0  0  0  0
  153.1448  140.6842  159.3677 C   0  0  0  0  0  0  0  0  0  0  0  0
  152.0265  140.6670  158.2972 C   0  0  0  0  0  0  0  0  0  0  0  0
  152.4631  139.9448  157.1044 N   0  5  0  0  0  0  0  0  0  0  0  0
  151.7112  139.7931  155.9780 C   0  0  0  0  0  0  0  0  0  0  0  0
  152.0431  139.7935  154.7886 O   0  0  0  0  0  0  0  0  0  0  0  0
  150.2304  139.5467  156.3235 C   0  0  2  0  0  0  0  0  0  0  0  0
  149.7301  138.2414  155.6602 C   0  0  0  0  0  0  0  0  0  0  0  0
  148.4542  137.5671  156.1165 C   0  0  0  0  0  0  0  0  0  0  0  0
  149.7868  136.9258  156.4061 C   0  0  0  0  0  0  0  0  0  0  0  0
  149.3890  140.7233  155.9616 N   0  3  0  0  0  0  0  0  0  0  0  0
  149.3054  141.0414  154.5195 C   0  0  0  0  0  0  0  0  0  0  0  0
  147.9967  141.8179  154.3161 C   0  0  0  0  0  0  0  0  0  0  0  0
  147.2753  141.7713  155.6653 C   0  0  0  0  0  0  0  0  0  0  0  0
  147.9935  140.6735  156.4442 C   0  0  0  0  0  0  0  0  0  0  0  0
  155.0078  140.9110  163.0585 H   0  0  0  0  0  0  0  0  0  0  0  0
  155.4469  140.6239  161.3655 H   0  0  0  0  0  0  0  0  0  0  0  0
  154.1544  139.6673  162.1259 H   0  0  0  0  0  0  0  0  0  0  0  0
  153.5861  142.9298  163.3865 H   0  0  0  0  0  0  0  0  0  0  0  0
  151.7163  144.2791  161.8557 H   0  0  0  0  0  0  0  0  0  0  0  0
  154.1021  140.8652  158.8790 H   0  0  0  0  0  0  0  0  0  0  0  0
  153.2349  139.6942  159.8169 H   0  0  0  0  0  0  0  0  0  0  0  0
  151.1355  140.2086  158.7266 H   0  0  0  0  0  0  0  0  0  0  0  0
  151.7396  141.6949  158.0716 H   0  0  0  0  0  0  0  0  0  0  0  0
  150.1637  139.4175  157.4054 H   0  0  0  0  0  0  0  0  0  0  0  0
  149.9467  138.1786  154.5949 H   0  0  0  0  0  0  0  0  0  0  0  0
  147.9176  138.0054  156.9557 H   0  0  0  0  0  0  0  0  0  0  0  0
  147.8297  137.1092  155.3522 H   0  0  0  0  0  0  0  0  0  0  0  0
  150.0560  136.0394  155.8356 H   0  0  0  0  0  0  0  0  0  0  0  0
  150.1362  136.9411  157.4366 H   0  0  0  0  0  0  0  0  0  0  0  0
  150.1764  141.6116  154.1946 H   0  0  0  0  0  0  0  0  0  0  0  0
  149.2693  140.1190  153.9380 H   0  0  0  0  0  0  0  0  0  0  0  0
  148.1842  142.8482  154.0117 H   0  0  0  0  0  0  0  0  0  0  0  0
  147.3961  141.3481  153.5364 H   0  0  0  0  0  0  0  0  0  0  0  0
  147.3995  142.7250  156.1795 H   0  0  0  0  0  0  0  0  0  0  0  0
  146.2057  141.5839  155.5674 H   0  0  0  0  0  0  0  0  0  0  0  0
  147.5565  139.7026  156.2050 H   0  0  0  0  0  0  0  0  0  0  0  0
  147.9218  140.8203  157.5224 H   0  0  0  0  0  0  0  0  0  0  0  0
  149.8130  141.5236  156.4104 H   0  0  0  0  0  0  0  0  0  0  0  0
  1  2  1  0  0  0  0
  1 21  1  0  0  0  0
  1 22  1  0  0  0  0
  1 23  1  0  0  0  0
  2  6  1  0  0  0  0
  2  3  1  0  0  0  0
  3  4  2  0  0  0  0
  3 24  1  0  0  0  0
  4  5  1  0  0  0  0
  4 25  1  0  0  0  0
  5  6  2  0  0  0  0
  6  7  1  0  0  0  0
  7  8  1  0  0  0  0
  7 26  1  0  0  0  0
  7 27  1  0  0  0  0
  8  9  1  0  0  0  0
  8 28  1  0  0  0  0
  8 29  1  0  0  0  0
  9 10  1  0  0  0  0
 10 11  2  0  0  0  0
 10 12  1  0  0  0  0
 12 13  1  0  0  0  0
 12 16  1  0  0  0  0
 12 30  1  0  0  0  0
 13 15  1  0  0  0  0
 13 14  1  0  0  0  0
 13 31  1  0  0  0  0
 14 15  1  0  0  0  0
 14 32  1  0  0  0  0
 14 33  1  0  0  0  0
 15 34  1  0  0  0  0
 15 35  1  0  0  0  0
 16 20  1  0  0  0  0
 16 17  1  0  0  0  0
 16 44  1  0  0  0  0
 17 18  1  0  0  0  0
 17 36  1  0  0  0  0
 17 37  1  0  0  0  0
 18 19  1  0  0  0  0
 18 38  1  0  0  0  0
 18 39  1  0  0  0  0
 19 20  1  0  0  0  0
 19 40  1  0  0  0  0
 19 41  1  0  0  0  0
 20 42  1  0  0  0  0
 20 43  1  0  0  0  0
M  CHG  1   9  -1
M  CHG  1  16   1
M  END
> <s_m_source_file>
AV-unprocessed.smi

> <i_m_source_file_index>
2252

> <i_lp_mmshare_version>
43012

> <i_f3d_flags>
0

> <s_epik_input>
W0NIM11uMVtjSF1bY0hdbmMxW0NIMl1bQ0gyXVtOSF1DKD1PKVtDQEhdKFtDSF0yW0NIMl1bQ0gyXTIpTjNbQ0gyXVtDSDJdW0NIMl1bQ0gyXTM=

> <s_epik_cmdline>
J2VwaWtfcHl0aG9uJywgJy1waCcsICc3LjAnLCAnLXRuJywgJzgnLCAnLW1hJywgJzIwMCcsICctbWV0YWxfYmluZGluZycsICctaW1hZScsICc8aW5maWxlLm1hZT4nLCAnLW9tYWUnLCAnPG91dGZpbGUubWFlPic=

> <r_lp_tautomer_probability>
1

> <r_epik_Ionization_Penalty>
7.86289

> <r_epik_Ionization_Penalty_Charging>
7.86289

> <r_epik_Ionization_Penalty_Neutral>
4.79398e-13

> <r_epik_State_Penalty>
7.18546

> <r_epik_Charging_Adjusted_Penalty>
15.0484

> <i_epik_Tot_Q>
0

> <i_epik_Tot_abs_Q>
2

> <r_epik_Metal_State_Penalty>
3.4294

> <b_epik_Metal_Only>
1

> <s_lp_Force_Field>
OPLS_2005

> <r_lp_Energy>
29.989

> <b_lp_Chiralities_Consistent>
1

> <s_lp_Variant>
AV-unprocessed.smi:2252-9

> <Gold.Version>
5.8.1

> <Gold.Id.Protein>
6NUR|6NUR_protein|mol2

> <Gold.PLP.Fitness>
46.2884

> <Gold.PLP.PLP>
-39.1404

> <Gold.PLP.part.hbond>
-2.0000

> <Gold.PLP.part.metal>
0.0000

> <Gold.PLP.part.buried>
-3.9595

> <Gold.PLP.part.nonpolar>
-32.1212

> <Gold.PLP.part.repulsive>
0.1418

> <Gold.PLP.ligand.clash>
0.0000

> <Gold.PLP.ligand.torsion>
1.3148

> <Gold.PLP.Chemscore.Hbond>
2.8320

> <Gold.PLP.Chemscore.CHOScore>
0.0000

> <Gold.PLP.Chemscore.Metal>
0.0000

> <Gold.Chemscore.Hbonds>
donor molecule, donor type, donor heavy atom, donor atom, acceptor molecule, acceptor atom, score
      P1  H  7989  7998       L1    11  0.86
      P1  H  7997  8008       L1     9  2.00

> <Gold.PLP.Chemscore.Internal.Correction>
1.2817

> <Gold.Rescore>
     Score         DG    S(hbond)    S(metal)    S(lipo)     H(rot)  DE(clash)    DE(int)     intcor
     14.01     -15.63       1.71        0.00      79.26       1.88       0.07       1.56       ----

> <Gold.Chemscore.Fitness>
14.0104

> <Gold.Chemscore.DG>
-15.6324

> <Gold.Chemscore.ZeroCoef>
-5.4800

> <Gold.Chemscore.Hbond>
1.7050

> <Gold.Chemscore.Metal>
0.0000

> <Gold.Chemscore.Lipo>
79.2643

> <Gold.Chemscore.Internal_Hbond>
0.0000

> <Gold.Chemscore.DEClash>
0.0650

> <Gold.Chemscore.DEInternal>
1.5569

> <Gold.Chemscore.Rot>
1.8814

> <Gold.Chemscore.Internal.Correction>
   9.000000E+99

> <Gold.Chemscore.Hbonds>
donor molecule, donor type, donor heavy atom, donor atom, acceptor molecule, acceptor atom, score
      P1  H  7989  7998       L1    11  0.85
      P1  H  7997  8008       L1     9  0.71

> <Gold.Chemscore.Hbond.Weighted>
-5.6947

> <Gold.Chemscore.Metal.Weighted>
-0.0000

> <Gold.Chemscore.Lipo.Weighted>
-9.2739

> <Gold.Chemscore.Internal_Hbond.Weighted>
0.0000

> <Gold.Chemscore.DEClash.Weighted>
0.0650

> <Gold.Chemscore.DEInternal.Weighted>
1.5569

> <Gold.Chemscore.Rot.Weighted>
4.8163

> <Gold.Chemscore.Internal.Correction.Weighted>
   9.000000E+99

> <Gold.Protein.RotatedTorsions>
[ 6907 6896 6895 6894 ] final   53.59 input  -60.11 | X-H torsion
[ 7974 7965 7964 7962 ] final  -79.00 input  175.53 | X-H torsion
[ 8008 7997 7996 7995 ] final  -61.43 input   59.86 | X-H torsion
[ 10167 10162 10161 10158 ] final  123.55 input  -65.29 | X-H torsion
[ 10718 10713 10712 10709 ] final   53.06 input   66.30 | X-H torsion
[ 10763 10752 10751 10750 ] final  -27.64 input  -60.55 | X-H torsion
[ 11005 11000 10999 10996 ] final   22.71 input  -57.11 | X-H torsion

> <Gold.Protein.ActiveResidues>
 VAL166  LYS551  ARG553  GLY616  TRP617  ASP618  TYR619  PRO620  LYS621  CYS622 
 ASP623  PHE694  ASN695  SER759  ASP760  ASP761  ALA762  ILE779  LEU786  VAL792 
 PHE793  MET794  SER795  GLU796  ALA797  LYS798  CYS799  TRP800  GLU811  SER814 

> <Gold.Protein.RotatedAtoms>
  152.3353  134.7206  160.0278 H   0  0  0  0  0  0  0  0  0  0  0  0  # atno 6907 bound_to 6896
  151.7609  133.3328  159.3425 H   0  0  0  0  0  0  0  0  0  0  0  0  # atno 6908 bound_to 6896
  150.7447  134.6038  159.6095 H   0  0  0  0  0  0  0  0  0  0  0  0  # atno 6909 bound_to 6896
  145.5790  140.9452  143.1354 H   0  0  0  0  0  0  0  0  0  0  0  0  # atno 7974 bound_to 7965
  154.4447  140.1018  156.6429 H   0  0  0  0  0  0  0  0  0  0  0  0  # atno 8008 bound_to 7997
  155.5482  140.3485  155.4444 H   0  0  0  0  0  0  0  0  0  0  0  0  # atno 8009 bound_to 7997
  156.0548  140.1312  156.9998 H   0  0  0  0  0  0  0  0  0  0  0  0  # atno 8010 bound_to 7997
  139.5793  144.6978  151.3571 H   0  0  0  0  0  0  0  0  0  0  0  0  # atno 10167 bound_to 10162
  157.5132  130.8515  149.8462 H   0  0  0  0  0  0  0  0  0  0  0  0  # atno 10718 bound_to 10713
  153.7354  135.6936  153.4979 H   0  0  0  0  0  0  0  0  0  0  0  0  # atno 10763 bound_to 10752
  153.2106  135.4404  155.0374 H   0  0  0  0  0  0  0  0  0  0  0  0  # atno 10764 bound_to 10752
  154.8239  135.3436  154.6882 H   0  0  0  0  0  0  0  0  0  0  0  0  # atno 10765 bound_to 10752
  140.3776  134.1955  155.7664 H   0  0  0  0  0  0  0  0  0  0  0  0  # atno 11005 bound_to 11000
  144.7402  139.7470  143.7313 LP  0  0  0  0  0  0  0  0  0  0  0  0  # atno 17320 bound_to 7965
  146.1729  139.4888  142.9916 LP  0  0  0  0  0  0  0  0  0  0  0  0  # atno 17321 bound_to 7965
  140.7072  143.7482  150.7503 LP  0  0  0  0  0  0  0  0  0  0  0  0  # atno 17342 bound_to 10162
  140.1010  143.4787  152.2425 LP  0  0  0  0  0  0  0  0  0  0  0  0  # atno 17343 bound_to 10162
  156.0303  130.3766  150.1706 LP  0  0  0  0  0  0  0  0  0  0  0  0  # atno 17370 bound_to 10713
  156.9895  130.9889  151.3418 LP  0  0  0  0  0  0  0  0  0  0  0  0  # atno 17371 bound_to 10713
  141.1934  133.8151  157.0799 LP  0  0  0  0  0  0  0  0  0  0  0  0  # atno 17394 bound_to 11000
  140.0503  134.9809  157.1125 LP  0  0  0  0  0  0  0  0  0  0  0  0  # atno 17395 bound_to 11000

$$$$
