AV-unprocessed.smi:810|AV-procd|sdf|3810|dock4
  -GOLD-   22720 1253D 1   1.00000     0.00000
 Structure written by MMmdl.
 34 35  0  0  0  0  0  0  0  0  1 V2000
  151.2682  141.3561  156.9026 O   0  0  0  0  0  0  0  0  0  0  0  0
  150.4423  142.2310  156.6443 C   0  0  0  0  0  0  0  0  0  0  0  0
  150.2708  143.3676  157.3407 N   0  0  0  0  0  0  0  0  0  0  0  0
  150.9360  143.7873  158.5241 C   0  0  0  0  0  0  0  0  0  0  0  0
  152.0134  143.0057  158.9899 C   0  0  0  0  0  0  0  0  0  0  0  0
  152.7032  143.4089  160.1489 C   0  0  0  0  0  0  0  0  0  0  0  0
  152.2924  144.5906  160.7953 C   0  0  0  0  0  0  0  0  0  0  0  0
  151.2742  145.3591  160.3549 N   0  0  0  0  0  0  0  0  0  0  0  0
  150.6151  144.9654  159.2438 C   0  0  0  0  0  0  0  0  0  0  0  0
  149.6021  142.1728  155.6014 N   0  0  0  0  0  0  0  0  0  0  0  0
  149.5212  141.0782  154.6371 C   0  0  1  0  0  0  0  0  0  0  0  0
  149.6358  139.7300  155.3752 C   0  0  0  0  0  0  0  0  0  0  0  0
  149.3242  138.5111  154.4904 C   0  0  0  0  0  0  0  0  0  0  0  0
  150.1923  138.4931  153.3781 O   0  0  0  0  0  0  0  0  0  0  0  0
  148.2587  141.1256  153.7929 C   0  0  0  0  0  0  0  0  0  0  0  0
  147.1660  142.1268  154.0841 C   0  0  0  0  0  0  0  0  0  0  0  0
  146.9311  140.6557  154.3387 C   0  0  0  0  0  0  0  0  0  0  0  0
  149.6167  144.0320  156.9536 H   0  0  0  0  0  0  0  0  0  0  0  0
  152.3074  142.1056  158.4699 H   0  0  0  0  0  0  0  0  0  0  0  0
  153.5281  142.8273  160.5329 H   0  0  0  0  0  0  0  0  0  0  0  0
  152.7991  144.9305  161.6864 H   0  0  0  0  0  0  0  0  0  0  0  0
  149.8298  145.6337  158.9269 H   0  0  0  0  0  0  0  0  0  0  0  0
  148.9648  142.9435  155.4639 H   0  0  0  0  0  0  0  0  0  0  0  0
  150.3744  141.1463  153.9589 H   0  0  0  0  0  0  0  0  0  0  0  0
  150.6359  139.6290  155.7993 H   0  0  0  0  0  0  0  0  0  0  0  0
  148.9475  139.7303  156.2218 H   0  0  0  0  0  0  0  0  0  0  0  0
  149.4513  137.5857  155.0527 H   0  0  0  0  0  0  0  0  0  0  0  0
  148.2955  138.5361  154.1302 H   0  0  0  0  0  0  0  0  0  0  0  0
  149.9566  137.7655  152.8229 H   0  0  0  0  0  0  0  0  0  0  0  0
  148.4351  140.9235  152.7379 H   0  0  0  0  0  0  0  0  0  0  0  0
  147.2871  142.7725  154.9516 H   0  0  0  0  0  0  0  0  0  0  0  0
  146.6594  142.5784  153.2334 H   0  0  0  0  0  0  0  0  0  0  0  0
  146.2681  140.1255  153.6583 H   0  0  0  0  0  0  0  0  0  0  0  0
  146.8948  140.3266  155.3752 H   0  0  0  0  0  0  0  0  0  0  0  0
  1  2  2  0  0  0  0
  2  3  1  0  0  0  0
  2 10  1  0  0  0  0
  3  4  1  0  0  0  0
  3 18  1  0  0  0  0
  4  9  1  0  0  0  0
  4  5  2  0  0  0  0
  5  6  1  0  0  0  0
  5 19  1  0  0  0  0
  6  7  2  0  0  0  0
  6 20  1  0  0  0  0
  7  8  1  0  0  0  0
  7 21  1  0  0  0  0
  8  9  2  0  0  0  0
  9 22  1  0  0  0  0
 10 11  1  0  0  0  0
 10 23  1  0  0  0  0
 11 12  1  0  0  0  0
 11 15  1  0  0  0  0
 11 24  1  0  0  0  0
 12 13  1  0  0  0  0
 12 25  1  0  0  0  0
 12 26  1  0  0  0  0
 13 14  1  0  0  0  0
 13 27  1  0  0  0  0
 13 28  1  0  0  0  0
 14 29  1  0  0  0  0
 15 17  1  0  0  0  0
 15 16  1  0  0  0  0
 15 30  1  0  0  0  0
 16 17  1  0  0  0  0
 16 31  1  0  0  0  0
 16 32  1  0  0  0  0
 17 33  1  0  0  0  0
 17 34  1  0  0  0  0
M  END
> <s_m_source_file>
AV-unprocessed.smi

> <i_m_source_file_index>
810

> <i_lp_mmshare_version>
43012

> <i_f3d_flags>
0

> <s_epik_input>
W09IXVtDSDJdW0NIMl1bQ0BIXShbQ0hdMVtDSDJdW0NIMl0xKVtOSF1DKD1PKVtOSF1jMltjSF1bY0hdW2NIXW5bY0hdMg==

> <s_epik_cmdline>
J2VwaWtfcHl0aG9uJywgJy1waCcsICc3LjAnLCAnLXRuJywgJzgnLCAnLW1hJywgJzIwMCcsICctbWV0YWxfYmluZGluZycsICctaW1hZScsICc8aW5maWxlLm1hZT4nLCAnLW9tYWUnLCAnPG91dGZpbGUubWFlPic=

> <r_epik_Ionization_Penalty>
0.00486911

> <r_epik_Ionization_Penalty_Charging>
0

> <r_epik_Ionization_Penalty_Neutral>
0.00486911

> <r_epik_State_Penalty>
0.00350304

> <r_epik_Charging_Adjusted_Penalty>
0.00350304

> <i_epik_Tot_Q>
0

> <i_epik_Tot_abs_Q>
0

> <r_epik_Metal_State_Penalty>
-0

> <b_epik_Metal_Only>
0

> <s_lp_Force_Field>
OPLS_2005

> <r_lp_Energy>
17.3052

> <b_lp_Chiralities_Consistent>
1

> <s_lp_Variant>
AV-unprocessed.smi:810-2

> <Gold.Version>
5.8.1

> <Gold.Id.Protein>
6NUR|6NUR_protein|mol2

> <Gold.PLP.Fitness>
46.7041

> <Gold.PLP.PLP>
-36.4461

> <Gold.PLP.part.hbond>
-4.1003

> <Gold.PLP.part.metal>
0.0000

> <Gold.PLP.part.buried>
-4.5546

> <Gold.PLP.part.nonpolar>
-27.9459

> <Gold.PLP.part.repulsive>
0.4110

> <Gold.PLP.ligand.clash>
0.0000

> <Gold.PLP.ligand.torsion>
1.1787

> <Gold.PLP.Chemscore.Hbond>
2.8640

> <Gold.PLP.Chemscore.CHOScore>
0.9783

> <Gold.PLP.Chemscore.Metal>
0.0000

> <Gold.Chemscore.Hbonds>
donor molecule, donor type, donor heavy atom, donor atom, acceptor molecule, acceptor atom, score
      L1  H     3    18       P1  8028  1.00
      L1  H    10    23       P1  8028  0.83
      L1  H    14    29       P1  7948  1.00
      L1  C     9    22       P1  8029  0.96

> <Gold.PLP.Chemscore.Internal.Correction>
1.0883

> <Gold.Rescore>
     Score         DG    S(hbond)    S(metal)    S(lipo)     H(rot)  DE(clash)    DE(int)     intcor
     15.99     -20.19       2.89        0.00      93.81       2.31       0.10       4.10       ----

> <Gold.Chemscore.Fitness>
15.9909

> <Gold.Chemscore.DG>
-20.1914

> <Gold.Chemscore.ZeroCoef>
-5.4800

> <Gold.Chemscore.Hbond>
2.8886

> <Gold.Chemscore.Metal>
0.0000

> <Gold.Chemscore.Lipo>
93.8142

> <Gold.Chemscore.Internal_Hbond>
0.0000

> <Gold.Chemscore.DEClash>
0.0999

> <Gold.Chemscore.DEInternal>
4.1007

> <Gold.Chemscore.Rot>
2.3097

> <Gold.Chemscore.Internal.Correction>
   9.000000E+99

> <Gold.Chemscore.Hbonds>
donor molecule, donor type, donor heavy atom, donor atom, acceptor molecule, acceptor atom, score
      L1  H     3    18       P1  8028  0.75
      L1  H    10    23       P1  8028  0.81
      L1  H    14    29       P1  7948  0.24

> <Gold.Chemscore.Hbond.Weighted>
-9.6479

> <Gold.Chemscore.Metal.Weighted>
-0.0000

> <Gold.Chemscore.Lipo.Weighted>
-10.9763

> <Gold.Chemscore.Internal_Hbond.Weighted>
0.0000

> <Gold.Chemscore.DEClash.Weighted>
0.0999

> <Gold.Chemscore.DEInternal.Weighted>
4.1007

> <Gold.Chemscore.Rot.Weighted>
5.9127

> <Gold.Chemscore.Internal.Correction.Weighted>
   9.000000E+99

> <Gold.Protein.RotatedTorsions>
[ 6907 6896 6895 6894 ] final  -38.58 input  -60.11 | X-H torsion
[ 7974 7965 7964 7962 ] final  -27.99 input  175.53 | X-H torsion
[ 8008 7997 7996 7995 ] final  -43.64 input   59.86 | X-H torsion
[ 10167 10162 10161 10158 ] final -147.44 input  -65.29 | X-H torsion
[ 10718 10713 10712 10709 ] final  155.91 input   66.30 | X-H torsion
[ 10763 10752 10751 10750 ] final  110.30 input  -60.55 | X-H torsion
[ 11005 11000 10999 10996 ] final  -96.39 input  -57.11 | X-H torsion

> <Gold.Protein.ActiveResidues>
 VAL166  LYS551  ARG553  GLY616  TRP617  ASP618  TYR619  PRO620  LYS621  CYS622 
 ASP623  PHE694  ASN695  SER759  ASP760  ASP761  ALA762  ILE779  LEU786  VAL792 
 PHE793  MET794  SER795  GLU796  ALA797  LYS798  CYS799  TRP800  GLU811  SER814 

> <Gold.Protein.RotatedAtoms>
  151.0007  134.9320  159.7951 H   0  0  0  0  0  0  0  0  0  0  0  0  # atno 6907 bound_to 6896
  152.5277  134.3158  159.9140 H   0  0  0  0  0  0  0  0  0  0  0  0  # atno 6908 bound_to 6896
  151.3164  133.4017  159.2685 H   0  0  0  0  0  0  0  0  0  0  0  0  # atno 6909 bound_to 6896
  146.1320  140.5223  142.8689 H   0  0  0  0  0  0  0  0  0  0  0  0  # atno 7974 bound_to 7965
  154.3997  140.1442  156.3552 H   0  0  0  0  0  0  0  0  0  0  0  0  # atno 8008 bound_to 7997
  155.8232  140.3468  155.5506 H   0  0  0  0  0  0  0  0  0  0  0  0  # atno 8009 bound_to 7997
  155.8266  140.0906  157.1808 H   0  0  0  0  0  0  0  0  0  0  0  0  # atno 8010 bound_to 7997
  139.7622  143.8360  152.2609 H   0  0  0  0  0  0  0  0  0  0  0  0  # atno 10167 bound_to 10162
  157.2120  131.0700  151.1963 H   0  0  0  0  0  0  0  0  0  0  0  0  # atno 10718 bound_to 10713
  153.4470  135.3753  155.2261 H   0  0  0  0  0  0  0  0  0  0  0  0  # atno 10763 bound_to 10752
  154.8755  135.3876  154.4084 H   0  0  0  0  0  0  0  0  0  0  0  0  # atno 10764 bound_to 10752
  153.4638  135.7087  153.6098 H   0  0  0  0  0  0  0  0  0  0  0  0  # atno 10765 bound_to 10752
  141.1413  133.8094  157.0565 H   0  0  0  0  0  0  0  0  0  0  0  0  # atno 11005 bound_to 11000
  144.7700  140.5616  143.6677 LP  0  0  0  0  0  0  0  0  0  0  0  0  # atno 17320 bound_to 7965
  145.5240  139.1476  143.3536 LP  0  0  0  0  0  0  0  0  0  0  0  0  # atno 17321 bound_to 7965
  139.8370  144.7227  150.9379 LP  0  0  0  0  0  0  0  0  0  0  0  0  # atno 17342 bound_to 10162
  140.7808  143.4018  151.1137 LP  0  0  0  0  0  0  0  0  0  0  0  0  # atno 17343 bound_to 10162
  157.3662  130.7157  149.6534 LP  0  0  0  0  0  0  0  0  0  0  0  0  # atno 17370 bound_to 10713
  155.9690  130.4211  150.4456 LP  0  0  0  0  0  0  0  0  0  0  0  0  # atno 17371 bound_to 10713
  140.0599  134.9760  157.1286 LP  0  0  0  0  0  0  0  0  0  0  0  0  # atno 17394 bound_to 11000
  140.3864  134.2231  155.7168 LP  0  0  0  0  0  0  0  0  0  0  0  0  # atno 17395 bound_to 11000

$$$$
