AV-unprocessed.smi:2834|AV-procd|sdf|10916|dock2
  -GOLD-   2272015363D 1   1.00000     0.00000
 Structure written by MMmdl.
 35 36  0  0  0  0  0  0  0  0  1 V2000
  139.5642  138.1269  152.9339 C   0  0  0  0  0  0  0  0  0  0  0  0
  140.7601  138.6261  153.7715 C   0  0  1  0  0  0  0  0  0  0  0  0
  142.0293  138.1968  153.1683 N   0  0  0  0  0  0  0  0  0  0  0  0
  142.4287  136.9452  152.8896 C   0  0  0  0  0  0  0  0  0  0  0  0
  141.7547  135.9403  153.1155 O   0  0  0  0  0  0  0  0  0  0  0  0
  143.6517  136.9415  152.3345 N   0  0  0  0  0  0  0  0  0  0  0  0
  144.3962  135.8163  151.8989 C   0  0  0  0  0  0  0  0  0  0  0  0
  145.0721  135.7261  150.6546 C   0  0  0  0  0  0  0  0  0  0  0  0
  145.6815  134.5576  150.5242 N   0  0  0  0  0  0  0  0  0  0  0  0
  145.4091  133.8885  151.6720 N   0  0  0  0  0  0  0  0  0  0  0  0
  145.9388  132.5511  151.8672 C   0  0  0  0  0  0  0  0  0  0  0  0
  145.4386  131.5615  150.8018 C   0  0  0  0  0  0  0  0  0  0  0  0
  145.8537  130.3349  151.1159 F   0  0  0  0  0  0  0  0  0  0  0  0
  144.1063  131.5600  150.7492 F   0  0  0  0  0  0  0  0  0  0  0  0
  145.9256  131.8821  149.6026 F   0  0  0  0  0  0  0  0  0  0  0  0
  144.6250  134.6287  152.5346 C   0  0  0  0  0  0  0  0  0  0  0  0
  140.7236  140.1300  154.0308 C   0  0  0  0  0  0  0  0  0  0  0  0
  141.5389  140.2751  155.3109 C   0  0  0  0  0  0  0  0  0  0  0  0
  141.2957  139.0851  156.0504 O   0  0  0  0  0  0  0  0  0  0  0  0
  140.7035  138.0956  155.2123 C   0  0  0  0  0  0  0  0  0  0  0  0
  138.6153  138.3717  153.4120 H   0  0  0  0  0  0  0  0  0  0  0  0
  139.5966  137.0442  152.8080 H   0  0  0  0  0  0  0  0  0  0  0  0
  139.5457  138.5766  151.9412 H   0  0  0  0  0  0  0  0  0  0  0  0
  142.6702  138.9410  152.9344 H   0  0  0  0  0  0  0  0  0  0  0  0
  144.0962  137.8388  152.2070 H   0  0  0  0  0  0  0  0  0  0  0  0
  145.1396  136.4528  149.8582 H   0  0  0  0  0  0  0  0  0  0  0  0
  147.0280  132.6077  151.8459 H   0  0  0  0  0  0  0  0  0  0  0  0
  145.6635  132.2051  152.8647 H   0  0  0  0  0  0  0  0  0  0  0  0
  144.3147  134.2480  153.4964 H   0  0  0  0  0  0  0  0  0  0  0  0
  141.1067  140.7432  153.2155 H   0  0  0  0  0  0  0  0  0  0  0  0
  139.6983  140.4497  154.2222 H   0  0  0  0  0  0  0  0  0  0  0  0
  142.6032  140.3317  155.0794 H   0  0  0  0  0  0  0  0  0  0  0  0
  141.2685  141.1637  155.8815 H   0  0  0  0  0  0  0  0  0  0  0  0
  139.6699  137.9724  155.5385 H   0  0  0  0  0  0  0  0  0  0  0  0
  141.1961  137.1298  155.3322 H   0  0  0  0  0  0  0  0  0  0  0  0
  1  2  1  0  0  0  0
  1 21  1  0  0  0  0
  1 22  1  0  0  0  0
  1 23  1  0  0  0  0
  2 20  1  0  0  0  0
  2  3  1  0  0  0  0
  2 17  1  0  0  0  0
  3  4  1  0  0  0  0
  3 24  1  0  0  0  0
  4  5  2  0  0  0  0
  4  6  1  0  0  0  0
  6  7  1  0  0  0  0
  6 25  1  0  0  0  0
  7 16  2  0  0  0  0
  7  8  1  0  0  0  0
  8  9  2  0  0  0  0
  8 26  1  0  0  0  0
  9 10  1  0  0  0  0
 10 11  1  0  0  0  0
 10 16  1  0  0  0  0
 11 12  1  0  0  0  0
 11 27  1  0  0  0  0
 11 28  1  0  0  0  0
 12 13  1  0  0  0  0
 12 14  1  0  0  0  0
 12 15  1  0  0  0  0
 16 29  1  0  0  0  0
 17 18  1  0  0  0  0
 17 30  1  0  0  0  0
 17 31  1  0  0  0  0
 18 19  1  0  0  0  0
 18 32  1  0  0  0  0
 18 33  1  0  0  0  0
 19 20  1  0  0  0  0
 20 34  1  0  0  0  0
 20 35  1  0  0  0  0
M  END
> <s_m_source_file>
AV-unprocessed.smi

> <i_m_source_file_index>
2834

> <i_lp_mmshare_version>
43012

> <i_f3d_flags>
0

> <s_epik_input>
W0NIMl0xT1tDSDJdW0NIMl1bQ0BAXTEoW0NIM10pW05IXUMoPU8pW05IXWMyW2NIXW5uKFtjSF0yKVtDSDJdQyhGKShGKUY=

> <s_epik_cmdline>
J2VwaWtfcHl0aG9uJywgJy1waCcsICc3LjAnLCAnLXRuJywgJzgnLCAnLW1hJywgJzIwMCcsICctbWV0YWxfYmluZGluZycsICctaW1hZScsICc8aW5maWxlLm1hZT4nLCAnLW9tYWUnLCAnPG91dGZpbGUubWFlPic=

> <r_lp_tautomer_probability>
1

> <r_epik_Ionization_Penalty>
3.3002e-05

> <r_epik_Ionization_Penalty_Charging>
0

> <r_epik_Ionization_Penalty_Neutral>
3.3002e-05

> <r_epik_State_Penalty>
-0

> <r_epik_Charging_Adjusted_Penalty>
0

> <i_epik_Tot_Q>
0

> <i_epik_Tot_abs_Q>
0

> <r_epik_Metal_State_Penalty>
-0

> <b_epik_Metal_Only>
0

> <s_lp_Force_Field>
OPLS_2005

> <r_lp_Energy>
24.6434

> <b_lp_Chiralities_Consistent>
1

> <s_lp_Variant>
AV-unprocessed.smi:2834-1

> <Gold.Version>
5.8.1

> <Gold.Id.Protein>
6NUR|6NUR_protein|mol2

> <Gold.PLP.Fitness>
38.0558

> <Gold.PLP.PLP>
-33.1215

> <Gold.PLP.part.hbond>
-1.9960

> <Gold.PLP.part.metal>
0.0000

> <Gold.PLP.part.buried>
-6.1503

> <Gold.PLP.part.nonpolar>
-26.2959

> <Gold.PLP.part.repulsive>
1.6801

> <Gold.PLP.ligand.clash>
0.0000

> <Gold.PLP.ligand.torsion>
0.4538

> <Gold.PLP.Chemscore.Hbond>
1.0000

> <Gold.PLP.Chemscore.CHOScore>
0.9240

> <Gold.PLP.Chemscore.Metal>
0.0000

> <Gold.Chemscore.Hbonds>
donor molecule, donor type, donor heavy atom, donor atom, acceptor molecule, acceptor atom, score
      L1  H     3    24       P1 10175  1.00
      L1  C     8    26       P1  7921  0.01
      L1  C     8    26       P1 10171  0.90

> <Gold.PLP.Chemscore.Internal.Correction>
0.0700

> <Gold.Rescore>
     Score         DG    S(hbond)    S(metal)    S(lipo)     H(rot)  DE(clash)    DE(int)     intcor
     10.09     -13.12       1.45        0.00      53.36       1.34       1.33       1.70       ----

> <Gold.Chemscore.Fitness>
10.0927

> <Gold.Chemscore.DG>
-13.1226

> <Gold.Chemscore.ZeroCoef>
-5.4800

> <Gold.Chemscore.Hbond>
1.4474

> <Gold.Chemscore.Metal>
0.0000

> <Gold.Chemscore.Lipo>
53.3574

> <Gold.Chemscore.Internal_Hbond>
0.0000

> <Gold.Chemscore.DEClash>
1.3290

> <Gold.Chemscore.DEInternal>
1.7009

> <Gold.Chemscore.Rot>
1.3417

> <Gold.Chemscore.Internal.Correction>
   9.000000E+99

> <Gold.Chemscore.Hbonds>
donor molecule, donor type, donor heavy atom, donor atom, acceptor molecule, acceptor atom, score
      L1  H     3    24       P1 10175  1.00

> <Gold.Chemscore.Hbond.Weighted>
-4.8344

> <Gold.Chemscore.Metal.Weighted>
-0.0000

> <Gold.Chemscore.Lipo.Weighted>
-6.2428

> <Gold.Chemscore.Internal_Hbond.Weighted>
0.0000

> <Gold.Chemscore.DEClash.Weighted>
1.3290

> <Gold.Chemscore.DEInternal.Weighted>
1.7009

> <Gold.Chemscore.Rot.Weighted>
3.4347

> <Gold.Chemscore.Internal.Correction.Weighted>
   9.000000E+99

> <Gold.Protein.RotatedTorsions>
[ 6907 6896 6895 6894 ] final -145.48 input  -60.11 | X-H torsion
[ 7974 7965 7964 7962 ] final  -82.87 input  175.53 | X-H torsion
[ 8008 7997 7996 7995 ] final  101.63 input   59.86 | X-H torsion
[ 10167 10162 10161 10158 ] final   47.44 input  -65.29 | X-H torsion
[ 10718 10713 10712 10709 ] final   74.29 input   66.30 | X-H torsion
[ 10763 10752 10751 10750 ] final -101.81 input  -60.55 | X-H torsion
[ 11005 11000 10999 10996 ] final   -6.57 input  -57.11 | X-H torsion

> <Gold.Protein.ActiveResidues>
 VAL166  LYS551  ARG553  GLY616  TRP617  ASP618  TYR619  PRO620  LYS621  CYS622 
 ASP623  PHE694  ASN695  SER759  ASP760  ASP761  ALA762  ILE779  LEU786  VAL792 
 PHE793  MET794  SER795  GLU796  ALA797  LYS798  CYS799  TRP800  GLU811  SER814 

> <Gold.Protein.RotatedAtoms>
  151.1284  133.5054  159.2599 H   0  0  0  0  0  0  0  0  0  0  0  0  # atno 6907 bound_to 6896
  151.1784  135.0349  159.8792 H   0  0  0  0  0  0  0  0  0  0  0  0  # atno 6908 bound_to 6896
  152.5459  134.1139  159.8423 H   0  0  0  0  0  0  0  0  0  0  0  0  # atno 6909 bound_to 6896
  145.5275  140.9525  143.1621 H   0  0  0  0  0  0  0  0  0  0  0  0  # atno 7974 bound_to 7965
  156.1317  140.3194  155.8359 H   0  0  0  0  0  0  0  0  0  0  0  0  # atno 8008 bound_to 7997
  155.4319  140.0519  157.3035 H   0  0  0  0  0  0  0  0  0  0  0  0  # atno 8009 bound_to 7997
  154.4905  140.2090  155.9573 H   0  0  0  0  0  0  0  0  0  0  0  0  # atno 8010 bound_to 7997
  140.3036  144.2905  150.6214 H   0  0  0  0  0  0  0  0  0  0  0  0  # atno 10167 bound_to 10162
  157.6586  130.9671  150.1190 H   0  0  0  0  0  0  0  0  0  0  0  0  # atno 10718 bound_to 10713
  154.7686  135.4884  153.9604 H   0  0  0  0  0  0  0  0  0  0  0  0  # atno 10763 bound_to 10752
  153.1339  135.6758  153.9141 H   0  0  0  0  0  0  0  0  0  0  0  0  # atno 10764 bound_to 10752
  153.8836  135.3129  155.3424 H   0  0  0  0  0  0  0  0  0  0  0  0  # atno 10765 bound_to 10752
  140.7034  133.8970  155.8699 H   0  0  0  0  0  0  0  0  0  0  0  0  # atno 11005 bound_to 11000
  144.7643  139.6882  143.7221 LP  0  0  0  0  0  0  0  0  0  0  0  0  # atno 17320 bound_to 7965
  146.2066  139.5394  142.9708 LP  0  0  0  0  0  0  0  0  0  0  0  0  # atno 17321 bound_to 7965
  140.5630  143.2190  151.7733 LP  0  0  0  0  0  0  0  0  0  0  0  0  # atno 17342 bound_to 10162
  139.4909  144.4323  151.9858 LP  0  0  0  0  0  0  0  0  0  0  0  0  # atno 17343 bound_to 10162
  156.2067  130.3664  149.8721 LP  0  0  0  0  0  0  0  0  0  0  0  0  # atno 17370 bound_to 10713
  156.6610  130.8782  151.3547 LP  0  0  0  0  0  0  0  0  0  0  0  0  # atno 17371 bound_to 10713
  141.0145  134.0975  157.4187 LP  0  0  0  0  0  0  0  0  0  0  0  0  # atno 17394 bound_to 11000
  139.8891  135.0102  156.6657 LP  0  0  0  0  0  0  0  0  0  0  0  0  # atno 17395 bound_to 11000

$$$$
