AV-unprocessed.smi:218|AV-procd|sdf|1664|dock6
  -GOLD-   2262020 63D 1   1.00000     0.00000
 Structure written by MMmdl.
 54 57  0  0  0  0  0  0  0  0  1 V2000
  152.7874  143.5216  159.9645 C   0  0  0  0  0  0  0  0  0  0  0  0
  152.7669  142.7891  161.3115 C   0  0  0  0  0  0  0  0  0  0  0  0
  152.5364  143.7698  162.4743 C   0  0  0  0  0  0  0  0  0  0  0  0
  154.0333  142.1421  161.4505 O   0  0  0  0  0  0  0  0  0  0  0  0
  154.3353  141.0340  160.6822 C   0  0  0  0  0  0  0  0  0  0  0  0
  153.3737  140.5831  159.7555 C   0  0  0  0  0  0  0  0  0  0  0  0
  153.6598  139.4443  158.9724 C   0  0  0  0  0  0  0  0  0  0  0  0
  152.6547  138.9070  157.9649 C   0  0  0  0  0  0  0  0  0  0  0  0
  152.1000  139.9004  157.0501 N   0  0  0  0  0  0  0  0  0  0  0  0
  150.7627  139.9914  156.8783 C   0  0  0  0  0  0  0  0  0  0  0  0
  149.9605  140.4656  157.8670 N   0  0  0  0  0  0  0  0  0  0  0  0
  148.6416  140.5546  157.6713 C   0  0  0  0  0  0  0  0  0  0  0  0
  147.9350  140.2267  156.5873 N   0  0  0  0  0  0  0  0  0  0  0  0
  148.7358  139.7431  155.5937 C   0  0  0  0  0  0  0  0  0  0  0  0
  150.1490  139.5933  155.6629 C   0  0  0  0  0  0  0  0  0  0  0  0
  150.6271  139.0743  154.4668 N   0  0  0  0  0  0  0  0  0  0  0  0
  149.5550  138.9304  153.7347 C   0  0  0  0  0  0  0  0  0  0  0  0
  148.3740  139.3068  154.3354 N   0  0  0  0  0  0  0  0  0  0  0  0
  147.0002  139.2673  153.7503 C   0  0  2  0  0  0  0  0  0  0  0  0
  146.2361  138.3784  154.5098 O   0  0  0  0  0  0  0  0  0  0  0  0
  145.4038  137.5972  153.6607 C   0  0  1  0  0  0  0  0  0  0  0  0
  144.0561  138.3304  153.4876 C   0  0  0  0  0  0  0  0  0  0  0  0
  143.3378  137.8061  152.3905 O   0  0  0  0  0  0  0  0  0  0  0  0
  146.2656  137.4397  152.3996 C   0  0  1  0  0  0  0  0  0  0  0  0
  145.5502  137.0854  151.2298 O   0  0  0  0  0  0  0  0  0  0  0  0
  147.0297  138.7594  152.2972 C   0  0  1  0  0  0  0  0  0  0  0  0
  146.4011  139.6790  151.4225 O   0  0  0  0  0  0  0  0  0  0  0  0
  154.9065  138.8099  159.1400 C   0  0  0  0  0  0  0  0  0  0  0  0
  155.8037  139.3338  160.0906 C   0  0  0  0  0  0  0  0  0  0  0  0
  155.5317  140.4171  160.8483 N   0  0  0  0  0  0  0  0  0  0  0  0
  146.6220  140.2857  153.8521 H   0  0  0  0  0  0  0  0  0  0  0  0
  145.2310  136.6317  154.1384 H   0  0  0  0  0  0  0  0  0  0  0  0
  146.9866  136.6435  152.5862 H   0  0  0  0  0  0  0  0  0  0  0  0
  148.0538  138.6011  151.9560 H   0  0  0  0  0  0  0  0  0  0  0  0
  151.8422  144.0325  159.7795 H   0  0  0  0  0  0  0  0  0  0  0  0
  152.9524  142.8230  159.1439 H   0  0  0  0  0  0  0  0  0  0  0  0
  153.5827  144.2668  159.9319 H   0  0  0  0  0  0  0  0  0  0  0  0
  151.9554  142.0610  161.2703 H   0  0  0  0  0  0  0  0  0  0  0  0
  151.5918  144.3009  162.3550 H   0  0  0  0  0  0  0  0  0  0  0  0
  153.3321  144.5135  162.5245 H   0  0  0  0  0  0  0  0  0  0  0  0
  152.5027  143.2581  163.4357 H   0  0  0  0  0  0  0  0  0  0  0  0
  152.4317  141.1022  159.6560 H   0  0  0  0  0  0  0  0  0  0  0  0
  153.1505  138.1405  157.3692 H   0  0  0  0  0  0  0  0  0  0  0  0
  151.8392  138.4066  158.4885 H   0  0  0  0  0  0  0  0  0  0  0  0
  152.7330  140.6370  156.7737 H   0  0  0  0  0  0  0  0  0  0  0  0
  148.0716  140.9460  158.5009 H   0  0  0  0  0  0  0  0  0  0  0  0
  149.5974  138.5420  152.7276 H   0  0  0  0  0  0  0  0  0  0  0  0
  143.4422  138.1848  154.3770 H   0  0  0  0  0  0  0  0  0  0  0  0
  144.1869  139.4053  153.3661 H   0  0  0  0  0  0  0  0  0  0  0  0
  143.6941  138.1721  151.5951 H   0  0  0  0  0  0  0  0  0  0  0  0
  144.9940  137.8103  150.9874 H   0  0  0  0  0  0  0  0  0  0  0  0
  145.5759  139.9379  151.8029 H   0  0  0  0  0  0  0  0  0  0  0  0
  155.1697  137.9378  158.5593 H   0  0  0  0  0  0  0  0  0  0  0  0
  156.7667  138.8704  160.2461 H   0  0  0  0  0  0  0  0  0  0  0  0
  1  2  1  0  0  0  0
  1 35  1  0  0  0  0
  1 36  1  0  0  0  0
  1 37  1  0  0  0  0
  2  3  1  0  0  0  0
  2  4  1  0  0  0  0
  2 38  1  0  0  0  0
  3 39  1  0  0  0  0
  3 40  1  0  0  0  0
  3 41  1  0  0  0  0
  4  5  1  0  0  0  0
  5 30  1  0  0  0  0
  5  6  2  0  0  0  0
  6  7  1  0  0  0  0
  6 42  1  0  0  0  0
  7  8  1  0  0  0  0
  7 28  2  0  0  0  0
  8  9  1  0  0  0  0
  8 43  1  0  0  0  0
  8 44  1  0  0  0  0
  9 10  1  0  0  0  0
  9 45  1  0  0  0  0
 10 15  1  0  0  0  0
 10 11  2  0  0  0  0
 11 12  1  0  0  0  0
 12 13  2  0  0  0  0
 12 46  1  0  0  0  0
 13 14  1  0  0  0  0
 14 18  1  0  0  0  0
 14 15  2  0  0  0  0
 15 16  1  0  0  0  0
 16 17  2  0  0  0  0
 17 18  1  0  0  0  0
 17 47  1  0  0  0  0
 18 19  1  0  0  0  0
 19 31  1  0  0  0  0
 19 26  1  0  0  0  0
 19 20  1  0  0  0  0
 20 21  1  0  0  0  0
 21 32  1  0  0  0  0
 21 22  1  0  0  0  0
 21 24  1  0  0  0  0
 22 23  1  0  0  0  0
 22 48  1  0  0  0  0
 22 49  1  0  0  0  0
 23 50  1  0  0  0  0
 24 33  1  0  0  0  0
 24 25  1  0  0  0  0
 24 26  1  0  0  0  0
 25 51  1  0  0  0  0
 26 34  1  0  0  0  0
 26 27  1  0  0  0  0
 27 52  1  0  0  0  0
 28 29  1  0  0  0  0
 28 53  1  0  0  0  0
 29 30  2  0  0  0  0
 29 54  1  0  0  0  0
M  END
> <s_m_source_file>
AV-unprocessed.smi

> <i_m_source_file_index>
218

> <i_lp_mmshare_version>
43012

> <i_f3d_flags>
0

> <s_epik_input>
W0NIM11bQ0hdKFtDSDNdKU9jMVtjSF1jKFtjSF1bY0hdbjEpW0NIMl1bTkhdYyhuW2NIXW4yKWMoYzIzKW5bY0hdbjNbQ0BASF00T1tDQEhdKFtDSDJdW09IXSlbQ0BASF0oW09IXSlbQ0BIXTRbT0hd

> <s_epik_cmdline>
J2VwaWtfcHl0aG9uJywgJy1waCcsICc3LjAnLCAnLXRuJywgJzgnLCAnLW1hJywgJzIwMCcsICctbWV0YWxfYmluZGluZycsICctaW1hZScsICc8aW5maWxlLm1hZT4nLCAnLW9tYWUnLCAnPG91dGZpbGUubWFlPic=

> <r_lp_tautomer_probability>
1

> <r_epik_Ionization_Penalty>
0.00457014

> <r_epik_Ionization_Penalty_Charging>
0

> <r_epik_Ionization_Penalty_Neutral>
0.00457014

> <r_epik_State_Penalty>
-0

> <r_epik_Charging_Adjusted_Penalty>
0

> <i_epik_Tot_Q>
0

> <i_epik_Tot_abs_Q>
0

> <r_epik_Metal_State_Penalty>
-0

> <b_epik_Metal_Only>
0

> <s_epik_Chemistry_Notes>
This compound contains an acetal/aminal-like group ( X-CH(R)-Y where X, Y are N, S, or O) that may be acid/base labile, releasing an aldehyde.

> <s_lp_Force_Field>
OPLS_2005

> <r_lp_Energy>
44.1408

> <b_lp_Chiralities_Consistent>
1

> <s_lp_Variant>
AV-unprocessed.smi:218-3

> <Gold.Version>
5.8.1

> <Gold.Id.Protein>
6NUR|6NUR_protein|mol2

> <Gold.PLP.Fitness>
48.3109

> <Gold.PLP.PLP>
-34.8020

> <Gold.PLP.part.hbond>
-6.5208

> <Gold.PLP.part.metal>
0.0000

> <Gold.PLP.part.buried>
7.9074

> <Gold.PLP.part.nonpolar>
-36.4011

> <Gold.PLP.part.repulsive>
0.3667

> <Gold.PLP.ligand.clash>
0.0000

> <Gold.PLP.ligand.torsion>
0.9890

> <Gold.PLP.Chemscore.Hbond>
3.3898

> <Gold.PLP.Chemscore.CHOScore>
1.7369

> <Gold.PLP.Chemscore.Metal>
0.0000

> <Gold.Chemscore.Hbonds>
donor molecule, donor type, donor heavy atom, donor atom, acceptor molecule, acceptor atom, score
      L1  H    23    50       P1 10171  1.00
      L1  H    25    51       P1 10171  0.99
      L1  H    27    52       P1 10175  0.93
      P1  H  7989  7998       L1    16  0.41
      L1  C    17    47       P1  7948  1.00
      L1  C    17    47       P1  7957  0.73

> <Gold.PLP.Chemscore.Internal.Correction>
0.1071

> <Gold.Rescore>
     Score         DG    S(hbond)    S(metal)    S(lipo)     H(rot)  DE(clash)    DE(int)     intcor
      6.88     -12.13       2.55        0.00      91.39       4.90       4.24       1.01       ----

> <Gold.Chemscore.Fitness>
6.8759

> <Gold.Chemscore.DG>
-12.1288

> <Gold.Chemscore.ZeroCoef>
-5.4800

> <Gold.Chemscore.Hbond>
2.5473

> <Gold.Chemscore.Metal>
0.0000

> <Gold.Chemscore.Lipo>
91.3888

> <Gold.Chemscore.Internal_Hbond>
0.0000

> <Gold.Chemscore.DEClash>
4.2415

> <Gold.Chemscore.DEInternal>
1.0115

> <Gold.Chemscore.Rot>
4.9029

> <Gold.Chemscore.Internal.Correction>
   9.000000E+99

> <Gold.Chemscore.Hbonds>
donor molecule, donor type, donor heavy atom, donor atom, acceptor molecule, acceptor atom, score
      L1  H    23    50       P1 10171  0.94
      L1  H    25    51       P1 10171  0.94
      L1  H    27    52       P1 10175  0.44
      P1  H  7989  7998       L1    16  0.06

> <Gold.Chemscore.Hbond.Weighted>
-8.5079

> <Gold.Chemscore.Metal.Weighted>
-0.0000

> <Gold.Chemscore.Lipo.Weighted>
-10.6925

> <Gold.Chemscore.Internal_Hbond.Weighted>
0.0000

> <Gold.Chemscore.DEClash.Weighted>
4.2415

> <Gold.Chemscore.DEInternal.Weighted>
1.0115

> <Gold.Chemscore.Rot.Weighted>
12.5515

> <Gold.Chemscore.Internal.Correction.Weighted>
   9.000000E+99

> <Gold.Protein.RotatedTorsions>
[ 6907 6896 6895 6894 ] final -115.78 input  -60.11 | X-H torsion
[ 7974 7965 7964 7962 ] final -115.67 input  175.53 | X-H torsion
[ 8008 7997 7996 7995 ] final   37.83 input   59.86 | X-H torsion
[ 10167 10162 10161 10158 ] final -131.05 input  -65.29 | X-H torsion
[ 10718 10713 10712 10709 ] final  129.51 input   66.30 | X-H torsion
[ 10763 10752 10751 10750 ] final   71.03 input  -60.55 | X-H torsion
[ 11005 11000 10999 10996 ] final -107.41 input  -57.11 | X-H torsion

> <Gold.Protein.ActiveResidues>
 VAL166  LYS551  ARG553  GLY616  TRP617  ASP618  TYR619  PRO620  LYS621  CYS622 
 ASP623  PHE694  ASN695  SER759  ASP760  ASP761  ALA762  ILE779  LEU786  VAL792 
 PHE793  MET794  SER795  GLU796  ALA797  LYS798  CYS799  TRP800  GLU811  SER814 

> <Gold.Protein.RotatedAtoms>
  150.8004  133.8610  159.3231 H   0  0  0  0  0  0  0  0  0  0  0  0  # atno 6907 bound_to 6896
  151.6424  135.1009  160.0153 H   0  0  0  0  0  0  0  0  0  0  0  0  # atno 6908 bound_to 6896
  152.4091  133.6895  159.6417 H   0  0  0  0  0  0  0  0  0  0  0  0  # atno 6909 bound_to 6896
  145.1057  140.8580  143.3900 H   0  0  0  0  0  0  0  0  0  0  0  0  # atno 7974 bound_to 7965
  155.2102  140.3323  155.4330 H   0  0  0  0  0  0  0  0  0  0  0  0  # atno 8008 bound_to 7997
  156.2373  140.1878  156.7133 H   0  0  0  0  0  0  0  0  0  0  0  0  # atno 8009 bound_to 7997
  154.6083  140.0613  156.9445 H   0  0  0  0  0  0  0  0  0  0  0  0  # atno 8010 bound_to 7997
  139.9229  143.6361  152.2549 H   0  0  0  0  0  0  0  0  0  0  0  0  # atno 10167 bound_to 10162
  157.5148  131.1097  150.9241 H   0  0  0  0  0  0  0  0  0  0  0  0  # atno 10718 bound_to 10713
  153.0375  135.5152  154.7532 H   0  0  0  0  0  0  0  0  0  0  0  0  # atno 10763 bound_to 10752
  154.6496  135.2923  155.0006 H   0  0  0  0  0  0  0  0  0  0  0  0  # atno 10764 bound_to 10752
  154.0894  135.6652  153.4903 H   0  0  0  0  0  0  0  0  0  0  0  0  # atno 10765 bound_to 10752
  141.0955  133.8978  157.1972 H   0  0  0  0  0  0  0  0  0  0  0  0  # atno 11005 bound_to 11000
  145.0905  139.2894  143.5737 LP  0  0  0  0  0  0  0  0  0  0  0  0  # atno 17320 bound_to 7965
  146.3528  140.0440  142.8641 LP  0  0  0  0  0  0  0  0  0  0  0  0  # atno 17321 bound_to 7965
  139.6846  144.7652  151.1547 LP  0  0  0  0  0  0  0  0  0  0  0  0  # atno 17342 bound_to 10162
  140.7657  143.5675  150.9031 LP  0  0  0  0  0  0  0  0  0  0  0  0  # atno 17343 bound_to 10162
  156.9870  130.5548  149.5300 LP  0  0  0  0  0  0  0  0  0  0  0  0  # atno 17370 bound_to 10713
  156.0313  130.5404  150.8540 LP  0  0  0  0  0  0  0  0  0  0  0  0  # atno 17371 bound_to 10713
  139.9791  135.0104  156.9705 LP  0  0  0  0  0  0  0  0  0  0  0  0  # atno 17394 bound_to 11000
  140.5149  134.0965  155.7278 LP  0  0  0  0  0  0  0  0  0  0  0  0  # atno 17395 bound_to 11000

$$$$
