AV-unprocessed.smi:2955|AV-procd|sdf|11303|dock2
  -GOLD-   2272016203D 1   1.00000     0.00000
 Structure written by MMmdl.
 46 48  0  0  0  0  0  0  0  0  2 V2000
  145.1735  137.1012  162.0698 C   0  0  0  0  0  0  0  0  0  0  0  0
  145.9523  135.8375  161.7678 C   0  0  0  0  0  0  0  0  0  0  0  0
  145.7917  134.6925  162.5736 C   0  0  0  0  0  0  0  0  0  0  0  0
  146.5180  133.5229  162.2844 C   0  0  0  0  0  0  0  0  0  0  0  0
  147.4043  133.4963  161.1911 C   0  0  0  0  0  0  0  0  0  0  0  0
  147.5781  134.6329  160.3752 C   0  0  0  0  0  0  0  0  0  0  0  0
  148.4669  134.5199  159.3277 O   0  0  0  0  0  0  0  0  0  0  0  0
  148.2646  135.3373  158.1844 C   0  0  0  0  0  0  0  0  0  0  0  0
  149.6023  135.9817  157.8050 C   0  0  0  0  0  0  0  0  0  0  0  0
  149.5649  136.5528  156.4519 N   0  0  0  0  0  0  0  0  0  0  0  0
  149.4426  135.9436  155.2360 C   0  0  0  0  0  0  0  0  0  0  0  0
  149.2927  134.4733  154.9710 C   0  0  2  0  0  0  0  0  0  0  0  0
  150.5404  133.7006  155.4234 C   0  0  0  0  0  0  0  0  0  0  0  0
  149.0317  134.2058  153.5624 N   0  0  0  0  0  0  0  0  0  0  0  0
  148.9400  132.9790  153.0343 C   0  0  0  0  0  0  0  0  0  0  0  0
  149.0693  131.9523  153.6954 O   0  0  0  0  0  0  0  0  0  0  0  0
  149.4482  136.9295  154.2929 N   0  3  0  0  0  0  0  0  0  0  0  0
  149.6011  138.1729  154.9062 C   0  0  0  0  0  0  0  0  0  0  0  0
  149.6728  139.4528  154.3652 C   0  0  0  0  0  0  0  0  0  0  0  0
  149.8373  140.5164  155.2768 C   0  0  0  0  0  0  0  0  0  0  0  0
  149.9247  140.2865  156.6652 C   0  0  0  0  0  0  0  0  0  0  0  0
  149.8491  138.9841  157.2017 C   0  0  0  0  0  0  0  0  0  0  0  0
  149.6829  137.9383  156.2936 C   0  0  0  0  0  0  0  0  0  0  0  0
  146.8411  135.8075  160.6734 C   0  0  0  0  0  0  0  0  0  0  0  0
  144.5978  137.0043  162.9909 H   0  0  0  0  0  0  0  0  0  0  0  0
  144.4815  137.3207  161.2565 H   0  0  0  0  0  0  0  0  0  0  0  0
  145.8525  137.9470  162.1815 H   0  0  0  0  0  0  0  0  0  0  0  0
  145.1130  134.7060  163.4138 H   0  0  0  0  0  0  0  0  0  0  0  0
  146.3956  132.6450  162.9015 H   0  0  0  0  0  0  0  0  0  0  0  0
  147.9582  132.5939  160.9772 H   0  0  0  0  0  0  0  0  0  0  0  0
  147.8915  134.7391  157.3516 H   0  0  0  0  0  0  0  0  0  0  0  0
  147.5315  136.1157  158.4031 H   0  0  0  0  0  0  0  0  0  0  0  0
  149.8477  136.7826  158.5022 H   0  0  0  0  0  0  0  0  0  0  0  0
  150.4192  135.2629  157.8716 H   0  0  0  0  0  0  0  0  0  0  0  0
  148.4510  134.0952  155.5526 H   0  0  0  0  0  0  0  0  0  0  0  0
  150.7331  133.8579  156.4851 H   0  0  0  0  0  0  0  0  0  0  0  0
  151.4298  134.0107  154.8737 H   0  0  0  0  0  0  0  0  0  0  0  0
  150.4137  132.6284  155.2690 H   0  0  0  0  0  0  0  0  0  0  0  0
  148.9152  135.0007  152.9506 H   0  0  0  0  0  0  0  0  0  0  0  0
  148.7381  133.0108  151.9520 H   0  0  0  0  0  0  0  0  0  0  0  0
  149.6077  139.6311  153.3019 H   0  0  0  0  0  0  0  0  0  0  0  0
  149.8988  141.5285  154.9036 H   0  0  0  0  0  0  0  0  0  0  0  0
  150.0520  141.1261  157.3332 H   0  0  0  0  0  0  0  0  0  0  0  0
  149.9191  138.8205  158.2669 H   0  0  0  0  0  0  0  0  0  0  0  0
  146.9408  136.7001  160.0746 H   0  0  0  0  0  0  0  0  0  0  0  0
  149.3576  136.7586  153.2997 H   0  0  0  0  0  0  0  0  0  0  0  0
  1  2  1  0  0  0  0
  1 25  1  0  0  0  0
  1 26  1  0  0  0  0
  1 27  1  0  0  0  0
  2 24  1  0  0  0  0
  2  3  2  0  0  0  0
  3  4  1  0  0  0  0
  3 28  1  0  0  0  0
  4  5  2  0  0  0  0
  4 29  1  0  0  0  0
  5  6  1  0  0  0  0
  5 30  1  0  0  0  0
  6  7  1  0  0  0  0
  6 24  2  0  0  0  0
  7  8  1  0  0  0  0
  8  9  1  0  0  0  0
  8 31  1  0  0  0  0
  8 32  1  0  0  0  0
  9 10  1  0  0  0  0
  9 33  1  0  0  0  0
  9 34  1  0  0  0  0
 10 23  1  0  0  0  0
 10 11  1  0  0  0  0
 11 12  1  0  0  0  0
 11 17  2  0  0  0  0
 12 13  1  0  0  0  0
 12 14  1  0  0  0  0
 12 35  1  0  0  0  0
 13 36  1  0  0  0  0
 13 37  1  0  0  0  0
 13 38  1  0  0  0  0
 14 15  1  0  0  0  0
 14 39  1  0  0  0  0
 15 16  2  0  0  0  0
 15 40  1  0  0  0  0
 17 18  1  0  0  0  0
 17 46  1  0  0  0  0
 18 23  2  0  0  0  0
 18 19  1  0  0  0  0
 19 20  2  0  0  0  0
 19 41  1  0  0  0  0
 20 21  1  0  0  0  0
 20 42  1  0  0  0  0
 21 22  2  0  0  0  0
 21 43  1  0  0  0  0
 22 23  1  0  0  0  0
 22 44  1  0  0  0  0
 24 45  1  0  0  0  0
M  CHG  1  17   1
M  END
> <s_m_source_file>
AV-unprocessed.smi

> <i_m_source_file_index>
2955

> <i_lp_mmshare_version>
43012

> <i_f3d_flags>
0

> <s_epik_input>
W0NIM11jMVtjSF1bY0hdW2NIXWMoW2NIXTEpT1tDSDJdW0NIMl1uKGMobjIpW0NASF0oW0NIM10pW05IXVtDSF09TyljKGMyMylbY0hdW2NIXVtjSF1bY0hdMw==

> <s_epik_cmdline>
J2VwaWtfcHl0aG9uJywgJy1waCcsICc3LjAnLCAnLXRuJywgJzgnLCAnLW1hJywgJzIwMCcsICctbWV0YWxfYmluZGluZycsICctaW1hZScsICc8aW5maWxlLm1hZT4nLCAnLW9tYWUnLCAnPG91dGZpbGUubWFlPic=

> <r_lp_tautomer_probability>
1

> <r_epik_Ionization_Penalty>
1.15027

> <r_epik_Ionization_Penalty_Charging>
1.15027

> <r_epik_Ionization_Penalty_Neutral>
5.5802e-08

> <r_epik_State_Penalty>
1.21159

> <r_epik_Charging_Adjusted_Penalty>
2.36186

> <i_epik_Tot_Q>
1

> <i_epik_Tot_abs_Q>
1

> <r_epik_Metal_State_Penalty>
1.29223

> <b_epik_Metal_Only>
0

> <s_lp_Force_Field>
OPLS_2005

> <r_lp_Energy>
18.7975

> <b_lp_Chiralities_Consistent>
1

> <s_lp_Variant>
AV-unprocessed.smi:2955-3

> <Gold.Version>
5.8.1

> <Gold.Id.Protein>
6NUR|6NUR_protein|mol2

> <Gold.PLP.Fitness>
48.5014

> <Gold.PLP.PLP>
-38.0391

> <Gold.PLP.part.hbond>
-3.0000

> <Gold.PLP.part.metal>
0.0000

> <Gold.PLP.part.buried>
-1.5965

> <Gold.PLP.part.nonpolar>
-33.5361

> <Gold.PLP.part.repulsive>
0.1093

> <Gold.PLP.ligand.clash>
0.0000

> <Gold.PLP.ligand.torsion>
0.8766

> <Gold.PLP.Chemscore.Hbond>
4.0000

> <Gold.PLP.Chemscore.CHOScore>
0.0000

> <Gold.PLP.Chemscore.Metal>
0.0000

> <Gold.Chemscore.Hbonds>
donor molecule, donor type, donor heavy atom, donor atom, acceptor molecule, acceptor atom, score
      L1  H    14    39       P1  7948  0.85
      L1  H    17    46       P1  7948  2.00
      P1  H  6896  6909       L1     7  0.67

> <Gold.PLP.Chemscore.Internal.Correction>
0.2156

> <Gold.Rescore>
     Score         DG    S(hbond)    S(metal)    S(lipo)     H(rot)  DE(clash)    DE(int)     intcor
     17.64     -19.78       2.57        0.00      99.52       2.32       0.13       2.01       ----

> <Gold.Chemscore.Fitness>
17.6376

> <Gold.Chemscore.DG>
-19.7778

> <Gold.Chemscore.ZeroCoef>
-5.4800

> <Gold.Chemscore.Hbond>
2.5744

> <Gold.Chemscore.Metal>
0.0000

> <Gold.Chemscore.Lipo>
99.5243

> <Gold.Chemscore.Internal_Hbond>
0.0000

> <Gold.Chemscore.DEClash>
0.1332

> <Gold.Chemscore.DEInternal>
2.0069

> <Gold.Chemscore.Rot>
2.3223

> <Gold.Chemscore.Internal.Correction>
   9.000000E+99

> <Gold.Chemscore.Hbonds>
donor molecule, donor type, donor heavy atom, donor atom, acceptor molecule, acceptor atom, score
      L1  H    14    39       P1  7948  0.14
      L1  H    17    46       P1  7948  0.87
      P1  H  6896  6909       L1     7  0.33

> <Gold.Chemscore.Hbond.Weighted>
-8.5984

> <Gold.Chemscore.Metal.Weighted>
-0.0000

> <Gold.Chemscore.Lipo.Weighted>
-11.6443

> <Gold.Chemscore.Internal_Hbond.Weighted>
0.0000

> <Gold.Chemscore.DEClash.Weighted>
0.1332

> <Gold.Chemscore.DEInternal.Weighted>
2.0069

> <Gold.Chemscore.Rot.Weighted>
5.9450

> <Gold.Chemscore.Internal.Correction.Weighted>
   9.000000E+99

> <Gold.Protein.RotatedTorsions>
[ 6907 6896 6895 6894 ] final   33.43 input  -60.11 | X-H torsion
[ 7974 7965 7964 7962 ] final  -16.01 input  175.53 | X-H torsion
[ 8008 7997 7996 7995 ] final -178.88 input   59.86 | X-H torsion
[ 10167 10162 10161 10158 ] final -106.63 input  -65.29 | X-H torsion
[ 10718 10713 10712 10709 ] final -158.68 input   66.30 | X-H torsion
[ 10763 10752 10751 10750 ] final  121.94 input  -60.55 | X-H torsion
[ 11005 11000 10999 10996 ] final  111.82 input  -57.11 | X-H torsion

> <Gold.Protein.ActiveResidues>
 VAL166  LYS551  ARG553  GLY616  TRP617  ASP618  TYR619  PRO620  LYS621  CYS622 
 ASP623  PHE694  ASN695  SER759  ASP760  ASP761  ALA762  ILE779  LEU786  VAL792 
 PHE793  MET794  SER795  GLU796  ALA797  LYS798  CYS799  TRP800  GLU811  SER814 

> <Gold.Protein.RotatedAtoms>
  152.0883  134.9424  160.0572 H   0  0  0  0  0  0  0  0  0  0  0  0  # atno 6907 bound_to 6896
  152.0686  133.4091  159.4457 H   0  0  0  0  0  0  0  0  0  0  0  0  # atno 6908 bound_to 6896
  150.6836  134.3038  159.4761 H   0  0  0  0  0  0  0  0  0  0  0  0  # atno 6909 bound_to 6896
  146.2007  140.3575  142.8424 H   0  0  0  0  0  0  0  0  0  0  0  0  # atno 7974 bound_to 7965
  156.0240  140.1267  157.0328 H   0  0  0  0  0  0  0  0  0  0  0  0  # atno 8008 bound_to 7997
  154.4323  140.1063  156.6074 H   0  0  0  0  0  0  0  0  0  0  0  0  # atno 8009 bound_to 7997
  155.5903  140.3469  155.4567 H   0  0  0  0  0  0  0  0  0  0  0  0  # atno 8010 bound_to 7997
  140.1856  143.3932  152.1247 H   0  0  0  0  0  0  0  0  0  0  0  0  # atno 10167 bound_to 10162
  156.5575  130.8632  151.2799 H   0  0  0  0  0  0  0  0  0  0  0  0  # atno 10718 bound_to 10713
  153.6219  135.3411  155.3013 H   0  0  0  0  0  0  0  0  0  0  0  0  # atno 10763 bound_to 10752
  154.8598  135.4275  154.2198 H   0  0  0  0  0  0  0  0  0  0  0  0  # atno 10764 bound_to 10752
  153.3073  135.7029  153.7220 H   0  0  0  0  0  0  0  0  0  0  0  0  # atno 10765 bound_to 10752
  139.8912  134.9516  156.6492 H   0  0  0  0  0  0  0  0  0  0  0  0  # atno 11005 bound_to 11000
  144.8676  140.7228  143.6067 LP  0  0  0  0  0  0  0  0  0  0  0  0  # atno 17320 bound_to 7965
  145.3494  139.1710  143.4442 LP  0  0  0  0  0  0  0  0  0  0  0  0  # atno 17321 bound_to 7965
  139.5277  144.7122  151.5168 LP  0  0  0  0  0  0  0  0  0  0  0  0  # atno 17342 bound_to 10162
  140.6490  143.8735  150.6766 LP  0  0  0  0  0  0  0  0  0  0  0  0  # atno 17343 bound_to 10162
  157.7375  130.9797  150.2198 LP  0  0  0  0  0  0  0  0  0  0  0  0  # atno 17370 bound_to 10713
  156.2829  130.3735  149.7917 LP  0  0  0  0  0  0  0  0  0  0  0  0  # atno 17371 bound_to 10713
  140.7534  133.8878  155.8364 LP  0  0  0  0  0  0  0  0  0  0  0  0  # atno 17394 bound_to 11000
  140.9982  134.1186  157.4343 LP  0  0  0  0  0  0  0  0  0  0  0  0  # atno 17395 bound_to 11000

$$$$
