AV-unprocessed.smi:99|AV-procd|sdf|882|dock2
  -GOLD-   2262017363D 1   1.00000     0.00000
 Structure written by MMmdl.
 52 55  0  0  0  0  0  0  0  0  2 V2000
  149.2596  135.4908  158.4503 O   0  0  0  0  0  0  0  0  0  0  0  0
  148.7954  136.2743  159.2808 C   0  0  0  0  0  0  0  0  0  0  0  0
  149.0395  137.5996  159.2765 O   0  0  0  0  0  0  0  0  0  0  0  0
  150.1554  138.1208  158.5712 C   0  0  0  0  0  0  0  0  0  0  0  0
  149.9390  137.9263  157.0630 C   0  0  1  0  0  0  0  0  0  0  0  0
  148.5940  138.2375  156.7053 O   0  0  0  0  0  0  0  0  0  0  0  0
  148.5345  138.6927  155.3828 C   0  0  1  0  0  0  0  0  0  0  0  0
  147.8035  140.0211  155.3505 N   0  0  0  0  0  0  0  0  0  0  0  0
  147.5343  140.7108  156.5201 C   0  0  0  0  0  0  0  0  0  0  0  0
  146.8885  141.8944  156.5080 C   0  0  0  0  0  0  0  0  0  0  0  0
  146.4563  142.4611  155.2344 C   0  0  0  0  0  0  0  0  0  0  0  0
  145.8739  143.5438  155.2317 O   0  0  0  0  0  0  0  0  0  0  0  0
  146.7197  141.7569  154.0960 N   0  5  0  0  0  0  0  0  0  0  0  0
  147.3748  140.5591  154.1057 C   0  0  0  0  0  0  0  0  0  0  0  0
  147.6223  139.9195  153.0834 O   0  0  0  0  0  0  0  0  0  0  0  0
  149.9858  138.7874  154.8693 C   0  0  1  0  0  0  0  0  0  0  0  0
  150.2965  139.8643  154.0044 O   0  0  0  0  0  0  0  0  0  0  0  0
  150.8047  138.8040  156.1499 C   0  0  1  0  0  0  0  0  0  0  0  0
  150.9002  140.1166  156.7071 O   0  0  0  0  0  0  0  0  0  0  0  0
  151.8781  140.4263  157.5914 C   0  0  0  0  0  0  0  0  0  0  0  0
  152.7264  139.6237  157.9858 O   0  0  0  0  0  0  0  0  0  0  0  0
  151.8259  141.8444  158.0484 C   0  0  0  0  0  0  0  0  0  0  0  0
  152.5784  142.2352  159.1806 C   0  0  0  0  0  0  0  0  0  0  0  0
  152.5518  143.5681  159.6348 C   0  0  0  0  0  0  0  0  0  0  0  0
  151.7702  144.5266  158.9639 C   0  0  0  0  0  0  0  0  0  0  0  0
  151.0131  144.1493  157.8396 C   0  0  0  0  0  0  0  0  0  0  0  0
  151.0390  142.8167  157.3853 C   0  0  0  0  0  0  0  0  0  0  0  0
  147.8973  135.8557  160.3949 C   0  0  0  0  0  0  0  0  0  0  0  0
  147.5705  134.4878  160.5455 C   0  0  0  0  0  0  0  0  0  0  0  0
  146.7217  134.0635  161.5863 C   0  0  0  0  0  0  0  0  0  0  0  0
  146.1878  135.0023  162.4881 C   0  0  0  0  0  0  0  0  0  0  0  0
  146.5025  136.3663  162.3469 C   0  0  0  0  0  0  0  0  0  0  0  0
  147.3516  136.7926  161.3070 C   0  0  0  0  0  0  0  0  0  0  0  0
  150.2758  139.1784  158.8069 H   0  0  0  0  0  0  0  0  0  0  0  0
  151.0727  137.6144  158.8761 H   0  0  0  0  0  0  0  0  0  0  0  0
  150.1117  136.8805  156.8037 H   0  0  0  0  0  0  0  0  0  0  0  0
  147.9201  138.0006  154.8050 H   0  0  0  0  0  0  0  0  0  0  0  0
  147.8399  140.3016  157.4704 H   0  0  0  0  0  0  0  0  0  0  0  0
  146.6889  142.4168  157.4320 H   0  0  0  0  0  0  0  0  0  0  0  0
  150.1959  137.8577  154.3390 H   0  0  0  0  0  0  0  0  0  0  0  0
  149.9632  139.6601  153.1437 H   0  0  0  0  0  0  0  0  0  0  0  0
  151.7840  138.3498  155.9945 H   0  0  0  0  0  0  0  0  0  0  0  0
  153.1879  141.5176  159.7109 H   0  0  0  0  0  0  0  0  0  0  0  0
  153.1329  143.8551  160.4986 H   0  0  0  0  0  0  0  0  0  0  0  0
  151.7506  145.5491  159.3114 H   0  0  0  0  0  0  0  0  0  0  0  0
  150.4106  144.8824  157.3236 H   0  0  0  0  0  0  0  0  0  0  0  0
  150.4415  142.5605  156.5256 H   0  0  0  0  0  0  0  0  0  0  0  0
  147.9680  133.7486  159.8649 H   0  0  0  0  0  0  0  0  0  0  0  0
  146.4802  133.0161  161.6923 H   0  0  0  0  0  0  0  0  0  0  0  0
  145.5369  134.6765  163.2862 H   0  0  0  0  0  0  0  0  0  0  0  0
  146.0913  137.0882  163.0370 H   0  0  0  0  0  0  0  0  0  0  0  0
  147.5688  137.8474  161.2245 H   0  0  0  0  0  0  0  0  0  0  0  0
  1  2  2  0  0  0  0
  2  3  1  0  0  0  0
  2 28  1  0  0  0  0
  3  4  1  0  0  0  0
  4  5  1  0  0  0  0
  4 34  1  0  0  0  0
  4 35  1  0  0  0  0
  5 18  1  0  0  0  0
  5  6  1  0  0  0  0
  5 36  1  0  0  0  0
  6  7  1  0  0  0  0
  7  8  1  0  0  0  0
  7 16  1  0  0  0  0
  7 37  1  0  0  0  0
  8 14  1  0  0  0  0
  8  9  1  0  0  0  0
  9 10  2  0  0  0  0
  9 38  1  0  0  0  0
 10 11  1  0  0  0  0
 10 39  1  0  0  0  0
 11 12  2  0  0  0  0
 11 13  1  0  0  0  0
 13 14  1  0  0  0  0
 14 15  2  0  0  0  0
 16 17  1  0  0  0  0
 16 18  1  0  0  0  0
 16 40  1  0  0  0  0
 17 41  1  0  0  0  0
 18 19  1  0  0  0  0
 18 42  1  0  0  0  0
 19 20  1  0  0  0  0
 20 21  2  0  0  0  0
 20 22  1  0  0  0  0
 22 27  1  0  0  0  0
 22 23  2  0  0  0  0
 23 24  1  0  0  0  0
 23 43  1  0  0  0  0
 24 25  2  0  0  0  0
 24 44  1  0  0  0  0
 25 26  1  0  0  0  0
 25 45  1  0  0  0  0
 26 27  2  0  0  0  0
 26 46  1  0  0  0  0
 27 47  1  0  0  0  0
 28 33  1  0  0  0  0
 28 29  2  0  0  0  0
 29 30  1  0  0  0  0
 29 48  1  0  0  0  0
 30 31  2  0  0  0  0
 30 49  1  0  0  0  0
 31 32  1  0  0  0  0
 31 50  1  0  0  0  0
 32 33  2  0  0  0  0
 32 51  1  0  0  0  0
 33 52  1  0  0  0  0
M  CHG  1  13  -1
M  END
> <s_m_source_file>
AV-unprocessed.smi

> <i_m_source_file_index>
99

> <i_lp_mmshare_version>
43012

> <i_f3d_flags>
0

> <s_epik_input>
W2NIXTFbY0hdW2NIXVtjSF1bY0hdYzFDKD1PKU9bQ0gyXVtDQEBIXTJPW0NAQEhdKG4zW2NIXVtjSF1jKD1PKVtuSF1jMz1PKVtDQEBIXShbT0hdKVtDQEhdMk9DKD1PKWM0W2NIXVtjSF1bY0hdW2NIXVtjSF00

> <s_epik_cmdline>
J2VwaWtfcHl0aG9uJywgJy1waCcsICc3LjAnLCAnLXRuJywgJzgnLCAnLW1hJywgJzIwMCcsICctbWV0YWxfYmluZGluZycsICctaW1hZScsICc8aW5maWxlLm1hZT4nLCAnLW9tYWUnLCAnPG91dGZpbGUubWFlPic=

> <r_lp_tautomer_probability>
1

> <r_epik_Ionization_Penalty>
2.89159

> <r_epik_Ionization_Penalty_Charging>
2.1077e-08

> <r_epik_Ionization_Penalty_Neutral>
2.89159

> <r_epik_State_Penalty>
2.88671

> <r_epik_Charging_Adjusted_Penalty>
2.88671

> <i_epik_Tot_Q>
-1

> <i_epik_Tot_abs_Q>
1

> <r_epik_Metal_State_Penalty>
0.0727308

> <b_epik_Metal_Only>
1

> <s_epik_Chemistry_Notes>
This compound has an ester and may undergo hydrolysis at high or low pH. This compound contains an acetal/aminal-like group ( X-CH(R)-Y where X, Y are N, S, or O) that may be acid/base labile, releasing an aldehyde.

> <s_lp_Force_Field>
OPLS_2005

> <r_lp_Energy>
51.9735

> <b_lp_Chiralities_Consistent>
1

> <s_lp_Variant>
AV-unprocessed.smi:99-18

> <Gold.Version>
5.8.1

> <Gold.Id.Protein>
6NUR|6NUR_protein|mol2

> <Gold.PLP.Fitness>
63.0383

> <Gold.PLP.PLP>
-52.3700

> <Gold.PLP.part.hbond>
-4.5674

> <Gold.PLP.part.metal>
0.0000

> <Gold.PLP.part.buried>
-5.8734

> <Gold.PLP.part.nonpolar>
-42.9924

> <Gold.PLP.part.repulsive>
0.9266

> <Gold.PLP.ligand.clash>
0.0000

> <Gold.PLP.ligand.torsion>
1.0711

> <Gold.PLP.Chemscore.Hbond>
3.9513

> <Gold.PLP.Chemscore.CHOScore>
0.0000

> <Gold.PLP.Chemscore.Metal>
0.0000

> <Gold.Chemscore.Hbonds>
donor molecule, donor type, donor heavy atom, donor atom, acceptor molecule, acceptor atom, score
      L1  H    17    41       P1  7957  0.96
      P1  H  6896  6909       L1     1  0.91
      P1  H  7989  7998       L1    17  0.80
      P1  H  7997  8009       L1    21  0.76

> <Gold.PLP.Chemscore.Internal.Correction>
0.9568

> <Gold.Rescore>
     Score         DG    S(hbond)    S(metal)    S(lipo)     H(rot)  DE(clash)    DE(int)     intcor
     20.52     -22.27       3.09        0.00     123.71       3.13       0.03       1.71       ----

> <Gold.Chemscore.Fitness>
20.5228

> <Gold.Chemscore.DG>
-22.2659

> <Gold.Chemscore.ZeroCoef>
-5.4800

> <Gold.Chemscore.Hbond>
3.0949

> <Gold.Chemscore.Metal>
0.0000

> <Gold.Chemscore.Lipo>
123.7054

> <Gold.Chemscore.Internal_Hbond>
0.0000

> <Gold.Chemscore.DEClash>
0.0301

> <Gold.Chemscore.DEInternal>
1.7130

> <Gold.Chemscore.Rot>
3.1346

> <Gold.Chemscore.Internal.Correction>
   9.000000E+99

> <Gold.Chemscore.Hbonds>
donor molecule, donor type, donor heavy atom, donor atom, acceptor molecule, acceptor atom, score
      L1  H    17    41       P1  7957  0.89
      P1  H  6896  6909       L1     1  0.51
      P1  H  7989  7998       L1    17  0.11
      P1  H  7997  8009       L1    21  0.33

> <Gold.Chemscore.Hbond.Weighted>
-10.3370

> <Gold.Chemscore.Metal.Weighted>
-0.0000

> <Gold.Chemscore.Lipo.Weighted>
-14.4735

> <Gold.Chemscore.Internal_Hbond.Weighted>
0.0000

> <Gold.Chemscore.DEClash.Weighted>
0.0301

> <Gold.Chemscore.DEInternal.Weighted>
1.7130

> <Gold.Chemscore.Rot.Weighted>
8.0246

> <Gold.Chemscore.Internal.Correction.Weighted>
   9.000000E+99

> <Gold.Protein.RotatedTorsions>
[ 6907 6896 6895 6894 ] final   30.64 input  -60.11 | X-H torsion
[ 7974 7965 7964 7962 ] final -105.13 input  175.53 | X-H torsion
[ 8008 7997 7996 7995 ] final  171.26 input   59.86 | X-H torsion
[ 10167 10162 10161 10158 ] final -149.40 input  -65.29 | X-H torsion
[ 10718 10713 10712 10709 ] final  -97.35 input   66.30 | X-H torsion
[ 10763 10752 10751 10750 ] final   93.54 input  -60.55 | X-H torsion
[ 11005 11000 10999 10996 ] final  159.47 input  -57.11 | X-H torsion

> <Gold.Protein.ActiveResidues>
 VAL166  LYS551  ARG553  GLY616  TRP617  ASP618  TYR619  PRO620  LYS621  CYS622 
 ASP623  PHE694  ASN695  SER759  ASP760  ASP761  ALA762  ILE779  LEU786  VAL792 
 PHE793  MET794  SER795  GLU796  ALA797  LYS798  CYS799  TRP800  GLU811  SER814 

> <Gold.Protein.RotatedAtoms>
  152.0488  134.9666  160.0574 H   0  0  0  0  0  0  0  0  0  0  0  0  # atno 6907 bound_to 6896
  152.1075  133.4278  159.4624 H   0  0  0  0  0  0  0  0  0  0  0  0  # atno 6908 bound_to 6896
  150.6842  134.2606  159.4591 H   0  0  0  0  0  0  0  0  0  0  0  0  # atno 6909 bound_to 6896
  145.2343  140.9182  143.3186 H   0  0  0  0  0  0  0  0  0  0  0  0  # atno 7974 bound_to 7965
  156.1288  140.1516  156.9096 H   0  0  0  0  0  0  0  0  0  0  0  0  # atno 8008 bound_to 7997
  154.4892  140.0856  156.7597 H   0  0  0  0  0  0  0  0  0  0  0  0  # atno 8009 bound_to 7997
  155.4294  140.3426  155.4281 H   0  0  0  0  0  0  0  0  0  0  0  0  # atno 8010 bound_to 7997
  139.7445  143.8611  152.2571 H   0  0  0  0  0  0  0  0  0  0  0  0  # atno 10167 bound_to 10162
  156.0082  130.5191  150.6362 H   0  0  0  0  0  0  0  0  0  0  0  0  # atno 10718 bound_to 10713
  153.2314  135.4322  155.0599 H   0  0  0  0  0  0  0  0  0  0  0  0  # atno 10763 bound_to 10752
  154.8298  135.3380  154.6782 H   0  0  0  0  0  0  0  0  0  0  0  0  # atno 10764 bound_to 10752
  153.7209  135.7017  153.5069 H   0  0  0  0  0  0  0  0  0  0  0  0  # atno 10765 bound_to 10752
  140.1964  134.8369  157.2970 H   0  0  0  0  0  0  0  0  0  0  0  0  # atno 11005 bound_to 11000
  144.9647  139.3942  143.6338 LP  0  0  0  0  0  0  0  0  0  0  0  0  # atno 17320 bound_to 7965
  146.3345  139.8717  142.8839 LP  0  0  0  0  0  0  0  0  0  0  0  0  # atno 17321 bound_to 7965
  139.8571  144.7135  150.9144 LP  0  0  0  0  0  0  0  0  0  0  0  0  # atno 17342 bound_to 10162
  140.7790  143.3849  151.1411 LP  0  0  0  0  0  0  0  0  0  0  0  0  # atno 17343 bound_to 10162
  157.4151  131.0829  151.1184 LP  0  0  0  0  0  0  0  0  0  0  0  0  # atno 17370 bound_to 10713
  157.1804  130.6307  149.5670 LP  0  0  0  0  0  0  0  0  0  0  0  0  # atno 17371 bound_to 10713
  140.2102  134.4148  155.7617 LP  0  0  0  0  0  0  0  0  0  0  0  0  # atno 17394 bound_to 11000
  141.2227  133.7114  156.8325 LP  0  0  0  0  0  0  0  0  0  0  0  0  # atno 17395 bound_to 11000

$$$$
