AV-unprocessed.smi:370|AV-procd|sdf|2438|dock2
  -GOLD-   2262022373D 1   1.00000     0.00000
 Structure written by MMmdl.
 41 42  0  0  0  0  0  0  0  0  2 V2000
  147.2046  135.7652  162.9262 C   0  0  0  0  0  0  0  0  0  0  0  0
  147.5284  136.1684  161.5284 C   0  0  0  0  0  0  0  0  0  0  0  0
  148.1914  135.5407  160.5124 C   0  0  0  0  0  0  0  0  0  0  0  0
  148.1271  136.4840  159.4505 C   0  0  0  0  0  0  0  0  0  0  0  0
  148.6494  136.3295  158.2241 N   0  5  0  0  0  0  0  0  0  0  0  0
  149.9602  136.5859  158.0067 C   0  0  0  0  0  0  0  0  0  0  0  0
  150.8668  136.5181  158.8401 O   0  0  0  0  0  0  0  0  0  0  0  0
  150.2411  136.9427  156.7467 N   0  0  0  0  0  0  0  0  0  0  0  0
  151.5714  137.2704  156.2415 C   0  0  0  0  0  0  0  0  0  0  0  0
  151.7657  138.7989  156.0276 C   0  0  0  0  0  0  0  0  0  0  0  0
  152.0888  139.4149  157.4104 C   0  0  0  0  0  0  0  0  0  0  0  0
  153.0303  138.9569  155.1453 C   0  0  0  0  0  0  0  0  0  0  0  0
  150.5791  139.4213  155.3758 N   0  0  0  0  0  0  0  0  0  0  0  0
  150.2611  138.8994  154.0418 C   0  0  0  0  0  0  0  0  0  0  0  0
  148.9589  139.4967  153.4821 C   0  0  0  0  0  0  0  0  0  0  0  0
  149.0543  140.9157  153.4547 O   0  0  0  0  0  0  0  0  0  0  0  0
  149.2995  141.4656  154.7433 C   0  0  0  0  0  0  0  0  0  0  0  0
  150.6057  140.8873  155.3134 C   0  0  0  0  0  0  0  0  0  0  0  0
  147.4984  137.5945  159.7984 N   0  0  0  0  0  0  0  0  0  0  0  0
  147.1046  137.3972  161.1272 O   0  0  0  0  0  0  0  0  0  0  0  0
  148.1133  135.5252  163.4782 H   0  0  0  0  0  0  0  0  0  0  0  0
  146.5614  134.8852  162.9332 H   0  0  0  0  0  0  0  0  0  0  0  0
  146.6881  136.5651  163.4575 H   0  0  0  0  0  0  0  0  0  0  0  0
  148.6446  134.5608  160.5231 H   0  0  0  0  0  0  0  0  0  0  0  0
  149.4763  136.9925  156.0896 H   0  0  0  0  0  0  0  0  0  0  0  0
  152.3249  136.8680  156.9194 H   0  0  0  0  0  0  0  0  0  0  0  0
  151.7205  136.7382  155.3003 H   0  0  0  0  0  0  0  0  0  0  0  0
  152.9629  138.9379  157.8555 H   0  0  0  0  0  0  0  0  0  0  0  0
  151.2694  139.2895  158.1177 H   0  0  0  0  0  0  0  0  0  0  0  0
  152.3127  140.4795  157.3466 H   0  0  0  0  0  0  0  0  0  0  0  0
  153.8606  138.3607  155.5257 H   0  0  0  0  0  0  0  0  0  0  0  0
  153.3866  139.9862  155.1124 H   0  0  0  0  0  0  0  0  0  0  0  0
  152.8468  138.6386  154.1182 H   0  0  0  0  0  0  0  0  0  0  0  0
  151.0728  139.1173  153.3479 H   0  0  0  0  0  0  0  0  0  0  0  0
  150.1451  137.8173  154.0652 H   0  0  0  0  0  0  0  0  0  0  0  0
  148.7796  139.1322  152.4705 H   0  0  0  0  0  0  0  0  0  0  0  0
  148.1037  139.1934  154.0880 H   0  0  0  0  0  0  0  0  0  0  0  0
  149.3700  142.5503  154.6604 H   0  0  0  0  0  0  0  0  0  0  0  0
  148.4601  141.2491  155.4060 H   0  0  0  0  0  0  0  0  0  0  0  0
  150.7507  141.3164  156.3030 H   0  0  0  0  0  0  0  0  0  0  0  0
  151.4385  141.2238  154.6960 H   0  0  0  0  0  0  0  0  0  0  0  0
  1  2  1  0  0  0  0
  1 21  1  0  0  0  0
  1 22  1  0  0  0  0
  1 23  1  0  0  0  0
  2 20  1  0  0  0  0
  2  3  2  0  0  0  0
  3  4  1  0  0  0  0
  3 24  1  0  0  0  0
  4  5  1  0  0  0  0
  4 19  2  0  0  0  0
  5  6  1  0  0  0  0
  6  7  2  0  0  0  0
  6  8  1  0  0  0  0
  8  9  1  0  0  0  0
  8 25  1  0  0  0  0
  9 10  1  0  0  0  0
  9 26  1  0  0  0  0
  9 27  1  0  0  0  0
 10 11  1  0  0  0  0
 10 12  1  0  0  0  0
 10 13  1  0  0  0  0
 11 28  1  0  0  0  0
 11 29  1  0  0  0  0
 11 30  1  0  0  0  0
 12 31  1  0  0  0  0
 12 32  1  0  0  0  0
 12 33  1  0  0  0  0
 13 18  1  0  0  0  0
 13 14  1  0  0  0  0
 14 15  1  0  0  0  0
 14 34  1  0  0  0  0
 14 35  1  0  0  0  0
 15 16  1  0  0  0  0
 15 36  1  0  0  0  0
 15 37  1  0  0  0  0
 16 17  1  0  0  0  0
 17 18  1  0  0  0  0
 17 38  1  0  0  0  0
 17 39  1  0  0  0  0
 18 40  1  0  0  0  0
 18 41  1  0  0  0  0
 19 20  1  0  0  0  0
M  CHG  1   5  -1
M  END
> <s_m_source_file>
AV-unprocessed.smi

> <i_m_source_file_index>
370

> <i_lp_mmshare_version>
43012

> <i_f3d_flags>
0

> <s_epik_input>
W0NIM11jMVtjSF1jKG5vMSlbTkhdQyg9TylbTkhdW0NIMl1DKFtDSDNdKShbQ0gzXSlOMltDSDJdW0NIMl1PW0NIMl1bQ0gyXTI=

> <s_epik_cmdline>
J2VwaWtfcHl0aG9uJywgJy1waCcsICc3LjAnLCAnLXRuJywgJzgnLCAnLW1hJywgJzIwMCcsICctbWV0YWxfYmluZGluZycsICctaW1hZScsICc8aW5maWxlLm1hZT4nLCAnLW9tYWUnLCAnPG91dGZpbGUubWFlPic=

> <r_epik_Ionization_Penalty>
6.88367

> <r_epik_Ionization_Penalty_Charging>
6.57198

> <r_epik_Ionization_Penalty_Neutral>
0.311685

> <r_epik_State_Penalty>
6.77619

> <r_epik_Charging_Adjusted_Penalty>
13.3482

> <i_epik_Tot_Q>
-1

> <i_epik_Tot_abs_Q>
1

> <r_epik_Metal_State_Penalty>
2.70533

> <b_epik_Metal_Only>
1

> <s_lp_Force_Field>
OPLS_2005

> <r_lp_Energy>
34.5841

> <b_lp_Chiralities_Consistent>
1

> <s_lp_Variant>
AV-unprocessed.smi:370-3

> <Gold.Version>
5.8.1

> <Gold.Id.Protein>
6NUR|6NUR_protein|mol2

> <Gold.PLP.Fitness>
37.0876

> <Gold.PLP.PLP>
-33.6821

> <Gold.PLP.part.hbond>
-6.5920

> <Gold.PLP.part.metal>
0.0000

> <Gold.PLP.part.buried>
1.1568

> <Gold.PLP.part.nonpolar>
-28.6265

> <Gold.PLP.part.repulsive>
0.2345

> <Gold.PLP.ligand.clash>
0.0000

> <Gold.PLP.ligand.torsion>
1.2714

> <Gold.PLP.Chemscore.Hbond>
1.9520

> <Gold.PLP.Chemscore.CHOScore>
0.0000

> <Gold.PLP.Chemscore.Metal>
0.0000

> <Gold.Chemscore.Hbonds>
donor molecule, donor type, donor heavy atom, donor atom, acceptor molecule, acceptor atom, score
      P1  H  6896  6907       L1     7  0.80
      P1  H  6931  6943       L1    20  0.09
      P1  H  8011  8017       L1    16  0.95

> <Gold.PLP.Chemscore.Internal.Correction>
0.0922

> <Gold.Rescore>
     Score         DG    S(hbond)    S(metal)    S(lipo)     H(rot)  DE(clash)    DE(int)     intcor
     13.52     -15.28       1.35        0.00      78.60       1.53       0.46       1.30       ----

> <Gold.Chemscore.Fitness>
13.5160

> <Gold.Chemscore.DG>
-15.2761

> <Gold.Chemscore.ZeroCoef>
-5.4800

> <Gold.Chemscore.Hbond>
1.3501

> <Gold.Chemscore.Metal>
0.0000

> <Gold.Chemscore.Lipo>
78.5972

> <Gold.Chemscore.Internal_Hbond>
0.0000

> <Gold.Chemscore.DEClash>
0.4604

> <Gold.Chemscore.DEInternal>
1.2997

> <Gold.Chemscore.Rot>
1.5269

> <Gold.Chemscore.Internal.Correction>
   9.000000E+99

> <Gold.Chemscore.Hbonds>
donor molecule, donor type, donor heavy atom, donor atom, acceptor molecule, acceptor atom, score
      P1  H  6896  6907       L1     7  0.65
      P1  H  8011  8017       L1    16  0.20

> <Gold.Chemscore.Hbond.Weighted>
-4.5092

> <Gold.Chemscore.Metal.Weighted>
-0.0000

> <Gold.Chemscore.Lipo.Weighted>
-9.1959

> <Gold.Chemscore.Internal_Hbond.Weighted>
0.0000

> <Gold.Chemscore.DEClash.Weighted>
0.4604

> <Gold.Chemscore.DEInternal.Weighted>
1.2997

> <Gold.Chemscore.Rot.Weighted>
3.9090

> <Gold.Chemscore.Internal.Correction.Weighted>
   9.000000E+99

> <Gold.Protein.RotatedTorsions>
[ 6907 6896 6895 6894 ] final  -47.51 input  -60.11 | X-H torsion
[ 7974 7965 7964 7962 ] final  -86.18 input  175.53 | X-H torsion
[ 8008 7997 7996 7995 ] final   28.33 input   59.86 | X-H torsion
[ 10167 10162 10161 10158 ] final  -34.36 input  -65.29 | X-H torsion
[ 10718 10713 10712 10709 ] final -126.42 input   66.30 | X-H torsion
[ 10763 10752 10751 10750 ] final -101.32 input  -60.55 | X-H torsion
[ 11005 11000 10999 10996 ] final -136.84 input  -57.11 | X-H torsion

> <Gold.Protein.ActiveResidues>
 VAL166  LYS551  ARG553  GLY616  TRP617  ASP618  TYR619  PRO620  LYS621  CYS622 
 ASP623  PHE694  ASN695  SER759  ASP760  ASP761  ALA762  ILE779  LEU786  VAL792 
 PHE793  MET794  SER795  GLU796  ALA797  LYS798  CYS799  TRP800  GLU811  SER814 

> <Gold.Protein.RotatedAtoms>
  150.9001  134.8412  159.7353 H   0  0  0  0  0  0  0  0  0  0  0  0  # atno 6907 bound_to 6896
  152.4887  134.4516  159.9586 H   0  0  0  0  0  0  0  0  0  0  0  0  # atno 6908 bound_to 6896
  151.4569  133.3564  159.2838 H   0  0  0  0  0  0  0  0  0  0  0  0  # atno 6909 bound_to 6896
  145.4833  140.9556  143.1852 H   0  0  0  0  0  0  0  0  0  0  0  0  # atno 7974 bound_to 7965
  155.0570  140.3186  155.4673 H   0  0  0  0  0  0  0  0  0  0  0  0  # atno 8008 bound_to 7997
  156.2822  140.2136  156.5641 H   0  0  0  0  0  0  0  0  0  0  0  0  # atno 8009 bound_to 7997
  154.7163  140.0493  157.0585 H   0  0  0  0  0  0  0  0  0  0  0  0  # atno 8010 bound_to 7997
  140.7187  143.3553  151.2071 H   0  0  0  0  0  0  0  0  0  0  0  0  # atno 10167 bound_to 10162
  156.1764  130.6702  151.0247 H   0  0  0  0  0  0  0  0  0  0  0  0  # atno 10718 bound_to 10713
  154.7648  135.4902  153.9534 H   0  0  0  0  0  0  0  0  0  0  0  0  # atno 10763 bound_to 10752
  153.1295  135.6749  153.9210 H   0  0  0  0  0  0  0  0  0  0  0  0  # atno 10764 bound_to 10752
  153.8917  135.3120  155.3426 H   0  0  0  0  0  0  0  0  0  0  0  0  # atno 10765 bound_to 10752
  140.8768  134.1982  157.4617 H   0  0  0  0  0  0  0  0  0  0  0  0  # atno 11005 bound_to 11000
  144.7876  139.6394  143.7127 LP  0  0  0  0  0  0  0  0  0  0  0  0  # atno 17320 bound_to 7965
  146.2328  139.5846  142.9544 LP  0  0  0  0  0  0  0  0  0  0  0  0  # atno 17321 bound_to 7965
  139.7093  143.9402  152.2940 LP  0  0  0  0  0  0  0  0  0  0  0  0  # atno 17342 bound_to 10162
  139.9122  144.6849  150.8550 LP  0  0  0  0  0  0  0  0  0  0  0  0  # atno 17343 bound_to 10162
  157.6838  131.0830  150.7297 LP  0  0  0  0  0  0  0  0  0  0  0  0  # atno 17370 bound_to 10713
  156.7355  130.4723  149.5489 LP  0  0  0  0  0  0  0  0  0  0  0  0  # atno 17371 bound_to 10713
  139.8716  134.9799  156.5055 LP  0  0  0  0  0  0  0  0  0  0  0  0  # atno 17394 bound_to 11000
  140.8509  133.8133  155.9167 LP  0  0  0  0  0  0  0  0  0  0  0  0  # atno 17395 bound_to 11000

$$$$
