AV-unprocessed.smi:1670|AV-procd|sdf|6694|dock6
  -GOLD-   22720 7423D 1   1.00000     0.00000
 Structure written by MMmdl.
 41 42  0  0  0  0  0  0  0  0  1 V2000
  150.1804  132.7619  155.0457 C   0  0  0  0  0  0  0  0  0  0  0  0
  149.7246  134.2263  154.9929 C   0  0  1  0  0  0  0  0  0  0  0  0
  150.9307  135.1890  154.9410 C   0  0  0  0  0  0  0  0  0  0  0  0
  150.5384  136.5842  155.0397 N   0  0  0  0  0  0  0  0  0  0  0  0
  150.8797  137.6294  154.2075 C   0  0  0  0  0  0  0  0  0  0  0  0
  150.2931  138.7560  154.7086 C   0  0  0  0  0  0  0  0  0  0  0  0
  149.6031  138.2925  155.8637 C   0  0  0  0  0  0  0  0  0  0  0  0
  149.7469  136.9914  156.0563 N   0  0  0  0  0  0  0  0  0  0  0  0
  148.8575  134.4133  153.8300 N   0  0  0  0  0  0  0  0  0  0  0  0
  147.7770  133.6749  153.5369 C   0  0  0  0  0  0  0  0  0  0  0  0
  147.4040  132.7075  154.2007 O   0  0  0  0  0  0  0  0  0  0  0  0
  147.1445  134.1379  152.4475 N   0  0  0  0  0  0  0  0  0  0  0  0
  145.8997  133.6355  151.8639 C   0  0  2  0  0  0  0  0  0  0  0  0
  146.0616  132.2301  151.2444 C   0  0  0  0  0  0  0  0  0  0  0  0
  144.7169  131.7056  150.7151 C   0  0  0  0  0  0  0  0  0  0  0  0
  144.0934  132.6929  149.7119 C   0  0  1  0  0  0  0  0  0  0  0  0
  142.8324  132.2101  149.2993 O   0  0  0  0  0  0  0  0  0  0  0  0
  143.9287  134.0923  150.3326 C   0  0  0  0  0  0  0  0  0  0  0  0
  145.2709  134.6252  150.8595 C   0  0  0  0  0  0  0  0  0  0  0  0
  150.8057  132.5781  155.9198 H   0  0  0  0  0  0  0  0  0  0  0  0
  150.7578  132.4920  154.1607 H   0  0  0  0  0  0  0  0  0  0  0  0
  149.3265  132.0862  155.1060 H   0  0  0  0  0  0  0  0  0  0  0  0
  149.1621  134.4203  155.9080 H   0  0  0  0  0  0  0  0  0  0  0  0
  151.6108  134.9787  155.7670 H   0  0  0  0  0  0  0  0  0  0  0  0
  151.5033  135.0397  154.0238 H   0  0  0  0  0  0  0  0  0  0  0  0
  151.5101  137.4863  153.3423 H   0  0  0  0  0  0  0  0  0  0  0  0
  150.3512  139.7586  154.3122 H   0  0  0  0  0  0  0  0  0  0  0  0
  149.0050  138.8586  156.5625 H   0  0  0  0  0  0  0  0  0  0  0  0
  149.0773  135.1895  153.2233 H   0  0  0  0  0  0  0  0  0  0  0  0
  147.5513  134.9395  151.9884 H   0  0  0  0  0  0  0  0  0  0  0  0
  145.2109  133.5431  152.7047 H   0  0  0  0  0  0  0  0  0  0  0  0
  146.7803  132.2523  150.4246 H   0  0  0  0  0  0  0  0  0  0  0  0
  146.4608  131.5367  151.9857 H   0  0  0  0  0  0  0  0  0  0  0  0
  144.8604  130.7324  150.2442 H   0  0  0  0  0  0  0  0  0  0  0  0
  144.0358  131.5475  151.5527 H   0  0  0  0  0  0  0  0  0  0  0  0
  144.7309  132.7622  148.8294 H   0  0  0  0  0  0  0  0  0  0  0  0
  142.1895  132.8870  149.4455 H   0  0  0  0  0  0  0  0  0  0  0  0
  143.5215  134.7849  149.5950 H   0  0  0  0  0  0  0  0  0  0  0  0
  143.2089  134.0529  151.1517 H   0  0  0  0  0  0  0  0  0  0  0  0
  145.1204  135.5960  151.3333 H   0  0  0  0  0  0  0  0  0  0  0  0
  145.9403  134.7931  150.0156 H   0  0  0  0  0  0  0  0  0  0  0  0
  1  2  1  0  0  0  0
  1 20  1  0  0  0  0
  1 21  1  0  0  0  0
  1 22  1  0  0  0  0
  2  3  1  0  0  0  0
  2  9  1  0  0  0  0
  2 23  1  0  0  0  0
  3  4  1  0  0  0  0
  3 24  1  0  0  0  0
  3 25  1  0  0  0  0
  4  8  1  0  0  0  0
  4  5  1  0  0  0  0
  5  6  2  0  0  0  0
  5 26  1  0  0  0  0
  6  7  1  0  0  0  0
  6 27  1  0  0  0  0
  7  8  2  0  0  0  0
  7 28  1  0  0  0  0
  9 10  1  0  0  0  0
  9 29  1  0  0  0  0
 10 11  2  0  0  0  0
 10 12  1  0  0  0  0
 12 13  1  0  0  0  0
 12 30  1  0  0  0  0
 13 19  1  0  0  0  0
 13 14  1  0  0  0  0
 13 31  1  0  0  0  0
 14 15  1  0  0  0  0
 14 32  1  0  0  0  0
 14 33  1  0  0  0  0
 15 16  1  0  0  0  0
 15 34  1  0  0  0  0
 15 35  1  0  0  0  0
 16 17  1  0  0  0  0
 16 18  1  0  0  0  0
 16 36  1  0  0  0  0
 17 37  1  0  0  0  0
 18 19  1  0  0  0  0
 18 38  1  0  0  0  0
 18 39  1  0  0  0  0
 19 40  1  0  0  0  0
 19 41  1  0  0  0  0
M  END
> <s_m_source_file>
AV-unprocessed.smi

> <i_m_source_file_index>
1670

> <i_lp_mmshare_version>
43012

> <i_f3d_flags>
0

> <s_epik_input>
bjFbY0hdW2NIXVtjSF1uMVtDSDJdW0NAQEhdKFtDSDNdKVtOSF1DKD1PKVtOSF1bQ0BASF0yW0NIMl1bQ0gyXVtDQEBIXShbT0hdKVtDSDJdW0NIMl0y

> <s_epik_cmdline>
J2VwaWtfcHl0aG9uJywgJy1waCcsICc3LjAnLCAnLXRuJywgJzgnLCAnLW1hJywgJzIwMCcsICctbWV0YWxfYmluZGluZycsICctaW1hZScsICc8aW5maWxlLm1hZT4nLCAnLW9tYWUnLCAnPG91dGZpbGUubWFlPic=

> <r_lp_tautomer_probability>
1

> <r_epik_Ionization_Penalty>
7.33369e-05

> <r_epik_Ionization_Penalty_Charging>
0

> <r_epik_Ionization_Penalty_Neutral>
7.33369e-05

> <r_epik_State_Penalty>
-0

> <r_epik_Charging_Adjusted_Penalty>
0

> <i_epik_Tot_Q>
0

> <i_epik_Tot_abs_Q>
0

> <r_epik_Metal_State_Penalty>
-0

> <b_epik_Metal_Only>
0

> <s_lp_Force_Field>
OPLS_2005

> <r_lp_Energy>
5.2693

> <b_lp_Chiralities_Consistent>
1

> <s_lp_Variant>
AV-unprocessed.smi:1670-2

> <Gold.Version>
5.8.1

> <Gold.Id.Protein>
6NUR|6NUR_protein|mol2

> <Gold.PLP.Fitness>
48.7056

> <Gold.PLP.PLP>
-34.4949

> <Gold.PLP.part.hbond>
-5.0000

> <Gold.PLP.part.metal>
0.0000

> <Gold.PLP.part.buried>
-3.4207

> <Gold.PLP.part.nonpolar>
-26.8950

> <Gold.PLP.part.repulsive>
0.0824

> <Gold.PLP.ligand.clash>
0.0000

> <Gold.PLP.ligand.torsion>
0.2476

> <Gold.PLP.Chemscore.Hbond>
3.8850

> <Gold.PLP.Chemscore.CHOScore>
1.0000

> <Gold.PLP.Chemscore.Metal>
0.0000

> <Gold.Chemscore.Hbonds>
donor molecule, donor type, donor heavy atom, donor atom, acceptor molecule, acceptor atom, score
      L1  H     9    29       P1  7948  1.00
      L1  H    12    30       P1  7948  1.00
      L1  H    17    37       P1 10186  1.00
      P1  H 10785 10796       L1    17  0.65
      L1  C     5    26       P1  7949  0.97

> <Gold.PLP.Chemscore.Internal.Correction>
0.0510

> <Gold.Rescore>
     Score         DG    S(hbond)    S(metal)    S(lipo)     H(rot)  DE(clash)    DE(int)     intcor
     17.74     -19.31       3.12        0.00      77.75       2.22       0.07       1.50       ----

> <Gold.Chemscore.Fitness>
17.7432

> <Gold.Chemscore.DG>
-19.3082

> <Gold.Chemscore.ZeroCoef>
-5.4800

> <Gold.Chemscore.Hbond>
3.1200

> <Gold.Chemscore.Metal>
0.0000

> <Gold.Chemscore.Lipo>
77.7491

> <Gold.Chemscore.Internal_Hbond>
0.0000

> <Gold.Chemscore.DEClash>
0.0665

> <Gold.Chemscore.DEInternal>
1.4985

> <Gold.Chemscore.Rot>
2.2224

> <Gold.Chemscore.Internal.Correction>
   9.000000E+99

> <Gold.Chemscore.Hbonds>
donor molecule, donor type, donor heavy atom, donor atom, acceptor molecule, acceptor atom, score
      L1  H     9    29       P1  7948  0.25
      L1  H    12    30       P1  7948  0.81
      L1  H    17    37       P1 10186  0.99
      P1  H 10785 10796       L1    17  0.32

> <Gold.Chemscore.Hbond.Weighted>
-10.4209

> <Gold.Chemscore.Metal.Weighted>
-0.0000

> <Gold.Chemscore.Lipo.Weighted>
-9.0966

> <Gold.Chemscore.Internal_Hbond.Weighted>
0.0000

> <Gold.Chemscore.DEClash.Weighted>
0.0665

> <Gold.Chemscore.DEInternal.Weighted>
1.4985

> <Gold.Chemscore.Rot.Weighted>
5.6893

> <Gold.Chemscore.Internal.Correction.Weighted>
   9.000000E+99

> <Gold.Protein.RotatedTorsions>
[ 6907 6896 6895 6894 ] final    2.19 input  -60.11 | X-H torsion
[ 7974 7965 7964 7962 ] final   52.29 input  175.53 | X-H torsion
[ 8008 7997 7996 7995 ] final -128.84 input   59.86 | X-H torsion
[ 10167 10162 10161 10158 ] final   12.58 input  -65.29 | X-H torsion
[ 10718 10713 10712 10709 ] final  -48.29 input   66.30 | X-H torsion
[ 10763 10752 10751 10750 ] final   79.10 input  -60.55 | X-H torsion
[ 11005 11000 10999 10996 ] final  114.90 input  -57.11 | X-H torsion

> <Gold.Protein.ActiveResidues>
 VAL166  LYS551  ARG553  GLY616  TRP617  ASP618  TYR619  PRO620  LYS621  CYS622 
 ASP623  PHE694  ASN695  SER759  ASP760  ASP761  ALA762  ILE779  LEU786  VAL792 
 PHE793  MET794  SER795  GLU796  ALA797  LYS798  CYS799  TRP800  GLU811  SER814 

> <Gold.Protein.RotatedAtoms>
  151.6049  135.1044  160.0068 H   0  0  0  0  0  0  0  0  0  0  0  0  # atno 6907 bound_to 6896
  152.4239  133.7157  159.6515 H   0  0  0  0  0  0  0  0  0  0  0  0  # atno 6908 bound_to 6896
  150.8127  133.8320  159.3197 H   0  0  0  0  0  0  0  0  0  0  0  0  # atno 6909 bound_to 6896
  145.9828  139.4259  143.0121 H   0  0  0  0  0  0  0  0  0  0  0  0  # atno 7974 bound_to 7965
  155.2693  140.0439  157.3005 H   0  0  0  0  0  0  0  0  0  0  0  0  # atno 8008 bound_to 7997
  154.5663  140.2361  155.8228 H   0  0  0  0  0  0  0  0  0  0  0  0  # atno 8009 bound_to 7997
  156.2087  140.3005  155.9692 H   0  0  0  0  0  0  0  0  0  0  0  0  # atno 8010 bound_to 7997
  140.6059  143.8509  150.7013 H   0  0  0  0  0  0  0  0  0  0  0  0  # atno 10167 bound_to 10162
  156.2002  130.4156  149.9251 H   0  0  0  0  0  0  0  0  0  0  0  0  # atno 10718 bound_to 10713
  153.0926  135.4852  154.8719 H   0  0  0  0  0  0  0  0  0  0  0  0  # atno 10763 bound_to 10752
  154.7287  135.3055  154.8930 H   0  0  0  0  0  0  0  0  0  0  0  0  # atno 10764 bound_to 10752
  153.9572  135.6816  153.4798 H   0  0  0  0  0  0  0  0  0  0  0  0  # atno 10765 bound_to 10752
  139.8994  134.9575  156.6963 H   0  0  0  0  0  0  0  0  0  0  0  0  # atno 11005 bound_to 11000
  145.7744  140.9883  143.1132 LP  0  0  0  0  0  0  0  0  0  0  0  0  # atno 17320 bound_to 7965
  144.6866  139.9487  143.7477 LP  0  0  0  0  0  0  0  0  0  0  0  0  # atno 17321 bound_to 7965
  140.2066  143.3916  152.1750 LP  0  0  0  0  0  0  0  0  0  0  0  0  # atno 17342 bound_to 10162
  139.5324  144.7174  151.5009 LP  0  0  0  0  0  0  0  0  0  0  0  0  # atno 17343 bound_to 10162
  156.6963  130.8915  151.3594 LP  0  0  0  0  0  0  0  0  0  0  0  0  # atno 17370 bound_to 10713
  157.6981  130.9304  150.0704 LP  0  0  0  0  0  0  0  0  0  0  0  0  # atno 17371 bound_to 10713
  140.7185  133.9161  155.8131 LP  0  0  0  0  0  0  0  0  0  0  0  0  # atno 17394 bound_to 11000
  141.0245  134.0842  157.4083 LP  0  0  0  0  0  0  0  0  0  0  0  0  # atno 17395 bound_to 11000

$$$$
