AV-unprocessed.smi:1576|AV-procd|sdf|6348|dock8
  -GOLD-   22720 6563D 1   1.00000     0.00000
 Structure written by MMmdl.
 45 47  0  0  0  0  0  0  0  0  3 V2000
  153.1895  136.4809  159.8411 O   0  0  0  0  0  0  0  0  0  0  0  0
  154.2377  136.6195  160.4815 C   0  0  0  0  0  0  0  0  0  0  0  0
  154.6229  137.8382  160.9003 N   0  0  0  0  0  0  0  0  0  0  0  0
  154.0135  139.0998  160.6661 C   0  0  0  0  0  0  0  0  0  0  0  0
  154.4618  140.1998  161.4278 C   0  0  0  0  0  0  0  0  0  0  0  0
  153.9003  141.4748  161.2120 C   0  0  0  0  0  0  0  0  0  0  0  0
  152.9020  141.6326  160.2238 C   0  0  0  0  0  0  0  0  0  0  0  0
  152.2880  142.8588  159.9377 N   0  0  0  0  0  0  0  0  0  0  0  0
  152.4280  143.8303  161.0194 C   0  0  0  0  0  0  0  0  0  0  0  0
  151.5817  145.0853  160.7416 C   0  0  0  0  0  0  0  0  0  0  0  0
  151.9200  145.6833  159.3664 C   0  0  0  0  0  0  0  0  0  0  0  0
  151.7848  144.6111  158.2732 C   0  0  0  0  0  0  0  0  0  0  0  0
  152.6294  143.3712  158.6134 C   0  0  0  0  0  0  0  0  0  0  0  0
  152.5108  140.5593  159.5032 N   0  3  0  0  0  0  0  0  0  0  0  0
  153.0224  139.3217  159.6796 C   0  0  0  0  0  0  0  0  0  0  0  0
  155.1056  135.6479  160.8721 N   0  5  0  0  0  0  0  0  0  0  0  0
  155.2134  135.1185  162.2347 C   0  0  1  0  0  0  0  0  0  0  0  0
  154.0974  135.6880  163.1329 C   0  0  0  0  0  0  0  0  0  0  0  0
  154.0305  134.8550  164.4206 C   0  0  0  0  0  0  0  0  0  0  0  0
  154.5000  133.1494  163.9343 S   0  0  0  0  0  0  0  0  0  0  0  0
  155.6365  132.7119  164.7602 O   0  0  0  0  0  0  0  0  0  0  0  0
  153.2896  132.3208  163.8206 O   0  0  0  0  0  0  0  0  0  0  0  0
  155.0875  133.5866  162.2505 C   0  0  0  0  0  0  0  0  0  0  0  0
  155.4325  137.8488  161.5032 H   0  0  0  0  0  0  0  0  0  0  0  0
  155.2279  140.0689  162.1782 H   0  0  0  0  0  0  0  0  0  0  0  0
  154.2363  142.3172  161.7983 H   0  0  0  0  0  0  0  0  0  0  0  0
  152.1202  143.3779  161.9632 H   0  0  0  0  0  0  0  0  0  0  0  0
  153.4772  144.1098  161.1258 H   0  0  0  0  0  0  0  0  0  0  0  0
  150.5224  144.8269  160.7765 H   0  0  0  0  0  0  0  0  0  0  0  0
  151.7449  145.8272  161.5236 H   0  0  0  0  0  0  0  0  0  0  0  0
  151.2654  146.5280  159.1502 H   0  0  0  0  0  0  0  0  0  0  0  0
  152.9392  146.0715  159.3757 H   0  0  0  0  0  0  0  0  0  0  0  0
  150.7375  144.3230  158.1722 H   0  0  0  0  0  0  0  0  0  0  0  0
  152.0884  145.0180  157.3084 H   0  0  0  0  0  0  0  0  0  0  0  0
  153.6893  143.6273  158.5820 H   0  0  0  0  0  0  0  0  0  0  0  0
  152.4656  142.5946  157.8649 H   0  0  0  0  0  0  0  0  0  0  0  0
  152.6284  138.5660  159.0165 H   0  0  0  0  0  0  0  0  0  0  0  0
  156.1650  135.3816  162.6996 H   0  0  0  0  0  0  0  0  0  0  0  0
  154.2531  136.7450  163.3512 H   0  0  0  0  0  0  0  0  0  0  0  0
  153.1390  135.6080  162.6174 H   0  0  0  0  0  0  0  0  0  0  0  0
  154.7508  135.2092  165.1596 H   0  0  0  0  0  0  0  0  0  0  0  0
  153.0396  134.8580  164.8741 H   0  0  0  0  0  0  0  0  0  0  0  0
  154.3375  133.2410  161.5382 H   0  0  0  0  0  0  0  0  0  0  0  0
  156.0300  133.0825  162.0367 H   0  0  0  0  0  0  0  0  0  0  0  0
  151.7966  140.6891  158.7866 H   0  0  0  0  0  0  0  0  0  0  0  0
  1  2  2  0  0  0  0
  2  3  1  0  0  0  0
  2 16  1  0  0  0  0
  3  4  1  0  0  0  0
  3 24  1  0  0  0  0
  4 15  1  0  0  0  0
  4  5  2  0  0  0  0
  5  6  1  0  0  0  0
  5 25  1  0  0  0  0
  6  7  2  0  0  0  0
  6 26  1  0  0  0  0
  7  8  1  0  0  0  0
  7 14  1  0  0  0  0
  8 13  1  0  0  0  0
  8  9  1  0  0  0  0
  9 10  1  0  0  0  0
  9 27  1  0  0  0  0
  9 28  1  0  0  0  0
 10 11  1  0  0  0  0
 10 29  1  0  0  0  0
 10 30  1  0  0  0  0
 11 12  1  0  0  0  0
 11 31  1  0  0  0  0
 11 32  1  0  0  0  0
 12 13  1  0  0  0  0
 12 33  1  0  0  0  0
 12 34  1  0  0  0  0
 13 35  1  0  0  0  0
 13 36  1  0  0  0  0
 14 15  2  0  0  0  0
 14 45  1  0  0  0  0
 15 37  1  0  0  0  0
 16 17  1  0  0  0  0
 17 23  1  0  0  0  0
 17 18  1  0  0  0  0
 17 38  1  0  0  0  0
 18 19  1  0  0  0  0
 18 39  1  0  0  0  0
 18 40  1  0  0  0  0
 19 20  1  0  0  0  0
 19 41  1  0  0  0  0
 19 42  1  0  0  0  0
 20 21  2  0  0  0  0
 20 22  2  0  0  0  0
 20 23  1  0  0  0  0
 23 43  1  0  0  0  0
 23 44  1  0  0  0  0
M  CHG  1  14   1
M  CHG  1  16  -1
M  END
> <s_m_source_file>
AV-unprocessed.smi

> <i_m_source_file_index>
1576

> <i_lp_mmshare_version>
43012

> <i_f3d_flags>
0

> <s_epik_input>
Tz1TMSg9TylbQ0gyXVtDSDJdW0NASF0oW0NIMl0xKVtOSF1DKD1PKVtOSF1jMltjSF1bY0hdYyhuW2NIXTIpTjNbQ0gyXVtDSDJdW0NIMl1bQ0gyXVtDSDJdMw==

> <s_epik_cmdline>
J2VwaWtfcHl0aG9uJywgJy1waCcsICc3LjAnLCAnLXRuJywgJzgnLCAnLW1hJywgJzIwMCcsICctbWV0YWxfYmluZGluZycsICctaW1hZScsICc8aW5maWxlLm1hZT4nLCAnLW9tYWUnLCAnPG91dGZpbGUubWFlPic=

> <r_lp_tautomer_probability>
0.999994

> <r_epik_Ionization_Penalty>
8.26491

> <r_epik_Ionization_Penalty_Charging>
8.26491

> <r_epik_Ionization_Penalty_Neutral>
3.15169e-06

> <r_epik_State_Penalty>
7.8977

> <r_epik_Charging_Adjusted_Penalty>
16.1626

> <i_epik_Tot_Q>
0

> <i_epik_Tot_abs_Q>
2

> <r_epik_Metal_State_Penalty>
3.88896

> <b_epik_Metal_Only>
1

> <s_lp_Force_Field>
OPLS_2005

> <r_lp_Energy>
27.2537

> <b_lp_Chiralities_Consistent>
1

> <s_lp_Variant>
AV-unprocessed.smi:1576-6

> <Gold.Version>
5.8.1

> <Gold.Id.Protein>
6NUR|6NUR_protein|mol2

> <Gold.PLP.Fitness>
45.3123

> <Gold.PLP.PLP>
-44.3876

> <Gold.PLP.part.hbond>
-1.0000

> <Gold.PLP.part.metal>
0.0000

> <Gold.PLP.part.buried>
-4.1336

> <Gold.PLP.part.nonpolar>
-39.5880

> <Gold.PLP.part.repulsive>
0.1750

> <Gold.PLP.ligand.clash>
0.0000

> <Gold.PLP.ligand.torsion>
1.1119

> <Gold.PLP.Chemscore.Hbond>
1.0000

> <Gold.PLP.Chemscore.CHOScore>
0.0000

> <Gold.PLP.Chemscore.Metal>
0.0000

> <Gold.Chemscore.Hbonds>
donor molecule, donor type, donor heavy atom, donor atom, acceptor molecule, acceptor atom, score
      P1  H  6896  6909       L1     1  1.00

> <Gold.PLP.Chemscore.Internal.Correction>
0.1484

> <Gold.Rescore>
     Score         DG    S(hbond)    S(metal)    S(lipo)     H(rot)  DE(clash)    DE(int)     intcor
     17.17     -19.42       1.00        0.00     117.72       1.24       0.00       2.24       ----

> <Gold.Chemscore.Fitness>
17.1715

> <Gold.Chemscore.DG>
-19.4166

> <Gold.Chemscore.ZeroCoef>
-5.4800

> <Gold.Chemscore.Hbond>
0.9966

> <Gold.Chemscore.Metal>
0.0000

> <Gold.Chemscore.Lipo>
117.7243

> <Gold.Chemscore.Internal_Hbond>
0.0000

> <Gold.Chemscore.DEClash>
0.0009

> <Gold.Chemscore.DEInternal>
2.2442

> <Gold.Chemscore.Rot>
1.2366

> <Gold.Chemscore.Internal.Correction>
   9.000000E+99

> <Gold.Chemscore.Hbonds>
donor molecule, donor type, donor heavy atom, donor atom, acceptor molecule, acceptor atom, score
      P1  H  6896  6909       L1     1  0.98

> <Gold.Chemscore.Hbond.Weighted>
-3.3286

> <Gold.Chemscore.Metal.Weighted>
-0.0000

> <Gold.Chemscore.Lipo.Weighted>
-13.7737

> <Gold.Chemscore.Internal_Hbond.Weighted>
0.0000

> <Gold.Chemscore.DEClash.Weighted>
0.0009

> <Gold.Chemscore.DEInternal.Weighted>
2.2442

> <Gold.Chemscore.Rot.Weighted>
3.1657

> <Gold.Chemscore.Internal.Correction.Weighted>
   9.000000E+99

> <Gold.Protein.RotatedTorsions>
[ 6907 6896 6895 6894 ] final  155.74 input  -60.11 | X-H torsion
[ 7974 7965 7964 7962 ] final   40.33 input  175.53 | X-H torsion
[ 8008 7997 7996 7995 ] final -139.68 input   59.86 | X-H torsion
[ 10167 10162 10161 10158 ] final  122.50 input  -65.29 | X-H torsion
[ 10718 10713 10712 10709 ] final   28.71 input   66.30 | X-H torsion
[ 10763 10752 10751 10750 ] final   65.77 input  -60.55 | X-H torsion
[ 11005 11000 10999 10996 ] final  135.56 input  -57.11 | X-H torsion

> <Gold.Protein.ActiveResidues>
 VAL166  LYS551  ARG553  GLY616  TRP617  ASP618  TYR619  PRO620  LYS621  CYS622 
 ASP623  PHE694  ASN695  SER759  ASP760  ASP761  ALA762  ILE779  LEU786  VAL792 
 PHE793  MET794  SER795  GLU796  ALA797  LYS798  CYS799  TRP800  GLU811  SER814 

> <Gold.Protein.RotatedAtoms>
  152.0397  133.3972  159.4331 H   0  0  0  0  0  0  0  0  0  0  0  0  # atno 6907 bound_to 6896
  150.6876  134.3428  159.4884 H   0  0  0  0  0  0  0  0  0  0  0  0  # atno 6908 bound_to 6896
  152.1225  134.9194  160.0613 H   0  0  0  0  0  0  0  0  0  0  0  0  # atno 6909 bound_to 6896
  146.0913  139.5546  142.9474 H   0  0  0  0  0  0  0  0  0  0  0  0  # atno 7974 bound_to 7965
  155.4488  140.0537  157.3003 H   0  0  0  0  0  0  0  0  0  0  0  0  # atno 8008 bound_to 7997
  154.4786  140.2071  155.9774 H   0  0  0  0  0  0  0  0  0  0  0  0  # atno 8009 bound_to 7997
  156.1171  140.3194  155.8159 H   0  0  0  0  0  0  0  0  0  0  0  0  # atno 8010 bound_to 7997
  139.5855  144.7004  151.3420 H   0  0  0  0  0  0  0  0  0  0  0  0  # atno 10167 bound_to 10162
  157.2370  130.7051  149.6340 H   0  0  0  0  0  0  0  0  0  0  0  0  # atno 10718 bound_to 10713
  153.0111  135.5344  154.6720 H   0  0  0  0  0  0  0  0  0  0  0  0  # atno 10763 bound_to 10752
  154.5902  135.2858  155.0645 H   0  0  0  0  0  0  0  0  0  0  0  0  # atno 10764 bound_to 10752
  154.1741  135.6527  153.5069 H   0  0  0  0  0  0  0  0  0  0  0  0  # atno 10765 bound_to 10752
  139.9988  134.9487  157.0025 H   0  0  0  0  0  0  0  0  0  0  0  0  # atno 11005 bound_to 11000
  145.6033  141.0352  143.2006 LP  0  0  0  0  0  0  0  0  0  0  0  0  # atno 17320 bound_to 7965
  144.7362  139.7578  143.7328 LP  0  0  0  0  0  0  0  0  0  0  0  0  # atno 17321 bound_to 7965
  140.7127  143.7347  150.7597 LP  0  0  0  0  0  0  0  0  0  0  0  0  # atno 17342 bound_to 10162
  140.0890  143.4895  152.2489 LP  0  0  0  0  0  0  0  0  0  0  0  0  # atno 17343 bound_to 10162
  155.9672  130.4470  150.5564 LP  0  0  0  0  0  0  0  0  0  0  0  0  # atno 17370 bound_to 10713
  157.3419  131.0718  151.1781 LP  0  0  0  0  0  0  0  0  0  0  0  0  # atno 17371 bound_to 10713
  140.4767  134.1331  155.7211 LP  0  0  0  0  0  0  0  0  0  0  0  0  # atno 17394 bound_to 11000
  141.1625  133.8765  157.1807 LP  0  0  0  0  0  0  0  0  0  0  0  0  # atno 17395 bound_to 11000

$$$$
