AV-unprocessed.smi:21|AV-procd|sdf|154|dock5
  -GOLD-   2262015383D 1   1.00000     0.00000
 Structure written by MMmdl.
 61 64  0  0  0  0  0  0  0  0  1 V2000
  147.9731  145.3342  161.0807 C   0  0  0  0  0  0  0  0  0  0  0  0
  148.1859  144.1064  160.4029 O   0  0  0  0  0  0  0  0  0  0  0  0
  149.1449  144.1980  159.3591 C   0  0  2  0  0  0  0  0  0  0  0  0
  149.2945  142.8893  158.5612 C   0  0  0  0  0  0  0  0  0  0  0  0
  150.7659  142.4848  158.7489 C   0  0  1  0  0  0  0  0  0  0  0  0
  151.3535  141.7151  157.5451 C   0  0  0  0  0  0  0  0  0  0  0  0
  150.7047  140.4240  157.3160 N   0  0  0  0  0  0  0  0  0  0  0  0
  151.3064  139.2388  157.9250 C   0  0  0  0  0  0  0  0  0  0  0  0
  149.8247  140.2605  156.2837 C   0  0  0  0  0  0  0  0  0  0  0  0
  150.1127  140.8518  155.0917 N   0  0  0  0  0  0  0  0  0  0  0  0
  149.2876  140.7395  154.0484 C   0  0  0  0  0  0  0  0  0  0  0  0
  148.1296  140.0859  153.9703 N   0  0  0  0  0  0  0  0  0  0  0  0
  147.8280  139.4797  155.1527 C   0  0  0  0  0  0  0  0  0  0  0  0
  148.6078  139.5106  156.3470 C   0  0  0  0  0  0  0  0  0  0  0  0
  147.9658  138.7611  157.3292 N   0  0  0  0  0  0  0  0  0  0  0  0
  146.8797  138.3230  156.7564 C   0  0  0  0  0  0  0  0  0  0  0  0
  146.7205  138.7036  155.4459 N   0  0  0  0  0  0  0  0  0  0  0  0
  145.6143  138.3544  154.5727 C   0  0  0  0  0  0  0  0  0  0  0  0
  146.0439  137.6186  153.2760 C   0  0  2  0  0  0  0  0  0  0  0  0
  146.6348  138.5832  152.2154 C   0  0  0  0  0  0  0  0  0  0  0  0
  147.4800  137.9100  151.3045 O   0  0  0  0  0  0  0  0  0  0  0  0
  144.8542  136.8139  152.6910 C   0  0  2  0  0  0  0  0  0  0  0  0
  144.1252  135.9263  153.6865 C   0  0  0  0  0  0  0  0  0  0  0  0
  143.3868  134.9591  152.7713 C   0  0  0  0  0  0  0  0  0  0  0  0
  144.2715  134.7368  151.6821 O   0  0  0  0  0  0  0  0  0  0  0  0
  145.2392  135.7814  151.6211 C   0  0  0  0  0  0  0  0  0  0  0  0
  151.4571  143.7232  159.0692 N   0  0  0  0  0  0  0  0  0  0  0  0
  152.7641  143.5240  159.6814 C   0  0  0  0  0  0  0  0  0  0  0  0
  150.5388  144.4116  159.9541 C   0  0  0  0  0  0  0  0  0  0  0  0
  148.9127  145.0263  158.6871 H   0  0  0  0  0  0  0  0  0  0  0  0
  150.8095  141.8424  159.6301 H   0  0  0  0  0  0  0  0  0  0  0  0
  147.2332  145.1923  161.8680 H   0  0  0  0  0  0  0  0  0  0  0  0
  147.6012  146.1078  160.4082 H   0  0  0  0  0  0  0  0  0  0  0  0
  148.8931  145.6900  161.5461 H   0  0  0  0  0  0  0  0  0  0  0  0
  148.6276  142.1004  158.9109 H   0  0  0  0  0  0  0  0  0  0  0  0
  149.0665  143.0745  157.5109 H   0  0  0  0  0  0  0  0  0  0  0  0
  151.2505  142.3287  156.6494 H   0  0  0  0  0  0  0  0  0  0  0  0
  152.4261  141.5674  157.6487 H   0  0  0  0  0  0  0  0  0  0  0  0
  150.5353  138.5535  158.2790 H   0  0  0  0  0  0  0  0  0  0  0  0
  151.9254  139.5047  158.7819 H   0  0  0  0  0  0  0  0  0  0  0  0
  151.9371  138.7124  157.2075 H   0  0  0  0  0  0  0  0  0  0  0  0
  149.5999  141.2479  153.1482 H   0  0  0  0  0  0  0  0  0  0  0  0
  146.1649  137.6998  157.2738 H   0  0  0  0  0  0  0  0  0  0  0  0
  144.9300  137.7378  155.1553 H   0  0  0  0  0  0  0  0  0  0  0  0
  145.0680  139.2646  154.3230 H   0  0  0  0  0  0  0  0  0  0  0  0
  146.8189  136.8974  153.5416 H   0  0  0  0  0  0  0  0  0  0  0  0
  145.8508  139.0465  151.6183 H   0  0  0  0  0  0  0  0  0  0  0  0
  147.1830  139.3960  152.6928 H   0  0  0  0  0  0  0  0  0  0  0  0
  147.8706  137.1709  151.7454 H   0  0  0  0  0  0  0  0  0  0  0  0
  144.1289  137.5059  152.2592 H   0  0  0  0  0  0  0  0  0  0  0  0
  144.8369  135.3827  154.3097 H   0  0  0  0  0  0  0  0  0  0  0  0
  143.4463  136.4755  154.3395 H   0  0  0  0  0  0  0  0  0  0  0  0
  143.1210  134.0269  153.2703 H   0  0  0  0  0  0  0  0  0  0  0  0
  142.4717  135.4161  152.3927 H   0  0  0  0  0  0  0  0  0  0  0  0
  145.2706  136.2152  150.6216 H   0  0  0  0  0  0  0  0  0  0  0  0
  146.2181  135.3478  151.8295 H   0  0  0  0  0  0  0  0  0  0  0  0
  153.2094  144.4814  159.9538 H   0  0  0  0  0  0  0  0  0  0  0  0
  153.4479  143.0283  158.9927 H   0  0  0  0  0  0  0  0  0  0  0  0
  152.6905  142.9156  160.5838 H   0  0  0  0  0  0  0  0  0  0  0  0
  150.7900  145.4679  160.0549 H   0  0  0  0  0  0  0  0  0  0  0  0
  150.5806  143.9648  160.9492 H   0  0  0  0  0  0  0  0  0  0  0  0
  1  2  1  0  0  0  0
  1 32  1  0  0  0  0
  1 33  1  0  0  0  0
  1 34  1  0  0  0  0
  2  3  1  0  0  0  0
  3 30  1  0  0  0  0
  3 29  1  0  0  0  0
  3  4  1  0  0  0  0
  4  5  1  0  0  0  0
  4 35  1  0  0  0  0
  4 36  1  0  0  0  0
  5 31  1  0  0  0  0
  5  6  1  0  0  0  0
  5 27  1  0  0  0  0
  6  7  1  0  0  0  0
  6 37  1  0  0  0  0
  6 38  1  0  0  0  0
  7  8  1  0  0  0  0
  7  9  1  0  0  0  0
  8 39  1  0  0  0  0
  8 40  1  0  0  0  0
  8 41  1  0  0  0  0
  9 14  1  0  0  0  0
  9 10  2  0  0  0  0
 10 11  1  0  0  0  0
 11 12  2  0  0  0  0
 11 42  1  0  0  0  0
 12 13  1  0  0  0  0
 13 17  1  0  0  0  0
 13 14  2  0  0  0  0
 14 15  1  0  0  0  0
 15 16  2  0  0  0  0
 16 17  1  0  0  0  0
 16 43  1  0  0  0  0
 17 18  1  0  0  0  0
 18 19  1  0  0  0  0
 18 44  1  0  0  0  0
 18 45  1  0  0  0  0
 19 20  1  0  0  0  0
 19 22  1  0  0  0  0
 19 46  1  0  0  0  0
 20 21  1  0  0  0  0
 20 47  1  0  0  0  0
 20 48  1  0  0  0  0
 21 49  1  0  0  0  0
 22 26  1  0  0  0  0
 22 23  1  0  0  0  0
 22 50  1  0  0  0  0
 23 24  1  0  0  0  0
 23 51  1  0  0  0  0
 23 52  1  0  0  0  0
 24 25  1  0  0  0  0
 24 53  1  0  0  0  0
 24 54  1  0  0  0  0
 25 26  1  0  0  0  0
 26 55  1  0  0  0  0
 26 56  1  0  0  0  0
 27 28  1  0  0  0  0
 27 29  1  0  0  0  0
 28 57  1  0  0  0  0
 28 58  1  0  0  0  0
 28 59  1  0  0  0  0
 29 60  1  0  0  0  0
 29 61  1  0  0  0  0
M  END
> <s_m_source_file>
AV-unprocessed.smi

> <i_m_source_file_index>
21

> <i_lp_mmshare_version>
43012

> <i_f3d_flags>
0

> <s_epik_input>
W0NIM11PW0NASF0xW0NIMl1bQ0BIXShOKFtDSDNdKVtDSDJdMSlbQ0gyXU4oW0NIM10pYyhuW2NIXW4yKWMoYzIzKW5bY0hdbjNbQ0gyXVtDQEhdKFtDSDJdW09IXSlbQ0BASF00W0NIMl1bQ0gyXU9bQ0gyXTQ=

> <s_epik_cmdline>
J2VwaWtfcHl0aG9uJywgJy1waCcsICc3LjAnLCAnLXRuJywgJzgnLCAnLW1hJywgJzIwMCcsICctbWV0YWxfYmluZGluZycsICctaW1hZScsICc8aW5maWxlLm1hZT4nLCAnLW9tYWUnLCAnPG91dGZpbGUubWFlPic=

> <r_lp_tautomer_probability>
1

> <r_epik_Ionization_Penalty>
2.17574

> <r_epik_Ionization_Penalty_Charging>
0

> <r_epik_Ionization_Penalty_Neutral>
2.17574

> <r_epik_State_Penalty>
2.31336

> <r_epik_Charging_Adjusted_Penalty>
2.31336

> <i_epik_Tot_Q>
0

> <i_epik_Tot_abs_Q>
0

> <r_epik_Metal_State_Penalty>
2.31025

> <b_epik_Metal_Only>
0

> <s_lp_Force_Field>
OPLS_2005

> <r_lp_Energy>
69.0307

> <b_lp_Chiralities_Consistent>
1

> <s_lp_Variant>
AV-unprocessed.smi:21-34

> <Gold.Version>
5.8.1

> <Gold.Id.Protein>
6NUR|6NUR_protein|mol2

> <Gold.PLP.Fitness>
47.2340

> <Gold.PLP.PLP>
-39.7633

> <Gold.PLP.part.hbond>
-4.7565

> <Gold.PLP.part.metal>
0.0000

> <Gold.PLP.part.buried>
-6.1618

> <Gold.PLP.part.nonpolar>
-30.5670

> <Gold.PLP.part.repulsive>
0.5629

> <Gold.PLP.ligand.clash>
0.0000

> <Gold.PLP.ligand.torsion>
1.6709

> <Gold.PLP.Chemscore.Hbond>
2.7673

> <Gold.PLP.Chemscore.CHOScore>
0.7174

> <Gold.PLP.Chemscore.Metal>
0.0000

> <Gold.Chemscore.Hbonds>
donor molecule, donor type, donor heavy atom, donor atom, acceptor molecule, acceptor atom, score
      L1  H    21    49       P1  7948  0.66
      P1  H  6933  6944       L1     2  0.96
      P1  H  7954  7966       L1    21  1.00
      P1  H  7989  7998       L1    10  0.05
      L1  C    11    42       P1  7957  0.78

> <Gold.PLP.Chemscore.Internal.Correction>
0.3583

> <Gold.Rescore>
     Score         DG    S(hbond)    S(metal)    S(lipo)     H(rot)  DE(clash)    DE(int)     intcor
     11.14     -14.30       1.83        0.00      88.76       3.00       0.03       3.13       ----

> <Gold.Chemscore.Fitness>
11.1377

> <Gold.Chemscore.DG>
-14.2974

> <Gold.Chemscore.ZeroCoef>
-5.4800

> <Gold.Chemscore.Hbond>
1.8326

> <Gold.Chemscore.Metal>
0.0000

> <Gold.Chemscore.Lipo>
88.7576

> <Gold.Chemscore.Internal_Hbond>
0.0000

> <Gold.Chemscore.DEClash>
0.0335

> <Gold.Chemscore.DEInternal>
3.1263

> <Gold.Chemscore.Rot>
3.0031

> <Gold.Chemscore.Internal.Correction>
   9.000000E+99

> <Gold.Chemscore.Hbonds>
donor molecule, donor type, donor heavy atom, donor atom, acceptor molecule, acceptor atom, score
      L1  H    21    49       P1  7948  0.63
      P1  H  6933  6944       L1     2  0.56
      P1  H  7954  7966       L1    21  0.34

> <Gold.Chemscore.Hbond.Weighted>
-6.1207

> <Gold.Chemscore.Metal.Weighted>
-0.0000

> <Gold.Chemscore.Lipo.Weighted>
-10.3846

> <Gold.Chemscore.Internal_Hbond.Weighted>
0.0000

> <Gold.Chemscore.DEClash.Weighted>
0.0335

> <Gold.Chemscore.DEInternal.Weighted>
3.1263

> <Gold.Chemscore.Rot.Weighted>
7.6880

> <Gold.Chemscore.Internal.Correction.Weighted>
   9.000000E+99

> <Gold.Protein.RotatedTorsions>
[ 6907 6896 6895 6894 ] final   25.64 input  -60.11 | X-H torsion
[ 7974 7965 7964 7962 ] final    5.63 input  175.53 | X-H torsion
[ 8008 7997 7996 7995 ] final  -88.22 input   59.86 | X-H torsion
[ 10167 10162 10161 10158 ] final  -57.07 input  -65.29 | X-H torsion
[ 10718 10713 10712 10709 ] final  156.50 input   66.30 | X-H torsion
[ 10763 10752 10751 10750 ] final -126.27 input  -60.55 | X-H torsion
[ 11005 11000 10999 10996 ] final  101.66 input  -57.11 | X-H torsion

> <Gold.Protein.ActiveResidues>
 VAL166  LYS551  ARG553  GLY616  TRP617  ASP618  TYR619  PRO620  LYS621  CYS622 
 ASP623  PHE694  ASN695  SER759  ASP760  ASP761  ALA762  ILE779  LEU786  VAL792 
 PHE793  MET794  SER795  GLU796  ALA797  LYS798  CYS799  TRP800  GLU811  SER814 

> <Gold.Protein.RotatedAtoms>
  151.9755  135.0055  160.0554 H   0  0  0  0  0  0  0  0  0  0  0  0  # atno 6907 bound_to 6896
  152.1744  133.4660  159.4934 H   0  0  0  0  0  0  0  0  0  0  0  0  # atno 6908 bound_to 6896
  150.6907  134.1830  159.4299 H   0  0  0  0  0  0  0  0  0  0  0  0  # atno 6909 bound_to 6896
  146.2439  140.0355  142.8386 H   0  0  0  0  0  0  0  0  0  0  0  0  # atno 7974 bound_to 7965
  154.6723  140.0556  157.0178 H   0  0  0  0  0  0  0  0  0  0  0  0  # atno 8008 bound_to 7997
  155.1071  140.3234  155.4513 H   0  0  0  0  0  0  0  0  0  0  0  0  # atno 8009 bound_to 7997
  156.2662  140.2021  156.6196 H   0  0  0  0  0  0  0  0  0  0  0  0  # atno 8010 bound_to 7997
  140.6280  143.2447  151.5314 H   0  0  0  0  0  0  0  0  0  0  0  0  # atno 10167 bound_to 10162
  157.2041  131.0683  151.2008 H   0  0  0  0  0  0  0  0  0  0  0  0  # atno 10718 bound_to 10713
  154.8744  135.4001  154.3404 H   0  0  0  0  0  0  0  0  0  0  0  0  # atno 10763 bound_to 10752
  153.4204  135.7023  153.6303 H   0  0  0  0  0  0  0  0  0  0  0  0  # atno 10764 bound_to 10752
  153.4968  135.3736  155.2490 H   0  0  0  0  0  0  0  0  0  0  0  0  # atno 10765 bound_to 10752
  139.8774  134.9192  156.4940 H   0  0  0  0  0  0  0  0  0  0  0  0  # atno 11005 bound_to 11000
  145.1117  140.9409  143.4653 LP  0  0  0  0  0  0  0  0  0  0  0  0  # atno 17320 bound_to 7965
  145.0570  139.3136  143.5900 LP  0  0  0  0  0  0  0  0  0  0  0  0  # atno 17321 bound_to 7965
  139.5498  144.2426  152.1509 LP  0  0  0  0  0  0  0  0  0  0  0  0  # atno 17342 bound_to 10162
  140.1662  144.4979  150.6604 LP  0  0  0  0  0  0  0  0  0  0  0  0  # atno 17343 bound_to 10162
  157.3737  130.7195  149.6582 LP  0  0  0  0  0  0  0  0  0  0  0  0  # atno 17370 bound_to 10713
  155.9697  130.4191  150.4361 LP  0  0  0  0  0  0  0  0  0  0  0  0  # atno 17371 bound_to 10713
  140.8638  133.8040  155.9292 LP  0  0  0  0  0  0  0  0  0  0  0  0  # atno 17394 bound_to 11000
  140.9023  134.2364  157.5035 LP  0  0  0  0  0  0  0  0  0  0  0  0  # atno 17395 bound_to 11000

$$$$
