AV-unprocessed.smi:927|AV-procd|sdf|4187|dock9
  -GOLD-   22720 2 93D 1   1.00000     0.00000
 Structure written by MMmdl.
 21 21  0  0  0  0  0  0  0  0  2 V2000
  142.5232  132.5512  148.2986 N   0  3  0  0  0  0  0  0  0  0  0  0
  143.8100  132.3881  148.9981 C   0  0  0  0  0  0  0  0  0  0  0  0
  143.7725  132.9913  150.4136 C   0  0  2  0  0  0  0  0  0  0  0  0
  143.5945  134.3905  150.3073 O   0  0  0  0  0  0  0  0  0  0  0  0
  145.0300  132.6421  151.1942 C   0  0  0  0  0  0  0  0  0  0  0  0
  145.2714  131.3143  151.6053 C   0  0  0  0  0  0  0  0  0  0  0  0
  146.4524  131.0346  152.3220 C   0  0  0  0  0  0  0  0  0  0  0  0
  147.3697  131.9743  152.6350 N   0  0  0  0  0  0  0  0  0  0  0  0
  147.1354  133.2432  152.2379 C   0  0  0  0  0  0  0  0  0  0  0  0
  145.9874  133.6284  151.5169 C   0  0  0  0  0  0  0  0  0  0  0  0
  141.9769  131.7070  148.3929 H   0  0  0  0  0  0  0  0  0  0  0  0
  142.6989  132.7321  147.3203 H   0  0  0  0  0  0  0  0  0  0  0  0
  144.0305  131.3213  149.0521 H   0  0  0  0  0  0  0  0  0  0  0  0
  144.6000  132.8469  148.4019 H   0  0  0  0  0  0  0  0  0  0  0  0
  142.9108  132.5942  150.9525 H   0  0  0  0  0  0  0  0  0  0  0  0
  142.7988  134.5555  149.8235 H   0  0  0  0  0  0  0  0  0  0  0  0
  144.5711  130.5234  151.3799 H   0  0  0  0  0  0  0  0  0  0  0  0
  146.6661  130.0285  152.6513 H   0  0  0  0  0  0  0  0  0  0  0  0
  147.8860  133.9738  152.5009 H   0  0  0  0  0  0  0  0  0  0  0  0
  145.8503  134.6580  151.2205 H   0  0  0  0  0  0  0  0  0  0  0  0
  142.0169  133.3285  148.6979 H   0  0  0  0  0  0  0  0  0  0  0  0
  1  2  1  0  0  0  0
  1 11  1  0  0  0  0
  1 12  1  0  0  0  0
  1 21  1  0  0  0  0
  2  3  1  0  0  0  0
  2 13  1  0  0  0  0
  2 14  1  0  0  0  0
  3  4  1  0  0  0  0
  3  5  1  0  0  0  0
  3 15  1  0  0  0  0
  4 16  1  0  0  0  0
  5 10  1  0  0  0  0
  5  6  2  0  0  0  0
  6  7  1  0  0  0  0
  6 17  1  0  0  0  0
  7  8  2  0  0  0  0
  7 18  1  0  0  0  0
  8  9  1  0  0  0  0
  9 10  2  0  0  0  0
  9 19  1  0  0  0  0
 10 20  1  0  0  0  0
M  CHG  1   1   1
M  END
> <s_m_source_file>
AV-unprocessed.smi

> <i_m_source_file_index>
927

> <i_lp_mmshare_version>
43012

> <i_f3d_flags>
0

> <s_epik_input>
W05IMl1bQ0gyXVtDQEhdKFtPSF0pYzFbY0hdW2NIXW5bY0hdW2NIXTE=

> <s_epik_cmdline>
J2VwaWtfcHl0aG9uJywgJy1waCcsICc3LjAnLCAnLXRuJywgJzgnLCAnLW1hJywgJzIwMCcsICctbWV0YWxfYmluZGluZycsICctaW1hZScsICc8aW5maWxlLm1hZT4nLCAnLW9tYWUnLCAnPG91dGZpbGUubWFlPic=

> <r_epik_Ionization_Penalty>
0.0159363

> <r_epik_Ionization_Penalty_Charging>
0.0140431

> <r_epik_Ionization_Penalty_Neutral>
0.00189321

> <r_epik_State_Penalty>
0.0109628

> <r_epik_Charging_Adjusted_Penalty>
0.0250059

> <i_epik_Tot_Q>
1

> <i_epik_Tot_abs_Q>
1

> <r_epik_Metal_State_Penalty>
0.0113463

> <b_epik_Metal_Only>
0

> <s_lp_Force_Field>
OPLS_2005

> <r_lp_Energy>
4.52457

> <b_lp_Chiralities_Consistent>
1

> <s_lp_Variant>
AV-unprocessed.smi:927-1

> <Gold.Version>
5.8.1

> <Gold.Id.Protein>
6NUR|6NUR_protein|mol2

> <Gold.PLP.Fitness>
39.4247

> <Gold.PLP.PLP>
-22.3132

> <Gold.PLP.part.hbond>
-4.0000

> <Gold.PLP.part.metal>
0.0000

> <Gold.PLP.part.buried>
-3.0111

> <Gold.PLP.part.nonpolar>
-16.1423

> <Gold.PLP.part.repulsive>
0.8538

> <Gold.PLP.ligand.clash>
0.0000

> <Gold.PLP.ligand.torsion>
0.2143

> <Gold.PLP.Chemscore.Hbond>
4.8445

> <Gold.PLP.Chemscore.CHOScore>
1.0000

> <Gold.PLP.Chemscore.Metal>
0.0000

> <Gold.Chemscore.Hbonds>
donor molecule, donor type, donor heavy atom, donor atom, acceptor molecule, acceptor atom, score
      L1  H     1    11       P1 10952  0.78
      L1  H     1    12       P1 10195  0.83
      L1  H     1    21       P1 10186  2.00
      L1  H     4    16       P1 10186  1.00
      L1  C     9    19       P1  7948  0.94

> <Gold.PLP.Chemscore.Internal.Correction>
0.0066

> <Gold.Rescore>
     Score         DG    S(hbond)    S(metal)    S(lipo)     H(rot)  DE(clash)    DE(int)     intcor
     18.06     -18.13       3.37        0.00      53.52       1.90       0.02       0.05       ----

> <Gold.Chemscore.Fitness>
18.0574

> <Gold.Chemscore.DG>
-18.1342

> <Gold.Chemscore.ZeroCoef>
-5.4800

> <Gold.Chemscore.Hbond>
3.3688

> <Gold.Chemscore.Metal>
0.0000

> <Gold.Chemscore.Lipo>
53.5172

> <Gold.Chemscore.Internal_Hbond>
0.0000

> <Gold.Chemscore.DEClash>
0.0232

> <Gold.Chemscore.DEInternal>
0.0535

> <Gold.Chemscore.Rot>
1.8981

> <Gold.Chemscore.Internal.Correction>
   9.000000E+99

> <Gold.Chemscore.Hbonds>
donor molecule, donor type, donor heavy atom, donor atom, acceptor molecule, acceptor atom, score
      L1  H     1    11       P1 10952  0.74
      L1  H     1    12       P1 10195  0.77
      L1  H     1    21       P1 10186  1.00
      L1  H     4    16       P1 10186  0.86

> <Gold.Chemscore.Hbond.Weighted>
-11.2518

> <Gold.Chemscore.Metal.Weighted>
-0.0000

> <Gold.Chemscore.Lipo.Weighted>
-6.2615

> <Gold.Chemscore.Internal_Hbond.Weighted>
0.0000

> <Gold.Chemscore.DEClash.Weighted>
0.0232

> <Gold.Chemscore.DEInternal.Weighted>
0.0535

> <Gold.Chemscore.Rot.Weighted>
4.8592

> <Gold.Chemscore.Internal.Correction.Weighted>
   9.000000E+99

> <Gold.Protein.RotatedTorsions>
[ 6907 6896 6895 6894 ] final   -0.26 input  -60.11 | X-H torsion
[ 7974 7965 7964 7962 ] final  -99.41 input  175.53 | X-H torsion
[ 8008 7997 7996 7995 ] final  -58.94 input   59.86 | X-H torsion
[ 10167 10162 10161 10158 ] final  -86.89 input  -65.29 | X-H torsion
[ 10718 10713 10712 10709 ] final   12.02 input   66.30 | X-H torsion
[ 10763 10752 10751 10750 ] final  117.38 input  -60.55 | X-H torsion
[ 11005 11000 10999 10996 ] final    2.88 input  -57.11 | X-H torsion

> <Gold.Protein.ActiveResidues>
 VAL166  LYS551  ARG553  GLY616  TRP617  ASP618  TYR619  PRO620  LYS621  CYS622 
 ASP623  PHE694  ASN695  SER759  ASP760  ASP761  ALA762  ILE779  LEU786  VAL792 
 PHE793  MET794  SER795  GLU796  ALA797  LYS798  CYS799  TRP800  GLU811  SER814 

> <Gold.Protein.RotatedAtoms>
  151.5650  135.1064  159.9981 H   0  0  0  0  0  0  0  0  0  0  0  0  # atno 6907 bound_to 6896
  152.4428  133.7476  159.6686 H   0  0  0  0  0  0  0  0  0  0  0  0  # atno 6908 bound_to 6896
  150.8337  133.7980  159.3112 H   0  0  0  0  0  0  0  0  0  0  0  0  # atno 6909 bound_to 6896
  145.3079  140.9393  143.2786 H   0  0  0  0  0  0  0  0  0  0  0  0  # atno 7974 bound_to 7965
  154.4330  140.1073  156.6037 H   0  0  0  0  0  0  0  0  0  0  0  0  # atno 8008 bound_to 7997
  155.5884  140.3492  155.4541 H   0  0  0  0  0  0  0  0  0  0  0  0  # atno 8009 bound_to 7997
  156.0265  140.1251  157.0292 H   0  0  0  0  0  0  0  0  0  0  0  0  # atno 8010 bound_to 7997
  140.3898  143.2710  151.9279 H   0  0  0  0  0  0  0  0  0  0  0  0  # atno 10167 bound_to 10162
  157.0041  130.6091  149.5700 H   0  0  0  0  0  0  0  0  0  0  0  0  # atno 10718 bound_to 10713
  153.5515  135.3538  155.2761 H   0  0  0  0  0  0  0  0  0  0  0  0  # atno 10763 bound_to 10752
  154.8706  135.4115  154.2931 H   0  0  0  0  0  0  0  0  0  0  0  0  # atno 10764 bound_to 10752
  153.3659  135.7062  153.6744 H   0  0  0  0  0  0  0  0  0  0  0  0  # atno 10765 bound_to 10752
  140.5994  133.9850  155.8125 H   0  0  0  0  0  0  0  0  0  0  0  0  # atno 11005 bound_to 11000
  144.9040  139.4613  143.6619 LP  0  0  0  0  0  0  0  0  0  0  0  0  # atno 17320 bound_to 7965
  146.3128  139.7810  142.9006 LP  0  0  0  0  0  0  0  0  0  0  0  0  # atno 17321 bound_to 7965
  139.4790  144.5739  151.8044 LP  0  0  0  0  0  0  0  0  0  0  0  0  # atno 17342 bound_to 10162
  140.4852  144.1392  150.5939 LP  0  0  0  0  0  0  0  0  0  0  0  0  # atno 17343 bound_to 10162
  156.0160  130.5254  150.8136 LP  0  0  0  0  0  0  0  0  0  0  0  0  # atno 17370 bound_to 10713
  157.5369  131.0939  150.9880 LP  0  0  0  0  0  0  0  0  0  0  0  0  # atno 17371 bound_to 10713
  141.0882  133.9957  157.3279 LP  0  0  0  0  0  0  0  0  0  0  0  0  # atno 17394 bound_to 11000
  139.9239  135.0201  156.8164 LP  0  0  0  0  0  0  0  0  0  0  0  0  # atno 17395 bound_to 11000

$$$$
