AV-unprocessed.smi:266|AV-procd|sdf|2031|dock6
  -GOLD-   2262021243D 1   1.00000     0.00000
 Structure written by MMmdl.
 52 55  0  0  0  0  0  0  0  0  1 V2000
  150.7724  139.2081  157.7041 C   0  0  0  0  0  0  0  0  0  0  0  0
  149.5053  138.7073  156.9936 C   0  0  2  0  0  0  0  0  0  0  0  0
  148.5860  139.7944  156.9290 O   0  0  0  0  0  0  0  0  0  0  0  0
  147.2665  139.2791  156.9482 C   0  0  0  0  0  0  0  0  0  0  0  0
  147.3686  138.1609  157.9738 C   0  0  0  0  0  0  0  0  0  0  0  0
  148.7318  137.5416  157.6737 C   0  0  1  0  0  0  0  0  0  0  0  0
  148.5401  136.5285  156.6998 O   0  0  0  0  0  0  0  0  0  0  0  0
  149.4054  136.8908  158.9111 C   0  0  0  0  0  0  0  0  0  0  0  0
  148.5484  135.9312  159.5911 N   0  0  0  0  0  0  0  0  0  0  0  0
  148.1522  134.7003  159.1219 C   0  0  0  0  0  0  0  0  0  0  0  0
  147.3627  134.0320  159.9164 N   0  0  0  0  0  0  0  0  0  0  0  0
  147.1994  134.8613  161.0209 C   0  0  0  0  0  0  0  0  0  0  0  0
  146.4632  134.7706  162.2397 C   0  0  0  0  0  0  0  0  0  0  0  0
  145.6344  133.7373  162.5541 N   0  0  0  0  0  0  0  0  0  0  0  0
  144.2891  134.0557  163.0261 C   0  0  0  0  0  0  0  0  0  0  0  0
  145.8134  132.4657  161.8505 C   0  0  0  0  0  0  0  0  0  0  0  0
  144.6855  132.1481  160.8444 C   0  0  2  0  0  0  0  0  0  0  0  0
  144.6851  130.6597  160.4443 C   0  0  0  0  0  0  0  0  0  0  0  0
  143.7359  130.4681  159.2581 C   0  0  0  0  0  0  0  0  0  0  0  0
  143.8945  131.9915  158.2573 S   0  0  0  0  0  0  0  0  0  0  0  0
  144.8221  131.7510  157.1416 O   0  0  0  0  0  0  0  0  0  0  0  0
  142.5559  132.5537  158.0225 O   0  0  0  0  0  0  0  0  0  0  0  0
  144.7564  132.9708  159.5438 C   0  0  0  0  0  0  0  0  0  0  0  0
  146.5907  135.8033  163.1166 N   0  0  0  0  0  0  0  0  0  0  0  0
  147.3540  136.8584  162.8210 C   0  0  0  0  0  0  0  0  0  0  0  0
  148.0682  137.0866  161.7189 N   0  0  0  0  0  0  0  0  0  0  0  0
  147.9621  136.0509  160.8389 C   0  0  0  0  0  0  0  0  0  0  0  0
  151.5228  138.4213  157.7824 H   0  0  0  0  0  0  0  0  0  0  0  0
  150.5519  139.5727  158.7075 H   0  0  0  0  0  0  0  0  0  0  0  0
  151.2219  140.0330  157.1507 H   0  0  0  0  0  0  0  0  0  0  0  0
  149.7700  138.4411  155.9685 H   0  0  0  0  0  0  0  0  0  0  0  0
  146.5390  140.0423  157.2249 H   0  0  0  0  0  0  0  0  0  0  0  0
  147.0052  138.8893  155.9632 H   0  0  0  0  0  0  0  0  0  0  0  0
  147.3686  138.6037  158.9704 H   0  0  0  0  0  0  0  0  0  0  0  0
  146.5393  137.4532  157.9246 H   0  0  0  0  0  0  0  0  0  0  0  0
  147.8019  135.9989  156.9595 H   0  0  0  0  0  0  0  0  0  0  0  0
  150.3276  136.3835  158.6244 H   0  0  0  0  0  0  0  0  0  0  0  0
  149.6858  137.6528  159.6383 H   0  0  0  0  0  0  0  0  0  0  0  0
  148.4607  134.3151  158.1608 H   0  0  0  0  0  0  0  0  0  0  0  0
  144.3226  134.7929  163.8292 H   0  0  0  0  0  0  0  0  0  0  0  0
  143.7977  133.1644  163.4167 H   0  0  0  0  0  0  0  0  0  0  0  0
  143.6758  134.4522  162.2162 H   0  0  0  0  0  0  0  0  0  0  0  0
  146.7823  132.4067  161.3605 H   0  0  0  0  0  0  0  0  0  0  0  0
  145.8364  131.6813  162.6075 H   0  0  0  0  0  0  0  0  0  0  0  0
  143.7217  132.3477  161.3149 H   0  0  0  0  0  0  0  0  0  0  0  0
  145.6919  130.3707  160.1391 H   0  0  0  0  0  0  0  0  0  0  0  0
  144.4089  130.0168  161.2805 H   0  0  0  0  0  0  0  0  0  0  0  0
  143.9726  129.5914  158.6548 H   0  0  0  0  0  0  0  0  0  0  0  0
  142.7027  130.3926  159.5975 H   0  0  0  0  0  0  0  0  0  0  0  0
  144.2913  133.9523  159.6347 H   0  0  0  0  0  0  0  0  0  0  0  0
  145.7881  133.1052  159.2179 H   0  0  0  0  0  0  0  0  0  0  0  0
  147.3917  137.6336  163.5720 H   0  0  0  0  0  0  0  0  0  0  0  0
  1  2  1  0  0  0  0
  1 28  1  0  0  0  0
  1 29  1  0  0  0  0
  1 30  1  0  0  0  0
  2  6  1  0  0  0  0
  2  3  1  0  0  0  0
  2 31  1  0  0  0  0
  3  4  1  0  0  0  0
  4  5  1  0  0  0  0
  4 32  1  0  0  0  0
  4 33  1  0  0  0  0
  5  6  1  0  0  0  0
  5 34  1  0  0  0  0
  5 35  1  0  0  0  0
  6  7  1  0  0  0  0
  6  8  1  0  0  0  0
  7 36  1  0  0  0  0
  8  9  1  0  0  0  0
  8 37  1  0  0  0  0
  8 38  1  0  0  0  0
  9 27  1  0  0  0  0
  9 10  1  0  0  0  0
 10 11  2  0  0  0  0
 10 39  1  0  0  0  0
 11 12  1  0  0  0  0
 12 27  2  0  0  0  0
 12 13  1  0  0  0  0
 13 14  1  0  0  0  0
 13 24  2  0  0  0  0
 14 15  1  0  0  0  0
 14 16  1  0  0  0  0
 15 40  1  0  0  0  0
 15 41  1  0  0  0  0
 15 42  1  0  0  0  0
 16 17  1  0  0  0  0
 16 43  1  0  0  0  0
 16 44  1  0  0  0  0
 17 23  1  0  0  0  0
 17 18  1  0  0  0  0
 17 45  1  0  0  0  0
 18 19  1  0  0  0  0
 18 46  1  0  0  0  0
 18 47  1  0  0  0  0
 19 20  1  0  0  0  0
 19 48  1  0  0  0  0
 19 49  1  0  0  0  0
 20 21  2  0  0  0  0
 20 22  2  0  0  0  0
 20 23  1  0  0  0  0
 23 50  1  0  0  0  0
 23 51  1  0  0  0  0
 24 25  1  0  0  0  0
 25 26  2  0  0  0  0
 25 52  1  0  0  0  0
 26 27  1  0  0  0  0
M  END
> <s_m_source_file>
AV-unprocessed.smi

> <i_m_source_file_index>
266

> <i_lp_mmshare_version>
43012

> <i_f3d_flags>
0

> <s_epik_input>
W0NIMl0xW0NIMl1PW0NAQEhdKFtDSDNdKVtDQEBdMShbT0hdKVtDSDJdbihbY0hdbjIpYyhjMjMpbltjSF1uYzNOKFtDSDNdKVtDSDJdW0NAQEhdKFtDSDJdNClbQ0gyXVtDSDJdUzQoPU8pPU8=

> <s_epik_cmdline>
J2VwaWtfcHl0aG9uJywgJy1waCcsICc3LjAnLCAnLXRuJywgJzgnLCAnLW1hJywgJzIwMCcsICctbWV0YWxfYmluZGluZycsICctaW1hZScsICc8aW5maWxlLm1hZT4nLCAnLW9tYWUnLCAnPG91dGZpbGUubWFlPic=

> <r_lp_tautomer_probability>
1

> <r_epik_Ionization_Penalty>
0.00155497

> <r_epik_Ionization_Penalty_Charging>
0

> <r_epik_Ionization_Penalty_Neutral>
0.00155497

> <r_epik_State_Penalty>
-0

> <r_epik_Charging_Adjusted_Penalty>
0

> <i_epik_Tot_Q>
0

> <i_epik_Tot_abs_Q>
0

> <r_epik_Metal_State_Penalty>
-0

> <b_epik_Metal_Only>
0

> <s_lp_Force_Field>
OPLS_2005

> <r_lp_Energy>
29.5809

> <b_lp_Chiralities_Consistent>
1

> <s_lp_Variant>
AV-unprocessed.smi:266-1

> <Gold.Version>
5.8.1

> <Gold.Id.Protein>
6NUR|6NUR_protein|mol2

> <Gold.PLP.Fitness>
36.6065

> <Gold.PLP.PLP>
-31.1943

> <Gold.PLP.part.hbond>
-2.8534

> <Gold.PLP.part.metal>
0.0000

> <Gold.PLP.part.buried>
-2.9070

> <Gold.PLP.part.nonpolar>
-26.0747

> <Gold.PLP.part.repulsive>
0.4471

> <Gold.PLP.ligand.clash>
0.0000

> <Gold.PLP.ligand.torsion>
0.9293

> <Gold.PLP.Chemscore.Hbond>
2.2215

> <Gold.PLP.Chemscore.CHOScore>
0.0000

> <Gold.PLP.Chemscore.Metal>
0.0000

> <Gold.Chemscore.Hbonds>
donor molecule, donor type, donor heavy atom, donor atom, acceptor molecule, acceptor atom, score
      P1  H  6931  6943       L1    26  0.98
      P1  H  6934  6947       L1    26  0.25
      P1  H 11000 11005       L1    22  0.93

> <Gold.PLP.Chemscore.Internal.Correction>
0.6063

> <Gold.Rescore>
     Score         DG    S(hbond)    S(metal)    S(lipo)     H(rot)  DE(clash)    DE(int)     intcor
      6.80     -10.56       1.87        0.00      43.62       2.45       0.21       3.55       ----

> <Gold.Chemscore.Fitness>
6.7997

> <Gold.Chemscore.DG>
-10.5574

> <Gold.Chemscore.ZeroCoef>
-5.4800

> <Gold.Chemscore.Hbond>
1.8678

> <Gold.Chemscore.Metal>
0.0000

> <Gold.Chemscore.Lipo>
43.6208

> <Gold.Chemscore.Internal_Hbond>
0.0000

> <Gold.Chemscore.DEClash>
0.2063

> <Gold.Chemscore.DEInternal>
3.5514

> <Gold.Chemscore.Rot>
2.4471

> <Gold.Chemscore.Internal.Correction>
   9.000000E+99

> <Gold.Chemscore.Hbonds>
donor molecule, donor type, donor heavy atom, donor atom, acceptor molecule, acceptor atom, score
      P1  H  6931  6943       L1    26  0.71
      P1  H  6934  6947       L1    26  0.09
      P1  H 11000 11005       L1    22  0.88

> <Gold.Chemscore.Hbond.Weighted>
-6.2383

> <Gold.Chemscore.Metal.Weighted>
-0.0000

> <Gold.Chemscore.Lipo.Weighted>
-5.1036

> <Gold.Chemscore.Internal_Hbond.Weighted>
0.0000

> <Gold.Chemscore.DEClash.Weighted>
0.2063

> <Gold.Chemscore.DEInternal.Weighted>
3.5514

> <Gold.Chemscore.Rot.Weighted>
6.2645

> <Gold.Chemscore.Internal.Correction.Weighted>
   9.000000E+99

> <Gold.Protein.RotatedTorsions>
[ 6907 6896 6895 6894 ] final   36.80 input  -60.11 | X-H torsion
[ 7974 7965 7964 7962 ] final  -71.49 input  175.53 | X-H torsion
[ 8008 7997 7996 7995 ] final -166.79 input   59.86 | X-H torsion
[ 10167 10162 10161 10158 ] final  120.89 input  -65.29 | X-H torsion
[ 10718 10713 10712 10709 ] final -130.34 input   66.30 | X-H torsion
[ 10763 10752 10751 10750 ] final  -85.42 input  -60.55 | X-H torsion
[ 11005 11000 10999 10996 ] final  -91.40 input  -57.11 | X-H torsion

> <Gold.Protein.ActiveResidues>
 VAL166  LYS551  ARG553  GLY616  TRP617  ASP618  TYR619  PRO620  LYS621  CYS622 
 ASP623  PHE694  ASN695  SER759  ASP760  ASP761  ALA762  ILE779  LEU786  VAL792 
 PHE793  MET794  SER795  GLU796  ALA797  LYS798  CYS799  TRP800  GLU811  SER814 

> <Gold.Protein.RotatedAtoms>
  152.1346  134.9109  160.0556 H   0  0  0  0  0  0  0  0  0  0  0  0  # atno 6907 bound_to 6896
  152.0200  133.3890  159.4262 H   0  0  0  0  0  0  0  0  0  0  0  0  # atno 6908 bound_to 6896
  150.6859  134.3558  159.4972 H   0  0  0  0  0  0  0  0  0  0  0  0  # atno 6909 bound_to 6896
  145.6774  140.9200  143.0850 H   0  0  0  0  0  0  0  0  0  0  0  0  # atno 7974 bound_to 7965
  155.8688  140.0990  157.1564 H   0  0  0  0  0  0  0  0  0  0  0  0  # atno 8008 bound_to 7997
  154.3995  140.1351  156.4115 H   0  0  0  0  0  0  0  0  0  0  0  0  # atno 8009 bound_to 7997
  155.7774  140.3459  155.5281 H   0  0  0  0  0  0  0  0  0  0  0  0  # atno 8010 bound_to 7997
  139.5954  144.7039  151.3190 H   0  0  0  0  0  0  0  0  0  0  0  0  # atno 10167 bound_to 10162
  156.2135  130.6933  151.0676 H   0  0  0  0  0  0  0  0  0  0  0  0  # atno 10718 bound_to 10713
  154.6109  135.5485  153.7472 H   0  0  0  0  0  0  0  0  0  0  0  0  # atno 10763 bound_to 10752
  153.0194  135.6389  154.1580 H   0  0  0  0  0  0  0  0  0  0  0  0  # atno 10764 bound_to 10752
  154.1518  135.2902  155.3113 H   0  0  0  0  0  0  0  0  0  0  0  0  # atno 10765 bound_to 10752
  141.1545  133.7753  156.9874 H   0  0  0  0  0  0  0  0  0  0  0  0  # atno 11005 bound_to 11000
  144.7037  139.8652  143.7436 LP  0  0  0  0  0  0  0  0  0  0  0  0  # atno 17320 bound_to 7965
  146.0993  139.3988  143.0357 LP  0  0  0  0  0  0  0  0  0  0  0  0  # atno 17321 bound_to 7965
  140.7207  143.7143  150.7745 LP  0  0  0  0  0  0  0  0  0  0  0  0  # atno 17342 bound_to 10162
  140.0708  143.5063  152.2581 LP  0  0  0  0  0  0  0  0  0  0  0  0  # atno 17343 bound_to 10162
  157.7051  131.0760  150.6694 LP  0  0  0  0  0  0  0  0  0  0  0  0  # atno 17370 bound_to 10713
  156.6754  130.4552  149.5644 LP  0  0  0  0  0  0  0  0  0  0  0  0  # atno 17371 bound_to 10713
  140.1025  134.9526  157.1945 LP  0  0  0  0  0  0  0  0  0  0  0  0  # atno 17394 bound_to 11000
  140.3299  134.2821  155.7230 LP  0  0  0  0  0  0  0  0  0  0  0  0  # atno 17395 bound_to 11000

$$$$
