AV-unprocessed.smi:3116|AV-procd|sdf|11862|dock8
  -GOLD-   2272017243D 1   1.00000     0.00000
 Structure written by MMmdl.
 34 34  0  0  0  0  0  0  0  0  2 V2000
  147.9630  141.9058  154.0600 C   0  0  0  0  0  0  0  0  0  0  0  0
  148.7436  141.0247  155.0524 C   0  0  2  0  0  0  0  0  0  0  0  0
  149.7583  141.8165  155.7860 N   0  3  0  0  0  0  0  0  0  0  0  0
  149.9966  141.4187  157.1928 C   0  0  2  0  0  0  0  0  0  0  0  0
  149.1422  142.3084  158.1144 C   0  0  0  0  0  0  0  0  0  0  0  0
  151.5129  141.4818  157.5163 C   0  0  2  0  0  0  0  0  0  0  0  0
  151.9806  140.3073  158.3976 C   0  0  0  0  0  0  0  0  0  0  0  0
  151.8904  142.7480  158.1313 N   0  0  0  0  0  0  0  0  0  0  0  0
  151.7479  144.0216  157.6203 C   0  0  0  0  0  0  0  0  0  0  0  0
  152.2434  144.8920  158.5482 C   0  0  0  0  0  0  0  0  0  0  0  0
  152.6766  144.0470  159.6075 C   0  0  0  0  0  0  0  0  0  0  0  0
  152.4652  142.7654  159.3554 N   0  0  0  0  0  0  0  0  0  0  0  0
  149.4065  139.8562  154.3131 C   0  0  0  0  0  0  0  0  0  0  0  0
  148.6119  139.0727  153.5792 N   0  0  0  0  0  0  0  0  0  0  0  0
  150.6191  139.6656  154.3909 O   0  0  0  0  0  0  0  0  0  0  0  0
  147.2238  141.3232  153.5085 H   0  0  0  0  0  0  0  0  0  0  0  0
  148.6285  142.3710  153.3314 H   0  0  0  0  0  0  0  0  0  0  0  0
  147.4240  142.7040  154.5705 H   0  0  0  0  0  0  0  0  0  0  0  0
  148.0517  140.5997  155.7818 H   0  0  0  0  0  0  0  0  0  0  0  0
  150.6337  141.7178  155.2923 H   0  0  0  0  0  0  0  0  0  0  0  0
  149.6629  140.3901  157.3389 H   0  0  0  0  0  0  0  0  0  0  0  0
  149.2041  141.9920  159.1558 H   0  0  0  0  0  0  0  0  0  0  0  0
  148.0896  142.2669  157.8322 H   0  0  0  0  0  0  0  0  0  0  0  0
  149.4584  143.3509  158.0634 H   0  0  0  0  0  0  0  0  0  0  0  0
  152.0587  141.4213  156.5731 H   0  0  0  0  0  0  0  0  0  0  0  0
  151.8359  139.3490  157.8986 H   0  0  0  0  0  0  0  0  0  0  0  0
  151.4364  140.2739  159.3421 H   0  0  0  0  0  0  0  0  0  0  0  0
  153.0427  140.3921  158.6306 H   0  0  0  0  0  0  0  0  0  0  0  0
  151.3095  144.2018  156.6498 H   0  0  0  0  0  0  0  0  0  0  0  0
  152.2907  145.9688  158.4801 H   0  0  0  0  0  0  0  0  0  0  0  0
  153.1352  144.3247  160.5450 H   0  0  0  0  0  0  0  0  0  0  0  0
  148.9961  138.2846  153.0781 H   0  0  0  0  0  0  0  0  0  0  0  0
  147.6218  139.2676  153.5333 H   0  0  0  0  0  0  0  0  0  0  0  0
  149.4898  142.7896  155.7559 H   0  0  0  0  0  0  0  0  0  0  0  0
  1  2  1  0  0  0  0
  1 16  1  0  0  0  0
  1 17  1  0  0  0  0
  1 18  1  0  0  0  0
  2  3  1  0  0  0  0
  2 13  1  0  0  0  0
  2 19  1  0  0  0  0
  3  4  1  0  0  0  0
  3 20  1  0  0  0  0
  3 34  1  0  0  0  0
  4  5  1  0  0  0  0
  4  6  1  0  0  0  0
  4 21  1  0  0  0  0
  5 22  1  0  0  0  0
  5 23  1  0  0  0  0
  5 24  1  0  0  0  0
  6  7  1  0  0  0  0
  6  8  1  0  0  0  0
  6 25  1  0  0  0  0
  7 26  1  0  0  0  0
  7 27  1  0  0  0  0
  7 28  1  0  0  0  0
  8 12  1  0  0  0  0
  8  9  1  0  0  0  0
  9 10  2  0  0  0  0
  9 29  1  0  0  0  0
 10 11  1  0  0  0  0
 10 30  1  0  0  0  0
 11 12  2  0  0  0  0
 11 31  1  0  0  0  0
 13 14  1  0  0  0  0
 13 15  2  0  0  0  0
 14 32  1  0  0  0  0
 14 33  1  0  0  0  0
M  CHG  1   3   1
M  END
> <s_m_source_file>
AV-unprocessed.smi

> <i_m_source_file_index>
3116

> <i_lp_mmshare_version>
43012

> <i_f3d_flags>
0

> <s_epik_input>
W05IMl1DKD1PKVtDQEhdKFtDSDNdKVtOSF1bQ0BIXShbQ0gzXSlbQ0BIXShbQ0gzXSluMVtjSF1bY0hdW2NIXW4x

> <s_epik_cmdline>
J2VwaWtfcHl0aG9uJywgJy1waCcsICc3LjAnLCAnLXRuJywgJzgnLCAnLW1hJywgJzIwMCcsICctbWV0YWxfYmluZGluZycsICctaW1hZScsICc8aW5maWxlLm1hZT4nLCAnLW9tYWUnLCAnPG91dGZpbGUubWFlPic=

> <r_lp_tautomer_probability>
1

> <r_epik_Ionization_Penalty>
0.15658

> <r_epik_Ionization_Penalty_Charging>
0.156568

> <r_epik_Ionization_Penalty_Neutral>
1.19778e-05

> <r_epik_State_Penalty>
0.145866

> <r_epik_Charging_Adjusted_Penalty>
0.302434

> <i_epik_Tot_Q>
1

> <i_epik_Tot_abs_Q>
1

> <r_epik_Metal_State_Penalty>
0.146064

> <b_epik_Metal_Only>
0

> <s_lp_Force_Field>
OPLS_2005

> <r_lp_Energy>
9.5332

> <b_lp_Chiralities_Consistent>
1

> <s_lp_Variant>
AV-unprocessed.smi:3116-1

> <Gold.Version>
5.8.1

> <Gold.Id.Protein>
6NUR|6NUR_protein|mol2

> <Gold.PLP.Fitness>
43.8693

> <Gold.PLP.PLP>
-35.0772

> <Gold.PLP.part.hbond>
-3.2567

> <Gold.PLP.part.metal>
0.0000

> <Gold.PLP.part.buried>
-5.3742

> <Gold.PLP.part.nonpolar>
-27.0180

> <Gold.PLP.part.repulsive>
0.3160

> <Gold.PLP.ligand.clash>
0.0000

> <Gold.PLP.ligand.torsion>
2.0097

> <Gold.PLP.Chemscore.Hbond>
3.2418

> <Gold.PLP.Chemscore.CHOScore>
1.0000

> <Gold.PLP.Chemscore.Metal>
0.0000

> <Gold.Chemscore.Hbonds>
donor molecule, donor type, donor heavy atom, donor atom, acceptor molecule, acceptor atom, score
      L1  H     3    34       P1  8028  2.00
      L1  H    14    32       P1  7948  0.18
      P1  H  7989  7998       L1    15  1.00
      L1  C     9    29       P1  8028  0.73

> <Gold.PLP.Chemscore.Internal.Correction>
0.0861

> <Gold.Rescore>
     Score         DG    S(hbond)    S(metal)    S(lipo)     H(rot)  DE(clash)    DE(int)     intcor
     13.16     -15.06       2.13        0.00      74.71       2.45       0.02       1.89       ----

> <Gold.Chemscore.Fitness>
13.1568

> <Gold.Chemscore.DG>
-15.0614

> <Gold.Chemscore.ZeroCoef>
-5.4800

> <Gold.Chemscore.Hbond>
2.1266

> <Gold.Chemscore.Metal>
0.0000

> <Gold.Chemscore.Lipo>
74.7145

> <Gold.Chemscore.Internal_Hbond>
0.0000

> <Gold.Chemscore.DEClash>
0.0181

> <Gold.Chemscore.DEInternal>
1.8865

> <Gold.Chemscore.Rot>
2.4465

> <Gold.Chemscore.Internal.Correction>
   9.000000E+99

> <Gold.Chemscore.Hbonds>
donor molecule, donor type, donor heavy atom, donor atom, acceptor molecule, acceptor atom, score
      L1  H     3    34       P1  8028  0.93
      L1  H    14    32       P1  7948  0.19
      P1  H  7989  7998       L1    15  0.91

> <Gold.Chemscore.Hbond.Weighted>
-7.1030

> <Gold.Chemscore.Metal.Weighted>
-0.0000

> <Gold.Chemscore.Lipo.Weighted>
-8.7416

> <Gold.Chemscore.Internal_Hbond.Weighted>
0.0000

> <Gold.Chemscore.DEClash.Weighted>
0.0181

> <Gold.Chemscore.DEInternal.Weighted>
1.8865

> <Gold.Chemscore.Rot.Weighted>
6.2631

> <Gold.Chemscore.Internal.Correction.Weighted>
   9.000000E+99

> <Gold.Protein.RotatedTorsions>
[ 6907 6896 6895 6894 ] final   80.09 input  -60.11 | X-H torsion
[ 7974 7965 7964 7962 ] final -145.21 input  175.53 | X-H torsion
[ 8008 7997 7996 7995 ] final  -53.38 input   59.86 | X-H torsion
[ 10167 10162 10161 10158 ] final   11.94 input  -65.29 | X-H torsion
[ 10718 10713 10712 10709 ] final  -12.78 input   66.30 | X-H torsion
[ 10763 10752 10751 10750 ] final  -19.29 input  -60.55 | X-H torsion
[ 11005 11000 10999 10996 ] final   93.84 input  -57.11 | X-H torsion

> <Gold.Protein.ActiveResidues>
 VAL166  LYS551  ARG553  GLY616  TRP617  ASP618  TYR619  PRO620  LYS621  CYS622 
 ASP623  PHE694  ASN695  SER759  ASP760  ASP761  ALA762  ILE779  LEU786  VAL792 
 PHE793  MET794  SER795  GLU796  ALA797  LYS798  CYS799  TRP800  GLU811  SER814 

> <Gold.Protein.RotatedAtoms>
  152.5222  134.3411  159.9217 H   0  0  0  0  0  0  0  0  0  0  0  0  # atno 6907 bound_to 6896
  151.3361  133.3975  159.2674 H   0  0  0  0  0  0  0  0  0  0  0  0  # atno 6908 bound_to 6896
  150.9841  134.9208  159.7919 H   0  0  0  0  0  0  0  0  0  0  0  0  # atno 6909 bound_to 6896
  144.8243  140.5612  143.5557 H   0  0  0  0  0  0  0  0  0  0  0  0  # atno 7974 bound_to 7965
  154.4132  140.1201  156.5144 H   0  0  0  0  0  0  0  0  0  0  0  0  # atno 8008 bound_to 7997
  155.6766  140.3496  155.4819 H   0  0  0  0  0  0  0  0  0  0  0  0  # atno 8009 bound_to 7997
  155.9587  140.1119  157.0904 H   0  0  0  0  0  0  0  0  0  0  0  0  # atno 8010 bound_to 7997
  140.6100  143.8428  150.7055 H   0  0  0  0  0  0  0  0  0  0  0  0  # atno 10167 bound_to 10162
  156.6397  130.4924  149.6099 H   0  0  0  0  0  0  0  0  0  0  0  0  # atno 10718 bound_to 10713
  153.6025  135.6999  153.5379 H   0  0  0  0  0  0  0  0  0  0  0  0  # atno 10763 bound_to 10752
  153.3085  135.4108  155.1315 H   0  0  0  0  0  0  0  0  0  0  0  0  # atno 10764 bound_to 10752
  154.8580  135.3666  154.5561 H   0  0  0  0  0  0  0  0  0  0  0  0  # atno 10765 bound_to 10752
  139.8805  134.8812  156.3776 H   0  0  0  0  0  0  0  0  0  0  0  0  # atno 11005 bound_to 11000
  145.5035  139.1482  143.3644 LP  0  0  0  0  0  0  0  0  0  0  0  0  # atno 17320 bound_to 7965
  146.2548  140.5175  142.8878 LP  0  0  0  0  0  0  0  0  0  0  0  0  # atno 17321 bound_to 7965
  140.1994  143.3972  152.1803 LP  0  0  0  0  0  0  0  0  0  0  0  0  # atno 17342 bound_to 10162
  139.5354  144.7204  151.4912 LP  0  0  0  0  0  0  0  0  0  0  0  0  # atno 17343 bound_to 10162
  156.2168  130.6713  151.1327 LP  0  0  0  0  0  0  0  0  0  0  0  0  # atno 17370 bound_to 10713
  157.7175  131.0701  150.6271 LP  0  0  0  0  0  0  0  0  0  0  0  0  # atno 17371 bound_to 10713
  140.9421  133.7508  156.0160 LP  0  0  0  0  0  0  0  0  0  0  0  0  # atno 17394 bound_to 11000
  140.8207  134.3292  157.5382 LP  0  0  0  0  0  0  0  0  0  0  0  0  # atno 17395 bound_to 11000

$$$$
