AV-unprocessed.smi:1205|AV-procd|sdf|5044|dock1
  -GOLD-   22720 4 63D 1   1.00000     0.00000
 Structure written by MMmdl.
 49 50  0  0  0  0  0  0  0  0  2 V2000
  143.7977  132.2389  149.6290 C   0  0  0  0  0  0  0  0  0  0  0  0
  144.7866  133.0109  150.4518 C   0  0  0  0  0  0  0  0  0  0  0  0
  144.8330  134.4175  150.6758 C   0  0  0  0  0  0  0  0  0  0  0  0
  145.9262  134.5581  151.4864 C   0  0  0  0  0  0  0  0  0  0  0  0
  146.4556  135.6946  152.0130 N   0  0  0  0  0  0  0  0  0  0  0  0
  145.8529  136.6363  152.7595 C   0  0  0  0  0  0  0  0  0  0  0  0
  144.6818  136.6080  153.1376 O   0  0  0  0  0  0  0  0  0  0  0  0
  146.6977  137.6367  153.0506 N   0  0  0  0  0  0  0  0  0  0  0  0
  146.3793  138.8088  153.8623 C   0  0  0  0  0  0  0  0  0  0  0  0
  147.3527  139.9897  153.6109 C   0  0  1  0  0  0  0  0  0  0  0  0
  146.7006  141.3733  153.7977 C   0  0  0  0  0  0  0  0  0  0  0  0
  148.6044  139.8980  154.4185 N   0  3  1  0  0  0  0  0  0  0  0  0
  149.4865  138.7414  154.1037 C   0  0  0  0  0  0  0  0  0  0  0  0
  150.5916  138.5976  155.1615 C   0  0  0  0  0  0  0  0  0  0  0  0
  151.4021  139.8962  155.2906 C   0  0  0  0  0  0  0  0  0  0  0  0
  150.4859  141.1088  155.5436 C   0  0  2  0  0  0  0  0  0  0  0  0
  149.9276  141.1454  156.9773 C   0  0  0  0  0  0  0  0  0  0  0  0
  149.3677  141.1735  154.4823 C   0  0  0  0  0  0  0  0  0  0  0  0
  146.4761  133.3141  151.7113 N   0  0  0  0  0  0  0  0  0  0  0  0
  147.6338  132.9319  152.4970 C   0  0  0  0  0  0  0  0  0  0  0  0
  145.7643  132.3608  151.0728 N   0  0  0  0  0  0  0  0  0  0  0  0
  143.1446  132.9078  149.0684 H   0  0  0  0  0  0  0  0  0  0  0  0
  143.1676  131.6115  150.2601 H   0  0  0  0  0  0  0  0  0  0  0  0
  144.3025  131.5917  148.9113 H   0  0  0  0  0  0  0  0  0  0  0  0
  144.1670  135.1764  150.2939 H   0  0  0  0  0  0  0  0  0  0  0  0
  147.4318  135.8470  151.8070 H   0  0  0  0  0  0  0  0  0  0  0  0
  147.6410  137.5751  152.6957 H   0  0  0  0  0  0  0  0  0  0  0  0
  145.3452  139.1089  153.6869 H   0  0  0  0  0  0  0  0  0  0  0  0
  146.4300  138.4956  154.9048 H   0  0  0  0  0  0  0  0  0  0  0  0
  147.6524  139.9485  152.5625 H   0  0  0  0  0  0  0  0  0  0  0  0
  145.9212  141.5484  153.0560 H   0  0  0  0  0  0  0  0  0  0  0  0
  147.4336  142.1724  153.6819 H   0  0  0  0  0  0  0  0  0  0  0  0
  146.2435  141.4793  154.7815 H   0  0  0  0  0  0  0  0  0  0  0  0
  148.9076  137.8192  154.0658 H   0  0  0  0  0  0  0  0  0  0  0  0
  149.9411  138.8733  153.1210 H   0  0  0  0  0  0  0  0  0  0  0  0
  150.1505  138.3344  156.1235 H   0  0  0  0  0  0  0  0  0  0  0  0
  151.2546  137.7740  154.8949 H   0  0  0  0  0  0  0  0  0  0  0  0
  152.1439  139.8029  156.0845 H   0  0  0  0  0  0  0  0  0  0  0  0
  151.9620  140.0580  154.3684 H   0  0  0  0  0  0  0  0  0  0  0  0
  151.0963  142.0058  155.4301 H   0  0  0  0  0  0  0  0  0  0  0  0
  149.2774  140.2954  157.1845 H   0  0  0  0  0  0  0  0  0  0  0  0
  149.3463  142.0522  157.1461 H   0  0  0  0  0  0  0  0  0  0  0  0
  150.7331  141.1333  157.7120 H   0  0  0  0  0  0  0  0  0  0  0  0
  149.8023  141.3857  153.5046 H   0  0  0  0  0  0  0  0  0  0  0  0
  148.6988  142.0039  154.7121 H   0  0  0  0  0  0  0  0  0  0  0  0
  148.2380  133.8057  152.7403 H   0  0  0  0  0  0  0  0  0  0  0  0
  148.2489  132.2293  151.9337 H   0  0  0  0  0  0  0  0  0  0  0  0
  147.3071  132.4575  153.4225 H   0  0  0  0  0  0  0  0  0  0  0  0
  148.2853  139.7438  155.3644 H   0  0  0  0  0  0  0  0  0  0  0  0
  1  2  1  0  0  0  0
  1 22  1  0  0  0  0
  1 23  1  0  0  0  0
  1 24  1  0  0  0  0
  2 21  2  0  0  0  0
  2  3  1  0  0  0  0
  3  4  2  0  0  0  0
  3 25  1  0  0  0  0
  4  5  1  0  0  0  0
  4 19  1  0  0  0  0
  5  6  1  0  0  0  0
  5 26  1  0  0  0  0
  6  7  2  0  0  0  0
  6  8  1  0  0  0  0
  8  9  1  0  0  0  0
  8 27  1  0  0  0  0
  9 10  1  0  0  0  0
  9 28  1  0  0  0  0
  9 29  1  0  0  0  0
 10 11  1  0  0  0  0
 10 12  1  0  0  0  0
 10 30  1  0  0  0  0
 11 31  1  0  0  0  0
 11 32  1  0  0  0  0
 11 33  1  0  0  0  0
 12 18  1  0  0  0  0
 12 13  1  0  0  0  0
 12 49  1  0  0  0  0
 13 14  1  0  0  0  0
 13 34  1  0  0  0  0
 13 35  1  0  0  0  0
 14 15  1  0  0  0  0
 14 36  1  0  0  0  0
 14 37  1  0  0  0  0
 15 16  1  0  0  0  0
 15 38  1  0  0  0  0
 15 39  1  0  0  0  0
 16 17  1  0  0  0  0
 16 18  1  0  0  0  0
 16 40  1  0  0  0  0
 17 41  1  0  0  0  0
 17 42  1  0  0  0  0
 17 43  1  0  0  0  0
 18 44  1  0  0  0  0
 18 45  1  0  0  0  0
 19 20  1  0  0  0  0
 19 21  1  0  0  0  0
 20 46  1  0  0  0  0
 20 47  1  0  0  0  0
 20 48  1  0  0  0  0
M  CHG  1  12   1
M  END
> <s_m_source_file>
AV-unprocessed.smi

> <i_m_source_file_index>
1205

> <i_lp_mmshare_version>
43012

> <i_f3d_flags>
0

> <s_epik_input>
W0NIM11jMVtjSF1jKG4objEpW0NIM10pW05IXUMoPU8pW05IXVtDSDJdW0NASF0oW0NIM10pTjJbQ0gyXVtDSDJdW0NIMl1bQ0BASF0oW0NIM10pW0NIMl0y

> <s_epik_cmdline>
J2VwaWtfcHl0aG9uJywgJy1waCcsICc3LjAnLCAnLXRuJywgJzgnLCAnLW1hJywgJzIwMCcsICctbWV0YWxfYmluZGluZycsICctaW1hZScsICc8aW5maWxlLm1hZT4nLCAnLW9tYWUnLCAnPG91dGZpbGUubWFlPic=

> <r_lp_tautomer_probability>
1

> <r_epik_Ionization_Penalty>
0.0020309

> <r_epik_Ionization_Penalty_Charging>
0.00195276

> <r_epik_Ionization_Penalty_Neutral>
7.81448e-05

> <r_epik_State_Penalty>
0.00133177

> <r_epik_Charging_Adjusted_Penalty>
0.00328452

> <i_epik_Tot_Q>
1

> <i_epik_Tot_abs_Q>
1

> <r_epik_Metal_State_Penalty>
-0

> <b_epik_Metal_Only>
0

> <s_lp_Force_Field>
OPLS_2005

> <r_lp_Energy>
25.114

> <b_lp_Chiralities_Consistent>
1

> <s_lp_Variant>
AV-unprocessed.smi:1205-6

> <Gold.Version>
5.8.1

> <Gold.Id.Protein>
6NUR|6NUR_protein|mol2

> <Gold.PLP.Fitness>
42.3188

> <Gold.PLP.PLP>
-38.9982

> <Gold.PLP.part.hbond>
-1.9745

> <Gold.PLP.part.metal>
0.0000

> <Gold.PLP.part.buried>
-1.8537

> <Gold.PLP.part.nonpolar>
-34.9316

> <Gold.PLP.part.repulsive>
0.4335

> <Gold.PLP.ligand.clash>
0.0000

> <Gold.PLP.ligand.torsion>
1.2085

> <Gold.PLP.Chemscore.Hbond>
1.8320

> <Gold.PLP.Chemscore.CHOScore>
0.0000

> <Gold.PLP.Chemscore.Metal>
0.0000

> <Gold.Chemscore.Hbonds>
donor molecule, donor type, donor heavy atom, donor atom, acceptor molecule, acceptor atom, score
      L1  H     5    26       P1  7948  1.00
      L1  H     8    27       P1  7948  0.80

> <Gold.PLP.Chemscore.Internal.Correction>
0.2416

> <Gold.Rescore>
     Score         DG    S(hbond)    S(metal)    S(lipo)     H(rot)  DE(clash)    DE(int)     intcor
     16.45     -17.85       1.86        0.00      84.71       1.47       0.18       1.21       ----

> <Gold.Chemscore.Fitness>
16.4532

> <Gold.Chemscore.DG>
-17.8484

> <Gold.Chemscore.ZeroCoef>
-5.4800

> <Gold.Chemscore.Hbond>
1.8592

> <Gold.Chemscore.Metal>
0.0000

> <Gold.Chemscore.Lipo>
84.7124

> <Gold.Chemscore.Internal_Hbond>
0.0000

> <Gold.Chemscore.DEClash>
0.1842

> <Gold.Chemscore.DEInternal>
1.2109

> <Gold.Chemscore.Rot>
1.4658

> <Gold.Chemscore.Internal.Correction>
   9.000000E+99

> <Gold.Chemscore.Hbonds>
donor molecule, donor type, donor heavy atom, donor atom, acceptor molecule, acceptor atom, score
      L1  H     5    26       P1  7948  0.93
      L1  H     8    27       P1  7948  0.76

> <Gold.Chemscore.Hbond.Weighted>
-6.2096

> <Gold.Chemscore.Metal.Weighted>
-0.0000

> <Gold.Chemscore.Lipo.Weighted>
-9.9114

> <Gold.Chemscore.Internal_Hbond.Weighted>
0.0000

> <Gold.Chemscore.DEClash.Weighted>
0.1842

> <Gold.Chemscore.DEInternal.Weighted>
1.2109

> <Gold.Chemscore.Rot.Weighted>
3.7526

> <Gold.Chemscore.Internal.Correction.Weighted>
   9.000000E+99

> <Gold.Protein.RotatedTorsions>
[ 6907 6896 6895 6894 ] final   50.38 input  -60.11 | X-H torsion
[ 7974 7965 7964 7962 ] final -119.54 input  175.53 | X-H torsion
[ 8008 7997 7996 7995 ] final  153.24 input   59.86 | X-H torsion
[ 10167 10162 10161 10158 ] final -149.75 input  -65.29 | X-H torsion
[ 10718 10713 10712 10709 ] final -130.65 input   66.30 | X-H torsion
[ 10763 10752 10751 10750 ] final  -69.55 input  -60.55 | X-H torsion
[ 11005 11000 10999 10996 ] final -139.99 input  -57.11 | X-H torsion

> <Gold.Protein.ActiveResidues>
 VAL166  LYS551  ARG553  GLY616  TRP617  ASP618  TYR619  PRO620  LYS621  CYS622 
 ASP623  PHE694  ASN695  SER759  ASP760  ASP761  ALA762  ILE779  LEU786  VAL792 
 PHE793  MET794  SER795  GLU796  ALA797  LYS798  CYS799  TRP800  GLU811  SER814 

> <Gold.Protein.RotatedAtoms>
  152.3011  134.7609  160.0357 H   0  0  0  0  0  0  0  0  0  0  0  0  # atno 6907 bound_to 6896
  151.8122  133.3378  159.3567 H   0  0  0  0  0  0  0  0  0  0  0  0  # atno 6908 bound_to 6896
  150.7274  134.5582  159.5873 H   0  0  0  0  0  0  0  0  0  0  0  0  # atno 6909 bound_to 6896
  145.0614  140.8293  143.4150 H   0  0  0  0  0  0  0  0  0  0  0  0  # atno 7974 bound_to 7965
  156.2591  140.1999  156.6459 H   0  0  0  0  0  0  0  0  0  0  0  0  # atno 8008 bound_to 7997
  154.6574  140.0565  157.0048 H   0  0  0  0  0  0  0  0  0  0  0  0  # atno 8009 bound_to 7997
  155.1327  140.3235  155.4473 H   0  0  0  0  0  0  0  0  0  0  0  0  # atno 8010 bound_to 7997
  139.7415  143.8655  152.2563 H   0  0  0  0  0  0  0  0  0  0  0  0  # atno 10167 bound_to 10162
  156.2166  130.6952  151.0709 H   0  0  0  0  0  0  0  0  0  0  0  0  # atno 10718 bound_to 10713
  154.4050  135.6022  153.5919 H   0  0  0  0  0  0  0  0  0  0  0  0  # atno 10763 bound_to 10752
  152.9789  135.5915  154.4139 H   0  0  0  0  0  0  0  0  0  0  0  0  # atno 10764 bound_to 10752
  154.3943  135.2842  155.2114 H   0  0  0  0  0  0  0  0  0  0  0  0  # atno 10765 bound_to 10752
  140.8466  134.2337  157.4783 H   0  0  0  0  0  0  0  0  0  0  0  0  # atno 11005 bound_to 11000
  145.1404  139.2576  143.5493 LP  0  0  0  0  0  0  0  0  0  0  0  0  # atno 17320 bound_to 7965
  146.3524  140.1080  142.8605 LP  0  0  0  0  0  0  0  0  0  0  0  0  # atno 17321 bound_to 7965
  139.8607  144.7118  150.9103 LP  0  0  0  0  0  0  0  0  0  0  0  0  # atno 17342 bound_to 10162
  140.7786  143.3820  151.1460 LP  0  0  0  0  0  0  0  0  0  0  0  0  # atno 17343 bound_to 10162
  157.7066  131.0753  150.6645 LP  0  0  0  0  0  0  0  0  0  0  0  0  # atno 17370 bound_to 10713
  156.6707  130.4538  149.5658 LP  0  0  0  0  0  0  0  0  0  0  0  0  # atno 17371 bound_to 10713
  139.8703  134.9662  156.4555 LP  0  0  0  0  0  0  0  0  0  0  0  0  # atno 17394 bound_to 11000
  140.8837  133.7899  155.9495 LP  0  0  0  0  0  0  0  0  0  0  0  0  # atno 17395 bound_to 11000

$$$$
