AV-unprocessed.smi:287|AV-procd|sdf|2204|dock9
  -GOLD-   2262022 23D 1   1.00000     0.00000
 Structure written by MMmdl.
 55 58  0  0  0  0  0  0  0  0  1 V2000
  153.9533  141.5667  160.5274 C   0  0  0  0  0  0  0  0  0  0  0  0
  152.8305  141.5160  159.5489 C   0  0  0  0  0  0  0  0  0  0  0  0
  152.3819  140.5703  158.6736 C   0  0  0  0  0  0  0  0  0  0  0  0
  151.2439  141.1135  158.0050 C   0  0  0  0  0  0  0  0  0  0  0  0
  150.4141  140.4177  156.9343 C   0  0  2  0  0  0  0  0  0  0  0  0
  151.2805  140.1665  155.6891 C   0  0  0  0  0  0  0  0  0  0  0  0
  149.3280  141.2052  156.4850 O   0  0  0  0  0  0  0  0  0  0  0  0
  149.8004  139.0885  157.4308 C   0  0  0  0  0  0  0  0  0  0  0  0
  148.7420  138.5931  156.5603 N   0  0  0  0  0  0  0  0  0  0  0  0
  148.7482  137.3226  156.1052 C   0  0  0  0  0  0  0  0  0  0  0  0
  149.8392  136.5940  156.4389 N   0  0  0  0  0  0  0  0  0  0  0  0
  149.9500  135.3280  156.0313 C   0  0  0  0  0  0  0  0  0  0  0  0
  149.0973  134.6125  155.2980 N   0  0  0  0  0  0  0  0  0  0  0  0
  147.9859  135.3307  154.9611 C   0  0  0  0  0  0  0  0  0  0  0  0
  147.7391  136.6893  155.3186 C   0  0  0  0  0  0  0  0  0  0  0  0
  146.5214  137.0895  154.7817 N   0  0  0  0  0  0  0  0  0  0  0  0
  146.0859  136.0377  154.1459 C   0  0  0  0  0  0  0  0  0  0  0  0
  146.8865  134.9193  154.2259 N   0  0  0  0  0  0  0  0  0  0  0  0
  146.6490  133.5832  153.5709 C   0  0  1  0  0  0  0  0  0  0  0  0
  145.4097  133.5973  152.9321 O   0  0  0  0  0  0  0  0  0  0  0  0
  145.5817  134.0129  151.5837 C   0  0  2  0  0  0  0  0  0  0  0  0
  144.3269  133.7195  150.7431 C   0  0  0  0  0  0  0  0  0  0  0  0
  143.1669  134.0655  151.4696 O   0  0  0  0  0  0  0  0  0  0  0  0
  146.8464  133.2389  151.1936 C   0  0  2  0  0  0  0  0  0  0  0  0
  146.5264  131.9015  150.8444 O   0  0  0  0  0  0  0  0  0  0  0  0
  147.6963  133.3331  152.4634 C   0  0  2  0  0  0  0  0  0  0  0  0
  148.4853  132.1792  152.6885 O   0  0  0  0  0  0  0  0  0  0  0  0
  151.1014  142.3764  158.5276 C   0  0  0  0  0  0  0  0  0  0  0  0
  150.1480  143.4986  158.2811 C   0  0  0  0  0  0  0  0  0  0  0  0
  152.0557  142.6262  159.4669 O   0  0  0  0  0  0  0  0  0  0  0  0
  146.6686  132.8680  154.3940 H   0  0  0  0  0  0  0  0  0  0  0  0
  145.8077  135.0812  151.5594 H   0  0  0  0  0  0  0  0  0  0  0  0
  147.3494  133.6975  150.3417 H   0  0  0  0  0  0  0  0  0  0  0  0
  148.3592  134.1943  152.3759 H   0  0  0  0  0  0  0  0  0  0  0  0
  154.3693  140.5730  160.6941 H   0  0  0  0  0  0  0  0  0  0  0  0
  153.6138  141.9554  161.4878 H   0  0  0  0  0  0  0  0  0  0  0  0
  154.7528  142.2124  160.1637 H   0  0  0  0  0  0  0  0  0  0  0  0
  152.8184  139.5929  158.5313 H   0  0  0  0  0  0  0  0  0  0  0  0
  152.1324  139.5269  155.9233 H   0  0  0  0  0  0  0  0  0  0  0  0
  151.6732  141.1003  155.2841 H   0  0  0  0  0  0  0  0  0  0  0  0
  150.7119  139.6768  154.8973 H   0  0  0  0  0  0  0  0  0  0  0  0
  148.8489  141.5135  157.2387 H   0  0  0  0  0  0  0  0  0  0  0  0
  150.5729  138.3287  157.5582 H   0  0  0  0  0  0  0  0  0  0  0  0
  149.3579  139.2600  158.4130 H   0  0  0  0  0  0  0  0  0  0  0  0
  148.0165  139.2586  156.3337 H   0  0  0  0  0  0  0  0  0  0  0  0
  150.8494  134.8137  156.3364 H   0  0  0  0  0  0  0  0  0  0  0  0
  145.1543  136.0500  153.5990 H   0  0  0  0  0  0  0  0  0  0  0  0
  144.3348  134.3213  149.8340 H   0  0  0  0  0  0  0  0  0  0  0  0
  144.2849  132.6724  150.4420 H   0  0  0  0  0  0  0  0  0  0  0  0
  142.4317  134.0733  150.8760 H   0  0  0  0  0  0  0  0  0  0  0  0
  147.3313  131.4092  150.7876 H   0  0  0  0  0  0  0  0  0  0  0  0
  148.6926  131.7886  151.8534 H   0  0  0  0  0  0  0  0  0  0  0  0
  150.1171  143.7529  157.2217 H   0  0  0  0  0  0  0  0  0  0  0  0
  150.4398  144.3929  158.8322 H   0  0  0  0  0  0  0  0  0  0  0  0
  149.1408  143.2246  158.5949 H   0  0  0  0  0  0  0  0  0  0  0  0
  1  2  1  0  0  0  0
  1 35  1  0  0  0  0
  1 36  1  0  0  0  0
  1 37  1  0  0  0  0
  2 30  1  0  0  0  0
  2  3  2  0  0  0  0
  3  4  1  0  0  0  0
  3 38  1  0  0  0  0
  4  5  1  0  0  0  0
  4 28  2  0  0  0  0
  5  6  1  0  0  0  0
  5  7  1  0  0  0  0
  5  8  1  0  0  0  0
  6 39  1  0  0  0  0
  6 40  1  0  0  0  0
  6 41  1  0  0  0  0
  7 42  1  0  0  0  0
  8  9  1  0  0  0  0
  8 43  1  0  0  0  0
  8 44  1  0  0  0  0
  9 10  1  0  0  0  0
  9 45  1  0  0  0  0
 10 15  1  0  0  0  0
 10 11  2  0  0  0  0
 11 12  1  0  0  0  0
 12 13  2  0  0  0  0
 12 46  1  0  0  0  0
 13 14  1  0  0  0  0
 14 18  1  0  0  0  0
 14 15  2  0  0  0  0
 15 16  1  0  0  0  0
 16 17  2  0  0  0  0
 17 18  1  0  0  0  0
 17 47  1  0  0  0  0
 18 19  1  0  0  0  0
 19 31  1  0  0  0  0
 19 26  1  0  0  0  0
 19 20  1  0  0  0  0
 20 21  1  0  0  0  0
 21 32  1  0  0  0  0
 21 22  1  0  0  0  0
 21 24  1  0  0  0  0
 22 23  1  0  0  0  0
 22 48  1  0  0  0  0
 22 49  1  0  0  0  0
 23 50  1  0  0  0  0
 24 33  1  0  0  0  0
 24 25  1  0  0  0  0
 24 26  1  0  0  0  0
 25 51  1  0  0  0  0
 26 34  1  0  0  0  0
 26 27  1  0  0  0  0
 27 52  1  0  0  0  0
 28 29  1  0  0  0  0
 28 30  1  0  0  0  0
 29 53  1  0  0  0  0
 29 54  1  0  0  0  0
 29 55  1  0  0  0  0
M  END
> <s_m_source_file>
AV-unprocessed.smi

> <i_m_source_file_index>
287

> <i_lp_mmshare_version>
43012

> <i_f3d_flags>
0

> <s_epik_input>
W0NIM11jMVtjSF1jKGMobzEpW0NIM10pW0NAQF0oW0NIM10pKFtPSF0pW0NIMl1bTkhdYyhuW2NIXW4yKWMoYzIzKW5bY0hdbjNbQ0BASF00T1tDQEhdKFtDSDJdW09IXSlbQ0BASF0oW09IXSlbQ0BIXTRbT0hd

> <s_epik_cmdline>
J2VwaWtfcHl0aG9uJywgJy1waCcsICc3LjAnLCAnLXRuJywgJzgnLCAnLW1hJywgJzIwMCcsICctbWV0YWxfYmluZGluZycsICctaW1hZScsICc8aW5maWxlLm1hZT4nLCAnLW9tYWUnLCAnPG91dGZpbGUubWFlPic=

> <r_lp_tautomer_probability>
1

> <r_epik_Ionization_Penalty>
0.000992612

> <r_epik_Ionization_Penalty_Charging>
0

> <r_epik_Ionization_Penalty_Neutral>
0.000992612

> <r_epik_State_Penalty>
-0

> <r_epik_Charging_Adjusted_Penalty>
0

> <i_epik_Tot_Q>
0

> <i_epik_Tot_abs_Q>
0

> <r_epik_Metal_State_Penalty>
-0

> <b_epik_Metal_Only>
0

> <s_epik_Chemistry_Notes>
This compound contains an acetal/aminal-like group ( X-CH(R)-Y where X, Y are N, S, or O) that may be acid/base labile, releasing an aldehyde.

> <s_lp_Force_Field>
OPLS_2005

> <r_lp_Energy>
48.2808

> <b_lp_Chiralities_Consistent>
1

> <s_lp_Variant>
AV-unprocessed.smi:287-28

> <Gold.Version>
5.8.1

> <Gold.Id.Protein>
6NUR|6NUR_protein|mol2

> <Gold.PLP.Fitness>
46.1459

> <Gold.PLP.PLP>
-38.0241

> <Gold.PLP.part.hbond>
-3.0000

> <Gold.PLP.part.metal>
0.0000

> <Gold.PLP.part.buried>
-7.3434

> <Gold.PLP.part.nonpolar>
-28.6781

> <Gold.PLP.part.repulsive>
0.2530

> <Gold.PLP.ligand.clash>
0.0000

> <Gold.PLP.ligand.torsion>
0.4853

> <Gold.PLP.Chemscore.Hbond>
3.0000

> <Gold.PLP.Chemscore.CHOScore>
0.0000

> <Gold.PLP.Chemscore.Metal>
0.0000

> <Gold.Chemscore.Hbonds>
donor molecule, donor type, donor heavy atom, donor atom, acceptor molecule, acceptor atom, score
      L1  H    23    50       P1 10186  1.00
      L1  H    25    51       P1 10747  1.00
      L1  H    27    52       P1 10747  1.00

> <Gold.PLP.Chemscore.Internal.Correction>
0.0924

> <Gold.Rescore>
     Score         DG    S(hbond)    S(metal)    S(lipo)     H(rot)  DE(clash)    DE(int)     intcor
     10.10     -11.76       2.88        0.00      86.82       5.27       0.11       1.55       ----

> <Gold.Chemscore.Fitness>
10.0991

> <Gold.Chemscore.DG>
-11.7568

> <Gold.Chemscore.ZeroCoef>
-5.4800

> <Gold.Chemscore.Hbond>
2.8750

> <Gold.Chemscore.Metal>
0.0000

> <Gold.Chemscore.Lipo>
86.8216

> <Gold.Chemscore.Internal_Hbond>
0.0000

> <Gold.Chemscore.DEClash>
0.1055

> <Gold.Chemscore.DEInternal>
1.5522

> <Gold.Chemscore.Rot>
5.2672

> <Gold.Chemscore.Internal.Correction>
   9.000000E+99

> <Gold.Chemscore.Hbonds>
donor molecule, donor type, donor heavy atom, donor atom, acceptor molecule, acceptor atom, score
      L1  H    23    50       P1 10186  0.44
      L1  H    25    51       P1 10747  1.00
      L1  H    27    52       P1 10747  0.98

> <Gold.Chemscore.Hbond.Weighted>
-9.6026

> <Gold.Chemscore.Metal.Weighted>
-0.0000

> <Gold.Chemscore.Lipo.Weighted>
-10.1581

> <Gold.Chemscore.Internal_Hbond.Weighted>
0.0000

> <Gold.Chemscore.DEClash.Weighted>
0.1055

> <Gold.Chemscore.DEInternal.Weighted>
1.5522

> <Gold.Chemscore.Rot.Weighted>
13.4839

> <Gold.Chemscore.Internal.Correction.Weighted>
   9.000000E+99

> <Gold.Protein.RotatedTorsions>
[ 6907 6896 6895 6894 ] final   41.24 input  -60.11 | X-H torsion
[ 7974 7965 7964 7962 ] final  -57.87 input  175.53 | X-H torsion
[ 8008 7997 7996 7995 ] final  -57.66 input   59.86 | X-H torsion
[ 10167 10162 10161 10158 ] final   25.99 input  -65.29 | X-H torsion
[ 10718 10713 10712 10709 ] final   20.78 input   66.30 | X-H torsion
[ 10763 10752 10751 10750 ] final -110.82 input  -60.55 | X-H torsion
[ 11005 11000 10999 10996 ] final   88.09 input  -57.11 | X-H torsion

> <Gold.Protein.ActiveResidues>
 VAL166  LYS551  ARG553  GLY616  TRP617  ASP618  TYR619  PRO620  LYS621  CYS622 
 ASP623  PHE694  ASN695  SER759  ASP760  ASP761  ALA762  ILE779  LEU786  VAL792 
 PHE793  MET794  SER795  GLU796  ALA797  LYS798  CYS799  TRP800  GLU811  SER814 

> <Gold.Protein.RotatedAtoms>
  152.1928  134.8657  160.0515 H   0  0  0  0  0  0  0  0  0  0  0  0  # atno 6907 bound_to 6896
  151.9539  133.3669  159.4018 H   0  0  0  0  0  0  0  0  0  0  0  0  # atno 6908 bound_to 6896
  150.6938  134.4235  159.5259 H   0  0  0  0  0  0  0  0  0  0  0  0  # atno 6909 bound_to 6896
  145.8460  140.8385  143.0010 H   0  0  0  0  0  0  0  0  0  0  0  0  # atno 7974 bound_to 7965
  154.4277  140.1102  156.5832 H   0  0  0  0  0  0  0  0  0  0  0  0  # atno 8008 bound_to 7997
  155.6090  140.3494  155.4597 H   0  0  0  0  0  0  0  0  0  0  0  0  # atno 8009 bound_to 7997
  156.0114  140.1220  157.0439 H   0  0  0  0  0  0  0  0  0  0  0  0  # atno 8010 bound_to 7997
  140.5060  144.0238  150.6352 H   0  0  0  0  0  0  0  0  0  0  0  0  # atno 10167 bound_to 10162
  157.1293  130.6584  149.5947 H   0  0  0  0  0  0  0  0  0  0  0  0  # atno 10718 bound_to 10713
  154.8268  135.4550  154.0944 H   0  0  0  0  0  0  0  0  0  0  0  0  # atno 10763 bound_to 10752
  153.2251  135.6899  153.7960 H   0  0  0  0  0  0  0  0  0  0  0  0  # atno 10764 bound_to 10752
  153.7363  135.3319  155.3272 H   0  0  0  0  0  0  0  0  0  0  0  0  # atno 10765 bound_to 10752
  139.8904  134.8465  156.2951 H   0  0  0  0  0  0  0  0  0  0  0  0  # atno 11005 bound_to 11000
  144.6731  140.0882  143.7466 LP  0  0  0  0  0  0  0  0  0  0  0  0  # atno 17320 bound_to 7965
  145.9412  139.2670  143.1268 LP  0  0  0  0  0  0  0  0  0  0  0  0  # atno 17321 bound_to 7965
  140.3547  143.2942  152.0449 LP  0  0  0  0  0  0  0  0  0  0  0  0  # atno 17342 bound_to 10162
  139.4884  144.6347  151.6998 LP  0  0  0  0  0  0  0  0  0  0  0  0  # atno 17343 bound_to 10162
  155.9811  130.4817  150.6811 LP  0  0  0  0  0  0  0  0  0  0  0  0  # atno 17370 bound_to 10713
  157.4407  131.0861  151.0947 LP  0  0  0  0  0  0  0  0  0  0  0  0  # atno 17371 bound_to 10713
  140.9950  133.7185  156.0872 LP  0  0  0  0  0  0  0  0  0  0  0  0  # atno 17394 bound_to 11000
  140.7574  134.3977  157.5531 LP  0  0  0  0  0  0  0  0  0  0  0  0  # atno 17395 bound_to 11000

$$$$
