AV-unprocessed.smi:2911|AV-procd|sdf|11178|dock10
  -GOLD-   2272016 73D 1   1.00000     0.00000
 Structure written by MMmdl.
 41 42  0  0  0  0  0  0  0  0  1 V2000
  147.1868  136.2939  162.3277 C   0  0  0  0  0  0  0  0  0  0  0  0
  148.0315  136.1793  161.1052 C   0  0  0  0  0  0  0  0  0  0  0  0
  148.0709  135.0573  160.3968 N   0  0  0  0  0  0  0  0  0  0  0  0
  148.9689  135.3595  159.3629 O   0  0  0  0  0  0  0  0  0  0  0  0
  149.3512  136.6426  159.5686 C   0  0  0  0  0  0  0  0  0  0  0  0
  150.3557  137.2514  158.6486 C   0  0  0  0  0  0  0  0  0  0  0  0
  149.9298  138.6429  158.1539 C   0  0  0  0  0  0  0  0  0  0  0  0
  150.7959  139.6902  158.6835 N   0  0  0  0  0  0  0  0  0  0  0  0
  150.6935  141.0009  158.4039 C   0  0  0  0  0  0  0  0  0  0  0  0
  149.8097  141.4377  157.6648 O   0  0  0  0  0  0  0  0  0  0  0  0
  151.5928  141.7955  159.0437 N   0  0  0  0  0  0  0  0  0  0  0  0
  152.9060  141.3464  159.5564 C   0  0  0  0  0  0  0  0  0  0  0  0
  153.0772  141.7322  161.0325 C   0  0  0  0  0  0  0  0  0  0  0  0
  152.9291  143.2494  161.2215 C   0  0  2  0  0  0  0  0  0  0  0  0
  153.0699  143.6525  162.6959 C   0  0  0  0  0  0  0  0  0  0  0  0
  151.5894  143.7196  160.6301 C   0  0  0  0  0  0  0  0  0  0  0  0
  151.3653  143.2514  159.1751 C   0  0  1  0  0  0  0  0  0  0  0  0
  152.1622  144.0500  158.1274 C   0  0  0  0  0  0  0  0  0  0  0  0
  148.8130  137.1976  160.6517 N   0  0  0  0  0  0  0  0  0  0  0  0
  146.3453  135.6015  162.2828 H   0  0  0  0  0  0  0  0  0  0  0  0
  146.7927  137.3058  162.4247 H   0  0  0  0  0  0  0  0  0  0  0  0
  147.7778  136.0652  163.2147 H   0  0  0  0  0  0  0  0  0  0  0  0
  151.3110  137.3138  159.1709 H   0  0  0  0  0  0  0  0  0  0  0  0
  150.5039  136.5765  157.8046 H   0  0  0  0  0  0  0  0  0  0  0  0
  149.9229  138.6765  157.0630 H   0  0  0  0  0  0  0  0  0  0  0  0
  148.9103  138.8549  158.4772 H   0  0  0  0  0  0  0  0  0  0  0  0
  151.5268  139.3999  159.3168 H   0  0  0  0  0  0  0  0  0  0  0  0
  153.0805  140.2753  159.4594 H   0  0  0  0  0  0  0  0  0  0  0  0
  153.6932  141.8095  158.9616 H   0  0  0  0  0  0  0  0  0  0  0  0
  152.3376  141.2043  161.6364 H   0  0  0  0  0  0  0  0  0  0  0  0
  154.0562  141.4072  161.3859 H   0  0  0  0  0  0  0  0  0  0  0  0
  153.7336  143.7381  160.6706 H   0  0  0  0  0  0  0  0  0  0  0  0
  152.2928  143.1946  163.3085 H   0  0  0  0  0  0  0  0  0  0  0  0
  152.9950  144.7336  162.8159 H   0  0  0  0  0  0  0  0  0  0  0  0
  154.0354  143.3425  163.0965 H   0  0  0  0  0  0  0  0  0  0  0  0
  150.7784  143.3293  161.2470 H   0  0  0  0  0  0  0  0  0  0  0  0
  151.5131  144.8061  160.6875 H   0  0  0  0  0  0  0  0  0  0  0  0
  150.3168  143.4787  158.9765 H   0  0  0  0  0  0  0  0  0  0  0  0
  151.9107  145.1098  158.1749 H   0  0  0  0  0  0  0  0  0  0  0  0
  151.9359  143.7058  157.1178 H   0  0  0  0  0  0  0  0  0  0  0  0
  153.2383  143.9647  158.2751 H   0  0  0  0  0  0  0  0  0  0  0  0
  1  2  1  0  0  0  0
  1 20  1  0  0  0  0
  1 21  1  0  0  0  0
  1 22  1  0  0  0  0
  2 19  1  0  0  0  0
  2  3  2  0  0  0  0
  3  4  1  0  0  0  0
  4  5  1  0  0  0  0
  5  6  1  0  0  0  0
  5 19  2  0  0  0  0
  6  7  1  0  0  0  0
  6 23  1  0  0  0  0
  6 24  1  0  0  0  0
  7  8  1  0  0  0  0
  7 25  1  0  0  0  0
  7 26  1  0  0  0  0
  8  9  1  0  0  0  0
  8 27  1  0  0  0  0
  9 10  2  0  0  0  0
  9 11  1  0  0  0  0
 11 17  1  0  0  0  0
 11 12  1  0  0  0  0
 12 13  1  0  0  0  0
 12 28  1  0  0  0  0
 12 29  1  0  0  0  0
 13 14  1  0  0  0  0
 13 30  1  0  0  0  0
 13 31  1  0  0  0  0
 14 15  1  0  0  0  0
 14 16  1  0  0  0  0
 14 32  1  0  0  0  0
 15 33  1  0  0  0  0
 15 34  1  0  0  0  0
 15 35  1  0  0  0  0
 16 17  1  0  0  0  0
 16 36  1  0  0  0  0
 16 37  1  0  0  0  0
 17 18  1  0  0  0  0
 17 38  1  0  0  0  0
 18 39  1  0  0  0  0
 18 40  1  0  0  0  0
 18 41  1  0  0  0  0
M  END
> <s_m_source_file>
AV-unprocessed.smi

> <i_m_source_file_index>
2911

> <i_lp_mmshare_version>
43012

> <i_f3d_flags>
0

> <s_epik_input>
W0NIM11jMW5vYyhuMSlbQ0gyXVtDSDJdW05IXUMoPU8pTjJbQ0gyXVtDSDJdW0NAQEhdKFtDSDNdKVtDSDJdW0NASF0yW0NIM10=

> <s_epik_cmdline>
J2VwaWtfcHl0aG9uJywgJy1waCcsICc3LjAnLCAnLXRuJywgJzgnLCAnLW1hJywgJzIwMCcsICctbWV0YWxfYmluZGluZycsICctaW1hZScsICc8aW5maWxlLm1hZT4nLCAnLW9tYWUnLCAnPG91dGZpbGUubWFlPic=

> <r_lp_tautomer_probability>
1

> <r_epik_Ionization_Penalty>
6.61671e-05

> <r_epik_Ionization_Penalty_Charging>
0

> <r_epik_Ionization_Penalty_Neutral>
6.61671e-05

> <r_epik_State_Penalty>
-0

> <r_epik_Charging_Adjusted_Penalty>
0

> <i_epik_Tot_Q>
0

> <i_epik_Tot_abs_Q>
0

> <r_epik_Metal_State_Penalty>
-0

> <b_epik_Metal_Only>
0

> <s_lp_Force_Field>
OPLS_2005

> <r_lp_Energy>
30.9139

> <b_lp_Chiralities_Consistent>
1

> <s_lp_Variant>
AV-unprocessed.smi:2911-2

> <Gold.Version>
5.8.1

> <Gold.Id.Protein>
6NUR|6NUR_protein|mol2

> <Gold.PLP.Fitness>
42.9729

> <Gold.PLP.PLP>
-39.1094

> <Gold.PLP.part.hbond>
-2.8341

> <Gold.PLP.part.metal>
0.0000

> <Gold.PLP.part.buried>
-5.5075

> <Gold.PLP.part.nonpolar>
-31.3133

> <Gold.PLP.part.repulsive>
0.2430

> <Gold.PLP.ligand.clash>
0.0000

> <Gold.PLP.ligand.torsion>
0.6451

> <Gold.PLP.Chemscore.Hbond>
1.7107

> <Gold.PLP.Chemscore.CHOScore>
0.0000

> <Gold.PLP.Chemscore.Metal>
0.0000

> <Gold.Chemscore.Hbonds>
donor molecule, donor type, donor heavy atom, donor atom, acceptor molecule, acceptor atom, score
      P1  H  6896  6909       L1     4  0.99
      P1  H  6931  6943       L1    19  0.72

> <Gold.PLP.Chemscore.Internal.Correction>
0.0217

> <Gold.Rescore>
     Score         DG    S(hbond)    S(metal)    S(lipo)     H(rot)  DE(clash)    DE(int)     intcor
     15.71     -16.53       1.24        0.00      94.21       1.61       0.26       0.56       ----

> <Gold.Chemscore.Fitness>
15.7105

> <Gold.Chemscore.DG>
-16.5279

> <Gold.Chemscore.ZeroCoef>
-5.4800

> <Gold.Chemscore.Hbond>
1.2407

> <Gold.Chemscore.Metal>
0.0000

> <Gold.Chemscore.Lipo>
94.2118

> <Gold.Chemscore.Internal_Hbond>
0.0000

> <Gold.Chemscore.DEClash>
0.2589

> <Gold.Chemscore.DEInternal>
0.5586

> <Gold.Chemscore.Rot>
1.6088

> <Gold.Chemscore.Internal.Correction>
   9.000000E+99

> <Gold.Chemscore.Hbonds>
donor molecule, donor type, donor heavy atom, donor atom, acceptor molecule, acceptor atom, score
      P1  H  6896  6909       L1     4  0.35
      P1  H  6931  6943       L1    19  0.50

> <Gold.Chemscore.Hbond.Weighted>
-4.1438

> <Gold.Chemscore.Metal.Weighted>
-0.0000

> <Gold.Chemscore.Lipo.Weighted>
-11.0228

> <Gold.Chemscore.Internal_Hbond.Weighted>
0.0000

> <Gold.Chemscore.DEClash.Weighted>
0.2589

> <Gold.Chemscore.DEInternal.Weighted>
0.5586

> <Gold.Chemscore.Rot.Weighted>
4.1186

> <Gold.Chemscore.Internal.Correction.Weighted>
   9.000000E+99

> <Gold.Protein.RotatedTorsions>
[ 6907 6896 6895 6894 ] final   33.68 input  -60.11 | X-H torsion
[ 7974 7965 7964 7962 ] final  155.17 input  175.53 | X-H torsion
[ 8008 7997 7996 7995 ] final  -89.53 input   59.86 | X-H torsion
[ 10167 10162 10161 10158 ] final  151.24 input  -65.29 | X-H torsion
[ 10718 10713 10712 10709 ] final  165.27 input   66.30 | X-H torsion
[ 10763 10752 10751 10750 ] final  -44.24 input  -60.55 | X-H torsion
[ 11005 11000 10999 10996 ] final -145.77 input  -57.11 | X-H torsion

> <Gold.Protein.ActiveResidues>
 VAL166  LYS551  ARG553  GLY616  TRP617  ASP618  TYR619  PRO620  LYS621  CYS622 
 ASP623  PHE694  ASN695  SER759  ASP760  ASP761  ALA762  ILE779  LEU786  VAL792 
 PHE793  MET794  SER795  GLU796  ALA797  LYS798  CYS799  TRP800  GLU811  SER814 

> <Gold.Protein.RotatedAtoms>
  152.0919  134.9401  160.0571 H   0  0  0  0  0  0  0  0  0  0  0  0  # atno 6907 bound_to 6896
  152.0650  133.4075  159.4442 H   0  0  0  0  0  0  0  0  0  0  0  0  # atno 6908 bound_to 6896
  150.6837  134.3077  159.4777 H   0  0  0  0  0  0  0  0  0  0  0  0  # atno 6909 bound_to 6896
  144.8041  139.7033  143.6169 H   0  0  0  0  0  0  0  0  0  0  0  0  # atno 7974 bound_to 7965
  154.6877  140.0541  157.0331 H   0  0  0  0  0  0  0  0  0  0  0  0  # atno 8008 bound_to 7997
  155.0861  140.3214  155.4568 H   0  0  0  0  0  0  0  0  0  0  0  0  # atno 8009 bound_to 7997
  156.2717  140.2056  156.5989 H   0  0  0  0  0  0  0  0  0  0  0  0  # atno 8010 bound_to 7997
  139.4842  144.5457  151.7488 H   0  0  0  0  0  0  0  0  0  0  0  0  # atno 10167 bound_to 10162
  157.0825  131.0396  151.2569 H   0  0  0  0  0  0  0  0  0  0  0  0  # atno 10718 bound_to 10713
  154.0088  135.6684  153.4764 H   0  0  0  0  0  0  0  0  0  0  0  0  # atno 10763 bound_to 10752
  153.0630  135.5017  154.8132 H   0  0  0  0  0  0  0  0  0  0  0  0  # atno 10764 bound_to 10752
  154.7008  135.3078  154.9307 H   0  0  0  0  0  0  0  0  0  0  0  0  # atno 10765 bound_to 10752
  140.7888  134.2992  157.5020 H   0  0  0  0  0  0  0  0  0  0  0  0  # atno 11005 bound_to 11000
  146.2329  139.5849  142.9543 LP  0  0  0  0  0  0  0  0  0  0  0  0  # atno 17320 bound_to 7965
  145.5480  141.0415  143.2294 LP  0  0  0  0  0  0  0  0  0  0  0  0  # atno 17321 bound_to 7965
  140.5003  144.1178  150.5969 LP  0  0  0  0  0  0  0  0  0  0  0  0  # atno 17342 bound_to 10162
  140.4069  143.2676  151.9880 LP  0  0  0  0  0  0  0  0  0  0  0  0  # atno 17343 bound_to 10162
  157.4788  130.7752  149.7394 LP  0  0  0  0  0  0  0  0  0  0  0  0  # atno 17370 bound_to 10713
  155.9920  130.3934  150.2962 LP  0  0  0  0  0  0  0  0  0  0  0  0  # atno 17371 bound_to 10713
  139.8733  134.9362  156.3655 LP  0  0  0  0  0  0  0  0  0  0  0  0  # atno 17394 bound_to 11000
  140.9410  133.7515  156.0146 LP  0  0  0  0  0  0  0  0  0  0  0  0  # atno 17395 bound_to 11000

$$$$
