AV-unprocessed.smi:152|AV-procd|sdf|1247|dock8
  -GOLD-   2262018473D 1   1.00000     0.00000
 Structure written by MMmdl.
 58 61  0  0  0  0  0  0  0  0  2 V2000
  145.7468  130.8845  151.2227 C   0  0  0  0  0  0  0  0  0  0  0  0
  146.6002  130.5939  152.4641 C   0  0  0  0  0  0  0  0  0  0  0  0
  146.9846  129.1634  152.5487 N   0  3  1  0  0  0  0  0  0  0  0  0
  147.2822  128.5019  151.2565 C   0  0  0  0  0  0  0  0  0  0  0  0
  148.2951  127.3887  151.5583 C   0  0  0  0  0  0  0  0  0  0  0  0
  148.4233  127.3804  153.0809 C   0  0  0  0  0  0  0  0  0  0  0  0
  148.0767  128.8166  153.4901 C   0  0  1  0  0  0  0  0  0  0  0  0
  149.2810  129.7917  153.3991 C   0  0  0  0  0  0  0  0  0  0  0  0
  150.1862  129.6971  154.5488 N   0  0  0  0  0  0  0  0  0  0  0  0
  150.8430  128.4180  154.7913 C   0  0  0  0  0  0  0  0  0  0  0  0
  150.5311  130.8003  155.2787 C   0  0  0  0  0  0  0  0  0  0  0  0
  151.0169  130.6178  156.5366 N   0  0  0  0  0  0  0  0  0  0  0  0
  151.3625  131.6550  157.3020 C   0  0  0  0  0  0  0  0  0  0  0  0
  151.3052  132.9540  157.0159 N   0  0  0  0  0  0  0  0  0  0  0  0
  150.8207  133.1598  155.7591 C   0  0  0  0  0  0  0  0  0  0  0  0
  150.4182  132.1546  154.8296 C   0  0  0  0  0  0  0  0  0  0  0  0
  149.9887  132.7670  153.6552 N   0  0  0  0  0  0  0  0  0  0  0  0
  150.1302  134.0441  153.8760 C   0  0  0  0  0  0  0  0  0  0  0  0
  150.6128  134.3702  155.1210 N   0  0  0  0  0  0  0  0  0  0  0  0
  150.8603  135.7085  155.6364 C   0  0  0  0  0  0  0  0  0  0  0  0
  152.3177  136.1996  155.4469 C   0  0  0  0  0  0  0  0  0  0  0  0
  153.1817  135.1070  155.7072 O   0  0  0  0  0  0  0  0  0  0  0  0
  152.5410  136.6601  153.9923 C   0  0  0  0  0  0  0  0  0  0  0  0
  153.9184  137.3176  153.7951 C   0  0  0  0  0  0  0  0  0  0  0  0
  154.0769  138.3963  154.7085 O   0  0  0  0  0  0  0  0  0  0  0  0
  154.0550  137.9734  156.0663 C   0  0  0  0  0  0  0  0  0  0  0  0
  152.6887  137.3519  156.4065 C   0  0  0  0  0  0  0  0  0  0  0  0
  145.4319  131.9282  151.2079 H   0  0  0  0  0  0  0  0  0  0  0  0
  144.8480  130.2674  151.2086 H   0  0  0  0  0  0  0  0  0  0  0  0
  146.2994  130.6961  150.3018 H   0  0  0  0  0  0  0  0  0  0  0  0
  147.4881  131.2278  152.4631 H   0  0  0  0  0  0  0  0  0  0  0  0
  146.0221  130.8545  153.3517 H   0  0  0  0  0  0  0  0  0  0  0  0
  146.3631  128.1047  150.8247 H   0  0  0  0  0  0  0  0  0  0  0  0
  147.7081  129.2092  150.5434 H   0  0  0  0  0  0  0  0  0  0  0  0
  147.9802  126.4202  151.1687 H   0  0  0  0  0  0  0  0  0  0  0  0
  149.2569  127.6305  151.1043 H   0  0  0  0  0  0  0  0  0  0  0  0
  147.6800  126.6996  153.4984 H   0  0  0  0  0  0  0  0  0  0  0  0
  149.3969  127.0349  153.4260 H   0  0  0  0  0  0  0  0  0  0  0  0
  147.6813  128.8325  154.5065 H   0  0  0  0  0  0  0  0  0  0  0  0
  149.7993  129.6729  152.4482 H   0  0  0  0  0  0  0  0  0  0  0  0
  148.9173  130.8191  153.3875 H   0  0  0  0  0  0  0  0  0  0  0  0
  151.9127  128.4897  154.5926 H   0  0  0  0  0  0  0  0  0  0  0  0
  150.4383  127.6399  154.1435 H   0  0  0  0  0  0  0  0  0  0  0  0
  150.6929  128.0956  155.8219 H   0  0  0  0  0  0  0  0  0  0  0  0
  151.7376  131.4087  158.2844 H   0  0  0  0  0  0  0  0  0  0  0  0
  149.8758  134.7881  153.1351 H   0  0  0  0  0  0  0  0  0  0  0  0
  150.1630  136.3962  155.1554 H   0  0  0  0  0  0  0  0  0  0  0  0
  150.6018  135.7102  156.6964 H   0  0  0  0  0  0  0  0  0  0  0  0
  152.7611  134.5322  156.3281 H   0  0  0  0  0  0  0  0  0  0  0  0
  152.4238  135.8225  153.3032 H   0  0  0  0  0  0  0  0  0  0  0  0
  151.7725  137.3858  153.7224 H   0  0  0  0  0  0  0  0  0  0  0  0
  154.7240  136.5933  153.9254 H   0  0  0  0  0  0  0  0  0  0  0  0
  154.0041  137.7041  152.7795 H   0  0  0  0  0  0  0  0  0  0  0  0
  154.8658  137.2674  156.2523 H   0  0  0  0  0  0  0  0  0  0  0  0
  154.2388  138.8379  156.7046 H   0  0  0  0  0  0  0  0  0  0  0  0
  151.9282  138.1312  156.3427 H   0  0  0  0  0  0  0  0  0  0  0  0
  152.6932  137.0106  157.4424 H   0  0  0  0  0  0  0  0  0  0  0  0
  146.1773  128.6789  152.9143 H   0  0  0  0  0  0  0  0  0  0  0  0
  1  2  1  0  0  0  0
  1 28  1  0  0  0  0
  1 29  1  0  0  0  0
  1 30  1  0  0  0  0
  2  3  1  0  0  0  0
  2 31  1  0  0  0  0
  2 32  1  0  0  0  0
  3  7  1  0  0  0  0
  3  4  1  0  0  0  0
  3 58  1  0  0  0  0
  4  5  1  0  0  0  0
  4 33  1  0  0  0  0
  4 34  1  0  0  0  0
  5  6  1  0  0  0  0
  5 35  1  0  0  0  0
  5 36  1  0  0  0  0
  6  7  1  0  0  0  0
  6 37  1  0  0  0  0
  6 38  1  0  0  0  0
  7  8  1  0  0  0  0
  7 39  1  0  0  0  0
  8  9  1  0  0  0  0
  8 40  1  0  0  0  0
  8 41  1  0  0  0  0
  9 10  1  0  0  0  0
  9 11  1  0  0  0  0
 10 42  1  0  0  0  0
 10 43  1  0  0  0  0
 10 44  1  0  0  0  0
 11 16  1  0  0  0  0
 11 12  2  0  0  0  0
 12 13  1  0  0  0  0
 13 14  2  0  0  0  0
 13 45  1  0  0  0  0
 14 15  1  0  0  0  0
 15 19  1  0  0  0  0
 15 16  2  0  0  0  0
 16 17  1  0  0  0  0
 17 18  2  0  0  0  0
 18 19  1  0  0  0  0
 18 46  1  0  0  0  0
 19 20  1  0  0  0  0
 20 21  1  0  0  0  0
 20 47  1  0  0  0  0
 20 48  1  0  0  0  0
 21 27  1  0  0  0  0
 21 22  1  0  0  0  0
 21 23  1  0  0  0  0
 22 49  1  0  0  0  0
 23 24  1  0  0  0  0
 23 50  1  0  0  0  0
 23 51  1  0  0  0  0
 24 25  1  0  0  0  0
 24 52  1  0  0  0  0
 24 53  1  0  0  0  0
 25 26  1  0  0  0  0
 26 27  1  0  0  0  0
 26 54  1  0  0  0  0
 26 55  1  0  0  0  0
 27 56  1  0  0  0  0
 27 57  1  0  0  0  0
M  CHG  1   3   1
M  END
> <s_m_source_file>
AV-unprocessed.smi

> <i_m_source_file_index>
152

> <i_lp_mmshare_version>
43012

> <i_f3d_flags>
0

> <s_epik_input>
W0NIM11bQ0gyXU4xW0NIMl1bQ0gyXVtDSDJdW0NASF0xW0NIMl1OKFtDSDNdKWMobltjSF1uMiljKGMyMyluW2NIXW4zW0NIMl1DNChbT0hdKVtDSDJdW0NIMl1PW0NIMl1bQ0gyXTQ=

> <s_epik_cmdline>
J2VwaWtfcHl0aG9uJywgJy1waCcsICc3LjAnLCAnLXRuJywgJzgnLCAnLW1hJywgJzIwMCcsICctbWV0YWxfYmluZGluZycsICctaW1hZScsICc8aW5maWxlLm1hZT4nLCAnLW9tYWUnLCAnPG91dGZpbGUubWFlPic=

> <r_lp_tautomer_probability>
1

> <r_epik_Ionization_Penalty>
0.00152183

> <r_epik_Ionization_Penalty_Charging>
0.00112577

> <r_epik_Ionization_Penalty_Neutral>
0.000396066

> <r_epik_State_Penalty>
-0

> <r_epik_Charging_Adjusted_Penalty>
0.00112577

> <i_epik_Tot_Q>
1

> <i_epik_Tot_abs_Q>
1

> <r_epik_Metal_State_Penalty>
-0

> <b_epik_Metal_Only>
0

> <s_lp_Force_Field>
OPLS_2005

> <r_lp_Energy>
46.3876

> <b_lp_Chiralities_Consistent>
1

> <s_lp_Variant>
AV-unprocessed.smi:152-2

> <Gold.Version>
5.8.1

> <Gold.Id.Protein>
6NUR|6NUR_protein|mol2

> <Gold.PLP.Fitness>
50.4506

> <Gold.PLP.PLP>
-43.7370

> <Gold.PLP.part.hbond>
-2.0000

> <Gold.PLP.part.metal>
0.0000

> <Gold.PLP.part.buried>
-6.8750

> <Gold.PLP.part.nonpolar>
-36.4102

> <Gold.PLP.part.repulsive>
0.1392

> <Gold.PLP.ligand.clash>
0.0000

> <Gold.PLP.ligand.torsion>
1.2198

> <Gold.PLP.Chemscore.Hbond>
2.0000

> <Gold.PLP.Chemscore.CHOScore>
1.0000

> <Gold.PLP.Chemscore.Metal>
0.0000

> <Gold.Chemscore.Hbonds>
donor molecule, donor type, donor heavy atom, donor atom, acceptor molecule, acceptor atom, score
      P1  H  6896  6908       L1    14  0.18

> <Gold.PLP.Chemscore.Internal.Correction>
0.1533

> <Gold.Rescore>
     Score         DG    S(hbond)    S(metal)    S(lipo)     H(rot)  DE(clash)    DE(int)     intcor
     14.27     -16.12       1.91        0.00      90.35       2.46       0.00       1.85       ----

> <Gold.Chemscore.Fitness>
14.2695

> <Gold.Chemscore.DG>
-16.1182

> <Gold.Chemscore.ZeroCoef>
-5.4800

> <Gold.Chemscore.Hbond>
1.9069

> <Gold.Chemscore.Metal>
0.0000

> <Gold.Chemscore.Lipo>
90.3463

> <Gold.Chemscore.Internal_Hbond>
0.0000

> <Gold.Chemscore.DEClash>
0.0000

> <Gold.Chemscore.DEInternal>
1.8488

> <Gold.Chemscore.Rot>
2.4614

> <Gold.Chemscore.Internal.Correction>
   9.000000E+99

> <Gold.Chemscore.Hbonds>
donor molecule, donor type, donor heavy atom, donor atom, acceptor molecule, acceptor atom, score
      P1  H  6896  6908       L1    14  0.02

> <Gold.Chemscore.Hbond.Weighted>
-6.3689

> <Gold.Chemscore.Metal.Weighted>
-0.0000

> <Gold.Chemscore.Lipo.Weighted>
-10.5705

> <Gold.Chemscore.Internal_Hbond.Weighted>
0.0000

> <Gold.Chemscore.DEClash.Weighted>
0.0000

> <Gold.Chemscore.DEInternal.Weighted>
1.8488

> <Gold.Chemscore.Rot.Weighted>
6.3012

> <Gold.Chemscore.Internal.Correction.Weighted>
   9.000000E+99

> <Gold.Protein.RotatedTorsions>
[ 6907 6896 6895 6894 ] final  103.20 input  -60.11 | X-H torsion
[ 7974 7965 7964 7962 ] final  161.06 input  175.53 | X-H torsion
[ 8008 7997 7996 7995 ] final   -5.18 input   59.86 | X-H torsion
[ 10167 10162 10161 10158 ] final   54.27 input  -65.29 | X-H torsion
[ 10718 10713 10712 10709 ] final   59.84 input   66.30 | X-H torsion
[ 10763 10752 10751 10750 ] final -134.74 input  -60.55 | X-H torsion
[ 11005 11000 10999 10996 ] final  167.97 input  -57.11 | X-H torsion

> <Gold.Protein.ActiveResidues>
 VAL166  LYS551  ARG553  GLY616  TRP617  ASP618  TYR619  PRO620  LYS621  CYS622 
 ASP623  PHE694  ASN695  SER759  ASP760  ASP761  ALA762  ILE779  LEU786  VAL792 
 PHE793  MET794  SER795  GLU796  ALA797  LYS798  CYS799  TRP800  GLU811  SER814 

> <Gold.Protein.RotatedAtoms>
  152.5302  133.9861  159.7828 H   0  0  0  0  0  0  0  0  0  0  0  0  # atno 6907 bound_to 6896
  151.0106  133.5961  159.2690 H   0  0  0  0  0  0  0  0  0  0  0  0  # atno 6908 bound_to 6896
  151.3037  135.0782  159.9301 H   0  0  0  0  0  0  0  0  0  0  0  0  # atno 6909 bound_to 6896
  144.7705  139.7844  143.6299 H   0  0  0  0  0  0  0  0  0  0  0  0  # atno 7974 bound_to 7965
  154.6065  140.2465  155.7724 H   0  0  0  0  0  0  0  0  0  0  0  0  # atno 8008 bound_to 7997
  156.2344  140.2955  156.0225 H   0  0  0  0  0  0  0  0  0  0  0  0  # atno 8009 bound_to 7997
  155.2123  140.0397  157.2926 H   0  0  0  0  0  0  0  0  0  0  0  0  # atno 8010 bound_to 7997
  140.2319  144.3677  150.6411 H   0  0  0  0  0  0  0  0  0  0  0  0  # atno 10167 bound_to 10162
  157.5707  130.8905  149.9262 H   0  0  0  0  0  0  0  0  0  0  0  0  # atno 10718 bound_to 10713
  154.8714  135.3725  154.4784 H   0  0  0  0  0  0  0  0  0  0  0  0  # atno 10763 bound_to 10752
  153.5439  135.7026  153.5628 H   0  0  0  0  0  0  0  0  0  0  0  0  # atno 10764 bound_to 10752
  153.3777  135.4004  155.1799 H   0  0  0  0  0  0  0  0  0  0  0  0  # atno 10765 bound_to 10752
  140.2824  134.7740  157.3769 H   0  0  0  0  0  0  0  0  0  0  0  0  # atno 11005 bound_to 11000
  146.1847  139.5057  142.9843 LP  0  0  0  0  0  0  0  0  0  0  0  0  # atno 17320 bound_to 7965
  145.6339  141.0298  143.1848 LP  0  0  0  0  0  0  0  0  0  0  0  0  # atno 17321 bound_to 7965
  140.6178  143.2174  151.6755 LP  0  0  0  0  0  0  0  0  0  0  0  0  # atno 17342 bound_to 10162
  139.5107  144.3534  152.0631 LP  0  0  0  0  0  0  0  0  0  0  0  0  # atno 17343 bound_to 10162
  156.0753  130.3680  150.0691 LP  0  0  0  0  0  0  0  0  0  0  0  0  # atno 17370 bound_to 10713
  156.8844  130.9567  151.3596 LP  0  0  0  0  0  0  0  0  0  0  0  0  # atno 17371 bound_to 10713
  140.1271  134.5143  155.8135 LP  0  0  0  0  0  0  0  0  0  0  0  0  # atno 17394 bound_to 11000
  141.2160  133.6776  156.6972 LP  0  0  0  0  0  0  0  0  0  0  0  0  # atno 17395 bound_to 11000

$$$$
