AV-unprocessed.smi:2071|AV-procd|sdf|8441|dock3
  -GOLD-   2272011143D 1   1.00000     0.00000
 Structure written by MMmdl.
 44 46  0  0  0  0  0  0  0  0  2 V2000
  147.5484  132.6703  154.3685 O   0  0  0  0  0  0  0  0  0  0  0  0
  147.7868  133.7022  153.7417 C   0  0  0  0  0  0  0  0  0  0  0  0
  148.7179  134.5948  154.1085 N   0  0  0  0  0  0  0  0  0  0  0  0
  149.5711  134.4923  155.2892 C   0  0  0  0  0  0  0  0  0  0  0  0
  150.6291  135.6067  155.3324 C   0  0  0  0  0  0  0  0  0  0  0  0
  150.1946  136.9109  154.6366 C   0  0  0  0  0  0  0  0  0  0  0  0
  150.9339  138.0636  155.1609 N   0  0  0  0  0  0  0  0  0  0  0  0
  152.2133  138.3649  154.8640 C   0  0  0  0  0  0  0  0  0  0  0  0
  152.8970  137.6640  154.1187 O   0  0  0  0  0  0  0  0  0  0  0  0
  152.6028  139.5067  155.4790 N   0  5  0  0  0  0  0  0  0  0  0  0
  151.4850  140.0253  156.2399 C   0  0  0  0  0  0  0  0  0  0  0  0
  151.8117  140.1924  157.7320 C   0  0  0  0  0  0  0  0  0  0  0  0
  150.8333  141.2600  158.2435 C   0  0  0  0  0  0  0  0  0  0  0  0
  150.3601  142.0489  157.0104 C   0  0  0  0  0  0  0  0  0  0  0  0
  151.0838  141.4419  155.8007 C   0  0  0  0  0  0  0  0  0  0  0  0
  150.4057  138.9864  155.9714 C   0  0  0  0  0  0  0  0  0  0  0  0
  149.2597  139.0227  156.4226 O   0  0  0  0  0  0  0  0  0  0  0  0
  147.1755  134.0792  152.6053 N   0  0  0  0  0  0  0  0  0  0  0  0
  146.1538  133.4047  151.8827 C   0  0  0  0  0  0  0  0  0  0  0  0
  145.0686  134.0510  151.2421 C   0  0  0  0  0  0  0  0  0  0  0  0
  144.1277  133.2696  150.5443 C   0  0  0  0  0  0  0  0  0  0  0  0
  144.3086  131.8736  150.5053 C   0  0  0  0  0  0  0  0  0  0  0  0
  145.3453  131.2453  151.0985 N   0  0  0  0  0  0  0  0  0  0  0  0
  146.2438  132.0012  151.7654 C   0  0  0  0  0  0  0  0  0  0  0  0
  148.8425  135.4138  153.5318 H   0  0  0  0  0  0  0  0  0  0  0  0
  148.9857  134.4967  156.2099 H   0  0  0  0  0  0  0  0  0  0  0  0
  150.0698  133.5237  155.2539 H   0  0  0  0  0  0  0  0  0  0  0  0
  150.8627  135.8205  156.3763 H   0  0  0  0  0  0  0  0  0  0  0  0
  151.5553  135.2438  154.8847 H   0  0  0  0  0  0  0  0  0  0  0  0
  150.3541  136.8374  153.5598 H   0  0  0  0  0  0  0  0  0  0  0  0
  149.1213  137.0613  154.7632 H   0  0  0  0  0  0  0  0  0  0  0  0
  151.7306  139.2618  158.2961 H   0  0  0  0  0  0  0  0  0  0  0  0
  152.8344  140.5535  157.8541 H   0  0  0  0  0  0  0  0  0  0  0  0
  149.9783  140.7854  158.7264 H   0  0  0  0  0  0  0  0  0  0  0  0
  151.3058  141.9075  158.9827 H   0  0  0  0  0  0  0  0  0  0  0  0
  149.2815  141.9369  156.8950 H   0  0  0  0  0  0  0  0  0  0  0  0
  150.5678  143.1151  157.1030 H   0  0  0  0  0  0  0  0  0  0  0  0
  151.9743  142.0331  155.5803 H   0  0  0  0  0  0  0  0  0  0  0  0
  150.4607  141.4534  154.9050 H   0  0  0  0  0  0  0  0  0  0  0  0
  147.5294  134.9190  152.1706 H   0  0  0  0  0  0  0  0  0  0  0  0
  144.9454  135.1225  151.2588 H   0  0  0  0  0  0  0  0  0  0  0  0
  143.2879  133.7317  150.0467 H   0  0  0  0  0  0  0  0  0  0  0  0
  143.6053  131.2457  149.9784 H   0  0  0  0  0  0  0  0  0  0  0  0
  147.0606  131.4645  152.2258 H   0  0  0  0  0  0  0  0  0  0  0  0
  1  2  2  0  0  0  0
  2  3  1  0  0  0  0
  2 18  1  0  0  0  0
  3  4  1  0  0  0  0
  3 25  1  0  0  0  0
  4  5  1  0  0  0  0
  4 26  1  0  0  0  0
  4 27  1  0  0  0  0
  5  6  1  0  0  0  0
  5 28  1  0  0  0  0
  5 29  1  0  0  0  0
  6  7  1  0  0  0  0
  6 30  1  0  0  0  0
  6 31  1  0  0  0  0
  7 16  1  0  0  0  0
  7  8  1  0  0  0  0
  8  9  2  0  0  0  0
  8 10  1  0  0  0  0
 10 11  1  0  0  0  0
 11 15  1  0  0  0  0
 11 12  1  0  0  0  0
 11 16  1  0  0  0  0
 12 13  1  0  0  0  0
 12 32  1  0  0  0  0
 12 33  1  0  0  0  0
 13 14  1  0  0  0  0
 13 34  1  0  0  0  0
 13 35  1  0  0  0  0
 14 15  1  0  0  0  0
 14 36  1  0  0  0  0
 14 37  1  0  0  0  0
 15 38  1  0  0  0  0
 15 39  1  0  0  0  0
 16 17  2  0  0  0  0
 18 19  1  0  0  0  0
 18 40  1  0  0  0  0
 19 24  1  0  0  0  0
 19 20  2  0  0  0  0
 20 21  1  0  0  0  0
 20 41  1  0  0  0  0
 21 22  2  0  0  0  0
 21 42  1  0  0  0  0
 22 23  1  0  0  0  0
 22 43  1  0  0  0  0
 23 24  2  0  0  0  0
 24 44  1  0  0  0  0
M  CHG  1  10  -1
M  END
> <s_m_source_file>
AV-unprocessed.smi

> <i_m_source_file_index>
2071

> <i_lp_mmshare_version>
43012

> <i_f3d_flags>
0

> <s_epik_input>
W2NIXTFuW2NIXVtjSF1bY0hdYzFbTkhdQyg9TylbTkhdW0NIMl1bQ0gyXVtDSDJdTihDMj1PKUMoPU8pW05IXUMyM1tDSDJdW0NIMl1bQ0gyXVtDSDJdMw==

> <s_epik_cmdline>
J2VwaWtfcHl0aG9uJywgJy1waCcsICc3LjAnLCAnLXRuJywgJzgnLCAnLW1hJywgJzIwMCcsICctbWV0YWxfYmluZGluZycsICctaW1hZScsICc8aW5maWxlLm1hZT4nLCAnLW9tYWUnLCAnPG91dGZpbGUubWFlPic=

> <r_lp_tautomer_probability>
1

> <r_epik_Ionization_Penalty>
6.36845

> <r_epik_Ionization_Penalty_Charging>
6.36366

> <r_epik_Ionization_Penalty_Neutral>
0.00479069

> <r_epik_State_Penalty>
6.36709

> <r_epik_Charging_Adjusted_Penalty>
12.7307

> <i_epik_Tot_Q>
-1

> <i_epik_Tot_abs_Q>
1

> <r_epik_Metal_State_Penalty>
2.30065

> <b_epik_Metal_Only>
1

> <s_lp_Force_Field>
OPLS_2005

> <r_lp_Energy>
36.3369

> <b_lp_Chiralities_Consistent>
1

> <s_lp_Variant>
AV-unprocessed.smi:2071-2

> <Gold.Version>
5.8.1

> <Gold.Id.Protein>
6NUR|6NUR_protein|mol2

> <Gold.PLP.Fitness>
52.7876

> <Gold.PLP.PLP>
-39.2286

> <Gold.PLP.part.hbond>
-4.0000

> <Gold.PLP.part.metal>
0.0000

> <Gold.PLP.part.buried>
-2.5329

> <Gold.PLP.part.nonpolar>
-31.3743

> <Gold.PLP.part.repulsive>
0.2485

> <Gold.PLP.ligand.clash>
0.0000

> <Gold.PLP.ligand.torsion>
0.8193

> <Gold.PLP.Chemscore.Hbond>
4.4055

> <Gold.PLP.Chemscore.CHOScore>
0.6376

> <Gold.PLP.Chemscore.Metal>
0.0000

> <Gold.Chemscore.Hbonds>
donor molecule, donor type, donor heavy atom, donor atom, acceptor molecule, acceptor atom, score
      L1  H     3    25       P1  7948  1.00
      L1  H    18    40       P1  7948  1.00
      P1  H  7997  8010       L1    10  1.95
      P1  H 10752 10764       L1     9  0.46
      L1  C    24    44       P1 10747  0.19

> <Gold.PLP.Chemscore.Internal.Correction>
0.0682

> <Gold.Rescore>
     Score         DG    S(hbond)    S(metal)    S(lipo)     H(rot)  DE(clash)    DE(int)     intcor
     18.97     -19.96       3.10        0.00      77.25       1.92       0.20       0.80       ----

> <Gold.Chemscore.Fitness>
18.9657

> <Gold.Chemscore.DG>
-19.9634

> <Gold.Chemscore.ZeroCoef>
-5.4800

> <Gold.Chemscore.Hbond>
3.1002

> <Gold.Chemscore.Metal>
0.0000

> <Gold.Chemscore.Lipo>
77.2458

> <Gold.Chemscore.Internal_Hbond>
0.0000

> <Gold.Chemscore.DEClash>
0.2015

> <Gold.Chemscore.DEInternal>
0.7961

> <Gold.Chemscore.Rot>
1.9176

> <Gold.Chemscore.Internal.Correction>
   9.000000E+99

> <Gold.Chemscore.Hbonds>
donor molecule, donor type, donor heavy atom, donor atom, acceptor molecule, acceptor atom, score
      L1  H     3    25       P1  7948  0.78
      L1  H    18    40       P1  7948  0.86
      P1  H  7997  8010       L1    10  0.63
      P1  H 10752 10764       L1     9  0.46

> <Gold.Chemscore.Hbond.Weighted>
-10.3546

> <Gold.Chemscore.Metal.Weighted>
-0.0000

> <Gold.Chemscore.Lipo.Weighted>
-9.0378

> <Gold.Chemscore.Internal_Hbond.Weighted>
0.0000

> <Gold.Chemscore.DEClash.Weighted>
0.2015

> <Gold.Chemscore.DEInternal.Weighted>
0.7961

> <Gold.Chemscore.Rot.Weighted>
4.9090

> <Gold.Chemscore.Internal.Correction.Weighted>
   9.000000E+99

> <Gold.Protein.RotatedTorsions>
[ 6907 6896 6895 6894 ] final  173.06 input  -60.11 | X-H torsion
[ 7974 7965 7964 7962 ] final   39.12 input  175.53 | X-H torsion
[ 8008 7997 7996 7995 ] final   74.23 input   59.86 | X-H torsion
[ 10167 10162 10161 10158 ] final   63.99 input  -65.29 | X-H torsion
[ 10718 10713 10712 10709 ] final   18.89 input   66.30 | X-H torsion
[ 10763 10752 10751 10750 ] final  -93.94 input  -60.55 | X-H torsion
[ 11005 11000 10999 10996 ] final  157.36 input  -57.11 | X-H torsion

> <Gold.Protein.ActiveResidues>
 VAL166  LYS551  ARG553  GLY616  TRP617  ASP618  TYR619  PRO620  LYS621  CYS622 
 ASP623  PHE694  ASN695  SER759  ASP760  ASP761  ALA762  ILE779  LEU786  VAL792 
 PHE793  MET794  SER795  GLU796  ALA797  LYS798  CYS799  TRP800  GLU811  SER814 

> <Gold.Protein.RotatedAtoms>
  151.7744  133.3344  159.3453 H   0  0  0  0  0  0  0  0  0  0  0  0  # atno 6907 bound_to 6896
  150.7449  134.5989  159.6035 H   0  0  0  0  0  0  0  0  0  0  0  0  # atno 6908 bound_to 6896
  152.3319  134.7250  160.0338 H   0  0  0  0  0  0  0  0  0  0  0  0  # atno 6909 bound_to 6896
  146.1009  139.5690  142.9414 H   0  0  0  0  0  0  0  0  0  0  0  0  # atno 7974 bound_to 7965
  155.7953  140.3478  155.5372 H   0  0  0  0  0  0  0  0  0  0  0  0  # atno 8008 bound_to 7997
  155.8593  140.0968  157.1644 H   0  0  0  0  0  0  0  0  0  0  0  0  # atno 8009 bound_to 7997
  154.4011  140.1361  156.3928 H   0  0  0  0  0  0  0  0  0  0  0  0  # atno 8010 bound_to 7997
  140.1270  144.4678  150.6887 H   0  0  0  0  0  0  0  0  0  0  0  0  # atno 10167 bound_to 10162
  157.1027  130.6475  149.5877 H   0  0  0  0  0  0  0  0  0  0  0  0  # atno 10718 bound_to 10713
  154.7007  135.5176  153.8523 H   0  0  0  0  0  0  0  0  0  0  0  0  # atno 10763 bound_to 10752
  153.0702  135.6598  154.0274 H   0  0  0  0  0  0  0  0  0  0  0  0  # atno 10764 bound_to 10752
  154.0133  135.3000  155.3369 H   0  0  0  0  0  0  0  0  0  0  0  0  # atno 10765 bound_to 10752
  140.1762  134.8508  157.2749 H   0  0  0  0  0  0  0  0  0  0  0  0  # atno 11005 bound_to 11000
  145.5856  141.0377  143.2098 LP  0  0  0  0  0  0  0  0  0  0  0  0  # atno 17320 bound_to 7965
  144.7432  139.7391  143.7302 LP  0  0  0  0  0  0  0  0  0  0  0  0  # atno 17321 bound_to 7965
  140.6839  143.2340  151.5312 LP  0  0  0  0  0  0  0  0  0  0  0  0  # atno 17342 bound_to 10162
  139.5539  144.2325  152.1579 LP  0  0  0  0  0  0  0  0  0  0  0  0  # atno 17343 bound_to 10162
  155.9869  130.4906  150.7102 LP  0  0  0  0  0  0  0  0  0  0  0  0  # atno 17370 bound_to 10713
  157.4626  131.0885  151.0729 LP  0  0  0  0  0  0  0  0  0  0  0  0  # atno 17371 bound_to 10713
  140.2320  134.3898  155.7518 LP  0  0  0  0  0  0  0  0  0  0  0  0  # atno 17394 bound_to 11000
  141.2220  133.7220  156.8655 LP  0  0  0  0  0  0  0  0  0  0  0  0  # atno 17395 bound_to 11000

$$$$
