AV-unprocessed.smi:2038|AV-procd|sdf|8281|dock7
  -GOLD-   2272010553D 1   1.00000     0.00000
 Structure written by MMmdl.
 33 34  0  0  0  0  0  0  0  0  1 V2000
  144.6945  135.7753  151.0911 O   0  0  0  0  0  0  0  0  0  0  0  0
  144.6065  134.6774  151.6415 C   0  0  0  0  0  0  0  0  0  0  0  0
  143.6437  134.3391  152.5188 N   0  0  0  0  0  0  0  0  0  0  0  0
  142.5736  135.1374  153.0053 C   0  0  0  0  0  0  0  0  0  0  0  0
  142.6611  136.5348  152.8449 C   0  0  0  0  0  0  0  0  0  0  0  0
  141.6045  137.3457  153.3002 C   0  0  0  0  0  0  0  0  0  0  0  0
  140.4840  136.7312  153.8934 C   0  0  0  0  0  0  0  0  0  0  0  0
  139.4517  137.5306  154.3386 O   0  0  0  0  0  0  0  0  0  0  0  0
  139.2164  138.7698  153.6747 C   0  0  0  0  0  0  0  0  0  0  0  0
  138.0925  139.5240  154.3947 C   0  0  0  0  0  0  0  0  0  0  0  0
  137.0122  138.7465  154.4609 F   0  0  0  0  0  0  0  0  0  0  0  0
  138.4688  139.8387  155.6338 F   0  0  0  0  0  0  0  0  0  0  0  0
  137.7802  140.6337  153.7261 F   0  0  0  0  0  0  0  0  0  0  0  0
  140.3822  135.3868  154.0374 N   0  0  0  0  0  0  0  0  0  0  0  0
  141.4002  134.6145  153.6009 C   0  0  0  0  0  0  0  0  0  0  0  0
  145.6358  133.5849  151.3287 C   0  0  1  0  0  0  0  0  0  0  0  0
  145.4605  132.3052  152.1678 C   0  0  0  0  0  0  0  0  0  0  0  0
  144.9479  131.2876  151.1681 C   0  0  0  0  0  0  0  0  0  0  0  0
  145.5826  131.7766  149.8746 C   0  0  0  0  0  0  0  0  0  0  0  0
  145.4601  133.1872  149.9697 O   0  0  0  0  0  0  0  0  0  0  0  0
  143.6447  133.3773  152.8265 H   0  0  0  0  0  0  0  0  0  0  0  0
  143.5286  136.9839  152.3836 H   0  0  0  0  0  0  0  0  0  0  0  0
  141.6519  138.4196  153.1952 H   0  0  0  0  0  0  0  0  0  0  0  0
  140.1238  139.3763  153.6751 H   0  0  0  0  0  0  0  0  0  0  0  0
  138.9323  138.5943  152.6356 H   0  0  0  0  0  0  0  0  0  0  0  0
  141.2441  133.5535  153.7191 H   0  0  0  0  0  0  0  0  0  0  0  0
  146.6486  133.9712  151.4572 H   0  0  0  0  0  0  0  0  0  0  0  0
  146.4282  131.9885  152.5591 H   0  0  0  0  0  0  0  0  0  0  0  0
  144.7871  132.4174  153.0189 H   0  0  0  0  0  0  0  0  0  0  0  0
  145.2218  130.2627  151.4196 H   0  0  0  0  0  0  0  0  0  0  0  0
  143.8609  131.3464  151.0963 H   0  0  0  0  0  0  0  0  0  0  0  0
  146.6379  131.5031  149.8299 H   0  0  0  0  0  0  0  0  0  0  0  0
  145.0851  131.3883  148.9857 H   0  0  0  0  0  0  0  0  0  0  0  0
  1  2  2  0  0  0  0
  2  3  1  0  0  0  0
  2 16  1  0  0  0  0
  3  4  1  0  0  0  0
  3 21  1  0  0  0  0
  4 15  1  0  0  0  0
  4  5  2  0  0  0  0
  5  6  1  0  0  0  0
  5 22  1  0  0  0  0
  6  7  2  0  0  0  0
  6 23  1  0  0  0  0
  7  8  1  0  0  0  0
  7 14  1  0  0  0  0
  8  9  1  0  0  0  0
  9 10  1  0  0  0  0
  9 24  1  0  0  0  0
  9 25  1  0  0  0  0
 10 11  1  0  0  0  0
 10 12  1  0  0  0  0
 10 13  1  0  0  0  0
 14 15  2  0  0  0  0
 15 26  1  0  0  0  0
 16 20  1  0  0  0  0
 16 17  1  0  0  0  0
 16 27  1  0  0  0  0
 17 18  1  0  0  0  0
 17 28  1  0  0  0  0
 17 29  1  0  0  0  0
 18 19  1  0  0  0  0
 18 30  1  0  0  0  0
 18 31  1  0  0  0  0
 19 20  1  0  0  0  0
 19 32  1  0  0  0  0
 19 33  1  0  0  0  0
M  END
> <s_m_source_file>
AV-unprocessed.smi

> <i_m_source_file_index>
2038

> <i_lp_mmshare_version>
43012

> <i_f3d_flags>
0

> <s_epik_input>
TzFbQ0gyXVtDSDJdW0NIMl1bQ0BIXTFDKD1PKVtOSF1jMltjSF1bY0hdYyhuW2NIXTIpT1tDSDJdQyhGKShGKUY=

> <s_epik_cmdline>
J2VwaWtfcHl0aG9uJywgJy1waCcsICc3LjAnLCAnLXRuJywgJzgnLCAnLW1hJywgJzIwMCcsICctbWV0YWxfYmluZGluZycsICctaW1hZScsICc8aW5maWxlLm1hZT4nLCAnLW9tYWUnLCAnPG91dGZpbGUubWFlPic=

> <r_lp_tautomer_probability>
1

> <r_epik_Ionization_Penalty>
2.73305e-06

> <r_epik_Ionization_Penalty_Charging>
0

> <r_epik_Ionization_Penalty_Neutral>
2.73305e-06

> <r_epik_State_Penalty>
-0

> <r_epik_Charging_Adjusted_Penalty>
0

> <i_epik_Tot_Q>
0

> <i_epik_Tot_abs_Q>
0

> <r_epik_Metal_State_Penalty>
-0

> <b_epik_Metal_Only>
0

> <s_lp_Force_Field>
OPLS_2005

> <r_lp_Energy>
22.8429

> <b_lp_Chiralities_Consistent>
1

> <s_lp_Variant>
AV-unprocessed.smi:2038-2

> <Gold.Version>
5.8.1

> <Gold.Id.Protein>
6NUR|6NUR_protein|mol2

> <Gold.PLP.Fitness>
37.8962

> <Gold.PLP.PLP>
-32.9967

> <Gold.PLP.part.hbond>
-1.7434

> <Gold.PLP.part.metal>
0.0000

> <Gold.PLP.part.buried>
-8.4107

> <Gold.PLP.part.nonpolar>
-26.4297

> <Gold.PLP.part.repulsive>
2.1040

> <Gold.PLP.ligand.clash>
0.0127

> <Gold.PLP.ligand.torsion>
0.5428

> <Gold.PLP.Chemscore.Hbond>
0.9913

> <Gold.PLP.Chemscore.CHOScore>
1.0000

> <Gold.PLP.Chemscore.Metal>
0.0000

> <Gold.Chemscore.Hbonds>
donor molecule, donor type, donor heavy atom, donor atom, acceptor molecule, acceptor atom, score
      P1  H 11000 11005       L1    14  1.00
      L1  C    15    26       P1 10957  1.00

> <Gold.PLP.Chemscore.Internal.Correction>
0.0239

> <Gold.Rescore>
     Score         DG    S(hbond)    S(metal)    S(lipo)     H(rot)  DE(clash)    DE(int)     intcor
      8.11     -10.18       0.29        0.00      68.77       1.69       0.12       1.95       ----

> <Gold.Chemscore.Fitness>
8.1089

> <Gold.Chemscore.DG>
-10.1771

> <Gold.Chemscore.ZeroCoef>
-5.4800

> <Gold.Chemscore.Hbond>
0.2942

> <Gold.Chemscore.Metal>
0.0000

> <Gold.Chemscore.Lipo>
68.7660

> <Gold.Chemscore.Internal_Hbond>
0.0000

> <Gold.Chemscore.DEClash>
0.1218

> <Gold.Chemscore.DEInternal>
1.9464

> <Gold.Chemscore.Rot>
1.6919

> <Gold.Chemscore.Internal.Correction>
   9.000000E+99

> <Gold.Chemscore.Hbonds>
donor molecule, donor type, donor heavy atom, donor atom, acceptor molecule, acceptor atom, score
      P1  H 11000 11005       L1    14  0.24

> <Gold.Chemscore.Hbond.Weighted>
-0.9828

> <Gold.Chemscore.Metal.Weighted>
-0.0000

> <Gold.Chemscore.Lipo.Weighted>
-8.0456

> <Gold.Chemscore.Internal_Hbond.Weighted>
0.0000

> <Gold.Chemscore.DEClash.Weighted>
0.1218

> <Gold.Chemscore.DEInternal.Weighted>
1.9464

> <Gold.Chemscore.Rot.Weighted>
4.3313

> <Gold.Chemscore.Internal.Correction.Weighted>
   9.000000E+99

> <Gold.Protein.RotatedTorsions>
[ 6907 6896 6895 6894 ] final  143.26 input  -60.11 | X-H torsion
[ 7974 7965 7964 7962 ] final -115.87 input  175.53 | X-H torsion
[ 8008 7997 7996 7995 ] final  114.95 input   59.86 | X-H torsion
[ 10167 10162 10161 10158 ] final  -37.69 input  -65.29 | X-H torsion
[ 10718 10713 10712 10709 ] final -117.95 input   66.30 | X-H torsion
[ 10763 10752 10751 10750 ] final  119.33 input  -60.55 | X-H torsion
[ 11005 11000 10999 10996 ] final   53.63 input  -57.11 | X-H torsion

> <Gold.Protein.ActiveResidues>
 VAL166  LYS551  ARG553  GLY616  TRP617  ASP618  TYR619  PRO620  LYS621  CYS622 
 ASP623  PHE694  ASN695  SER759  ASP760  ASP761  ALA762  ILE779  LEU786  VAL792 
 PHE793  MET794  SER795  GLU796  ALA797  LYS798  CYS799  TRP800  GLU811  SER814 

> <Gold.Protein.RotatedAtoms>
  152.2085  133.4893  159.5096 H   0  0  0  0  0  0  0  0  0  0  0  0  # atno 6907 bound_to 6896
  150.6985  134.1498  159.4145 H   0  0  0  0  0  0  0  0  0  0  0  0  # atno 6908 bound_to 6896
  151.9417  135.0210  160.0587 H   0  0  0  0  0  0  0  0  0  0  0  0  # atno 6909 bound_to 6896
  145.1034  140.8566  143.3912 H   0  0  0  0  0  0  0  0  0  0  0  0  # atno 7974 bound_to 7965
  156.2352  140.2948  156.0293 H   0  0  0  0  0  0  0  0  0  0  0  0  # atno 8008 bound_to 7997
  155.2112  140.0412  157.2951 H   0  0  0  0  0  0  0  0  0  0  0  0  # atno 8009 bound_to 7997
  154.6066  140.2441  155.7730 H   0  0  0  0  0  0  0  0  0  0  0  0  # atno 8010 bound_to 7997
  140.7112  143.3326  151.2535 H   0  0  0  0  0  0  0  0  0  0  0  0  # atno 10167 bound_to 10162
  156.1071  130.6219  150.9230 H   0  0  0  0  0  0  0  0  0  0  0  0  # atno 10718 bound_to 10713
  153.5813  135.3483  155.2876 H   0  0  0  0  0  0  0  0  0  0  0  0  # atno 10763 bound_to 10752
  154.8667  135.4183  154.2617 H   0  0  0  0  0  0  0  0  0  0  0  0  # atno 10764 bound_to 10752
  153.3404  135.7049  153.6942 H   0  0  0  0  0  0  0  0  0  0  0  0  # atno 10765 bound_to 10752
  140.0751  134.5415  155.9005 H   0  0  0  0  0  0  0  0  0  0  0  0  # atno 11005 bound_to 11000
  145.0929  139.2877  143.5725 LP  0  0  0  0  0  0  0  0  0  0  0  0  # atno 17320 bound_to 7965
  146.3529  140.0472  142.8638 LP  0  0  0  0  0  0  0  0  0  0  0  0  # atno 17321 bound_to 7965
  139.6812  143.9852  152.2809 LP  0  0  0  0  0  0  0  0  0  0  0  0  # atno 17342 bound_to 10162
  139.9482  144.6637  150.8198 LP  0  0  0  0  0  0  0  0  0  0  0  0  # atno 17343 bound_to 10162
  157.6249  131.0926  150.8553 LP  0  0  0  0  0  0  0  0  0  0  0  0  # atno 17370 bound_to 10713
  156.8670  130.5133  149.5299 LP  0  0  0  0  0  0  0  0  0  0  0  0  # atno 17371 bound_to 10713
  141.2026  133.6626  156.6018 LP  0  0  0  0  0  0  0  0  0  0  0  0  # atno 17394 bound_to 11000
  140.3569  134.7721  157.4507 LP  0  0  0  0  0  0  0  0  0  0  0  0  # atno 17395 bound_to 11000

$$$$
