AV-unprocessed.smi:1146|AV-procd|sdf|4886|dock5
  -GOLD-   22720 3463D 1   1.00000     0.00000
 Structure written by MMmdl.
 46 47  0  0  0  0  0  0  0  0  1 V2000
  151.6820  145.2133  160.4217 C   0  0  0  0  0  0  0  0  0  0  0  0
  152.7318  144.1116  160.2308 C   0  0  0  0  0  0  0  0  0  0  0  0
  152.3259  143.1664  159.1935 N   0  0  0  0  0  0  0  0  0  0  0  0
  151.5669  143.4406  158.1070 C   0  0  0  0  0  0  0  0  0  0  0  0
  151.0910  144.5382  157.8175 O   0  0  0  0  0  0  0  0  0  0  0  0
  151.4200  142.2979  157.3952 N   0  0  0  0  0  0  0  0  0  0  0  0
  150.6622  142.1428  156.1504 C   0  0  0  0  0  0  0  0  0  0  0  0
  149.1926  141.6884  156.3549 C   0  0  0  0  0  0  0  0  0  0  0  0
  148.3488  141.6729  155.0653 C   0  0  0  0  0  0  0  0  0  0  0  0
  149.1631  140.3044  157.0254 C   0  0  0  0  0  0  0  0  0  0  0  0
  148.5807  142.5668  157.2786 O   0  0  0  0  0  0  0  0  0  0  0  0
  152.0948  141.2582  158.0551 C   0  0  0  0  0  0  0  0  0  0  0  0
  152.2448  139.8982  157.7307 C   0  0  0  0  0  0  0  0  0  0  0  0
  153.0055  139.1086  158.6253 C   0  0  0  0  0  0  0  0  0  0  0  0
  153.2384  137.3677  158.2933 S   0  0  0  0  0  0  0  0  0  0  0  0
  154.2156  137.1996  157.2060 O   0  0  0  0  0  0  0  0  0  0  0  0
  153.4435  136.6992  159.5878 O   0  0  0  0  0  0  0  0  0  0  0  0
  151.6848  136.8961  157.6881 N   0  0  0  0  0  0  0  0  0  0  0  0
  151.5431  136.6856  156.2437 C   0  0  0  0  0  0  0  0  0  0  0  0
  150.5036  137.4842  158.3271 C   0  0  0  0  0  0  0  0  0  0  0  0
  153.5804  139.6650  159.7974 C   0  0  0  0  0  0  0  0  0  0  0  0
  153.4137  141.0373  160.0949 C   0  0  0  0  0  0  0  0  0  0  0  0
  152.6618  141.8055  159.1883 C   0  0  0  0  0  0  0  0  0  0  0  0
  151.9945  145.9161  161.1943 H   0  0  0  0  0  0  0  0  0  0  0  0
  150.7207  144.7952  160.7218 H   0  0  0  0  0  0  0  0  0  0  0  0
  151.5306  145.7780  159.5013 H   0  0  0  0  0  0  0  0  0  0  0  0
  153.6923  144.5577  159.9688 H   0  0  0  0  0  0  0  0  0  0  0  0
  152.8930  143.5814  161.1697 H   0  0  0  0  0  0  0  0  0  0  0  0
  150.6727  143.1010  155.6312 H   0  0  0  0  0  0  0  0  0  0  0  0
  151.1860  141.4563  155.4826 H   0  0  0  0  0  0  0  0  0  0  0  0
  148.7882  141.0137  154.3164 H   0  0  0  0  0  0  0  0  0  0  0  0
  148.2577  142.6653  154.6230 H   0  0  0  0  0  0  0  0  0  0  0  0
  147.3370  141.3164  155.2610 H   0  0  0  0  0  0  0  0  0  0  0  0
  149.6133  139.5462  156.3837 H   0  0  0  0  0  0  0  0  0  0  0  0
  148.1421  139.9863  157.2408 H   0  0  0  0  0  0  0  0  0  0  0  0
  149.7125  140.3054  157.9680 H   0  0  0  0  0  0  0  0  0  0  0  0
  148.7847  143.4560  157.0308 H   0  0  0  0  0  0  0  0  0  0  0  0
  151.8041  139.4772  156.8397 H   0  0  0  0  0  0  0  0  0  0  0  0
  150.5773  136.2358  156.0117 H   0  0  0  0  0  0  0  0  0  0  0  0
  152.3204  136.0157  155.8766 H   0  0  0  0  0  0  0  0  0  0  0  0
  151.6231  137.6361  155.7153 H   0  0  0  0  0  0  0  0  0  0  0  0
  149.6055  136.9236  158.0660 H   0  0  0  0  0  0  0  0  0  0  0  0
  150.3775  138.5190  158.0070 H   0  0  0  0  0  0  0  0  0  0  0  0
  150.6099  137.4678  159.4118 H   0  0  0  0  0  0  0  0  0  0  0  0
  154.1504  139.0376  160.4669 H   0  0  0  0  0  0  0  0  0  0  0  0
  153.8473  141.4720  160.9833 H   0  0  0  0  0  0  0  0  0  0  0  0
  1  2  1  0  0  0  0
  1 24  1  0  0  0  0
  1 25  1  0  0  0  0
  1 26  1  0  0  0  0
  2  3  1  0  0  0  0
  2 27  1  0  0  0  0
  2 28  1  0  0  0  0
  3 23  1  0  0  0  0
  3  4  1  0  0  0  0
  4  5  2  0  0  0  0
  4  6  1  0  0  0  0
  6  7  1  0  0  0  0
  6 12  1  0  0  0  0
  7  8  1  0  0  0  0
  7 29  1  0  0  0  0
  7 30  1  0  0  0  0
  8  9  1  0  0  0  0
  8 10  1  0  0  0  0
  8 11  1  0  0  0  0
  9 31  1  0  0  0  0
  9 32  1  0  0  0  0
  9 33  1  0  0  0  0
 10 34  1  0  0  0  0
 10 35  1  0  0  0  0
 10 36  1  0  0  0  0
 11 37  1  0  0  0  0
 12 23  2  0  0  0  0
 12 13  1  0  0  0  0
 13 14  2  0  0  0  0
 13 38  1  0  0  0  0
 14 15  1  0  0  0  0
 14 21  1  0  0  0  0
 15 16  2  0  0  0  0
 15 17  2  0  0  0  0
 15 18  1  0  0  0  0
 18 19  1  0  0  0  0
 18 20  1  0  0  0  0
 19 39  1  0  0  0  0
 19 40  1  0  0  0  0
 19 41  1  0  0  0  0
 20 42  1  0  0  0  0
 20 43  1  0  0  0  0
 20 44  1  0  0  0  0
 21 22  2  0  0  0  0
 21 45  1  0  0  0  0
 22 23  1  0  0  0  0
 22 46  1  0  0  0  0
M  END
> <s_m_source_file>
AV-unprocessed.smi

> <i_m_source_file_index>
1146

> <i_lp_mmshare_version>
43012

> <i_f3d_flags>
0

> <s_epik_input>
W0NIM11DKFtDSDNdKShbT0hdKVtDSDJdbjFjKD1PKW4oW0NIMl1bQ0gzXSljKGMxMilbY0hdW2NIXWMoW2NIXTIpUyg9TykoPU8pTihbQ0gzXSlbQ0gzXQ==

> <s_epik_cmdline>
J2VwaWtfcHl0aG9uJywgJy1waCcsICc3LjAnLCAnLXRuJywgJzgnLCAnLW1hJywgJzIwMCcsICctbWV0YWxfYmluZGluZycsICctaW1hZScsICc8aW5maWxlLm1hZT4nLCAnLW9tYWUnLCAnPG91dGZpbGUubWFlPic=

> <r_lp_tautomer_probability>
1

> <r_epik_Ionization_Penalty>
3.29736e-08

> <r_epik_Ionization_Penalty_Charging>
1.95861e-09

> <r_epik_Ionization_Penalty_Neutral>
3.1015e-08

> <r_epik_State_Penalty>
-0

> <r_epik_Charging_Adjusted_Penalty>
1.95861e-09

> <i_epik_Tot_Q>
0

> <i_epik_Tot_abs_Q>
0

> <r_epik_Metal_State_Penalty>
-0

> <b_epik_Metal_Only>
0

> <s_lp_Force_Field>
OPLS_2005

> <r_lp_Energy>
36.7985

> <b_lp_Chiralities_Consistent>
1

> <s_lp_Variant>
AV-unprocessed.smi:1146-1

> <Gold.Version>
5.8.1

> <Gold.Id.Protein>
6NUR|6NUR_protein|mol2

> <Gold.PLP.Fitness>
44.9889

> <Gold.PLP.PLP>
-41.4795

> <Gold.PLP.part.hbond>
-2.7625

> <Gold.PLP.part.metal>
0.0000

> <Gold.PLP.part.buried>
-7.5306

> <Gold.PLP.part.nonpolar>
-31.6870

> <Gold.PLP.part.repulsive>
0.8957

> <Gold.PLP.ligand.clash>
0.0000

> <Gold.PLP.ligand.torsion>
2.6520

> <Gold.PLP.Chemscore.Hbond>
2.0000

> <Gold.PLP.Chemscore.CHOScore>
0.0000

> <Gold.PLP.Chemscore.Metal>
0.0000

> <Gold.Chemscore.Hbonds>
donor molecule, donor type, donor heavy atom, donor atom, acceptor molecule, acceptor atom, score
      L1  H    11    37       P1  8028  0.96
      P1  H  6896  6908       L1    17  0.55

> <Gold.PLP.Chemscore.Internal.Correction>
2.8134

> <Gold.Rescore>
     Score         DG    S(hbond)    S(metal)    S(lipo)     H(rot)  DE(clash)    DE(int)     intcor
     12.96     -17.70       1.80        0.00      97.54       2.04       0.44       4.31       ----

> <Gold.Chemscore.Fitness>
12.9584

> <Gold.Chemscore.DG>
-17.7017

> <Gold.Chemscore.ZeroCoef>
-5.4800

> <Gold.Chemscore.Hbond>
1.8048

> <Gold.Chemscore.Metal>
0.0000

> <Gold.Chemscore.Lipo>
97.5359

> <Gold.Chemscore.Internal_Hbond>
0.0000

> <Gold.Chemscore.DEClash>
0.4362

> <Gold.Chemscore.DEInternal>
4.3070

> <Gold.Chemscore.Rot>
2.0383

> <Gold.Chemscore.Internal.Correction>
   9.000000E+99

> <Gold.Chemscore.Hbonds>
donor molecule, donor type, donor heavy atom, donor atom, acceptor molecule, acceptor atom, score
      L1  H    11    37       P1  8028  0.41
      P1  H  6896  6908       L1    17  0.50

> <Gold.Chemscore.Hbond.Weighted>
-6.0281

> <Gold.Chemscore.Metal.Weighted>
-0.0000

> <Gold.Chemscore.Lipo.Weighted>
-11.4117

> <Gold.Chemscore.Internal_Hbond.Weighted>
0.0000

> <Gold.Chemscore.DEClash.Weighted>
0.4362

> <Gold.Chemscore.DEInternal.Weighted>
4.3070

> <Gold.Chemscore.Rot.Weighted>
5.2181

> <Gold.Chemscore.Internal.Correction.Weighted>
   9.000000E+99

> <Gold.Protein.RotatedTorsions>
[ 6907 6896 6895 6894 ] final  -91.79 input  -60.11 | X-H torsion
[ 7974 7965 7964 7962 ] final  -32.14 input  175.53 | X-H torsion
[ 8008 7997 7996 7995 ] final   67.76 input   59.86 | X-H torsion
[ 10167 10162 10161 10158 ] final -171.57 input  -65.29 | X-H torsion
[ 10718 10713 10712 10709 ] final  157.67 input   66.30 | X-H torsion
[ 10763 10752 10751 10750 ] final -174.90 input  -60.55 | X-H torsion
[ 11005 11000 10999 10996 ] final   25.84 input  -57.11 | X-H torsion

> <Gold.Protein.ActiveResidues>
 VAL166  LYS551  ARG553  GLY616  TRP617  ASP618  TYR619  PRO620  LYS621  CYS622 
 ASP623  PHE694  ASN695  SER759  ASP760  ASP761  ALA762  ILE779  LEU786  VAL792 
 PHE793  MET794  SER795  GLU796  ALA797  LYS798  CYS799  TRP800  GLU811  SER814 

> <Gold.Protein.RotatedAtoms>
  150.6897  134.2223  159.4401 H   0  0  0  0  0  0  0  0  0  0  0  0  # atno 6907 bound_to 6896
  152.0178  134.9837  160.0579 H   0  0  0  0  0  0  0  0  0  0  0  0  # atno 6908 bound_to 6896
  152.1426  133.4438  159.4811 H   0  0  0  0  0  0  0  0  0  0  0  0  # atno 6909 bound_to 6896
  146.1013  140.5756  142.8820 H   0  0  0  0  0  0  0  0  0  0  0  0  # atno 7974 bound_to 7965
  155.6978  140.3495  155.4920 H   0  0  0  0  0  0  0  0  0  0  0  0  # atno 8008 bound_to 7997
  155.9467  140.1111  157.1033 H   0  0  0  0  0  0  0  0  0  0  0  0  # atno 8009 bound_to 7997
  154.4113  140.1202  156.4985 H   0  0  0  0  0  0  0  0  0  0  0  0  # atno 8010 bound_to 7997
  139.5795  144.1456  152.1496 H   0  0  0  0  0  0  0  0  0  0  0  0  # atno 10167 bound_to 10162
  157.1884  131.0649  151.2093 H   0  0  0  0  0  0  0  0  0  0  0  0  # atno 10718 bound_to 10713
  154.5908  135.2845  155.0637 H   0  0  0  0  0  0  0  0  0  0  0  0  # atno 10763 bound_to 10752
  154.1939  135.6436  153.5071 H   0  0  0  0  0  0  0  0  0  0  0  0  # atno 10764 bound_to 10752
  153.0120  135.5453  154.6593 H   0  0  0  0  0  0  0  0  0  0  0  0  # atno 10765 bound_to 10752
  140.3434  134.2308  155.7687 H   0  0  0  0  0  0  0  0  0  0  0  0  # atno 11005 bound_to 11000
  144.7435  140.5005  143.6852 LP  0  0  0  0  0  0  0  0  0  0  0  0  # atno 17320 bound_to 7965
  145.5849  139.1491  143.3214 LP  0  0  0  0  0  0  0  0  0  0  0  0  # atno 17321 bound_to 7965
  140.1006  144.5543  150.6991 LP  0  0  0  0  0  0  0  0  0  0  0  0  # atno 17342 bound_to 10162
  140.7074  143.2479  151.4683 LP  0  0  0  0  0  0  0  0  0  0  0  0  # atno 17343 bound_to 10162
  157.3885  130.7269  149.6680 LP  0  0  0  0  0  0  0  0  0  0  0  0  # atno 17370 bound_to 10713
  155.9715  130.4153  150.4174 LP  0  0  0  0  0  0  0  0  0  0  0  0  # atno 17371 bound_to 10713
  141.2032  133.7918  157.0351 LP  0  0  0  0  0  0  0  0  0  0  0  0  # atno 17394 bound_to 11000
  140.0762  134.9674  157.1549 LP  0  0  0  0  0  0  0  0  0  0  0  0  # atno 17395 bound_to 11000

$$$$
