AV-unprocessed.smi:901|AV-procd|sdf|4091|dock4
  -GOLD-   22720 1583D 1   1.00000     0.00000
 Structure written by MMmdl.
 43 44  0  0  0  0  0  0  0  0  1 V2000
  150.9752  137.8678  158.7968 C   0  0  0  0  0  0  0  0  0  0  0  0
  151.5883  139.0577  158.0861 C   0  0  0  0  0  0  0  0  0  0  0  0
  152.3552  138.7154  156.8208 C   0  0  0  0  0  0  0  0  0  0  0  0
  151.4485  140.3117  158.5573 C   0  0  0  0  0  0  0  0  0  0  0  0
  152.0072  141.5565  157.9522 C   0  0  1  0  0  0  0  0  0  0  0  0
  151.5311  142.1610  156.6344 C   0  0  1  0  0  0  0  0  0  0  0  0
  150.4230  141.5053  155.8722 C   0  0  0  0  0  0  0  0  0  0  0  0
  150.5114  140.3514  155.4546 O   0  0  0  0  0  0  0  0  0  0  0  0
  149.3886  142.3285  155.6226 N   0  0  0  0  0  0  0  0  0  0  0  0
  148.1678  142.0425  154.9590 C   0  0  0  0  0  0  0  0  0  0  0  0
  148.0265  141.3729  153.7063 C   0  0  0  0  0  0  0  0  0  0  0  0
  146.6745  141.3480  153.5162 C   0  0  0  0  0  0  0  0  0  0  0  0
  146.0889  141.9622  154.6056 N   0  0  0  0  0  0  0  0  0  0  0  0
  144.6751  142.1828  154.8659 C   0  0  0  0  0  0  0  0  0  0  0  0
  144.3381  143.6639  155.0779 C   0  0  0  0  0  0  0  0  0  0  0  0
  143.5034  144.2184  154.1956 N   0  0  0  0  0  0  0  0  0  0  0  0
  144.8194  144.3045  156.0113 O   0  0  0  0  0  0  0  0  0  0  0  0
  147.0111  142.3940  155.4939 N   0  0  0  0  0  0  0  0  0  0  0  0
  151.2404  142.8677  157.9542 C   0  0  0  0  0  0  0  0  0  0  0  0
  149.8344  142.9530  158.5445 C   0  0  0  0  0  0  0  0  0  0  0  0
  151.9885  144.1546  158.2535 C   0  0  0  0  0  0  0  0  0  0  0  0
  151.7514  137.1592  159.0868 H   0  0  0  0  0  0  0  0  0  0  0  0
  150.2722  137.3568  158.1385 H   0  0  0  0  0  0  0  0  0  0  0  0
  150.4377  138.1700  159.6961 H   0  0  0  0  0  0  0  0  0  0  0  0
  151.6985  138.2116  156.1112 H   0  0  0  0  0  0  0  0  0  0  0  0
  153.1833  138.0459  157.0536 H   0  0  0  0  0  0  0  0  0  0  0  0
  152.7636  139.5970  156.3275 H   0  0  0  0  0  0  0  0  0  0  0  0
  150.8852  140.4478  159.4683 H   0  0  0  0  0  0  0  0  0  0  0  0
  153.0776  141.6240  158.1378 H   0  0  0  0  0  0  0  0  0  0  0  0
  152.3248  142.5628  156.0074 H   0  0  0  0  0  0  0  0  0  0  0  0
  149.4742  143.2690  155.9794 H   0  0  0  0  0  0  0  0  0  0  0  0
  148.7783  140.9706  153.0444 H   0  0  0  0  0  0  0  0  0  0  0  0
  146.0845  140.9445  152.7066 H   0  0  0  0  0  0  0  0  0  0  0  0
  144.0864  141.7966  154.0323 H   0  0  0  0  0  0  0  0  0  0  0  0
  144.3977  141.6073  155.7502 H   0  0  0  0  0  0  0  0  0  0  0  0
  143.2430  145.1895  154.2872 H   0  0  0  0  0  0  0  0  0  0  0  0
  143.1318  143.6614  153.4396 H   0  0  0  0  0  0  0  0  0  0  0  0
  149.2962  143.7993  158.1168 H   0  0  0  0  0  0  0  0  0  0  0  0
  149.8867  143.0892  159.6252 H   0  0  0  0  0  0  0  0  0  0  0  0
  149.2528  142.0527  158.3476 H   0  0  0  0  0  0  0  0  0  0  0  0
  151.4758  145.0054  157.8040 H   0  0  0  0  0  0  0  0  0  0  0  0
  153.0018  144.1158  157.8524 H   0  0  0  0  0  0  0  0  0  0  0  0
  152.0544  144.3146  159.3301 H   0  0  0  0  0  0  0  0  0  0  0  0
  1  2  1  0  0  0  0
  1 22  1  0  0  0  0
  1 23  1  0  0  0  0
  1 24  1  0  0  0  0
  2  3  1  0  0  0  0
  2  4  2  0  0  0  0
  3 25  1  0  0  0  0
  3 26  1  0  0  0  0
  3 27  1  0  0  0  0
  4  5  1  0  0  0  0
  4 28  1  0  0  0  0
  5 19  1  0  0  0  0
  5  6  1  0  0  0  0
  5 29  1  0  0  0  0
  6  7  1  0  0  0  0
  6 19  1  0  0  0  0
  6 30  1  0  0  0  0
  7  8  2  0  0  0  0
  7  9  1  0  0  0  0
  9 10  1  0  0  0  0
  9 31  1  0  0  0  0
 10 18  2  0  0  0  0
 10 11  1  0  0  0  0
 11 12  2  0  0  0  0
 11 32  1  0  0  0  0
 12 13  1  0  0  0  0
 12 33  1  0  0  0  0
 13 14  1  0  0  0  0
 13 18  1  0  0  0  0
 14 15  1  0  0  0  0
 14 34  1  0  0  0  0
 14 35  1  0  0  0  0
 15 16  1  0  0  0  0
 15 17  2  0  0  0  0
 16 36  1  0  0  0  0
 16 37  1  0  0  0  0
 19 20  1  0  0  0  0
 19 21  1  0  0  0  0
 20 38  1  0  0  0  0
 20 39  1  0  0  0  0
 20 40  1  0  0  0  0
 21 41  1  0  0  0  0
 21 42  1  0  0  0  0
 21 43  1  0  0  0  0
M  END
> <s_m_source_file>
AV-unprocessed.smi

> <i_m_source_file_index>
901

> <i_lp_mmshare_version>
43012

> <i_f3d_flags>
0

> <s_epik_input>
W0NIM11DKFtDSDNdKT1bQ0hdW0NAQEhdKEMxKFtDSDNdKVtDSDNdKVtDQEhdMUMoPU8pW05IXWMyW2NIXVtjSF1uKG4yKVtDSDJdQyg9TylbTkgyXQ==

> <s_epik_cmdline>
J2VwaWtfcHl0aG9uJywgJy1waCcsICc3LjAnLCAnLXRuJywgJzgnLCAnLW1hJywgJzIwMCcsICctbWV0YWxfYmluZGluZycsICctaW1hZScsICc8aW5maWxlLm1hZT4nLCAnLW9tYWUnLCAnPG91dGZpbGUubWFlPic=

> <r_lp_tautomer_probability>
1

> <r_epik_Ionization_Penalty>
1.01454e-05

> <r_epik_Ionization_Penalty_Charging>
0

> <r_epik_Ionization_Penalty_Neutral>
1.01454e-05

> <r_epik_State_Penalty>
-0

> <r_epik_Charging_Adjusted_Penalty>
0

> <i_epik_Tot_Q>
0

> <i_epik_Tot_abs_Q>
0

> <r_epik_Metal_State_Penalty>
-0

> <b_epik_Metal_Only>
0

> <s_lp_Force_Field>
OPLS_2005

> <r_lp_Energy>
23.331

> <b_lp_Chiralities_Consistent>
1

> <s_lp_Variant>
AV-unprocessed.smi:901-2

> <Gold.Version>
5.8.1

> <Gold.Id.Protein>
6NUR|6NUR_protein|mol2

> <Gold.PLP.Fitness>
38.8850

> <Gold.PLP.PLP>
-31.2480

> <Gold.PLP.part.hbond>
-1.9418

> <Gold.PLP.part.metal>
0.0000

> <Gold.PLP.part.buried>
-3.4764

> <Gold.PLP.part.nonpolar>
-27.3720

> <Gold.PLP.part.repulsive>
1.2897

> <Gold.PLP.ligand.clash>
0.0000

> <Gold.PLP.ligand.torsion>
0.7197

> <Gold.PLP.Chemscore.Hbond>
1.9454

> <Gold.PLP.Chemscore.CHOScore>
1.0000

> <Gold.PLP.Chemscore.Metal>
0.0000

> <Gold.Chemscore.Hbonds>
donor molecule, donor type, donor heavy atom, donor atom, acceptor molecule, acceptor atom, score
      L1  H     9    31       P1  8028  0.77
      L1  H    16    37       P1 10174  1.00
      P1  H  7989  7998       L1     8  0.23
      L1  C    12    33       P1 10175  0.96

> <Gold.PLP.Chemscore.Internal.Correction>
0.2402

> <Gold.Rescore>
     Score         DG    S(hbond)    S(metal)    S(lipo)     H(rot)  DE(clash)    DE(int)     intcor
     10.43     -15.73       1.88        0.00      80.64       2.13       1.77       3.53       ----

> <Gold.Chemscore.Fitness>
10.4278

> <Gold.Chemscore.DG>
-15.7307

> <Gold.Chemscore.ZeroCoef>
-5.4800

> <Gold.Chemscore.Hbond>
1.8776

> <Gold.Chemscore.Metal>
0.0000

> <Gold.Chemscore.Lipo>
80.6392

> <Gold.Chemscore.Internal_Hbond>
0.0000

> <Gold.Chemscore.DEClash>
1.7726

> <Gold.Chemscore.DEInternal>
3.5303

> <Gold.Chemscore.Rot>
2.1309

> <Gold.Chemscore.Internal.Correction>
   9.000000E+99

> <Gold.Chemscore.Hbonds>
donor molecule, donor type, donor heavy atom, donor atom, acceptor molecule, acceptor atom, score
      L1  H     9    31       P1  8028  0.75
      L1  H    16    37       P1 10174  1.00
      P1  H  7989  7998       L1     8  0.04

> <Gold.Chemscore.Hbond.Weighted>
-6.2710

> <Gold.Chemscore.Metal.Weighted>
-0.0000

> <Gold.Chemscore.Lipo.Weighted>
-9.4348

> <Gold.Chemscore.Internal_Hbond.Weighted>
0.0000

> <Gold.Chemscore.DEClash.Weighted>
1.7726

> <Gold.Chemscore.DEInternal.Weighted>
3.5303

> <Gold.Chemscore.Rot.Weighted>
5.4552

> <Gold.Chemscore.Internal.Correction.Weighted>
   9.000000E+99

> <Gold.Protein.RotatedTorsions>
[ 6907 6896 6895 6894 ] final  176.63 input  -60.11 | X-H torsion
[ 7974 7965 7964 7962 ] final   20.30 input  175.53 | X-H torsion
[ 8008 7997 7996 7995 ] final  122.05 input   59.86 | X-H torsion
[ 10167 10162 10161 10158 ] final -113.08 input  -65.29 | X-H torsion
[ 10718 10713 10712 10709 ] final   68.39 input   66.30 | X-H torsion
[ 10763 10752 10751 10750 ] final   -3.89 input  -60.55 | X-H torsion
[ 11005 11000 10999 10996 ] final  -72.09 input  -57.11 | X-H torsion

> <Gold.Protein.ActiveResidues>
 VAL166  LYS551  ARG553  GLY616  TRP617  ASP618  TYR619  PRO620  LYS621  CYS622 
 ASP623  PHE694  ASN695  SER759  ASP760  ASP761  ALA762  ILE779  LEU786  VAL792 
 PHE793  MET794  SER795  GLU796  ALA797  LYS798  CYS799  TRP800  GLU811  SER814 

> <Gold.Protein.RotatedAtoms>
  151.7170  133.3313  159.3305 H   0  0  0  0  0  0  0  0  0  0  0  0  # atno 6907 bound_to 6896
  150.7669  134.6482  159.6283 H   0  0  0  0  0  0  0  0  0  0  0  0  # atno 6908 bound_to 6896
  152.3676  134.6784  160.0238 H   0  0  0  0  0  0  0  0  0  0  0  0  # atno 6909 bound_to 6896
  146.2116  139.8189  142.8684 H   0  0  0  0  0  0  0  0  0  0  0  0  # atno 7974 bound_to 7965
  156.2712  140.2794  156.1406 H   0  0  0  0  0  0  0  0  0  0  0  0  # atno 8008 bound_to 7997
  155.0958  140.0389  157.2700 H   0  0  0  0  0  0  0  0  0  0  0  0  # atno 8009 bound_to 7997
  154.6854  140.2617  155.6872 H   0  0  0  0  0  0  0  0  0  0  0  0  # atno 8010 bound_to 7997
  140.1157  143.4487  152.1723 H   0  0  0  0  0  0  0  0  0  0  0  0  # atno 10167 bound_to 10162
  157.6286  130.9371  150.0371 H   0  0  0  0  0  0  0  0  0  0  0  0  # atno 10718 bound_to 10713
  153.3774  135.6997  153.6591 H   0  0  0  0  0  0  0  0  0  0  0  0  # atno 10763 bound_to 10752
  153.5217  135.3610  155.2635 H   0  0  0  0  0  0  0  0  0  0  0  0  # atno 10764 bound_to 10752
  154.8688  135.4159  154.3065 H   0  0  0  0  0  0  0  0  0  0  0  0  # atno 10765 bound_to 10752
  141.1603  133.6836  156.7006 H   0  0  0  0  0  0  0  0  0  0  0  0  # atno 11005 bound_to 11000
  145.3117  141.0221  143.3551 LP  0  0  0  0  0  0  0  0  0  0  0  0  # atno 17320 bound_to 7965
  144.8931  139.4748  143.6668 LP  0  0  0  0  0  0  0  0  0  0  0  0  # atno 17321 bound_to 7965
  139.5595  144.7396  151.4196 LP  0  0  0  0  0  0  0  0  0  0  0  0  # atno 17342 bound_to 10162
  140.6900  143.7883  150.7242 LP  0  0  0  0  0  0  0  0  0  0  0  0  # atno 17343 bound_to 10162
  156.1475  130.3642  149.9489 LP  0  0  0  0  0  0  0  0  0  0  0  0  # atno 17370 bound_to 10713
  156.7516  130.9117  151.3637 LP  0  0  0  0  0  0  0  0  0  0  0  0  # atno 17371 bound_to 10713
  140.2962  134.8201  157.4059 LP  0  0  0  0  0  0  0  0  0  0  0  0  # atno 17394 bound_to 11000
  140.1303  134.5104  155.8111 LP  0  0  0  0  0  0  0  0  0  0  0  0  # atno 17395 bound_to 11000

$$$$
