AV-unprocessed.smi:3354|AV-procd|sdf|12962|dock1
  -GOLD-   2272019403D 1   1.00000     0.00000
 Structure written by MMmdl.
 38 40  0  0  0  0  0  0  0  0  1 V2000
  150.9192  141.9038  157.1000 C   0  0  0  0  0  0  0  0  0  0  0  0
  150.4537  141.1624  155.8655 C   0  0  1  0  0  0  0  0  0  0  0  0
  151.1508  139.8912  155.4374 C   0  0  0  0  0  0  0  0  0  0  0  0
  149.7372  139.8351  155.9814 C   0  0  2  0  0  0  0  0  0  0  0  0
  148.6350  139.5687  155.1074 N   0  0  0  0  0  0  0  0  0  0  0  0
  148.0787  138.2266  155.0740 C   0  0  0  0  0  0  0  0  0  0  0  0
  146.9394  138.2818  154.0422 C   0  0  2  0  0  0  0  0  0  0  0  0
  146.9489  137.0968  153.1889 N   0  0  0  0  0  0  0  0  0  0  0  0
  145.8751  136.3433  152.9150 C   0  0  0  0  0  0  0  0  0  0  0  0
  144.7502  136.5825  153.3535 O   0  0  0  0  0  0  0  0  0  0  0  0
  146.1913  135.3266  152.0948 N   0  0  0  0  0  0  0  0  0  0  0  0
  145.3507  134.2907  151.6049 C   0  0  0  0  0  0  0  0  0  0  0  0
  145.7395  133.3459  150.6245 C   0  0  0  0  0  0  0  0  0  0  0  0
  144.8057  132.3794  150.2042 C   0  0  0  0  0  0  0  0  0  0  0  0
  143.5174  132.3963  150.7728 C   0  0  0  0  0  0  0  0  0  0  0  0
  143.1291  133.2983  151.6986 N   0  0  0  0  0  0  0  0  0  0  0  0
  144.0296  134.2225  152.0961 C   0  0  0  0  0  0  0  0  0  0  0  0
  147.1727  139.5800  153.2535 C   0  0  0  0  0  0  0  0  0  0  0  0
  148.2414  140.3018  154.0567 C   0  0  0  0  0  0  0  0  0  0  0  0
  148.6750  141.4064  153.7319 O   0  0  0  0  0  0  0  0  0  0  0  0
  151.2336  141.2056  157.8767 H   0  0  0  0  0  0  0  0  0  0  0  0
  150.1091  142.5181  157.4932 H   0  0  0  0  0  0  0  0  0  0  0  0
  151.7599  142.5522  156.8529 H   0  0  0  0  0  0  0  0  0  0  0  0
  150.1284  141.8179  155.0594 H   0  0  0  0  0  0  0  0  0  0  0  0
  151.3125  139.7611  154.3690 H   0  0  0  0  0  0  0  0  0  0  0  0
  151.9452  139.5073  156.0745 H   0  0  0  0  0  0  0  0  0  0  0  0
  149.6389  139.4273  156.9859 H   0  0  0  0  0  0  0  0  0  0  0  0
  148.8630  137.5278  154.7779 H   0  0  0  0  0  0  0  0  0  0  0  0
  147.7151  137.9269  156.0579 H   0  0  0  0  0  0  0  0  0  0  0  0
  145.9868  138.3491  154.5715 H   0  0  0  0  0  0  0  0  0  0  0  0
  147.8349  136.8323  152.7835 H   0  0  0  0  0  0  0  0  0  0  0  0
  147.1384  135.3153  151.7457 H   0  0  0  0  0  0  0  0  0  0  0  0
  146.7214  133.3510  150.1777 H   0  0  0  0  0  0  0  0  0  0  0  0
  145.0702  131.6445  149.4583 H   0  0  0  0  0  0  0  0  0  0  0  0
  142.7775  131.6697  150.4709 H   0  0  0  0  0  0  0  0  0  0  0  0
  143.6829  134.9300  152.8353 H   0  0  0  0  0  0  0  0  0  0  0  0
  147.5493  139.3928  152.2467 H   0  0  0  0  0  0  0  0  0  0  0  0
  146.2649  140.1796  153.1776 H   0  0  0  0  0  0  0  0  0  0  0  0
  1  2  1  0  0  0  0
  1 21  1  0  0  0  0
  1 22  1  0  0  0  0
  1 23  1  0  0  0  0
  2  4  1  0  0  0  0
  2  3  1  0  0  0  0
  2 24  1  0  0  0  0
  3  4  1  0  0  0  0
  3 25  1  0  0  0  0
  3 26  1  0  0  0  0
  4  5  1  0  0  0  0
  4 27  1  0  0  0  0
  5 19  1  0  0  0  0
  5  6  1  0  0  0  0
  6  7  1  0  0  0  0
  6 28  1  0  0  0  0
  6 29  1  0  0  0  0
  7  8  1  0  0  0  0
  7 18  1  0  0  0  0
  7 30  1  0  0  0  0
  8  9  1  0  0  0  0
  8 31  1  0  0  0  0
  9 10  2  0  0  0  0
  9 11  1  0  0  0  0
 11 12  1  0  0  0  0
 11 32  1  0  0  0  0
 12 17  1  0  0  0  0
 12 13  2  0  0  0  0
 13 14  1  0  0  0  0
 13 33  1  0  0  0  0
 14 15  2  0  0  0  0
 14 34  1  0  0  0  0
 15 16  1  0  0  0  0
 15 35  1  0  0  0  0
 16 17  2  0  0  0  0
 17 36  1  0  0  0  0
 18 19  1  0  0  0  0
 18 37  1  0  0  0  0
 18 38  1  0  0  0  0
 19 20  2  0  0  0  0
M  END
> <s_m_source_file>
AV-unprocessed.smi

> <i_m_source_file_index>
3354

> <i_lp_mmshare_version>
43012

> <i_f3d_flags>
0

> <s_epik_input>
W0NIM11bQ0BASF0xW0NIMl1bQ0BIXTFOMltDSDJdW0NASF0oW0NIMl1DMj1PKVtOSF1DKD1PKVtOSF1jM1tjSF1bY0hdW2NIXW5bY0hdMw==

> <s_epik_cmdline>
J2VwaWtfcHl0aG9uJywgJy1waCcsICc3LjAnLCAnLXRuJywgJzgnLCAnLW1hJywgJzIwMCcsICctbWV0YWxfYmluZGluZycsICctaW1hZScsICc8aW5maWxlLm1hZT4nLCAnLW9tYWUnLCAnPG91dGZpbGUubWFlPic=

> <r_epik_Ionization_Penalty>
0.00456191

> <r_epik_Ionization_Penalty_Charging>
0

> <r_epik_Ionization_Penalty_Neutral>
0.00456191

> <r_epik_State_Penalty>
0.00327094

> <r_epik_Charging_Adjusted_Penalty>
0.00327094

> <i_epik_Tot_Q>
0

> <i_epik_Tot_abs_Q>
0

> <r_epik_Metal_State_Penalty>
-0

> <b_epik_Metal_Only>
0

> <s_lp_Force_Field>
OPLS_2005

> <r_lp_Energy>
40.9267

> <b_lp_Chiralities_Consistent>
1

> <s_lp_Variant>
AV-unprocessed.smi:3354-8

> <Gold.Version>
5.8.1

> <Gold.Id.Protein>
6NUR|6NUR_protein|mol2

> <Gold.PLP.Fitness>
42.6823

> <Gold.PLP.PLP>
-31.8530

> <Gold.PLP.part.hbond>
-3.0000

> <Gold.PLP.part.metal>
0.0000

> <Gold.PLP.part.buried>
-4.9045

> <Gold.PLP.part.nonpolar>
-25.3212

> <Gold.PLP.part.repulsive>
1.2534

> <Gold.PLP.ligand.clash>
0.0000

> <Gold.PLP.ligand.torsion>
0.3190

> <Gold.PLP.Chemscore.Hbond>
2.6960

> <Gold.PLP.Chemscore.CHOScore>
1.0000

> <Gold.PLP.Chemscore.Metal>
0.0000

> <Gold.Chemscore.Hbonds>
donor molecule, donor type, donor heavy atom, donor atom, acceptor molecule, acceptor atom, score
      L1  H     8    31       P1  7948  1.00
      L1  H    11    32       P1  7948  0.91
      P1  H  8011  8017       L1    20  0.72
      L1  C    15    35       P1 10952  1.00

> <Gold.PLP.Chemscore.Internal.Correction>
0.3794

> <Gold.Rescore>
     Score         DG    S(hbond)    S(metal)    S(lipo)     H(rot)  DE(clash)    DE(int)     intcor
     16.31     -19.43       2.61        0.00      71.72       1.24       0.03       3.08       ----

> <Gold.Chemscore.Fitness>
16.3144

> <Gold.Chemscore.DG>
-19.4318

> <Gold.Chemscore.ZeroCoef>
-5.4800

> <Gold.Chemscore.Hbond>
2.6124

> <Gold.Chemscore.Metal>
0.0000

> <Gold.Chemscore.Lipo>
71.7163

> <Gold.Chemscore.Internal_Hbond>
0.0000

> <Gold.Chemscore.DEClash>
0.0332

> <Gold.Chemscore.DEInternal>
3.0842

> <Gold.Chemscore.Rot>
1.2361

> <Gold.Chemscore.Internal.Correction>
   9.000000E+99

> <Gold.Chemscore.Hbonds>
donor molecule, donor type, donor heavy atom, donor atom, acceptor molecule, acceptor atom, score
      L1  H     8    31       P1  7948  0.97
      L1  H    11    32       P1  7948  0.85
      P1  H  8011  8017       L1    20  0.68

> <Gold.Chemscore.Hbond.Weighted>
-8.7253

> <Gold.Chemscore.Metal.Weighted>
-0.0000

> <Gold.Chemscore.Lipo.Weighted>
-8.3908

> <Gold.Chemscore.Internal_Hbond.Weighted>
0.0000

> <Gold.Chemscore.DEClash.Weighted>
0.0332

> <Gold.Chemscore.DEInternal.Weighted>
3.0842

> <Gold.Chemscore.Rot.Weighted>
3.1643

> <Gold.Chemscore.Internal.Correction.Weighted>
   9.000000E+99

> <Gold.Protein.RotatedTorsions>
[ 6907 6896 6895 6894 ] final  -50.41 input  -60.11 | X-H torsion
[ 7974 7965 7964 7962 ] final  133.23 input  175.53 | X-H torsion
[ 8008 7997 7996 7995 ] final  -95.14 input   59.86 | X-H torsion
[ 10167 10162 10161 10158 ] final -127.85 input  -65.29 | X-H torsion
[ 10718 10713 10712 10709 ] final   91.09 input   66.30 | X-H torsion
[ 10763 10752 10751 10750 ] final  114.62 input  -60.55 | X-H torsion
[ 11005 11000 10999 10996 ] final  -64.01 input  -57.11 | X-H torsion

> <Gold.Protein.ActiveResidues>
 VAL166  LYS551  ARG553  GLY616  TRP617  ASP618  TYR619  PRO620  LYS621  CYS622 
 ASP623  PHE694  ASN695  SER759  ASP760  ASP761  ALA762  ILE779  LEU786  VAL792 
 PHE793  MET794  SER795  GLU796  ALA797  LYS798  CYS799  TRP800  GLU811  SER814 

> <Gold.Protein.RotatedAtoms>
  150.8709  134.8083  159.7154 H   0  0  0  0  0  0  0  0  0  0  0  0  # atno 6907 bound_to 6896
  152.4714  134.4948  159.9716 H   0  0  0  0  0  0  0  0  0  0  0  0  # atno 6908 bound_to 6896
  151.5036  133.3461  159.2908 H   0  0  0  0  0  0  0  0  0  0  0  0  # atno 6909 bound_to 6896
  144.9886  139.4430  143.5350 H   0  0  0  0  0  0  0  0  0  0  0  0  # atno 7974 bound_to 7965
  154.7575  140.0483  157.0946 H   0  0  0  0  0  0  0  0  0  0  0  0  # atno 8008 bound_to 7997
  154.9979  140.3121  155.4860 H   0  0  0  0  0  0  0  0  0  0  0  0  # atno 8009 bound_to 7997
  156.2898  140.2207  156.5087 H   0  0  0  0  0  0  0  0  0  0  0  0  # atno 8010 bound_to 7997
  139.9565  143.5997  152.2459 H   0  0  0  0  0  0  0  0  0  0  0  0  # atno 10167 bound_to 10162
  157.6960  131.0395  150.3677 H   0  0  0  0  0  0  0  0  0  0  0  0  # atno 10718 bound_to 10713
  153.5100  135.3620  155.2582 H   0  0  0  0  0  0  0  0  0  0  0  0  # atno 10763 bound_to 10752
  154.8742  135.4020  154.3379 H   0  0  0  0  0  0  0  0  0  0  0  0  # atno 10764 bound_to 10752
  153.4031  135.7075  153.6479 H   0  0  0  0  0  0  0  0  0  0  0  0  # atno 10765 bound_to 10752
  141.1411  133.6660  156.5768 H   0  0  0  0  0  0  0  0  0  0  0  0  # atno 11005 bound_to 11000
  146.3426  139.9204  142.8767 LP  0  0  0  0  0  0  0  0  0  0  0  0  # atno 17320 bound_to 7965
  145.2318  140.9976  143.3986 LP  0  0  0  0  0  0  0  0  0  0  0  0  # atno 17321 bound_to 7965
  139.6587  144.7662  151.2005 LP  0  0  0  0  0  0  0  0  0  0  0  0  # atno 17342 bound_to 10162
  140.7566  143.6045  150.8667 LP  0  0  0  0  0  0  0  0  0  0  0  0  # atno 17343 bound_to 10162
  156.4106  130.3933  149.6894 LP  0  0  0  0  0  0  0  0  0  0  0  0  # atno 17370 bound_to 10713
  156.4180  130.7754  151.2770 LP  0  0  0  0  0  0  0  0  0  0  0  0  # atno 17371 bound_to 10713
  140.3869  134.7474  157.4697 LP  0  0  0  0  0  0  0  0  0  0  0  0  # atno 17394 bound_to 11000
  140.0595  134.6016  155.8765 LP  0  0  0  0  0  0  0  0  0  0  0  0  # atno 17395 bound_to 11000

$$$$
