AV-unprocessed.smi:626|AV-procd|sdf|3109|dock2
  -GOLD-   22720 0 33D 1   1.00000     0.00000
 Structure written by MMmdl.
 34 36  0  0  0  0  0  0  0  0  1 V2000
  147.8651  138.7626  153.5253 C   0  0  0  0  0  0  0  0  0  0  0  0
  149.1149  138.4900  154.2185 N   0  0  0  0  0  0  0  0  0  0  0  0
  150.0726  139.4033  154.4347 C   0  0  0  0  0  0  0  0  0  0  0  0
  149.9774  140.5736  154.0606 O   0  0  0  0  0  0  0  0  0  0  0  0
  151.3106  138.9060  155.1934 C   0  0  0  0  0  0  0  0  0  0  0  0
  151.6970  139.8139  156.3199 C   0  0  0  0  0  0  0  0  0  0  0  0
  152.7498  139.5548  157.0862 N   0  0  0  0  0  0  0  0  0  0  0  0
  152.7498  140.6148  158.0041 O   0  0  0  0  0  0  0  0  0  0  0  0
  151.7092  141.4105  157.6563 C   0  0  0  0  0  0  0  0  0  0  0  0
  151.3944  142.5950  158.5185 C   0  0  2  0  0  0  0  0  0  0  0  0
  151.4121  143.9461  157.7733 C   0  0  0  0  0  0  0  0  0  0  0  0
  152.3111  144.8141  158.6748 C   0  0  1  0  0  0  0  0  0  0  0  0
  151.6033  145.0842  160.0172 C   0  0  0  0  0  0  0  0  0  0  0  0
  151.6939  143.7217  160.7339 C   0  0  0  0  0  0  0  0  0  0  0  0
  152.3852  142.8340  159.6813 C   0  0  2  0  0  0  0  0  0  0  0  0
  153.3886  143.8178  159.0836 C   0  0  0  0  0  0  0  0  0  0  0  0
  150.9895  140.9315  156.6431 N   0  0  0  0  0  0  0  0  0  0  0  0
  147.2511  137.8625  153.4984 H   0  0  0  0  0  0  0  0  0  0  0  0
  148.0516  139.0792  152.4982 H   0  0  0  0  0  0  0  0  0  0  0  0
  147.3007  139.5452  154.0342 H   0  0  0  0  0  0  0  0  0  0  0  0
  149.2600  137.5497  154.5576 H   0  0  0  0  0  0  0  0  0  0  0  0
  151.1092  137.9087  155.5865 H   0  0  0  0  0  0  0  0  0  0  0  0
  152.1490  138.8114  154.5016 H   0  0  0  0  0  0  0  0  0  0  0  0
  150.3982  142.4229  158.9293 H   0  0  0  0  0  0  0  0  0  0  0  0
  151.8647  143.8463  156.7854 H   0  0  0  0  0  0  0  0  0  0  0  0
  150.4137  144.3641  157.6407 H   0  0  0  0  0  0  0  0  0  0  0  0
  152.6801  145.7154  158.1845 H   0  0  0  0  0  0  0  0  0  0  0  0
  152.1272  145.8524  160.5873 H   0  0  0  0  0  0  0  0  0  0  0  0
  150.5729  145.4136  159.8786 H   0  0  0  0  0  0  0  0  0  0  0  0
  152.3073  143.8025  161.6323 H   0  0  0  0  0  0  0  0  0  0  0  0
  150.7172  143.3395  161.0333 H   0  0  0  0  0  0  0  0  0  0  0  0
  152.8102  141.9221  160.1028 H   0  0  0  0  0  0  0  0  0  0  0  0
  153.9474  143.4153  158.2376 H   0  0  0  0  0  0  0  0  0  0  0  0
  154.0928  144.2168  159.8159 H   0  0  0  0  0  0  0  0  0  0  0  0
  1  2  1  0  0  0  0
  1 18  1  0  0  0  0
  1 19  1  0  0  0  0
  1 20  1  0  0  0  0
  2  3  1  0  0  0  0
  2 21  1  0  0  0  0
  3  4  2  0  0  0  0
  3  5  1  0  0  0  0
  5  6  1  0  0  0  0
  5 22  1  0  0  0  0
  5 23  1  0  0  0  0
  6 17  1  0  0  0  0
  6  7  2  0  0  0  0
  7  8  1  0  0  0  0
  8  9  1  0  0  0  0
  9 10  1  0  0  0  0
  9 17  2  0  0  0  0
 10 15  1  0  0  0  0
 10 11  1  0  0  0  0
 10 24  1  0  0  0  0
 11 12  1  0  0  0  0
 11 25  1  0  0  0  0
 11 26  1  0  0  0  0
 12 16  1  0  0  0  0
 12 13  1  0  0  0  0
 12 27  1  0  0  0  0
 13 14  1  0  0  0  0
 13 28  1  0  0  0  0
 13 29  1  0  0  0  0
 14 15  1  0  0  0  0
 14 30  1  0  0  0  0
 14 31  1  0  0  0  0
 15 16  1  0  0  0  0
 15 32  1  0  0  0  0
 16 33  1  0  0  0  0
 16 34  1  0  0  0  0
M  END
> <s_m_source_file>
AV-unprocessed.smi

> <i_m_source_file_index>
626

> <i_lp_mmshare_version>
43012

> <i_f3d_flags>
0

> <s_epik_input>
W0NIM11bTkhdQyg9TylbQ0gyXWMxbm9jKG4xKVtDQEhdKFtDSDJdW0NAQEhdMjMpW0NAQEhdKFtDSDJdMylbQ0gyXVtDSDJdMg==

> <s_epik_cmdline>
J2VwaWtfcHl0aG9uJywgJy1waCcsICc3LjAnLCAnLXRuJywgJzgnLCAnLW1hJywgJzIwMCcsICctbWV0YWxfYmluZGluZycsICctaW1hZScsICc8aW5maWxlLm1hZT4nLCAnLW9tYWUnLCAnPG91dGZpbGUubWFlPic=

> <r_lp_tautomer_probability>
1

> <r_epik_Ionization_Penalty>
1.02916e-07

> <r_epik_Ionization_Penalty_Charging>
0

> <r_epik_Ionization_Penalty_Neutral>
1.02916e-07

> <r_epik_State_Penalty>
-0

> <r_epik_Charging_Adjusted_Penalty>
0

> <i_epik_Tot_Q>
0

> <i_epik_Tot_abs_Q>
0

> <r_epik_Metal_State_Penalty>
-0

> <b_epik_Metal_Only>
0

> <s_lp_Force_Field>
OPLS_2005

> <r_lp_Energy>
49.0538

> <b_lp_Chiralities_Consistent>
1

> <s_lp_Variant>
AV-unprocessed.smi:626-1

> <Gold.Version>
5.8.1

> <Gold.Id.Protein>
6NUR|6NUR_protein|mol2

> <Gold.PLP.Fitness>
41.3460

> <Gold.PLP.PLP>
-37.6364

> <Gold.PLP.part.hbond>
-3.2262

> <Gold.PLP.part.metal>
0.0000

> <Gold.PLP.part.buried>
-3.3593

> <Gold.PLP.part.nonpolar>
-31.3272

> <Gold.PLP.part.repulsive>
0.9903

> <Gold.PLP.ligand.clash>
0.0000

> <Gold.PLP.ligand.torsion>
0.1648

> <Gold.PLP.Chemscore.Hbond>
1.3200

> <Gold.PLP.Chemscore.CHOScore>
0.0000

> <Gold.PLP.Chemscore.Metal>
0.0000

> <Gold.Chemscore.Hbonds>
donor molecule, donor type, donor heavy atom, donor atom, acceptor molecule, acceptor atom, score
      P1  H  7989  7998       L1     4  0.70
      P1  H  7997  8009       L1     7  0.60

> <Gold.PLP.Chemscore.Internal.Correction>
0.0793

> <Gold.Rescore>
     Score         DG    S(hbond)    S(metal)    S(lipo)     H(rot)  DE(clash)    DE(int)     intcor
     14.07     -15.79       0.94        0.00      96.48       1.61       0.05       1.67       ----

> <Gold.Chemscore.Fitness>
14.0667

> <Gold.Chemscore.DG>
-15.7853

> <Gold.Chemscore.ZeroCoef>
-5.4800

> <Gold.Chemscore.Hbond>
0.9412

> <Gold.Chemscore.Metal>
0.0000

> <Gold.Chemscore.Lipo>
96.4827

> <Gold.Chemscore.Internal_Hbond>
0.0000

> <Gold.Chemscore.DEClash>
0.0489

> <Gold.Chemscore.DEInternal>
1.6698

> <Gold.Chemscore.Rot>
1.6119

> <Gold.Chemscore.Internal.Correction>
   9.000000E+99

> <Gold.Chemscore.Hbonds>
donor molecule, donor type, donor heavy atom, donor atom, acceptor molecule, acceptor atom, score
      P1  H  7989  7998       L1     4  0.24
      P1  H  7997  8009       L1     7  0.03
      P1  H  8011  8017       L1     4  0.01

> <Gold.Chemscore.Hbond.Weighted>
-3.1434

> <Gold.Chemscore.Metal.Weighted>
-0.0000

> <Gold.Chemscore.Lipo.Weighted>
-11.2885

> <Gold.Chemscore.Internal_Hbond.Weighted>
0.0000

> <Gold.Chemscore.DEClash.Weighted>
0.0489

> <Gold.Chemscore.DEInternal.Weighted>
1.6698

> <Gold.Chemscore.Rot.Weighted>
4.1266

> <Gold.Chemscore.Internal.Correction.Weighted>
   9.000000E+99

> <Gold.Protein.RotatedTorsions>
[ 6907 6896 6895 6894 ] final   -8.10 input  -60.11 | X-H torsion
[ 7974 7965 7964 7962 ] final -179.69 input  175.53 | X-H torsion
[ 8008 7997 7996 7995 ] final -160.70 input   59.86 | X-H torsion
[ 10167 10162 10161 10158 ] final -128.79 input  -65.29 | X-H torsion
[ 10718 10713 10712 10709 ] final -132.48 input   66.30 | X-H torsion
[ 10763 10752 10751 10750 ] final  -16.25 input  -60.55 | X-H torsion
[ 11005 11000 10999 10996 ] final -128.48 input  -57.11 | X-H torsion

> <Gold.Protein.ActiveResidues>
 VAL166  LYS551  ARG553  GLY616  TRP617  ASP618  TYR619  PRO620  LYS621  CYS622 
 ASP623  PHE694  ASN695  SER759  ASP760  ASP761  ALA762  ILE779  LEU786  VAL792 
 PHE793  MET794  SER795  GLU796  ALA797  LYS798  CYS799  TRP800  GLU811  SER814 

> <Gold.Protein.RotatedAtoms>
  151.4390  135.1018  159.9664 H   0  0  0  0  0  0  0  0  0  0  0  0  # atno 6907 bound_to 6896
  152.4929  133.8546  159.7230 H   0  0  0  0  0  0  0  0  0  0  0  0  # atno 6908 bound_to 6896
  150.9101  133.6949  159.2884 H   0  0  0  0  0  0  0  0  0  0  0  0  # atno 6909 bound_to 6896
  144.7138  140.0680  143.6430 H   0  0  0  0  0  0  0  0  0  0  0  0  # atno 7974 bound_to 7965
  155.7813  140.0865  157.2058 H   0  0  0  0  0  0  0  0  0  0  0  0  # atno 8008 bound_to 7997
  154.3990  140.1507  156.3113 H   0  0  0  0  0  0  0  0  0  0  0  0  # atno 8009 bound_to 7997
  155.8651  140.3428  155.5785 H   0  0  0  0  0  0  0  0  0  0  0  0  # atno 8010 bound_to 7997
  139.9466  143.6103  152.2488 H   0  0  0  0  0  0  0  0  0  0  0  0  # atno 10167 bound_to 10162
  156.2351  130.7061  151.0899 H   0  0  0  0  0  0  0  0  0  0  0  0  # atno 10718 bound_to 10713
  153.5556  135.7011  153.5571 H   0  0  0  0  0  0  0  0  0  0  0  0  # atno 10763 bound_to 10752
  153.3475  135.4004  155.1620 H   0  0  0  0  0  0  0  0  0  0  0  0  # atno 10764 bound_to 10752
  154.8655  135.3757  154.5070 H   0  0  0  0  0  0  0  0  0  0  0  0  # atno 10765 bound_to 10752
  140.9512  134.1063  157.4060 H   0  0  0  0  0  0  0  0  0  0  0  0  # atno 11005 bound_to 11000
  145.9808  139.2939  143.1043 LP  0  0  0  0  0  0  0  0  0  0  0  0  # atno 17320 bound_to 7965
  145.9013  140.9241  143.0501 LP  0  0  0  0  0  0  0  0  0  0  0  0  # atno 17321 bound_to 7965
  139.6662  144.7662  151.1869 LP  0  0  0  0  0  0  0  0  0  0  0  0  # atno 17342 bound_to 10162
  140.7595  143.5934  150.8773 LP  0  0  0  0  0  0  0  0  0  0  0  0  # atno 17343 bound_to 10162
  157.7150  131.0714  150.6359 LP  0  0  0  0  0  0  0  0  0  0  0  0  # atno 17370 bound_to 10713
  156.6429  130.4463  149.5746 LP  0  0  0  0  0  0  0  0  0  0  0  0  # atno 17371 bound_to 10713
  139.8848  135.0066  156.6393 LP  0  0  0  0  0  0  0  0  0  0  0  0  # atno 17394 bound_to 11000
  140.7600  133.8826  155.8411 LP  0  0  0  0  0  0  0  0  0  0  0  0  # atno 17395 bound_to 11000

$$$$
