AV-unprocessed.smi:2693|AV-procd|sdf|10399|dock4
  -GOLD-   2272014433D 1   1.00000     0.00000
 Structure written by MMmdl.
 45 47  0  0  0  0  0  0  0  0  1 V2000
  146.4809  133.0087  150.4442 C   0  0  0  0  0  0  0  0  0  0  0  0
  145.2267  132.9518  151.1895 N   0  0  0  0  0  0  0  0  0  0  0  0
  144.6347  131.6369  151.4199 C   0  0  0  0  0  0  0  0  0  0  0  0
  144.6026  134.1163  151.6468 C   0  0  0  0  0  0  0  0  0  0  0  0
  143.4885  133.9733  152.3760 N   0  0  0  0  0  0  0  0  0  0  0  0
  142.8785  135.0923  152.8214 C   0  0  0  0  0  0  0  0  0  0  0  0
  143.3910  136.3811  152.5378 C   0  0  0  0  0  0  0  0  0  0  0  0
  142.8103  137.6103  152.9528 N   0  0  0  0  0  0  0  0  0  0  0  0
  141.7068  137.8114  153.6930 C   0  0  0  0  0  0  0  0  0  0  0  0
  140.9904  136.9286  154.1632 O   0  0  0  0  0  0  0  0  0  0  0  0
  141.4813  139.1185  153.8789 N   0  0  0  0  0  0  0  0  0  0  0  0
  140.3635  139.6599  154.6454 C   0  0  2  0  0  0  0  0  0  0  0  0
  139.5302  140.6685  153.8397 C   0  0  1  0  0  0  0  0  0  0  0  0
  138.1022  140.3503  153.4884 C   0  0  0  0  0  0  0  0  0  0  0  0
  137.3137  141.0371  154.6071 C   0  0  0  0  0  0  0  0  0  0  0  0
  138.2496  141.1758  155.6738 O   0  0  0  0  0  0  0  0  0  0  0  0
  139.5068  141.5226  155.0982 C   0  0  1  0  0  0  0  0  0  0  0  0
  140.7462  140.7825  155.6438 C   0  0  0  0  0  0  0  0  0  0  0  0
  140.7059  140.4099  157.1266 C   0  0  0  0  0  0  0  0  0  0  0  0
  142.0718  141.5208  155.4091 C   0  0  0  0  0  0  0  0  0  0  0  0
  144.5627  136.4135  151.7554 C   0  0  0  0  0  0  0  0  0  0  0  0
  145.1632  135.2874  151.3171 N   0  0  0  0  0  0  0  0  0  0  0  0
  147.2506  133.5125  151.0301 H   0  0  0  0  0  0  0  0  0  0  0  0
  146.3432  133.5580  149.5121 H   0  0  0  0  0  0  0  0  0  0  0  0
  146.8527  132.0152  150.1940 H   0  0  0  0  0  0  0  0  0  0  0  0
  143.6401  131.5843  150.9759 H   0  0  0  0  0  0  0  0  0  0  0  0
  144.5447  131.4423  152.4891 H   0  0  0  0  0  0  0  0  0  0  0  0
  145.2340  130.8370  150.9853 H   0  0  0  0  0  0  0  0  0  0  0  0
  141.9758  134.9283  153.3874 H   0  0  0  0  0  0  0  0  0  0  0  0
  143.3172  138.4398  152.6806 H   0  0  0  0  0  0  0  0  0  0  0  0
  142.1199  139.7821  153.4654 H   0  0  0  0  0  0  0  0  0  0  0  0
  139.7347  138.8940  155.1056 H   0  0  0  0  0  0  0  0  0  0  0  0
  140.1015  141.1471  153.0419 H   0  0  0  0  0  0  0  0  0  0  0  0
  137.8171  140.7289  152.5065 H   0  0  0  0  0  0  0  0  0  0  0  0
  137.9298  139.2735  153.4966 H   0  0  0  0  0  0  0  0  0  0  0  0
  136.9859  142.0287  154.2912 H   0  0  0  0  0  0  0  0  0  0  0  0
  136.4354  140.4691  154.9144 H   0  0  0  0  0  0  0  0  0  0  0  0
  139.6244  142.5916  154.9145 H   0  0  0  0  0  0  0  0  0  0  0  0
  140.7152  141.2959  157.7620 H   0  0  0  0  0  0  0  0  0  0  0  0
  141.5595  139.7917  157.4068 H   0  0  0  0  0  0  0  0  0  0  0  0
  139.8075  139.8439  157.3749 H   0  0  0  0  0  0  0  0  0  0  0  0
  142.1316  142.4290  156.0095 H   0  0  0  0  0  0  0  0  0  0  0  0
  142.1901  141.8197  154.3672 H   0  0  0  0  0  0  0  0  0  0  0  0
  142.9307  140.9009  155.6684 H   0  0  0  0  0  0  0  0  0  0  0  0
  145.0260  137.3493  151.4788 H   0  0  0  0  0  0  0  0  0  0  0  0
  1  2  1  0  0  0  0
  1 23  1  0  0  0  0
  1 24  1  0  0  0  0
  1 25  1  0  0  0  0
  2  3  1  0  0  0  0
  2  4  1  0  0  0  0
  3 26  1  0  0  0  0
  3 27  1  0  0  0  0
  3 28  1  0  0  0  0
  4 22  1  0  0  0  0
  4  5  2  0  0  0  0
  5  6  1  0  0  0  0
  6  7  2  0  0  0  0
  6 29  1  0  0  0  0
  7  8  1  0  0  0  0
  7 21  1  0  0  0  0
  8  9  1  0  0  0  0
  8 30  1  0  0  0  0
  9 10  2  0  0  0  0
  9 11  1  0  0  0  0
 11 12  1  0  0  0  0
 11 31  1  0  0  0  0
 12 18  1  0  0  0  0
 12 13  1  0  0  0  0
 12 32  1  0  0  0  0
 13 17  1  0  0  0  0
 13 14  1  0  0  0  0
 13 33  1  0  0  0  0
 14 15  1  0  0  0  0
 14 34  1  0  0  0  0
 14 35  1  0  0  0  0
 15 16  1  0  0  0  0
 15 36  1  0  0  0  0
 15 37  1  0  0  0  0
 16 17  1  0  0  0  0
 17 18  1  0  0  0  0
 17 38  1  0  0  0  0
 18 19  1  0  0  0  0
 18 20  1  0  0  0  0
 19 39  1  0  0  0  0
 19 40  1  0  0  0  0
 19 41  1  0  0  0  0
 20 42  1  0  0  0  0
 20 43  1  0  0  0  0
 20 44  1  0  0  0  0
 21 22  2  0  0  0  0
 21 45  1  0  0  0  0
M  END
> <s_m_source_file>
AV-unprocessed.smi

> <i_m_source_file_index>
2693

> <i_lp_mmshare_version>
43012

> <i_f3d_flags>
0

> <s_epik_input>
W0NIM11OKFtDSDNdKWMxbltjSF1jKFtjSF1uMSlbTkhdQyg9TylbTkhdW0NASF0yQyhbQ0gzXSkoW0NIM10pW0NAQEhdKFtDQEhdMjMpT1tDSDJdW0NIMl0z

> <s_epik_cmdline>
J2VwaWtfcHl0aG9uJywgJy1waCcsICc3LjAnLCAnLXRuJywgJzgnLCAnLW1hJywgJzIwMCcsICctbWV0YWxfYmluZGluZycsICctaW1hZScsICc8aW5maWxlLm1hZT4nLCAnLW9tYWUnLCAnPG91dGZpbGUubWFlPic=

> <r_lp_tautomer_probability>
1

> <r_epik_Ionization_Penalty>
0.00031779

> <r_epik_Ionization_Penalty_Charging>
0

> <r_epik_Ionization_Penalty_Neutral>
0.00031779

> <r_epik_State_Penalty>
-0

> <r_epik_Charging_Adjusted_Penalty>
0

> <i_epik_Tot_Q>
0

> <i_epik_Tot_abs_Q>
0

> <r_epik_Metal_State_Penalty>
-0

> <b_epik_Metal_Only>
0

> <s_lp_Force_Field>
OPLS_2005

> <r_lp_Energy>
29.3552

> <b_lp_Chiralities_Consistent>
1

> <s_lp_Variant>
AV-unprocessed.smi:2693-3

> <Gold.Version>
5.8.1

> <Gold.Id.Protein>
6NUR|6NUR_protein|mol2

> <Gold.PLP.Fitness>
36.5830

> <Gold.PLP.PLP>
-28.6515

> <Gold.PLP.part.hbond>
-2.0050

> <Gold.PLP.part.metal>
0.0000

> <Gold.PLP.part.buried>
-3.7482

> <Gold.PLP.part.nonpolar>
-23.7303

> <Gold.PLP.part.repulsive>
0.4769

> <Gold.PLP.ligand.clash>
0.0000

> <Gold.PLP.ligand.torsion>
0.1034

> <Gold.PLP.Chemscore.Hbond>
2.0000

> <Gold.PLP.Chemscore.CHOScore>
0.6540

> <Gold.PLP.Chemscore.Metal>
0.0000

> <Gold.Chemscore.Hbonds>
donor molecule, donor type, donor heavy atom, donor atom, acceptor molecule, acceptor atom, score
      L1  H     8    30       P1 10175  1.00
      L1  H    11    31       P1 10175  1.00
      L1  C    21    45       P1 10171  0.70

> <Gold.PLP.Chemscore.Internal.Correction>
0.1763

> <Gold.Rescore>
     Score         DG    S(hbond)    S(metal)    S(lipo)     H(rot)  DE(clash)    DE(int)     intcor
     14.02     -15.81       1.80        0.00      58.76       1.00       0.53       1.27       ----

> <Gold.Chemscore.Fitness>
14.0189

> <Gold.Chemscore.DG>
-15.8149

> <Gold.Chemscore.ZeroCoef>
-5.4800

> <Gold.Chemscore.Hbond>
1.8026

> <Gold.Chemscore.Metal>
0.0000

> <Gold.Chemscore.Lipo>
58.7551

> <Gold.Chemscore.Internal_Hbond>
0.0000

> <Gold.Chemscore.DEClash>
0.5283

> <Gold.Chemscore.DEInternal>
1.2678

> <Gold.Chemscore.Rot>
1.0000

> <Gold.Chemscore.Internal.Correction>
   9.000000E+99

> <Gold.Chemscore.Hbonds>
donor molecule, donor type, donor heavy atom, donor atom, acceptor molecule, acceptor atom, score
      L1  H     8    30       P1 10175  0.92
      L1  H    11    31       P1 10175  0.88

> <Gold.Chemscore.Hbond.Weighted>
-6.0206

> <Gold.Chemscore.Metal.Weighted>
-0.0000

> <Gold.Chemscore.Lipo.Weighted>
-6.8743

> <Gold.Chemscore.Internal_Hbond.Weighted>
0.0000

> <Gold.Chemscore.DEClash.Weighted>
0.5283

> <Gold.Chemscore.DEInternal.Weighted>
1.2678

> <Gold.Chemscore.Rot.Weighted>
2.5600

> <Gold.Chemscore.Internal.Correction.Weighted>
   9.000000E+99

> <Gold.Protein.RotatedTorsions>
[ 6907 6896 6895 6894 ] final   37.13 input  -60.11 | X-H torsion
[ 7974 7965 7964 7962 ] final   91.43 input  175.53 | X-H torsion
[ 8008 7997 7996 7995 ] final   68.92 input   59.86 | X-H torsion
[ 10167 10162 10161 10158 ] final -101.73 input  -65.29 | X-H torsion
[ 10718 10713 10712 10709 ] final  -88.66 input   66.30 | X-H torsion
[ 10763 10752 10751 10750 ] final   27.68 input  -60.55 | X-H torsion
[ 11005 11000 10999 10996 ] final   42.77 input  -57.11 | X-H torsion

> <Gold.Protein.ActiveResidues>
 VAL166  LYS551  ARG553  GLY616  TRP617  ASP618  TYR619  PRO620  LYS621  CYS622 
 ASP623  PHE694  ASN695  SER759  ASP760  ASP761  ALA762  ILE779  LEU786  VAL792 
 PHE793  MET794  SER795  GLU796  ALA797  LYS798  CYS799  TRP800  GLU811  SER814 

> <Gold.Protein.RotatedAtoms>
  152.1390  134.9077  160.0554 H   0  0  0  0  0  0  0  0  0  0  0  0  # atno 6907 bound_to 6896
  152.0152  133.3872  159.4244 H   0  0  0  0  0  0  0  0  0  0  0  0  # atno 6908 bound_to 6896
  150.6863  134.3608  159.4993 H   0  0  0  0  0  0  0  0  0  0  0  0  # atno 6909 bound_to 6896
  145.5058  139.2276  143.2752 H   0  0  0  0  0  0  0  0  0  0  0  0  # atno 7974 bound_to 7965
  155.7157  140.3494  155.4993 H   0  0  0  0  0  0  0  0  0  0  0  0  # atno 8008 bound_to 7997
  155.9315  140.1085  157.1150 H   0  0  0  0  0  0  0  0  0  0  0  0  # atno 8009 bound_to 7997
  154.4086  140.1230  156.4795 H   0  0  0  0  0  0  0  0  0  0  0  0  # atno 8010 bound_to 7997
  140.2382  143.3557  152.0825 H   0  0  0  0  0  0  0  0  0  0  0  0  # atno 10167 bound_to 10162
  155.9983  130.4844  150.5053 H   0  0  0  0  0  0  0  0  0  0  0  0  # atno 10718 bound_to 10713
  153.0540  135.6531  154.0624 H   0  0  0  0  0  0  0  0  0  0  0  0  # atno 10763 bound_to 10752
  154.0306  135.2912  155.3370 H   0  0  0  0  0  0  0  0  0  0  0  0  # atno 10764 bound_to 10752
  154.6844  135.5307  153.8374 H   0  0  0  0  0  0  0  0  0  0  0  0  # atno 10765 bound_to 10752
  140.1708  134.4224  155.8258 H   0  0  0  0  0  0  0  0  0  0  0  0  # atno 11005 bound_to 11000
  146.2198  140.5862  142.9022 LP  0  0  0  0  0  0  0  0  0  0  0  0  # atno 17320 bound_to 7965
  144.7755  140.5729  143.6641 LP  0  0  0  0  0  0  0  0  0  0  0  0  # atno 17321 bound_to 7965
  139.5086  144.6853  151.5904 LP  0  0  0  0  0  0  0  0  0  0  0  0  # atno 17342 bound_to 10162
  140.6133  143.9395  150.6470 LP  0  0  0  0  0  0  0  0  0  0  0  0  # atno 17343 bound_to 10162
  157.3033  131.0649  151.2053 LP  0  0  0  0  0  0  0  0  0  0  0  0  # atno 17370 bound_to 10713
  157.3025  130.6849  149.6171 LP  0  0  0  0  0  0  0  0  0  0  0  0  # atno 17371 bound_to 10713
  141.2217  133.6955  156.7760 LP  0  0  0  0  0  0  0  0  0  0  0  0  # atno 17394 bound_to 11000
  140.2379  134.8636  157.3544 LP  0  0  0  0  0  0  0  0  0  0  0  0  # atno 17395 bound_to 11000

$$$$
