AV-unprocessed.smi:101|AV-procd|sdf|937|dock5
  -GOLD-   2262017453D 1   1.00000     0.00000
 Structure written by MMmdl.
 43 45  0  0  0  0  0  0  0  0  2 V2000
  144.5043  137.7565  157.6723 C   0  0  0  0  0  0  0  0  0  0  0  0
  144.7844  137.7092  156.1803 C   0  0  0  0  0  0  0  0  0  0  0  0
  145.8424  138.3416  155.6259 C   0  0  0  0  0  0  0  0  0  0  0  0
  146.0978  138.2929  154.2651 N   0  0  0  0  0  0  0  0  0  0  0  0
  147.3007  138.9896  153.6513 C   0  0  2  0  0  0  0  0  0  0  0  0
  148.4437  138.7016  154.4025 O   0  0  0  0  0  0  0  0  0  0  0  0
  148.7979  139.8326  155.1895 C   0  0  1  0  0  0  0  0  0  0  0  0
  150.2553  139.7442  155.6608 C   0  0  0  0  0  0  0  0  0  0  0  0
  150.4918  140.8065  156.5693 O   0  0  0  0  0  0  0  0  0  0  0  0
  151.5605  140.7803  157.3864 C   0  0  0  0  0  0  0  0  0  0  0  0
  152.3572  139.8411  157.4402 O   0  0  0  0  0  0  0  0  0  0  0  0
  151.6761  142.0105  158.2218 C   0  0  0  0  0  0  0  0  0  0  0  0
  152.4425  141.9733  159.4102 C   0  0  0  0  0  0  0  0  0  0  0  0
  152.5686  143.1198  160.2187 C   0  0  0  0  0  0  0  0  0  0  0  0
  151.9306  144.3178  159.8483 C   0  0  0  0  0  0  0  0  0  0  0  0
  151.1652  144.3681  158.6687 C   0  0  0  0  0  0  0  0  0  0  0  0
  151.0369  143.2225  157.8595 C   0  0  0  0  0  0  0  0  0  0  0  0
  148.4557  141.0043  154.2671 C   0  0  1  0  0  0  0  0  0  0  0  0
  149.4746  141.1977  153.3033 O   0  0  0  0  0  0  0  0  0  0  0  0
  147.1656  140.5349  153.6039 C   0  0  2  0  0  0  0  0  0  0  0  0
  146.0561  141.0390  154.3273 O   0  0  0  0  0  0  0  0  0  0  0  0
  145.2349  137.5493  153.4185 C   0  0  0  0  0  0  0  0  0  0  0  0
  145.4915  137.5246  152.2144 O   0  0  0  0  0  0  0  0  0  0  0  0
  144.1641  136.9097  153.9681 N   0  5  0  0  0  0  0  0  0  0  0  0
  143.8865  136.9485  155.3029 C   0  0  0  0  0  0  0  0  0  0  0  0
  142.9143  136.3687  155.7858 O   0  0  0  0  0  0  0  0  0  0  0  0
  145.2385  138.3703  158.1947 H   0  0  0  0  0  0  0  0  0  0  0  0
  144.5389  136.7530  158.0976 H   0  0  0  0  0  0  0  0  0  0  0  0
  143.5166  138.1779  157.8618 H   0  0  0  0  0  0  0  0  0  0  0  0
  146.5012  138.8933  156.2781 H   0  0  0  0  0  0  0  0  0  0  0  0
  147.4251  138.5348  152.6670 H   0  0  0  0  0  0  0  0  0  0  0  0
  148.1392  139.8833  156.0582 H   0  0  0  0  0  0  0  0  0  0  0  0
  150.4517  138.7786  156.1291 H   0  0  0  0  0  0  0  0  0  0  0  0
  150.9322  139.8477  154.8119 H   0  0  0  0  0  0  0  0  0  0  0  0
  152.9414  141.0644  159.7147 H   0  0  0  0  0  0  0  0  0  0  0  0
  153.1555  143.0790  161.1244 H   0  0  0  0  0  0  0  0  0  0  0  0
  152.0277  145.1971  160.4680 H   0  0  0  0  0  0  0  0  0  0  0  0
  150.6745  145.2870  158.3827 H   0  0  0  0  0  0  0  0  0  0  0  0
  150.4411  143.2963  156.9612 H   0  0  0  0  0  0  0  0  0  0  0  0
  148.3322  141.9366  154.8203 H   0  0  0  0  0  0  0  0  0  0  0  0
  149.3210  140.6020  152.5858 H   0  0  0  0  0  0  0  0  0  0  0  0
  147.0829  140.8671  152.5681 H   0  0  0  0  0  0  0  0  0  0  0  0
  145.2833  140.9344  153.7922 H   0  0  0  0  0  0  0  0  0  0  0  0
  1  2  1  0  0  0  0
  1 27  1  0  0  0  0
  1 28  1  0  0  0  0
  1 29  1  0  0  0  0
  2 25  1  0  0  0  0
  2  3  2  0  0  0  0
  3  4  1  0  0  0  0
  3 30  1  0  0  0  0
  4  5  1  0  0  0  0
  4 22  1  0  0  0  0
  5 20  1  0  0  0  0
  5  6  1  0  0  0  0
  5 31  1  0  0  0  0
  6  7  1  0  0  0  0
  7  8  1  0  0  0  0
  7 18  1  0  0  0  0
  7 32  1  0  0  0  0
  8  9  1  0  0  0  0
  8 33  1  0  0  0  0
  8 34  1  0  0  0  0
  9 10  1  0  0  0  0
 10 11  2  0  0  0  0
 10 12  1  0  0  0  0
 12 17  1  0  0  0  0
 12 13  2  0  0  0  0
 13 14  1  0  0  0  0
 13 35  1  0  0  0  0
 14 15  2  0  0  0  0
 14 36  1  0  0  0  0
 15 16  1  0  0  0  0
 15 37  1  0  0  0  0
 16 17  2  0  0  0  0
 16 38  1  0  0  0  0
 17 39  1  0  0  0  0
 18 19  1  0  0  0  0
 18 20  1  0  0  0  0
 18 40  1  0  0  0  0
 19 41  1  0  0  0  0
 20 21  1  0  0  0  0
 20 42  1  0  0  0  0
 21 43  1  0  0  0  0
 22 23  2  0  0  0  0
 22 24  1  0  0  0  0
 24 25  1  0  0  0  0
 25 26  2  0  0  0  0
M  CHG  1  24  -1
M  END
> <s_m_source_file>
AV-unprocessed.smi

> <i_m_source_file_index>
101

> <i_lp_mmshare_version>
43012

> <i_f3d_flags>
0

> <s_epik_input>
Tz1jMVtuSF1jKD1PKW4oW2NIXWMxW0NIM10pW0NAQEhdMk9bQ0BIXShbQ0BASF0oW09IXSlbQ0BIXTJbT0hdKVtDSDJdT0MoPU8pYzNbY0hdW2NIXVtjSF1bY0hdW2NIXTM=

> <s_epik_cmdline>
J2VwaWtfcHl0aG9uJywgJy1waCcsICc3LjAnLCAnLXRuJywgJzgnLCAnLW1hJywgJzIwMCcsICctbWV0YWxfYmluZGluZycsICctaW1hZScsICc8aW5maWxlLm1hZT4nLCAnLW9tYWUnLCAnPG91dGZpbGUubWFlPic=

> <r_lp_tautomer_probability>
0.999537

> <r_epik_Ionization_Penalty>
3.21006

> <r_epik_Ionization_Penalty_Charging>
5.75142e-08

> <r_epik_Ionization_Penalty_Neutral>
3.21006

> <r_epik_State_Penalty>
3.20925

> <r_epik_Charging_Adjusted_Penalty>
3.20925

> <i_epik_Tot_Q>
-1

> <i_epik_Tot_abs_Q>
1

> <r_epik_Metal_State_Penalty>
0.119957

> <b_epik_Metal_Only>
1

> <s_epik_Chemistry_Notes>
This compound has an ester and may undergo hydrolysis at high or low pH. This compound contains an acetal/aminal-like group ( X-CH(R)-Y where X, Y are N, S, or O) that may be acid/base labile, releasing an aldehyde.

> <s_lp_Force_Field>
OPLS_2005

> <r_lp_Energy>
45.504

> <b_lp_Chiralities_Consistent>
1

> <s_lp_Variant>
AV-unprocessed.smi:101-25

> <Gold.Version>
5.8.1

> <Gold.Id.Protein>
6NUR|6NUR_protein|mol2

> <Gold.PLP.Fitness>
46.8706

> <Gold.PLP.PLP>
-37.0398

> <Gold.PLP.part.hbond>
-4.0255

> <Gold.PLP.part.metal>
0.0000

> <Gold.PLP.part.buried>
-5.6213

> <Gold.PLP.part.nonpolar>
-28.3920

> <Gold.PLP.part.repulsive>
0.4919

> <Gold.PLP.ligand.clash>
0.0000

> <Gold.PLP.ligand.torsion>
0.5648

> <Gold.PLP.Chemscore.Hbond>
3.5833

> <Gold.PLP.Chemscore.CHOScore>
0.0000

> <Gold.PLP.Chemscore.Metal>
0.0000

> <Gold.Chemscore.Hbonds>
donor molecule, donor type, donor heavy atom, donor atom, acceptor molecule, acceptor atom, score
      L1  H    19    41       P1  7957  1.00
      L1  H    21    43       P1 10175  0.80
      P1  H  7989  7998       L1    19  0.07
      P1  H  7997  8010       L1    11  0.62
      P1  H  8011  8017       L1    19  0.65

> <Gold.PLP.Chemscore.Internal.Correction>
0.2107

> <Gold.Rescore>
     Score         DG    S(hbond)    S(metal)    S(lipo)     H(rot)  DE(clash)    DE(int)     intcor
     17.38     -18.36       3.06        0.00      94.14       3.27       0.15       0.84       ----

> <Gold.Chemscore.Fitness>
17.3763

> <Gold.Chemscore.DG>
-18.3650

> <Gold.Chemscore.ZeroCoef>
-5.4800

> <Gold.Chemscore.Hbond>
3.0629

> <Gold.Chemscore.Metal>
0.0000

> <Gold.Chemscore.Lipo>
94.1431

> <Gold.Chemscore.Internal_Hbond>
0.0000

> <Gold.Chemscore.DEClash>
0.1520

> <Gold.Chemscore.DEInternal>
0.8367

> <Gold.Chemscore.Rot>
3.2656

> <Gold.Chemscore.Internal.Correction>
   9.000000E+99

> <Gold.Chemscore.Hbonds>
donor molecule, donor type, donor heavy atom, donor atom, acceptor molecule, acceptor atom, score
      L1  H    19    41       P1  7957  0.92
      L1  H    21    43       P1 10175  0.67
      P1  H  7989  7998       L1    19  0.01
      P1  H  7997  8010       L1    11  0.61
      P1  H  8011  8017       L1    19  0.05

> <Gold.Chemscore.Hbond.Weighted>
-10.2300

> <Gold.Chemscore.Metal.Weighted>
-0.0000

> <Gold.Chemscore.Lipo.Weighted>
-11.0147

> <Gold.Chemscore.Internal_Hbond.Weighted>
0.0000

> <Gold.Chemscore.DEClash.Weighted>
0.1520

> <Gold.Chemscore.DEInternal.Weighted>
0.8367

> <Gold.Chemscore.Rot.Weighted>
8.3598

> <Gold.Chemscore.Internal.Correction.Weighted>
   9.000000E+99

> <Gold.Protein.RotatedTorsions>
[ 6907 6896 6895 6894 ] final  100.00 input  -60.11 | X-H torsion
[ 7974 7965 7964 7962 ] final   52.33 input  175.53 | X-H torsion
[ 8008 7997 7996 7995 ] final   53.63 input   59.86 | X-H torsion
[ 10167 10162 10161 10158 ] final -125.50 input  -65.29 | X-H torsion
[ 10718 10713 10712 10709 ] final -118.46 input   66.30 | X-H torsion
[ 10763 10752 10751 10750 ] final -153.49 input  -60.55 | X-H torsion
[ 11005 11000 10999 10996 ] final -101.60 input  -57.11 | X-H torsion

> <Gold.Protein.ActiveResidues>
 VAL166  LYS551  ARG553  GLY616  TRP617  ASP618  TYR619  PRO620  LYS621  CYS622 
 ASP623  PHE694  ASN695  SER759  ASP760  ASP761  ALA762  ILE779  LEU786  VAL792 
 PHE793  MET794  SER795  GLU796  ALA797  LYS798  CYS799  TRP800  GLU811  SER814 

> <Gold.Protein.RotatedAtoms>
  152.5381  134.0343  159.8038 H   0  0  0  0  0  0  0  0  0  0  0  0  # atno 6907 bound_to 6896
  151.0509  133.5617  159.2649 H   0  0  0  0  0  0  0  0  0  0  0  0  # atno 6908 bound_to 6896
  151.2552  135.0643  159.9131 H   0  0  0  0  0  0  0  0  0  0  0  0  # atno 6909 bound_to 6896
  145.9824  139.4256  143.0123 H   0  0  0  0  0  0  0  0  0  0  0  0  # atno 7974 bound_to 7965
  155.4715  140.3465  155.4326 H   0  0  0  0  0  0  0  0  0  0  0  0  # atno 8008 bound_to 7997
  156.1097  140.1457  156.9384 H   0  0  0  0  0  0  0  0  0  0  0  0  # atno 8009 bound_to 7997
  154.4748  140.0888  156.7214 H   0  0  0  0  0  0  0  0  0  0  0  0  # atno 8010 bound_to 7997
  139.9815  143.5738  152.2376 H   0  0  0  0  0  0  0  0  0  0  0  0  # atno 10167 bound_to 10162
  156.1108  130.6247  150.9294 H   0  0  0  0  0  0  0  0  0  0  0  0  # atno 10718 bound_to 10713
  154.7924  135.3211  154.7747 H   0  0  0  0  0  0  0  0  0  0  0  0  # atno 10763 bound_to 10752
  153.8433  135.6869  153.4805 H   0  0  0  0  0  0  0  0  0  0  0  0  # atno 10764 bound_to 10752
  153.1599  135.4665  154.9699 H   0  0  0  0  0  0  0  0  0  0  0  0  # atno 10765 bound_to 10752
  141.1224  133.8491  157.1253 H   0  0  0  0  0  0  0  0  0  0  0  0  # atno 11005 bound_to 11000
  145.7749  140.9881  143.1129 LP  0  0  0  0  0  0  0  0  0  0  0  0  # atno 17320 bound_to 7965
  144.6865  139.9493  143.7477 LP  0  0  0  0  0  0  0  0  0  0  0  0  # atno 17321 bound_to 7965
  139.6406  144.7654  151.2346 LP  0  0  0  0  0  0  0  0  0  0  0  0  # atno 17342 bound_to 10162
  140.7487  143.6323  150.8412 LP  0  0  0  0  0  0  0  0  0  0  0  0  # atno 17343 bound_to 10162
  157.6289  131.0923  150.8480 LP  0  0  0  0  0  0  0  0  0  0  0  0  # atno 17370 bound_to 10713
  156.8591  130.5107  149.5305 LP  0  0  0  0  0  0  0  0  0  0  0  0  # atno 17371 bound_to 10713
  140.0192  134.9953  157.0557 LP  0  0  0  0  0  0  0  0  0  0  0  0  # atno 17394 bound_to 11000
  140.4468  134.1624  155.7178 LP  0  0  0  0  0  0  0  0  0  0  0  0  # atno 17395 bound_to 11000

$$$$
