AV-unprocessed.smi:2331|AV-procd|sdf|9316|dock7
  -GOLD-   2272012533D 1   1.00000     0.00000
 Structure written by MMmdl.
 50 51  0  0  0  0  0  0  0  0  2 V2000
  150.8306  142.0702  155.7033 C   0  0  0  0  0  0  0  0  0  0  0  0
  150.1348  140.7048  155.9245 C   0  0  0  0  0  0  0  0  0  0  0  0
  151.1517  139.6183  155.5133 C   0  0  0  0  0  0  0  0  0  0  0  0
  149.8150  140.5404  157.4361 C   0  0  0  0  0  0  0  0  0  0  0  0
  150.7543  141.2544  158.2989 N   0  0  0  0  0  0  0  0  0  0  0  0
  152.0775  141.0344  158.3789 C   0  0  0  0  0  0  0  0  0  0  0  0
  152.6371  140.1196  157.7758 O   0  0  0  0  0  0  0  0  0  0  0  0
  152.7063  141.8596  159.2474 N   0  0  0  0  0  0  0  0  0  0  0  0
  153.8524  141.4253  160.0558 C   0  0  0  0  0  0  0  0  0  0  0  0
  153.6932  142.1248  161.3986 C   0  0  0  0  0  0  0  0  0  0  0  0
  152.9983  143.4218  161.0304 C   0  0  0  0  0  0  0  0  0  0  0  0
  152.0899  143.0668  159.8368 C   0  0  1  0  0  0  0  0  0  0  0  0
  151.9028  144.2571  158.8365 C   0  0  0  0  0  0  0  0  0  0  0  0
  151.5196  145.5633  159.5627 C   0  0  0  0  0  0  0  0  0  0  0  0
  153.1117  144.4876  157.9070 C   0  0  0  0  0  0  0  0  0  0  0  0
  150.7774  143.9916  158.0228 O   0  0  0  0  0  0  0  0  0  0  0  0
  148.8489  140.5525  155.0862 C   0  0  0  0  0  0  0  0  0  0  0  0
  148.3630  141.5805  154.2367 C   0  0  0  0  0  0  0  0  0  0  0  0
  147.1683  141.3869  153.5140 C   0  0  0  0  0  0  0  0  0  0  0  0
  146.4906  140.2261  153.6298 N   0  3  0  0  0  0  0  0  0  0  0  0
  146.9076  139.2168  154.4215 C   0  0  0  0  0  0  0  0  0  0  0  0
  148.0941  139.3558  155.1692 C   0  0  0  0  0  0  0  0  0  0  0  0
  151.7328  142.1547  156.3101 H   0  0  0  0  0  0  0  0  0  0  0  0
  150.1913  142.9105  155.9727 H   0  0  0  0  0  0  0  0  0  0  0  0
  151.1321  142.2033  154.6636 H   0  0  0  0  0  0  0  0  0  0  0  0
  152.0822  139.7146  156.0744 H   0  0  0  0  0  0  0  0  0  0  0  0
  151.4008  139.6904  154.4540 H   0  0  0  0  0  0  0  0  0  0  0  0
  150.7765  138.6111  155.6935 H   0  0  0  0  0  0  0  0  0  0  0  0
  148.8277  140.9486  157.6538 H   0  0  0  0  0  0  0  0  0  0  0  0
  149.7575  139.4846  157.7073 H   0  0  0  0  0  0  0  0  0  0  0  0
  150.3723  141.9972  158.8658 H   0  0  0  0  0  0  0  0  0  0  0  0
  153.9030  140.3437  160.1948 H   0  0  0  0  0  0  0  0  0  0  0  0
  154.7703  141.7460  159.5613 H   0  0  0  0  0  0  0  0  0  0  0  0
  153.0486  141.5333  162.0506 H   0  0  0  0  0  0  0  0  0  0  0  0
  154.6424  142.2807  161.9119 H   0  0  0  0  0  0  0  0  0  0  0  0
  152.4453  143.8505  161.8667 H   0  0  0  0  0  0  0  0  0  0  0  0
  153.7606  144.1433  160.7353 H   0  0  0  0  0  0  0  0  0  0  0  0
  151.1185  142.7819  160.2472 H   0  0  0  0  0  0  0  0  0  0  0  0
  152.3388  145.9499  160.1689 H   0  0  0  0  0  0  0  0  0  0  0  0
  150.6627  145.4151  160.2213 H   0  0  0  0  0  0  0  0  0  0  0  0
  151.2551  146.3502  158.8548 H   0  0  0  0  0  0  0  0  0  0  0  0
  154.0182  144.6909  158.4766 H   0  0  0  0  0  0  0  0  0  0  0  0
  152.9450  145.3394  157.2466 H   0  0  0  0  0  0  0  0  0  0  0  0
  153.3088  143.6247  157.2708 H   0  0  0  0  0  0  0  0  0  0  0  0
  150.0618  144.5378  158.3097 H   0  0  0  0  0  0  0  0  0  0  0  0
  148.8784  142.5218  154.1242 H   0  0  0  0  0  0  0  0  0  0  0  0
  146.7373  142.1232  152.8513 H   0  0  0  0  0  0  0  0  0  0  0  0
  146.2832  138.3353  154.4358 H   0  0  0  0  0  0  0  0  0  0  0  0
  148.4136  138.5444  155.8060 H   0  0  0  0  0  0  0  0  0  0  0  0
  145.6283  140.1070  153.0974 H   0  0  0  0  0  0  0  0  0  0  0  0
  1  2  1  0  0  0  0
  1 23  1  0  0  0  0
  1 24  1  0  0  0  0
  1 25  1  0  0  0  0
  2  3  1  0  0  0  0
  2  4  1  0  0  0  0
  2 17  1  0  0  0  0
  3 26  1  0  0  0  0
  3 27  1  0  0  0  0
  3 28  1  0  0  0  0
  4  5  1  0  0  0  0
  4 29  1  0  0  0  0
  4 30  1  0  0  0  0
  5  6  1  0  0  0  0
  5 31  1  0  0  0  0
  6  7  2  0  0  0  0
  6  8  1  0  0  0  0
  8 12  1  0  0  0  0
  8  9  1  0  0  0  0
  9 10  1  0  0  0  0
  9 32  1  0  0  0  0
  9 33  1  0  0  0  0
 10 11  1  0  0  0  0
 10 34  1  0  0  0  0
 10 35  1  0  0  0  0
 11 12  1  0  0  0  0
 11 36  1  0  0  0  0
 11 37  1  0  0  0  0
 12 13  1  0  0  0  0
 12 38  1  0  0  0  0
 13 14  1  0  0  0  0
 13 15  1  0  0  0  0
 13 16  1  0  0  0  0
 14 39  1  0  0  0  0
 14 40  1  0  0  0  0
 14 41  1  0  0  0  0
 15 42  1  0  0  0  0
 15 43  1  0  0  0  0
 15 44  1  0  0  0  0
 16 45  1  0  0  0  0
 17 22  1  0  0  0  0
 17 18  2  0  0  0  0
 18 19  1  0  0  0  0
 18 46  1  0  0  0  0
 19 20  2  0  0  0  0
 19 47  1  0  0  0  0
 20 21  1  0  0  0  0
 20 50  1  0  0  0  0
 21 22  2  0  0  0  0
 21 48  1  0  0  0  0
 22 49  1  0  0  0  0
M  CHG  1  20   1
M  END
> <s_m_source_file>
AV-unprocessed.smi

> <i_m_source_file_index>
2331

> <i_lp_mmshare_version>
43012

> <i_f3d_flags>
0

> <s_epik_input>
W2NIXTFbY0hdbltjSF1bY0hdYzFDKFtDSDNdKShbQ0gzXSlbQ0gyXVtOSF1DKD1PKU4yW0NIMl1bQ0gyXVtDSDJdW0NASF0yQyhbQ0gzXSkoW0NIM10pW09IXQ==

> <s_epik_cmdline>
J2VwaWtfcHl0aG9uJywgJy1waCcsICc3LjAnLCAnLXRuJywgJzgnLCAnLW1hJywgJzIwMCcsICctbWV0YWxfYmluZGluZycsICctaW1hZScsICc8aW5maWxlLm1hZT4nLCAnLW9tYWUnLCAnPG91dGZpbGUubWFlPic=

> <r_epik_Ionization_Penalty>
1.40501

> <r_epik_Ionization_Penalty_Charging>
1.40494

> <r_epik_Ionization_Penalty_Neutral>
7.00889e-05

> <r_epik_State_Penalty>
1.48741

> <r_epik_Charging_Adjusted_Penalty>
2.89235

> <i_epik_Tot_Q>
1

> <i_epik_Tot_abs_Q>
1

> <r_epik_Metal_State_Penalty>
1.54092

> <b_epik_Metal_Only>
0

> <s_lp_Force_Field>
OPLS_2005

> <r_lp_Energy>
55.517

> <b_lp_Chiralities_Consistent>
1

> <s_lp_Variant>
AV-unprocessed.smi:2331-3

> <Gold.Version>
5.8.1

> <Gold.Id.Protein>
6NUR|6NUR_protein|mol2

> <Gold.PLP.Fitness>
54.2545

> <Gold.PLP.PLP>
-48.9359

> <Gold.PLP.part.hbond>
-2.7154

> <Gold.PLP.part.metal>
0.0000

> <Gold.PLP.part.buried>
-4.5431

> <Gold.PLP.part.nonpolar>
-41.5428

> <Gold.PLP.part.repulsive>
0.1291

> <Gold.PLP.ligand.clash>
1.8701

> <Gold.PLP.ligand.torsion>
1.1140

> <Gold.PLP.Chemscore.Hbond>
3.0000

> <Gold.PLP.Chemscore.CHOScore>
0.0000

> <Gold.PLP.Chemscore.Metal>
0.0000

> <Gold.Chemscore.Hbonds>
donor molecule, donor type, donor heavy atom, donor atom, acceptor molecule, acceptor atom, score
      L1  H    20    50       P1 10175  1.79
      P1  H  7997  8009       L1     7  0.96

> <Gold.PLP.Chemscore.Internal.Correction>
0.4166

> <Gold.Rescore>
     Score         DG    S(hbond)    S(metal)    S(lipo)     H(rot)  DE(clash)    DE(int)     intcor
     16.87     -22.16       1.93        0.00     131.55       2.02       1.23       4.06       ----

> <Gold.Chemscore.Fitness>
16.8729

> <Gold.Chemscore.DG>
-22.1621

> <Gold.Chemscore.ZeroCoef>
-5.4800

> <Gold.Chemscore.Hbond>
1.9342

> <Gold.Chemscore.Metal>
0.0000

> <Gold.Chemscore.Lipo>
131.5478

> <Gold.Chemscore.Internal_Hbond>
0.0000

> <Gold.Chemscore.DEClash>
1.2333

> <Gold.Chemscore.DEInternal>
4.0559

> <Gold.Chemscore.Rot>
2.0192

> <Gold.Chemscore.Internal.Correction>
   9.000000E+99

> <Gold.Chemscore.Hbonds>
donor molecule, donor type, donor heavy atom, donor atom, acceptor molecule, acceptor atom, score
      L1  H    20    50       P1 10175  0.84
      P1  H  7997  8009       L1     7  0.86

> <Gold.Chemscore.Hbond.Weighted>
-6.4601

> <Gold.Chemscore.Metal.Weighted>
-0.0000

> <Gold.Chemscore.Lipo.Weighted>
-15.3911

> <Gold.Chemscore.Internal_Hbond.Weighted>
0.0000

> <Gold.Chemscore.DEClash.Weighted>
1.2333

> <Gold.Chemscore.DEInternal.Weighted>
4.0559

> <Gold.Chemscore.Rot.Weighted>
5.1691

> <Gold.Chemscore.Internal.Correction.Weighted>
   9.000000E+99

> <Gold.Protein.RotatedTorsions>
[ 6907 6896 6895 6894 ] final -108.50 input  -60.11 | X-H torsion
[ 7974 7965 7964 7962 ] final   71.23 input  175.53 | X-H torsion
[ 8008 7997 7996 7995 ] final  175.20 input   59.86 | X-H torsion
[ 10167 10162 10161 10158 ] final   47.45 input  -65.29 | X-H torsion
[ 10718 10713 10712 10709 ] final -146.86 input   66.30 | X-H torsion
[ 10763 10752 10751 10750 ] final   28.55 input  -60.55 | X-H torsion
[ 11005 11000 10999 10996 ] final -153.42 input  -57.11 | X-H torsion

> <Gold.Protein.ActiveResidues>
 VAL166  LYS551  ARG553  GLY616  TRP617  ASP618  TYR619  PRO620  LYS621  CYS622 
 ASP623  PHE694  ASN695  SER759  ASP760  ASP761  ALA762  ILE779  LEU786  VAL792 
 PHE793  MET794  SER795  GLU796  ALA797  LYS798  CYS799  TRP800  GLU811  SER814 

> <Gold.Protein.RotatedAtoms>
  150.7505  133.9668  159.3532 H   0  0  0  0  0  0  0  0  0  0  0  0  # atno 6907 bound_to 6896
  151.7598  135.0810  160.0353 H   0  0  0  0  0  0  0  0  0  0  0  0  # atno 6908 bound_to 6896
  152.3410  133.6030  159.5913 H   0  0  0  0  0  0  0  0  0  0  0  0  # atno 6909 bound_to 6896
  145.7683  139.2831  143.1336 H   0  0  0  0  0  0  0  0  0  0  0  0  # atno 7974 bound_to 7965
  156.0895  140.1415  156.9611 H   0  0  0  0  0  0  0  0  0  0  0  0  # atno 8008 bound_to 7997
  154.4633  140.0935  156.6999 H   0  0  0  0  0  0  0  0  0  0  0  0  # atno 8009 bound_to 7997
  155.4944  140.3449  155.4362 H   0  0  0  0  0  0  0  0  0  0  0  0  # atno 8010 bound_to 7997
  140.3035  144.2906  150.6214 H   0  0  0  0  0  0  0  0  0  0  0  0  # atno 10167 bound_to 10162
  156.4003  130.7930  151.2140 H   0  0  0  0  0  0  0  0  0  0  0  0  # atno 10718 bound_to 10713
  153.0485  135.6510  154.0755 H   0  0  0  0  0  0  0  0  0  0  0  0  # atno 10763 bound_to 10752
  154.0448  135.2900  155.3351 H   0  0  0  0  0  0  0  0  0  0  0  0  # atno 10764 bound_to 10752
  154.6758  135.5339  153.8264 H   0  0  0  0  0  0  0  0  0  0  0  0  # atno 10765 bound_to 10752
  140.7083  134.3861  157.5201 H   0  0  0  0  0  0  0  0  0  0  0  0  # atno 11005 bound_to 11000
  146.0195  140.8361  142.9930 LP  0  0  0  0  0  0  0  0  0  0  0  0  # atno 17320 bound_to 7965
  144.6817  140.2608  143.7319 LP  0  0  0  0  0  0  0  0  0  0  0  0  # atno 17321 bound_to 7965
  140.5630  143.2189  151.7731 LP  0  0  0  0  0  0  0  0  0  0  0  0  # atno 17342 bound_to 10162
  139.4909  144.4322  151.9860 LP  0  0  0  0  0  0  0  0  0  0  0  0  # atno 17343 bound_to 10162
  157.7503  131.0289  150.4069 LP  0  0  0  0  0  0  0  0  0  0  0  0  # atno 17370 bound_to 10713
  156.4347  130.3979  149.6737 LP  0  0  0  0  0  0  0  0  0  0  0  0  # atno 17371 bound_to 10713
  139.8878  134.8872  156.2507 LP  0  0  0  0  0  0  0  0  0  0  0  0  # atno 17394 bound_to 11000
  141.0106  133.7098  156.1105 LP  0  0  0  0  0  0  0  0  0  0  0  0  # atno 17395 bound_to 11000

$$$$
