AV-unprocessed.smi:34|AV-procd|sdf|239|dock2
  -GOLD-   2262015583D 1   1.00000     0.00000
 Structure written by MMmdl.
 54 58  0  0  0  0  0  0  0  0  2 V2000
  151.0456  139.0190  156.9388 O   0  0  0  0  0  0  0  0  0  0  0  0
  151.0831  140.1915  156.5598 C   0  0  0  0  0  0  0  0  0  0  0  0
  150.8851  140.6681  155.3046 N   0  5  0  0  0  0  0  0  0  0  0  0
  149.6721  140.5737  154.7390 C   0  0  0  0  0  0  0  0  0  0  0  0
  149.0264  141.6885  154.3103 N   0  0  0  0  0  0  0  0  0  0  0  0
  147.8167  141.5952  153.7452 C   0  0  0  0  0  0  0  0  0  0  0  0
  147.0775  140.5049  153.5158 N   0  0  0  0  0  0  0  0  0  0  0  0
  147.7131  139.3799  153.9539 C   0  0  0  0  0  0  0  0  0  0  0  0
  148.9954  139.3342  154.5725 C   0  0  0  0  0  0  0  0  0  0  0  0
  149.3370  138.0292  154.8952 N   0  0  0  0  0  0  0  0  0  0  0  0
  148.2719  137.3566  154.4627 C   0  0  0  0  0  0  0  0  0  0  0  0
  147.2783  138.0685  153.8887 N   0  0  0  0  0  0  0  0  0  0  0  0
  145.9723  137.5995  153.3177 C   0  0  2  0  0  0  0  0  0  0  0  0
  145.7430  136.2904  153.7468 O   0  0  0  0  0  0  0  0  0  0  0  0
  146.1262  135.3916  152.7143 C   0  0  1  0  0  0  0  0  0  0  0  0
  145.5096  134.0056  152.9324 C   0  0  0  0  0  0  0  0  0  0  0  0
  146.2249  133.0637  152.1502 O   0  0  0  0  0  0  0  0  0  0  0  0
  147.2789  132.4102  152.6740 C   0  0  0  0  0  0  0  0  0  0  0  0
  147.8458  132.7519  153.7138 O   0  0  0  0  0  0  0  0  0  0  0  0
  147.6875  131.2272  151.8626 C   0  0  0  0  0  0  0  0  0  0  0  0
  146.8493  130.7835  150.8132 C   0  0  0  0  0  0  0  0  0  0  0  0
  147.2082  129.6690  150.0305 C   0  0  0  0  0  0  0  0  0  0  0  0
  148.4101  128.9841  150.2877 C   0  0  0  0  0  0  0  0  0  0  0  0
  149.2527  129.4153  151.3287 C   0  0  0  0  0  0  0  0  0  0  0  0
  148.8953  130.5297  152.1128 C   0  0  0  0  0  0  0  0  0  0  0  0
  145.6417  136.1184  151.4613 C   0  0  1  0  0  0  0  0  0  0  0  0
  144.3209  135.9838  151.3239 F   0  0  0  0  0  0  0  0  0  0  0  0
  145.9735  137.5724  151.7679 C   0  0  2  0  0  0  0  0  0  0  0  0
  147.2063  137.9254  151.1650 O   0  0  0  0  0  0  0  0  0  0  0  0
  151.4516  141.2622  157.5513 C   0  0  0  0  0  0  0  0  0  0  0  0
  152.1490  140.9140  158.7305 C   0  0  0  0  0  0  0  0  0  0  0  0
  152.4810  141.8969  159.6833 C   0  0  0  0  0  0  0  0  0  0  0  0
  152.1101  143.2380  159.4714 C   0  0  0  0  0  0  0  0  0  0  0  0
  151.4035  143.5947  158.3076 C   0  0  0  0  0  0  0  0  0  0  0  0
  151.0715  142.6123  157.3542 C   0  0  0  0  0  0  0  0  0  0  0  0
  147.3781  142.5302  153.4298 H   0  0  0  0  0  0  0  0  0  0  0  0
  148.2161  136.2839  154.5738 H   0  0  0  0  0  0  0  0  0  0  0  0
  145.2310  138.2753  153.7458 H   0  0  0  0  0  0  0  0  0  0  0  0
  147.2141  135.3131  152.6788 H   0  0  0  0  0  0  0  0  0  0  0  0
  145.5378  133.7321  153.9881 H   0  0  0  0  0  0  0  0  0  0  0  0
  144.4650  134.0089  152.6177 H   0  0  0  0  0  0  0  0  0  0  0  0
  145.9215  131.2934  150.5966 H   0  0  0  0  0  0  0  0  0  0  0  0
  146.5601  129.3397  149.2320 H   0  0  0  0  0  0  0  0  0  0  0  0
  148.6853  128.1294  149.6876 H   0  0  0  0  0  0  0  0  0  0  0  0
  150.1758  128.8908  151.5271 H   0  0  0  0  0  0  0  0  0  0  0  0
  149.5648  130.8328  152.9046 H   0  0  0  0  0  0  0  0  0  0  0  0
  146.0991  135.7451  150.5440 H   0  0  0  0  0  0  0  0  0  0  0  0
  145.2011  138.2447  151.3926 H   0  0  0  0  0  0  0  0  0  0  0  0
  147.8887  137.3923  151.5449 H   0  0  0  0  0  0  0  0  0  0  0  0
  152.4395  139.8887  158.9084 H   0  0  0  0  0  0  0  0  0  0  0  0
  153.0190  141.6202  160.5778 H   0  0  0  0  0  0  0  0  0  0  0  0
  152.3636  143.9913  160.2024 H   0  0  0  0  0  0  0  0  0  0  0  0
  151.1123  144.6220  158.1467 H   0  0  0  0  0  0  0  0  0  0  0  0
  150.5188  142.9047  156.4728 H   0  0  0  0  0  0  0  0  0  0  0  0
  1  2  2  0  0  0  0
  2  3  1  0  0  0  0
  2 30  1  0  0  0  0
  3  4  1  0  0  0  0
  4  9  1  0  0  0  0
  4  5  2  0  0  0  0
  5  6  1  0  0  0  0
  6  7  2  0  0  0  0
  6 36  1  0  0  0  0
  7  8  1  0  0  0  0
  8 12  1  0  0  0  0
  8  9  2  0  0  0  0
  9 10  1  0  0  0  0
 10 11  2  0  0  0  0
 11 12  1  0  0  0  0
 11 37  1  0  0  0  0
 12 13  1  0  0  0  0
 13 28  1  0  0  0  0
 13 14  1  0  0  0  0
 13 38  1  0  0  0  0
 14 15  1  0  0  0  0
 15 16  1  0  0  0  0
 15 26  1  0  0  0  0
 15 39  1  0  0  0  0
 16 17  1  0  0  0  0
 16 40  1  0  0  0  0
 16 41  1  0  0  0  0
 17 18  1  0  0  0  0
 18 19  2  0  0  0  0
 18 20  1  0  0  0  0
 20 25  1  0  0  0  0
 20 21  2  0  0  0  0
 21 22  1  0  0  0  0
 21 42  1  0  0  0  0
 22 23  2  0  0  0  0
 22 43  1  0  0  0  0
 23 24  1  0  0  0  0
 23 44  1  0  0  0  0
 24 25  2  0  0  0  0
 24 45  1  0  0  0  0
 25 46  1  0  0  0  0
 26 27  1  0  0  0  0
 26 28  1  0  0  0  0
 26 47  1  0  0  0  0
 28 29  1  0  0  0  0
 28 48  1  0  0  0  0
 29 49  1  0  0  0  0
 30 35  1  0  0  0  0
 30 31  2  0  0  0  0
 31 32  1  0  0  0  0
 31 50  1  0  0  0  0
 32 33  2  0  0  0  0
 32 51  1  0  0  0  0
 33 34  1  0  0  0  0
 33 52  1  0  0  0  0
 34 35  2  0  0  0  0
 34 53  1  0  0  0  0
 35 54  1  0  0  0  0
M  CHG  1   3  -1
M  END
> <s_m_source_file>
AV-unprocessed.smi

> <i_m_source_file_index>
34

> <i_lp_mmshare_version>
43012

> <i_f3d_flags>
0

> <s_epik_input>
W2NIXTFbY0hdW2NIXVtjSF1bY0hdYzFDKD1PKVtOSF1jKG5bY0hdbjIpYyhjMjMpbltjSF1uM1tDQEBIXTRPW0NASF0oW0NAQEhdKEYpW0NASF00W09IXSlbQ0gyXU9DKD1PKWM1W2NIXVtjSF1bY0hdW2NIXVtjSF01

> <s_epik_cmdline>
J2VwaWtfcHl0aG9uJywgJy1waCcsICc3LjAnLCAnLXRuJywgJzgnLCAnLW1hJywgJzIwMCcsICctbWV0YWxfYmluZGluZycsICctaW1hZScsICc8aW5maWxlLm1hZT4nLCAnLW9tYWUnLCAnPG91dGZpbGUubWFlPic=

> <r_lp_tautomer_probability>
1

> <r_epik_Ionization_Penalty>
4.33227

> <r_epik_Ionization_Penalty_Charging>
3.41027

> <r_epik_Ionization_Penalty_Neutral>
0.922001

> <r_epik_State_Penalty>
3.41358

> <r_epik_Charging_Adjusted_Penalty>
6.82385

> <i_epik_Tot_Q>
-1

> <i_epik_Tot_abs_Q>
1

> <r_epik_Metal_State_Penalty>
0.496292

> <b_epik_Metal_Only>
1

> <s_epik_Chemistry_Notes>
This compound has an ester and may undergo hydrolysis at high or low pH. This compound contains an acetal/aminal-like group ( X-CH(R)-Y where X, Y are N, S, or O) that may be acid/base labile, releasing an aldehyde.

> <s_lp_Force_Field>
OPLS_2005

> <r_lp_Energy>
47.457

> <b_lp_Chiralities_Consistent>
1

> <s_lp_Variant>
AV-unprocessed.smi:34-25

> <Gold.Version>
5.8.1

> <Gold.Id.Protein>
6NUR|6NUR_protein|mol2

> <Gold.PLP.Fitness>
56.8029

> <Gold.PLP.PLP>
-53.7986

> <Gold.PLP.part.hbond>
-3.9934

> <Gold.PLP.part.metal>
0.0000

> <Gold.PLP.part.buried>
-4.3371

> <Gold.PLP.part.nonpolar>
-45.0417

> <Gold.PLP.part.repulsive>
0.6882

> <Gold.PLP.ligand.clash>
0.0000

> <Gold.PLP.ligand.torsion>
2.4153

> <Gold.PLP.Chemscore.Hbond>
2.1894

> <Gold.PLP.Chemscore.CHOScore>
0.0000

> <Gold.PLP.Chemscore.Metal>
0.0000

> <Gold.Chemscore.Hbonds>
donor molecule, donor type, donor heavy atom, donor atom, acceptor molecule, acceptor atom, score
      L1  H    29    49       P1  7948  1.00
      P1  H  7954  7966       L1    29  0.10
      P1  H  7989  7998       L1     3  0.35
      P1  H  8011  8017       L1     5  0.10
      L1  C    11    37       P1  7948  0.03

> <Gold.PLP.Chemscore.Internal.Correction>
1.2668

> <Gold.Rescore>
     Score         DG    S(hbond)    S(metal)    S(lipo)     H(rot)  DE(clash)    DE(int)     intcor
     13.20     -16.80       1.03        0.00     126.25       2.69       0.09       3.51       ----

> <Gold.Chemscore.Fitness>
13.2032

> <Gold.Chemscore.DG>
-16.7983

> <Gold.Chemscore.ZeroCoef>
-5.4800

> <Gold.Chemscore.Hbond>
1.0313

> <Gold.Chemscore.Metal>
0.0000

> <Gold.Chemscore.Lipo>
126.2509

> <Gold.Chemscore.Internal_Hbond>
0.0000

> <Gold.Chemscore.DEClash>
0.0882

> <Gold.Chemscore.DEInternal>
3.5068

> <Gold.Chemscore.Rot>
2.6944

> <Gold.Chemscore.Internal.Correction>
   9.000000E+99

> <Gold.Chemscore.Hbonds>
donor molecule, donor type, donor heavy atom, donor atom, acceptor molecule, acceptor atom, score
      L1  H    29    49       P1  7948  0.97
      P1  H  7989  7998       L1     3  0.01

> <Gold.Chemscore.Hbond.Weighted>
-3.4445

> <Gold.Chemscore.Metal.Weighted>
-0.0000

> <Gold.Chemscore.Lipo.Weighted>
-14.7714

> <Gold.Chemscore.Internal_Hbond.Weighted>
0.0000

> <Gold.Chemscore.DEClash.Weighted>
0.0882

> <Gold.Chemscore.DEInternal.Weighted>
3.5068

> <Gold.Chemscore.Rot.Weighted>
6.8975

> <Gold.Chemscore.Internal.Correction.Weighted>
   9.000000E+99

> <Gold.Protein.RotatedTorsions>
[ 6907 6896 6895 6894 ] final -110.77 input  -60.11 | X-H torsion
[ 7974 7965 7964 7962 ] final  -99.55 input  175.53 | X-H torsion
[ 8008 7997 7996 7995 ] final  -74.93 input   59.86 | X-H torsion
[ 10167 10162 10161 10158 ] final  122.78 input  -65.29 | X-H torsion
[ 10718 10713 10712 10709 ] final -114.12 input   66.30 | X-H torsion
[ 10763 10752 10751 10750 ] final   -0.77 input  -60.55 | X-H torsion
[ 11005 11000 10999 10996 ] final  -87.13 input  -57.11 | X-H torsion

> <Gold.Protein.ActiveResidues>
 VAL166  LYS551  ARG553  GLY616  TRP617  ASP618  TYR619  PRO620  LYS621  CYS622 
 ASP623  PHE694  ASN695  SER759  ASP760  ASP761  ALA762  ILE779  LEU786  VAL792 
 PHE793  MET794  SER795  GLU796  ALA797  LYS798  CYS799  TRP800  GLU811  SER814 

> <Gold.Protein.RotatedAtoms>
  150.7646  133.9333  159.3433 H   0  0  0  0  0  0  0  0  0  0  0  0  # atno 6907 bound_to 6896
  151.7233  135.0888  160.0297 H   0  0  0  0  0  0  0  0  0  0  0  0  # atno 6908 bound_to 6896
  152.3636  133.6290  159.6069 H   0  0  0  0  0  0  0  0  0  0  0  0  # atno 6909 bound_to 6896
  145.3061  140.9389  143.2796 H   0  0  0  0  0  0  0  0  0  0  0  0  # atno 7974 bound_to 7965
  154.5373  140.0753  156.8450 H   0  0  0  0  0  0  0  0  0  0  0  0  # atno 8008 bound_to 7997
  155.3252  140.3398  155.4222 H   0  0  0  0  0  0  0  0  0  0  0  0  # atno 8009 bound_to 7997
  156.1841  140.1662  156.8206 H   0  0  0  0  0  0  0  0  0  0  0  0  # atno 8010 bound_to 7997
  139.5838  144.6998  151.3460 H   0  0  0  0  0  0  0  0  0  0  0  0  # atno 10167 bound_to 10162
  156.0810  130.6010  150.8733 H   0  0  0  0  0  0  0  0  0  0  0  0  # atno 10718 bound_to 10713
  153.3362  135.6978  153.6905 H   0  0  0  0  0  0  0  0  0  0  0  0  # atno 10763 bound_to 10752
  153.5688  135.3520  155.2830 H   0  0  0  0  0  0  0  0  0  0  0  0  # atno 10764 bound_to 10752
  154.8628  135.4267  154.2563 H   0  0  0  0  0  0  0  0  0  0  0  0  # atno 10765 bound_to 10752
  141.1621  133.7493  156.9261 H   0  0  0  0  0  0  0  0  0  0  0  0  # atno 11005 bound_to 11000
  144.9053  139.4596  143.6613 LP  0  0  0  0  0  0  0  0  0  0  0  0  # atno 17320 bound_to 7965
  146.3134  139.7831  142.9002 LP  0  0  0  0  0  0  0  0  0  0  0  0  # atno 17321 bound_to 7965
  140.7113  143.7383  150.7572 LP  0  0  0  0  0  0  0  0  0  0  0  0  # atno 17342 bound_to 10162
  140.0923  143.4866  152.2472 LP  0  0  0  0  0  0  0  0  0  0  0  0  # atno 17343 bound_to 10162
  157.5926  131.0944  150.9093 LP  0  0  0  0  0  0  0  0  0  0  0  0  # atno 17370 bound_to 10713
  156.9266  130.5334  149.5279 LP  0  0  0  0  0  0  0  0  0  0  0  0  # atno 17371 bound_to 10713
  140.1418  134.9288  157.2477 LP  0  0  0  0  0  0  0  0  0  0  0  0  # atno 17394 bound_to 11000
  140.2828  134.3331  155.7338 LP  0  0  0  0  0  0  0  0  0  0  0  0  # atno 17395 bound_to 11000

$$$$
