AV-unprocessed.smi:2473|AV-procd|sdf|9748|dock6
  -GOLD-   2272013393D 1   1.00000     0.00000
 Structure written by MMmdl.
 47 48  0  0  0  0  0  0  0  0  1 V2000
  153.6581  141.1830  160.7348 C   0  0  0  0  0  0  0  0  0  0  0  0
  153.0448  142.0177  159.6012 C   0  0  1  0  0  0  0  0  0  0  0  0
  152.0317  141.1948  158.7846 C   0  0  0  0  0  0  0  0  0  0  0  0
  151.4264  142.0289  157.6393 C   0  0  1  0  0  0  0  0  0  0  0  0
  150.4087  141.2126  156.8325 C   0  0  0  0  0  0  0  0  0  0  0  0
  149.8618  140.2311  157.3359 O   0  0  0  0  0  0  0  0  0  0  0  0
  150.1386  141.6543  155.5934 N   0  0  0  0  0  0  0  0  0  0  0  0
  149.0915  141.1361  154.7167 C   0  0  0  0  0  0  0  0  0  0  0  0
  149.2356  139.6199  154.4782 C   0  0  0  0  0  0  0  0  0  0  0  0
  150.6292  139.1004  154.6832 C   0  0  0  0  0  0  0  0  0  0  0  0
  151.7068  139.8791  154.6892 N   0  0  0  0  0  0  0  0  0  0  0  0
  152.7675  139.0175  154.9450 C   0  0  0  0  0  0  0  0  0  0  0  0
  152.2913  137.7363  155.0824 C   0  0  0  0  0  0  0  0  0  0  0  0
  150.9149  137.8021  154.9114 N   0  0  0  0  0  0  0  0  0  0  0  0
  149.9986  136.6794  154.9768 C   0  0  0  0  0  0  0  0  0  0  0  0
  150.7669  143.3090  158.2004 C   0  0  0  0  0  0  0  0  0  0  0  0
  151.7264  144.1788  159.0480 C   0  0  0  0  0  0  0  0  0  0  0  0
  152.7951  144.8506  158.1580 C   0  0  0  0  0  0  0  0  0  0  0  0
  150.9109  145.2977  159.7254 C   0  0  0  0  0  0  0  0  0  0  0  0
  152.3837  143.3025  160.1442 C   0  0  0  0  0  0  0  0  0  0  0  0
  152.8965  140.8499  161.4403 H   0  0  0  0  0  0  0  0  0  0  0  0
  154.3982  141.7598  161.2904 H   0  0  0  0  0  0  0  0  0  0  0  0
  154.1593  140.2975  160.3430 H   0  0  0  0  0  0  0  0  0  0  0  0
  153.8630  142.3011  158.9390 H   0  0  0  0  0  0  0  0  0  0  0  0
  152.5216  140.3087  158.3781 H   0  0  0  0  0  0  0  0  0  0  0  0
  151.2411  140.8338  159.4448 H   0  0  0  0  0  0  0  0  0  0  0  0
  152.2327  142.3153  156.9632 H   0  0  0  0  0  0  0  0  0  0  0  0
  150.6483  142.4599  155.2610 H   0  0  0  0  0  0  0  0  0  0  0  0
  148.1253  141.3437  155.1768 H   0  0  0  0  0  0  0  0  0  0  0  0
  149.0908  141.6628  153.7611 H   0  0  0  0  0  0  0  0  0  0  0  0
  148.5445  139.0782  155.1238 H   0  0  0  0  0  0  0  0  0  0  0  0
  148.9312  139.3856  153.4576 H   0  0  0  0  0  0  0  0  0  0  0  0
  153.7819  139.3823  155.0103 H   0  0  0  0  0  0  0  0  0  0  0  0
  152.8053  136.8082  155.2848 H   0  0  0  0  0  0  0  0  0  0  0  0
  150.5341  135.7737  155.2622 H   0  0  0  0  0  0  0  0  0  0  0  0
  149.5359  136.5236  154.0021 H   0  0  0  0  0  0  0  0  0  0  0  0
  149.2225  136.8722  155.7176 H   0  0  0  0  0  0  0  0  0  0  0  0
  150.3578  143.9050  157.3838 H   0  0  0  0  0  0  0  0  0  0  0  0
  149.9112  143.0256  158.8159 H   0  0  0  0  0  0  0  0  0  0  0  0
  153.4553  145.4865  158.7487 H   0  0  0  0  0  0  0  0  0  0  0  0
  152.3333  145.4796  157.3963 H   0  0  0  0  0  0  0  0  0  0  0  0
  153.4254  144.1301  157.6392 H   0  0  0  0  0  0  0  0  0  0  0  0
  151.5460  145.9362  160.3403 H   0  0  0  0  0  0  0  0  0  0  0  0
  150.1328  144.8915  160.3729 H   0  0  0  0  0  0  0  0  0  0  0  0
  150.4208  145.9340  158.9875 H   0  0  0  0  0  0  0  0  0  0  0  0
  151.6252  143.0165  160.8747 H   0  0  0  0  0  0  0  0  0  0  0  0
  153.1191  143.8906  160.6947 H   0  0  0  0  0  0  0  0  0  0  0  0
  1  2  1  0  0  0  0
  1 21  1  0  0  0  0
  1 22  1  0  0  0  0
  1 23  1  0  0  0  0
  2 20  1  0  0  0  0
  2  3  1  0  0  0  0
  2 24  1  0  0  0  0
  3  4  1  0  0  0  0
  3 25  1  0  0  0  0
  3 26  1  0  0  0  0
  4  5  1  0  0  0  0
  4 16  1  0  0  0  0
  4 27  1  0  0  0  0
  5  6  2  0  0  0  0
  5  7  1  0  0  0  0
  7  8  1  0  0  0  0
  7 28  1  0  0  0  0
  8  9  1  0  0  0  0
  8 29  1  0  0  0  0
  8 30  1  0  0  0  0
  9 10  1  0  0  0  0
  9 31  1  0  0  0  0
  9 32  1  0  0  0  0
 10 14  1  0  0  0  0
 10 11  2  0  0  0  0
 11 12  1  0  0  0  0
 12 13  2  0  0  0  0
 12 33  1  0  0  0  0
 13 14  1  0  0  0  0
 13 34  1  0  0  0  0
 14 15  1  0  0  0  0
 15 35  1  0  0  0  0
 15 36  1  0  0  0  0
 15 37  1  0  0  0  0
 16 17  1  0  0  0  0
 16 38  1  0  0  0  0
 16 39  1  0  0  0  0
 17 18  1  0  0  0  0
 17 19  1  0  0  0  0
 17 20  1  0  0  0  0
 18 40  1  0  0  0  0
 18 41  1  0  0  0  0
 18 42  1  0  0  0  0
 19 43  1  0  0  0  0
 19 44  1  0  0  0  0
 19 45  1  0  0  0  0
 20 46  1  0  0  0  0
 20 47  1  0  0  0  0
M  END
> <s_m_source_file>
AV-unprocessed.smi

> <i_m_source_file_index>
2473

> <i_lp_mmshare_version>
43012

> <i_f3d_flags>
0

> <s_epik_input>
W0NIM11bQ0BASF0oW0NIMl0xKVtDSDJdW0NASF0oW0NIMl1DMShbQ0gzXSlbQ0gzXSlDKD1PKVtOSF1bQ0gyXVtDSDJdYzJuW2NIXVtjSF1uMltDSDNd

> <s_epik_cmdline>
J2VwaWtfcHl0aG9uJywgJy1waCcsICc3LjAnLCAnLXRuJywgJzgnLCAnLW1hJywgJzIwMCcsICctbWV0YWxfYmluZGluZycsICctaW1hZScsICc8aW5maWxlLm1hZT4nLCAnLW9tYWUnLCAnPG91dGZpbGUubWFlPic=

> <r_lp_tautomer_probability>
1

> <r_epik_Ionization_Penalty>
1.22858

> <r_epik_Ionization_Penalty_Charging>
1.22858

> <r_epik_Ionization_Penalty_Neutral>
2.12671e-08

> <r_epik_State_Penalty>
1.2965

> <r_epik_Charging_Adjusted_Penalty>
2.52508

> <i_epik_Tot_Q>
0

> <i_epik_Tot_abs_Q>
0

> <r_epik_Metal_State_Penalty>
0.411461

> <b_epik_Metal_Only>
0

> <s_lp_Force_Field>
OPLS_2005

> <r_lp_Energy>
12.6142

> <b_lp_Chiralities_Consistent>
1

> <s_lp_Variant>
AV-unprocessed.smi:2473-6

> <Gold.Version>
5.8.1

> <Gold.Id.Protein>
6NUR|6NUR_protein|mol2

> <Gold.PLP.Fitness>
50.1317

> <Gold.PLP.PLP>
-49.2640

> <Gold.PLP.part.hbond>
-0.9880

> <Gold.PLP.part.metal>
0.0000

> <Gold.PLP.part.buried>
-5.3361

> <Gold.PLP.part.nonpolar>
-44.2378

> <Gold.PLP.part.repulsive>
0.2178

> <Gold.PLP.ligand.clash>
0.0000

> <Gold.PLP.ligand.torsion>
1.0816

> <Gold.PLP.Chemscore.Hbond>
1.0000

> <Gold.PLP.Chemscore.CHOScore>
0.0000

> <Gold.PLP.Chemscore.Metal>
0.0000

> <Gold.Chemscore.Hbonds>
donor molecule, donor type, donor heavy atom, donor atom, acceptor molecule, acceptor atom, score
      P1  H  7989  7998       L1    11  1.00

> <Gold.PLP.Chemscore.Internal.Correction>
0.0310

> <Gold.Rescore>
     Score         DG    S(hbond)    S(metal)    S(lipo)     H(rot)  DE(clash)    DE(int)     intcor
     16.52     -20.48       0.92        0.00     134.96       1.51       0.38       3.58       ----

> <Gold.Chemscore.Fitness>
16.5197

> <Gold.Chemscore.DG>
-20.4820

> <Gold.Chemscore.ZeroCoef>
-5.4800

> <Gold.Chemscore.Hbond>
0.9221

> <Gold.Chemscore.Metal>
0.0000

> <Gold.Chemscore.Lipo>
134.9600

> <Gold.Chemscore.Internal_Hbond>
0.0000

> <Gold.Chemscore.DEClash>
0.3799

> <Gold.Chemscore.DEInternal>
3.5824

> <Gold.Chemscore.Rot>
1.5109

> <Gold.Chemscore.Internal.Correction>
   9.000000E+99

> <Gold.Chemscore.Hbonds>
donor molecule, donor type, donor heavy atom, donor atom, acceptor molecule, acceptor atom, score
      P1  H  7989  7998       L1    11  0.68

> <Gold.Chemscore.Hbond.Weighted>
-3.0797

> <Gold.Chemscore.Metal.Weighted>
-0.0000

> <Gold.Chemscore.Lipo.Weighted>
-15.7903

> <Gold.Chemscore.Internal_Hbond.Weighted>
0.0000

> <Gold.Chemscore.DEClash.Weighted>
0.3799

> <Gold.Chemscore.DEInternal.Weighted>
3.5824

> <Gold.Chemscore.Rot.Weighted>
3.8680

> <Gold.Chemscore.Internal.Correction.Weighted>
   9.000000E+99

> <Gold.Protein.RotatedTorsions>
[ 6907 6896 6895 6894 ] final  -23.01 input  -60.11 | X-H torsion
[ 7974 7965 7964 7962 ] final  123.76 input  175.53 | X-H torsion
[ 8008 7997 7996 7995 ] final  104.14 input   59.86 | X-H torsion
[ 10167 10162 10161 10158 ] final  -10.26 input  -65.29 | X-H torsion
[ 10718 10713 10712 10709 ] final   15.21 input   66.30 | X-H torsion
[ 10763 10752 10751 10750 ] final -163.57 input  -60.55 | X-H torsion
[ 11005 11000 10999 10996 ] final -140.14 input  -57.11 | X-H torsion

> <Gold.Protein.ActiveResidues>
 VAL166  LYS551  ARG553  GLY616  TRP617  ASP618  TYR619  PRO620  LYS621  CYS622 
 ASP623  PHE694  ASN695  SER759  ASP760  ASP761  ALA762  ILE779  LEU786  VAL792 
 PHE793  MET794  SER795  GLU796  ALA797  LYS798  CYS799  TRP800  GLU811  SER814 

> <Gold.Protein.RotatedAtoms>
  151.2103  135.0478  159.8907 H   0  0  0  0  0  0  0  0  0  0  0  0  # atno 6907 bound_to 6896
  152.5425  134.0753  159.8222 H   0  0  0  0  0  0  0  0  0  0  0  0  # atno 6908 bound_to 6896
  151.0905  133.5272  159.2647 H   0  0  0  0  0  0  0  0  0  0  0  0  # atno 6909 bound_to 6896
  145.0922  139.3578  143.4854 H   0  0  0  0  0  0  0  0  0  0  0  0  # atno 7974 bound_to 7965
  156.1546  140.3153  155.8705 H   0  0  0  0  0  0  0  0  0  0  0  0  # atno 8008 bound_to 7997
  155.3903  140.0493  157.3058 H   0  0  0  0  0  0  0  0  0  0  0  0  # atno 8009 bound_to 7997
  154.5090  140.2157  155.9205 H   0  0  0  0  0  0  0  0  0  0  0  0  # atno 8010 bound_to 7997
  140.7109  143.5768  150.9034 H   0  0  0  0  0  0  0  0  0  0  0  0  # atno 10167 bound_to 10162
  157.0503  130.6267  149.5766 H   0  0  0  0  0  0  0  0  0  0  0  0  # atno 10718 bound_to 10713
  154.7110  135.3006  154.9196 H   0  0  0  0  0  0  0  0  0  0  0  0  # atno 10763 bound_to 10752
  154.0098  135.6696  153.4768 H   0  0  0  0  0  0  0  0  0  0  0  0  # atno 10764 bound_to 10752
  153.0755  135.5037  154.8309 H   0  0  0  0  0  0  0  0  0  0  0  0  # atno 10765 bound_to 10752
  140.8452  134.2354  157.4790 H   0  0  0  0  0  0  0  0  0  0  0  0  # atno 11005 bound_to 11000
  146.3531  140.0762  142.8620 LP  0  0  0  0  0  0  0  0  0  0  0  0  # atno 17320 bound_to 7965
  145.1052  140.9371  143.4689 LP  0  0  0  0  0  0  0  0  0  0  0  0  # atno 17321 bound_to 7965
  139.9494  143.6290  152.3033 LP  0  0  0  0  0  0  0  0  0  0  0  0  # atno 17342 bound_to 10162
  139.6803  144.7656  151.1621 LP  0  0  0  0  0  0  0  0  0  0  0  0  # atno 17343 bound_to 10162
  156.0010  130.5089  150.7661 LP  0  0  0  0  0  0  0  0  0  0  0  0  # atno 17370 bound_to 10713
  157.5035  131.0920  151.0285 LP  0  0  0  0  0  0  0  0  0  0  0  0  # atno 17371 bound_to 10713
  139.8703  134.9655  156.4532 LP  0  0  0  0  0  0  0  0  0  0  0  0  # atno 17394 bound_to 11000
  140.8852  133.7889  155.9510 LP  0  0  0  0  0  0  0  0  0  0  0  0  # atno 17395 bound_to 11000

$$$$
