AV-unprocessed.smi:21|AV-procd|sdf|162|dock7
  -GOLD-   2262015403D 1   1.00000     0.00000
 Structure written by MMmdl.
 61 64  0  0  0  0  0  0  0  0  1 V2000
  152.8263  142.7206  162.4142 C   0  0  0  0  0  0  0  0  0  0  0  0
  151.9779  142.7101  161.2772 O   0  0  0  0  0  0  0  0  0  0  0  0
  152.6631  142.4350  160.0638 C   0  0  2  0  0  0  0  0  0  0  0  0
  151.7472  142.5007  158.8273 C   0  0  0  0  0  0  0  0  0  0  0  0
  151.7899  141.0829  158.2358 C   0  0  1  0  0  0  0  0  0  0  0  0
  151.5955  141.0455  156.7036 C   0  0  0  0  0  0  0  0  0  0  0  0
  150.7292  139.9538  156.2584 N   0  0  0  0  0  0  0  0  0  0  0  0
  151.2963  138.6067  156.2104 C   0  0  0  0  0  0  0  0  0  0  0  0
  149.5656  140.2057  155.5875 C   0  0  0  0  0  0  0  0  0  0  0  0
  149.3101  139.4937  154.4555 N   0  0  0  0  0  0  0  0  0  0  0  0
  148.1982  139.6991  153.7463 C   0  0  0  0  0  0  0  0  0  0  0  0
  147.2074  140.5571  153.9836 N   0  0  0  0  0  0  0  0  0  0  0  0
  147.4389  141.2717  155.1202 C   0  0  0  0  0  0  0  0  0  0  0  0
  148.5769  141.1652  155.9743 C   0  0  0  0  0  0  0  0  0  0  0  0
  148.4390  142.0633  157.0287 N   0  0  0  0  0  0  0  0  0  0  0  0
  147.3052  142.6668  156.8065 C   0  0  0  0  0  0  0  0  0  0  0  0
  146.6277  142.2373  155.6903 N   0  0  0  0  0  0  0  0  0  0  0  0
  145.3506  142.7307  155.2063 C   0  0  0  0  0  0  0  0  0  0  0  0
  144.9886  144.1628  155.6809 C   0  0  2  0  0  0  0  0  0  0  0  0
  144.5774  144.1170  157.1709 C   0  0  0  0  0  0  0  0  0  0  0  0
  145.3722  144.9801  157.9591 O   0  0  0  0  0  0  0  0  0  0  0  0
  143.9357  144.8878  154.7914 C   0  0  1  0  0  0  0  0  0  0  0  0
  143.4419  146.2160  155.3443 C   0  0  0  0  0  0  0  0  0  0  0  0
  142.8410  146.8738  154.1115 C   0  0  0  0  0  0  0  0  0  0  0  0
  143.7332  146.5276  153.0645 O   0  0  0  0  0  0  0  0  0  0  0  0
  144.4221  145.3262  153.3991 C   0  0  0  0  0  0  0  0  0  0  0  0
  153.0510  140.5253  158.6965 N   0  0  0  0  0  0  0  0  0  0  0  0
  153.1241  139.0736  158.5967 C   0  0  0  0  0  0  0  0  0  0  0  0
  153.1516  140.9840  160.0678 C   0  0  0  0  0  0  0  0  0  0  0  0
  153.5183  143.1017  159.9381 H   0  0  0  0  0  0  0  0  0  0  0  0
  150.9835  140.5180  158.7063 H   0  0  0  0  0  0  0  0  0  0  0  0
  152.2368  142.9337  163.3058 H   0  0  0  0  0  0  0  0  0  0  0  0
  153.5997  143.4850  162.3348 H   0  0  0  0  0  0  0  0  0  0  0  0
  153.3069  141.7517  162.5549 H   0  0  0  0  0  0  0  0  0  0  0  0
  150.7243  142.7905  159.0702 H   0  0  0  0  0  0  0  0  0  0  0  0
  152.1406  143.2332  158.1214 H   0  0  0  0  0  0  0  0  0  0  0  0
  151.1659  141.9943  156.3805 H   0  0  0  0  0  0  0  0  0  0  0  0
  152.5475  140.9875  156.1801 H   0  0  0  0  0  0  0  0  0  0  0  0
  150.5750  137.8713  156.5687 H   0  0  0  0  0  0  0  0  0  0  0  0
  152.1837  138.5265  156.8383 H   0  0  0  0  0  0  0  0  0  0  0  0
  151.5838  138.3446  155.1916 H   0  0  0  0  0  0  0  0  0  0  0  0
  148.0874  139.0878  152.8628 H   0  0  0  0  0  0  0  0  0  0  0  0
  146.9238  143.4348  157.4638 H   0  0  0  0  0  0  0  0  0  0  0  0
  145.3551  142.6854  154.1167 H   0  0  0  0  0  0  0  0  0  0  0  0
  144.5877  142.0255  155.5379 H   0  0  0  0  0  0  0  0  0  0  0  0
  145.9013  144.7588  155.6480 H   0  0  0  0  0  0  0  0  0  0  0  0
  143.5323  144.4062  157.2857 H   0  0  0  0  0  0  0  0  0  0  0  0
  144.6546  143.1056  157.5699 H   0  0  0  0  0  0  0  0  0  0  0  0
  146.0165  145.3889  157.4017 H   0  0  0  0  0  0  0  0  0  0  0  0
  143.0680  144.2384  154.6632 H   0  0  0  0  0  0  0  0  0  0  0  0
  142.7151  146.1039  156.1493 H   0  0  0  0  0  0  0  0  0  0  0  0
  144.2768  146.8131  155.7144 H   0  0  0  0  0  0  0  0  0  0  0  0
  141.8573  146.4552  153.8942 H   0  0  0  0  0  0  0  0  0  0  0  0
  142.7400  147.9543  154.2142 H   0  0  0  0  0  0  0  0  0  0  0  0
  145.4911  145.5413  153.3983 H   0  0  0  0  0  0  0  0  0  0  0  0
  144.2295  144.5670  152.6420 H   0  0  0  0  0  0  0  0  0  0  0  0
  154.0676  138.7094  159.0042 H   0  0  0  0  0  0  0  0  0  0  0  0
  153.0680  138.7488  157.5582 H   0  0  0  0  0  0  0  0  0  0  0  0
  152.3114  138.5971  159.1465 H   0  0  0  0  0  0  0  0  0  0  0  0
  154.1680  140.8893  160.4513 H   0  0  0  0  0  0  0  0  0  0  0  0
  152.5004  140.3838  160.7059 H   0  0  0  0  0  0  0  0  0  0  0  0
  1  2  1  0  0  0  0
  1 32  1  0  0  0  0
  1 33  1  0  0  0  0
  1 34  1  0  0  0  0
  2  3  1  0  0  0  0
  3 30  1  0  0  0  0
  3 29  1  0  0  0  0
  3  4  1  0  0  0  0
  4  5  1  0  0  0  0
  4 35  1  0  0  0  0
  4 36  1  0  0  0  0
  5 31  1  0  0  0  0
  5  6  1  0  0  0  0
  5 27  1  0  0  0  0
  6  7  1  0  0  0  0
  6 37  1  0  0  0  0
  6 38  1  0  0  0  0
  7  8  1  0  0  0  0
  7  9  1  0  0  0  0
  8 39  1  0  0  0  0
  8 40  1  0  0  0  0
  8 41  1  0  0  0  0
  9 14  1  0  0  0  0
  9 10  2  0  0  0  0
 10 11  1  0  0  0  0
 11 12  2  0  0  0  0
 11 42  1  0  0  0  0
 12 13  1  0  0  0  0
 13 17  1  0  0  0  0
 13 14  2  0  0  0  0
 14 15  1  0  0  0  0
 15 16  2  0  0  0  0
 16 17  1  0  0  0  0
 16 43  1  0  0  0  0
 17 18  1  0  0  0  0
 18 19  1  0  0  0  0
 18 44  1  0  0  0  0
 18 45  1  0  0  0  0
 19 20  1  0  0  0  0
 19 22  1  0  0  0  0
 19 46  1  0  0  0  0
 20 21  1  0  0  0  0
 20 47  1  0  0  0  0
 20 48  1  0  0  0  0
 21 49  1  0  0  0  0
 22 26  1  0  0  0  0
 22 23  1  0  0  0  0
 22 50  1  0  0  0  0
 23 24  1  0  0  0  0
 23 51  1  0  0  0  0
 23 52  1  0  0  0  0
 24 25  1  0  0  0  0
 24 53  1  0  0  0  0
 24 54  1  0  0  0  0
 25 26  1  0  0  0  0
 26 55  1  0  0  0  0
 26 56  1  0  0  0  0
 27 28  1  0  0  0  0
 27 29  1  0  0  0  0
 28 57  1  0  0  0  0
 28 58  1  0  0  0  0
 28 59  1  0  0  0  0
 29 60  1  0  0  0  0
 29 61  1  0  0  0  0
M  END
> <s_m_source_file>
AV-unprocessed.smi

> <i_m_source_file_index>
21

> <i_lp_mmshare_version>
43012

> <i_f3d_flags>
0

> <s_epik_input>
W0NIM11PW0NASF0xW0NIMl1bQ0BIXShOKFtDSDNdKVtDSDJdMSlbQ0gyXU4oW0NIM10pYyhuW2NIXW4yKWMoYzIzKW5bY0hdbjNbQ0gyXVtDQEhdKFtDSDJdW09IXSlbQ0BASF00W0NIMl1bQ0gyXU9bQ0gyXTQ=

> <s_epik_cmdline>
J2VwaWtfcHl0aG9uJywgJy1waCcsICc3LjAnLCAnLXRuJywgJzgnLCAnLW1hJywgJzIwMCcsICctbWV0YWxfYmluZGluZycsICctaW1hZScsICc8aW5maWxlLm1hZT4nLCAnLW9tYWUnLCAnPG91dGZpbGUubWFlPic=

> <r_lp_tautomer_probability>
1

> <r_epik_Ionization_Penalty>
2.17574

> <r_epik_Ionization_Penalty_Charging>
0

> <r_epik_Ionization_Penalty_Neutral>
2.17574

> <r_epik_State_Penalty>
2.31336

> <r_epik_Charging_Adjusted_Penalty>
2.31336

> <i_epik_Tot_Q>
0

> <i_epik_Tot_abs_Q>
0

> <r_epik_Metal_State_Penalty>
2.31025

> <b_epik_Metal_Only>
0

> <s_lp_Force_Field>
OPLS_2005

> <r_lp_Energy>
68.3176

> <b_lp_Chiralities_Consistent>
1

> <s_lp_Variant>
AV-unprocessed.smi:21-42

> <Gold.Version>
5.8.1

> <Gold.Id.Protein>
6NUR|6NUR_protein|mol2

> <Gold.PLP.Fitness>
46.5887

> <Gold.PLP.PLP>
-45.6266

> <Gold.PLP.part.hbond>
-4.5848

> <Gold.PLP.part.metal>
0.0000

> <Gold.PLP.part.buried>
-4.7209

> <Gold.PLP.part.nonpolar>
-36.3055

> <Gold.PLP.part.repulsive>
0.8140

> <Gold.PLP.ligand.clash>
0.0000

> <Gold.PLP.ligand.torsion>
2.6798

> <Gold.PLP.Chemscore.Hbond>
1.2153

> <Gold.PLP.Chemscore.CHOScore>
0.6576

> <Gold.PLP.Chemscore.Metal>
0.0000

> <Gold.Chemscore.Hbonds>
donor molecule, donor type, donor heavy atom, donor atom, acceptor molecule, acceptor atom, score
      L1  H    21    49       P1  8029  0.84
      P1  H  6933  6945       L1     2  0.11
      L1  C    11    42       P1  7957  0.55
      L1  C    16    43       P1  8029  0.10

> <Gold.PLP.Chemscore.Internal.Correction>
0.7030

> <Gold.Rescore>
     Score         DG    S(hbond)    S(metal)    S(lipo)     H(rot)  DE(clash)    DE(int)     intcor
      9.03     -12.68       0.87        0.00     102.36       3.00       0.89       2.76       ----

> <Gold.Chemscore.Fitness>
9.0344

> <Gold.Chemscore.DG>
-12.6821

> <Gold.Chemscore.ZeroCoef>
-5.4800

> <Gold.Chemscore.Hbond>
0.8723

> <Gold.Chemscore.Metal>
0.0000

> <Gold.Chemscore.Lipo>
102.3627

> <Gold.Chemscore.Internal_Hbond>
0.0000

> <Gold.Chemscore.DEClash>
0.8889

> <Gold.Chemscore.DEInternal>
2.7588

> <Gold.Chemscore.Rot>
3.0031

> <Gold.Chemscore.Internal.Correction>
   9.000000E+99

> <Gold.Chemscore.Hbonds>
donor molecule, donor type, donor heavy atom, donor atom, acceptor molecule, acceptor atom, score
      L1  H    21    49       P1  8029  0.16
      P1  H  6933  6945       L1     2  0.03

> <Gold.Chemscore.Hbond.Weighted>
-2.9136

> <Gold.Chemscore.Metal.Weighted>
-0.0000

> <Gold.Chemscore.Lipo.Weighted>
-11.9764

> <Gold.Chemscore.Internal_Hbond.Weighted>
0.0000

> <Gold.Chemscore.DEClash.Weighted>
0.8889

> <Gold.Chemscore.DEInternal.Weighted>
2.7588

> <Gold.Chemscore.Rot.Weighted>
7.6880

> <Gold.Chemscore.Internal.Correction.Weighted>
   9.000000E+99

> <Gold.Protein.RotatedTorsions>
[ 6907 6896 6895 6894 ] final   -3.01 input  -60.11 | X-H torsion
[ 7974 7965 7964 7962 ] final -152.31 input  175.53 | X-H torsion
[ 8008 7997 7996 7995 ] final   68.68 input   59.86 | X-H torsion
[ 10167 10162 10161 10158 ] final  -10.05 input  -65.29 | X-H torsion
[ 10718 10713 10712 10709 ] final  134.95 input   66.30 | X-H torsion
[ 10763 10752 10751 10750 ] final  -55.17 input  -60.55 | X-H torsion
[ 11005 11000 10999 10996 ] final -179.61 input  -57.11 | X-H torsion

> <Gold.Protein.ActiveResidues>
 VAL166  LYS551  ARG553  GLY616  TRP617  ASP618  TYR619  PRO620  LYS621  CYS622 
 ASP623  PHE694  ASN695  SER759  ASP760  ASP761  ALA762  ILE779  LEU786  VAL792 
 PHE793  MET794  SER795  GLU796  ALA797  LYS798  CYS799  TRP800  GLU811  SER814 

> <Gold.Protein.RotatedAtoms>
  151.5207  135.1067  159.9877 H   0  0  0  0  0  0  0  0  0  0  0  0  # atno 6907 bound_to 6896
  152.4622  133.7842  159.6877 H   0  0  0  0  0  0  0  0  0  0  0  0  # atno 6908 bound_to 6896
  150.8589  133.7609  159.3024 H   0  0  0  0  0  0  0  0  0  0  0  0  # atno 6909 bound_to 6896
  144.7801  140.4680  143.5845 H   0  0  0  0  0  0  0  0  0  0  0  0  # atno 7974 bound_to 7965
  155.7120  140.3494  155.4978 H   0  0  0  0  0  0  0  0  0  0  0  0  # atno 8008 bound_to 7997
  155.9347  140.1090  157.1126 H   0  0  0  0  0  0  0  0  0  0  0  0  # atno 8009 bound_to 7997
  154.4091  140.1224  156.4835 H   0  0  0  0  0  0  0  0  0  0  0  0  # atno 8010 bound_to 7997
  140.7103  143.5791  150.9011 H   0  0  0  0  0  0  0  0  0  0  0  0  # atno 10167 bound_to 10162
  157.4620  131.1074  150.9908 H   0  0  0  0  0  0  0  0  0  0  0  0  # atno 10718 bound_to 10713
  154.1866  135.6434  153.5048 H   0  0  0  0  0  0  0  0  0  0  0  0  # atno 10763 bound_to 10752
  153.0045  135.5418  154.6459 H   0  0  0  0  0  0  0  0  0  0  0  0  # atno 10764 bound_to 10752
  154.5837  135.2927  155.0679 H   0  0  0  0  0  0  0  0  0  0  0  0  # atno 10765 bound_to 10752
  140.4167  134.6643  157.4642 H   0  0  0  0  0  0  0  0  0  0  0  0  # atno 11005 bound_to 11000
  145.6074  139.1509  143.3095 LP  0  0  0  0  0  0  0  0  0  0  0  0  # atno 17320 bound_to 7965
  146.2004  140.6192  142.9105 LP  0  0  0  0  0  0  0  0  0  0  0  0  # atno 17321 bound_to 7965
  139.9517  143.6265  152.3027 LP  0  0  0  0  0  0  0  0  0  0  0  0  # atno 17342 bound_to 10162
  139.6786  144.7657  151.1651 LP  0  0  0  0  0  0  0  0  0  0  0  0  # atno 17343 bound_to 10162
  157.0702  130.5861  149.5401 LP  0  0  0  0  0  0  0  0  0  0  0  0  # atno 17370 bound_to 10713
  156.0033  130.5116  150.7741 LP  0  0  0  0  0  0  0  0  0  0  0  0  # atno 17371 bound_to 10713
  140.0229  134.6520  155.9214 LP  0  0  0  0  0  0  0  0  0  0  0  0  # atno 17394 bound_to 11000
  141.1800  133.6545  156.4982 LP  0  0  0  0  0  0  0  0  0  0  0  0  # atno 17395 bound_to 11000

$$$$
