AV-unprocessed.smi:507|AV-procd|sdf|2755|dock3
  -GOLD-   2262023223D 1   1.00000     0.00000
 Structure written by MMmdl.
 35 36  0  0  0  0  0  0  0  0  3 V2000
  152.1748  144.7855  160.2184 C   0  0  0  0  0  0  0  0  0  0  0  0
  151.9737  143.6275  159.2559 C   0  0  0  0  0  0  0  0  0  0  0  0
  151.1041  143.8075  158.1564 C   0  0  0  0  0  0  0  0  0  0  0  0
  150.9384  142.7290  157.2957 C   0  0  0  0  0  0  0  0  0  0  0  0
  150.1648  142.5888  156.1415 N   0  3  0  0  0  0  0  0  0  0  0  0
  150.3257  141.3347  155.6354 C   0  0  0  0  0  0  0  0  0  0  0  0
  151.1898  140.6709  156.4514 N   0  0  0  0  0  0  0  0  0  0  0  0
  151.6996  139.2952  156.3722 C   0  0  0  0  0  0  0  0  0  0  0  0
  151.9601  138.8379  154.9226 C   0  0  1  0  0  0  0  0  0  0  0  0
  152.6485  137.6017  154.9428 O   0  0  0  0  0  0  0  0  0  0  0  0
  150.6564  138.6711  154.1235 C   0  0  0  0  0  0  0  0  0  0  0  0
  150.0054  137.3810  154.4126 N   0  3  0  0  0  0  0  0  0  0  0  0
  151.6012  141.5031  157.4982 C   0  0  0  0  0  0  0  0  0  0  0  0
  152.4632  141.3092  158.5748 C   0  0  0  0  0  0  0  0  0  0  0  0
  152.6459  142.3947  159.4614 C   0  0  0  0  0  0  0  0  0  0  0  0
  153.5817  142.2142  160.6447 C   0  0  0  0  0  0  0  0  0  0  0  0
  151.5959  145.6592  159.9175 H   0  0  0  0  0  0  0  0  0  0  0  0
  153.2245  145.0776  160.2536 H   0  0  0  0  0  0  0  0  0  0  0  0
  151.8581  144.5069  161.2237 H   0  0  0  0  0  0  0  0  0  0  0  0
  150.5900  144.7437  157.9936 H   0  0  0  0  0  0  0  0  0  0  0  0
  149.8502  140.9379  154.7498 H   0  0  0  0  0  0  0  0  0  0  0  0
  152.6198  139.2524  156.9569 H   0  0  0  0  0  0  0  0  0  0  0  0
  150.9875  138.6358  156.8701 H   0  0  0  0  0  0  0  0  0  0  0  0
  152.5948  139.5725  154.4251 H   0  0  0  0  0  0  0  0  0  0  0  0
  153.4315  137.6983  155.4636 H   0  0  0  0  0  0  0  0  0  0  0  0
  149.9613  139.4848  154.3348 H   0  0  0  0  0  0  0  0  0  0  0  0
  150.8679  138.7031  153.0541 H   0  0  0  0  0  0  0  0  0  0  0  0
  150.6906  136.7239  154.7574 H   0  0  0  0  0  0  0  0  0  0  0  0
  149.5881  137.0199  153.5662 H   0  0  0  0  0  0  0  0  0  0  0  0
  152.9745  140.3712  158.7317 H   0  0  0  0  0  0  0  0  0  0  0  0
  154.0131  141.2129  160.6640 H   0  0  0  0  0  0  0  0  0  0  0  0
  153.0474  142.3641  161.5831 H   0  0  0  0  0  0  0  0  0  0  0  0
  154.4034  142.9292  160.5956 H   0  0  0  0  0  0  0  0  0  0  0  0
  149.2860  137.5141  155.1089 H   0  0  0  0  0  0  0  0  0  0  0  0
  149.5698  143.2955  155.7277 H   0  0  0  0  0  0  0  0  0  0  0  0
  1  2  1  0  0  0  0
  1 17  1  0  0  0  0
  1 18  1  0  0  0  0
  1 19  1  0  0  0  0
  2 15  1  0  0  0  0
  2  3  2  0  0  0  0
  3  4  1  0  0  0  0
  3 20  1  0  0  0  0
  4 13  2  0  0  0  0
  4  5  1  0  0  0  0
  5  6  2  0  0  0  0
  5 35  1  0  0  0  0
  6  7  1  0  0  0  0
  6 21  1  0  0  0  0
  7  8  1  0  0  0  0
  7 13  1  0  0  0  0
  8  9  1  0  0  0  0
  8 22  1  0  0  0  0
  8 23  1  0  0  0  0
  9 10  1  0  0  0  0
  9 11  1  0  0  0  0
  9 24  1  0  0  0  0
 10 25  1  0  0  0  0
 11 12  1  0  0  0  0
 11 26  1  0  0  0  0
 11 27  1  0  0  0  0
 12 28  1  0  0  0  0
 12 29  1  0  0  0  0
 12 34  1  0  0  0  0
 13 14  1  0  0  0  0
 14 15  2  0  0  0  0
 14 30  1  0  0  0  0
 15 16  1  0  0  0  0
 16 31  1  0  0  0  0
 16 32  1  0  0  0  0
 16 33  1  0  0  0  0
M  CHG  1   5   1
M  CHG  1  12   1
M  END
> <s_m_source_file>
AV-unprocessed.smi

> <i_m_source_file_index>
507

> <i_lp_mmshare_version>
43012

> <i_f3d_flags>
0

> <s_epik_input>
W0NIM11jKFtjSF0xKWMoW0NIM10pW2NIXWMoYzEyKW4oW2NIXW4yKVtDSDJdW0NASF0oW09IXSlbQ0gyXVtOSDJd

> <s_epik_cmdline>
J2VwaWtfcHl0aG9uJywgJy1waCcsICc3LjAnLCAnLXRuJywgJzgnLCAnLW1hJywgJzIwMCcsICctbWV0YWxfYmluZGluZycsICctaW1hZScsICc8aW5maWxlLm1hZT4nLCAnLW9tYWUnLCAnPG91dGZpbGUubWFlPic=

> <r_epik_Ionization_Penalty>
1.17892

> <r_epik_Ionization_Penalty_Charging>
1.17892

> <r_epik_Ionization_Penalty_Neutral>
1.79057e-06

> <r_epik_State_Penalty>
1.21155

> <r_epik_Charging_Adjusted_Penalty>
2.39047

> <i_epik_Tot_Q>
2

> <i_epik_Tot_abs_Q>
2

> <r_epik_Metal_State_Penalty>
5.22091

> <b_epik_Metal_Only>
0

> <s_lp_Force_Field>
OPLS_2005

> <r_lp_Energy>
17.3712

> <b_lp_Chiralities_Consistent>
1

> <s_lp_Variant>
AV-unprocessed.smi:507-4

> <Gold.Version>
5.8.1

> <Gold.Id.Protein>
6NUR|6NUR_protein|mol2

> <Gold.PLP.Fitness>
53.4239

> <Gold.PLP.PLP>
-41.2420

> <Gold.PLP.part.hbond>
-3.0000

> <Gold.PLP.part.metal>
0.0000

> <Gold.PLP.part.buried>
-5.4573

> <Gold.PLP.part.nonpolar>
-32.2048

> <Gold.PLP.part.repulsive>
0.1605

> <Gold.PLP.ligand.clash>
0.0000

> <Gold.PLP.ligand.torsion>
0.5594

> <Gold.PLP.Chemscore.Hbond>
4.4320

> <Gold.PLP.Chemscore.CHOScore>
0.0000

> <Gold.PLP.Chemscore.Metal>
0.0000

> <Gold.Chemscore.Hbonds>
donor molecule, donor type, donor heavy atom, donor atom, acceptor molecule, acceptor atom, score
      L1  H     5    35       P1  8028  2.00
      L1  H    12    29       P1  7948  2.00
      P1  H 10752 10765       L1    10  0.39

> <Gold.PLP.Chemscore.Internal.Correction>
0.0048

> <Gold.Rescore>
     Score         DG    S(hbond)    S(metal)    S(lipo)     H(rot)  DE(clash)    DE(int)     intcor
     17.79     -18.30       1.96        0.00     104.28       2.32       0.01       0.50       ----

> <Gold.Chemscore.Fitness>
17.7906

> <Gold.Chemscore.DG>
-18.3024

> <Gold.Chemscore.ZeroCoef>
-5.4800

> <Gold.Chemscore.Hbond>
1.9629

> <Gold.Chemscore.Metal>
0.0000

> <Gold.Chemscore.Lipo>
104.2757

> <Gold.Chemscore.Internal_Hbond>
0.0000

> <Gold.Chemscore.DEClash>
0.0076

> <Gold.Chemscore.DEInternal>
0.5043

> <Gold.Chemscore.Rot>
2.3180

> <Gold.Chemscore.Internal.Correction>
   9.000000E+99

> <Gold.Chemscore.Hbonds>
donor molecule, donor type, donor heavy atom, donor atom, acceptor molecule, acceptor atom, score
      L1  H     5    35       P1  8028  0.95
      L1  H    12    29       P1  7948  0.81
      P1  H 10752 10765       L1    10  0.06

> <Gold.Chemscore.Hbond.Weighted>
-6.5562

> <Gold.Chemscore.Metal.Weighted>
-0.0000

> <Gold.Chemscore.Lipo.Weighted>
-12.2003

> <Gold.Chemscore.Internal_Hbond.Weighted>
0.0000

> <Gold.Chemscore.DEClash.Weighted>
0.0076

> <Gold.Chemscore.DEInternal.Weighted>
0.5043

> <Gold.Chemscore.Rot.Weighted>
5.9340

> <Gold.Chemscore.Internal.Correction.Weighted>
   9.000000E+99

> <Gold.Protein.RotatedTorsions>
[ 6907 6896 6895 6894 ] final -145.70 input  -60.11 | X-H torsion
[ 7974 7965 7964 7962 ] final  112.92 input  175.53 | X-H torsion
[ 8008 7997 7996 7995 ] final  119.66 input   59.86 | X-H torsion
[ 10167 10162 10161 10158 ] final   36.45 input  -65.29 | X-H torsion
[ 10718 10713 10712 10709 ] final  -18.66 input   66.30 | X-H torsion
[ 10763 10752 10751 10750 ] final  168.83 input  -60.55 | X-H torsion
[ 11005 11000 10999 10996 ] final  174.19 input  -57.11 | X-H torsion

> <Gold.Protein.ActiveResidues>
 VAL166  LYS551  ARG553  GLY616  TRP617  ASP618  TYR619  PRO620  LYS621  CYS622 
 ASP623  PHE694  ASN695  SER759  ASP760  ASP761  ALA762  ILE779  LEU786  VAL792 
 PHE793  MET794  SER795  GLU796  ALA797  LYS798  CYS799  TRP800  GLU811  SER814 

> <Gold.Protein.RotatedAtoms>
  151.1313  133.5035  159.2598 H   0  0  0  0  0  0  0  0  0  0  0  0  # atno 6907 bound_to 6896
  151.1754  135.0336  159.8779 H   0  0  0  0  0  0  0  0  0  0  0  0  # atno 6908 bound_to 6896
  152.5460  134.1172  159.8437 H   0  0  0  0  0  0  0  0  0  0  0  0  # atno 6909 bound_to 6896
  145.2235  139.2851  143.4206 H   0  0  0  0  0  0  0  0  0  0  0  0  # atno 7974 bound_to 7965
  156.2606  140.2848  156.1027 H   0  0  0  0  0  0  0  0  0  0  0  0  # atno 8008 bound_to 7997
  155.1343  140.0394  157.2800 H   0  0  0  0  0  0  0  0  0  0  0  0  # atno 8009 bound_to 7997
  154.6577  140.2559  155.7150 H   0  0  0  0  0  0  0  0  0  0  0  0  # atno 8010 bound_to 7997
  140.4126  144.1571  150.6140 H   0  0  0  0  0  0  0  0  0  0  0  0  # atno 10167 bound_to 10162
  156.5564  130.4714  149.6427 H   0  0  0  0  0  0  0  0  0  0  0  0  # atno 10718 bound_to 10713
  154.3744  135.2753  155.2248 H   0  0  0  0  0  0  0  0  0  0  0  0  # atno 10763 bound_to 10752
  154.4382  135.5961  153.6115 H   0  0  0  0  0  0  0  0  0  0  0  0  # atno 10764 bound_to 10752
  152.9837  135.6012  154.3979 H   0  0  0  0  0  0  0  0  0  0  0  0  # atno 10765 bound_to 10752
  140.3486  134.7214  157.4252 H   0  0  0  0  0  0  0  0  0  0  0  0  # atno 11005 bound_to 11000
  146.3370  140.2548  142.8600 LP  0  0  0  0  0  0  0  0  0  0  0  0  # atno 17320 bound_to 7965
  144.9743  140.8399  143.5436 LP  0  0  0  0  0  0  0  0  0  0  0  0  # atno 17321 bound_to 7965
  140.4621  143.2445  151.9205 LP  0  0  0  0  0  0  0  0  0  0  0  0  # atno 17342 bound_to 10162
  139.4782  144.5457  151.8462 LP  0  0  0  0  0  0  0  0  0  0  0  0  # atno 17343 bound_to 10162
  156.2838  130.7086  151.1917 LP  0  0  0  0  0  0  0  0  0  0  0  0  # atno 17370 bound_to 10713
  157.7377  131.0548  150.5338 LP  0  0  0  0  0  0  0  0  0  0  0  0  # atno 17371 bound_to 10713
  140.0721  134.5848  155.8630 LP  0  0  0  0  0  0  0  0  0  0  0  0  # atno 17394 bound_to 11000
  141.2018  133.6621  156.5973 LP  0  0  0  0  0  0  0  0  0  0  0  0  # atno 17395 bound_to 11000

$$$$
