AV-unprocessed.smi:1240|AV-procd|sdf|5212|dock8
  -GOLD-   22720 4303D 1   1.00000     0.00000
 Structure written by MMmdl.
 48 50  0  0  0  0  0  0  0  0  4 V2000
  146.9236  133.1223  154.6470 O   0  0  0  0  0  0  0  0  0  0  0  0
  147.6142  133.9880  154.0970 C   0  0  0  0  0  0  0  0  0  0  0  0
  148.8335  134.4465  154.4860 N   0  5  0  0  0  0  0  0  0  0  0  0
  149.1886  134.7994  155.8603 C   0  0  0  0  0  0  0  0  0  0  0  0
  148.7648  136.2754  156.1872 C   0  0  1  0  0  0  0  0  0  0  0  0
  148.7774  136.6396  157.7092 C   0  0  2  0  0  0  0  0  0  0  0  0
  148.1428  135.6343  158.6656 C   0  0  0  0  0  0  0  0  0  0  0  0
  147.8750  136.4732  159.9108 C   0  0  0  0  0  0  0  0  0  0  0  0
  147.6629  137.8011  159.4467 O   0  0  0  0  0  0  0  0  0  0  0  0
  147.9309  137.8727  158.0519 C   0  0  0  0  0  0  0  0  0  0  0  0
  149.5211  137.3228  155.4132 N   0  3  0  0  0  0  0  0  0  0  0  0
  148.9509  138.6985  155.3503 C   0  0  0  0  0  0  0  0  0  0  0  0
  149.6955  139.5216  154.2869 C   0  0  0  0  0  0  0  0  0  0  0  0
  151.0872  139.5425  154.5839 O   0  0  0  0  0  0  0  0  0  0  0  0
  151.6602  138.2400  154.5666 C   0  0  0  0  0  0  0  0  0  0  0  0
  150.9909  137.3634  155.6375 C   0  0  0  0  0  0  0  0  0  0  0  0
  147.1912  134.5754  152.9634 N   0  0  0  0  0  0  0  0  0  0  0  0
  145.9860  134.3598  152.2429 C   0  0  0  0  0  0  0  0  0  0  0  0
  145.6866  135.2458  151.1849 C   0  0  0  0  0  0  0  0  0  0  0  0
  144.4927  135.0772  150.4547 C   0  0  0  0  0  0  0  0  0  0  0  0
  143.6401  134.0818  150.7804 N   0  3  0  0  0  0  0  0  0  0  0  0
  143.8742  133.2227  151.7959 C   0  0  0  0  0  0  0  0  0  0  0  0
  145.0521  133.3417  152.5610 C   0  0  0  0  0  0  0  0  0  0  0  0
  148.7330  134.1264  156.5872 H   0  0  0  0  0  0  0  0  0  0  0  0
  150.2636  134.7029  156.0136 H   0  0  0  0  0  0  0  0  0  0  0  0
  147.7295  136.3882  155.8604 H   0  0  0  0  0  0  0  0  0  0  0  0
  149.7980  136.8284  158.0488 H   0  0  0  0  0  0  0  0  0  0  0  0
  147.2017  135.2628  158.2572 H   0  0  0  0  0  0  0  0  0  0  0  0
  148.7811  134.7768  158.8812 H   0  0  0  0  0  0  0  0  0  0  0  0
  147.0201  136.1081  160.4803 H   0  0  0  0  0  0  0  0  0  0  0  0
  148.7459  136.4712  160.5671 H   0  0  0  0  0  0  0  0  0  0  0  0
  148.4307  138.8088  157.8018 H   0  0  0  0  0  0  0  0  0  0  0  0
  146.9795  137.8471  157.5185 H   0  0  0  0  0  0  0  0  0  0  0  0
  147.8904  138.6650  155.1027 H   0  0  0  0  0  0  0  0  0  0  0  0
  149.0407  139.1971  156.3163 H   0  0  0  0  0  0  0  0  0  0  0  0
  149.5298  139.1103  153.2899 H   0  0  0  0  0  0  0  0  0  0  0  0
  149.3215  140.5453  154.2750 H   0  0  0  0  0  0  0  0  0  0  0  0
  151.5517  137.7952  153.5760 H   0  0  0  0  0  0  0  0  0  0  0  0
  152.7294  138.3217  154.7632 H   0  0  0  0  0  0  0  0  0  0  0  0
  151.2161  137.7635  156.6266 H   0  0  0  0  0  0  0  0  0  0  0  0
  151.4062  136.3559  155.5954 H   0  0  0  0  0  0  0  0  0  0  0  0
  147.8567  135.1953  152.5256 H   0  0  0  0  0  0  0  0  0  0  0  0
  146.3693  136.0429  150.9280 H   0  0  0  0  0  0  0  0  0  0  0  0
  144.1963  135.7050  149.6273 H   0  0  0  0  0  0  0  0  0  0  0  0
  143.1152  132.4741  151.9694 H   0  0  0  0  0  0  0  0  0  0  0  0
  145.2147  132.6606  153.3829 H   0  0  0  0  0  0  0  0  0  0  0  0
  149.4433  136.9880  154.4640 H   0  0  0  0  0  0  0  0  0  0  0  0
  142.7808  133.9777  150.2405 H   0  0  0  0  0  0  0  0  0  0  0  0
  1  2  2  0  0  0  0
  2  3  1  0  0  0  0
  2 17  1  0  0  0  0
  3  4  1  0  0  0  0
  4  5  1  0  0  0  0
  4 24  1  0  0  0  0
  4 25  1  0  0  0  0
  5  6  1  0  0  0  0
  5 11  1  0  0  0  0
  5 26  1  0  0  0  0
  6 10  1  0  0  0  0
  6  7  1  0  0  0  0
  6 27  1  0  0  0  0
  7  8  1  0  0  0  0
  7 28  1  0  0  0  0
  7 29  1  0  0  0  0
  8  9  1  0  0  0  0
  8 30  1  0  0  0  0
  8 31  1  0  0  0  0
  9 10  1  0  0  0  0
 10 32  1  0  0  0  0
 10 33  1  0  0  0  0
 11 16  1  0  0  0  0
 11 12  1  0  0  0  0
 11 47  1  0  0  0  0
 12 13  1  0  0  0  0
 12 34  1  0  0  0  0
 12 35  1  0  0  0  0
 13 14  1  0  0  0  0
 13 36  1  0  0  0  0
 13 37  1  0  0  0  0
 14 15  1  0  0  0  0
 15 16  1  0  0  0  0
 15 38  1  0  0  0  0
 15 39  1  0  0  0  0
 16 40  1  0  0  0  0
 16 41  1  0  0  0  0
 17 18  1  0  0  0  0
 17 42  1  0  0  0  0
 18 23  1  0  0  0  0
 18 19  2  0  0  0  0
 19 20  1  0  0  0  0
 19 43  1  0  0  0  0
 20 21  2  0  0  0  0
 20 44  1  0  0  0  0
 21 22  1  0  0  0  0
 21 48  1  0  0  0  0
 22 23  2  0  0  0  0
 22 45  1  0  0  0  0
 23 46  1  0  0  0  0
M  CHG  1   3  -1
M  CHG  1  11   1
M  CHG  1  21   1
M  END
> <s_m_source_file>
AV-unprocessed.smi

> <i_m_source_file_index>
1240

> <i_lp_mmshare_version>
43012

> <i_f3d_flags>
0

> <s_epik_input>
W2NIXTFbY0hdbltjSF1bY0hdYzFbTkhdQyg9TylbTkhdW0NIMl1bQ0BIXShbQ0BASF0yW0NIMl1bQ0gyXU9bQ0gyXTIpTjNbQ0gyXVtDSDJdT1tDSDJdW0NIMl0z

> <s_epik_cmdline>
J2VwaWtfcHl0aG9uJywgJy1waCcsICc3LjAnLCAnLXRuJywgJzgnLCAnLW1hJywgJzIwMCcsICctbWV0YWxfYmluZGluZycsICctaW1hZScsICc8aW5maWxlLm1hZT4nLCAnLW9tYWUnLCAnPG91dGZpbGUubWFlPic=

> <r_epik_Ionization_Penalty>
8.41087

> <r_epik_Ionization_Penalty_Charging>
8.41087

> <r_epik_Ionization_Penalty_Neutral>
3.12936e-06

> <r_epik_State_Penalty>
8.81894

> <r_epik_Charging_Adjusted_Penalty>
17.2298

> <i_epik_Tot_Q>
1

> <i_epik_Tot_abs_Q>
3

> <r_epik_Metal_State_Penalty>
4.82983

> <b_epik_Metal_Only>
1

> <s_lp_Force_Field>
OPLS_2005

> <r_lp_Energy>
48.6891

> <b_lp_Chiralities_Consistent>
1

> <s_lp_Variant>
AV-unprocessed.smi:1240-18

> <Gold.Version>
5.8.1

> <Gold.Id.Protein>
6NUR|6NUR_protein|mol2

> <Gold.PLP.Fitness>
42.4538

> <Gold.PLP.PLP>
-30.4426

> <Gold.PLP.part.hbond>
-4.0000

> <Gold.PLP.part.metal>
0.0000

> <Gold.PLP.part.buried>
-7.1163

> <Gold.PLP.part.nonpolar>
-20.8997

> <Gold.PLP.part.repulsive>
0.7033

> <Gold.PLP.ligand.clash>
0.0000

> <Gold.PLP.ligand.torsion>
0.8892

> <Gold.PLP.Chemscore.Hbond>
4.4841

> <Gold.PLP.Chemscore.CHOScore>
0.0000

> <Gold.PLP.Chemscore.Metal>
0.0000

> <Gold.Chemscore.Hbonds>
donor molecule, donor type, donor heavy atom, donor atom, acceptor molecule, acceptor atom, score
      L1  H    17    42       P1  7948  1.00
      L1  H    21    48       P1 10186  2.00
      P1  H  6934  6947       L1     9  0.56
      P1  H  7989  7998       L1    14  1.00

> <Gold.PLP.Chemscore.Internal.Correction>
0.3372

> <Gold.Rescore>
     Score         DG    S(hbond)    S(metal)    S(lipo)     H(rot)  DE(clash)    DE(int)     intcor
     16.65     -19.26       3.26        0.00      61.97       1.70       0.22       2.39       ----

> <Gold.Chemscore.Fitness>
16.6516

> <Gold.Chemscore.DG>
-19.2605

> <Gold.Chemscore.ZeroCoef>
-5.4800

> <Gold.Chemscore.Hbond>
3.2596

> <Gold.Chemscore.Metal>
0.0000

> <Gold.Chemscore.Lipo>
61.9742

> <Gold.Chemscore.Internal_Hbond>
0.0000

> <Gold.Chemscore.DEClash>
0.2212

> <Gold.Chemscore.DEInternal>
2.3876

> <Gold.Chemscore.Rot>
1.7021

> <Gold.Chemscore.Internal.Correction>
   9.000000E+99

> <Gold.Chemscore.Hbonds>
donor molecule, donor type, donor heavy atom, donor atom, acceptor molecule, acceptor atom, score
      L1  H    17    42       P1  7948  0.98
      L1  H    21    48       P1 10186  0.96
      P1  H  6934  6947       L1     9  0.47
      P1  H  7989  7998       L1    14  0.30

> <Gold.Chemscore.Hbond.Weighted>
-10.8870

> <Gold.Chemscore.Metal.Weighted>
-0.0000

> <Gold.Chemscore.Lipo.Weighted>
-7.2510

> <Gold.Chemscore.Internal_Hbond.Weighted>
0.0000

> <Gold.Chemscore.DEClash.Weighted>
0.2212

> <Gold.Chemscore.DEInternal.Weighted>
2.3876

> <Gold.Chemscore.Rot.Weighted>
4.3575

> <Gold.Chemscore.Internal.Correction.Weighted>
   9.000000E+99

> <Gold.Protein.RotatedTorsions>
[ 6907 6896 6895 6894 ] final  102.60 input  -60.11 | X-H torsion
[ 7974 7965 7964 7962 ] final -100.50 input  175.53 | X-H torsion
[ 8008 7997 7996 7995 ] final   80.08 input   59.86 | X-H torsion
[ 10167 10162 10161 10158 ] final  -17.42 input  -65.29 | X-H torsion
[ 10718 10713 10712 10709 ] final -170.08 input   66.30 | X-H torsion
[ 10763 10752 10751 10750 ] final  -88.92 input  -60.55 | X-H torsion
[ 11005 11000 10999 10996 ] final  144.92 input  -57.11 | X-H torsion

> <Gold.Protein.ActiveResidues>
 VAL166  LYS551  ARG553  GLY616  TRP617  ASP618  TYR619  PRO620  LYS621  CYS622 
 ASP623  PHE694  ASN695  SER759  ASP760  ASP761  ALA762  ILE779  LEU786  VAL792 
 PHE793  MET794  SER795  GLU796  ALA797  LYS798  CYS799  TRP800  GLU811  SER814 

> <Gold.Protein.RotatedAtoms>
  152.5319  133.9951  159.7868 H   0  0  0  0  0  0  0  0  0  0  0  0  # atno 6907 bound_to 6896
  151.0180  133.5895  159.2682 H   0  0  0  0  0  0  0  0  0  0  0  0  # atno 6908 bound_to 6896
  151.2946  135.0758  159.9270 H   0  0  0  0  0  0  0  0  0  0  0  0  # atno 6909 bound_to 6896
  145.2938  140.9359  143.2863 H   0  0  0  0  0  0  0  0  0  0  0  0  # atno 7974 bound_to 7965
  155.8786  140.3445  155.5872 H   0  0  0  0  0  0  0  0  0  0  0  0  # atno 8008 bound_to 7997
  155.7746  140.0850  157.2110 H   0  0  0  0  0  0  0  0  0  0  0  0  # atno 8009 bound_to 7997
  154.4023  140.1512  156.2968 H   0  0  0  0  0  0  0  0  0  0  0  0  # atno 8010 bound_to 7997
  140.7247  143.5018  150.9860 H   0  0  0  0  0  0  0  0  0  0  0  0  # atno 10167 bound_to 10162
  156.7209  130.9270  151.3097 H   0  0  0  0  0  0  0  0  0  0  0  0  # atno 10718 bound_to 10713
  154.6498  135.5359  153.7888 H   0  0  0  0  0  0  0  0  0  0  0  0  # atno 10763 bound_to 10752
  153.0379  135.6479  154.1034 H   0  0  0  0  0  0  0  0  0  0  0  0  # atno 10764 bound_to 10752
  154.0953  135.2937  155.3243 H   0  0  0  0  0  0  0  0  0  0  0  0  # atno 10765 bound_to 10752
  140.0671  134.9173  157.1282 H   0  0  0  0  0  0  0  0  0  0  0  0  # atno 11005 bound_to 11000
  144.9151  139.4481  143.6568 LP  0  0  0  0  0  0  0  0  0  0  0  0  # atno 17320 bound_to 7965
  146.3176  139.7980  142.8971 LP  0  0  0  0  0  0  0  0  0  0  0  0  # atno 17321 bound_to 7965
  139.8727  143.7171  152.3165 LP  0  0  0  0  0  0  0  0  0  0  0  0  # atno 17342 bound_to 10162
  139.7426  144.7555  151.0629 LP  0  0  0  0  0  0  0  0  0  0  0  0  # atno 17343 bound_to 10162
  157.6898  130.9222  150.0483 LP  0  0  0  0  0  0  0  0  0  0  0  0  # atno 17370 bound_to 10713
  156.1595  130.3643  149.9320 LP  0  0  0  0  0  0  0  0  0  0  0  0  # atno 17371 bound_to 10713
  140.3683  134.2418  155.7180 LP  0  0  0  0  0  0  0  0  0  0  0  0  # atno 17394 bound_to 11000
  141.1997  133.8005  157.0524 LP  0  0  0  0  0  0  0  0  0  0  0  0  # atno 17395 bound_to 11000

$$$$
