AV-unprocessed.smi:747|AV-procd|sdf|3580|dock8
  -GOLD-   22720 0573D 1   1.00000     0.00000
 Structure written by MMmdl.
 48 49  0  0  0  0  0  0  0  0  1 V2000
  154.3193  140.8530  161.8308 C   0  0  0  0  0  0  0  0  0  0  0  0
  153.4683  141.9355  161.3826 N   0  0  0  0  0  0  0  0  0  0  0  0
  153.0790  142.9377  162.3045 C   0  0  0  0  0  0  0  0  0  0  0  0
  153.4312  142.9301  163.4843 O   0  0  0  0  0  0  0  0  0  0  0  0
  152.2271  143.9775  161.7394 C   0  0  0  0  0  0  0  0  0  0  0  0
  151.8626  143.9460  160.4390 C   0  0  0  0  0  0  0  0  0  0  0  0
  152.2562  142.9535  159.5602 N   0  0  0  0  0  0  0  0  0  0  0  0
  151.8221  143.0139  158.1587 C   0  0  0  0  0  0  0  0  0  0  0  0
  151.0070  141.7903  157.7182 C   0  0  0  0  0  0  0  0  0  0  0  0
  149.9581  141.4830  158.2867 O   0  0  0  0  0  0  0  0  0  0  0  0
  151.5219  141.0895  156.6972 N   0  0  0  0  0  0  0  0  0  0  0  0
  150.9495  139.8720  156.1178 C   0  0  2  0  0  0  0  0  0  0  0  0
  151.9002  139.2871  155.0341 C   0  0  0  0  0  0  0  0  0  0  0  0
  151.7174  137.7944  154.7163 C   0  0  0  0  0  0  0  0  0  0  0  0
  151.2319  137.4913  153.5100 N   0  0  0  0  0  0  0  0  0  0  0  0
  151.9983  136.9259  155.5400 O   0  0  0  0  0  0  0  0  0  0  0  0
  149.4927  140.1387  155.6389 C   0  0  0  0  0  0  0  0  0  0  0  0
  148.8880  138.9102  154.9135 C   0  0  0  0  0  0  0  0  0  0  0  0
  147.4503  139.1666  154.4339 C   0  0  0  0  0  0  0  0  0  0  0  0
  147.3786  140.4011  153.5261 C   0  0  0  0  0  0  0  0  0  0  0  0
  147.9555  141.6322  154.2367 C   0  0  0  0  0  0  0  0  0  0  0  0
  149.3932  141.3783  154.7177 C   0  0  0  0  0  0  0  0  0  0  0  0
  153.0855  141.9101  160.0235 C   0  0  0  0  0  0  0  0  0  0  0  0
  153.4584  141.0145  159.2614 O   0  0  0  0  0  0  0  0  0  0  0  0
  154.5616  140.9484  162.8886 H   0  0  0  0  0  0  0  0  0  0  0  0
  155.2340  140.8945  161.2367 H   0  0  0  0  0  0  0  0  0  0  0  0
  153.7756  139.9222  161.6594 H   0  0  0  0  0  0  0  0  0  0  0  0
  151.8843  144.7846  162.3701 H   0  0  0  0  0  0  0  0  0  0  0  0
  151.2337  144.7420  160.0671 H   0  0  0  0  0  0  0  0  0  0  0  0
  151.2379  143.9172  157.9750 H   0  0  0  0  0  0  0  0  0  0  0  0
  152.6966  143.0952  157.5114 H   0  0  0  0  0  0  0  0  0  0  0  0
  152.3909  141.4125  156.2969 H   0  0  0  0  0  0  0  0  0  0  0  0
  150.8829  139.1287  156.9146 H   0  0  0  0  0  0  0  0  0  0  0  0
  151.7703  139.8371  154.1013 H   0  0  0  0  0  0  0  0  0  0  0  0
  152.9358  139.4693  155.3224 H   0  0  0  0  0  0  0  0  0  0  0  0
  151.0948  136.5258  153.2484 H   0  0  0  0  0  0  0  0  0  0  0  0
  151.0058  138.2313  152.8612 H   0  0  0  0  0  0  0  0  0  0  0  0
  148.8743  140.3297  156.5172 H   0  0  0  0  0  0  0  0  0  0  0  0
  149.5126  138.6456  154.0593 H   0  0  0  0  0  0  0  0  0  0  0  0
  148.8811  138.0382  155.5677 H   0  0  0  0  0  0  0  0  0  0  0  0
  147.0761  138.2921  153.9005 H   0  0  0  0  0  0  0  0  0  0  0  0
  146.7965  139.3064  155.2957 H   0  0  0  0  0  0  0  0  0  0  0  0
  147.9343  140.2136  152.6065 H   0  0  0  0  0  0  0  0  0  0  0  0
  146.3455  140.5895  153.2326 H   0  0  0  0  0  0  0  0  0  0  0  0
  147.9354  142.4913  153.5653 H   0  0  0  0  0  0  0  0  0  0  0  0
  147.3259  141.8914  155.0888 H   0  0  0  0  0  0  0  0  0  0  0  0
  149.7383  142.2715  155.2370 H   0  0  0  0  0  0  0  0  0  0  0  0
  150.0483  141.2496  153.8550 H   0  0  0  0  0  0  0  0  0  0  0  0
  1  2  1  0  0  0  0
  1 25  1  0  0  0  0
  1 26  1  0  0  0  0
  1 27  1  0  0  0  0
  2 23  1  0  0  0  0
  2  3  1  0  0  0  0
  3  4  2  0  0  0  0
  3  5  1  0  0  0  0
  5  6  2  0  0  0  0
  5 28  1  0  0  0  0
  6  7  1  0  0  0  0
  6 29  1  0  0  0  0
  7  8  1  0  0  0  0
  7 23  1  0  0  0  0
  8  9  1  0  0  0  0
  8 30  1  0  0  0  0
  8 31  1  0  0  0  0
  9 10  2  0  0  0  0
  9 11  1  0  0  0  0
 11 12  1  0  0  0  0
 11 32  1  0  0  0  0
 12 13  1  0  0  0  0
 12 17  1  0  0  0  0
 12 33  1  0  0  0  0
 13 14  1  0  0  0  0
 13 34  1  0  0  0  0
 13 35  1  0  0  0  0
 14 15  1  0  0  0  0
 14 16  2  0  0  0  0
 15 36  1  0  0  0  0
 15 37  1  0  0  0  0
 17 22  1  0  0  0  0
 17 18  1  0  0  0  0
 17 38  1  0  0  0  0
 18 19  1  0  0  0  0
 18 39  1  0  0  0  0
 18 40  1  0  0  0  0
 19 20  1  0  0  0  0
 19 41  1  0  0  0  0
 19 42  1  0  0  0  0
 20 21  1  0  0  0  0
 20 43  1  0  0  0  0
 20 44  1  0  0  0  0
 21 22  1  0  0  0  0
 21 45  1  0  0  0  0
 21 46  1  0  0  0  0
 22 47  1  0  0  0  0
 22 48  1  0  0  0  0
 23 24  2  0  0  0  0
M  END
> <s_m_source_file>
AV-unprocessed.smi

> <i_m_source_file_index>
747

> <i_lp_mmshare_version>
43012

> <i_f3d_flags>
0

> <s_epik_input>
W0NIM11uMWMoPU8pW2NIXVtjSF1uKGMxPU8pW0NIMl1DKD1PKVtOSF1bQ0BIXShbQ0gyXUMoPU8pW05IMl0pW0NIXTJbQ0gyXVtDSDJdW0NIMl1bQ0gyXVtDSDJdMg==

> <s_epik_cmdline>
J2VwaWtfcHl0aG9uJywgJy1waCcsICc3LjAnLCAnLXRuJywgJzgnLCAnLW1hJywgJzIwMCcsICctbWV0YWxfYmluZGluZycsICctaW1hZScsICc8aW5maWxlLm1hZT4nLCAnLW9tYWUnLCAnPG91dGZpbGUubWFlPic=

> <r_lp_tautomer_probability>
1

> <r_epik_Ionization_Penalty>
6.11221e-08

> <r_epik_Ionization_Penalty_Charging>
1.14855e-08

> <r_epik_Ionization_Penalty_Neutral>
4.96365e-08

> <r_epik_State_Penalty>
-0

> <r_epik_Charging_Adjusted_Penalty>
1.14855e-08

> <i_epik_Tot_Q>
0

> <i_epik_Tot_abs_Q>
0

> <r_epik_Metal_State_Penalty>
-0

> <b_epik_Metal_Only>
0

> <s_lp_Force_Field>
OPLS_2005

> <r_lp_Energy>
14.8557

> <b_lp_Chiralities_Consistent>
1

> <s_lp_Variant>
AV-unprocessed.smi:747-1

> <Gold.Version>
5.8.1

> <Gold.Id.Protein>
6NUR|6NUR_protein|mol2

> <Gold.PLP.Fitness>
56.8279

> <Gold.PLP.PLP>
-53.0006

> <Gold.PLP.part.hbond>
-2.9743

> <Gold.PLP.part.metal>
0.0000

> <Gold.PLP.part.buried>
-3.5818

> <Gold.PLP.part.nonpolar>
-46.4006

> <Gold.PLP.part.repulsive>
0.4271

> <Gold.PLP.ligand.clash>
0.0000

> <Gold.PLP.ligand.torsion>
0.3529

> <Gold.PLP.Chemscore.Hbond>
1.4480

> <Gold.PLP.Chemscore.CHOScore>
0.0000

> <Gold.PLP.Chemscore.Metal>
0.0000

> <Gold.Chemscore.Hbonds>
donor molecule, donor type, donor heavy atom, donor atom, acceptor molecule, acceptor atom, score
      L1  H    15    36       P1  7949  0.43
      P1  H 10752 10764       L1    16  0.98

> <Gold.PLP.Chemscore.Internal.Correction>
0.1891

> <Gold.Rescore>
     Score         DG    S(hbond)    S(metal)    S(lipo)     H(rot)  DE(clash)    DE(int)     intcor
     11.69     -13.33       1.48        0.00      88.67       2.91       0.51       1.13       ----

> <Gold.Chemscore.Fitness>
11.6906

> <Gold.Chemscore.DG>
-13.3285

> <Gold.Chemscore.ZeroCoef>
-5.4800

> <Gold.Chemscore.Hbond>
1.4757

> <Gold.Chemscore.Metal>
0.0000

> <Gold.Chemscore.Lipo>
88.6749

> <Gold.Chemscore.Internal_Hbond>
0.0000

> <Gold.Chemscore.DEClash>
0.5091

> <Gold.Chemscore.DEInternal>
1.1288

> <Gold.Chemscore.Rot>
2.9122

> <Gold.Chemscore.Internal.Correction>
   9.000000E+99

> <Gold.Chemscore.Hbonds>
donor molecule, donor type, donor heavy atom, donor atom, acceptor molecule, acceptor atom, score
      L1  H    15    36       P1  7949  0.15
      P1  H 10752 10764       L1    16  0.56

> <Gold.Chemscore.Hbond.Weighted>
-4.9288

> <Gold.Chemscore.Metal.Weighted>
-0.0000

> <Gold.Chemscore.Lipo.Weighted>
-10.3750

> <Gold.Chemscore.Internal_Hbond.Weighted>
0.0000

> <Gold.Chemscore.DEClash.Weighted>
0.5091

> <Gold.Chemscore.DEInternal.Weighted>
1.1288

> <Gold.Chemscore.Rot.Weighted>
7.4553

> <Gold.Chemscore.Internal.Correction.Weighted>
   9.000000E+99

> <Gold.Protein.RotatedTorsions>
[ 6907 6896 6895 6894 ] final   99.83 input  -60.11 | X-H torsion
[ 7974 7965 7964 7962 ] final -110.09 input  175.53 | X-H torsion
[ 8008 7997 7996 7995 ] final  137.61 input   59.86 | X-H torsion
[ 10167 10162 10161 10158 ] final -174.60 input  -65.29 | X-H torsion
[ 10718 10713 10712 10709 ] final   -6.35 input   66.30 | X-H torsion
[ 10763 10752 10751 10750 ] final  -57.25 input  -60.55 | X-H torsion
[ 11005 11000 10999 10996 ] final  118.87 input  -57.11 | X-H torsion

> <Gold.Protein.ActiveResidues>
 VAL166  LYS551  ARG553  GLY616  TRP617  ASP618  TYR619  PRO620  LYS621  CYS622 
 ASP623  PHE694  ASN695  SER759  ASP760  ASP761  ALA762  ILE779  LEU786  VAL792 
 PHE793  MET794  SER795  GLU796  ALA797  LYS798  CYS799  TRP800  GLU811  SER814 

> <Gold.Protein.RotatedAtoms>
  152.5384  134.0368  159.8049 H   0  0  0  0  0  0  0  0  0  0  0  0  # atno 6907 bound_to 6896
  151.0530  133.5600  159.2648 H   0  0  0  0  0  0  0  0  0  0  0  0  # atno 6908 bound_to 6896
  151.2527  135.0635  159.9122 H   0  0  0  0  0  0  0  0  0  0  0  0  # atno 6909 bound_to 6896
  145.1726  140.8933  143.3526 H   0  0  0  0  0  0  0  0  0  0  0  0  # atno 7974 bound_to 7965
  156.3001  140.2415  156.3938 H   0  0  0  0  0  0  0  0  0  0  0  0  # atno 8008 bound_to 7997
  154.8590  140.0421  157.1672 H   0  0  0  0  0  0  0  0  0  0  0  0  # atno 8009 bound_to 7997
  154.8917  140.2964  155.5371 H   0  0  0  0  0  0  0  0  0  0  0  0  # atno 8010 bound_to 7997
  139.5625  144.1834  152.1261 H   0  0  0  0  0  0  0  0  0  0  0  0  # atno 10167 bound_to 10162
  156.7332  130.5186  149.5840 H   0  0  0  0  0  0  0  0  0  0  0  0  # atno 10718 bound_to 10713
  154.2195  135.6380  153.5140 H   0  0  0  0  0  0  0  0  0  0  0  0  # atno 10763 bound_to 10752
  152.9972  135.5493  154.6129 H   0  0  0  0  0  0  0  0  0  0  0  0  # atno 10764 bound_to 10752
  154.5586  135.2907  155.0915 H   0  0  0  0  0  0  0  0  0  0  0  0  # atno 10765 bound_to 10752
  139.9125  134.9624  156.7569 H   0  0  0  0  0  0  0  0  0  0  0  0  # atno 11005 bound_to 11000
  145.0218  139.3418  143.6069 LP  0  0  0  0  0  0  0  0  0  0  0  0  # atno 17320 bound_to 7965
  146.3466  139.9521  142.8727 LP  0  0  0  0  0  0  0  0  0  0  0  0  # atno 17321 bound_to 7965
  140.1351  144.5253  150.6778 LP  0  0  0  0  0  0  0  0  0  0  0  0  # atno 17342 bound_to 10162
  140.6906  143.2374  151.5141 LP  0  0  0  0  0  0  0  0  0  0  0  0  # atno 17343 bound_to 10162
  156.1514  130.6313  151.0601 LP  0  0  0  0  0  0  0  0  0  0  0  0  # atno 17370 bound_to 10713
  157.6850  131.0827  150.7268 LP  0  0  0  0  0  0  0  0  0  0  0  0  # atno 17371 bound_to 10713
  140.6728  133.9544  155.7866 LP  0  0  0  0  0  0  0  0  0  0  0  0  # atno 17394 bound_to 11000
  141.0565  134.0408  157.3715 LP  0  0  0  0  0  0  0  0  0  0  0  0  # atno 17395 bound_to 11000

$$$$
