AV-unprocessed.smi:2641|AV-procd|sdf|10272|dock5
  -GOLD-   2272014283D 1   1.00000     0.00000
 Structure written by MMmdl.
 39 40  0  0  0  0  0  0  0  0  2 V2000
  151.5322  145.7771  160.1596 C   0  0  0  0  0  0  0  0  0  0  0  0
  152.0529  144.3550  160.1609 C   0  0  0  0  0  0  0  0  0  0  0  0
  152.2395  143.6517  158.9521 C   0  0  0  0  0  0  0  0  0  0  0  0
  152.7300  142.3331  159.0130 C   0  0  0  0  0  0  0  0  0  0  0  0
  153.0149  141.7704  160.2744 C   0  0  0  0  0  0  0  0  0  0  0  0
  153.5535  140.3557  160.3934 C   0  0  0  0  0  0  0  0  0  0  0  0
  153.4687  139.6311  159.0488 C   0  0  0  0  0  0  0  0  0  0  0  0
  154.5075  139.3096  158.4734 O   0  0  0  0  0  0  0  0  0  0  0  0
  152.2233  139.3937  158.5953 N   0  0  0  0  0  0  0  0  0  0  0  0
  151.7228  138.7233  157.3833 C   0  0  0  0  0  0  0  0  0  0  0  0
  152.2174  137.2581  157.5025 C   0  0  0  0  0  0  0  0  0  0  0  0
  151.9123  136.6192  158.5347 O   0  0  0  0  0  0  0  0  0  0  0  0
  152.9360  136.8052  156.5833 O   0  5  0  0  0  0  0  0  0  0  0  0
  150.1694  138.7989  157.4354 C   0  0  0  0  0  0  0  0  0  0  0  0
  149.4815  138.1805  156.2018 C   0  0  0  0  0  0  0  0  0  0  0  0
  149.9836  138.8248  154.9021 C   0  0  0  0  0  0  0  0  0  0  0  0
  151.5133  138.7447  154.7990 C   0  0  0  0  0  0  0  0  0  0  0  0
  152.1875  139.3678  156.0372 C   0  0  0  0  0  0  0  0  0  0  0  0
  152.7891  142.5582  161.4232 C   0  0  0  0  0  0  0  0  0  0  0  0
  152.3194  143.8236  161.3746 N   0  0  0  0  0  0  0  0  0  0  0  0
  151.4291  146.1597  159.1438 H   0  0  0  0  0  0  0  0  0  0  0  0
  152.2146  146.4333  160.7009 H   0  0  0  0  0  0  0  0  0  0  0  0
  150.5553  145.8228  160.6415 H   0  0  0  0  0  0  0  0  0  0  0  0
  152.0137  144.1086  157.9995 H   0  0  0  0  0  0  0  0  0  0  0  0
  152.8846  141.7654  158.1070 H   0  0  0  0  0  0  0  0  0  0  0  0
  154.5934  140.3800  160.7214 H   0  0  0  0  0  0  0  0  0  0  0  0
  152.9956  139.8155  161.1601 H   0  0  0  0  0  0  0  0  0  0  0  0
  151.4844  139.7133  159.2045 H   0  0  0  0  0  0  0  0  0  0  0  0
  149.7833  138.3269  158.3402 H   0  0  0  0  0  0  0  0  0  0  0  0
  149.8685  139.8451  157.5091 H   0  0  0  0  0  0  0  0  0  0  0  0
  149.6592  137.1051  156.1709 H   0  0  0  0  0  0  0  0  0  0  0  0
  148.4014  138.3068  156.2813 H   0  0  0  0  0  0  0  0  0  0  0  0
  149.5256  138.3362  154.0419 H   0  0  0  0  0  0  0  0  0  0  0  0
  149.6707  139.8693  154.8687 H   0  0  0  0  0  0  0  0  0  0  0  0
  151.8208  137.7049  154.6827 H   0  0  0  0  0  0  0  0  0  0  0  0
  151.8480  139.2619  153.8995 H   0  0  0  0  0  0  0  0  0  0  0  0
  151.9396  140.4298  156.0393 H   0  0  0  0  0  0  0  0  0  0  0  0
  153.2710  139.3122  155.9232 H   0  0  0  0  0  0  0  0  0  0  0  0
  152.9922  142.1636  162.4081 H   0  0  0  0  0  0  0  0  0  0  0  0
  1  2  1  0  0  0  0
  1 21  1  0  0  0  0
  1 22  1  0  0  0  0
  1 23  1  0  0  0  0
  2 20  1  0  0  0  0
  2  3  2  0  0  0  0
  3  4  1  0  0  0  0
  3 24  1  0  0  0  0
  4  5  2  0  0  0  0
  4 25  1  0  0  0  0
  5  6  1  0  0  0  0
  5 19  1  0  0  0  0
  6  7  1  0  0  0  0
  6 26  1  0  0  0  0
  6 27  1  0  0  0  0
  7  8  2  0  0  0  0
  7  9  1  0  0  0  0
  9 10  1  0  0  0  0
  9 28  1  0  0  0  0
 10 18  1  0  0  0  0
 10 11  1  0  0  0  0
 10 14  1  0  0  0  0
 11 12  2  0  0  0  0
 11 13  1  0  0  0  0
 14 15  1  0  0  0  0
 14 29  1  0  0  0  0
 14 30  1  0  0  0  0
 15 16  1  0  0  0  0
 15 31  1  0  0  0  0
 15 32  1  0  0  0  0
 16 17  1  0  0  0  0
 16 33  1  0  0  0  0
 16 34  1  0  0  0  0
 17 18  1  0  0  0  0
 17 35  1  0  0  0  0
 17 36  1  0  0  0  0
 18 37  1  0  0  0  0
 18 38  1  0  0  0  0
 19 20  2  0  0  0  0
 19 39  1  0  0  0  0
M  CHG  1  13  -1
M  END
> <s_m_source_file>
AV-unprocessed.smi

> <i_m_source_file_index>
2641

> <i_lp_mmshare_version>
43012

> <i_f3d_flags>
0

> <s_epik_input>
W0NIM11jMVtjSF1bY0hdYyhbY0hdbjEpW0NIMl1DKD1PKVtOSF1DMihDKD1PKVtPSF0pW0NIMl1bQ0gyXVtDSDJdW0NIMl1bQ0gyXTI=

> <s_epik_cmdline>
J2VwaWtfcHl0aG9uJywgJy1waCcsICc3LjAnLCAnLXRuJywgJzgnLCAnLW1hJywgJzIwMCcsICctbWV0YWxfYmluZGluZycsICctaW1hZScsICc8aW5maWxlLm1hZT4nLCAnLW9tYWUnLCAnPG91dGZpbGUubWFlPic=

> <r_epik_Ionization_Penalty>
0.0190831

> <r_epik_Ionization_Penalty_Charging>
0.000391215

> <r_epik_Ionization_Penalty_Neutral>
0.0186919

> <r_epik_State_Penalty>
0.0148876

> <r_epik_Charging_Adjusted_Penalty>
0.0152789

> <i_epik_Tot_Q>
-1

> <i_epik_Tot_abs_Q>
1

> <r_epik_Metal_State_Penalty>
0.0144298

> <b_epik_Metal_Only>
0

> <s_lp_Force_Field>
OPLS_2005

> <r_lp_Energy>
4.43457

> <b_lp_Chiralities_Consistent>
1

> <s_lp_Variant>
AV-unprocessed.smi:2641-1

> <Gold.Version>
5.8.1

> <Gold.Id.Protein>
6NUR|6NUR_protein|mol2

> <Gold.PLP.Fitness>
53.8622

> <Gold.PLP.PLP>
-40.7173

> <Gold.PLP.part.hbond>
-3.0000

> <Gold.PLP.part.metal>
0.0000

> <Gold.PLP.part.buried>
-4.9090

> <Gold.PLP.part.nonpolar>
-34.1715

> <Gold.PLP.part.repulsive>
0.2223

> <Gold.PLP.ligand.clash>
0.0000

> <Gold.PLP.ligand.torsion>
0.1595

> <Gold.PLP.Chemscore.Hbond>
4.4720

> <Gold.PLP.Chemscore.CHOScore>
0.0000

> <Gold.PLP.Chemscore.Metal>
0.0000

> <Gold.Chemscore.Hbonds>
donor molecule, donor type, donor heavy atom, donor atom, acceptor molecule, acceptor atom, score
      P1  H  6896  6907       L1    12  1.22
      P1  H  7997  8008       L1     8  0.99
      P1  H 10752 10764       L1    13  1.89

> <Gold.PLP.Chemscore.Internal.Correction>
0.0480

> <Gold.Rescore>
     Score         DG    S(hbond)    S(metal)    S(lipo)     H(rot)  DE(clash)    DE(int)     intcor
     18.71     -20.99       2.56        0.00     100.07       1.85       0.00       2.29       ----

> <Gold.Chemscore.Fitness>
18.7052

> <Gold.Chemscore.DG>
-20.9943

> <Gold.Chemscore.ZeroCoef>
-5.4800

> <Gold.Chemscore.Hbond>
2.5555

> <Gold.Chemscore.Metal>
0.0000

> <Gold.Chemscore.Lipo>
100.0703

> <Gold.Chemscore.Internal_Hbond>
0.0000

> <Gold.Chemscore.DEClash>
0.0021

> <Gold.Chemscore.DEInternal>
2.2870

> <Gold.Chemscore.Rot>
1.8474

> <Gold.Chemscore.Internal.Correction>
   9.000000E+99

> <Gold.Chemscore.Hbonds>
donor molecule, donor type, donor heavy atom, donor atom, acceptor molecule, acceptor atom, score
      P1  H  6896  6907       L1    12  0.57
      P1  H  7997  8008       L1     8  0.78
      P1  H 10752 10764       L1    13  0.89

> <Gold.Chemscore.Hbond.Weighted>
-8.5355

> <Gold.Chemscore.Metal.Weighted>
-0.0000

> <Gold.Chemscore.Lipo.Weighted>
-11.7082

> <Gold.Chemscore.Internal_Hbond.Weighted>
0.0000

> <Gold.Chemscore.DEClash.Weighted>
0.0021

> <Gold.Chemscore.DEInternal.Weighted>
2.2870

> <Gold.Chemscore.Rot.Weighted>
4.7294

> <Gold.Chemscore.Internal.Correction.Weighted>
   9.000000E+99

> <Gold.Protein.RotatedTorsions>
[ 6907 6896 6895 6894 ] final   -6.78 input  -60.11 | X-H torsion
[ 7974 7965 7964 7962 ] final  138.68 input  175.53 | X-H torsion
[ 8008 7997 7996 7995 ] final  -93.47 input   59.86 | X-H torsion
[ 10167 10162 10161 10158 ] final  118.80 input  -65.29 | X-H torsion
[ 10718 10713 10712 10709 ] final   65.22 input   66.30 | X-H torsion
[ 10763 10752 10751 10750 ] final  -10.85 input  -60.55 | X-H torsion
[ 11005 11000 10999 10996 ] final  -82.52 input  -57.11 | X-H torsion

> <Gold.Protein.ActiveResidues>
 VAL166  LYS551  ARG553  GLY616  TRP617  ASP618  TYR619  PRO620  LYS621  CYS622 
 ASP623  PHE694  ASN695  SER759  ASP760  ASP761  ALA762  ILE779  LEU786  VAL792 
 PHE793  MET794  SER795  GLU796  ALA797  LYS798  CYS799  TRP800  GLU811  SER814 

> <Gold.Protein.RotatedAtoms>
  151.4602  135.1037  159.9722 H   0  0  0  0  0  0  0  0  0  0  0  0  # atno 6907 bound_to 6896
  152.4856  133.8360  159.7138 H   0  0  0  0  0  0  0  0  0  0  0  0  # atno 6908 bound_to 6896
  150.8962  133.7117  159.2918 H   0  0  0  0  0  0  0  0  0  0  0  0  # atno 6909 bound_to 6896
  144.9350  139.5001  143.5599 H   0  0  0  0  0  0  0  0  0  0  0  0  # atno 7974 bound_to 7965
  154.7361  140.0498  157.0769 H   0  0  0  0  0  0  0  0  0  0  0  0  # atno 8008 bound_to 7997
  155.0239  140.3150  155.4764 H   0  0  0  0  0  0  0  0  0  0  0  0  # atno 8009 bound_to 7997
  156.2853  140.2162  156.5358 H   0  0  0  0  0  0  0  0  0  0  0  0  # atno 8010 bound_to 7997
  139.6087  144.7076  151.2893 H   0  0  0  0  0  0  0  0  0  0  0  0  # atno 10167 bound_to 10162
  157.6091  130.9202  149.9948 H   0  0  0  0  0  0  0  0  0  0  0  0  # atno 10718 bound_to 10713
  153.4752  135.7017  153.5970 H   0  0  0  0  0  0  0  0  0  0  0  0  # atno 10763 bound_to 10752
  153.4207  135.3826  155.2109 H   0  0  0  0  0  0  0  0  0  0  0  0  # atno 10764 bound_to 10752
  154.8724  135.3927  154.4194 H   0  0  0  0  0  0  0  0  0  0  0  0  # atno 10765 bound_to 10752
  141.1662  133.7249  156.8584 H   0  0  0  0  0  0  0  0  0  0  0  0  # atno 11005 bound_to 11000
  146.3262  139.8327  142.8905 LP  0  0  0  0  0  0  0  0  0  0  0  0  # atno 17320 bound_to 7965
  145.3082  141.0213  143.3570 LP  0  0  0  0  0  0  0  0  0  0  0  0  # atno 17321 bound_to 7965
  140.7304  143.6881  150.7944 LP  0  0  0  0  0  0  0  0  0  0  0  0  # atno 17342 bound_to 10162
  140.0472  143.5286  152.2690 LP  0  0  0  0  0  0  0  0  0  0  0  0  # atno 17343 bound_to 10162
  156.1188  130.3646  149.9923 LP  0  0  0  0  0  0  0  0  0  0  0  0  # atno 17370 bound_to 10713
  156.8007  130.9289  151.3646 LP  0  0  0  0  0  0  0  0  0  0  0  0  # atno 17371 bound_to 10713
  140.1866  134.8995  157.3011 LP  0  0  0  0  0  0  0  0  0  0  0  0  # atno 17394 bound_to 11000
  140.2336  134.3879  155.7511 LP  0  0  0  0  0  0  0  0  0  0  0  0  # atno 17395 bound_to 11000

$$$$
