AV-unprocessed.smi:2830|AV-procd|sdf|10906|dock3
  -GOLD-   2272015353D 1   1.00000     0.00000
 Structure written by MMmdl.
 28 28  0  0  0  0  0  0  0  0  1 V2000
  146.2414  142.9298  154.1090 C   0  0  0  0  0  0  0  0  0  0  0  0
  146.8316  141.8802  154.8555 O   0  0  0  0  0  0  0  0  0  0  0  0
  148.1193  141.5253  154.3742 C   0  0  0  0  0  0  0  0  0  0  0  0
  149.0135  141.0756  155.5450 C   0  0  2  0  0  0  0  0  0  0  0  0
  149.4942  142.2505  156.2702 N   0  0  0  0  0  0  0  0  0  0  0  0
  150.3988  142.1467  157.3385 C   0  0  0  0  0  0  0  0  0  0  0  0
  150.7240  143.3162  158.0577 C   0  0  0  0  0  0  0  0  0  0  0  0
  151.6262  143.2242  159.1354 C   0  0  0  0  0  0  0  0  0  0  0  0
  152.1706  141.9658  159.4584 C   0  0  0  0  0  0  0  0  0  0  0  0
  153.1037  141.8187  160.5619 C   0  0  0  0  0  0  0  0  0  0  0  0
  153.8469  141.7013  161.4409 N   0  0  0  0  0  0  0  0  0  0  0  0
  151.7856  140.8528  158.6840 C   0  0  0  0  0  0  0  0  0  0  0  0
  150.9207  140.9356  157.6503 N   0  0  0  0  0  0  0  0  0  0  0  0
  150.1536  140.1816  155.0286 C   0  0  0  0  0  0  0  0  0  0  0  0
  149.8062  139.0525  154.4060 N   0  0  0  0  0  0  0  0  0  0  0  0
  151.3297  140.5101  155.1774 O   0  0  0  0  0  0  0  0  0  0  0  0
  145.2610  143.1665  154.5221 H   0  0  0  0  0  0  0  0  0  0  0  0
  146.1065  142.6436  153.0652 H   0  0  0  0  0  0  0  0  0  0  0  0
  146.8502  143.8339  154.1495 H   0  0  0  0  0  0  0  0  0  0  0  0
  148.0435  140.7389  153.6204 H   0  0  0  0  0  0  0  0  0  0  0  0
  148.5620  142.3951  153.8857 H   0  0  0  0  0  0  0  0  0  0  0  0
  148.3863  140.4940  156.2230 H   0  0  0  0  0  0  0  0  0  0  0  0
  149.3787  143.1500  155.8265 H   0  0  0  0  0  0  0  0  0  0  0  0
  150.2927  144.2700  157.7901 H   0  0  0  0  0  0  0  0  0  0  0  0
  151.8907  144.1067  159.6999 H   0  0  0  0  0  0  0  0  0  0  0  0
  152.1772  139.8680  158.8952 H   0  0  0  0  0  0  0  0  0  0  0  0
  150.5203  138.4326  154.0523 H   0  0  0  0  0  0  0  0  0  0  0  0
  148.8296  138.8219  154.2939 H   0  0  0  0  0  0  0  0  0  0  0  0
  1  2  1  0  0  0  0
  1 17  1  0  0  0  0
  1 18  1  0  0  0  0
  1 19  1  0  0  0  0
  2  3  1  0  0  0  0
  3  4  1  0  0  0  0
  3 20  1  0  0  0  0
  3 21  1  0  0  0  0
  4  5  1  0  0  0  0
  4 14  1  0  0  0  0
  4 22  1  0  0  0  0
  5  6  1  0  0  0  0
  5 23  1  0  0  0  0
  6 13  1  0  0  0  0
  6  7  2  0  0  0  0
  7  8  1  0  0  0  0
  7 24  1  0  0  0  0
  8  9  2  0  0  0  0
  8 25  1  0  0  0  0
  9 10  1  0  0  0  0
  9 12  1  0  0  0  0
 10 11  3  0  0  0  0
 12 13  2  0  0  0  0
 12 26  1  0  0  0  0
 14 15  1  0  0  0  0
 14 16  2  0  0  0  0
 15 27  1  0  0  0  0
 15 28  1  0  0  0  0
M  END
> <s_m_source_file>
AV-unprocessed.smi

> <i_m_source_file_index>
2830

> <i_lp_mmshare_version>
43012

> <i_f3d_flags>
0

> <s_epik_input>
W0NIM11PW0NIMl1bQ0BASF0oQyg9TylbTkgyXSlbTkhdYzFbY0hdW2NIXWMoQyNOKVtjSF1uMQ==

> <s_epik_cmdline>
J2VwaWtfcHl0aG9uJywgJy1waCcsICc3LjAnLCAnLXRuJywgJzgnLCAnLW1hJywgJzIwMCcsICctbWV0YWxfYmluZGluZycsICctaW1hZScsICc8aW5maWxlLm1hZT4nLCAnLW9tYWUnLCAnPG91dGZpbGUubWFlPic=

> <r_lp_tautomer_probability>
1

> <r_epik_Ionization_Penalty>
4.37908e-06

> <r_epik_Ionization_Penalty_Charging>
0

> <r_epik_Ionization_Penalty_Neutral>
4.37908e-06

> <r_epik_State_Penalty>
-0

> <r_epik_Charging_Adjusted_Penalty>
0

> <i_epik_Tot_Q>
0

> <i_epik_Tot_abs_Q>
0

> <r_epik_Metal_State_Penalty>
-0

> <b_epik_Metal_Only>
0

> <s_lp_Force_Field>
OPLS_2005

> <r_lp_Energy>
0.179783

> <b_lp_Chiralities_Consistent>
1

> <s_lp_Variant>
AV-unprocessed.smi:2830-1

> <Gold.Version>
5.8.1

> <Gold.Id.Protein>
6NUR|6NUR_protein|mol2

> <Gold.PLP.Fitness>
36.1002

> <Gold.PLP.PLP>
-30.9365

> <Gold.PLP.part.hbond>
-2.2391

> <Gold.PLP.part.metal>
0.0000

> <Gold.PLP.part.buried>
-6.1438

> <Gold.PLP.part.nonpolar>
-24.4507

> <Gold.PLP.part.repulsive>
0.3236

> <Gold.PLP.ligand.clash>
0.0000

> <Gold.PLP.ligand.torsion>
0.4619

> <Gold.PLP.Chemscore.Hbond>
1.9920

> <Gold.PLP.Chemscore.CHOScore>
0.0000

> <Gold.PLP.Chemscore.Metal>
0.0000

> <Gold.Chemscore.Hbonds>
donor molecule, donor type, donor heavy atom, donor atom, acceptor molecule, acceptor atom, score
      L1  H     5    23       P1  8028  1.00
      P1  H  7989  7998       L1    16  0.78

> <Gold.PLP.Chemscore.Internal.Correction>
0.1115

> <Gold.Rescore>
     Score         DG    S(hbond)    S(metal)    S(lipo)     H(rot)  DE(clash)    DE(int)     intcor
     11.20     -11.78       1.93        0.00      49.34       2.32       0.00       0.58       ----

> <Gold.Chemscore.Fitness>
11.1955

> <Gold.Chemscore.DG>
-11.7755

> <Gold.Chemscore.ZeroCoef>
-5.4800

> <Gold.Chemscore.Hbond>
1.9344

> <Gold.Chemscore.Metal>
0.0000

> <Gold.Chemscore.Lipo>
49.3418

> <Gold.Chemscore.Internal_Hbond>
0.0000

> <Gold.Chemscore.DEClash>
0.0000

> <Gold.Chemscore.DEInternal>
0.5801

> <Gold.Chemscore.Rot>
2.3197

> <Gold.Chemscore.Internal.Correction>
   9.000000E+99

> <Gold.Chemscore.Hbonds>
donor molecule, donor type, donor heavy atom, donor atom, acceptor molecule, acceptor atom, score
      L1  H     5    23       P1  8028  0.99
      P1  H  7989  7998       L1    16  0.13

> <Gold.Chemscore.Hbond.Weighted>
-6.4609

> <Gold.Chemscore.Metal.Weighted>
-0.0000

> <Gold.Chemscore.Lipo.Weighted>
-5.7730

> <Gold.Chemscore.Internal_Hbond.Weighted>
0.0000

> <Gold.Chemscore.DEClash.Weighted>
0.0000

> <Gold.Chemscore.DEInternal.Weighted>
0.5801

> <Gold.Chemscore.Rot.Weighted>
5.9384

> <Gold.Chemscore.Internal.Correction.Weighted>
   9.000000E+99

> <Gold.Protein.RotatedTorsions>
[ 6907 6896 6895 6894 ] final  -48.45 input  -60.11 | X-H torsion
[ 7974 7965 7964 7962 ] final  107.70 input  175.53 | X-H torsion
[ 8008 7997 7996 7995 ] final   64.56 input   59.86 | X-H torsion
[ 10167 10162 10161 10158 ] final   -8.97 input  -65.29 | X-H torsion
[ 10718 10713 10712 10709 ] final  122.49 input   66.30 | X-H torsion
[ 10763 10752 10751 10750 ] final   53.16 input  -60.55 | X-H torsion
[ 11005 11000 10999 10996 ] final  -76.27 input  -57.11 | X-H torsion

> <Gold.Protein.ActiveResidues>
 VAL166  LYS551  ARG553  GLY616  TRP617  ASP618  TYR619  PRO620  LYS621  CYS622 
 ASP623  PHE694  ASN695  SER759  ASP760  ASP761  ALA762  ILE779  LEU786  VAL792 
 PHE793  MET794  SER795  GLU796  ALA797  LYS798  CYS799  TRP800  GLU811  SER814 

> <Gold.Protein.RotatedAtoms>
  150.8904  134.8307  159.7289 H   0  0  0  0  0  0  0  0  0  0  0  0  # atno 6907 bound_to 6896
  152.4833  134.4657  159.9629 H   0  0  0  0  0  0  0  0  0  0  0  0  # atno 6908 bound_to 6896
  151.4720  133.3528  159.2860 H   0  0  0  0  0  0  0  0  0  0  0  0  # atno 6909 bound_to 6896
  145.2902  139.2603  143.3869 H   0  0  0  0  0  0  0  0  0  0  0  0  # atno 7974 bound_to 7965
  155.6480  140.3497  155.4738 H   0  0  0  0  0  0  0  0  0  0  0  0  # atno 8008 bound_to 7997
  155.9871  140.1186  157.0696 H   0  0  0  0  0  0  0  0  0  0  0  0  # atno 8009 bound_to 7997
  154.4208  140.1126  156.5501 H   0  0  0  0  0  0  0  0  0  0  0  0  # atno 8010 bound_to 7997
  140.7074  143.5910  150.8894 H   0  0  0  0  0  0  0  0  0  0  0  0  # atno 10167 bound_to 10162
  157.5738  131.1081  150.8317 H   0  0  0  0  0  0  0  0  0  0  0  0  # atno 10718 bound_to 10713
  152.9793  135.5788  154.4696 H   0  0  0  0  0  0  0  0  0  0  0  0  # atno 10763 bound_to 10752
  154.4261  135.2772  155.1945 H   0  0  0  0  0  0  0  0  0  0  0  0  # atno 10764 bound_to 10752
  154.3674  135.6175  153.5776 H   0  0  0  0  0  0  0  0  0  0  0  0  # atno 10765 bound_to 10752
  141.1652  133.6977  156.7643 H   0  0  0  0  0  0  0  0  0  0  0  0  # atno 11005 bound_to 11000
  146.3187  140.3391  142.8646 LP  0  0  0  0  0  0  0  0  0  0  0  0  # atno 17320 bound_to 7965
  144.9179  140.7834  143.5766 LP  0  0  0  0  0  0  0  0  0  0  0  0  # atno 17321 bound_to 7965
  139.9635  143.6137  152.2995 LP  0  0  0  0  0  0  0  0  0  0  0  0  # atno 17342 bound_to 10162
  139.6698  144.7661  151.1805 LP  0  0  0  0  0  0  0  0  0  0  0  0  # atno 17343 bound_to 10162
  156.8781  130.5169  149.5292 LP  0  0  0  0  0  0  0  0  0  0  0  0  # atno 17370 bound_to 10713
  156.0783  130.5800  150.9516 LP  0  0  0  0  0  0  0  0  0  0  0  0  # atno 17371 bound_to 10713
  140.2511  134.8540  157.3668 LP  0  0  0  0  0  0  0  0  0  0  0  0  # atno 17394 bound_to 11000
  140.1702  134.4618  155.7836 LP  0  0  0  0  0  0  0  0  0  0  0  0  # atno 17395 bound_to 11000

$$$$
