AV-unprocessed.smi:1570|AV-procd|sdf|6320|dock2
  -GOLD-   22720 6523D 1   1.00000     0.00000
 Structure written by MMmdl.
 52 54  0  0  0  0  0  0  0  0  2 V2000
  153.2949  138.2030  160.6006 C   0  0  0  0  0  0  0  0  0  0  0  0
  153.9598  139.5701  160.8080 C   0  0  0  0  0  0  0  0  0  0  0  0
  153.2368  140.6213  160.0970 N   0  0  0  0  0  0  0  0  0  0  0  0
  152.8284  140.5863  158.8068 C   0  0  0  0  0  0  0  0  0  0  0  0
  152.9897  139.6524  158.0216 O   0  0  0  0  0  0  0  0  0  0  0  0
  152.2465  141.7743  158.5166 N   0  0  0  0  0  0  0  0  0  0  0  0
  151.7042  142.1900  157.2235 C   0  0  0  0  0  0  0  0  0  0  0  0
  150.2633  141.6835  157.0084 C   0  0  2  0  0  0  0  0  0  0  0  0
  149.8496  141.0398  158.1966 O   0  0  0  0  0  0  0  0  0  0  0  0
  150.1364  140.6851  155.8372 C   0  0  0  0  0  0  0  0  0  0  0  0
  148.7943  140.7148  155.2044 N   0  3  1  0  0  0  0  0  0  0  0  0
  148.4729  142.0109  154.5574 C   0  0  0  0  0  0  0  0  0  0  0  0
  147.0483  141.9985  153.9697 C   0  0  2  0  0  0  0  0  0  0  0  0
  145.9434  142.0841  155.0376 C   0  0  0  0  0  0  0  0  0  0  0  0
  146.8810  140.8744  153.1053 O   0  0  0  0  0  0  0  0  0  0  0  0
  147.1542  139.6110  153.7061 C   0  0  1  0  0  0  0  0  0  0  0  0
  146.9320  138.5261  152.6464 C   0  0  0  0  0  0  0  0  0  0  0  0
  148.5943  139.6019  154.2482 C   0  0  0  0  0  0  0  0  0  0  0  0
  152.2969  142.5974  159.6506 C   0  0  0  0  0  0  0  0  0  0  0  0
  151.8481  143.9134  159.8575 C   0  0  0  0  0  0  0  0  0  0  0  0
  152.0653  144.4767  161.1367 C   0  0  0  0  0  0  0  0  0  0  0  0
  152.7113  143.7331  162.1583 C   0  0  0  0  0  0  0  0  0  0  0  0
  153.1530  142.4098  161.9230 C   0  0  0  0  0  0  0  0  0  0  0  0
  152.9222  141.8735  160.6440 C   0  0  0  0  0  0  0  0  0  0  0  0
  153.8385  137.4224  161.1331 H   0  0  0  0  0  0  0  0  0  0  0  0
  153.2726  137.9312  159.5448 H   0  0  0  0  0  0  0  0  0  0  0  0
  152.2686  138.2033  160.9693 H   0  0  0  0  0  0  0  0  0  0  0  0
  154.0010  139.8040  161.8731 H   0  0  0  0  0  0  0  0  0  0  0  0
  154.9944  139.5392  160.4657 H   0  0  0  0  0  0  0  0  0  0  0  0
  151.7436  143.2765  157.1268 H   0  0  0  0  0  0  0  0  0  0  0  0
  152.3581  141.7986  156.4429 H   0  0  0  0  0  0  0  0  0  0  0  0
  149.6108  142.5424  156.8561 H   0  0  0  0  0  0  0  0  0  0  0  0
  150.1106  140.1320  158.1551 H   0  0  0  0  0  0  0  0  0  0  0  0
  150.8833  140.8826  155.0682 H   0  0  0  0  0  0  0  0  0  0  0  0
  150.3475  139.6827  156.2134 H   0  0  0  0  0  0  0  0  0  0  0  0
  148.5702  142.8351  155.2634 H   0  0  0  0  0  0  0  0  0  0  0  0
  149.1932  142.1983  153.7594 H   0  0  0  0  0  0  0  0  0  0  0  0
  146.9435  142.8814  153.3384 H   0  0  0  0  0  0  0  0  0  0  0  0
  146.0182  143.0178  155.5956 H   0  0  0  0  0  0  0  0  0  0  0  0
  146.0006  141.2711  155.7609 H   0  0  0  0  0  0  0  0  0  0  0  0
  144.9554  142.0546  154.5778 H   0  0  0  0  0  0  0  0  0  0  0  0
  146.4544  139.4322  154.5225 H   0  0  0  0  0  0  0  0  0  0  0  0
  147.1206  137.5330  153.0555 H   0  0  0  0  0  0  0  0  0  0  0  0
  147.5935  138.6670  151.7909 H   0  0  0  0  0  0  0  0  0  0  0  0
  145.9053  138.5441  152.2798 H   0  0  0  0  0  0  0  0  0  0  0  0
  149.3115  139.6910  153.4304 H   0  0  0  0  0  0  0  0  0  0  0  0
  148.7898  138.6505  154.7441 H   0  0  0  0  0  0  0  0  0  0  0  0
  151.3595  144.4750  159.0753 H   0  0  0  0  0  0  0  0  0  0  0  0
  151.7363  145.4856  161.3378 H   0  0  0  0  0  0  0  0  0  0  0  0
  152.8686  144.1833  163.1275 H   0  0  0  0  0  0  0  0  0  0  0  0
  153.6481  141.8408  162.6957 H   0  0  0  0  0  0  0  0  0  0  0  0
  148.1255  140.5743  155.9485 H   0  0  0  0  0  0  0  0  0  0  0  0
  1  2  1  0  0  0  0
  1 25  1  0  0  0  0
  1 26  1  0  0  0  0
  1 27  1  0  0  0  0
  2  3  1  0  0  0  0
  2 28  1  0  0  0  0
  2 29  1  0  0  0  0
  3 24  1  0  0  0  0
  3  4  1  0  0  0  0
  4  5  2  0  0  0  0
  4  6  1  0  0  0  0
  6  7  1  0  0  0  0
  6 19  1  0  0  0  0
  7  8  1  0  0  0  0
  7 30  1  0  0  0  0
  7 31  1  0  0  0  0
  8  9  1  0  0  0  0
  8 10  1  0  0  0  0
  8 32  1  0  0  0  0
  9 33  1  0  0  0  0
 10 11  1  0  0  0  0
 10 34  1  0  0  0  0
 10 35  1  0  0  0  0
 11 18  1  0  0  0  0
 11 12  1  0  0  0  0
 11 52  1  0  0  0  0
 12 13  1  0  0  0  0
 12 36  1  0  0  0  0
 12 37  1  0  0  0  0
 13 14  1  0  0  0  0
 13 15  1  0  0  0  0
 13 38  1  0  0  0  0
 14 39  1  0  0  0  0
 14 40  1  0  0  0  0
 14 41  1  0  0  0  0
 15 16  1  0  0  0  0
 16 17  1  0  0  0  0
 16 18  1  0  0  0  0
 16 42  1  0  0  0  0
 17 43  1  0  0  0  0
 17 44  1  0  0  0  0
 17 45  1  0  0  0  0
 18 46  1  0  0  0  0
 18 47  1  0  0  0  0
 19 24  2  0  0  0  0
 19 20  1  0  0  0  0
 20 21  2  0  0  0  0
 20 48  1  0  0  0  0
 21 22  1  0  0  0  0
 21 49  1  0  0  0  0
 22 23  2  0  0  0  0
 22 50  1  0  0  0  0
 23 24  1  0  0  0  0
 23 51  1  0  0  0  0
M  CHG  1  11   1
M  END
> <s_m_source_file>
AV-unprocessed.smi

> <i_m_source_file_index>
1570

> <i_lp_mmshare_version>
43012

> <i_f3d_flags>
0

> <s_epik_input>
W2NIXTFbY0hdW2NIXVtjSF1jKGMxMiluKFtDSDJdW0NIM10pYyg9TyluMltDSDJdW0NASF0oW09IXSlbQ0gyXU4zW0NIMl1bQ0BASF0oW0NIM10pT1tDQEBIXShbQ0gzXSlbQ0gyXTM=

> <s_epik_cmdline>
J2VwaWtfcHl0aG9uJywgJy1waCcsICc3LjAnLCAnLXRuJywgJzgnLCAnLW1hJywgJzIwMCcsICctbWV0YWxfYmluZGluZycsICctaW1hZScsICc8aW5maWxlLm1hZT4nLCAnLW9tYWUnLCAnPG91dGZpbGUubWFlPic=

> <r_epik_Ionization_Penalty>
0.706332

> <r_epik_Ionization_Penalty_Charging>
0.706318

> <r_epik_Ionization_Penalty_Neutral>
1.42224e-05

> <r_epik_State_Penalty>
0.729493

> <r_epik_Charging_Adjusted_Penalty>
1.43581

> <i_epik_Tot_Q>
1

> <i_epik_Tot_abs_Q>
1

> <r_epik_Metal_State_Penalty>
0.729493

> <b_epik_Metal_Only>
0

> <s_lp_Force_Field>
OPLS_2005

> <r_lp_Energy>
53.5828

> <b_lp_Chiralities_Consistent>
1

> <s_lp_Variant>
AV-unprocessed.smi:1570-9

> <Gold.Version>
5.8.1

> <Gold.Id.Protein>
6NUR|6NUR_protein|mol2

> <Gold.PLP.Fitness>
49.9809

> <Gold.PLP.PLP>
-49.9942

> <Gold.PLP.part.hbond>
-1.0000

> <Gold.PLP.part.metal>
0.0000

> <Gold.PLP.part.buried>
-3.4675

> <Gold.PLP.part.nonpolar>
-45.0930

> <Gold.PLP.part.repulsive>
0.2868

> <Gold.PLP.ligand.clash>
0.0000

> <Gold.PLP.ligand.torsion>
1.5854

> <Gold.PLP.Chemscore.Hbond>
1.0000

> <Gold.PLP.Chemscore.CHOScore>
0.0000

> <Gold.PLP.Chemscore.Metal>
0.0000

> <Gold.Chemscore.Hbonds>
donor molecule, donor type, donor heavy atom, donor atom, acceptor molecule, acceptor atom, score
      P1  H  7997  8008       L1     5  1.00

> <Gold.PLP.Chemscore.Internal.Correction>
0.1576

> <Gold.Rescore>
     Score         DG    S(hbond)    S(metal)    S(lipo)     H(rot)  DE(clash)    DE(int)     intcor
     15.81     -19.89       0.96        0.00     142.40       2.13       2.56       1.52       ----

> <Gold.Chemscore.Fitness>
15.8134

> <Gold.Chemscore.DG>
-19.8939

> <Gold.Chemscore.ZeroCoef>
-5.4800

> <Gold.Chemscore.Hbond>
0.9602

> <Gold.Chemscore.Metal>
0.0000

> <Gold.Chemscore.Lipo>
142.3964

> <Gold.Chemscore.Internal_Hbond>
0.0000

> <Gold.Chemscore.DEClash>
2.5610

> <Gold.Chemscore.DEInternal>
1.5196

> <Gold.Chemscore.Rot>
2.1303

> <Gold.Chemscore.Internal.Correction>
   9.000000E+99

> <Gold.Chemscore.Hbonds>
donor molecule, donor type, donor heavy atom, donor atom, acceptor molecule, acceptor atom, score
      P1  H  7997  8008       L1     5  0.65

> <Gold.Chemscore.Hbond.Weighted>
-3.2071

> <Gold.Chemscore.Metal.Weighted>
-0.0000

> <Gold.Chemscore.Lipo.Weighted>
-16.6604

> <Gold.Chemscore.Internal_Hbond.Weighted>
0.0000

> <Gold.Chemscore.DEClash.Weighted>
2.5610

> <Gold.Chemscore.DEInternal.Weighted>
1.5196

> <Gold.Chemscore.Rot.Weighted>
5.4535

> <Gold.Chemscore.Internal.Correction.Weighted>
   9.000000E+99

> <Gold.Protein.RotatedTorsions>
[ 6907 6896 6895 6894 ] final   38.07 input  -60.11 | X-H torsion
[ 7974 7965 7964 7962 ] final   97.42 input  175.53 | X-H torsion
[ 8008 7997 7996 7995 ] final  -75.51 input   59.86 | X-H torsion
[ 10167 10162 10161 10158 ] final   94.40 input  -65.29 | X-H torsion
[ 10718 10713 10712 10709 ] final   99.34 input   66.30 | X-H torsion
[ 10763 10752 10751 10750 ] final  152.67 input  -60.55 | X-H torsion
[ 11005 11000 10999 10996 ] final  -98.57 input  -57.11 | X-H torsion

> <Gold.Protein.ActiveResidues>
 VAL166  LYS551  ARG553  GLY616  TRP617  ASP618  TYR619  PRO620  LYS621  CYS622 
 ASP623  PHE694  ASN695  SER759  ASP760  ASP761  ALA762  ILE779  LEU786  VAL792 
 PHE793  MET794  SER795  GLU796  ALA797  LYS798  CYS799  TRP800  GLU811  SER814 

> <Gold.Protein.RotatedAtoms>
  152.1515  134.8984  160.0547 H   0  0  0  0  0  0  0  0  0  0  0  0  # atno 6907 bound_to 6896
  152.0014  133.3822  159.4191 H   0  0  0  0  0  0  0  0  0  0  0  0  # atno 6908 bound_to 6896
  150.6876  134.3752  159.5053 H   0  0  0  0  0  0  0  0  0  0  0  0  # atno 6909 bound_to 6896
  145.4257  139.2316  143.3172 H   0  0  0  0  0  0  0  0  0  0  0  0  # atno 7974 bound_to 7965
  154.5423  140.0743  156.8531 H   0  0  0  0  0  0  0  0  0  0  0  0  # atno 8008 bound_to 7997
  155.3156  140.3393  155.4224 H   0  0  0  0  0  0  0  0  0  0  0  0  # atno 8009 bound_to 7997
  156.1886  140.1678  156.8123 H   0  0  0  0  0  0  0  0  0  0  0  0  # atno 8010 bound_to 7997
  139.8087  144.6783  150.9669 H   0  0  0  0  0  0  0  0  0  0  0  0  # atno 10167 bound_to 10162
  157.6878  131.0667  150.4934 H   0  0  0  0  0  0  0  0  0  0  0  0  # atno 10718 bound_to 10713
  154.1238  135.2831  155.3202 H   0  0  0  0  0  0  0  0  0  0  0  0  # atno 10763 bound_to 10752
  154.6404  135.5404  153.7786 H   0  0  0  0  0  0  0  0  0  0  0  0  # atno 10764 bound_to 10752
  153.0304  135.6485  154.1391 H   0  0  0  0  0  0  0  0  0  0  0  0  # atno 10765 bound_to 10752
  141.1340  133.8255  157.0857 H   0  0  0  0  0  0  0  0  0  0  0  0  # atno 11005 bound_to 11000
  146.2633  140.4987  142.8844 LP  0  0  0  0  0  0  0  0  0  0  0  0  # atno 17320 bound_to 7965
  144.8216  140.6559  143.6349 LP  0  0  0  0  0  0  0  0  0  0  0  0  # atno 17321 bound_to 7965
  140.7818  143.4207  151.0846 LP  0  0  0  0  0  0  0  0  0  0  0  0  # atno 17342 bound_to 10162
  139.7875  143.8266  152.3147 LP  0  0  0  0  0  0  0  0  0  0  0  0  # atno 17343 bound_to 10162
  156.5259  130.4173  149.6226 LP  0  0  0  0  0  0  0  0  0  0  0  0  # atno 17370 bound_to 10713
  156.3112  130.7230  151.2123 LP  0  0  0  0  0  0  0  0  0  0  0  0  # atno 17371 bound_to 10713
  140.0424  134.9848  157.0986 LP  0  0  0  0  0  0  0  0  0  0  0  0  # atno 17394 bound_to 11000
  140.4115  134.1976  155.7163 LP  0  0  0  0  0  0  0  0  0  0  0  0  # atno 17395 bound_to 11000

$$$$
