AV-unprocessed.smi:650|AV-procd|sdf|3182|dock10
  -GOLD-   22720 0113D 1   1.00000     0.00000
 Structure written by MMmdl.
 43 44  0  0  0  0  0  0  0  0  2 V2000
  152.2250  136.9063  157.0385 C   0  0  0  0  0  0  0  0  0  0  0  0
  151.5152  137.7141  156.0065 C   0  0  0  0  0  0  0  0  0  0  0  0
  150.4909  137.4309  155.1474 C   0  0  0  0  0  0  0  0  0  0  0  0
  150.3167  138.6521  154.4434 C   0  0  0  0  0  0  0  0  0  0  0  0
  149.3277  138.7762  153.4345 N   0  0  0  0  0  0  0  0  0  0  0  0
  148.0467  138.3738  153.4901 C   0  0  0  0  0  0  0  0  0  0  0  0
  147.5198  137.8152  154.4527 O   0  0  0  0  0  0  0  0  0  0  0  0
  147.3977  138.6532  152.3500 N   0  0  0  0  0  0  0  0  0  0  0  0
  145.9860  138.3828  152.0918 C   0  0  0  0  0  0  0  0  0  0  0  0
  145.6416  136.8810  152.1825 C   0  0  2  0  0  0  0  0  0  0  0  0
  145.8697  136.1867  150.8279 C   0  0  0  0  0  0  0  0  0  0  0  0
  145.5135  134.6925  150.8881 C   0  0  0  0  0  0  0  0  0  0  0  0
  144.1090  134.4950  151.3272 N   0  3  1  0  0  0  0  0  0  0  0  0
  143.6900  133.0718  151.2529 C   0  0  0  0  0  0  0  0  0  0  0  0
  144.0652  132.4137  149.9141 C   0  0  0  0  0  0  0  0  0  0  0  0
  142.8980  132.0004  149.2353 O   0  0  0  0  0  0  0  0  0  0  0  0
  143.8674  135.1135  152.6569 C   0  0  0  0  0  0  0  0  0  0  0  0
  144.1922  136.6162  152.6384 C   0  0  0  0  0  0  0  0  0  0  0  0
  151.1555  139.5971  154.8400 N   0  0  0  0  0  0  0  0  0  0  0  0
  151.9279  139.0007  155.8437 O   0  0  0  0  0  0  0  0  0  0  0  0
  152.2164  135.8483  156.7762 H   0  0  0  0  0  0  0  0  0  0  0  0
  151.7470  137.0181  158.0117 H   0  0  0  0  0  0  0  0  0  0  0  0
  153.2648  137.2203  157.1333 H   0  0  0  0  0  0  0  0  0  0  0  0
  149.9565  136.4988  155.0406 H   0  0  0  0  0  0  0  0  0  0  0  0
  149.6268  139.2264  152.5824 H   0  0  0  0  0  0  0  0  0  0  0  0
  147.9135  139.1087  151.6112 H   0  0  0  0  0  0  0  0  0  0  0  0
  145.3489  138.9612  152.7633 H   0  0  0  0  0  0  0  0  0  0  0  0
  145.7692  138.7463  151.0869 H   0  0  0  0  0  0  0  0  0  0  0  0
  146.3150  136.4258  152.9105 H   0  0  0  0  0  0  0  0  0  0  0  0
  145.2674  136.6715  150.0580 H   0  0  0  0  0  0  0  0  0  0  0  0
  146.9099  136.3003  150.5210 H   0  0  0  0  0  0  0  0  0  0  0  0
  145.6563  134.2536  149.8999 H   0  0  0  0  0  0  0  0  0  0  0  0
  146.1876  134.1697  151.5687 H   0  0  0  0  0  0  0  0  0  0  0  0
  144.1627  132.5035  152.0554 H   0  0  0  0  0  0  0  0  0  0  0  0
  142.6148  133.0004  151.4232 H   0  0  0  0  0  0  0  0  0  0  0  0
  144.5875  133.1341  149.2841 H   0  0  0  0  0  0  0  0  0  0  0  0
  144.7366  131.5657  150.0428 H   0  0  0  0  0  0  0  0  0  0  0  0
  142.2679  132.7052  149.2600 H   0  0  0  0  0  0  0  0  0  0  0  0
  142.8276  134.9839  152.9542 H   0  0  0  0  0  0  0  0  0  0  0  0
  144.4747  134.6093  153.4104 H   0  0  0  0  0  0  0  0  0  0  0  0
  144.0262  137.0226  153.6361 H   0  0  0  0  0  0  0  0  0  0  0  0
  143.4963  137.1325  151.9754 H   0  0  0  0  0  0  0  0  0  0  0  0
  143.5340  134.9903  150.6599 H   0  0  0  0  0  0  0  0  0  0  0  0
  1  2  1  0  0  0  0
  1 21  1  0  0  0  0
  1 22  1  0  0  0  0
  1 23  1  0  0  0  0
  2 20  1  0  0  0  0
  2  3  2  0  0  0  0
  3  4  1  0  0  0  0
  3 24  1  0  0  0  0
  4  5  1  0  0  0  0
  4 19  2  0  0  0  0
  5  6  1  0  0  0  0
  5 25  1  0  0  0  0
  6  7  2  0  0  0  0
  6  8  1  0  0  0  0
  8  9  1  0  0  0  0
  8 26  1  0  0  0  0
  9 10  1  0  0  0  0
  9 27  1  0  0  0  0
  9 28  1  0  0  0  0
 10 18  1  0  0  0  0
 10 11  1  0  0  0  0
 10 29  1  0  0  0  0
 11 12  1  0  0  0  0
 11 30  1  0  0  0  0
 11 31  1  0  0  0  0
 12 13  1  0  0  0  0
 12 32  1  0  0  0  0
 12 33  1  0  0  0  0
 13 14  1  0  0  0  0
 13 17  1  0  0  0  0
 13 43  1  0  0  0  0
 14 15  1  0  0  0  0
 14 34  1  0  0  0  0
 14 35  1  0  0  0  0
 15 16  1  0  0  0  0
 15 36  1  0  0  0  0
 15 37  1  0  0  0  0
 16 38  1  0  0  0  0
 17 18  1  0  0  0  0
 17 39  1  0  0  0  0
 17 40  1  0  0  0  0
 18 41  1  0  0  0  0
 18 42  1  0  0  0  0
 19 20  1  0  0  0  0
M  CHG  1  13   1
M  END
> <s_m_source_file>
AV-unprocessed.smi

> <i_m_source_file_index>
650

> <i_lp_mmshare_version>
43012

> <i_f3d_flags>
0

> <s_epik_input>
W0NIM11jMVtjSF1jKG5vMSlbTkhdQyg9TylbTkhdW0NIMl1bQ0hdMltDSDJdW0NIMl1OKFtDSDJdW0NIMl0yKVtDSDJdW0NIMl1bT0hd

> <s_epik_cmdline>
J2VwaWtfcHl0aG9uJywgJy1waCcsICc3LjAnLCAnLXRuJywgJzgnLCAnLW1hJywgJzIwMCcsICctbWV0YWxfYmluZGluZycsICctaW1hZScsICc8aW5maWxlLm1hZT4nLCAnLW9tYWUnLCAnPG91dGZpbGUubWFlPic=

> <r_epik_Ionization_Penalty>
0.00179437

> <r_epik_Ionization_Penalty_Charging>
0.00177223

> <r_epik_Ionization_Penalty_Neutral>
2.21418e-05

> <r_epik_State_Penalty>
0.00120075

> <r_epik_Charging_Adjusted_Penalty>
0.00297297

> <i_epik_Tot_Q>
1

> <i_epik_Tot_abs_Q>
1

> <r_epik_Metal_State_Penalty>
-0

> <b_epik_Metal_Only>
0

> <s_lp_Force_Field>
OPLS_2005

> <r_lp_Energy>
15.9462

> <b_lp_Chiralities_Consistent>
1

> <s_lp_Variant>
AV-unprocessed.smi:650-1

> <Gold.Version>
5.8.1

> <Gold.Id.Protein>
6NUR|6NUR_protein|mol2

> <Gold.PLP.Fitness>
46.6544

> <Gold.PLP.PLP>
-34.3297

> <Gold.PLP.part.hbond>
-7.9470

> <Gold.PLP.part.metal>
0.0000

> <Gold.PLP.part.buried>
-1.5016

> <Gold.PLP.part.nonpolar>
-25.8400

> <Gold.PLP.part.repulsive>
0.3757

> <Gold.PLP.ligand.clash>
0.0000

> <Gold.PLP.ligand.torsion>
1.1532

> <Gold.PLP.Chemscore.Hbond>
4.8623

> <Gold.PLP.Chemscore.CHOScore>
0.0000

> <Gold.PLP.Chemscore.Metal>
0.0000

> <Gold.Chemscore.Hbonds>
donor molecule, donor type, donor heavy atom, donor atom, acceptor molecule, acceptor atom, score
      L1  H     5    25       P1  7957  1.00
      L1  H     8    26       P1  7957  0.93
      L1  H    16    38       P1 10186  0.73
      P1  H  7989  7998       L1    19  1.00
      P1  H 10785 10796       L1    16  1.00

> <Gold.PLP.Chemscore.Internal.Correction>
0.0444

> <Gold.Rescore>
     Score         DG    S(hbond)    S(metal)    S(lipo)     H(rot)  DE(clash)    DE(int)     intcor
     19.01     -20.75       4.17        0.00      67.23       2.55       0.46       1.28       ----

> <Gold.Chemscore.Fitness>
19.0110

> <Gold.Chemscore.DG>
-20.7520

> <Gold.Chemscore.ZeroCoef>
-5.4800

> <Gold.Chemscore.Hbond>
4.1711

> <Gold.Chemscore.Metal>
0.0000

> <Gold.Chemscore.Lipo>
67.2341

> <Gold.Chemscore.Internal_Hbond>
0.0000

> <Gold.Chemscore.DEClash>
0.4587

> <Gold.Chemscore.DEInternal>
1.2824

> <Gold.Chemscore.Rot>
2.5492

> <Gold.Chemscore.Internal.Correction>
   9.000000E+99

> <Gold.Chemscore.Hbonds>
donor molecule, donor type, donor heavy atom, donor atom, acceptor molecule, acceptor atom, score
      L1  H     5    25       P1  7957  0.96
      L1  H     8    26       P1  7957  0.82
      L1  H    16    38       P1 10186  0.73
      P1  H  7989  7998       L1    19  0.90
      P1  H 10785 10796       L1    16  0.55

> <Gold.Chemscore.Hbond.Weighted>
-13.9316

> <Gold.Chemscore.Metal.Weighted>
-0.0000

> <Gold.Chemscore.Lipo.Weighted>
-7.8664

> <Gold.Chemscore.Internal_Hbond.Weighted>
0.0000

> <Gold.Chemscore.DEClash.Weighted>
0.4587

> <Gold.Chemscore.DEInternal.Weighted>
1.2824

> <Gold.Chemscore.Rot.Weighted>
6.5260

> <Gold.Chemscore.Internal.Correction.Weighted>
   9.000000E+99

> <Gold.Protein.RotatedTorsions>
[ 6907 6896 6895 6894 ] final -120.03 input  -60.11 | X-H torsion
[ 7974 7965 7964 7962 ] final   -5.04 input  175.53 | X-H torsion
[ 8008 7997 7996 7995 ] final  -14.45 input   59.86 | X-H torsion
[ 10167 10162 10161 10158 ] final    1.91 input  -65.29 | X-H torsion
[ 10718 10713 10712 10709 ] final  137.79 input   66.30 | X-H torsion
[ 10763 10752 10751 10750 ] final   52.05 input  -60.55 | X-H torsion
[ 11005 11000 10999 10996 ] final    7.85 input  -57.11 | X-H torsion

> <Gold.Protein.ActiveResidues>
 VAL166  LYS551  ARG553  GLY616  TRP617  ASP618  TYR619  PRO620  LYS621  CYS622 
 ASP623  PHE694  ASN695  SER759  ASP760  ASP761  ALA762  ILE779  LEU786  VAL792 
 PHE793  MET794  SER795  GLU796  ALA797  LYS798  CYS799  TRP800  GLU811  SER814 

> <Gold.Protein.RotatedAtoms>
  150.8357  133.8017  159.3080 H   0  0  0  0  0  0  0  0  0  0  0  0  # atno 6907 bound_to 6896
  151.5734  135.1060  160.0010 H   0  0  0  0  0  0  0  0  0  0  0  0  # atno 6908 bound_to 6896
  152.4430  133.7441  159.6714 H   0  0  0  0  0  0  0  0  0  0  0  0  # atno 6909 bound_to 6896
  146.2361  140.1961  142.8333 H   0  0  0  0  0  0  0  0  0  0  0  0  # atno 7974 bound_to 7965
  154.5209  140.2223  155.8977 H   0  0  0  0  0  0  0  0  0  0  0  0  # atno 8008 bound_to 7997
  156.1661  140.3132  155.8856 H   0  0  0  0  0  0  0  0  0  0  0  0  # atno 8009 bound_to 7997
  155.3654  140.0463  157.3036 H   0  0  0  0  0  0  0  0  0  0  0  0  # atno 8010 bound_to 7997
  140.6660  143.7177  150.7829 H   0  0  0  0  0  0  0  0  0  0  0  0  # atno 10167 bound_to 10162
  157.4323  131.1050  151.0236 H   0  0  0  0  0  0  0  0  0  0  0  0  # atno 10718 bound_to 10713
  152.9787  135.5825  154.4515 H   0  0  0  0  0  0  0  0  0  0  0  0  # atno 10763 bound_to 10752
  154.4103  135.2770  155.2043 H   0  0  0  0  0  0  0  0  0  0  0  0  # atno 10764 bound_to 10752
  154.3836  135.6141  153.5858 H   0  0  0  0  0  0  0  0  0  0  0  0  # atno 10765 bound_to 10752
  140.5436  134.0351  155.7912 H   0  0  0  0  0  0  0  0  0  0  0  0  # atno 11005 bound_to 11000
  144.9819  140.8467  143.5392 LP  0  0  0  0  0  0  0  0  0  0  0  0  # atno 17320 bound_to 7965
  145.1956  139.2278  143.5220 LP  0  0  0  0  0  0  0  0  0  0  0  0  # atno 17321 bound_to 7965
  140.0854  143.4928  152.2507 LP  0  0  0  0  0  0  0  0  0  0  0  0  # atno 17342 bound_to 10162
  139.5910  144.7550  151.3402 LP  0  0  0  0  0  0  0  0  0  0  0  0  # atno 17343 bound_to 10162
  157.1128  130.6029  149.5486 LP  0  0  0  0  0  0  0  0  0  0  0  0  # atno 17370 bound_to 10713
  155.9918  130.4973  150.7313 LP  0  0  0  0  0  0  0  0  0  0  0  0  # atno 17371 bound_to 10713
  141.1213  133.9457  157.2724 LP  0  0  0  0  0  0  0  0  0  0  0  0  # atno 17394 bound_to 11000
  139.9491  135.0179  156.8941 LP  0  0  0  0  0  0  0  0  0  0  0  0  # atno 17395 bound_to 11000

$$$$
