AV-unprocessed.smi:6|AV-procd|sdf|42|dock2
  -GOLD-   2262015153D 1   1.00000     0.00000
 Structure written by MMmdl.
 37 38  0  0  0  0  0  0  0  0  3 V2000
  149.5200  140.8652  155.9518 C   0  0  0  0  0  0  0  0  0  0  0  0
  151.0326  141.0806  156.1121 C   0  0  0  0  0  0  0  0  0  0  0  0
  151.8305  139.7678  156.1005 C   0  0  0  0  0  0  0  0  0  0  0  0
  151.3614  141.9358  157.3275 C   0  0  0  0  0  0  0  0  0  0  0  0
  150.8125  143.1573  157.4307 N   0  3  0  0  0  0  0  0  0  0  0  0
  151.0972  143.9332  158.5050 C   0  0  0  0  0  0  0  0  0  0  0  0
  151.9638  143.4668  159.5106 C   0  0  0  0  0  0  0  0  0  0  0  0
  152.5004  142.1787  159.3428 C   0  0  0  0  0  0  0  0  0  0  0  0
  153.3722  141.6632  160.3100 N   0  0  0  0  0  0  0  0  0  0  0  0
  154.5132  140.8639  159.8797 C   0  0  0  0  0  0  0  0  0  0  0  0
  154.3714  139.3896  160.2277 C   0  0  0  0  0  0  0  0  0  0  0  0
  154.3994  138.9445  161.5013 C   0  0  0  0  0  0  0  0  0  0  0  0
  154.2908  137.5821  161.8244 N   0  0  0  0  0  0  0  0  0  0  0  0
  154.3243  137.1985  163.2378 C   0  0  0  0  0  0  0  0  0  0  0  0
  154.1546  136.6514  160.8377 C   0  0  0  0  0  0  0  0  0  0  0  0
  154.0544  135.4645  161.1507 O   0  0  0  0  0  0  0  0  0  0  0  0
  154.1352  137.0733  159.5365 N   0  5  0  0  0  0  0  0  0  0  0  0
  154.2427  138.3830  159.1671 C   0  0  0  0  0  0  0  0  0  0  0  0
  154.2331  138.7363  157.9881 O   0  0  0  0  0  0  0  0  0  0  0  0
  152.1931  141.4383  158.2544 N   0  0  0  0  0  0  0  0  0  0  0  0
  148.9916  141.8174  155.8966 H   0  0  0  0  0  0  0  0  0  0  0  0
  149.1065  140.3024  156.7894 H   0  0  0  0  0  0  0  0  0  0  0  0
  149.2974  140.3111  155.0395 H   0  0  0  0  0  0  0  0  0  0  0  0
  151.3553  141.6423  155.2338 H   0  0  0  0  0  0  0  0  0  0  0  0
  152.9030  139.9598  156.1412 H   0  0  0  0  0  0  0  0  0  0  0  0
  151.6322  139.1963  155.1934 H   0  0  0  0  0  0  0  0  0  0  0  0
  151.5723  139.1365  156.9517 H   0  0  0  0  0  0  0  0  0  0  0  0
  150.6221  144.9030  158.5247 H   0  0  0  0  0  0  0  0  0  0  0  0
  152.2013  144.0723  160.3733 H   0  0  0  0  0  0  0  0  0  0  0  0
  152.9719  141.4243  161.2066 H   0  0  0  0  0  0  0  0  0  0  0  0
  154.6419  140.9625  158.8009 H   0  0  0  0  0  0  0  0  0  0  0  0
  155.4199  141.2505  160.3468 H   0  0  0  0  0  0  0  0  0  0  0  0
  154.5059  139.6061  162.3485 H   0  0  0  0  0  0  0  0  0  0  0  0
  155.1204  136.4755  163.4217 H   0  0  0  0  0  0  0  0  0  0  0  0
  153.3770  136.7431  163.5297 H   0  0  0  0  0  0  0  0  0  0  0  0
  154.4981  138.0481  163.8989 H   0  0  0  0  0  0  0  0  0  0  0  0
  150.1832  143.5081  156.7082 H   0  0  0  0  0  0  0  0  0  0  0  0
  1  2  1  0  0  0  0
  1 21  1  0  0  0  0
  1 22  1  0  0  0  0
  1 23  1  0  0  0  0
  2  3  1  0  0  0  0
  2  4  1  0  0  0  0
  2 24  1  0  0  0  0
  3 25  1  0  0  0  0
  3 26  1  0  0  0  0
  3 27  1  0  0  0  0
  4 20  1  0  0  0  0
  4  5  2  0  0  0  0
  5  6  1  0  0  0  0
  5 37  1  0  0  0  0
  6  7  2  0  0  0  0
  6 28  1  0  0  0  0
  7  8  1  0  0  0  0
  7 29  1  0  0  0  0
  8  9  1  0  0  0  0
  8 20  2  0  0  0  0
  9 10  1  0  0  0  0
  9 30  1  0  0  0  0
 10 11  1  0  0  0  0
 10 31  1  0  0  0  0
 10 32  1  0  0  0  0
 11 18  1  0  0  0  0
 11 12  2  0  0  0  0
 12 13  1  0  0  0  0
 12 33  1  0  0  0  0
 13 14  1  0  0  0  0
 13 15  1  0  0  0  0
 14 34  1  0  0  0  0
 14 35  1  0  0  0  0
 14 36  1  0  0  0  0
 15 16  2  0  0  0  0
 15 17  1  0  0  0  0
 17 18  1  0  0  0  0
 18 19  2  0  0  0  0
M  CHG  1   5   1
M  CHG  1  17  -1
M  END
> <s_m_source_file>
AV-unprocessed.smi

> <i_m_source_file_index>
6

> <i_lp_mmshare_version>
43012

> <i_f3d_flags>
0

> <s_epik_input>
W0NIM11bQ0hdKFtDSDNdKWMxbltjSF1bY0hdYyhuMSlbTkhdW0NIMl1jMltjSF1uKFtDSDNdKWMoPU8pW25IXWMyPU8=

> <s_epik_cmdline>
J2VwaWtfcHl0aG9uJywgJy1waCcsICc3LjAnLCAnLXRuJywgJzgnLCAnLW1hJywgJzIwMCcsICctbWV0YWxfYmluZGluZycsICctaW1hZScsICc8aW5maWxlLm1hZT4nLCAnLW9tYWUnLCAnPG91dGZpbGUubWFlPic=

> <r_lp_tautomer_probability>
0.998874

> <r_epik_Ionization_Penalty>
4.8157

> <r_epik_Ionization_Penalty_Charging>
0.866709

> <r_epik_Ionization_Penalty_Neutral>
3.94899

> <r_epik_State_Penalty>
4.49389

> <r_epik_Charging_Adjusted_Penalty>
5.3606

> <i_epik_Tot_Q>
0

> <i_epik_Tot_abs_Q>
2

> <r_epik_Metal_State_Penalty>
1.28929

> <b_epik_Metal_Only>
1

> <s_lp_Force_Field>
OPLS_2005

> <r_lp_Energy>
16.1184

> <b_lp_Chiralities_Consistent>
1

> <s_lp_Variant>
AV-unprocessed.smi:6-4

> <Gold.Version>
5.8.1

> <Gold.Id.Protein>
6NUR|6NUR_protein|mol2

> <Gold.PLP.Fitness>
45.4668

> <Gold.PLP.PLP>
-34.3966

> <Gold.PLP.part.hbond>
-2.6994

> <Gold.PLP.part.metal>
0.0000

> <Gold.PLP.part.buried>
-5.3069

> <Gold.PLP.part.nonpolar>
-27.5229

> <Gold.PLP.part.repulsive>
0.0601

> <Gold.PLP.ligand.clash>
0.0000

> <Gold.PLP.ligand.torsion>
0.4210

> <Gold.PLP.Chemscore.Hbond>
3.9425

> <Gold.PLP.Chemscore.CHOScore>
0.0000

> <Gold.PLP.Chemscore.Metal>
0.0000

> <Gold.Chemscore.Hbonds>
donor molecule, donor type, donor heavy atom, donor atom, acceptor molecule, acceptor atom, score
      L1  H     5    37       P1  8028  1.89
      P1  H  6896  6908       L1    16  0.80
      P1  H  7997  8008       L1    19  1.00

> <Gold.PLP.Chemscore.Internal.Correction>
0.0847

> <Gold.Rescore>
     Score         DG    S(hbond)    S(metal)    S(lipo)     H(rot)  DE(clash)    DE(int)     intcor
     18.80     -19.42       2.89        0.00      72.64       1.65       0.03       0.59       ----

> <Gold.Chemscore.Fitness>
18.7964

> <Gold.Chemscore.DG>
-19.4235

> <Gold.Chemscore.ZeroCoef>
-5.4800

> <Gold.Chemscore.Hbond>
2.8931

> <Gold.Chemscore.Metal>
0.0000

> <Gold.Chemscore.Lipo>
72.6378

> <Gold.Chemscore.Internal_Hbond>
0.0000

> <Gold.Chemscore.DEClash>
0.0331

> <Gold.Chemscore.DEInternal>
0.5940

> <Gold.Chemscore.Rot>
1.6477

> <Gold.Chemscore.Internal.Correction>
   9.000000E+99

> <Gold.Chemscore.Hbonds>
donor molecule, donor type, donor heavy atom, donor atom, acceptor molecule, acceptor atom, score
      L1  H     5    37       P1  8028  0.90
      P1  H  6896  6908       L1    16  0.48
      P1  H  7997  8008       L1    19  0.97

> <Gold.Chemscore.Hbond.Weighted>
-9.6630

> <Gold.Chemscore.Metal.Weighted>
-0.0000

> <Gold.Chemscore.Lipo.Weighted>
-8.4986

> <Gold.Chemscore.Internal_Hbond.Weighted>
0.0000

> <Gold.Chemscore.DEClash.Weighted>
0.0331

> <Gold.Chemscore.DEInternal.Weighted>
0.5940

> <Gold.Chemscore.Rot.Weighted>
4.2180

> <Gold.Chemscore.Internal.Correction.Weighted>
   9.000000E+99

> <Gold.Protein.RotatedTorsions>
[ 6907 6896 6895 6894 ] final  -57.61 input  -60.11 | X-H torsion
[ 7974 7965 7964 7962 ] final  -75.58 input  175.53 | X-H torsion
[ 8008 7997 7996 7995 ] final -108.14 input   59.86 | X-H torsion
[ 10167 10162 10161 10158 ] final -115.74 input  -65.29 | X-H torsion
[ 10718 10713 10712 10709 ] final -130.37 input   66.30 | X-H torsion
[ 10763 10752 10751 10750 ] final  -65.38 input  -60.55 | X-H torsion
[ 11005 11000 10999 10996 ] final   53.04 input  -57.11 | X-H torsion

> <Gold.Protein.ActiveResidues>
 VAL166  LYS551  ARG553  GLY616  TRP617  ASP618  TYR619  PRO620  LYS621  CYS622 
 ASP623  PHE694  ASN695  SER759  ASP760  ASP761  ALA762  ILE779  LEU786  VAL792 
 PHE793  MET794  SER795  GLU796  ALA797  LYS798  CYS799  TRP800  GLU811  SER814 

> <Gold.Protein.RotatedAtoms>
  150.8072  134.7204  159.6654 H   0  0  0  0  0  0  0  0  0  0  0  0  # atno 6907 bound_to 6896
  152.4191  134.5984  160.0003 H   0  0  0  0  0  0  0  0  0  0  0  0  # atno 6908 bound_to 6896
  151.6204  133.3302  159.3123 H   0  0  0  0  0  0  0  0  0  0  0  0  # atno 6909 bound_to 6896
  145.6242  140.9355  143.1122 H   0  0  0  0  0  0  0  0  0  0  0  0  # atno 7974 bound_to 7965
  154.9399  140.0403  157.2091 H   0  0  0  0  0  0  0  0  0  0  0  0  # atno 8008 bound_to 7997
  154.8079  140.2863  155.5852 H   0  0  0  0  0  0  0  0  0  0  0  0  # atno 8009 bound_to 7997
  156.2968  140.2542  156.2961 H   0  0  0  0  0  0  0  0  0  0  0  0  # atno 8010 bound_to 7997
  140.0868  143.4737  152.1894 H   0  0  0  0  0  0  0  0  0  0  0  0  # atno 10167 bound_to 10162
  156.2137  130.6935  151.0679 H   0  0  0  0  0  0  0  0  0  0  0  0  # atno 10718 bound_to 10713
  154.3442  135.6150  153.5611 H   0  0  0  0  0  0  0  0  0  0  0  0  # atno 10763 bound_to 10752
  152.9802  135.5777  154.4818 H   0  0  0  0  0  0  0  0  0  0  0  0  # atno 10764 bound_to 10752
  154.4528  135.2853  155.1746 H   0  0  0  0  0  0  0  0  0  0  0  0  # atno 10765 bound_to 10752
  140.0799  134.5353  155.8957 H   0  0  0  0  0  0  0  0  0  0  0  0  # atno 11005 bound_to 11000
  144.7219  139.8002  143.7379 LP  0  0  0  0  0  0  0  0  0  0  0  0  # atno 17320 bound_to 7965
  146.1407  139.4464  143.0110 LP  0  0  0  0  0  0  0  0  0  0  0  0  # atno 17321 bound_to 7965
  139.5748  144.7481  151.3795 LP  0  0  0  0  0  0  0  0  0  0  0  0  # atno 17342 bound_to 10162
  140.7049  143.7538  150.7465 LP  0  0  0  0  0  0  0  0  0  0  0  0  # atno 17343 bound_to 10162
  157.7052  131.0759  150.6690 LP  0  0  0  0  0  0  0  0  0  0  0  0  # atno 17370 bound_to 10713
  156.6750  130.4550  149.5645 LP  0  0  0  0  0  0  0  0  0  0  0  0  # atno 17371 bound_to 10713
  141.2043  133.6638  156.6113 LP  0  0  0  0  0  0  0  0  0  0  0  0  # atno 17394 bound_to 11000
  140.3503  134.7774  157.4462 LP  0  0  0  0  0  0  0  0  0  0  0  0  # atno 17395 bound_to 11000

$$$$
