AV-unprocessed.smi:1082|AV-procd|sdf|4713|dock7
  -GOLD-   22720 3243D 1   1.00000     0.00000
 Structure written by MMmdl.
 49 51  0  0  0  0  0  0  0  0  3 V2000
  145.0730  138.0718  152.7369 O   0  0  0  0  0  0  0  0  0  0  0  0
  146.1453  137.5034  152.5324 C   0  0  0  0  0  0  0  0  0  0  0  0
  146.2410  136.2744  152.0086 N   0  0  0  0  0  0  0  0  0  0  0  0
  145.1005  135.4556  151.6203 C   0  0  0  0  0  0  0  0  0  0  0  0
  145.1157  134.1186  152.3781 C   0  0  0  0  0  0  0  0  0  0  0  0
  145.0070  132.9530  151.4688 N   0  3  0  0  0  0  0  0  0  0  0  0
  143.6843  132.8194  150.8104 C   0  0  0  0  0  0  0  0  0  0  0  0
  143.9486  132.5932  149.3174 C   0  0  0  0  0  0  0  0  0  0  0  0
  145.3948  132.1176  149.2631 C   0  0  0  0  0  0  0  0  0  0  0  0
  146.0414  132.8842  150.4124 C   0  0  0  0  0  0  0  0  0  0  0  0
  147.3574  138.0086  152.8164 N   0  0  0  0  0  0  0  0  0  0  0  0
  147.6684  139.2637  153.4122 C   0  0  0  0  0  0  0  0  0  0  0  0
  146.8817  140.4252  153.2036 C   0  0  0  0  0  0  0  0  0  0  0  0
  147.2578  141.6413  153.8081 C   0  0  0  0  0  0  0  0  0  0  0  0
  148.4171  141.6810  154.6050 C   0  0  0  0  0  0  0  0  0  0  0  0
  149.1521  140.5619  154.7727 N   0  3  0  0  0  0  0  0  0  0  0  0
  148.8357  139.3692  154.2106 C   0  0  0  0  0  0  0  0  0  0  0  0
  149.6704  138.2646  154.4543 N   0  0  0  0  0  0  0  0  0  0  0  0
  151.0564  138.4363  154.0280 C   0  0  0  0  0  0  0  0  0  0  0  0
  151.9116  137.7019  155.0599 C   0  0  0  0  0  0  0  0  0  0  0  0
  151.0966  137.8552  156.3374 C   0  0  0  0  0  0  0  0  0  0  0  0
  149.6550  137.7818  155.8322 C   0  0  0  0  0  0  0  0  0  0  0  0
  147.1599  135.8778  151.8759 H   0  0  0  0  0  0  0  0  0  0  0  0
  144.1835  136.0077  151.8318 H   0  0  0  0  0  0  0  0  0  0  0  0
  145.1305  135.2772  150.5440 H   0  0  0  0  0  0  0  0  0  0  0  0
  146.0523  134.0382  152.9323 H   0  0  0  0  0  0  0  0  0  0  0  0
  144.3107  134.0853  153.1142 H   0  0  0  0  0  0  0  0  0  0  0  0
  143.1707  131.9613  151.2449 H   0  0  0  0  0  0  0  0  0  0  0  0
  143.0498  133.6939  150.9626 H   0  0  0  0  0  0  0  0  0  0  0  0
  143.2523  131.8854  148.8667 H   0  0  0  0  0  0  0  0  0  0  0  0
  143.8558  133.5389  148.7815 H   0  0  0  0  0  0  0  0  0  0  0  0
  145.4418  131.0448  149.4549 H   0  0  0  0  0  0  0  0  0  0  0  0
  145.8716  132.3117  148.3020 H   0  0  0  0  0  0  0  0  0  0  0  0
  146.2993  133.8901  150.0767 H   0  0  0  0  0  0  0  0  0  0  0  0
  146.9529  132.4048  150.7709 H   0  0  0  0  0  0  0  0  0  0  0  0
  148.1418  137.3887  152.6774 H   0  0  0  0  0  0  0  0  0  0  0  0
  146.0020  140.4081  152.5782 H   0  0  0  0  0  0  0  0  0  0  0  0
  146.6662  142.5325  153.6582 H   0  0  0  0  0  0  0  0  0  0  0  0
  148.7792  142.5679  155.1047 H   0  0  0  0  0  0  0  0  0  0  0  0
  151.2055  138.0297  153.0274 H   0  0  0  0  0  0  0  0  0  0  0  0
  151.3322  139.4915  153.9988 H   0  0  0  0  0  0  0  0  0  0  0  0
  151.9908  136.6461  154.7960 H   0  0  0  0  0  0  0  0  0  0  0  0
  152.9204  138.1074  155.1435 H   0  0  0  0  0  0  0  0  0  0  0  0
  151.3242  137.0952  157.0851 H   0  0  0  0  0  0  0  0  0  0  0  0
  151.2852  138.8342  156.7806 H   0  0  0  0  0  0  0  0  0  0  0  0
  148.9757  138.3424  156.4763 H   0  0  0  0  0  0  0  0  0  0  0  0
  149.3129  136.7465  155.8215 H   0  0  0  0  0  0  0  0  0  0  0  0
  145.1170  132.1218  152.0324 H   0  0  0  0  0  0  0  0  0  0  0  0
  149.9904  140.6175  155.3515 H   0  0  0  0  0  0  0  0  0  0  0  0
  1  2  2  0  0  0  0
  2  3  1  0  0  0  0
  2 11  1  0  0  0  0
  3  4  1  0  0  0  0
  3 23  1  0  0  0  0
  4  5  1  0  0  0  0
  4 24  1  0  0  0  0
  4 25  1  0  0  0  0
  5  6  1  0  0  0  0
  5 26  1  0  0  0  0
  5 27  1  0  0  0  0
  6 10  1  0  0  0  0
  6  7  1  0  0  0  0
  6 48  1  0  0  0  0
  7  8  1  0  0  0  0
  7 28  1  0  0  0  0
  7 29  1  0  0  0  0
  8  9  1  0  0  0  0
  8 30  1  0  0  0  0
  8 31  1  0  0  0  0
  9 10  1  0  0  0  0
  9 32  1  0  0  0  0
  9 33  1  0  0  0  0
 10 34  1  0  0  0  0
 10 35  1  0  0  0  0
 11 12  1  0  0  0  0
 11 36  1  0  0  0  0
 12 17  1  0  0  0  0
 12 13  2  0  0  0  0
 13 14  1  0  0  0  0
 13 37  1  0  0  0  0
 14 15  2  0  0  0  0
 14 38  1  0  0  0  0
 15 16  1  0  0  0  0
 15 39  1  0  0  0  0
 16 17  2  0  0  0  0
 16 49  1  0  0  0  0
 17 18  1  0  0  0  0
 18 22  1  0  0  0  0
 18 19  1  0  0  0  0
 19 20  1  0  0  0  0
 19 40  1  0  0  0  0
 19 41  1  0  0  0  0
 20 21  1  0  0  0  0
 20 42  1  0  0  0  0
 20 43  1  0  0  0  0
 21 22  1  0  0  0  0
 21 44  1  0  0  0  0
 21 45  1  0  0  0  0
 22 46  1  0  0  0  0
 22 47  1  0  0  0  0
M  CHG  1   6   1
M  CHG  1  16   1
M  END
> <s_m_source_file>
AV-unprocessed.smi

> <i_m_source_file_index>
1082

> <i_lp_mmshare_version>
43012

> <i_f3d_flags>
0

> <s_epik_input>
W0NIMl0xW0NIMl1bQ0gyXVtDSDJdTjFbQ0gyXVtDSDJdW05IXUMoPU8pW05IXWMyW2NIXVtjSF1bY0hdbmMyTjNbQ0gyXVtDSDJdW0NIMl1bQ0gyXTM=

> <s_epik_cmdline>
J2VwaWtfcHl0aG9uJywgJy1waCcsICc3LjAnLCAnLXRuJywgJzgnLCAnLW1hJywgJzIwMCcsICctbWV0YWxfYmluZGluZycsICctaW1hZScsICc8aW5maWxlLm1hZT4nLCAnLW9tYWUnLCAnPG91dGZpbGUubWFlPic=

> <r_lp_tautomer_probability>
0.999994

> <r_epik_Ionization_Penalty>
1.21588

> <r_epik_Ionization_Penalty_Charging>
1.21586

> <r_epik_Ionization_Penalty_Neutral>
1.99004e-05

> <r_epik_State_Penalty>
1.28011

> <r_epik_Charging_Adjusted_Penalty>
2.49596

> <i_epik_Tot_Q>
2

> <i_epik_Tot_abs_Q>
2

> <r_epik_Metal_State_Penalty>
1.35385

> <b_epik_Metal_Only>
0

> <s_lp_Force_Field>
OPLS_2005

> <r_lp_Energy>
65.6653

> <b_lp_Chiralities_Consistent>
1

> <s_lp_Variant>
AV-unprocessed.smi:1082-2

> <Gold.Version>
5.8.1

> <Gold.Id.Protein>
6NUR|6NUR_protein|mol2

> <Gold.PLP.Fitness>
41.1677

> <Gold.PLP.PLP>
-36.5530

> <Gold.PLP.part.hbond>
-2.0000

> <Gold.PLP.part.metal>
0.0000

> <Gold.PLP.part.buried>
-4.3608

> <Gold.PLP.part.nonpolar>
-32.2716

> <Gold.PLP.part.repulsive>
2.7381

> <Gold.PLP.ligand.clash>
0.0000

> <Gold.PLP.ligand.torsion>
0.6648

> <Gold.PLP.Chemscore.Hbond>
1.9440

> <Gold.PLP.Chemscore.CHOScore>
0.0000

> <Gold.PLP.Chemscore.Metal>
0.0000

> <Gold.Chemscore.Hbonds>
donor molecule, donor type, donor heavy atom, donor atom, acceptor molecule, acceptor atom, score
      L1  H     3    23       P1  7948  0.91
      L1  H    11    36       P1  7948  1.00

> <Gold.PLP.Chemscore.Internal.Correction>
0.1124

> <Gold.Rescore>
     Score         DG    S(hbond)    S(metal)    S(lipo)     H(rot)  DE(clash)    DE(int)     intcor
     17.25     -19.15       1.88        0.00      99.03       1.63       0.24       1.67       ----

> <Gold.Chemscore.Fitness>
17.2490

> <Gold.Chemscore.DG>
-19.1535

> <Gold.Chemscore.ZeroCoef>
-5.4800

> <Gold.Chemscore.Hbond>
1.8760

> <Gold.Chemscore.Metal>
0.0000

> <Gold.Chemscore.Lipo>
99.0289

> <Gold.Chemscore.Internal_Hbond>
0.0000

> <Gold.Chemscore.DEClash>
0.2361

> <Gold.Chemscore.DEInternal>
1.6684

> <Gold.Chemscore.Rot>
1.6323

> <Gold.Chemscore.Internal.Correction>
   9.000000E+99

> <Gold.Chemscore.Hbonds>
donor molecule, donor type, donor heavy atom, donor atom, acceptor molecule, acceptor atom, score
      L1  H     3    23       P1  7948  0.90
      L1  H    11    36       P1  7948  0.96

> <Gold.Chemscore.Hbond.Weighted>
-6.2657

> <Gold.Chemscore.Metal.Weighted>
-0.0000

> <Gold.Chemscore.Lipo.Weighted>
-11.5864

> <Gold.Chemscore.Internal_Hbond.Weighted>
0.0000

> <Gold.Chemscore.DEClash.Weighted>
0.2361

> <Gold.Chemscore.DEInternal.Weighted>
1.6684

> <Gold.Chemscore.Rot.Weighted>
4.1786

> <Gold.Chemscore.Internal.Correction.Weighted>
   9.000000E+99

> <Gold.Protein.RotatedTorsions>
[ 6907 6896 6895 6894 ] final  176.90 input  -60.11 | X-H torsion
[ 7974 7965 7964 7962 ] final  129.75 input  175.53 | X-H torsion
[ 8008 7997 7996 7995 ] final   87.97 input   59.86 | X-H torsion
[ 10167 10162 10161 10158 ] final  -51.29 input  -65.29 | X-H torsion
[ 10718 10713 10712 10709 ] final  -32.26 input   66.30 | X-H torsion
[ 10763 10752 10751 10750 ] final   -3.42 input  -60.55 | X-H torsion
[ 11005 11000 10999 10996 ] final  -91.21 input  -57.11 | X-H torsion

> <Gold.Protein.ActiveResidues>
 VAL166  LYS551  ARG553  GLY616  TRP617  ASP618  TYR619  PRO620  LYS621  CYS622 
 ASP623  PHE694  ASN695  SER759  ASP760  ASP761  ALA762  ILE779  LEU786  VAL792 
 PHE793  MET794  SER795  GLU796  ALA797  LYS798  CYS799  TRP800  GLU811  SER814 

> <Gold.Protein.RotatedAtoms>
  151.7127  133.3312  159.3294 H   0  0  0  0  0  0  0  0  0  0  0  0  # atno 6907 bound_to 6896
  150.7687  134.6518  159.6301 H   0  0  0  0  0  0  0  0  0  0  0  0  # atno 6908 bound_to 6896
  152.3701  134.6749  160.0230 H   0  0  0  0  0  0  0  0  0  0  0  0  # atno 6909 bound_to 6896
  145.0253  139.4095  143.5177 H   0  0  0  0  0  0  0  0  0  0  0  0  # atno 7974 bound_to 7965
  155.9820  140.3376  155.6672 H   0  0  0  0  0  0  0  0  0  0  0  0  # atno 8008 bound_to 7997
  155.6536  140.0708  157.2596 H   0  0  0  0  0  0  0  0  0  0  0  0  # atno 8009 bound_to 7997
  154.4194  140.1721  156.1689 H   0  0  0  0  0  0  0  0  0  0  0  0  # atno 8010 bound_to 7997
  140.6596  143.2625  151.4482 H   0  0  0  0  0  0  0  0  0  0  0  0  # atno 10167 bound_to 10162
  156.3771  130.4349  149.7499 H   0  0  0  0  0  0  0  0  0  0  0  0  # atno 10718 bound_to 10713
  153.3711  135.6994  153.6637 H   0  0  0  0  0  0  0  0  0  0  0  0  # atno 10763 bound_to 10752
  153.5287  135.3597  155.2666 H   0  0  0  0  0  0  0  0  0  0  0  0  # atno 10764 bound_to 10752
  154.8681  135.4175  154.2989 H   0  0  0  0  0  0  0  0  0  0  0  0  # atno 10765 bound_to 10752
  141.1549  133.7741  156.9848 H   0  0  0  0  0  0  0  0  0  0  0  0  # atno 11005 bound_to 11000
  146.3491  139.9773  142.8699 LP  0  0  0  0  0  0  0  0  0  0  0  0  # atno 17320 bound_to 7965
  145.1842  140.9781  143.4248 LP  0  0  0  0  0  0  0  0  0  0  0  0  # atno 17321 bound_to 7965
  139.5826  144.1675  152.1988 LP  0  0  0  0  0  0  0  0  0  0  0  0  # atno 17342 bound_to 10162
  140.1005  144.5543  150.6992 LP  0  0  0  0  0  0  0  0  0  0  0  0  # atno 17343 bound_to 10162
  156.4604  130.7949  151.2969 LP  0  0  0  0  0  0  0  0  0  0  0  0  # atno 17370 bound_to 10713
  157.7489  131.0067  150.3164 LP  0  0  0  0  0  0  0  0  0  0  0  0  # atno 17371 bound_to 10713
  140.1042  134.9517  157.1969 LP  0  0  0  0  0  0  0  0  0  0  0  0  # atno 17394 bound_to 11000
  140.3278  134.2844  155.7233 LP  0  0  0  0  0  0  0  0  0  0  0  0  # atno 17395 bound_to 11000

$$$$
