AV-unprocessed.smi:102|AV-procd|sdf|950|dock7
  -GOLD-   2262017483D 1   1.00000     0.00000
 Structure written by MMmdl.
 44 45  0  0  0  0  0  0  0  0  1 V2000
  147.1903  136.2785  162.7923 C   0  0  0  0  0  0  0  0  0  0  0  0
  147.3527  135.6430  161.4180 C   0  0  0  0  0  0  0  0  0  0  0  0
  147.1948  134.4347  161.2433 O   0  0  0  0  0  0  0  0  0  0  0  0
  147.6765  136.5405  160.4772 O   0  0  0  0  0  0  0  0  0  0  0  0
  147.9679  136.1063  159.1573 C   0  0  0  0  0  0  0  0  0  0  0  0
  148.4281  137.2881  158.2882 C   0  0  1  0  0  0  0  0  0  0  0  0
  149.1962  138.2152  159.0359 O   0  0  0  0  0  0  0  0  0  0  0  0
  149.9226  139.0037  158.1499 C   0  0  1  0  0  0  0  0  0  0  0  0
  151.2537  139.3014  158.8019 N   0  0  0  0  0  0  0  0  0  0  0  0
  151.6981  140.6122  158.9206 C   0  0  0  0  0  0  0  0  0  0  0  0
  152.9140  140.9406  159.4162 C   0  0  0  0  0  0  0  0  0  0  0  0
  153.2698  142.2337  159.4992 F   0  0  0  0  0  0  0  0  0  0  0  0
  153.8495  139.9026  159.8368 C   0  0  0  0  0  0  0  0  0  0  0  0
  154.9664  140.0994  160.3110 O   0  0  0  0  0  0  0  0  0  0  0  0
  153.3851  138.5980  159.6478 N   0  0  0  0  0  0  0  0  0  0  0  0
  152.1382  138.2465  159.1262 C   0  0  0  0  0  0  0  0  0  0  0  0
  151.8551  137.0587  158.9777 O   0  0  0  0  0  0  0  0  0  0  0  0
  150.0749  138.2456  156.8159 C   0  0  2  0  0  0  0  0  0  0  0  0
  149.5460  139.0207  155.7473 O   0  0  0  0  0  0  0  0  0  0  0  0
  150.3198  139.9256  155.1232 C   0  0  0  0  0  0  0  0  0  0  0  0
  149.5058  140.9267  154.3146 C   0  0  0  0  0  0  0  0  0  0  0  0
  151.5491  139.9796  155.1649 O   0  0  0  0  0  0  0  0  0  0  0  0
  149.2565  136.9755  157.0314 C   0  0  1  0  0  0  0  0  0  0  0  0
  150.1589  135.8839  157.1798 O   0  0  0  0  0  0  0  0  0  0  0  0
  150.8554  135.4149  156.1289 C   0  0  0  0  0  0  0  0  0  0  0  0
  151.1387  133.9231  156.2427 C   0  0  0  0  0  0  0  0  0  0  0  0
  151.2314  136.0671  155.1552 O   0  0  0  0  0  0  0  0  0  0  0  0
  154.0094  137.8455  159.9000 H   0  0  0  0  0  0  0  0  0  0  0  0
  148.0982  136.8126  163.0732 H   0  0  0  0  0  0  0  0  0  0  0  0
  146.9905  135.5163  163.5457 H   0  0  0  0  0  0  0  0  0  0  0  0
  146.3597  136.9844  162.7864 H   0  0  0  0  0  0  0  0  0  0  0  0
  148.7417  135.3373  159.1740 H   0  0  0  0  0  0  0  0  0  0  0  0
  147.0723  135.6568  158.7268 H   0  0  0  0  0  0  0  0  0  0  0  0
  147.5377  137.8255  157.9581 H   0  0  0  0  0  0  0  0  0  0  0  0
  149.3950  139.9479  158.0083 H   0  0  0  0  0  0  0  0  0  0  0  0
  151.0593  141.4183  158.5918 H   0  0  0  0  0  0  0  0  0  0  0  0
  151.1261  138.0242  156.6258 H   0  0  0  0  0  0  0  0  0  0  0  0
  148.9476  141.5848  154.9805 H   0  0  0  0  0  0  0  0  0  0  0  0
  148.7996  140.4079  153.6662 H   0  0  0  0  0  0  0  0  0  0  0  0
  150.1600  141.5385  153.6929 H   0  0  0  0  0  0  0  0  0  0  0  0
  148.5929  136.8043  156.1824 H   0  0  0  0  0  0  0  0  0  0  0  0
  150.2791  133.3494  155.8961 H   0  0  0  0  0  0  0  0  0  0  0  0
  151.3442  133.6498  157.2779 H   0  0  0  0  0  0  0  0  0  0  0  0
  152.0034  133.6522  155.6369 H   0  0  0  0  0  0  0  0  0  0  0  0
  1  2  1  0  0  0  0
  1 29  1  0  0  0  0
  1 30  1  0  0  0  0
  1 31  1  0  0  0  0
  2  3  2  0  0  0  0
  2  4  1  0  0  0  0
  4  5  1  0  0  0  0
  5  6  1  0  0  0  0
  5 32  1  0  0  0  0
  5 33  1  0  0  0  0
  6 23  1  0  0  0  0
  6  7  1  0  0  0  0
  6 34  1  0  0  0  0
  7  8  1  0  0  0  0
  8  9  1  0  0  0  0
  8 18  1  0  0  0  0
  8 35  1  0  0  0  0
  9 16  1  0  0  0  0
  9 10  1  0  0  0  0
 10 11  2  0  0  0  0
 10 36  1  0  0  0  0
 11 12  1  0  0  0  0
 11 13  1  0  0  0  0
 13 14  2  0  0  0  0
 13 15  1  0  0  0  0
 15 28  1  0  0  0  0
 15 16  1  0  0  0  0
 16 17  2  0  0  0  0
 18 19  1  0  0  0  0
 18 23  1  0  0  0  0
 18 37  1  0  0  0  0
 19 20  1  0  0  0  0
 20 21  1  0  0  0  0
 20 22  2  0  0  0  0
 21 38  1  0  0  0  0
 21 39  1  0  0  0  0
 21 40  1  0  0  0  0
 23 24  1  0  0  0  0
 23 41  1  0  0  0  0
 24 25  1  0  0  0  0
 25 26  1  0  0  0  0
 25 27  2  0  0  0  0
 26 42  1  0  0  0  0
 26 43  1  0  0  0  0
 26 44  1  0  0  0  0
M  END
> <s_m_source_file>
AV-unprocessed.smi

> <i_m_source_file_index>
102

> <i_lp_mmshare_version>
43012

> <i_f3d_flags>
0

> <s_epik_input>
W0NIM11DKD1PKU9bQ0gyXVtDQEBIXTFPW0NASF0oW0NAQEhdKE9DKD1PKVtDSDNdKVtDQEhdMU9DKD1PKVtDSDNdKW4yW2NIXWMoRiljKD1PKVtuSF1jMj1P

> <s_epik_cmdline>
J2VwaWtfcHl0aG9uJywgJy1waCcsICc3LjAnLCAnLXRuJywgJzgnLCAnLW1hJywgJzIwMCcsICctbWV0YWxfYmluZGluZycsICctaW1hZScsICc8aW5maWxlLm1hZT4nLCAnLW9tYWUnLCAnPG91dGZpbGUubWFlPic=

> <r_lp_tautomer_probability>
0.999537

> <r_epik_Ionization_Penalty>
0.058267

> <r_epik_Ionization_Penalty_Charging>
0.058267

> <r_epik_Ionization_Penalty_Neutral>
6.57791e-16

> <r_epik_State_Penalty>
0.0503774

> <r_epik_Charging_Adjusted_Penalty>
0.108644

> <i_epik_Tot_Q>
0

> <i_epik_Tot_abs_Q>
0

> <r_epik_Metal_State_Penalty>
2.6644

> <b_epik_Metal_Only>
0

> <s_epik_Chemistry_Notes>
This compound has an ester and may undergo hydrolysis at high or low pH. This compound contains an acetal/aminal-like group ( X-CH(R)-Y where X, Y are N, S, or O) that may be acid/base labile, releasing an aldehyde.

> <s_lp_Force_Field>
OPLS_2005

> <r_lp_Energy>
13.4822

> <b_lp_Chiralities_Consistent>
1

> <s_lp_Variant>
AV-unprocessed.smi:102-6

> <Gold.Version>
5.8.1

> <Gold.Id.Protein>
6NUR|6NUR_protein|mol2

> <Gold.PLP.Fitness>
45.1720

> <Gold.PLP.PLP>
-39.5088

> <Gold.PLP.part.hbond>
-4.9016

> <Gold.PLP.part.metal>
0.0000

> <Gold.PLP.part.buried>
-6.8829

> <Gold.PLP.part.nonpolar>
-28.0060

> <Gold.PLP.part.repulsive>
0.1902

> <Gold.PLP.ligand.clash>
0.0000

> <Gold.PLP.ligand.torsion>
1.2258

> <Gold.PLP.Chemscore.Hbond>
2.6413

> <Gold.PLP.Chemscore.CHOScore>
0.0000

> <Gold.PLP.Chemscore.Metal>
0.0000

> <Gold.Chemscore.Hbonds>
donor molecule, donor type, donor heavy atom, donor atom, acceptor molecule, acceptor atom, score
      P1  H  6896  6907       L1    17  0.70
      P1  H  7989  7998       L1    22  0.65
      P1  H 10752 10763       L1    27  1.00

> <Gold.PLP.Chemscore.Internal.Correction>
0.1911

> <Gold.Rescore>
     Score         DG    S(hbond)    S(metal)    S(lipo)     H(rot)  DE(clash)    DE(int)     intcor
      2.01      -7.27       1.94        0.00      48.62       4.05       0.03       5.23       ----

> <Gold.Chemscore.Fitness>
2.0107

> <Gold.Chemscore.DG>
-7.2709

> <Gold.Chemscore.ZeroCoef>
-5.4800

> <Gold.Chemscore.Hbond>
1.9387

> <Gold.Chemscore.Metal>
0.0000

> <Gold.Chemscore.Lipo>
48.6221

> <Gold.Chemscore.Internal_Hbond>
0.0000

> <Gold.Chemscore.DEClash>
0.0289

> <Gold.Chemscore.DEInternal>
5.2314

> <Gold.Chemscore.Rot>
4.0520

> <Gold.Chemscore.Internal.Correction>
   9.000000E+99

> <Gold.Chemscore.Hbonds>
donor molecule, donor type, donor heavy atom, donor atom, acceptor molecule, acceptor atom, score
      P1  H  6896  6907       L1    17  0.65
      P1  H  7989  7998       L1    22  0.05
      P1  H 10752 10763       L1    27  0.90

> <Gold.Chemscore.Hbond.Weighted>
-6.4753

> <Gold.Chemscore.Metal.Weighted>
-0.0000

> <Gold.Chemscore.Lipo.Weighted>
-5.6888

> <Gold.Chemscore.Internal_Hbond.Weighted>
0.0000

> <Gold.Chemscore.DEClash.Weighted>
0.0289

> <Gold.Chemscore.DEInternal.Weighted>
5.2314

> <Gold.Chemscore.Rot.Weighted>
10.3732

> <Gold.Chemscore.Internal.Correction.Weighted>
   9.000000E+99

> <Gold.Protein.RotatedTorsions>
[ 6907 6896 6895 6894 ] final    0.49 input  -60.11 | X-H torsion
[ 7974 7965 7964 7962 ] final  156.88 input  175.53 | X-H torsion
[ 8008 7997 7996 7995 ] final  105.15 input   59.86 | X-H torsion
[ 10167 10162 10161 10158 ] final  176.22 input  -65.29 | X-H torsion
[ 10718 10713 10712 10709 ] final   78.10 input   66.30 | X-H torsion
[ 10763 10752 10751 10750 ] final   52.84 input  -60.55 | X-H torsion
[ 11005 11000 10999 10996 ] final  173.87 input  -57.11 | X-H torsion

> <Gold.Protein.ActiveResidues>
 VAL166  LYS551  ARG553  GLY616  TRP617  ASP618  TYR619  PRO620  LYS621  CYS622 
 ASP623  PHE694  ASN695  SER759  ASP760  ASP761  ALA762  ILE779  LEU786  VAL792 
 PHE793  MET794  SER795  GLU796  ALA797  LYS798  CYS799  TRP800  GLU811  SER814 

> <Gold.Protein.RotatedAtoms>
  151.5773  135.1060  160.0008 H   0  0  0  0  0  0  0  0  0  0  0  0  # atno 6907 bound_to 6896
  152.4371  133.7377  159.6634 H   0  0  0  0  0  0  0  0  0  0  0  0  # atno 6908 bound_to 6896
  150.8271  133.8084  159.3137 H   0  0  0  0  0  0  0  0  0  0  0  0  # atno 6909 bound_to 6896
  144.7937  139.7264  143.6211 H   0  0  0  0  0  0  0  0  0  0  0  0  # atno 7974 bound_to 7965
  156.1635  140.3135  155.8847 H   0  0  0  0  0  0  0  0  0  0  0  0  # atno 8008 bound_to 7997
  155.3734  140.0483  157.3062 H   0  0  0  0  0  0  0  0  0  0  0  0  # atno 8009 bound_to 7997
  154.5169  140.2184  155.9059 H   0  0  0  0  0  0  0  0  0  0  0  0  # atno 8010 bound_to 7997
  139.5206  144.2941  152.0438 H   0  0  0  0  0  0  0  0  0  0  0  0  # atno 10167 bound_to 10162
  157.6733  130.9852  150.1737 H   0  0  0  0  0  0  0  0  0  0  0  0  # atno 10718 bound_to 10713
  152.9791  135.5799  154.4645 H   0  0  0  0  0  0  0  0  0  0  0  0  # atno 10763 bound_to 10752
  154.4216  135.2772  155.1974 H   0  0  0  0  0  0  0  0  0  0  0  0  # atno 10764 bound_to 10752
  154.3720  135.6165  153.5799 H   0  0  0  0  0  0  0  0  0  0  0  0  # atno 10765 bound_to 10752
  140.3452  134.7243  157.4230 H   0  0  0  0  0  0  0  0  0  0  0  0  # atno 11005 bound_to 11000
  146.2197  139.5614  142.9626 LP  0  0  0  0  0  0  0  0  0  0  0  0  # atno 17320 bound_to 7965
  145.5729  141.0392  143.2164 LP  0  0  0  0  0  0  0  0  0  0  0  0  # atno 17321 bound_to 7965
  140.2391  144.4288  150.6267 LP  0  0  0  0  0  0  0  0  0  0  0  0  # atno 17342 bound_to 10162
  140.6303  143.2186  151.6509 LP  0  0  0  0  0  0  0  0  0  0  0  0  # atno 17343 bound_to 10162
  156.2486  130.3698  149.8258 LP  0  0  0  0  0  0  0  0  0  0  0  0  # atno 17370 bound_to 10713
  156.6037  130.8557  151.3438 LP  0  0  0  0  0  0  0  0  0  0  0  0  # atno 17371 bound_to 10713
  140.0748  134.5812  155.8602 LP  0  0  0  0  0  0  0  0  0  0  0  0  # atno 17394 bound_to 11000
  141.2027  133.6627  156.6024 LP  0  0  0  0  0  0  0  0  0  0  0  0  # atno 17395 bound_to 11000

$$$$
