AV-unprocessed.smi:688|AV-procd|sdf|3355|dock7
  -GOLD-   22720 0333D 1   1.00000     0.00000
 Structure written by MMmdl.
 36 37  0  0  0  0  0  0  0  0  1 V2000
  144.2076  144.5655  156.1794 O   0  0  0  0  0  0  0  0  0  0  0  0
  144.8694  143.7012  155.6083 C   0  0  0  0  0  0  0  0  0  0  0  0
  145.3964  142.6318  156.3390 N   0  0  0  0  0  0  0  0  0  0  0  0
  146.1615  141.5892  155.8156 C   0  0  0  0  0  0  0  0  0  0  0  0
  146.5754  140.6989  156.5582 O   0  0  0  0  0  0  0  0  0  0  0  0
  146.4205  141.6240  154.4263 N   0  0  0  0  0  0  0  0  0  0  0  0
  147.2204  140.5614  153.8634 C   0  0  0  0  0  0  0  0  0  0  0  0
  148.5236  140.2690  154.6412 C   0  0  1  0  0  0  0  0  0  0  0  0
  149.1720  139.2023  153.9801 O   0  0  0  0  0  0  0  0  0  0  0  0
  149.4936  141.4630  154.6883 C   0  0  0  0  0  0  0  0  0  0  0  0
  149.7189  141.8162  156.0429 O   0  0  0  0  0  0  0  0  0  0  0  0
  150.7584  142.7675  156.1991 C   0  0  0  0  0  0  0  0  0  0  0  0
  151.2866  142.7787  157.6194 C   0  0  0  0  0  0  0  0  0  0  0  0
  151.6990  141.5728  158.2236 C   0  0  0  0  0  0  0  0  0  0  0  0
  152.1862  141.5733  159.5450 C   0  0  0  0  0  0  0  0  0  0  0  0
  152.2619  142.7799  160.2676 C   0  0  0  0  0  0  0  0  0  0  0  0
  152.8599  142.7809  161.8861 Cl  0  0  0  0  0  0  0  0  0  0  0  0
  151.8479  143.9857  159.6684 C   0  0  0  0  0  0  0  0  0  0  0  0
  151.3589  143.9851  158.3473 C   0  0  0  0  0  0  0  0  0  0  0  0
  145.9182  142.6667  153.6621 C   0  0  0  0  0  0  0  0  0  0  0  0
  145.1768  143.6762  154.1789 C   0  0  0  0  0  0  0  0  0  0  0  0
  144.5909  144.9431  153.1612 Cl  0  0  0  0  0  0  0  0  0  0  0  0
  145.2065  142.6120  157.3304 H   0  0  0  0  0  0  0  0  0  0  0  0
  146.5731  139.6837  153.7952 H   0  0  0  0  0  0  0  0  0  0  0  0
  147.4388  140.8536  152.8348 H   0  0  0  0  0  0  0  0  0  0  0  0
  148.2846  139.9484  155.6557 H   0  0  0  0  0  0  0  0  0  0  0  0
  149.2173  139.4074  153.0585 H   0  0  0  0  0  0  0  0  0  0  0  0
  150.4278  141.2314  154.1735 H   0  0  0  0  0  0  0  0  0  0  0  0
  149.0554  142.3268  154.1879 H   0  0  0  0  0  0  0  0  0  0  0  0
  151.5697  142.5472  155.5032 H   0  0  0  0  0  0  0  0  0  0  0  0
  150.3904  143.7667  155.9608 H   0  0  0  0  0  0  0  0  0  0  0  0
  151.6431  140.6450  157.6731 H   0  0  0  0  0  0  0  0  0  0  0  0
  152.5013  140.6470  160.0026 H   0  0  0  0  0  0  0  0  0  0  0  0
  151.9042  144.9124  160.2208 H   0  0  0  0  0  0  0  0  0  0  0  0
  151.0424  144.9141  157.8963 H   0  0  0  0  0  0  0  0  0  0  0  0
  146.1299  142.6830  152.6024 H   0  0  0  0  0  0  0  0  0  0  0  0
  1  2  2  0  0  0  0
  2 21  1  0  0  0  0
  2  3  1  0  0  0  0
  3 23  1  0  0  0  0
  3  4  1  0  0  0  0
  4  5  2  0  0  0  0
  4  6  1  0  0  0  0
  6  7  1  0  0  0  0
  6 20  1  0  0  0  0
  7  8  1  0  0  0  0
  7 24  1  0  0  0  0
  7 25  1  0  0  0  0
  8  9  1  0  0  0  0
  8 10  1  0  0  0  0
  8 26  1  0  0  0  0
  9 27  1  0  0  0  0
 10 11  1  0  0  0  0
 10 28  1  0  0  0  0
 10 29  1  0  0  0  0
 11 12  1  0  0  0  0
 12 13  1  0  0  0  0
 12 30  1  0  0  0  0
 12 31  1  0  0  0  0
 13 19  1  0  0  0  0
 13 14  2  0  0  0  0
 14 15  1  0  0  0  0
 14 32  1  0  0  0  0
 15 16  2  0  0  0  0
 15 33  1  0  0  0  0
 16 17  1  0  0  0  0
 16 18  1  0  0  0  0
 18 19  2  0  0  0  0
 18 34  1  0  0  0  0
 19 35  1  0  0  0  0
 20 21  2  0  0  0  0
 20 36  1  0  0  0  0
 21 22  1  0  0  0  0
M  END
> <s_m_source_file>
AV-unprocessed.smi

> <i_m_source_file_index>
688

> <i_lp_mmshare_version>
43012

> <i_f3d_flags>
0

> <s_epik_input>
Tz1jMVtuSF1jKD1PKW4oW2NIXWMxQ2wpW0NIMl1bQ0BIXShbT0hdKVtDSDJdT1tDSDJdYzJbY0hdW2NIXWMoQ2wpW2NIXVtjSF0y

> <s_epik_cmdline>
J2VwaWtfcHl0aG9uJywgJy1waCcsICc3LjAnLCAnLXRuJywgJzgnLCAnLW1hJywgJzIwMCcsICctbWV0YWxfYmluZGluZycsICctaW1hZScsICc8aW5maWxlLm1hZT4nLCAnLW9tYWUnLCAnPG91dGZpbGUubWFlPic=

> <r_lp_tautomer_probability>
0.999537

> <r_epik_Ionization_Penalty>
0.0280571

> <r_epik_Ionization_Penalty_Charging>
0.028057

> <r_epik_Ionization_Penalty_Neutral>
6.25502e-08

> <r_epik_State_Penalty>
0.0230008

> <r_epik_Charging_Adjusted_Penalty>
0.0510579

> <i_epik_Tot_Q>
0

> <i_epik_Tot_abs_Q>
0

> <r_epik_Metal_State_Penalty>
2.1942

> <b_epik_Metal_Only>
0

> <s_lp_Force_Field>
OPLS_2005

> <r_lp_Energy>
13.9943

> <b_lp_Chiralities_Consistent>
1

> <s_lp_Variant>
AV-unprocessed.smi:688-2

> <Gold.Version>
5.8.1

> <Gold.Id.Protein>
6NUR|6NUR_protein|mol2

> <Gold.PLP.Fitness>
46.3061

> <Gold.PLP.PLP>
-45.2335

> <Gold.PLP.part.hbond>
-1.0000

> <Gold.PLP.part.metal>
0.0000

> <Gold.PLP.part.buried>
-4.8018

> <Gold.PLP.part.nonpolar>
-40.4077

> <Gold.PLP.part.repulsive>
0.2799

> <Gold.PLP.ligand.clash>
0.0000

> <Gold.PLP.ligand.torsion>
1.0289

> <Gold.PLP.Chemscore.Hbond>
1.0000

> <Gold.PLP.Chemscore.CHOScore>
0.0000

> <Gold.PLP.Chemscore.Metal>
0.0000

> <Gold.Chemscore.Hbonds>
donor molecule, donor type, donor heavy atom, donor atom, acceptor molecule, acceptor atom, score
      L1  H     9    27       P1  7957  0.99

> <Gold.PLP.Chemscore.Internal.Correction>
0.1304

> <Gold.Rescore>
     Score         DG    S(hbond)    S(metal)    S(lipo)     H(rot)  DE(clash)    DE(int)     intcor
     12.14     -16.21       0.99        0.00     127.83       2.94       1.57       2.50       ----

> <Gold.Chemscore.Fitness>
12.1411

> <Gold.Chemscore.DG>
-16.2072

> <Gold.Chemscore.ZeroCoef>
-5.4800

> <Gold.Chemscore.Hbond>
0.9893

> <Gold.Chemscore.Metal>
0.0000

> <Gold.Chemscore.Lipo>
127.8336

> <Gold.Chemscore.Internal_Hbond>
0.0000

> <Gold.Chemscore.DEClash>
1.5663

> <Gold.Chemscore.DEInternal>
2.4997

> <Gold.Chemscore.Rot>
2.9429

> <Gold.Chemscore.Internal.Correction>
   9.000000E+99

> <Gold.Chemscore.Hbonds>
donor molecule, donor type, donor heavy atom, donor atom, acceptor molecule, acceptor atom, score
      L1  H     9    27       P1  7957  0.92

> <Gold.Chemscore.Hbond.Weighted>
-3.3044

> <Gold.Chemscore.Metal.Weighted>
-0.0000

> <Gold.Chemscore.Lipo.Weighted>
-14.9565

> <Gold.Chemscore.Internal_Hbond.Weighted>
0.0000

> <Gold.Chemscore.DEClash.Weighted>
1.5663

> <Gold.Chemscore.DEInternal.Weighted>
2.4997

> <Gold.Chemscore.Rot.Weighted>
7.5337

> <Gold.Chemscore.Internal.Correction.Weighted>
   9.000000E+99

> <Gold.Protein.RotatedTorsions>
[ 6907 6896 6895 6894 ] final   17.39 input  -60.11 | X-H torsion
[ 7974 7965 7964 7962 ] final  105.47 input  175.53 | X-H torsion
[ 8008 7997 7996 7995 ] final  124.85 input   59.86 | X-H torsion
[ 10167 10162 10161 10158 ] final  105.71 input  -65.29 | X-H torsion
[ 10718 10713 10712 10709 ] final   62.61 input   66.30 | X-H torsion
[ 10763 10752 10751 10750 ] final -131.91 input  -60.55 | X-H torsion
[ 11005 11000 10999 10996 ] final   40.20 input  -57.11 | X-H torsion

> <Gold.Protein.ActiveResidues>
 VAL166  LYS551  ARG553  GLY616  TRP617  ASP618  TYR619  PRO620  LYS621  CYS622 
 ASP623  PHE694  ASN695  SER759  ASP760  ASP761  ALA762  ILE779  LEU786  VAL792 
 PHE793  MET794  SER795  GLU796  ALA797  LYS798  CYS799  TRP800  GLU811  SER814 

> <Gold.Protein.RotatedAtoms>
  151.8489  135.0564  160.0456 H   0  0  0  0  0  0  0  0  0  0  0  0  # atno 6907 bound_to 6896
  152.2752  133.5414  159.5472 H   0  0  0  0  0  0  0  0  0  0  0  0  # atno 6908 bound_to 6896
  150.7167  134.0558  159.3856 H   0  0  0  0  0  0  0  0  0  0  0  0  # atno 6909 bound_to 6896
  145.3192  139.2517  143.3721 H   0  0  0  0  0  0  0  0  0  0  0  0  # atno 7974 bound_to 7965
  156.2815  140.2730  156.1855 H   0  0  0  0  0  0  0  0  0  0  0  0  # atno 8008 bound_to 7997
  155.0512  140.0386  157.2562 H   0  0  0  0  0  0  0  0  0  0  0  0  # atno 8009 bound_to 7997
  154.7193  140.2684  155.6561 H   0  0  0  0  0  0  0  0  0  0  0  0  # atno 8010 bound_to 7997
  139.7070  144.7084  151.1090 H   0  0  0  0  0  0  0  0  0  0  0  0  # atno 10167 bound_to 10162
  157.5913  130.9059  149.9609 H   0  0  0  0  0  0  0  0  0  0  0  0  # atno 10718 bound_to 10713
  154.8747  135.3815  154.4323 H   0  0  0  0  0  0  0  0  0  0  0  0  # atno 10763 bound_to 10752
  153.5016  135.7030  153.5834 H   0  0  0  0  0  0  0  0  0  0  0  0  # atno 10764 bound_to 10752
  153.4163  135.3912  155.2049 H   0  0  0  0  0  0  0  0  0  0  0  0  # atno 10765 bound_to 10752
  140.1954  134.3935  155.8124 H   0  0  0  0  0  0  0  0  0  0  0  0  # atno 11005 bound_to 11000
  146.3089  140.3746  142.8677 LP  0  0  0  0  0  0  0  0  0  0  0  0  # atno 17320 bound_to 7965
  144.8953  140.7575  143.5901 LP  0  0  0  0  0  0  0  0  0  0  0  0  # atno 17321 bound_to 7965
  140.7724  143.5345  150.9384 LP  0  0  0  0  0  0  0  0  0  0  0  0  # atno 17342 bound_to 10162
  139.9028  143.6814  152.3128 LP  0  0  0  0  0  0  0  0  0  0  0  0  # atno 17343 bound_to 10162
  156.0968  130.3659  150.0292 LP  0  0  0  0  0  0  0  0  0  0  0  0  # atno 17370 bound_to 10713
  156.8414  130.9427  151.3631 LP  0  0  0  0  0  0  0  0  0  0  0  0  # atno 17371 bound_to 10713
  141.2227  133.7067  156.8167 LP  0  0  0  0  0  0  0  0  0  0  0  0  # atno 17394 bound_to 11000
  140.2113  134.8825  157.3277 LP  0  0  0  0  0  0  0  0  0  0  0  0  # atno 17395 bound_to 11000

$$$$
