AV-unprocessed.smi:957|AV-procd|sdf|4265|dock8
  -GOLD-   22720 2173D 1   1.00000     0.00000
 Structure written by MMmdl.
 30 31  0  0  0  0  0  0  0  0  2 V2000
  152.7831  143.1801  161.9009 C   0  0  0  0  0  0  0  0  0  0  0  0
  152.2351  142.7049  160.5498 C   0  0  0  0  0  0  0  0  0  0  0  0
  153.0356  141.6296  159.9903 N   0  0  0  0  0  0  0  0  0  0  0  0
  154.2157  141.1671  160.4315 C   0  0  0  0  0  0  0  0  0  0  0  0
  154.7304  140.1638  159.7233 N   0  0  0  0  0  0  0  0  0  0  0  0
  153.8092  139.9386  158.7220 N   0  0  0  0  0  0  0  0  0  0  0  0
  152.8295  140.8307  158.9196 C   0  0  0  0  0  0  0  0  0  0  0  0
  151.6129  140.9202  158.0404 C   0  0  2  0  0  0  0  0  0  0  0  0
  151.7780  140.1041  156.7439 C   0  0  0  0  0  0  0  0  0  0  0  0
  150.5250  140.2315  155.8642 C   0  0  0  0  0  0  0  0  0  0  0  0
  150.1927  141.7081  155.5934 C   0  0  0  0  0  0  0  0  0  0  0  0
  150.0375  142.4506  156.8632 N   0  3  0  0  0  0  0  0  0  0  0  0
  151.2398  142.3832  157.7231 C   0  0  0  0  0  0  0  0  0  0  0  0
  152.1778  143.9948  162.2987 H   0  0  0  0  0  0  0  0  0  0  0  0
  153.8062  143.5443  161.8032 H   0  0  0  0  0  0  0  0  0  0  0  0
  152.7835  142.3773  162.6383 H   0  0  0  0  0  0  0  0  0  0  0  0
  151.2020  142.3700  160.6444 H   0  0  0  0  0  0  0  0  0  0  0  0
  152.2264  143.5350  159.8424 H   0  0  0  0  0  0  0  0  0  0  0  0
  154.7143  141.5757  161.2982 H   0  0  0  0  0  0  0  0  0  0  0  0
  150.7690  140.4904  158.5785 H   0  0  0  0  0  0  0  0  0  0  0  0
  152.6478  140.4570  156.1878 H   0  0  0  0  0  0  0  0  0  0  0  0
  151.9626  139.0551  156.9777 H   0  0  0  0  0  0  0  0  0  0  0  0
  150.6755  139.7036  154.9219 H   0  0  0  0  0  0  0  0  0  0  0  0
  149.6798  139.7491  156.3572 H   0  0  0  0  0  0  0  0  0  0  0  0
  150.9817  142.1723  155.0001 H   0  0  0  0  0  0  0  0  0  0  0  0
  149.2704  141.7896  155.0178 H   0  0  0  0  0  0  0  0  0  0  0  0
  149.8386  143.4188  156.6546 H   0  0  0  0  0  0  0  0  0  0  0  0
  151.0443  142.9332  158.6443 H   0  0  0  0  0  0  0  0  0  0  0  0
  152.0630  142.8904  157.2179 H   0  0  0  0  0  0  0  0  0  0  0  0
  149.2567  142.0596  157.3705 H   0  0  0  0  0  0  0  0  0  0  0  0
  1  2  1  0  0  0  0
  1 14  1  0  0  0  0
  1 15  1  0  0  0  0
  1 16  1  0  0  0  0
  2  3  1  0  0  0  0
  2 17  1  0  0  0  0
  2 18  1  0  0  0  0
  3  7  1  0  0  0  0
  3  4  1  0  0  0  0
  4  5  2  0  0  0  0
  4 19  1  0  0  0  0
  5  6  1  0  0  0  0
  6  7  2  0  0  0  0
  7  8  1  0  0  0  0
  8 13  1  0  0  0  0
  8  9  1  0  0  0  0
  8 20  1  0  0  0  0
  9 10  1  0  0  0  0
  9 21  1  0  0  0  0
  9 22  1  0  0  0  0
 10 11  1  0  0  0  0
 10 23  1  0  0  0  0
 10 24  1  0  0  0  0
 11 12  1  0  0  0  0
 11 25  1  0  0  0  0
 11 26  1  0  0  0  0
 12 13  1  0  0  0  0
 12 27  1  0  0  0  0
 12 30  1  0  0  0  0
 13 28  1  0  0  0  0
 13 29  1  0  0  0  0
M  CHG  1  12   1
M  END
> <s_m_source_file>
AV-unprocessed.smi

> <i_m_source_file_index>
957

> <i_lp_mmshare_version>
43012

> <i_f3d_flags>
0

> <s_epik_input>
W0NIM11bQ0gyXW4xW2NIXW5uYzFbQ0BASF0yW0NIMl1bQ0gyXVtDSDJdW05IXVtDSDJdMg==

> <s_epik_cmdline>
J2VwaWtfcHl0aG9uJywgJy1waCcsICc3LjAnLCAnLXRuJywgJzgnLCAnLW1hJywgJzIwMCcsICctbWV0YWxfYmluZGluZycsICctaW1hZScsICc8aW5maWxlLm1hZT4nLCAnLW9tYWUnLCAnPG91dGZpbGUubWFlPic=

> <r_lp_tautomer_probability>
1

> <r_epik_Ionization_Penalty>
0.000442722

> <r_epik_Ionization_Penalty_Charging>
0.000426856

> <r_epik_Ionization_Penalty_Neutral>
1.58656e-05

> <r_epik_State_Penalty>
-0

> <r_epik_Charging_Adjusted_Penalty>
0.000426856

> <i_epik_Tot_Q>
1

> <i_epik_Tot_abs_Q>
1

> <r_epik_Metal_State_Penalty>
-0

> <b_epik_Metal_Only>
0

> <s_lp_Force_Field>
OPLS_2005

> <r_lp_Energy>
16.0383

> <b_lp_Chiralities_Consistent>
1

> <s_lp_Variant>
AV-unprocessed.smi:957-1

> <Gold.Version>
5.8.1

> <Gold.Id.Protein>
6NUR|6NUR_protein|mol2

> <Gold.PLP.Fitness>
38.3548

> <Gold.PLP.PLP>
-30.1971

> <Gold.PLP.part.hbond>
-2.0576

> <Gold.PLP.part.metal>
0.0000

> <Gold.PLP.part.buried>
-3.1549

> <Gold.PLP.part.nonpolar>
-24.2717

> <Gold.PLP.part.repulsive>
0.0256

> <Gold.PLP.ligand.clash>
0.0000

> <Gold.PLP.ligand.torsion>
0.4345

> <Gold.PLP.Chemscore.Hbond>
3.0000

> <Gold.PLP.Chemscore.CHOScore>
0.0000

> <Gold.PLP.Chemscore.Metal>
0.0000

> <Gold.Chemscore.Hbonds>
donor molecule, donor type, donor heavy atom, donor atom, acceptor molecule, acceptor atom, score
      L1  H    12    27       P1  8028  2.00
      P1  H  7997  8010       L1     6  1.00

> <Gold.PLP.Chemscore.Internal.Correction>
0.0267

> <Gold.Rescore>
     Score         DG    S(hbond)    S(metal)    S(lipo)     H(rot)  DE(clash)    DE(int)     intcor
     14.54     -14.79       1.77        0.00      56.60       1.26       0.04       0.21       ----

> <Gold.Chemscore.Fitness>
14.5432

> <Gold.Chemscore.DG>
-14.7925

> <Gold.Chemscore.ZeroCoef>
-5.4800

> <Gold.Chemscore.Hbond>
1.7693

> <Gold.Chemscore.Metal>
0.0000

> <Gold.Chemscore.Lipo>
56.5975

> <Gold.Chemscore.Internal_Hbond>
0.0000

> <Gold.Chemscore.DEClash>
0.0368

> <Gold.Chemscore.DEInternal>
0.2126

> <Gold.Chemscore.Rot>
1.2573

> <Gold.Chemscore.Internal.Correction>
   9.000000E+99

> <Gold.Chemscore.Hbonds>
donor molecule, donor type, donor heavy atom, donor atom, acceptor molecule, acceptor atom, score
      L1  H    12    27       P1  8028  0.95
      P1  H  7997  8010       L1     6  0.58

> <Gold.Chemscore.Hbond.Weighted>
-5.9094

> <Gold.Chemscore.Metal.Weighted>
-0.0000

> <Gold.Chemscore.Lipo.Weighted>
-6.6219

> <Gold.Chemscore.Internal_Hbond.Weighted>
0.0000

> <Gold.Chemscore.DEClash.Weighted>
0.0368

> <Gold.Chemscore.DEInternal.Weighted>
0.2126

> <Gold.Chemscore.Rot.Weighted>
3.2188

> <Gold.Chemscore.Internal.Correction.Weighted>
   9.000000E+99

> <Gold.Protein.RotatedTorsions>
[ 6907 6896 6895 6894 ] final -159.26 input  -60.11 | X-H torsion
[ 7974 7965 7964 7962 ] final -159.97 input  175.53 | X-H torsion
[ 8008 7997 7996 7995 ] final   29.40 input   59.86 | X-H torsion
[ 10167 10162 10161 10158 ] final  -83.61 input  -65.29 | X-H torsion
[ 10718 10713 10712 10709 ] final  -85.49 input   66.30 | X-H torsion
[ 10763 10752 10751 10750 ] final  -67.78 input  -60.55 | X-H torsion
[ 11005 11000 10999 10996 ] final -120.56 input  -57.11 | X-H torsion

> <Gold.Protein.ActiveResidues>
 VAL166  LYS551  ARG553  GLY616  TRP617  ASP618  TYR619  PRO620  LYS621  CYS622 
 ASP623  PHE694  ASN695  SER759  ASP760  ASP761  ALA762  ILE779  LEU786  VAL792 
 PHE793  MET794  SER795  GLU796  ALA797  LYS798  CYS799  TRP800  GLU811  SER814 

> <Gold.Protein.RotatedAtoms>
  151.3309  133.4001  159.2662 H   0  0  0  0  0  0  0  0  0  0  0  0  # atno 6907 bound_to 6896
  150.9957  134.9282  159.7935 H   0  0  0  0  0  0  0  0  0  0  0  0  # atno 6908 bound_to 6896
  152.5260  134.3274  159.9222 H   0  0  0  0  0  0  0  0  0  0  0  0  # atno 6909 bound_to 6896
  144.7445  140.3609  143.6096 H   0  0  0  0  0  0  0  0  0  0  0  0  # atno 7974 bound_to 7965
  155.0739  140.3203  155.4622 H   0  0  0  0  0  0  0  0  0  0  0  0  # atno 8008 bound_to 7997
  156.2784  140.2107  156.5812 H   0  0  0  0  0  0  0  0  0  0  0  0  # atno 8009 bound_to 7997
  154.7032  140.0505  157.0466 H   0  0  0  0  0  0  0  0  0  0  0  0  # atno 8010 bound_to 7997
  140.4211  143.2584  151.8889 H   0  0  0  0  0  0  0  0  0  0  0  0  # atno 10167 bound_to 10162
  155.9996  130.4733  150.4570 H   0  0  0  0  0  0  0  0  0  0  0  0  # atno 10718 bound_to 10713
  154.3795  135.6077  153.5783 H   0  0  0  0  0  0  0  0  0  0  0  0  # atno 10763 bound_to 10752
  152.9788  135.5857  154.4427 H   0  0  0  0  0  0  0  0  0  0  0  0  # atno 10764 bound_to 10752
  154.4194  135.2845  155.1963 H   0  0  0  0  0  0  0  0  0  0  0  0  # atno 10765 bound_to 10752
  141.0134  134.0231  157.3382 H   0  0  0  0  0  0  0  0  0  0  0  0  # atno 11005 bound_to 11000
  145.7178  139.1701  143.2502 LP  0  0  0  0  0  0  0  0  0  0  0  0  # atno 17320 bound_to 7965
  146.1299  140.7199  142.9417 LP  0  0  0  0  0  0  0  0  0  0  0  0  # atno 17321 bound_to 7965
  139.4782  144.5437  151.8491 LP  0  0  0  0  0  0  0  0  0  0  0  0  # atno 17342 bound_to 10162
  140.4533  144.1825  150.5899 LP  0  0  0  0  0  0  0  0  0  0  0  0  # atno 17343 bound_to 10162
  157.2597  131.0564  151.2328 LP  0  0  0  0  0  0  0  0  0  0  0  0  # atno 17370 bound_to 10713
  157.3447  130.7051  149.6403 LP  0  0  0  0  0  0  0  0  0  0  0  0  # atno 17371 bound_to 10713
  139.9103  135.0188  156.7663 LP  0  0  0  0  0  0  0  0  0  0  0  0  # atno 17394 bound_to 11000
  140.6695  133.9572  155.7848 LP  0  0  0  0  0  0  0  0  0  0  0  0  # atno 17395 bound_to 11000

$$$$
