AV-unprocessed.smi:720|AV-procd|sdf|3502|dock8
  -GOLD-   22720 0493D 1   1.00000     0.00000
 Structure written by MMmdl.
 46 48  0  0  0  0  0  0  0  0  1 V2000
  146.2954  135.3422  153.0990 C   0  0  0  0  0  0  0  0  0  0  0  0
  145.3587  136.4566  153.0191 N   0  0  0  0  0  0  0  0  0  0  0  0
  144.4606  136.2165  151.8972 C   0  0  0  0  0  0  0  0  0  0  0  0
  146.0416  137.7352  152.8139 C   0  0  0  0  0  0  0  0  0  0  0  0
  147.1089  138.0477  153.8846 C   0  0  0  0  0  0  0  0  0  0  0  0
  147.3969  139.4658  154.0161 N   0  0  0  0  0  0  0  0  0  0  0  0
  146.9069  140.5139  153.2615 C   0  0  0  0  0  0  0  0  0  0  0  0
  147.4347  141.6680  153.7666 C   0  0  0  0  0  0  0  0  0  0  0  0
  148.2362  141.2136  154.8492 C   0  0  0  0  0  0  0  0  0  0  0  0
  148.9672  142.1340  155.6416 N   0  0  0  0  0  0  0  0  0  0  0  0
  150.0575  141.8915  156.3949 C   0  0  0  0  0  0  0  0  0  0  0  0
  150.5964  140.7924  156.5113 O   0  0  0  0  0  0  0  0  0  0  0  0
  150.5417  142.9755  157.0274 N   0  0  0  0  0  0  0  0  0  0  0  0
  151.7047  143.0558  157.9156 C   0  0  1  0  0  0  0  0  0  0  0  0
  152.4313  144.4101  157.7613 C   0  0  0  0  0  0  0  0  0  0  0  0
  152.4022  144.9874  159.1885 C   0  0  1  0  0  0  0  0  0  0  0  0
  150.9663  145.4204  159.5408 C   0  0  0  0  0  0  0  0  0  0  0  0
  150.2465  144.0749  159.7511 C   0  0  0  0  0  0  0  0  0  0  0  0
  151.3518  143.0471  159.4263 C   0  0  2  0  0  0  0  0  0  0  0  0
  152.5717  143.7319  160.0333 C   0  0  0  0  0  0  0  0  0  0  0  0
  148.2034  139.8983  155.0099 N   0  0  0  0  0  0  0  0  0  0  0  0
  146.9075  135.4077  153.9962 H   0  0  0  0  0  0  0  0  0  0  0  0
  146.9548  135.3111  152.2308 H   0  0  0  0  0  0  0  0  0  0  0  0
  145.7585  134.3944  153.1538 H   0  0  0  0  0  0  0  0  0  0  0  0
  143.7193  137.0126  151.8202 H   0  0  0  0  0  0  0  0  0  0  0  0
  143.9201  135.2788  152.0304 H   0  0  0  0  0  0  0  0  0  0  0  0
  145.0067  136.1651  150.9539 H   0  0  0  0  0  0  0  0  0  0  0  0
  146.4547  137.7995  151.8062 H   0  0  0  0  0  0  0  0  0  0  0  0
  145.2880  138.5210  152.8811 H   0  0  0  0  0  0  0  0  0  0  0  0
  146.7471  137.7081  154.8556 H   0  0  0  0  0  0  0  0  0  0  0  0
  148.0300  137.4947  153.6921 H   0  0  0  0  0  0  0  0  0  0  0  0
  146.2317  140.3519  152.4344 H   0  0  0  0  0  0  0  0  0  0  0  0
  147.2715  142.6764  153.4162 H   0  0  0  0  0  0  0  0  0  0  0  0
  148.6354  143.0869  155.6247 H   0  0  0  0  0  0  0  0  0  0  0  0
  150.0531  143.8444  156.8659 H   0  0  0  0  0  0  0  0  0  0  0  0
  152.4047  142.2501  157.6857 H   0  0  0  0  0  0  0  0  0  0  0  0
  153.4590  144.2533  157.4309 H   0  0  0  0  0  0  0  0  0  0  0  0
  151.9553  145.0787  157.0425 H   0  0  0  0  0  0  0  0  0  0  0  0
  153.1479  145.7642  159.3602 H   0  0  0  0  0  0  0  0  0  0  0  0
  150.9494  146.0114  160.4573 H   0  0  0  0  0  0  0  0  0  0  0  0
  150.5100  146.0158  158.7493 H   0  0  0  0  0  0  0  0  0  0  0  0
  149.9299  143.9754  160.7901 H   0  0  0  0  0  0  0  0  0  0  0  0
  149.3560  143.9711  159.1315 H   0  0  0  0  0  0  0  0  0  0  0  0
  151.1468  142.0522  159.8228 H   0  0  0  0  0  0  0  0  0  0  0  0
  153.5063  143.2026  159.8399 H   0  0  0  0  0  0  0  0  0  0  0  0
  152.4798  143.9152  161.1056 H   0  0  0  0  0  0  0  0  0  0  0  0
  1  2  1  0  0  0  0
  1 22  1  0  0  0  0
  1 23  1  0  0  0  0
  1 24  1  0  0  0  0
  2  3  1  0  0  0  0
  2  4  1  0  0  0  0
  3 25  1  0  0  0  0
  3 26  1  0  0  0  0
  3 27  1  0  0  0  0
  4  5  1  0  0  0  0
  4 28  1  0  0  0  0
  4 29  1  0  0  0  0
  5  6  1  0  0  0  0
  5 30  1  0  0  0  0
  5 31  1  0  0  0  0
  6 21  1  0  0  0  0
  6  7  1  0  0  0  0
  7  8  2  0  0  0  0
  7 32  1  0  0  0  0
  8  9  1  0  0  0  0
  8 33  1  0  0  0  0
  9 10  1  0  0  0  0
  9 21  2  0  0  0  0
 10 11  1  0  0  0  0
 10 34  1  0  0  0  0
 11 12  2  0  0  0  0
 11 13  1  0  0  0  0
 13 14  1  0  0  0  0
 13 35  1  0  0  0  0
 14 19  1  0  0  0  0
 14 15  1  0  0  0  0
 14 36  1  0  0  0  0
 15 16  1  0  0  0  0
 15 37  1  0  0  0  0
 15 38  1  0  0  0  0
 16 20  1  0  0  0  0
 16 17  1  0  0  0  0
 16 39  1  0  0  0  0
 17 18  1  0  0  0  0
 17 40  1  0  0  0  0
 17 41  1  0  0  0  0
 18 19  1  0  0  0  0
 18 42  1  0  0  0  0
 18 43  1  0  0  0  0
 19 20  1  0  0  0  0
 19 44  1  0  0  0  0
 20 45  1  0  0  0  0
 20 46  1  0  0  0  0
M  END
> <s_m_source_file>
AV-unprocessed.smi

> <i_m_source_file_index>
720

> <i_lp_mmshare_version>
43012

> <i_f3d_flags>
0

> <s_epik_input>
W0NIM11OKFtDSDNdKVtDSDJdW0NIMl1uMVtjSF1bY0hdYyhuMSlbTkhdQyg9TylbTkhdW0NASF0oW0NIMl1bQ0BIXTIzKVtDQEhdKFtDSDJdMylbQ0gyXVtDSDJdMg==

> <s_epik_cmdline>
J2VwaWtfcHl0aG9uJywgJy1waCcsICc3LjAnLCAnLXRuJywgJzgnLCAnLW1hJywgJzIwMCcsICctbWV0YWxfYmluZGluZycsICctaW1hZScsICc8aW5maWxlLm1hZT4nLCAnLW9tYWUnLCAnPG91dGZpbGUubWFlPic=

> <r_lp_tautomer_probability>
1

> <r_epik_Ionization_Penalty>
1.83819

> <r_epik_Ionization_Penalty_Charging>
0

> <r_epik_Ionization_Penalty_Neutral>
1.83819

> <r_epik_State_Penalty>
1.95467

> <r_epik_Charging_Adjusted_Penalty>
1.95467

> <i_epik_Tot_Q>
0

> <i_epik_Tot_abs_Q>
0

> <r_epik_Metal_State_Penalty>
1.95467

> <b_epik_Metal_Only>
0

> <s_lp_Force_Field>
OPLS_2005

> <r_lp_Energy>
62.953

> <b_lp_Chiralities_Consistent>
1

> <s_lp_Variant>
AV-unprocessed.smi:720-8

> <Gold.Version>
5.8.1

> <Gold.Id.Protein>
6NUR|6NUR_protein|mol2

> <Gold.PLP.Fitness>
45.5949

> <Gold.PLP.PLP>
-38.1376

> <Gold.PLP.part.hbond>
-2.0000

> <Gold.PLP.part.metal>
0.0000

> <Gold.PLP.part.buried>
-4.8956

> <Gold.PLP.part.nonpolar>
-32.1191

> <Gold.PLP.part.repulsive>
0.3554

> <Gold.PLP.ligand.clash>
0.0000

> <Gold.PLP.ligand.torsion>
0.6020

> <Gold.PLP.Chemscore.Hbond>
1.8800

> <Gold.PLP.Chemscore.CHOScore>
0.9857

> <Gold.PLP.Chemscore.Metal>
0.0000

> <Gold.Chemscore.Hbonds>
donor molecule, donor type, donor heavy atom, donor atom, acceptor molecule, acceptor atom, score
      L1  H    10    34       P1  8028  1.00
      L1  H    13    35       P1  8028  0.88
      L1  C     7    32       P1 10175  0.93

> <Gold.PLP.Chemscore.Internal.Correction>
0.0642

> <Gold.Rescore>
     Score         DG    S(hbond)    S(metal)    S(lipo)     H(rot)  DE(clash)    DE(int)     intcor
     18.69     -20.41       1.83        0.00     108.81       1.53       0.07       1.66       ----

> <Gold.Chemscore.Fitness>
18.6861

> <Gold.Chemscore.DG>
-20.4134

> <Gold.Chemscore.ZeroCoef>
-5.4800

> <Gold.Chemscore.Hbond>
1.8333

> <Gold.Chemscore.Metal>
0.0000

> <Gold.Chemscore.Lipo>
108.8050

> <Gold.Chemscore.Internal_Hbond>
0.0000

> <Gold.Chemscore.DEClash>
0.0668

> <Gold.Chemscore.DEInternal>
1.6605

> <Gold.Chemscore.Rot>
1.5312

> <Gold.Chemscore.Internal.Correction>
   9.000000E+99

> <Gold.Chemscore.Hbonds>
donor molecule, donor type, donor heavy atom, donor atom, acceptor molecule, acceptor atom, score
      L1  H    10    34       P1  8028  0.97
      L1  H    13    35       P1  8028  0.86

> <Gold.Chemscore.Hbond.Weighted>
-6.1231

> <Gold.Chemscore.Metal.Weighted>
-0.0000

> <Gold.Chemscore.Lipo.Weighted>
-12.7302

> <Gold.Chemscore.Internal_Hbond.Weighted>
0.0000

> <Gold.Chemscore.DEClash.Weighted>
0.0668

> <Gold.Chemscore.DEInternal.Weighted>
1.6605

> <Gold.Chemscore.Rot.Weighted>
3.9199

> <Gold.Chemscore.Internal.Correction.Weighted>
   9.000000E+99

> <Gold.Protein.RotatedTorsions>
[ 6907 6896 6895 6894 ] final  148.35 input  -60.11 | X-H torsion
[ 7974 7965 7964 7962 ] final  -85.36 input  175.53 | X-H torsion
[ 8008 7997 7996 7995 ] final -103.14 input   59.86 | X-H torsion
[ 10167 10162 10161 10158 ] final  -62.71 input  -65.29 | X-H torsion
[ 10718 10713 10712 10709 ] final    2.00 input   66.30 | X-H torsion
[ 10763 10752 10751 10750 ] final   23.99 input  -60.55 | X-H torsion
[ 11005 11000 10999 10996 ] final  -99.30 input  -57.11 | X-H torsion

> <Gold.Protein.ActiveResidues>
 VAL166  LYS551  ARG553  GLY616  TRP617  ASP618  TYR619  PRO620  LYS621  CYS622 
 ASP623  PHE694  ASN695  SER759  ASP760  ASP761  ALA762  ILE779  LEU786  VAL792 
 PHE793  MET794  SER795  GLU796  ALA797  LYS798  CYS799  TRP800  GLU811  SER814 

> <Gold.Protein.RotatedAtoms>
  152.1427  133.4473  159.4774 H   0  0  0  0  0  0  0  0  0  0  0  0  # atno 6907 bound_to 6896
  150.6887  134.2286  159.4434 H   0  0  0  0  0  0  0  0  0  0  0  0  # atno 6908 bound_to 6896
  152.0178  134.9840  160.0620 H   0  0  0  0  0  0  0  0  0  0  0  0  # atno 6909 bound_to 6896
  145.4943  140.9551  143.1795 H   0  0  0  0  0  0  0  0  0  0  0  0  # atno 7974 bound_to 7965
  154.8667  140.0424  157.1699 H   0  0  0  0  0  0  0  0  0  0  0  0  # atno 8008 bound_to 7997
  154.8782  140.2968  155.5420 H   0  0  0  0  0  0  0  0  0  0  0  0  # atno 8009 bound_to 7997
  156.2999  140.2416  156.3781 H   0  0  0  0  0  0  0  0  0  0  0  0  # atno 8010 bound_to 7997
  140.5921  143.2343  151.6117 H   0  0  0  0  0  0  0  0  0  0  0  0  # atno 10167 bound_to 10162
  156.8565  130.5572  149.5666 H   0  0  0  0  0  0  0  0  0  0  0  0  # atno 10718 bound_to 10713
  153.0797  135.6615  154.0071 H   0  0  0  0  0  0  0  0  0  0  0  0  # atno 10763 bound_to 10752
  153.9696  135.2966  155.3429 H   0  0  0  0  0  0  0  0  0  0  0  0  # atno 10764 bound_to 10752
  154.7193  135.5171  153.8859 H   0  0  0  0  0  0  0  0  0  0  0  0  # atno 10765 bound_to 10752
  141.1314  133.8311  157.0953 H   0  0  0  0  0  0  0  0  0  0  0  0  # atno 11005 bound_to 11000
  144.7816  139.6514  143.7152 LP  0  0  0  0  0  0  0  0  0  0  0  0  # atno 17320 bound_to 7965
  146.2265  139.5733  142.9583 LP  0  0  0  0  0  0  0  0  0  0  0  0  # atno 17321 bound_to 7965
  139.5234  144.3134  152.0973 LP  0  0  0  0  0  0  0  0  0  0  0  0  # atno 17342 bound_to 10162
  140.2301  144.4378  150.6304 LP  0  0  0  0  0  0  0  0  0  0  0  0  # atno 17343 bound_to 10162
  156.0799  130.5812  150.9544 LP  0  0  0  0  0  0  0  0  0  0  0  0  # atno 17370 bound_to 10713
  157.6274  131.0924  150.8508 LP  0  0  0  0  0  0  0  0  0  0  0  0  # atno 17371 bound_to 10713
  140.0367  134.9875  157.0884 LP  0  0  0  0  0  0  0  0  0  0  0  0  # atno 17394 bound_to 11000
  140.4200  134.1891  155.7164 LP  0  0  0  0  0  0  0  0  0  0  0  0  # atno 17395 bound_to 11000

$$$$
