AV-unprocessed.smi:69|AV-procd|sdf|652|dock1
  -GOLD-   2262016553D 1   1.00000     0.00000
 Structure written by MMmdl.
 32 34  0  0  0  0  0  0  0  0  1 V2000
  152.4242  138.7498  158.6135 N   0  0  0  0  0  0  0  0  0  0  0  0
  152.1023  139.1084  157.3631 C   0  0  0  0  0  0  0  0  0  0  0  0
  152.9856  138.8467  156.3708 N   0  0  0  0  0  0  0  0  0  0  0  0
  152.6863  139.1920  155.1138 C   0  0  0  0  0  0  0  0  0  0  0  0
  151.5868  139.7942  154.6510 N   0  0  0  0  0  0  0  0  0  0  0  0
  150.7007  140.0591  155.6557 C   0  0  0  0  0  0  0  0  0  0  0  0
  150.8806  139.7463  157.0306 C   0  0  0  0  0  0  0  0  0  0  0  0
  149.7682  140.1519  157.7553 N   0  0  0  0  0  0  0  0  0  0  0  0
  148.9768  140.6706  156.8538 C   0  0  0  0  0  0  0  0  0  0  0  0
  149.4701  140.6730  155.5642 N   0  0  0  0  0  0  0  0  0  0  0  0
  148.8349  141.1640  154.2979 C   0  0  1  0  0  0  0  0  0  0  0  0
  148.5083  140.0654  153.5050 O   0  0  0  0  0  0  0  0  0  0  0  0
  147.1828  139.6490  153.8055 C   0  0  2  0  0  0  0  0  0  0  0  0
  146.6323  138.7874  152.6595 C   0  0  0  0  0  0  0  0  0  0  0  0
  147.6891  138.3555  151.8292 O   0  0  0  0  0  0  0  0  0  0  0  0
  146.4581  140.9880  153.9712 C   0  0  1  0  0  0  0  0  0  0  0  0
  145.3434  140.8393  154.8280 O   0  0  0  0  0  0  0  0  0  0  0  0
  147.5122  141.8928  154.6087 C   0  0  2  0  0  0  0  0  0  0  0  0
  147.4764  143.1799  154.0267 O   0  0  0  0  0  0  0  0  0  0  0  0
  149.6053  141.7798  153.8313 H   0  0  0  0  0  0  0  0  0  0  0  0
  147.1700  139.1004  154.7495 H   0  0  0  0  0  0  0  0  0  0  0  0
  146.1454  141.3723  152.9987 H   0  0  0  0  0  0  0  0  0  0  0  0
  147.3732  141.9772  155.6880 H   0  0  0  0  0  0  0  0  0  0  0  0
  151.7800  138.9337  159.3692 H   0  0  0  0  0  0  0  0  0  0  0  0
  153.3089  138.2995  158.7976 H   0  0  0  0  0  0  0  0  0  0  0  0
  153.4346  138.9517  154.3731 H   0  0  0  0  0  0  0  0  0  0  0  0
  148.0059  141.0660  157.1141 H   0  0  0  0  0  0  0  0  0  0  0  0
  146.1466  137.8972  153.0600 H   0  0  0  0  0  0  0  0  0  0  0  0
  145.8869  139.3296  152.0770 H   0  0  0  0  0  0  0  0  0  0  0  0
  148.1932  137.7076  152.2974 H   0  0  0  0  0  0  0  0  0  0  0  0
  144.5671  140.7535  154.2955 H   0  0  0  0  0  0  0  0  0  0  0  0
  148.0979  143.7288  154.4807 H   0  0  0  0  0  0  0  0  0  0  0  0
  1  2  1  0  0  0  0
  1 24  1  0  0  0  0
  1 25  1  0  0  0  0
  2  7  1  0  0  0  0
  2  3  2  0  0  0  0
  3  4  1  0  0  0  0
  4  5  2  0  0  0  0
  4 26  1  0  0  0  0
  5  6  1  0  0  0  0
  6 10  1  0  0  0  0
  6  7  2  0  0  0  0
  7  8  1  0  0  0  0
  8  9  2  0  0  0  0
  9 10  1  0  0  0  0
  9 27  1  0  0  0  0
 10 11  1  0  0  0  0
 11 20  1  0  0  0  0
 11 18  1  0  0  0  0
 11 12  1  0  0  0  0
 12 13  1  0  0  0  0
 13 21  1  0  0  0  0
 13 14  1  0  0  0  0
 13 16  1  0  0  0  0
 14 15  1  0  0  0  0
 14 28  1  0  0  0  0
 14 29  1  0  0  0  0
 15 30  1  0  0  0  0
 16 22  1  0  0  0  0
 16 17  1  0  0  0  0
 16 18  1  0  0  0  0
 17 31  1  0  0  0  0
 18 23  1  0  0  0  0
 18 19  1  0  0  0  0
 19 32  1  0  0  0  0
M  END
> <s_m_source_file>
AV-unprocessed.smi

> <i_m_source_file_index>
69

> <i_lp_mmshare_version>
43012

> <i_f3d_flags>
0

> <s_epik_input>
bjFbY0hdbmMoW05IMl0pYyhjMTIpbltjSF1uMltDQEBIXTNPW0NASF0oW0NIMl1bT0hdKVtDQEBIXShbT0hdKVtDQEhdM1tPSF0=

> <s_epik_cmdline>
J2VwaWtfcHl0aG9uJywgJy1waCcsICc3LjAnLCAnLXRuJywgJzgnLCAnLW1hJywgJzIwMCcsICctbWV0YWxfYmluZGluZycsICctaW1hZScsICc8aW5maWxlLm1hZT4nLCAnLW9tYWUnLCAnPG91dGZpbGUubWFlPic=

> <r_lp_tautomer_probability>
1

> <r_epik_Ionization_Penalty>
0.000428445

> <r_epik_Ionization_Penalty_Charging>
0

> <r_epik_Ionization_Penalty_Neutral>
0.000428445

> <r_epik_State_Penalty>
-0

> <r_epik_Charging_Adjusted_Penalty>
0

> <i_epik_Tot_Q>
0

> <i_epik_Tot_abs_Q>
0

> <r_epik_Metal_State_Penalty>
-0

> <b_epik_Metal_Only>
0

> <s_epik_Chemistry_Notes>
This compound contains an acetal/aminal-like group ( X-CH(R)-Y where X, Y are N, S, or O) that may be acid/base labile, releasing an aldehyde.

> <s_lp_Force_Field>
OPLS_2005

> <r_lp_Energy>
31.7018

> <b_lp_Chiralities_Consistent>
1

> <s_lp_Variant>
AV-unprocessed.smi:69-10

> <Gold.Version>
5.8.1

> <Gold.Id.Protein>
6NUR|6NUR_protein|mol2

> <Gold.PLP.Fitness>
41.6524

> <Gold.PLP.PLP>
-26.2067

> <Gold.PLP.part.hbond>
-8.1100

> <Gold.PLP.part.metal>
0.0000

> <Gold.PLP.part.buried>
-1.4407

> <Gold.PLP.part.nonpolar>
-20.6641

> <Gold.PLP.part.repulsive>
3.6683

> <Gold.PLP.ligand.clash>
0.0000

> <Gold.PLP.ligand.torsion>
0.7872

> <Gold.PLP.Chemscore.Hbond>
5.6633

> <Gold.PLP.Chemscore.CHOScore>
0.0000

> <Gold.PLP.Chemscore.Metal>
0.0000

> <Gold.Chemscore.Hbonds>
donor molecule, donor type, donor heavy atom, donor atom, acceptor molecule, acceptor atom, score
      L1  H    15    30       P1  7948  0.67
      L1  H    17    31       P1 10175  1.00
      L1  H    19    32       P1  8028  1.00
      P1  H  7954  7966       L1    15  0.98
      P1  H  7989  7998       L1     5  1.00
      P1  H  7997  8010       L1     3  0.95

> <Gold.PLP.Chemscore.Internal.Correction>
0.0304

> <Gold.Rescore>
     Score         DG    S(hbond)    S(metal)    S(lipo)     H(rot)  DE(clash)    DE(int)     intcor
      9.60     -11.69       3.94        0.00      28.79       4.03       1.50       0.60       ----

> <Gold.Chemscore.Fitness>
9.5956

> <Gold.Chemscore.DG>
-11.6903

> <Gold.Chemscore.ZeroCoef>
-5.4800

> <Gold.Chemscore.Hbond>
3.9380

> <Gold.Chemscore.Metal>
0.0000

> <Gold.Chemscore.Lipo>
28.7908

> <Gold.Chemscore.Internal_Hbond>
0.0000

> <Gold.Chemscore.DEClash>
1.4956

> <Gold.Chemscore.DEInternal>
0.5991

> <Gold.Chemscore.Rot>
4.0277

> <Gold.Chemscore.Internal.Correction>
   9.000000E+99

> <Gold.Chemscore.Hbonds>
donor molecule, donor type, donor heavy atom, donor atom, acceptor molecule, acceptor atom, score
      L1  H    15    30       P1  7948  0.66
      L1  H    17    31       P1 10175  0.89
      L1  H    19    32       P1  8028  0.74
      P1  H  7954  7966       L1    15  0.22
      P1  H  7989  7998       L1     5  0.87
      P1  H  7997  8010       L1     3  0.09

> <Gold.Chemscore.Hbond.Weighted>
-13.1528

> <Gold.Chemscore.Metal.Weighted>
-0.0000

> <Gold.Chemscore.Lipo.Weighted>
-3.3685

> <Gold.Chemscore.Internal_Hbond.Weighted>
0.0000

> <Gold.Chemscore.DEClash.Weighted>
1.4956

> <Gold.Chemscore.DEInternal.Weighted>
0.5991

> <Gold.Chemscore.Rot.Weighted>
10.3110

> <Gold.Chemscore.Internal.Correction.Weighted>
   9.000000E+99

> <Gold.Protein.RotatedTorsions>
[ 6907 6896 6895 6894 ] final  -48.46 input  -60.11 | X-H torsion
[ 7974 7965 7964 7962 ] final   58.99 input  175.53 | X-H torsion
[ 8008 7997 7996 7995 ] final   54.94 input   59.86 | X-H torsion
[ 10167 10162 10161 10158 ] final  178.75 input  -65.29 | X-H torsion
[ 10718 10713 10712 10709 ] final  159.64 input   66.30 | X-H torsion
[ 10763 10752 10751 10750 ] final -107.96 input  -60.55 | X-H torsion
[ 11005 11000 10999 10996 ] final   90.81 input  -57.11 | X-H torsion

> <Gold.Protein.ActiveResidues>
 VAL166  LYS551  ARG553  GLY616  TRP617  ASP618  TYR619  PRO620  LYS621  CYS622 
 ASP623  PHE694  ASN695  SER759  ASP760  ASP761  ALA762  ILE779  LEU786  VAL792 
 PHE793  MET794  SER795  GLU796  ALA797  LYS798  CYS799  TRP800  GLU811  SER814 

> <Gold.Protein.RotatedAtoms>
  150.8903  134.8306  159.7288 H   0  0  0  0  0  0  0  0  0  0  0  0  # atno 6907 bound_to 6896
  152.4833  134.4658  159.9629 H   0  0  0  0  0  0  0  0  0  0  0  0  # atno 6908 bound_to 6896
  151.4721  133.3527  159.2860 H   0  0  0  0  0  0  0  0  0  0  0  0  # atno 6909 bound_to 6896
  145.9121  139.3662  143.0529 H   0  0  0  0  0  0  0  0  0  0  0  0  # atno 7974 bound_to 7965
  155.4929  140.3472  155.4358 H   0  0  0  0  0  0  0  0  0  0  0  0  # atno 8008 bound_to 7997
  156.0965  140.1424  156.9552 H   0  0  0  0  0  0  0  0  0  0  0  0  # atno 8009 bound_to 7997
  154.4667  140.0915  156.7015 H   0  0  0  0  0  0  0  0  0  0  0  0  # atno 8010 bound_to 7997
  139.5307  144.2643  152.0681 H   0  0  0  0  0  0  0  0  0  0  0  0  # atno 10167 bound_to 10162
  157.1614  131.0588  151.2230 H   0  0  0  0  0  0  0  0  0  0  0  0  # atno 10718 bound_to 10713
  154.8107  135.4655  154.0509 H   0  0  0  0  0  0  0  0  0  0  0  0  # atno 10763 bound_to 10752
  153.1942  135.6859  153.8320 H   0  0  0  0  0  0  0  0  0  0  0  0  # atno 10764 bound_to 10752
  153.7827  135.3254  155.3345 H   0  0  0  0  0  0  0  0  0  0  0  0  # atno 10765 bound_to 10752
  139.8849  134.8636  156.3338 H   0  0  0  0  0  0  0  0  0  0  0  0  # atno 11005 bound_to 11000
  145.8658  140.9449  143.0676 LP  0  0  0  0  0  0  0  0  0  0  0  0  # atno 17320 bound_to 7965
  144.6744  140.0590  143.7476 LP  0  0  0  0  0  0  0  0  0  0  0  0  # atno 17321 bound_to 7965
  140.2106  144.4566  150.6387 LP  0  0  0  0  0  0  0  0  0  0  0  0  # atno 17342 bound_to 10162
  140.6483  143.2218  151.6136 LP  0  0  0  0  0  0  0  0  0  0  0  0  # atno 17343 bound_to 10162
  157.4129  130.7395  149.6852 LP  0  0  0  0  0  0  0  0  0  0  0  0  # atno 17370 bound_to 10713
  155.9753  130.4091  150.3859 LP  0  0  0  0  0  0  0  0  0  0  0  0  # atno 17371 bound_to 10713
  140.9705  133.7330  156.0528 LP  0  0  0  0  0  0  0  0  0  0  0  0  # atno 17394 bound_to 11000
  140.7877  134.3653  157.5472 LP  0  0  0  0  0  0  0  0  0  0  0  0  # atno 17395 bound_to 11000

$$$$
