AV-unprocessed.smi:1464|AV-procd|sdf|5937|dock1
  -GOLD-   22720 6 23D 1   1.00000     0.00000
 Structure written by MMmdl.
 40 41  0  0  0  0  0  0  0  0  2 V2000
  153.1895  142.6618  162.1490 C   0  0  0  0  0  0  0  0  0  0  0  0
  152.9844  143.2571  160.7436 C   0  0  2  0  0  0  0  0  0  0  0  0
  152.1874  144.5726  160.8543 C   0  0  0  0  0  0  0  0  0  0  0  0
  151.9822  145.2317  159.4863 C   0  0  0  0  0  0  0  0  0  0  0  0
  151.2718  144.2714  158.5282 C   0  0  0  0  0  0  0  0  0  0  0  0
  152.0498  142.9502  158.3796 C   0  0  2  0  0  0  0  0  0  0  0  0
  151.3126  142.0566  157.4874 N   0  0  0  0  0  0  0  0  0  0  0  0
  150.0708  141.5936  157.6986 C   0  0  0  0  0  0  0  0  0  0  0  0
  149.4084  141.8774  158.6982 O   0  0  0  0  0  0  0  0  0  0  0  0
  149.5126  140.6733  156.6013 C   0  0  0  0  0  0  0  0  0  0  0  0
  148.3302  141.2060  155.9084 N   0  0  0  0  0  0  0  0  0  0  0  0
  147.1962  141.4646  156.7916 N   0  5  0  0  0  0  0  0  0  0  0  0
  146.0384  141.9406  156.2613 C   0  0  0  0  0  0  0  0  0  0  0  0
  145.0382  142.1664  156.9385 O   0  0  0  0  0  0  0  0  0  0  0  0
  145.9944  142.1937  154.8306 C   0  0  0  0  0  0  0  0  0  0  0  0
  147.0639  141.9667  154.0428 C   0  0  0  0  0  0  0  0  0  0  0  0
  148.3232  141.4524  154.5670 C   0  0  0  0  0  0  0  0  0  0  0  0
  149.3070  141.2513  153.8544 O   0  0  0  0  0  0  0  0  0  0  0  0
  152.3029  142.2699  159.7528 C   0  0  1  0  0  0  0  0  0  0  0  0
  153.1151  140.9669  159.5827 C   0  0  0  0  0  0  0  0  0  0  0  0
  152.2482  142.3095  162.5720 H   0  0  0  0  0  0  0  0  0  0  0  0
  153.6002  143.4055  162.8323 H   0  0  0  0  0  0  0  0  0  0  0  0
  153.8892  141.8269  162.1404 H   0  0  0  0  0  0  0  0  0  0  0  0
  153.9707  143.5042  160.3473 H   0  0  0  0  0  0  0  0  0  0  0  0
  151.2169  144.3795  161.3134 H   0  0  0  0  0  0  0  0  0  0  0  0
  152.7059  145.2696  161.5137 H   0  0  0  0  0  0  0  0  0  0  0  0
  151.3990  146.1463  159.5965 H   0  0  0  0  0  0  0  0  0  0  0  0
  152.9458  145.5256  159.0681 H   0  0  0  0  0  0  0  0  0  0  0  0
  150.2651  144.0698  158.8973 H   0  0  0  0  0  0  0  0  0  0  0  0
  151.1540  144.7506  157.5553 H   0  0  0  0  0  0  0  0  0  0  0  0
  153.0228  143.1724  157.9362 H   0  0  0  0  0  0  0  0  0  0  0  0
  151.7808  141.7736  156.6390 H   0  0  0  0  0  0  0  0  0  0  0  0
  150.3117  140.4756  155.8842 H   0  0  0  0  0  0  0  0  0  0  0  0
  149.2738  139.7045  157.0435 H   0  0  0  0  0  0  0  0  0  0  0  0
  145.0845  142.5739  154.3901 H   0  0  0  0  0  0  0  0  0  0  0  0
  146.9860  142.1696  152.9850 H   0  0  0  0  0  0  0  0  0  0  0  0
  151.3328  141.9973  160.1719 H   0  0  0  0  0  0  0  0  0  0  0  0
  154.1153  141.1732  159.2007 H   0  0  0  0  0  0  0  0  0  0  0  0
  152.6354  140.2765  158.8891 H   0  0  0  0  0  0  0  0  0  0  0  0
  153.2200  140.4259  160.5221 H   0  0  0  0  0  0  0  0  0  0  0  0
  1  2  1  0  0  0  0
  1 21  1  0  0  0  0
  1 22  1  0  0  0  0
  1 23  1  0  0  0  0
  2 19  1  0  0  0  0
  2  3  1  0  0  0  0
  2 24  1  0  0  0  0
  3  4  1  0  0  0  0
  3 25  1  0  0  0  0
  3 26  1  0  0  0  0
  4  5  1  0  0  0  0
  4 27  1  0  0  0  0
  4 28  1  0  0  0  0
  5  6  1  0  0  0  0
  5 29  1  0  0  0  0
  5 30  1  0  0  0  0
  6  7  1  0  0  0  0
  6 19  1  0  0  0  0
  6 31  1  0  0  0  0
  7  8  1  0  0  0  0
  7 32  1  0  0  0  0
  8  9  2  0  0  0  0
  8 10  1  0  0  0  0
 10 33  1  0  0  0  0
 10 34  1  0  0  0  0
 10 11  1  0  0  0  0
 11 12  1  0  0  0  0
 11 17  1  0  0  0  0
 12 13  1  0  0  0  0
 13 14  2  0  0  0  0
 13 15  1  0  0  0  0
 15 35  1  0  0  0  0
 15 16  2  0  0  0  0
 16 36  1  0  0  0  0
 16 17  1  0  0  0  0
 17 18  2  0  0  0  0
 19 20  1  0  0  0  0
 19 37  1  0  0  0  0
 20 38  1  0  0  0  0
 20 39  1  0  0  0  0
 20 40  1  0  0  0  0
M  CHG  1  12  -1
M  END
> <s_m_source_file>
AV-unprocessed.smi

> <i_m_source_file_index>
1464

> <i_lp_mmshare_version>
43012

> <i_f3d_flags>
0

> <s_epik_input>
W0NIM11bQ0BASF0xW0NIMl1bQ0gyXVtDSDJdW0NASF0oW0NASF0xW0NIM10pW05IXUMoPU8pW0NIMl1uMltuSF1jKD1PKVtjSF1bY0hdYzI9Tw==

> <s_epik_cmdline>
J2VwaWtfcHl0aG9uJywgJy1waCcsICc3LjAnLCAnLXRuJywgJzgnLCAnLW1hJywgJzIwMCcsICctbWV0YWxfYmluZGluZycsICctaW1hZScsICc8aW5maWxlLm1hZT4nLCAnLW9tYWUnLCAnPG91dGZpbGUubWFlPic=

> <r_lp_tautomer_probability>
1

> <r_epik_Ionization_Penalty>
0.101366

> <r_epik_Ionization_Penalty_Charging>
0.101366

> <r_epik_Ionization_Penalty_Neutral>
1.90469e-08

> <r_epik_State_Penalty>
0.035861

> <r_epik_Charging_Adjusted_Penalty>
0.137227

> <i_epik_Tot_Q>
-1

> <i_epik_Tot_abs_Q>
1

> <r_epik_Metal_State_Penalty>
0.035861

> <b_epik_Metal_Only>
0

> <s_lp_Force_Field>
OPLS_2005

> <r_lp_Energy>
28.4396

> <b_lp_Chiralities_Consistent>
1

> <s_lp_Variant>
AV-unprocessed.smi:1464-3

> <Gold.Version>
5.8.1

> <Gold.Id.Protein>
6NUR|6NUR_protein|mol2

> <Gold.PLP.Fitness>
48.6324

> <Gold.PLP.PLP>
-45.0702

> <Gold.PLP.part.hbond>
-2.4344

> <Gold.PLP.part.metal>
0.0000

> <Gold.PLP.part.buried>
-7.8190

> <Gold.PLP.part.nonpolar>
-36.6015

> <Gold.PLP.part.repulsive>
2.3316

> <Gold.PLP.ligand.clash>
0.0000

> <Gold.PLP.ligand.torsion>
0.0167

> <Gold.PLP.Chemscore.Hbond>
1.1955

> <Gold.PLP.Chemscore.CHOScore>
0.0000

> <Gold.PLP.Chemscore.Metal>
0.0000

> <Gold.Chemscore.Hbonds>
donor molecule, donor type, donor heavy atom, donor atom, acceptor molecule, acceptor atom, score
      P1  H  7989  7998       L1    18  0.06
      P1  H  8011  8017       L1    18  0.85

> <Gold.PLP.Chemscore.Internal.Correction>
0.0090

> <Gold.Rescore>
     Score         DG    S(hbond)    S(metal)    S(lipo)     H(rot)  DE(clash)    DE(int)     intcor
     14.15     -17.46       1.15        0.00     105.61       1.64       1.34       1.97       ----

> <Gold.Chemscore.Fitness>
14.1491

> <Gold.Chemscore.DG>
-17.4607

> <Gold.Chemscore.ZeroCoef>
-5.4800

> <Gold.Chemscore.Hbond>
1.1473

> <Gold.Chemscore.Metal>
0.0000

> <Gold.Chemscore.Lipo>
105.6133

> <Gold.Chemscore.Internal_Hbond>
0.0000

> <Gold.Chemscore.DEClash>
1.3405

> <Gold.Chemscore.DEInternal>
1.9711

> <Gold.Chemscore.Rot>
1.6438

> <Gold.Chemscore.Internal.Correction>
   9.000000E+99

> <Gold.Chemscore.Hbonds>
donor molecule, donor type, donor heavy atom, donor atom, acceptor molecule, acceptor atom, score
      P1  H  7989  7998       L1    18  0.06
      P1  H  8011  8017       L1    18  0.81

> <Gold.Chemscore.Hbond.Weighted>
-3.8320

> <Gold.Chemscore.Metal.Weighted>
-0.0000

> <Gold.Chemscore.Lipo.Weighted>
-12.3568

> <Gold.Chemscore.Internal_Hbond.Weighted>
0.0000

> <Gold.Chemscore.DEClash.Weighted>
1.3405

> <Gold.Chemscore.DEInternal.Weighted>
1.9711

> <Gold.Chemscore.Rot.Weighted>
4.2080

> <Gold.Chemscore.Internal.Correction.Weighted>
   9.000000E+99

> <Gold.Protein.RotatedTorsions>
[ 6907 6896 6895 6894 ] final  148.65 input  -60.11 | X-H torsion
[ 7974 7965 7964 7962 ] final  110.53 input  175.53 | X-H torsion
[ 8008 7997 7996 7995 ] final  -93.79 input   59.86 | X-H torsion
[ 10167 10162 10161 10158 ] final  161.48 input  -65.29 | X-H torsion
[ 10718 10713 10712 10709 ] final   97.18 input   66.30 | X-H torsion
[ 10763 10752 10751 10750 ] final  -23.59 input  -60.55 | X-H torsion
[ 11005 11000 10999 10996 ] final  119.72 input  -57.11 | X-H torsion

> <Gold.Protein.ActiveResidues>
 VAL166  LYS551  ARG553  GLY616  TRP617  ASP618  TYR619  PRO620  LYS621  CYS622 
 ASP623  PHE694  ASN695  SER759  ASP760  ASP761  ALA762  ILE779  LEU786  VAL792 
 PHE793  MET794  SER795  GLU796  ALA797  LYS798  CYS799  TRP800  GLU811  SER814 

> <Gold.Protein.RotatedAtoms>
  152.1387  133.4450  159.4755 H   0  0  0  0  0  0  0  0  0  0  0  0  # atno 6907 bound_to 6896
  150.6884  134.2332  159.4452 H   0  0  0  0  0  0  0  0  0  0  0  0  # atno 6908 bound_to 6896
  152.0221  134.9816  160.0621 H   0  0  0  0  0  0  0  0  0  0  0  0  # atno 6909 bound_to 6896
  145.2538  139.2729  143.4053 H   0  0  0  0  0  0  0  0  0  0  0  0  # atno 7974 bound_to 7965
  154.7401  140.0495  157.0803 H   0  0  0  0  0  0  0  0  0  0  0  0  # atno 8008 bound_to 7997
  155.0190  140.3145  155.4781 H   0  0  0  0  0  0  0  0  0  0  0  0  # atno 8009 bound_to 7997
  156.2862  140.2170  156.5307 H   0  0  0  0  0  0  0  0  0  0  0  0  # atno 8010 bound_to 7997
  139.4850  144.4532  151.8803 H   0  0  0  0  0  0  0  0  0  0  0  0  # atno 10167 bound_to 10162
  157.6916  131.0601  150.4605 H   0  0  0  0  0  0  0  0  0  0  0  0  # atno 10718 bound_to 10713
  153.6702  135.6972  153.5149 H   0  0  0  0  0  0  0  0  0  0  0  0  # atno 10763 bound_to 10752
  153.2564  135.4258  155.0849 H   0  0  0  0  0  0  0  0  0  0  0  0  # atno 10764 bound_to 10752
  154.8428  135.3544  154.6246 H   0  0  0  0  0  0  0  0  0  0  0  0  # atno 10765 bound_to 10752
  139.9157  134.9630  156.7698 H   0  0  0  0  0  0  0  0  0  0  0  0  # atno 11005 bound_to 11000
  146.3295  140.2937  142.8616 LP  0  0  0  0  0  0  0  0  0  0  0  0  # atno 17320 bound_to 7965
  144.9479  140.8147  143.5590 LP  0  0  0  0  0  0  0  0  0  0  0  0  # atno 17321 bound_to 7965
  140.3990  144.2518  150.5894 LP  0  0  0  0  0  0  0  0  0  0  0  0  # atno 17342 bound_to 10162
  140.5075  143.2300  151.8585 LP  0  0  0  0  0  0  0  0  0  0  0  0  # atno 17343 bound_to 10162
  156.4949  130.4104  149.6385 LP  0  0  0  0  0  0  0  0  0  0  0  0  # atno 17370 bound_to 10713
  156.3382  130.7368  151.2309 LP  0  0  0  0  0  0  0  0  0  0  0  0  # atno 17371 bound_to 10713
  140.6630  133.9628  155.7815 LP  0  0  0  0  0  0  0  0  0  0  0  0  # atno 17394 bound_to 11000
  141.0630  134.0318  157.3632 LP  0  0  0  0  0  0  0  0  0  0  0  0  # atno 17395 bound_to 11000

$$$$
