AV-unprocessed.smi:36|AV-procd|sdf|299|dock9
  -GOLD-   2262016103D 1   1.00000     0.00000
 Structure written by MMmdl.
 63 66  0  0  0  0  0  0  0  0  2 V2000
  143.9734  135.1892  160.5881 C   0  0  0  0  0  0  0  0  0  0  0  0
  144.9789  135.3795  161.7357 C   0  0  0  0  0  0  0  0  0  0  0  0
  145.5174  136.8201  161.7166 C   0  0  0  0  0  0  0  0  0  0  0  0
  144.2954  135.0943  163.0831 C   0  0  0  0  0  0  0  0  0  0  0  0
  146.4377  134.1692  161.4962 Si  0  0  0  0  0  0  0  0  0  0  0  0
  147.7900  134.4776  162.7977 C   0  0  0  0  0  0  0  0  0  0  0  0
  145.8570  132.3640  161.6050 C   0  0  0  0  0  0  0  0  0  0  0  0
  147.0711  134.4213  159.9448 O   0  0  0  0  0  0  0  0  0  0  0  0
  147.8998  133.5038  159.2580 C   0  0  0  0  0  0  0  0  0  0  0  0
  148.8380  134.2797  158.3211 C   0  0  2  0  0  0  0  0  0  0  0  0
  148.1108  135.0642  157.3855 O   0  0  0  0  0  0  0  0  0  0  0  0
  148.9844  135.4859  156.3833 C   0  0  1  0  0  0  0  0  0  0  0  0
  149.5641  136.8109  156.7831 N   0  0  0  0  0  0  0  0  0  0  0  0
  149.7645  137.3164  158.0195 C   0  0  0  0  0  0  0  0  0  0  0  0
  150.2758  138.5423  158.1080 N   0  0  0  0  0  0  0  0  0  0  0  0
  150.4031  138.8885  156.7711 C   0  0  0  0  0  0  0  0  0  0  0  0
  150.8697  140.0666  156.1264 C   0  0  0  0  0  0  0  0  0  0  0  0
  151.3164  141.1350  156.8038 N   0  5  0  0  0  0  0  0  0  0  0  0
  152.2026  140.9678  157.8184 C   0  0  0  0  0  0  0  0  0  0  0  0
  152.9308  139.9970  158.0358 O   0  0  0  0  0  0  0  0  0  0  0  0
  152.2027  142.1079  158.8009 C   0  0  0  0  0  0  0  0  0  0  0  0
  151.5465  143.3157  158.4709 C   0  0  0  0  0  0  0  0  0  0  0  0
  151.5152  144.3867  159.3850 C   0  0  0  0  0  0  0  0  0  0  0  0
  152.1311  144.2573  160.6438 C   0  0  0  0  0  0  0  0  0  0  0  0
  152.7745  143.0542  160.9895 C   0  0  0  0  0  0  0  0  0  0  0  0
  152.8074  141.9830  160.0753 C   0  0  0  0  0  0  0  0  0  0  0  0
  150.8624  140.0683  154.7686 N   0  0  0  0  0  0  0  0  0  0  0  0
  150.4132  139.0036  154.0933 C   0  0  0  0  0  0  0  0  0  0  0  0
  149.9411  137.8457  154.5659 N   0  0  0  0  0  0  0  0  0  0  0  0
  149.9581  137.8275  155.9305 C   0  0  0  0  0  0  0  0  0  0  0  0
  150.0887  134.4157  156.2867 C   0  0  0  0  0  0  0  0  0  0  0  0
  149.7509  133.4484  157.4154 C   0  0  2  0  0  0  0  0  0  0  0  0
  149.0896  132.3030  156.9116 O   0  0  0  0  0  0  0  0  0  0  0  0
  143.1330  135.8783  160.6789 H   0  0  0  0  0  0  0  0  0  0  0  0
  143.5679  134.1774  160.5768 H   0  0  0  0  0  0  0  0  0  0  0  0
  144.4412  135.3670  159.6192 H   0  0  0  0  0  0  0  0  0  0  0  0
  146.0121  137.0437  160.7710 H   0  0  0  0  0  0  0  0  0  0  0  0
  146.2418  136.9876  162.5140 H   0  0  0  0  0  0  0  0  0  0  0  0
  144.7144  137.5465  161.8466 H   0  0  0  0  0  0  0  0  0  0  0  0
  143.4562  135.7698  163.2524 H   0  0  0  0  0  0  0  0  0  0  0  0
  144.9892  135.2184  163.9152 H   0  0  0  0  0  0  0  0  0  0  0  0
  143.9097  134.0754  163.1252 H   0  0  0  0  0  0  0  0  0  0  0  0
  147.4240  134.2854  163.8059 H   0  0  0  0  0  0  0  0  0  0  0  0
  148.1453  135.5077  162.7759 H   0  0  0  0  0  0  0  0  0  0  0  0
  148.6530  133.8313  162.6403 H   0  0  0  0  0  0  0  0  0  0  0  0
  145.4206  132.1414  162.5785 H   0  0  0  0  0  0  0  0  0  0  0  0
  146.6827  131.6690  161.4535 H   0  0  0  0  0  0  0  0  0  0  0  0
  145.1030  132.1394  160.8511 H   0  0  0  0  0  0  0  0  0  0  0  0
  148.4766  132.9274  159.9823 H   0  0  0  0  0  0  0  0  0  0  0  0
  147.2799  132.7997  158.7024 H   0  0  0  0  0  0  0  0  0  0  0  0
  149.4700  134.9424  158.9111 H   0  0  0  0  0  0  0  0  0  0  0  0
  148.4643  135.6855  155.4459 H   0  0  0  0  0  0  0  0  0  0  0  0
  149.5249  136.7549  158.9102 H   0  0  0  0  0  0  0  0  0  0  0  0
  151.0677  143.4300  157.5090 H   0  0  0  0  0  0  0  0  0  0  0  0
  151.0170  145.3073  159.1195 H   0  0  0  0  0  0  0  0  0  0  0  0
  152.1065  145.0782  161.3449 H   0  0  0  0  0  0  0  0  0  0  0  0
  153.2414  142.9505  161.9579 H   0  0  0  0  0  0  0  0  0  0  0  0
  153.2975  141.0640  160.3633 H   0  0  0  0  0  0  0  0  0  0  0  0
  150.4371  139.0919  153.0173 H   0  0  0  0  0  0  0  0  0  0  0  0
  150.0762  133.9442  155.3031 H   0  0  0  0  0  0  0  0  0  0  0  0
  151.0716  134.8632  156.4387 H   0  0  0  0  0  0  0  0  0  0  0  0
  150.6452  133.1202  157.9460 H   0  0  0  0  0  0  0  0  0  0  0  0
  149.6063  131.9414  156.2079 H   0  0  0  0  0  0  0  0  0  0  0  0
  1  2  1  0  0  0  0
  1 34  1  0  0  0  0
  1 35  1  0  0  0  0
  1 36  1  0  0  0  0
  2  3  1  0  0  0  0
  2  4  1  0  0  0  0
  2  5  1  0  0  0  0
  3 37  1  0  0  0  0
  3 38  1  0  0  0  0
  3 39  1  0  0  0  0
  4 40  1  0  0  0  0
  4 41  1  0  0  0  0
  4 42  1  0  0  0  0
  5  6  1  0  0  0  0
  5  7  1  0  0  0  0
  5  8  1  0  0  0  0
  6 43  1  0  0  0  0
  6 44  1  0  0  0  0
  6 45  1  0  0  0  0
  7 46  1  0  0  0  0
  7 47  1  0  0  0  0
  7 48  1  0  0  0  0
  8  9  1  0  0  0  0
  9 10  1  0  0  0  0
  9 49  1  0  0  0  0
  9 50  1  0  0  0  0
 10 32  1  0  0  0  0
 10 11  1  0  0  0  0
 10 51  1  0  0  0  0
 11 12  1  0  0  0  0
 12 13  1  0  0  0  0
 12 31  1  0  0  0  0
 12 52  1  0  0  0  0
 13 30  1  0  0  0  0
 13 14  1  0  0  0  0
 14 15  2  0  0  0  0
 14 53  1  0  0  0  0
 15 16  1  0  0  0  0
 16 30  2  0  0  0  0
 16 17  1  0  0  0  0
 17 18  1  0  0  0  0
 17 27  2  0  0  0  0
 18 19  1  0  0  0  0
 19 20  2  0  0  0  0
 19 21  1  0  0  0  0
 21 26  1  0  0  0  0
 21 22  2  0  0  0  0
 22 23  1  0  0  0  0
 22 54  1  0  0  0  0
 23 24  2  0  0  0  0
 23 55  1  0  0  0  0
 24 25  1  0  0  0  0
 24 56  1  0  0  0  0
 25 26  2  0  0  0  0
 25 57  1  0  0  0  0
 26 58  1  0  0  0  0
 27 28  1  0  0  0  0
 28 29  2  0  0  0  0
 28 59  1  0  0  0  0
 29 30  1  0  0  0  0
 31 32  1  0  0  0  0
 31 60  1  0  0  0  0
 31 61  1  0  0  0  0
 32 33  1  0  0  0  0
 32 62  1  0  0  0  0
 33 63  1  0  0  0  0
M  CHG  1  18  -1
M  END
> <s_m_source_file>
AV-unprocessed.smi

> <i_m_source_file_index>
36

> <i_lp_mmshare_version>
43012

> <i_f3d_flags>
0

> <s_epik_input>
W0NIM11DKFtDSDNdKShbQ0gzXSlbU2ldKFtDSDNdKShbQ0gzXSlPW0NIMl1bQ0BASF0xT1tDQEhdKFtDSDJdW0NASF0xW09IXSluKFtjSF1uMiljKGMyMyluW2NIXW5jM1tOSF1DKD1PKWM0W2NIXVtjSF1bY0hdW2NIXVtjSF00

> <s_epik_cmdline>
J2VwaWtfcHl0aG9uJywgJy1waCcsICc3LjAnLCAnLXRuJywgJzgnLCAnLW1hJywgJzIwMCcsICctbWV0YWxfYmluZGluZycsICctaW1hZScsICc8aW5maWxlLm1hZT4nLCAnLW9tYWUnLCAnPG91dGZpbGUubWFlPic=

> <r_lp_tautomer_probability>
1

> <r_epik_Ionization_Penalty>
4.75685

> <r_epik_Ionization_Penalty_Charging>
3.55822

> <r_epik_Ionization_Penalty_Neutral>
1.19863

> <r_epik_State_Penalty>
3.564

> <r_epik_Charging_Adjusted_Penalty>
7.12222

> <i_epik_Tot_Q>
-1

> <i_epik_Tot_abs_Q>
1

> <r_epik_Metal_State_Penalty>
0.523258

> <b_epik_Metal_Only>
1

> <s_epik_Chemistry_Notes>
This compound contains an acetal/aminal-like group ( X-CH(R)-Y where X, Y are N, S, or O) that may be acid/base labile, releasing an aldehyde.

> <s_lp_Force_Field>
OPLS_2005

> <r_lp_Energy>
31.8214

> <b_lp_Chiralities_Consistent>
1

> <s_lp_Variant>
AV-unprocessed.smi:36-21

> <Gold.Version>
5.8.1

> <Gold.Id.Protein>
6NUR|6NUR_protein|mol2

> <Gold.PLP.Fitness>
52.7436

> <Gold.PLP.PLP>
-46.9569

> <Gold.PLP.part.hbond>
-2.0000

> <Gold.PLP.part.metal>
0.0000

> <Gold.PLP.part.buried>
-7.1573

> <Gold.PLP.part.nonpolar>
-37.8435

> <Gold.PLP.part.repulsive>
0.2957

> <Gold.PLP.ligand.clash>
0.0000

> <Gold.PLP.ligand.torsion>
1.7818

> <Gold.PLP.Chemscore.Hbond>
2.0000

> <Gold.PLP.Chemscore.CHOScore>
1.0000

> <Gold.PLP.Chemscore.Metal>
0.0000

> <Gold.Chemscore.Hbonds>
donor molecule, donor type, donor heavy atom, donor atom, acceptor molecule, acceptor atom, score
      P1  H  7989  7998       L1    27  0.95
      P1  H  7997  8009       L1    20  1.00
      L1  C    28    59       P1  7957  1.00

> <Gold.PLP.Chemscore.Internal.Correction>
0.3503

> <Gold.Rescore>
     Score         DG    S(hbond)    S(metal)    S(lipo)     H(rot)  DE(clash)    DE(int)     intcor
     15.97     -17.85       1.76        0.00     113.99       2.67       0.14       1.74       ----

> <Gold.Chemscore.Fitness>
15.9697

> <Gold.Chemscore.DG>
-17.8543

> <Gold.Chemscore.ZeroCoef>
-5.4800

> <Gold.Chemscore.Hbond>
1.7585

> <Gold.Chemscore.Metal>
0.0000

> <Gold.Chemscore.Lipo>
113.9876

> <Gold.Chemscore.Internal_Hbond>
0.0000

> <Gold.Chemscore.DEClash>
0.1416

> <Gold.Chemscore.DEInternal>
1.7429

> <Gold.Chemscore.Rot>
2.6702

> <Gold.Chemscore.Internal.Correction>
   9.000000E+99

> <Gold.Chemscore.Hbonds>
donor molecule, donor type, donor heavy atom, donor atom, acceptor molecule, acceptor atom, score
      P1  H  7989  7998       L1    27  0.22
      P1  H  7997  8009       L1    20  0.73

> <Gold.Chemscore.Hbond.Weighted>
-5.8735

> <Gold.Chemscore.Metal.Weighted>
-0.0000

> <Gold.Chemscore.Lipo.Weighted>
-13.3365

> <Gold.Chemscore.Internal_Hbond.Weighted>
0.0000

> <Gold.Chemscore.DEClash.Weighted>
0.1416

> <Gold.Chemscore.DEInternal.Weighted>
1.7429

> <Gold.Chemscore.Rot.Weighted>
6.8358

> <Gold.Chemscore.Internal.Correction.Weighted>
   9.000000E+99

> <Gold.Protein.RotatedTorsions>
[ 6907 6896 6895 6894 ] final  -35.06 input  -60.11 | X-H torsion
[ 7974 7965 7964 7962 ] final  109.64 input  175.53 | X-H torsion
[ 8008 7997 7996 7995 ] final  163.14 input   59.86 | X-H torsion
[ 10167 10162 10161 10158 ] final -175.26 input  -65.29 | X-H torsion
[ 10718 10713 10712 10709 ] final   81.94 input   66.30 | X-H torsion
[ 10763 10752 10751 10750 ] final  145.33 input  -60.55 | X-H torsion
[ 11005 11000 10999 10996 ] final -151.55 input  -57.11 | X-H torsion

> <Gold.Protein.ActiveResidues>
 VAL166  LYS551  ARG553  GLY616  TRP617  ASP618  TYR619  PRO620  LYS621  CYS622 
 ASP623  PHE694  ASN695  SER759  ASP760  ASP761  ALA762  ILE779  LEU786  VAL792 
 PHE793  MET794  SER795  GLU796  ALA797  LYS798  CYS799  TRP800  GLU811  SER814 

> <Gold.Protein.RotatedAtoms>
  151.0446  134.9631  159.8179 H   0  0  0  0  0  0  0  0  0  0  0  0  # atno 6907 bound_to 6896
  152.5370  134.2614  159.8947 H   0  0  0  0  0  0  0  0  0  0  0  0  # atno 6908 bound_to 6896
  151.2628  133.4251  159.2651 H   0  0  0  0  0  0  0  0  0  0  0  0  # atno 6909 bound_to 6896
  145.2652  139.2687  143.3995 H   0  0  0  0  0  0  0  0  0  0  0  0  # atno 7974 bound_to 7965
  156.1979  140.1731  156.7959 H   0  0  0  0  0  0  0  0  0  0  0  0  # atno 8008 bound_to 7997
  154.5554  140.0709  156.8766 H   0  0  0  0  0  0  0  0  0  0  0  0  # atno 8009 bound_to 7997
  155.2949  140.3358  155.4253 H   0  0  0  0  0  0  0  0  0  0  0  0  # atno 8010 bound_to 7997
  139.5590  144.1916  152.1208 H   0  0  0  0  0  0  0  0  0  0  0  0  # atno 10167 bound_to 10162
  157.6845  131.0026  150.2300 H   0  0  0  0  0  0  0  0  0  0  0  0  # atno 10718 bound_to 10713
  154.0036  135.2921  155.3400 H   0  0  0  0  0  0  0  0  0  0  0  0  # atno 10763 bound_to 10752
  154.7145  135.5135  153.8719 H   0  0  0  0  0  0  0  0  0  0  0  0  # atno 10764 bound_to 10752
  153.0755  135.6662  154.0275 H   0  0  0  0  0  0  0  0  0  0  0  0  # atno 10765 bound_to 10752
  140.7284  134.3649  157.5171 H   0  0  0  0  0  0  0  0  0  0  0  0  # atno 11005 bound_to 11000
  146.3263  140.3080  142.8625 LP  0  0  0  0  0  0  0  0  0  0  0  0  # atno 17320 bound_to 7965
  144.9383  140.8050  143.5646 LP  0  0  0  0  0  0  0  0  0  0  0  0  # atno 17321 bound_to 7965
  140.1426  144.5188  150.6735 LP  0  0  0  0  0  0  0  0  0  0  0  0  # atno 17342 bound_to 10162
  140.6867  143.2354  151.5240 LP  0  0  0  0  0  0  0  0  0  0  0  0  # atno 17343 bound_to 10162
  156.2935  130.3749  149.7819 LP  0  0  0  0  0  0  0  0  0  0  0  0  # atno 17370 bound_to 10713
  156.5471  130.8325  151.3287 LP  0  0  0  0  0  0  0  0  0  0  0  0  # atno 17371 bound_to 10713
  139.8832  134.9002  156.2783 LP  0  0  0  0  0  0  0  0  0  0  0  0  # atno 17394 bound_to 11000
  140.9942  133.7190  156.0861 LP  0  0  0  0  0  0  0  0  0  0  0  0  # atno 17395 bound_to 11000

$$$$
