AV-unprocessed.smi:2953|AV-procd|sdf|11294|dock10
  -GOLD-   2272016183D 1   1.00000     0.00000
 Structure written by MMmdl.
 45 47  0  0  0  0  0  0  0  0  1 V2000
  152.9458  143.0174  163.1306 C   0  0  0  0  0  0  0  0  0  0  0  0
  152.6721  143.3829  161.6839 C   0  0  0  0  0  0  0  0  0  0  0  0
  151.9270  144.5487  161.4087 C   0  0  0  0  0  0  0  0  0  0  0  0
  151.6586  144.9257  160.0810 C   0  0  0  0  0  0  0  0  0  0  0  0
  152.1347  144.1347  159.0216 C   0  0  0  0  0  0  0  0  0  0  0  0
  152.8757  142.9681  159.2894 C   0  0  0  0  0  0  0  0  0  0  0  0
  153.1546  142.5753  160.6246 C   0  0  0  0  0  0  0  0  0  0  0  0
  153.8718  141.4391  160.9460 O   0  0  0  0  0  0  0  0  0  0  0  0
  154.2737  140.5825  159.8836 C   0  0  0  0  0  0  0  0  0  0  0  0
  155.4609  139.7101  160.3140 C   0  0  0  0  0  0  0  0  0  0  0  0
  155.0652  138.6187  161.1941 N   0  0  0  0  0  0  0  0  0  0  0  0
  154.4185  137.4599  160.8969 C   0  0  0  0  0  0  0  0  0  0  0  0
  153.9891  137.0903  159.5003 C   0  0  1  0  0  0  0  0  0  0  0  0
  152.9255  138.0497  158.9478 C   0  0  0  0  0  0  0  0  0  0  0  0
  155.1688  137.0956  158.6425 N   0  0  0  0  0  0  0  0  0  0  0  0
  155.1599  136.7663  157.3448 C   0  0  0  0  0  0  0  0  0  0  0  0
  154.1441  136.4233  156.7457 O   0  0  0  0  0  0  0  0  0  0  0  0
  154.1424  136.6734  161.9408 N   0  0  0  0  0  0  0  0  0  0  0  0
  154.6949  137.3606  163.0016 C   0  0  0  0  0  0  0  0  0  0  0  0
  154.7496  137.0381  164.3764 C   0  0  0  0  0  0  0  0  0  0  0  0
  155.3785  137.9094  165.2895 C   0  0  0  0  0  0  0  0  0  0  0  0
  155.9589  139.1137  164.8418 C   0  0  0  0  0  0  0  0  0  0  0  0
  155.9123  139.4548  163.4763 C   0  0  0  0  0  0  0  0  0  0  0  0
  155.2842  138.5806  162.5685 C   0  0  0  0  0  0  0  0  0  0  0  0
  152.9818  143.9109  163.7544 H   0  0  0  0  0  0  0  0  0  0  0  0
  153.8990  142.5007  163.2416 H   0  0  0  0  0  0  0  0  0  0  0  0
  152.1518  142.3744  163.5090 H   0  0  0  0  0  0  0  0  0  0  0  0
  151.5590  145.1610  162.2190 H   0  0  0  0  0  0  0  0  0  0  0  0
  151.0885  145.8200  159.8762 H   0  0  0  0  0  0  0  0  0  0  0  0
  151.9296  144.4212  158.0007 H   0  0  0  0  0  0  0  0  0  0  0  0
  153.2155  142.3872  158.4459 H   0  0  0  0  0  0  0  0  0  0  0  0
  153.4451  139.9437  159.5743 H   0  0  0  0  0  0  0  0  0  0  0  0
  154.5743  141.1816  159.0226 H   0  0  0  0  0  0  0  0  0  0  0  0
  155.9213  139.2722  159.4278 H   0  0  0  0  0  0  0  0  0  0  0  0
  156.2428  140.3086  160.7793 H   0  0  0  0  0  0  0  0  0  0  0  0
  153.5465  136.0956  159.4920 H   0  0  0  0  0  0  0  0  0  0  0  0
  152.0584  138.0860  159.6069 H   0  0  0  0  0  0  0  0  0  0  0  0
  152.5839  137.7321  157.9622 H   0  0  0  0  0  0  0  0  0  0  0  0
  153.3096  139.0660  158.8541 H   0  0  0  0  0  0  0  0  0  0  0  0
  156.0482  137.3522  159.0670 H   0  0  0  0  0  0  0  0  0  0  0  0
  156.1616  136.8408  156.8935 H   0  0  0  0  0  0  0  0  0  0  0  0
  154.3075  136.1180  164.7293 H   0  0  0  0  0  0  0  0  0  0  0  0
  155.4155  137.6526  166.3378 H   0  0  0  0  0  0  0  0  0  0  0  0
  156.4395  139.7755  165.5474 H   0  0  0  0  0  0  0  0  0  0  0  0
  156.3563  140.3767  163.1315 H   0  0  0  0  0  0  0  0  0  0  0  0
  1  2  1  0  0  0  0
  1 25  1  0  0  0  0
  1 26  1  0  0  0  0
  1 27  1  0  0  0  0
  2  7  1  0  0  0  0
  2  3  2  0  0  0  0
  3  4  1  0  0  0  0
  3 28  1  0  0  0  0
  4  5  2  0  0  0  0
  4 29  1  0  0  0  0
  5  6  1  0  0  0  0
  5 30  1  0  0  0  0
  6  7  2  0  0  0  0
  6 31  1  0  0  0  0
  7  8  1  0  0  0  0
  8  9  1  0  0  0  0
  9 10  1  0  0  0  0
  9 32  1  0  0  0  0
  9 33  1  0  0  0  0
 10 11  1  0  0  0  0
 10 34  1  0  0  0  0
 10 35  1  0  0  0  0
 11 24  1  0  0  0  0
 11 12  1  0  0  0  0
 12 13  1  0  0  0  0
 12 18  2  0  0  0  0
 13 14  1  0  0  0  0
 13 15  1  0  0  0  0
 13 36  1  0  0  0  0
 14 37  1  0  0  0  0
 14 38  1  0  0  0  0
 14 39  1  0  0  0  0
 15 16  1  0  0  0  0
 15 40  1  0  0  0  0
 16 17  2  0  0  0  0
 16 41  1  0  0  0  0
 18 19  1  0  0  0  0
 19 24  2  0  0  0  0
 19 20  1  0  0  0  0
 20 21  2  0  0  0  0
 20 42  1  0  0  0  0
 21 22  1  0  0  0  0
 21 43  1  0  0  0  0
 22 23  2  0  0  0  0
 22 44  1  0  0  0  0
 23 24  1  0  0  0  0
 23 45  1  0  0  0  0
M  END
> <s_m_source_file>
AV-unprocessed.smi

> <i_m_source_file_index>
2953

> <i_lp_mmshare_version>
43012

> <i_f3d_flags>
0

> <s_epik_input>
W0NIM11jMVtjSF1bY0hdW2NIXVtjSF1jMU9bQ0gyXVtDSDJdbihjKG4yKVtDQEhdKFtDSDNdKVtOSF1bQ0hdPU8pYyhjMjMpW2NIXVtjSF1bY0hdW2NIXTM=

> <s_epik_cmdline>
J2VwaWtfcHl0aG9uJywgJy1waCcsICc3LjAnLCAnLXRuJywgJzgnLCAnLW1hJywgJzIwMCcsICctbWV0YWxfYmluZGluZycsICctaW1hZScsICc8aW5maWxlLm1hZT4nLCAnLW9tYWUnLCAnPG91dGZpbGUubWFlPic=

> <r_lp_tautomer_probability>
1

> <r_epik_Ionization_Penalty>
0.0924205

> <r_epik_Ionization_Penalty_Charging>
0

> <r_epik_Ionization_Penalty_Neutral>
0.0924205

> <r_epik_State_Penalty>
0.0827154

> <r_epik_Charging_Adjusted_Penalty>
0.0827154

> <i_epik_Tot_Q>
0

> <i_epik_Tot_abs_Q>
0

> <r_epik_Metal_State_Penalty>
0.071464

> <b_epik_Metal_Only>
0

> <s_lp_Force_Field>
OPLS_2005

> <r_lp_Energy>
13.3209

> <b_lp_Chiralities_Consistent>
1

> <s_lp_Variant>
AV-unprocessed.smi:2953-2

> <Gold.Version>
5.8.1

> <Gold.Id.Protein>
6NUR|6NUR_protein|mol2

> <Gold.PLP.Fitness>
55.2946

> <Gold.PLP.PLP>
-53.0334

> <Gold.PLP.part.hbond>
-1.0000

> <Gold.PLP.part.metal>
0.0000

> <Gold.PLP.part.buried>
-6.4536

> <Gold.PLP.part.nonpolar>
-45.8887

> <Gold.PLP.part.repulsive>
0.0572

> <Gold.PLP.ligand.clash>
0.0000

> <Gold.PLP.ligand.torsion>
0.4261

> <Gold.PLP.Chemscore.Hbond>
1.0000

> <Gold.PLP.Chemscore.CHOScore>
0.0000

> <Gold.PLP.Chemscore.Metal>
0.0000

> <Gold.Chemscore.Hbonds>
donor molecule, donor type, donor heavy atom, donor atom, acceptor molecule, acceptor atom, score
      P1  H 10752 10764       L1    17  0.91

> <Gold.PLP.Chemscore.Internal.Correction>
0.1134

> <Gold.Rescore>
     Score         DG    S(hbond)    S(metal)    S(lipo)     H(rot)  DE(clash)    DE(int)     intcor
     20.08     -20.68       1.00        0.00     150.90       2.26       0.06       0.55       ----

> <Gold.Chemscore.Fitness>
20.0809

> <Gold.Chemscore.DG>
-20.6848

> <Gold.Chemscore.ZeroCoef>
-5.4800

> <Gold.Chemscore.Hbond>
0.9999

> <Gold.Chemscore.Metal>
0.0000

> <Gold.Chemscore.Lipo>
150.9023

> <Gold.Chemscore.Internal_Hbond>
0.0000

> <Gold.Chemscore.DEClash>
0.0562

> <Gold.Chemscore.DEInternal>
0.5477

> <Gold.Chemscore.Rot>
2.2619

> <Gold.Chemscore.Internal.Correction>
   9.000000E+99

> <Gold.Chemscore.Hbonds>
donor molecule, donor type, donor heavy atom, donor atom, acceptor molecule, acceptor atom, score
      P1  H 10752 10764       L1    17  0.89

> <Gold.Chemscore.Hbond.Weighted>
-3.3398

> <Gold.Chemscore.Metal.Weighted>
-0.0000

> <Gold.Chemscore.Lipo.Weighted>
-17.6556

> <Gold.Chemscore.Internal_Hbond.Weighted>
0.0000

> <Gold.Chemscore.DEClash.Weighted>
0.0562

> <Gold.Chemscore.DEInternal.Weighted>
0.5477

> <Gold.Chemscore.Rot.Weighted>
5.7906

> <Gold.Chemscore.Internal.Correction.Weighted>
   9.000000E+99

> <Gold.Protein.RotatedTorsions>
[ 6907 6896 6895 6894 ] final  -71.79 input  -60.11 | X-H torsion
[ 7974 7965 7964 7962 ] final  170.91 input  175.53 | X-H torsion
[ 8008 7997 7996 7995 ] final  -79.67 input   59.86 | X-H torsion
[ 10167 10162 10161 10158 ] final  170.40 input  -65.29 | X-H torsion
[ 10718 10713 10712 10709 ] final  -45.45 input   66.30 | X-H torsion
[ 10763 10752 10751 10750 ] final   34.74 input  -60.55 | X-H torsion
[ 11005 11000 10999 10996 ] final   31.97 input  -57.11 | X-H torsion

> <Gold.Protein.ActiveResidues>
 VAL166  LYS551  ARG553  GLY616  TRP617  ASP618  TYR619  PRO620  LYS621  CYS622 
 ASP623  PHE694  ASN695  SER759  ASP760  ASP761  ALA762  ILE779  LEU786  VAL792 
 PHE793  MET794  SER795  GLU796  ALA797  LYS798  CYS799  TRP800  GLU811  SER814 

> <Gold.Protein.RotatedAtoms>
  150.7197  134.5258  159.5675 H   0  0  0  0  0  0  0  0  0  0  0  0  # atno 6907 bound_to 6896
  152.2802  134.7833  160.0407 H   0  0  0  0  0  0  0  0  0  0  0  0  # atno 6908 bound_to 6896
  151.8483  133.3400  159.3701 H   0  0  0  0  0  0  0  0  0  0  0  0  # atno 6909 bound_to 6896
  144.7310  139.9272  143.6423 H   0  0  0  0  0  0  0  0  0  0  0  0  # atno 7974 bound_to 7965
  154.5808  140.0674  156.9101 H   0  0  0  0  0  0  0  0  0  0  0  0  # atno 8008 bound_to 7997
  155.2466  140.3348  155.4268 H   0  0  0  0  0  0  0  0  0  0  0  0  # atno 8009 bound_to 7997
  156.2188  140.1790  156.7511 H   0  0  0  0  0  0  0  0  0  0  0  0  # atno 8010 bound_to 7997
  139.5017  144.3601  151.9834 H   0  0  0  0  0  0  0  0  0  0  0  0  # atno 10167 bound_to 10162
  156.2282  130.4171  149.8907 H   0  0  0  0  0  0  0  0  0  0  0  0  # atno 10718 bound_to 10713
  153.0150  135.6352  154.1717 H   0  0  0  0  0  0  0  0  0  0  0  0  # atno 10763 bound_to 10752
  154.1456  135.2832  155.3151 H   0  0  0  0  0  0  0  0  0  0  0  0  # atno 10764 bound_to 10752
  154.6091  135.5562  153.7516 H   0  0  0  0  0  0  0  0  0  0  0  0  # atno 10765 bound_to 10752
  140.2783  134.3002  155.7808 H   0  0  0  0  0  0  0  0  0  0  0  0  # atno 11005 bound_to 11000
  146.0885  139.3874  143.0420 LP  0  0  0  0  0  0  0  0  0  0  0  0  # atno 17320 bound_to 7965
  145.7743  140.9883  143.1132 LP  0  0  0  0  0  0  0  0  0  0  0  0  # atno 17321 bound_to 7965
  140.3037  144.3617  150.6053 LP  0  0  0  0  0  0  0  0  0  0  0  0  # atno 17342 bound_to 10162
  140.5853  143.2170  151.7353 LP  0  0  0  0  0  0  0  0  0  0  0  0  # atno 17343 bound_to 10162
  156.6530  130.8751  151.3534 LP  0  0  0  0  0  0  0  0  0  0  0  0  # atno 17370 bound_to 10713
  157.7120  130.9452  150.1124 LP  0  0  0  0  0  0  0  0  0  0  0  0  # atno 17371 bound_to 10713
  141.2167  133.7509  156.9442 LP  0  0  0  0  0  0  0  0  0  0  0  0  # atno 17394 bound_to 11000
  140.1307  134.9357  157.2333 LP  0  0  0  0  0  0  0  0  0  0  0  0  # atno 17395 bound_to 11000

$$$$
