AV-unprocessed.smi:2307|AV-procd|sdf|9250|dock7
  -GOLD-   2272012473D 1   1.00000     0.00000
 Structure written by MMmdl.
 38 39  0  0  0  0  0  0  0  0  1 V2000
  152.1447  143.8863  161.5297 C   0  0  0  0  0  0  0  0  0  0  0  0
  152.0099  143.2861  160.1414 C   0  0  0  0  0  0  0  0  0  0  0  0
  151.4374  144.1194  159.1765 N   0  0  0  0  0  0  0  0  0  0  0  0
  151.2791  143.6915  157.9670 C   0  0  0  0  0  0  0  0  0  0  0  0
  151.6656  142.3946  157.5852 N   0  0  0  0  0  0  0  0  0  0  0  0
  151.4142  142.0094  156.1837 C   0  0  0  0  0  0  0  0  0  0  0  0
  150.3281  140.9163  156.0418 C   0  0  2  0  0  0  0  0  0  0  0  0
  150.7670  139.9757  155.0837 O   0  0  0  0  0  0  0  0  0  0  0  0
  148.9547  141.4827  155.7066 C   0  0  0  0  0  0  0  0  0  0  0  0
  147.9361  141.5221  156.6813 C   0  0  0  0  0  0  0  0  0  0  0  0
  146.6621  142.0237  156.3550 C   0  0  0  0  0  0  0  0  0  0  0  0
  146.3786  142.4906  155.0553 C   0  0  0  0  0  0  0  0  0  0  0  0
  145.1006  142.9592  154.8268 O   0  0  0  0  0  0  0  0  0  0  0  0
  144.8488  144.2915  154.7108 C   0  0  0  0  0  0  0  0  0  0  0  0
  143.5113  144.4918  154.6307 F   0  0  0  0  0  0  0  0  0  0  0  0
  145.2878  144.9857  155.7907 F   0  0  0  0  0  0  0  0  0  0  0  0
  145.3936  144.8135  153.5830 F   0  0  0  0  0  0  0  0  0  0  0  0
  147.4059  142.4493  154.0792 C   0  0  0  0  0  0  0  0  0  0  0  0
  148.6816  141.9497  154.4046 C   0  0  0  0  0  0  0  0  0  0  0  0
  152.2411  141.5222  158.4621 C   0  0  0  0  0  0  0  0  0  0  0  0
  152.5830  140.3898  158.1164 O   0  0  0  0  0  0  0  0  0  0  0  0
  152.4142  142.0234  159.8350 C   0  0  0  0  0  0  0  0  0  0  0  0
  153.0453  141.0718  160.8435 C   0  0  0  0  0  0  0  0  0  0  0  0
  153.1928  143.9263  161.8272 H   0  0  0  0  0  0  0  0  0  0  0  0
  151.5965  143.2898  162.2594 H   0  0  0  0  0  0  0  0  0  0  0  0
  151.7492  144.9021  161.5642 H   0  0  0  0  0  0  0  0  0  0  0  0
  150.8333  144.3022  157.1803 H   0  0  0  0  0  0  0  0  0  0  0  0
  151.1270  142.8784  155.5881 H   0  0  0  0  0  0  0  0  0  0  0  0
  152.3454  141.6631  155.7312 H   0  0  0  0  0  0  0  0  0  0  0  0
  150.2485  140.3724  156.9837 H   0  0  0  0  0  0  0  0  0  0  0  0
  150.2210  139.2070  155.1481 H   0  0  0  0  0  0  0  0  0  0  0  0
  148.1262  141.1607  157.6815 H   0  0  0  0  0  0  0  0  0  0  0  0
  145.8912  142.0466  157.1114 H   0  0  0  0  0  0  0  0  0  0  0  0
  147.2397  142.7929  153.0700 H   0  0  0  0  0  0  0  0  0  0  0  0
  149.4488  141.9176  153.6448 H   0  0  0  0  0  0  0  0  0  0  0  0
  152.4332  140.1755  160.9474 H   0  0  0  0  0  0  0  0  0  0  0  0
  153.1589  141.5089  161.8341 H   0  0  0  0  0  0  0  0  0  0  0  0
  154.0364  140.7683  160.5049 H   0  0  0  0  0  0  0  0  0  0  0  0
  1  2  1  0  0  0  0
  1 24  1  0  0  0  0
  1 25  1  0  0  0  0
  1 26  1  0  0  0  0
  2 22  2  0  0  0  0
  2  3  1  0  0  0  0
  3  4  2  0  0  0  0
  4  5  1  0  0  0  0
  4 27  1  0  0  0  0
  5  6  1  0  0  0  0
  5 20  1  0  0  0  0
  6  7  1  0  0  0  0
  6 28  1  0  0  0  0
  6 29  1  0  0  0  0
  7  8  1  0  0  0  0
  7  9  1  0  0  0  0
  7 30  1  0  0  0  0
  8 31  1  0  0  0  0
  9 19  1  0  0  0  0
  9 10  2  0  0  0  0
 10 11  1  0  0  0  0
 10 32  1  0  0  0  0
 11 12  2  0  0  0  0
 11 33  1  0  0  0  0
 12 13  1  0  0  0  0
 12 18  1  0  0  0  0
 13 14  1  0  0  0  0
 14 15  1  0  0  0  0
 14 16  1  0  0  0  0
 14 17  1  0  0  0  0
 18 19  2  0  0  0  0
 18 34  1  0  0  0  0
 19 35  1  0  0  0  0
 20 21  2  0  0  0  0
 20 22  1  0  0  0  0
 22 23  1  0  0  0  0
 23 36  1  0  0  0  0
 23 37  1  0  0  0  0
 23 38  1  0  0  0  0
M  END
> <s_m_source_file>
AV-unprocessed.smi

> <i_m_source_file_index>
2307

> <i_lp_mmshare_version>
43012

> <i_f3d_flags>
0

> <s_epik_input>
W0NIM11jMW5bY0hdbihjKD1PKWMxW0NIM10pW0NIMl1bQ0BIXShbT0hdKWMyW2NIXVtjSF1jKE9DKEYpKEYpRilbY0hdW2NIXTI=

> <s_epik_cmdline>
J2VwaWtfcHl0aG9uJywgJy1waCcsICc3LjAnLCAnLXRuJywgJzgnLCAnLW1hJywgJzIwMCcsICctbWV0YWxfYmluZGluZycsICctaW1hZScsICc8aW5maWxlLm1hZT4nLCAnLW9tYWUnLCAnPG91dGZpbGUubWFlPic=

> <r_lp_tautomer_probability>
1

> <r_epik_Ionization_Penalty>
5.07003e-05

> <r_epik_Ionization_Penalty_Charging>
7.56727e-08

> <r_epik_Ionization_Penalty_Neutral>
5.06246e-05

> <r_epik_State_Penalty>
-0

> <r_epik_Charging_Adjusted_Penalty>
7.56727e-08

> <i_epik_Tot_Q>
0

> <i_epik_Tot_abs_Q>
0

> <r_epik_Metal_State_Penalty>
-0

> <b_epik_Metal_Only>
0

> <s_lp_Force_Field>
OPLS_2005

> <r_lp_Energy>
16.6377

> <b_lp_Chiralities_Consistent>
1

> <s_lp_Variant>
AV-unprocessed.smi:2307-1

> <Gold.Version>
5.8.1

> <Gold.Id.Protein>
6NUR|6NUR_protein|mol2

> <Gold.PLP.Fitness>
47.6211

> <Gold.PLP.PLP>
-41.4026

> <Gold.PLP.part.hbond>
-2.0000

> <Gold.PLP.part.metal>
0.0000

> <Gold.PLP.part.buried>
-6.6933

> <Gold.PLP.part.nonpolar>
-32.1665

> <Gold.PLP.part.repulsive>
0.2116

> <Gold.PLP.ligand.clash>
0.0000

> <Gold.PLP.ligand.torsion>
1.1206

> <Gold.PLP.Chemscore.Hbond>
1.7977

> <Gold.PLP.Chemscore.CHOScore>
1.0000

> <Gold.PLP.Chemscore.Metal>
0.0000

> <Gold.Chemscore.Hbonds>
donor molecule, donor type, donor heavy atom, donor atom, acceptor molecule, acceptor atom, score
      P1  H  7989  7998       L1     8  1.00
      P1  H  7997  8010       L1    21  0.32
      L1  C     4    27       P1  8028  1.00

> <Gold.PLP.Chemscore.Internal.Correction>
0.0667

> <Gold.Rescore>
     Score         DG    S(hbond)    S(metal)    S(lipo)     H(rot)  DE(clash)    DE(int)     intcor
     11.30     -13.95       1.53        0.00      87.41       2.69       0.65       1.99       ----

> <Gold.Chemscore.Fitness>
11.3046

> <Gold.Chemscore.DG>
-13.9474

> <Gold.Chemscore.ZeroCoef>
-5.4800

> <Gold.Chemscore.Hbond>
1.5315

> <Gold.Chemscore.Metal>
0.0000

> <Gold.Chemscore.Lipo>
87.4122

> <Gold.Chemscore.Internal_Hbond>
0.0000

> <Gold.Chemscore.DEClash>
0.6507

> <Gold.Chemscore.DEInternal>
1.9922

> <Gold.Chemscore.Rot>
2.6856

> <Gold.Chemscore.Internal.Correction>
   9.000000E+99

> <Gold.Chemscore.Hbonds>
donor molecule, donor type, donor heavy atom, donor atom, acceptor molecule, acceptor atom, score
      P1  H  7989  7998       L1     8  0.78
      P1  H  7997  8010       L1    21  0.30

> <Gold.Chemscore.Hbond.Weighted>
-5.1154

> <Gold.Chemscore.Metal.Weighted>
-0.0000

> <Gold.Chemscore.Lipo.Weighted>
-10.2272

> <Gold.Chemscore.Internal_Hbond.Weighted>
0.0000

> <Gold.Chemscore.DEClash.Weighted>
0.6507

> <Gold.Chemscore.DEInternal.Weighted>
1.9922

> <Gold.Chemscore.Rot.Weighted>
6.8751

> <Gold.Chemscore.Internal.Correction.Weighted>
   9.000000E+99

> <Gold.Protein.RotatedTorsions>
[ 6907 6896 6895 6894 ] final  -19.40 input  -60.11 | X-H torsion
[ 7974 7965 7964 7962 ] final  126.08 input  175.53 | X-H torsion
[ 8008 7997 7996 7995 ] final   48.47 input   59.86 | X-H torsion
[ 10167 10162 10161 10158 ] final  -30.30 input  -65.29 | X-H torsion
[ 10718 10713 10712 10709 ] final  -85.48 input   66.30 | X-H torsion
[ 10763 10752 10751 10750 ] final  -80.92 input  -60.55 | X-H torsion
[ 11005 11000 10999 10996 ] final  107.46 input  -57.11 | X-H torsion

> <Gold.Protein.ActiveResidues>
 VAL166  LYS551  ARG553  GLY616  TRP617  ASP618  TYR619  PRO620  LYS621  CYS622 
 ASP623  PHE694  ASN695  SER759  ASP760  ASP761  ALA762  ILE779  LEU786  VAL792 
 PHE793  MET794  SER795  GLU796  ALA797  LYS798  CYS799  TRP800  GLU811  SER814 

> <Gold.Protein.RotatedAtoms>
  151.2637  135.0662  159.9107 H   0  0  0  0  0  0  0  0  0  0  0  0  # atno 6907 bound_to 6896
  152.5362  134.0203  159.7989 H   0  0  0  0  0  0  0  0  0  0  0  0  # atno 6908 bound_to 6896
  151.0430  133.5639  159.2680 H   0  0  0  0  0  0  0  0  0  0  0  0  # atno 6909 bound_to 6896
  145.0657  139.3769  143.4983 H   0  0  0  0  0  0  0  0  0  0  0  0  # atno 7974 bound_to 7965
  155.3862  140.3431  155.4249 H   0  0  0  0  0  0  0  0  0  0  0  0  # atno 8008 bound_to 7997
  156.1583  140.1592  156.8689 H   0  0  0  0  0  0  0  0  0  0  0  0  # atno 8009 bound_to 7997
  154.5115  140.0789  156.7981 H   0  0  0  0  0  0  0  0  0  0  0  0  # atno 8010 bound_to 7997
  140.7251  143.3860  151.1515 H   0  0  0  0  0  0  0  0  0  0  0  0  # atno 10167 bound_to 10162
  155.9996  130.4732  150.4569 H   0  0  0  0  0  0  0  0  0  0  0  0  # atno 10718 bound_to 10713
  154.5572  135.5644  153.6975 H   0  0  0  0  0  0  0  0  0  0  0  0  # atno 10763 bound_to 10752
  153.0007  135.6265  154.2294 H   0  0  0  0  0  0  0  0  0  0  0  0  # atno 10764 bound_to 10752
  154.2230  135.2869  155.2897 H   0  0  0  0  0  0  0  0  0  0  0  0  # atno 10765 bound_to 10752
  139.8828  134.9401  156.5823 H   0  0  0  0  0  0  0  0  0  0  0  0  # atno 11005 bound_to 11000
  146.3526  140.0377  142.8645 LP  0  0  0  0  0  0  0  0  0  0  0  0  # atno 17320 bound_to 7965
  145.1354  140.9541  143.4520 LP  0  0  0  0  0  0  0  0  0  0  0  0  # atno 17321 bound_to 7965
  139.7457  143.8856  152.3063 LP  0  0  0  0  0  0  0  0  0  0  0  0  # atno 17342 bound_to 10162
  139.8692  144.7077  150.9007 LP  0  0  0  0  0  0  0  0  0  0  0  0  # atno 17343 bound_to 10162
  157.2597  131.0564  151.2328 LP  0  0  0  0  0  0  0  0  0  0  0  0  # atno 17370 bound_to 10713
  157.3447  130.7051  149.6403 LP  0  0  0  0  0  0  0  0  0  0  0  0  # atno 17371 bound_to 10713
  140.8017  133.8499  155.8733 LP  0  0  0  0  0  0  0  0  0  0  0  0  # atno 17394 bound_to 11000
  140.9586  134.1685  157.4672 LP  0  0  0  0  0  0  0  0  0  0  0  0  # atno 17395 bound_to 11000

$$$$
