AV-unprocessed.smi:588|AV-procd|sdf|3004|dock2
  -GOLD-   2262023513D 1   1.00000     0.00000
 Structure written by MMmdl.
 50 51  0  0  0  0  0  0  0  0  1 V2000
  148.9859  141.0923  154.4496 C   0  0  0  0  0  0  0  0  0  0  0  0
  149.9226  141.3843  155.6259 C   0  0  0  0  0  0  0  0  0  0  0  0
  149.2318  141.1883  156.9857 C   0  0  0  0  0  0  0  0  0  0  0  0
  149.5452  139.9091  157.5912 N   0  0  0  0  0  0  0  0  0  0  0  0
  148.5813  138.9507  157.9178 C   0  0  0  0  0  0  0  0  0  0  0  0
  147.2533  139.2392  157.6394 N   0  0  0  0  0  0  0  0  0  0  0  0
  148.9209  137.7608  158.4973 C   0  0  0  0  0  0  0  0  0  0  0  0
  147.9537  136.7846  158.7967 N   0  0  0  0  0  0  0  0  0  0  0  0
  147.4613  135.9783  157.6695 C   0  0  0  0  0  0  0  0  0  0  0  0
  148.6110  135.2954  156.9117 C   0  0  0  0  0  0  0  0  0  0  0  0
  148.0970  134.7146  155.7256 O   0  0  0  0  0  0  0  0  0  0  0  0
  149.1072  134.1086  154.9383 C   0  0  0  0  0  0  0  0  0  0  0  0
  147.4904  136.5726  160.0575 C   0  0  0  0  0  0  0  0  0  0  0  0
  147.8253  137.2940  160.9991 O   0  0  0  0  0  0  0  0  0  0  0  0
  146.5431  135.3826  160.3523 C   0  0  0  0  0  0  0  0  0  0  0  0
  146.1027  135.3634  161.8348 C   0  0  0  0  0  0  0  0  0  0  0  0
  146.5367  134.0122  162.4145 C   0  0  0  0  0  0  0  0  0  0  0  0
  147.6613  133.5325  161.5030 C   0  0  0  0  0  0  0  0  0  0  0  0
  147.2376  134.0242  160.1202 C   0  0  0  0  0  0  0  0  0  0  0  0
  150.3276  137.4346  158.7683 C   0  0  0  0  0  0  0  0  0  0  0  0
  150.7386  136.3916  159.2750 O   0  0  0  0  0  0  0  0  0  0  0  0
  151.2388  138.4181  158.3924 N   0  0  0  0  0  0  0  0  0  0  0  0
  150.9180  139.6378  157.8072 C   0  0  0  0  0  0  0  0  0  0  0  0
  151.8219  140.4164  157.5019 O   0  0  0  0  0  0  0  0  0  0  0  0
  152.2172  138.2255  158.5506 H   0  0  0  0  0  0  0  0  0  0  0  0
  149.4988  141.2389  153.4990 H   0  0  0  0  0  0  0  0  0  0  0  0
  148.1182  141.7523  154.4652 H   0  0  0  0  0  0  0  0  0  0  0  0
  148.6261  140.0635  154.4793 H   0  0  0  0  0  0  0  0  0  0  0  0
  150.7953  140.7336  155.5603 H   0  0  0  0  0  0  0  0  0  0  0  0
  150.2937  142.4063  155.5422 H   0  0  0  0  0  0  0  0  0  0  0  0
  149.4915  141.9754  157.6958 H   0  0  0  0  0  0  0  0  0  0  0  0
  148.1472  141.2400  156.8947 H   0  0  0  0  0  0  0  0  0  0  0  0
  146.9759  140.1121  157.2134 H   0  0  0  0  0  0  0  0  0  0  0  0
  146.5070  138.6065  157.8901 H   0  0  0  0  0  0  0  0  0  0  0  0
  146.7445  135.2329  158.0185 H   0  0  0  0  0  0  0  0  0  0  0  0
  146.9079  136.6105  156.9734 H   0  0  0  0  0  0  0  0  0  0  0  0
  149.3819  136.0258  156.6611 H   0  0  0  0  0  0  0  0  0  0  0  0
  149.0755  134.5258  157.5298 H   0  0  0  0  0  0  0  0  0  0  0  0
  148.6641  133.6797  154.0396 H   0  0  0  0  0  0  0  0  0  0  0  0
  149.6045  133.3060  155.4843 H   0  0  0  0  0  0  0  0  0  0  0  0
  149.8568  134.8380  154.6289 H   0  0  0  0  0  0  0  0  0  0  0  0
  145.6645  135.4021  159.7088 H   0  0  0  0  0  0  0  0  0  0  0  0
  146.5701  136.1694  162.4035 H   0  0  0  0  0  0  0  0  0  0  0  0
  145.0252  135.5005  161.9312 H   0  0  0  0  0  0  0  0  0  0  0  0
  146.8448  134.0835  163.4579 H   0  0  0  0  0  0  0  0  0  0  0  0
  145.7041  133.3093  162.3632 H   0  0  0  0  0  0  0  0  0  0  0  0
  148.6020  134.0020  161.7941 H   0  0  0  0  0  0  0  0  0  0  0  0
  147.8011  132.4518  161.5405 H   0  0  0  0  0  0  0  0  0  0  0  0
  146.5220  133.3224  159.6895 H   0  0  0  0  0  0  0  0  0  0  0  0
  148.0813  134.0751  159.4300 H   0  0  0  0  0  0  0  0  0  0  0  0
  1  2  1  0  0  0  0
  1 26  1  0  0  0  0
  1 27  1  0  0  0  0
  1 28  1  0  0  0  0
  2  3  1  0  0  0  0
  2 29  1  0  0  0  0
  2 30  1  0  0  0  0
  3  4  1  0  0  0  0
  3 31  1  0  0  0  0
  3 32  1  0  0  0  0
  4 23  1  0  0  0  0
  4  5  1  0  0  0  0
  5  6  1  0  0  0  0
  5  7  2  0  0  0  0
  6 33  1  0  0  0  0
  6 34  1  0  0  0  0
  7  8  1  0  0  0  0
  7 20  1  0  0  0  0
  8  9  1  0  0  0  0
  8 13  1  0  0  0  0
  9 10  1  0  0  0  0
  9 35  1  0  0  0  0
  9 36  1  0  0  0  0
 10 11  1  0  0  0  0
 10 37  1  0  0  0  0
 10 38  1  0  0  0  0
 11 12  1  0  0  0  0
 12 39  1  0  0  0  0
 12 40  1  0  0  0  0
 12 41  1  0  0  0  0
 13 14  2  0  0  0  0
 13 15  1  0  0  0  0
 15 19  1  0  0  0  0
 15 16  1  0  0  0  0
 15 42  1  0  0  0  0
 16 17  1  0  0  0  0
 16 43  1  0  0  0  0
 16 44  1  0  0  0  0
 17 18  1  0  0  0  0
 17 45  1  0  0  0  0
 17 46  1  0  0  0  0
 18 19  1  0  0  0  0
 18 47  1  0  0  0  0
 18 48  1  0  0  0  0
 19 49  1  0  0  0  0
 19 50  1  0  0  0  0
 20 21  2  0  0  0  0
 20 22  1  0  0  0  0
 22 25  1  0  0  0  0
 22 23  1  0  0  0  0
 23 24  2  0  0  0  0
M  END
> <s_m_source_file>
AV-unprocessed.smi

> <i_m_source_file_index>
588

> <i_lp_mmshare_version>
43012

> <i_f3d_flags>
0

> <s_epik_input>
W0NIM11bQ0gyXVtDSDJdbjFjKFtOSDJdKWMoYyg9TylbbkhdYzE9TylOKFtDSDJdW0NIMl1PW0NIM10pQyg9TylbQ0hdMltDSDJdW0NIMl1bQ0gyXVtDSDJdMg==

> <s_epik_cmdline>
J2VwaWtfcHl0aG9uJywgJy1waCcsICc3LjAnLCAnLXRuJywgJzgnLCAnLW1hJywgJzIwMCcsICctbWV0YWxfYmluZGluZycsICctaW1hZScsICc8aW5maWxlLm1hZT4nLCAnLW9tYWUnLCAnPG91dGZpbGUubWFlPic=

> <r_lp_tautomer_probability>
1

> <r_epik_Ionization_Penalty>
2.06963e-05

> <r_epik_Ionization_Penalty_Charging>
5.41733e-06

> <r_epik_Ionization_Penalty_Neutral>
1.52789e-05

> <r_epik_State_Penalty>
-0

> <r_epik_Charging_Adjusted_Penalty>
5.41733e-06

> <i_epik_Tot_Q>
0

> <i_epik_Tot_abs_Q>
0

> <r_epik_Metal_State_Penalty>
-0

> <b_epik_Metal_Only>
0

> <s_epik_Chemistry_Notes>
This compound has an imine and may undergo hydrolysis.

> <s_lp_Force_Field>
OPLS_2005

> <r_lp_Energy>
42.8074

> <b_lp_Chiralities_Consistent>
1

> <s_lp_Variant>
AV-unprocessed.smi:588-1

> <Gold.Version>
5.8.1

> <Gold.Id.Protein>
6NUR|6NUR_protein|mol2

> <Gold.PLP.Fitness>
38.0698

> <Gold.PLP.PLP>
-31.0364

> <Gold.PLP.part.hbond>
-3.0000

> <Gold.PLP.part.metal>
0.0000

> <Gold.PLP.part.buried>
-5.0630

> <Gold.PLP.part.nonpolar>
-23.0274

> <Gold.PLP.part.repulsive>
0.2114

> <Gold.PLP.ligand.clash>
0.0000

> <Gold.PLP.ligand.torsion>
1.8187

> <Gold.PLP.Chemscore.Hbond>
2.7120

> <Gold.PLP.Chemscore.CHOScore>
0.0000

> <Gold.PLP.Chemscore.Metal>
0.0000

> <Gold.Chemscore.Hbonds>
donor molecule, donor type, donor heavy atom, donor atom, acceptor molecule, acceptor atom, score
      P1  H  6896  6907       L1    21  0.91
      P1  H  6931  6943       L1    14  0.86
      P1  H  6934  6947       L1    14  0.80

> <Gold.PLP.Chemscore.Internal.Correction>
2.5348

> <Gold.Rescore>
     Score         DG    S(hbond)    S(metal)    S(lipo)     H(rot)  DE(clash)    DE(int)     intcor
     13.52     -16.54       2.69        0.00      63.04       2.07       0.01       3.01       ----

> <Gold.Chemscore.Fitness>
13.5203

> <Gold.Chemscore.DG>
-16.5417

> <Gold.Chemscore.ZeroCoef>
-5.4800

> <Gold.Chemscore.Hbond>
2.6875

> <Gold.Chemscore.Metal>
0.0000

> <Gold.Chemscore.Lipo>
63.0409

> <Gold.Chemscore.Internal_Hbond>
0.0000

> <Gold.Chemscore.DEClash>
0.0133

> <Gold.Chemscore.DEInternal>
3.0081

> <Gold.Chemscore.Rot>
2.0666

> <Gold.Chemscore.Internal.Correction>
   9.000000E+99

> <Gold.Chemscore.Hbonds>
donor molecule, donor type, donor heavy atom, donor atom, acceptor molecule, acceptor atom, score
      P1  H  6896  6907       L1    21  0.86
      P1  H  6931  6943       L1    14  0.85
      P1  H  6934  6947       L1    14  0.74

> <Gold.Chemscore.Hbond.Weighted>
-8.9764

> <Gold.Chemscore.Metal.Weighted>
-0.0000

> <Gold.Chemscore.Lipo.Weighted>
-7.3758

> <Gold.Chemscore.Internal_Hbond.Weighted>
0.0000

> <Gold.Chemscore.DEClash.Weighted>
0.0133

> <Gold.Chemscore.DEInternal.Weighted>
3.0081

> <Gold.Chemscore.Rot.Weighted>
5.2905

> <Gold.Chemscore.Internal.Correction.Weighted>
   9.000000E+99

> <Gold.Protein.RotatedTorsions>
[ 6907 6896 6895 6894 ] final  -36.01 input  -60.11 | X-H torsion
[ 7974 7965 7964 7962 ] final -145.65 input  175.53 | X-H torsion
[ 8008 7997 7996 7995 ] final -109.80 input   59.86 | X-H torsion
[ 10167 10162 10161 10158 ] final   32.05 input  -65.29 | X-H torsion
[ 10718 10713 10712 10709 ] final  163.24 input   66.30 | X-H torsion
[ 10763 10752 10751 10750 ] final  133.05 input  -60.55 | X-H torsion
[ 11005 11000 10999 10996 ] final  150.83 input  -57.11 | X-H torsion

> <Gold.Protein.ActiveResidues>
 VAL166  LYS551  ARG553  GLY616  TRP617  ASP618  TYR619  PRO620  LYS621  CYS622 
 ASP623  PHE694  ASN695  SER759  ASP760  ASP761  ALA762  ILE779  LEU786  VAL792 
 PHE793  MET794  SER795  GLU796  ALA797  LYS798  CYS799  TRP800  GLU811  SER814 

> <Gold.Protein.RotatedAtoms>
  151.0326  134.9550  159.8118 H   0  0  0  0  0  0  0  0  0  0  0  0  # atno 6907 bound_to 6896
  152.5348  134.2761  159.9000 H   0  0  0  0  0  0  0  0  0  0  0  0  # atno 6908 bound_to 6896
  151.2771  133.4185  159.2658 H   0  0  0  0  0  0  0  0  0  0  0  0  # atno 6909 bound_to 6896
  144.8213  140.5557  143.5576 H   0  0  0  0  0  0  0  0  0  0  0  0  # atno 7974 bound_to 7965
  154.9648  140.0398  157.2207 H   0  0  0  0  0  0  0  0  0  0  0  0  # atno 8008 bound_to 7997
  154.7856  140.2826  155.6008 H   0  0  0  0  0  0  0  0  0  0  0  0  # atno 8009 bound_to 7997
  156.2942  140.2583  156.2691 H   0  0  0  0  0  0  0  0  0  0  0  0  # atno 8010 bound_to 7997
  140.4534  144.1014  150.6196 H   0  0  0  0  0  0  0  0  0  0  0  0  # atno 10167 bound_to 10162
  157.1113  131.0468  151.2456 H   0  0  0  0  0  0  0  0  0  0  0  0  # atno 10718 bound_to 10713
  153.8007  135.3142  155.3390 H   0  0  0  0  0  0  0  0  0  0  0  0  # atno 10763 bound_to 10752
  154.8090  135.4679  154.0469 H   0  0  0  0  0  0  0  0  0  0  0  0  # atno 10764 bound_to 10752
  153.1816  135.6894  153.8557 H   0  0  0  0  0  0  0  0  0  0  0  0  # atno 10765 bound_to 10752
  140.1166  134.8891  157.2012 H   0  0  0  0  0  0  0  0  0  0  0  0  # atno 11005 bound_to 11000
  145.5099  139.1480  143.3611 LP  0  0  0  0  0  0  0  0  0  0  0  0  # atno 17320 bound_to 7965
  146.2518  140.5239  142.8890 LP  0  0  0  0  0  0  0  0  0  0  0  0  # atno 17321 bound_to 7965
  140.4180  143.2625  151.9751 LP  0  0  0  0  0  0  0  0  0  0  0  0  # atno 17342 bound_to 10162
  139.4799  144.5856  151.7859 LP  0  0  0  0  0  0  0  0  0  0  0  0  # atno 17343 bound_to 10162
  157.4556  130.7624  149.7190 LP  0  0  0  0  0  0  0  0  0  0  0  0  # atno 17370 bound_to 10713
  155.9850  130.3987  150.3285 LP  0  0  0  0  0  0  0  0  0  0  0  0  # atno 17371 bound_to 10713
  140.3021  134.3120  155.7287 LP  0  0  0  0  0  0  0  0  0  0  0  0  # atno 17394 bound_to 11000
  141.2142  133.7598  156.9655 LP  0  0  0  0  0  0  0  0  0  0  0  0  # atno 17395 bound_to 11000

$$$$
