AV-unprocessed.smi:3163|AV-procd|sdf|12072|dock9
  -GOLD-   2272017503D 1   1.00000     0.00000
 Structure written by MMmdl.
 36 37  0  0  0  0  0  0  0  0  2 V2000
  143.7201  132.2571  150.7577 C   0  0  0  0  0  0  0  0  0  0  0  0
  143.4232  133.7045  150.7871 N   0  3  2  0  0  0  0  0  0  0  0  0
  144.4575  134.5478  150.1499 C   0  0  0  0  0  0  0  0  0  0  0  0
  144.4082  135.8794  150.8942 C   0  0  0  0  0  0  0  0  0  0  0  0
  144.1042  135.4470  152.3259 C   0  0  1  0  0  0  0  0  0  0  0  0
  143.5518  136.5756  153.2184 C   0  0  0  0  0  0  0  0  0  0  0  0
  144.3722  137.7811  153.1583 N   0  0  0  0  0  0  0  0  0  0  0  0
  145.6084  137.8967  153.6648 C   0  0  0  0  0  0  0  0  0  0  0  0
  146.1861  136.9794  154.2469 O   0  0  0  0  0  0  0  0  0  0  0  0
  146.1105  139.1238  153.4408 N   0  0  0  0  0  0  0  0  0  0  0  0
  147.3710  139.6645  153.8179 C   0  0  0  0  0  0  0  0  0  0  0  0
  147.5008  141.0690  153.8170 C   0  0  0  0  0  0  0  0  0  0  0  0
  148.7321  141.6394  154.1963 C   0  0  0  0  0  0  0  0  0  0  0  0
  149.8030  140.9095  154.5718 N   0  0  0  0  0  0  0  0  0  0  0  0
  149.6750  139.5660  154.5829 C   0  0  0  0  0  0  0  0  0  0  0  0
  148.4897  138.8948  154.2212 C   0  0  0  0  0  0  0  0  0  0  0  0
  143.1592  134.2496  152.1398 C   0  0  0  0  0  0  0  0  0  0  0  0
  144.6225  132.0295  151.3271 H   0  0  0  0  0  0  0  0  0  0  0  0
  143.8667  131.9193  149.7313 H   0  0  0  0  0  0  0  0  0  0  0  0
  142.8922  131.6899  151.1839 H   0  0  0  0  0  0  0  0  0  0  0  0
  145.4417  134.0950  150.2838 H   0  0  0  0  0  0  0  0  0  0  0  0
  144.2815  134.6579  149.0794 H   0  0  0  0  0  0  0  0  0  0  0  0
  145.3368  136.4449  150.8094 H   0  0  0  0  0  0  0  0  0  0  0  0
  143.5981  136.4957  150.5011 H   0  0  0  0  0  0  0  0  0  0  0  0
  145.0357  135.0753  152.7567 H   0  0  0  0  0  0  0  0  0  0  0  0
  142.5255  136.8140  152.9339 H   0  0  0  0  0  0  0  0  0  0  0  0
  143.5137  136.2474  154.2575 H   0  0  0  0  0  0  0  0  0  0  0  0
  143.9745  138.5797  152.6854 H   0  0  0  0  0  0  0  0  0  0  0  0
  145.5283  139.7429  152.8962 H   0  0  0  0  0  0  0  0  0  0  0  0
  146.6753  141.7031  153.5275 H   0  0  0  0  0  0  0  0  0  0  0  0
  148.8585  142.7119  154.1994 H   0  0  0  0  0  0  0  0  0  0  0  0
  150.5442  139.0064  154.8959 H   0  0  0  0  0  0  0  0  0  0  0  0
  148.4681  137.8180  154.2714 H   0  0  0  0  0  0  0  0  0  0  0  0
  142.1162  134.5666  152.1747 H   0  0  0  0  0  0  0  0  0  0  0  0
  143.3022  133.5085  152.9280 H   0  0  0  0  0  0  0  0  0  0  0  0
  142.5734  133.8449  150.2594 H   0  0  0  0  0  0  0  0  0  0  0  0
  1  2  1  0  0  0  0
  1 18  1  0  0  0  0
  1 19  1  0  0  0  0
  1 20  1  0  0  0  0
  2 17  1  0  0  0  0
  2  3  1  0  0  0  0
  2 36  1  0  0  0  0
  3  4  1  0  0  0  0
  3 21  1  0  0  0  0
  3 22  1  0  0  0  0
  4  5  1  0  0  0  0
  4 23  1  0  0  0  0
  4 24  1  0  0  0  0
  5  6  1  0  0  0  0
  5 17  1  0  0  0  0
  5 25  1  0  0  0  0
  6  7  1  0  0  0  0
  6 26  1  0  0  0  0
  6 27  1  0  0  0  0
  7  8  1  0  0  0  0
  7 28  1  0  0  0  0
  8  9  2  0  0  0  0
  8 10  1  0  0  0  0
 10 11  1  0  0  0  0
 10 29  1  0  0  0  0
 11 16  1  0  0  0  0
 11 12  2  0  0  0  0
 12 13  1  0  0  0  0
 12 30  1  0  0  0  0
 13 14  2  0  0  0  0
 13 31  1  0  0  0  0
 14 15  1  0  0  0  0
 15 16  2  0  0  0  0
 15 32  1  0  0  0  0
 16 33  1  0  0  0  0
 17 34  1  0  0  0  0
 17 35  1  0  0  0  0
M  CHG  1   2   1
M  END
> <s_m_source_file>
AV-unprocessed.smi

> <i_m_source_file_index>
3163

> <i_lp_mmshare_version>
43012

> <i_f3d_flags>
0

> <s_epik_input>
W0NIM11OMVtDSDJdW0NIMl1bQ0BIXShbQ0gyXTEpW0NIMl1bTkhdQyg9TylbTkhdYzJbY0hdW2NIXW5bY0hdW2NIXTI=

> <s_epik_cmdline>
J2VwaWtfcHl0aG9uJywgJy1waCcsICc3LjAnLCAnLXRuJywgJzgnLCAnLW1hJywgJzIwMCcsICctbWV0YWxfYmluZGluZycsICctaW1hZScsICc8aW5maWxlLm1hZT4nLCAnLW9tYWUnLCAnPG91dGZpbGUubWFlPic=

> <r_epik_Ionization_Penalty>
0.103936

> <r_epik_Ionization_Penalty_Charging>
0.0012301

> <r_epik_Ionization_Penalty_Neutral>
0.102706

> <r_epik_State_Penalty>
0.0926275

> <r_epik_Charging_Adjusted_Penalty>
0.0938576

> <i_epik_Tot_Q>
1

> <i_epik_Tot_abs_Q>
1

> <r_epik_Metal_State_Penalty>
0.0788376

> <b_epik_Metal_Only>
0

> <s_lp_Force_Field>
OPLS_2005

> <r_lp_Energy>
31.7685

> <b_lp_Chiralities_Consistent>
1

> <s_lp_Variant>
AV-unprocessed.smi:3163-2

> <Gold.Version>
5.8.1

> <Gold.Id.Protein>
6NUR|6NUR_protein|mol2

> <Gold.PLP.Fitness>
45.1938

> <Gold.PLP.PLP>
-29.3332

> <Gold.PLP.part.hbond>
-4.0000

> <Gold.PLP.part.metal>
0.0000

> <Gold.PLP.part.buried>
-0.3985

> <Gold.PLP.part.nonpolar>
-24.4094

> <Gold.PLP.part.repulsive>
0.2242

> <Gold.PLP.ligand.clash>
0.0000

> <Gold.PLP.ligand.torsion>
0.1633

> <Gold.PLP.Chemscore.Hbond>
4.3952

> <Gold.PLP.Chemscore.CHOScore>
1.0000

> <Gold.PLP.Chemscore.Metal>
0.0000

> <Gold.Chemscore.Hbonds>
donor molecule, donor type, donor heavy atom, donor atom, acceptor molecule, acceptor atom, score
      L1  H     2    36       P1 10186  2.00
      L1  H     7    28       P1 10175  1.00
      L1  H    10    29       P1 10175  0.99
      P1  H  7989  7998       L1    14  0.40
      L1  C    13    31       P1  8028  1.00

> <Gold.PLP.Chemscore.Internal.Correction>
0.0017

> <Gold.Rescore>
     Score         DG    S(hbond)    S(metal)    S(lipo)     H(rot)  DE(clash)    DE(int)     intcor
     18.03     -19.85       2.89        0.00      67.87       1.26       0.64       1.18       ----

> <Gold.Chemscore.Fitness>
18.0280

> <Gold.Chemscore.DG>
-19.8506

> <Gold.Chemscore.ZeroCoef>
-5.4800

> <Gold.Chemscore.Hbond>
2.8877

> <Gold.Chemscore.Metal>
0.0000

> <Gold.Chemscore.Lipo>
67.8709

> <Gold.Chemscore.Internal_Hbond>
0.0000

> <Gold.Chemscore.DEClash>
0.6441

> <Gold.Chemscore.DEInternal>
1.1785

> <Gold.Chemscore.Rot>
1.2559

> <Gold.Chemscore.Internal.Correction>
   9.000000E+99

> <Gold.Chemscore.Hbonds>
donor molecule, donor type, donor heavy atom, donor atom, acceptor molecule, acceptor atom, score
      L1  H     2    36       P1 10186  0.99
      L1  H     7    28       P1 10175  0.97
      L1  H    10    29       P1 10175  0.87
      P1  H  7989  7998       L1    14  0.05

> <Gold.Chemscore.Hbond.Weighted>
-9.6448

> <Gold.Chemscore.Metal.Weighted>
-0.0000

> <Gold.Chemscore.Lipo.Weighted>
-7.9409

> <Gold.Chemscore.Internal_Hbond.Weighted>
0.0000

> <Gold.Chemscore.DEClash.Weighted>
0.6441

> <Gold.Chemscore.DEInternal.Weighted>
1.1785

> <Gold.Chemscore.Rot.Weighted>
3.2151

> <Gold.Chemscore.Internal.Correction.Weighted>
   9.000000E+99

> <Gold.Protein.RotatedTorsions>
[ 6907 6896 6895 6894 ] final  -41.63 input  -60.11 | X-H torsion
[ 7974 7965 7964 7962 ] final   15.33 input  175.53 | X-H torsion
[ 8008 7997 7996 7995 ] final   98.55 input   59.86 | X-H torsion
[ 10167 10162 10161 10158 ] final -143.82 input  -65.29 | X-H torsion
[ 10718 10713 10712 10709 ] final -177.89 input   66.30 | X-H torsion
[ 10763 10752 10751 10750 ] final   70.44 input  -60.55 | X-H torsion
[ 11005 11000 10999 10996 ] final   52.42 input  -57.11 | X-H torsion

> <Gold.Protein.ActiveResidues>
 VAL166  LYS551  ARG553  GLY616  TRP617  ASP618  TYR619  PRO620  LYS621  CYS622 
 ASP623  PHE694  ASN695  SER759  ASP760  ASP761  ALA762  ILE779  LEU786  VAL792 
 PHE793  MET794  SER795  GLU796  ALA797  LYS798  CYS799  TRP800  GLU811  SER814 

> <Gold.Protein.RotatedAtoms>
  150.9645  134.9028  159.7750 H   0  0  0  0  0  0  0  0  0  0  0  0  # atno 6907 bound_to 6896
  152.5168  134.3626  159.9300 H   0  0  0  0  0  0  0  0  0  0  0  0  # atno 6908 bound_to 6896
  151.3637  133.3839  159.2727 H   0  0  0  0  0  0  0  0  0  0  0  0  # atno 6909 bound_to 6896
  146.2281  139.8910  142.8554 H   0  0  0  0  0  0  0  0  0  0  0  0  # atno 7974 bound_to 7965
  156.1016  140.3242  155.7949 H   0  0  0  0  0  0  0  0  0  0  0  0  # atno 8008 bound_to 7997
  155.4827  140.0555  157.2982 H   0  0  0  0  0  0  0  0  0  0  0  0  # atno 8009 bound_to 7997
  154.4700  140.2007  156.0033 H   0  0  0  0  0  0  0  0  0  0  0  0  # atno 8010 bound_to 7997
  139.7957  143.7903  152.2654 H   0  0  0  0  0  0  0  0  0  0  0  0  # atno 10167 bound_to 10162
  156.8362  130.9670  151.3103 H   0  0  0  0  0  0  0  0  0  0  0  0  # atno 10718 bound_to 10713
  153.0342  135.5174  154.7441 H   0  0  0  0  0  0  0  0  0  0  0  0  # atno 10763 bound_to 10752
  154.6432  135.2915  155.0081 H   0  0  0  0  0  0  0  0  0  0  0  0  # atno 10764 bound_to 10752
  154.0991  135.6639  153.4918 H   0  0  0  0  0  0  0  0  0  0  0  0  # atno 10765 bound_to 10752
  140.0851  134.5286  155.8908 H   0  0  0  0  0  0  0  0  0  0  0  0  # atno 11005 bound_to 11000
  145.2417  141.0012  143.3932 LP  0  0  0  0  0  0  0  0  0  0  0  0  # atno 17320 bound_to 7965
  144.9446  139.4150  143.6432 LP  0  0  0  0  0  0  0  0  0  0  0  0  # atno 17321 bound_to 7965
  139.8008  144.7375  150.9827 LP  0  0  0  0  0  0  0  0  0  0  0  0  # atno 17342 bound_to 10162
  140.7820  143.4347  151.0641 LP  0  0  0  0  0  0  0  0  0  0  0  0  # atno 17343 bound_to 10162
  157.6380  130.8782  149.9395 LP  0  0  0  0  0  0  0  0  0  0  0  0  # atno 17370 bound_to 10713
  156.0906  130.3664  150.0402 LP  0  0  0  0  0  0  0  0  0  0  0  0  # atno 17371 bound_to 10713
  141.2060  133.6651  156.6213 LP  0  0  0  0  0  0  0  0  0  0  0  0  # atno 17394 bound_to 11000
  140.3432  134.7831  157.4413 LP  0  0  0  0  0  0  0  0  0  0  0  0  # atno 17395 bound_to 11000

$$$$
