AV-unprocessed.smi:2675|AV-procd|sdf|10361|dock6
  -GOLD-   2272014383D 1   1.00000     0.00000
 Structure written by MMmdl.
 37 38  0  0  0  0  0  0  0  0  2 V2000
  145.8695  142.3585  154.2330 C   0  0  0  0  0  0  0  0  0  0  0  0
  147.1251  141.5925  154.4850 C   0  0  0  0  0  0  0  0  0  0  0  0
  148.1739  142.1380  155.1770 N   0  3  0  0  0  0  0  0  0  0  0  0
  149.1788  141.2669  155.2708 C   0  0  0  0  0  0  0  0  0  0  0  0
  148.7859  140.1538  154.6414 N   0  0  0  0  0  0  0  0  0  0  0  0
  149.6595  138.9762  154.5392 C   0  0  0  0  0  0  0  0  0  0  0  0
  150.8638  139.0992  155.4730 C   0  0  0  0  0  0  0  0  0  0  0  0
  151.8656  139.7052  155.0976 O   0  0  0  0  0  0  0  0  0  0  0  0
  150.7411  138.5223  156.6813 N   0  0  0  0  0  0  0  0  0  0  0  0
  151.7019  138.5184  157.7927 C   0  0  2  0  0  0  0  0  0  0  0  0
  152.9950  137.9030  157.2323 C   0  0  0  0  0  0  0  0  0  0  0  0
  151.2460  137.6616  158.9051 C   0  0  0  0  0  0  0  0  0  0  0  0
  150.8908  136.9902  159.7783 N   0  0  0  0  0  0  0  0  0  0  0  0
  152.0332  139.8946  158.3734 C   0  0  0  0  0  0  0  0  0  0  0  0
  151.0228  141.0060  158.5547 C   0  0  0  0  0  0  0  0  0  0  0  0
  152.1126  141.1362  157.5138 C   0  0  0  0  0  0  0  0  0  0  0  0
  147.5129  140.3173  154.1391 C   0  0  0  0  0  0  0  0  0  0  0  0
  146.7945  139.2484  153.3797 C   0  0  0  0  0  0  0  0  0  0  0  0
  145.1654  141.7692  153.6464 H   0  0  0  0  0  0  0  0  0  0  0  0
  146.0913  143.2750  153.6857 H   0  0  0  0  0  0  0  0  0  0  0  0
  145.3942  142.6232  155.1779 H   0  0  0  0  0  0  0  0  0  0  0  0
  150.1239  141.4331  155.7565 H   0  0  0  0  0  0  0  0  0  0  0  0
  149.0780  138.0838  154.7769 H   0  0  0  0  0  0  0  0  0  0  0  0
  149.9916  138.8740  153.5056 H   0  0  0  0  0  0  0  0  0  0  0  0
  149.8735  138.0399  156.8641 H   0  0  0  0  0  0  0  0  0  0  0  0
  153.7629  137.8253  158.0030 H   0  0  0  0  0  0  0  0  0  0  0  0
  153.4043  138.5064  156.4211 H   0  0  0  0  0  0  0  0  0  0  0  0
  152.8218  136.8981  156.8443 H   0  0  0  0  0  0  0  0  0  0  0  0
  152.7767  139.8376  159.1671 H   0  0  0  0  0  0  0  0  0  0  0  0
  150.0078  140.8662  158.1938 H   0  0  0  0  0  0  0  0  0  0  0  0
  151.1111  141.6183  159.4498 H   0  0  0  0  0  0  0  0  0  0  0  0
  152.9221  141.8342  157.7173 H   0  0  0  0  0  0  0  0  0  0  0  0
  151.8165  141.0622  156.4695 H   0  0  0  0  0  0  0  0  0  0  0  0
  145.7979  139.5813  153.0917 H   0  0  0  0  0  0  0  0  0  0  0  0
  146.6909  138.3521  153.9916 H   0  0  0  0  0  0  0  0  0  0  0  0
  147.3430  138.9933  152.4730 H   0  0  0  0  0  0  0  0  0  0  0  0
  148.1871  143.0735  155.5636 H   0  0  0  0  0  0  0  0  0  0  0  0
  1  2  1  0  0  0  0
  1 19  1  0  0  0  0
  1 20  1  0  0  0  0
  1 21  1  0  0  0  0
  2 17  2  0  0  0  0
  2  3  1  0  0  0  0
  3  4  2  0  0  0  0
  3 37  1  0  0  0  0
  4  5  1  0  0  0  0
  4 22  1  0  0  0  0
  5  6  1  0  0  0  0
  5 17  1  0  0  0  0
  6  7  1  0  0  0  0
  6 23  1  0  0  0  0
  6 24  1  0  0  0  0
  7  8  2  0  0  0  0
  7  9  1  0  0  0  0
  9 10  1  0  0  0  0
  9 25  1  0  0  0  0
 10 11  1  0  0  0  0
 10 12  1  0  0  0  0
 10 14  1  0  0  0  0
 11 26  1  0  0  0  0
 11 27  1  0  0  0  0
 11 28  1  0  0  0  0
 12 13  3  0  0  0  0
 14 16  1  0  0  0  0
 14 15  1  0  0  0  0
 14 29  1  0  0  0  0
 15 16  1  0  0  0  0
 15 30  1  0  0  0  0
 15 31  1  0  0  0  0
 16 32  1  0  0  0  0
 16 33  1  0  0  0  0
 17 18  1  0  0  0  0
 18 34  1  0  0  0  0
 18 35  1  0  0  0  0
 18 36  1  0  0  0  0
M  CHG  1   3   1
M  END
> <s_m_source_file>
AV-unprocessed.smi

> <i_m_source_file_index>
2675

> <i_lp_mmshare_version>
43012

> <i_f3d_flags>
0

> <s_epik_input>
W0NIM11jMW5bY0hdbihjMVtDSDNdKVtDSDJdQyg9TylbTkhdW0NAQF0oW0NIM10pKEMjTilbQ0hdMltDSDJdW0NIMl0y

> <s_epik_cmdline>
J2VwaWtfcHl0aG9uJywgJy1waCcsICc3LjAnLCAnLXRuJywgJzgnLCAnLW1hJywgJzIwMCcsICctbWV0YWxfYmluZGluZycsICctaW1hZScsICc8aW5maWxlLm1hZT4nLCAnLW9tYWUnLCAnPG91dGZpbGUubWFlPic=

> <r_lp_tautomer_probability>
1

> <r_epik_Ionization_Penalty>
0.153253

> <r_epik_Ionization_Penalty_Charging>
0

> <r_epik_Ionization_Penalty_Neutral>
0.153253

> <r_epik_State_Penalty>
0.14254

> <r_epik_Charging_Adjusted_Penalty>
0.14254

> <i_epik_Tot_Q>
1

> <i_epik_Tot_abs_Q>
1

> <r_epik_Metal_State_Penalty>
0.466899

> <b_epik_Metal_Only>
0

> <s_lp_Force_Field>
OPLS_2005

> <r_lp_Energy>
18.2942

> <b_lp_Chiralities_Consistent>
1

> <s_lp_Variant>
AV-unprocessed.smi:2675-2

> <Gold.Version>
5.8.1

> <Gold.Id.Protein>
6NUR|6NUR_protein|mol2

> <Gold.PLP.Fitness>
44.6173

> <Gold.PLP.PLP>
-33.7349

> <Gold.PLP.part.hbond>
-2.9764

> <Gold.PLP.part.metal>
0.0000

> <Gold.PLP.part.buried>
-5.1712

> <Gold.PLP.part.nonpolar>
-27.0317

> <Gold.PLP.part.repulsive>
0.2090

> <Gold.PLP.ligand.clash>
0.0000

> <Gold.PLP.ligand.torsion>
1.2469

> <Gold.PLP.Chemscore.Hbond>
3.9600

> <Gold.PLP.Chemscore.CHOScore>
0.0000

> <Gold.PLP.Chemscore.Metal>
0.0000

> <Gold.Chemscore.Hbonds>
donor molecule, donor type, donor heavy atom, donor atom, acceptor molecule, acceptor atom, score
      L1  H     3    37       P1  8028  2.00
      P1  H  6896  6907       L1    13  0.55
      P1  H  7989  7998       L1     8  0.98

> <Gold.PLP.Chemscore.Internal.Correction>
1.4962

> <Gold.Rescore>
     Score         DG    S(hbond)    S(metal)    S(lipo)     H(rot)  DE(clash)    DE(int)     intcor
     13.21     -16.67       2.70        0.00      58.01       1.80       0.00       3.47       ----

> <Gold.Chemscore.Fitness>
13.2058

> <Gold.Chemscore.DG>
-16.6750

> <Gold.Chemscore.ZeroCoef>
-5.4800

> <Gold.Chemscore.Hbond>
2.6960

> <Gold.Chemscore.Metal>
0.0000

> <Gold.Chemscore.Lipo>
58.0062

> <Gold.Chemscore.Internal_Hbond>
0.0000

> <Gold.Chemscore.DEClash>
0.0038

> <Gold.Chemscore.DEInternal>
3.4654

> <Gold.Chemscore.Rot>
1.7955

> <Gold.Chemscore.Internal.Correction>
   9.000000E+99

> <Gold.Chemscore.Hbonds>
donor molecule, donor type, donor heavy atom, donor atom, acceptor molecule, acceptor atom, score
      L1  H     3    37       P1  8028  0.87
      P1  H  6896  6907       L1    13  0.53
      P1  H  7989  7998       L1     8  0.86

> <Gold.Chemscore.Hbond.Weighted>
-9.0048

> <Gold.Chemscore.Metal.Weighted>
-0.0000

> <Gold.Chemscore.Lipo.Weighted>
-6.7867

> <Gold.Chemscore.Internal_Hbond.Weighted>
0.0000

> <Gold.Chemscore.DEClash.Weighted>
0.0038

> <Gold.Chemscore.DEInternal.Weighted>
3.4654

> <Gold.Chemscore.Rot.Weighted>
4.5965

> <Gold.Chemscore.Internal.Correction.Weighted>
   9.000000E+99

> <Gold.Protein.RotatedTorsions>
[ 6907 6896 6895 6894 ] final  -50.13 input  -60.11 | X-H torsion
[ 7974 7965 7964 7962 ] final  -76.15 input  175.53 | X-H torsion
[ 8008 7997 7996 7995 ] final   20.76 input   59.86 | X-H torsion
[ 10167 10162 10161 10158 ] final -108.20 input  -65.29 | X-H torsion
[ 10718 10713 10712 10709 ] final   54.44 input   66.30 | X-H torsion
[ 10763 10752 10751 10750 ] final -177.24 input  -60.55 | X-H torsion
[ 11005 11000 10999 10996 ] final -159.75 input  -57.11 | X-H torsion

> <Gold.Protein.ActiveResidues>
 VAL166  LYS551  ARG553  GLY616  TRP617  ASP618  TYR619  PRO620  LYS621  CYS622 
 ASP623  PHE694  ASN695  SER759  ASP760  ASP761  ALA762  ILE779  LEU786  VAL792 
 PHE793  MET794  SER795  GLU796  ALA797  LYS798  CYS799  TRP800  GLU811  SER814 

> <Gold.Protein.RotatedAtoms>
  150.8737  134.8116  159.7173 H   0  0  0  0  0  0  0  0  0  0  0  0  # atno 6907 bound_to 6896
  152.4732  134.4906  159.9704 H   0  0  0  0  0  0  0  0  0  0  0  0  # atno 6908 bound_to 6896
  151.4991  133.3470  159.2901 H   0  0  0  0  0  0  0  0  0  0  0  0  # atno 6909 bound_to 6896
  145.6167  140.9373  143.1160 H   0  0  0  0  0  0  0  0  0  0  0  0  # atno 7974 bound_to 7965
  154.9405  140.3052  155.5123 H   0  0  0  0  0  0  0  0  0  0  0  0  # atno 8008 bound_to 7997
  156.2996  140.2337  156.4411 H   0  0  0  0  0  0  0  0  0  0  0  0  # atno 8009 bound_to 7997
  154.8150  140.0426  157.1359 H   0  0  0  0  0  0  0  0  0  0  0  0  # atno 8010 bound_to 7997
  140.1687  143.4060  152.1371 H   0  0  0  0  0  0  0  0  0  0  0  0  # atno 10167 bound_to 10162
  157.5257  130.8596  149.8619 H   0  0  0  0  0  0  0  0  0  0  0  0  # atno 10718 bound_to 10713
  154.5625  135.2821  155.0905 H   0  0  0  0  0  0  0  0  0  0  0  0  # atno 10763 bound_to 10752
  154.2309  135.6374  153.5178 H   0  0  0  0  0  0  0  0  0  0  0  0  # atno 10764 bound_to 10752
  153.0033  135.5537  154.6224 H   0  0  0  0  0  0  0  0  0  0  0  0  # atno 10765 bound_to 10752
  140.6391  134.4570  157.5232 H   0  0  0  0  0  0  0  0  0  0  0  0  # atno 11005 bound_to 11000
  144.7248  139.7912  143.7369 LP  0  0  0  0  0  0  0  0  0  0  0  0  # atno 17320 bound_to 7965
  146.1463  139.4533  143.0077 LP  0  0  0  0  0  0  0  0  0  0  0  0  # atno 17321 bound_to 7965
  139.5347  144.7197  151.4932 LP  0  0  0  0  0  0  0  0  0  0  0  0  # atno 17342 bound_to 10162
  140.6596  143.8527  150.6873 LP  0  0  0  0  0  0  0  0  0  0  0  0  # atno 17343 bound_to 10162
  156.0385  130.3745  150.1496 LP  0  0  0  0  0  0  0  0  0  0  0  0  # atno 17370 bound_to 10713
  156.9683  130.9826  151.3464 LP  0  0  0  0  0  0  0  0  0  0  0  0  # atno 17371 bound_to 10713
  139.9087  134.8392  156.1609 LP  0  0  0  0  0  0  0  0  0  0  0  0  # atno 17394 bound_to 11000
  141.0620  133.6837  156.1970 LP  0  0  0  0  0  0  0  0  0  0  0  0  # atno 17395 bound_to 11000

$$$$
