AV-unprocessed.smi:261|AV-procd|sdf|1994|dock9
  -GOLD-   2262021183D 1   1.00000     0.00000
 Structure written by MMmdl.
 51 54  0  0  0  0  0  0  0  0  1 V2000
  148.1686  131.6892  153.5886 C   0  0  0  0  0  0  0  0  0  0  0  0
  148.5945  132.8039  154.3554 O   0  0  0  0  0  0  0  0  0  0  0  0
  149.9263  133.2195  154.0776 C   0  0  2  0  0  0  0  0  0  0  0  0
  150.9332  132.6254  155.0719 C   0  0  0  0  0  0  0  0  0  0  0  0
  150.8886  133.5608  156.2912 C   0  0  2  0  0  0  0  0  0  0  0  0
  149.8636  133.0793  157.3408 C   0  0  0  0  0  0  0  0  0  0  0  0
  148.8282  133.8698  157.6433 N   0  0  0  0  0  0  0  0  0  0  0  0
  150.0192  131.9894  157.8868 O   0  0  0  0  0  0  0  0  0  0  0  0
  150.5753  134.8589  155.6919 N   0  0  0  0  0  0  0  0  0  0  0  0
  150.8054  136.0720  156.2679 C   0  0  0  0  0  0  0  0  0  0  0  0
  151.1276  136.0941  157.5887 N   0  0  0  0  0  0  0  0  0  0  0  0
  151.3722  137.2473  158.2156 C   0  0  0  0  0  0  0  0  0  0  0  0
  151.3518  138.4840  157.7201 N   0  0  0  0  0  0  0  0  0  0  0  0
  151.0283  138.4791  156.3963 C   0  0  0  0  0  0  0  0  0  0  0  0
  150.7420  137.3325  155.5976 C   0  0  0  0  0  0  0  0  0  0  0  0
  150.4593  137.7398  154.2976 N   0  0  0  0  0  0  0  0  0  0  0  0
  150.5740  139.0382  154.3256 C   0  0  0  0  0  0  0  0  0  0  0  0
  150.9062  139.5674  155.5505 N   0  0  0  0  0  0  0  0  0  0  0  0
  151.0937  140.9752  155.8655 C   0  0  0  0  0  0  0  0  0  0  0  0
  150.4863  141.3974  157.2220 C   0  0  2  0  0  0  0  0  0  0  0  0
  149.2057  141.9541  157.0004 O   0  0  0  0  0  0  0  0  0  0  0  0
  151.3373  142.4212  158.0014 C   0  0  1  0  0  0  0  0  0  0  0  0
  151.2845  143.8450  157.4462 C   0  0  0  0  0  0  0  0  0  0  0  0
  151.6041  144.7130  158.6538 C   0  0  0  0  0  0  0  0  0  0  0  0
  151.4378  143.7685  159.8475 C   0  0  0  0  0  0  0  0  0  0  0  0
  150.8276  142.6028  159.3131 O   0  0  0  0  0  0  0  0  0  0  0  0
  150.0225  134.7247  154.3472 C   0  0  0  0  0  0  0  0  0  0  0  0
  150.1842  132.9950  153.0412 H   0  0  0  0  0  0  0  0  0  0  0  0
  151.8774  133.5729  156.7491 H   0  0  0  0  0  0  0  0  0  0  0  0
  147.1437  131.4344  153.8580 H   0  0  0  0  0  0  0  0  0  0  0  0
  148.7873  130.8101  153.7684 H   0  0  0  0  0  0  0  0  0  0  0  0
  148.1867  131.9162  152.5220 H   0  0  0  0  0  0  0  0  0  0  0  0
  150.7438  131.5795  155.3144 H   0  0  0  0  0  0  0  0  0  0  0  0
  151.9307  132.6673  154.6322 H   0  0  0  0  0  0  0  0  0  0  0  0
  148.1546  133.5713  158.3337 H   0  0  0  0  0  0  0  0  0  0  0  0
  148.7290  134.7645  157.1863 H   0  0  0  0  0  0  0  0  0  0  0  0
  151.6206  137.1670  159.2637 H   0  0  0  0  0  0  0  0  0  0  0  0
  150.4103  139.6498  153.4500 H   0  0  0  0  0  0  0  0  0  0  0  0
  152.1605  141.2010  155.8379 H   0  0  0  0  0  0  0  0  0  0  0  0
  150.6404  141.5610  155.0651 H   0  0  0  0  0  0  0  0  0  0  0  0
  150.3528  140.5021  157.8300 H   0  0  0  0  0  0  0  0  0  0  0  0
  149.3141  142.8245  156.6479 H   0  0  0  0  0  0  0  0  0  0  0  0
  152.3768  142.0943  158.0695 H   0  0  0  0  0  0  0  0  0  0  0  0
  151.9771  143.9987  156.6184 H   0  0  0  0  0  0  0  0  0  0  0  0
  150.2795  144.0748  157.0896 H   0  0  0  0  0  0  0  0  0  0  0  0
  152.6220  145.1019  158.6101 H   0  0  0  0  0  0  0  0  0  0  0  0
  150.9223  145.5621  158.7127 H   0  0  0  0  0  0  0  0  0  0  0  0
  152.4100  143.5035  160.2659 H   0  0  0  0  0  0  0  0  0  0  0  0
  150.8307  144.2002  160.6433 H   0  0  0  0  0  0  0  0  0  0  0  0
  150.7089  135.1888  153.6376 H   0  0  0  0  0  0  0  0  0  0  0  0
  149.0533  135.2167  154.2515 H   0  0  0  0  0  0  0  0  0  0  0  0
  1  2  1  0  0  0  0
  1 30  1  0  0  0  0
  1 31  1  0  0  0  0
  1 32  1  0  0  0  0
  2  3  1  0  0  0  0
  3 28  1  0  0  0  0
  3 27  1  0  0  0  0
  3  4  1  0  0  0  0
  4  5  1  0  0  0  0
  4 33  1  0  0  0  0
  4 34  1  0  0  0  0
  5 29  1  0  0  0  0
  5  6  1  0  0  0  0
  5  9  1  0  0  0  0
  6  7  1  0  0  0  0
  6  8  2  0  0  0  0
  7 35  1  0  0  0  0
  7 36  1  0  0  0  0
  9 10  1  0  0  0  0
  9 27  1  0  0  0  0
 10 15  1  0  0  0  0
 10 11  2  0  0  0  0
 11 12  1  0  0  0  0
 12 13  2  0  0  0  0
 12 37  1  0  0  0  0
 13 14  1  0  0  0  0
 14 18  1  0  0  0  0
 14 15  2  0  0  0  0
 15 16  1  0  0  0  0
 16 17  2  0  0  0  0
 17 18  1  0  0  0  0
 17 38  1  0  0  0  0
 18 19  1  0  0  0  0
 19 20  1  0  0  0  0
 19 39  1  0  0  0  0
 19 40  1  0  0  0  0
 20 21  1  0  0  0  0
 20 22  1  0  0  0  0
 20 41  1  0  0  0  0
 21 42  1  0  0  0  0
 22 26  1  0  0  0  0
 22 23  1  0  0  0  0
 22 43  1  0  0  0  0
 23 24  1  0  0  0  0
 23 44  1  0  0  0  0
 23 45  1  0  0  0  0
 24 25  1  0  0  0  0
 24 46  1  0  0  0  0
 24 47  1  0  0  0  0
 25 26  1  0  0  0  0
 25 48  1  0  0  0  0
 25 49  1  0  0  0  0
 27 50  1  0  0  0  0
 27 51  1  0  0  0  0
M  END
> <s_m_source_file>
AV-unprocessed.smi

> <i_m_source_file_index>
261

> <i_lp_mmshare_version>
43012

> <i_f3d_flags>
0

> <s_epik_input>
W0NIM11PW0NASF0xW0NIMl1bQ0BASF0oQyg9TylbTkgyXSlOKFtDSDJdMSljKG5bY0hdbjIpYyhjMjMpbltjSF1uM1tDSDJdW0NASF0oW09IXSlbQ0BASF00W0NIMl1bQ0gyXVtDSDJdTzQ=

> <s_epik_cmdline>
J2VwaWtfcHl0aG9uJywgJy1waCcsICc3LjAnLCAnLXRuJywgJzgnLCAnLW1hJywgJzIwMCcsICctbWV0YWxfYmluZGluZycsICctaW1hZScsICc8aW5maWxlLm1hZT4nLCAnLW9tYWUnLCAnPG91dGZpbGUubWFlPic=

> <r_lp_tautomer_probability>
1

> <r_epik_Ionization_Penalty>
0.000713824

> <r_epik_Ionization_Penalty_Charging>
0

> <r_epik_Ionization_Penalty_Neutral>
0.000713824

> <r_epik_State_Penalty>
0.000402132

> <r_epik_Charging_Adjusted_Penalty>
0.000402132

> <i_epik_Tot_Q>
0

> <i_epik_Tot_abs_Q>
0

> <r_epik_Metal_State_Penalty>
-0

> <b_epik_Metal_Only>
0

> <s_lp_Force_Field>
OPLS_2005

> <r_lp_Energy>
42.3495

> <b_lp_Chiralities_Consistent>
1

> <s_lp_Variant>
AV-unprocessed.smi:261-12

> <Gold.Version>
5.8.1

> <Gold.Id.Protein>
6NUR|6NUR_protein|mol2

> <Gold.PLP.Fitness>
45.3288

> <Gold.PLP.PLP>
-42.2353

> <Gold.PLP.part.hbond>
-2.0850

> <Gold.PLP.part.metal>
0.0000

> <Gold.PLP.part.buried>
-4.2492

> <Gold.PLP.part.nonpolar>
-35.2809

> <Gold.PLP.part.repulsive>
0.3637

> <Gold.PLP.ligand.clash>
0.0000

> <Gold.PLP.ligand.torsion>
1.3817

> <Gold.PLP.Chemscore.Hbond>
0.9357

> <Gold.PLP.Chemscore.CHOScore>
0.9845

> <Gold.PLP.Chemscore.Metal>
0.0000

> <Gold.Chemscore.Hbonds>
donor molecule, donor type, donor heavy atom, donor atom, acceptor molecule, acceptor atom, score
      L1  H    21    42       P1  8028  0.63
      L1  C    17    38       P1  7957  1.00

> <Gold.PLP.Chemscore.Internal.Correction>
0.0963

> <Gold.Rescore>
     Score         DG    S(hbond)    S(metal)    S(lipo)     H(rot)  DE(clash)    DE(int)     intcor
      8.75     -10.35       0.91        0.00      85.17       3.18       0.10       1.50       ----

> <Gold.Chemscore.Fitness>
8.7507

> <Gold.Chemscore.DG>
-10.3473

> <Gold.Chemscore.ZeroCoef>
-5.4800

> <Gold.Chemscore.Hbond>
0.9136

> <Gold.Chemscore.Metal>
0.0000

> <Gold.Chemscore.Lipo>
85.1668

> <Gold.Chemscore.Internal_Hbond>
0.0000

> <Gold.Chemscore.DEClash>
0.0979

> <Gold.Chemscore.DEInternal>
1.4987

> <Gold.Chemscore.Rot>
3.1831

> <Gold.Chemscore.Internal.Correction>
   9.000000E+99

> <Gold.Chemscore.Hbonds>
donor molecule, donor type, donor heavy atom, donor atom, acceptor molecule, acceptor atom, score
      L1  H    21    42       P1  8028  0.62

> <Gold.Chemscore.Hbond.Weighted>
-3.0514

> <Gold.Chemscore.Metal.Weighted>
-0.0000

> <Gold.Chemscore.Lipo.Weighted>
-9.9645

> <Gold.Chemscore.Internal_Hbond.Weighted>
0.0000

> <Gold.Chemscore.DEClash.Weighted>
0.0979

> <Gold.Chemscore.DEInternal.Weighted>
1.4987

> <Gold.Chemscore.Rot.Weighted>
8.1486

> <Gold.Chemscore.Internal.Correction.Weighted>
   9.000000E+99

> <Gold.Protein.RotatedTorsions>
[ 6907 6896 6895 6894 ] final  109.65 input  -60.11 | X-H torsion
[ 7974 7965 7964 7962 ] final  -69.52 input  175.53 | X-H torsion
[ 8008 7997 7996 7995 ] final  -42.95 input   59.86 | X-H torsion
[ 10167 10162 10161 10158 ] final  -28.56 input  -65.29 | X-H torsion
[ 10718 10713 10712 10709 ] final   63.51 input   66.30 | X-H torsion
[ 10763 10752 10751 10750 ] final   23.16 input  -60.55 | X-H torsion
[ 11005 11000 10999 10996 ] final -176.15 input  -57.11 | X-H torsion

> <Gold.Protein.ActiveResidues>
 VAL166  LYS551  ARG553  GLY616  TRP617  ASP618  TYR619  PRO620  LYS621  CYS622 
 ASP623  PHE694  ASN695  SER759  ASP760  ASP761  ALA762  ILE779  LEU786  VAL792 
 PHE793  MET794  SER795  GLU796  ALA797  LYS798  CYS799  TRP800  GLU811  SER814 

> <Gold.Protein.RotatedAtoms>
  152.5057  133.8913  159.7395 H   0  0  0  0  0  0  0  0  0  0  0  0  # atno 6907 bound_to 6896
  150.9351  133.6712  159.2809 H   0  0  0  0  0  0  0  0  0  0  0  0  # atno 6908 bound_to 6896
  151.4043  135.0980  159.9618 H   0  0  0  0  0  0  0  0  0  0  0  0  # atno 6909 bound_to 6896
  145.7027  140.9110  143.0722 H   0  0  0  0  0  0  0  0  0  0  0  0  # atno 7974 bound_to 7965
  154.3997  140.1460  156.3439 H   0  0  0  0  0  0  0  0  0  0  0  0  # atno 8008 bound_to 7997
  155.8331  140.3465  155.5563 H   0  0  0  0  0  0  0  0  0  0  0  0  # atno 8009 bound_to 7997
  155.8167  140.0892  157.1863 H   0  0  0  0  0  0  0  0  0  0  0  0  # atno 8010 bound_to 7997
  140.7269  143.4000  151.1281 H   0  0  0  0  0  0  0  0  0  0  0  0  # atno 10167 bound_to 10162
  157.5976  130.9109  149.9725 H   0  0  0  0  0  0  0  0  0  0  0  0  # atno 10718 bound_to 10713
  153.0859  135.6633  153.9950 H   0  0  0  0  0  0  0  0  0  0  0  0  # atno 10763 bound_to 10752
  153.9559  135.2979  155.3437 H   0  0  0  0  0  0  0  0  0  0  0  0  # atno 10764 bound_to 10752
  154.7267  135.5141  153.8970 H   0  0  0  0  0  0  0  0  0  0  0  0  # atno 10765 bound_to 10752
  140.4553  134.6305  157.4819 H   0  0  0  0  0  0  0  0  0  0  0  0  # atno 11005 bound_to 11000
  144.6964  139.8970  143.7456 LP  0  0  0  0  0  0  0  0  0  0  0  0  # atno 17320 bound_to 7965
  146.0783  139.3771  143.0480 LP  0  0  0  0  0  0  0  0  0  0  0  0  # atno 17321 bound_to 7965
  139.7618  143.8624  152.3102 LP  0  0  0  0  0  0  0  0  0  0  0  0  # atno 17342 bound_to 10162
  139.8512  144.7163  150.9212 LP  0  0  0  0  0  0  0  0  0  0  0  0  # atno 17343 bound_to 10162
  156.1042  130.3654  150.0163 LP  0  0  0  0  0  0  0  0  0  0  0  0  # atno 17370 bound_to 10713
  156.8273  130.9380  151.3638 LP  0  0  0  0  0  0  0  0  0  0  0  0  # atno 17371 bound_to 10713
  139.9980  134.6880  155.9577 LP  0  0  0  0  0  0  0  0  0  0  0  0  # atno 17394 bound_to 11000
  141.1646  133.6537  156.4434 LP  0  0  0  0  0  0  0  0  0  0  0  0  # atno 17395 bound_to 11000

$$$$
