AV-unprocessed.smi:3342|AV-procd|sdf|12890|dock2
  -GOLD-   2272019293D 1   1.00000     0.00000
 Structure written by MMmdl.
 41 42  0  0  0  0  0  0  0  0  1 V2000
  154.1796  139.3106  160.2084 C   0  0  0  0  0  0  0  0  0  0  0  0
  153.1804  140.4640  160.0270 C   0  0  1  0  0  0  0  0  0  0  0  0
  153.7965  141.8133  160.4425 C   0  0  0  0  0  0  0  0  0  0  0  0
  152.9969  142.9429  160.0053 N   0  0  0  0  0  0  0  0  0  0  0  0
  151.9862  143.5794  160.7142 C   0  0  0  0  0  0  0  0  0  0  0  0
  151.5187  144.5922  159.9074 C   0  0  0  0  0  0  0  0  0  0  0  0
  152.2214  144.5959  158.7048 N   0  0  0  0  0  0  0  0  0  0  0  0
  153.0786  143.5917  158.8357 C   0  0  0  0  0  0  0  0  0  0  0  0
  152.7371  140.5284  158.6365 N   0  0  0  0  0  0  0  0  0  0  0  0
  151.5808  141.0566  158.2014 C   0  0  0  0  0  0  0  0  0  0  0  0
  150.7405  141.5186  158.9746 O   0  0  0  0  0  0  0  0  0  0  0  0
  151.4234  141.0409  156.8534 N   0  0  0  0  0  0  0  0  0  0  0  0
  152.0405  140.0911  155.9117 C   0  0  0  0  0  0  0  0  0  0  0  0
  150.9542  139.1302  155.3970 C   0  0  0  0  0  0  0  0  0  0  0  0
  149.7921  139.9082  154.7355 C   0  0  0  0  0  0  0  0  0  0  0  0
  148.6498  138.9624  154.3409 C   0  0  0  0  0  0  0  0  0  0  0  0
  148.2996  138.9347  153.0526 N   0  0  0  0  0  0  0  0  0  0  0  0
  148.0899  138.2648  155.1847 O   0  0  0  0  0  0  0  0  0  0  0  0
  149.2855  141.0361  155.6652 C   0  0  0  0  0  0  0  0  0  0  0  0
  150.4514  141.9048  156.1720 C   0  0  0  0  0  0  0  0  0  0  0  0
  154.5105  139.2390  161.2446 H   0  0  0  0  0  0  0  0  0  0  0  0
  155.0640  139.4497  159.5857 H   0  0  0  0  0  0  0  0  0  0  0  0
  153.7317  138.3529  159.9414 H   0  0  0  0  0  0  0  0  0  0  0  0
  152.3192  140.2731  160.6704 H   0  0  0  0  0  0  0  0  0  0  0  0
  153.8893  141.8665  161.5281 H   0  0  0  0  0  0  0  0  0  0  0  0
  154.8039  141.9181  160.0367 H   0  0  0  0  0  0  0  0  0  0  0  0
  151.6938  143.2700  161.7069 H   0  0  0  0  0  0  0  0  0  0  0  0
  150.7370  145.3126  160.0986 H   0  0  0  0  0  0  0  0  0  0  0  0
  153.7846  143.3232  158.0634 H   0  0  0  0  0  0  0  0  0  0  0  0
  153.3739  140.1658  157.9423 H   0  0  0  0  0  0  0  0  0  0  0  0
  152.4708  140.6458  155.0767 H   0  0  0  0  0  0  0  0  0  0  0  0
  152.8698  139.5222  156.3323 H   0  0  0  0  0  0  0  0  0  0  0  0
  151.3909  138.4318  154.6819 H   0  0  0  0  0  0  0  0  0  0  0  0
  150.5850  138.5297  156.2301 H   0  0  0  0  0  0  0  0  0  0  0  0
  150.1807  140.3764  153.8293 H   0  0  0  0  0  0  0  0  0  0  0  0
  147.5546  138.3271  152.7445 H   0  0  0  0  0  0  0  0  0  0  0  0
  148.7842  139.5224  152.3899 H   0  0  0  0  0  0  0  0  0  0  0  0
  148.5654  141.6615  155.1363 H   0  0  0  0  0  0  0  0  0  0  0  0
  148.7570  140.6145  156.5222 H   0  0  0  0  0  0  0  0  0  0  0  0
  150.0689  142.7001  156.8132 H   0  0  0  0  0  0  0  0  0  0  0  0
  150.9371  142.4089  155.3352 H   0  0  0  0  0  0  0  0  0  0  0  0
  1  2  1  0  0  0  0
  1 21  1  0  0  0  0
  1 22  1  0  0  0  0
  1 23  1  0  0  0  0
  2  3  1  0  0  0  0
  2  9  1  0  0  0  0
  2 24  1  0  0  0  0
  3  4  1  0  0  0  0
  3 25  1  0  0  0  0
  3 26  1  0  0  0  0
  4  8  1  0  0  0  0
  4  5  1  0  0  0  0
  5  6  2  0  0  0  0
  5 27  1  0  0  0  0
  6  7  1  0  0  0  0
  6 28  1  0  0  0  0
  7  8  2  0  0  0  0
  8 29  1  0  0  0  0
  9 10  1  0  0  0  0
  9 30  1  0  0  0  0
 10 11  2  0  0  0  0
 10 12  1  0  0  0  0
 12 20  1  0  0  0  0
 12 13  1  0  0  0  0
 13 14  1  0  0  0  0
 13 31  1  0  0  0  0
 13 32  1  0  0  0  0
 14 15  1  0  0  0  0
 14 33  1  0  0  0  0
 14 34  1  0  0  0  0
 15 16  1  0  0  0  0
 15 19  1  0  0  0  0
 15 35  1  0  0  0  0
 16 17  1  0  0  0  0
 16 18  2  0  0  0  0
 17 36  1  0  0  0  0
 17 37  1  0  0  0  0
 19 20  1  0  0  0  0
 19 38  1  0  0  0  0
 19 39  1  0  0  0  0
 20 40  1  0  0  0  0
 20 41  1  0  0  0  0
M  END
> <s_m_source_file>
AV-unprocessed.smi

> <i_m_source_file_index>
3342

> <i_lp_mmshare_version>
43012

> <i_f3d_flags>
0

> <s_epik_input>
W2NIXTFuW2NIXVtjSF1uMVtDSDJdW0NAQEhdKFtDSDNdKVtOSF1DKD1PKU4yW0NIMl1bQ0gyXVtDSF0oQyg9TylbTkgyXSlbQ0gyXVtDSDJdMg==

> <s_epik_cmdline>
J2VwaWtfcHl0aG9uJywgJy1waCcsICc3LjAnLCAnLXRuJywgJzgnLCAnLW1hJywgJzIwMCcsICctbWV0YWxfYmluZGluZycsICctaW1hZScsICc8aW5maWxlLm1hZT4nLCAnLW9tYWUnLCAnPG91dGZpbGUubWFlPic=

> <r_lp_tautomer_probability>
1

> <r_epik_Ionization_Penalty>
0.624431

> <r_epik_Ionization_Penalty_Charging>
0.624374

> <r_epik_Ionization_Penalty_Neutral>
5.67186e-05

> <r_epik_State_Penalty>
0.640677

> <r_epik_Charging_Adjusted_Penalty>
1.26505

> <i_epik_Tot_Q>
0

> <i_epik_Tot_abs_Q>
0

> <r_epik_Metal_State_Penalty>
0.307574

> <b_epik_Metal_Only>
0

> <s_lp_Force_Field>
OPLS_2005

> <r_lp_Energy>
30.3525

> <b_lp_Chiralities_Consistent>
1

> <s_lp_Variant>
AV-unprocessed.smi:3342-4

> <Gold.Version>
5.8.1

> <Gold.Id.Protein>
6NUR|6NUR_protein|mol2

> <Gold.PLP.Fitness>
44.2061

> <Gold.PLP.PLP>
-43.2416

> <Gold.PLP.part.hbond>
-2.2925

> <Gold.PLP.part.metal>
0.0000

> <Gold.PLP.part.buried>
-6.1050

> <Gold.PLP.part.nonpolar>
-35.6490

> <Gold.PLP.part.repulsive>
0.2843

> <Gold.PLP.ligand.clash>
0.0000

> <Gold.PLP.ligand.torsion>
1.0520

> <Gold.PLP.Chemscore.Hbond>
0.9913

> <Gold.PLP.Chemscore.CHOScore>
0.0000

> <Gold.PLP.Chemscore.Metal>
0.0000

> <Gold.Chemscore.Hbonds>
donor molecule, donor type, donor heavy atom, donor atom, acceptor molecule, acceptor atom, score
      L1  H    17    37       P1  7957  1.00

> <Gold.PLP.Chemscore.Internal.Correction>
0.0948

> <Gold.Rescore>
     Score         DG    S(hbond)    S(metal)    S(lipo)     H(rot)  DE(clash)    DE(int)     intcor
     12.64     -13.58       1.31        0.00      81.53       2.28       0.08       0.86       ----

> <Gold.Chemscore.Fitness>
12.6424

> <Gold.Chemscore.DG>
-13.5823

> <Gold.Chemscore.ZeroCoef>
-5.4800

> <Gold.Chemscore.Hbond>
1.3142

> <Gold.Chemscore.Metal>
0.0000

> <Gold.Chemscore.Lipo>
81.5288

> <Gold.Chemscore.Internal_Hbond>
0.0000

> <Gold.Chemscore.DEClash>
0.0777

> <Gold.Chemscore.DEInternal>
0.8622

> <Gold.Chemscore.Rot>
2.2757

> <Gold.Chemscore.Internal.Correction>
   9.000000E+99

> <Gold.Chemscore.Hbonds>
donor molecule, donor type, donor heavy atom, donor atom, acceptor molecule, acceptor atom, score
      L1  H    17    37       P1  7957  0.96

> <Gold.Chemscore.Hbond.Weighted>
-4.3893

> <Gold.Chemscore.Metal.Weighted>
-0.0000

> <Gold.Chemscore.Lipo.Weighted>
-9.5389

> <Gold.Chemscore.Internal_Hbond.Weighted>
0.0000

> <Gold.Chemscore.DEClash.Weighted>
0.0777

> <Gold.Chemscore.DEInternal.Weighted>
0.8622

> <Gold.Chemscore.Rot.Weighted>
5.8259

> <Gold.Chemscore.Internal.Correction.Weighted>
   9.000000E+99

> <Gold.Protein.RotatedTorsions>
[ 6907 6896 6895 6894 ] final   89.83 input  -60.11 | X-H torsion
[ 7974 7965 7964 7962 ] final  -21.34 input  175.53 | X-H torsion
[ 8008 7997 7996 7995 ] final  175.42 input   59.86 | X-H torsion
[ 10167 10162 10161 10158 ] final   -6.48 input  -65.29 | X-H torsion
[ 10718 10713 10712 10709 ] final  -50.47 input   66.30 | X-H torsion
[ 10763 10752 10751 10750 ] final   67.28 input  -60.55 | X-H torsion
[ 11005 11000 10999 10996 ] final  102.84 input  -57.11 | X-H torsion

> <Gold.Protein.ActiveResidues>
 VAL166  LYS551  ARG553  GLY616  TRP617  ASP618  TYR619  PRO620  LYS621  CYS622 
 ASP623  PHE694  ASN695  SER759  ASP760  ASP761  ALA762  ILE779  LEU786  VAL792 
 PHE793  MET794  SER795  GLU796  ALA797  LYS798  CYS799  TRP800  GLU811  SER814 

> <Gold.Protein.RotatedAtoms>
  152.5440  134.1906  159.8671 H   0  0  0  0  0  0  0  0  0  0  0  0  # atno 6907 bound_to 6896
  151.1901  133.4665  159.2602 H   0  0  0  0  0  0  0  0  0  0  0  0  # atno 6908 bound_to 6896
  151.1091  135.0028  159.8541 H   0  0  0  0  0  0  0  0  0  0  0  0  # atno 6909 bound_to 6896
  146.1738  140.4327  142.8521 H   0  0  0  0  0  0  0  0  0  0  0  0  # atno 7974 bound_to 7965
  156.0872  140.1409  156.9638 H   0  0  0  0  0  0  0  0  0  0  0  0  # atno 8008 bound_to 7997
  154.4620  140.0940  156.6966 H   0  0  0  0  0  0  0  0  0  0  0  0  # atno 8009 bound_to 7997
  155.4979  140.3450  155.4368 H   0  0  0  0  0  0  0  0  0  0  0  0  # atno 8010 bound_to 7997
  140.6998  143.6189  150.8631 H   0  0  0  0  0  0  0  0  0  0  0  0  # atno 10167 bound_to 10162
  156.1797  130.4150  149.9525 H   0  0  0  0  0  0  0  0  0  0  0  0  # atno 10718 bound_to 10713
  153.0179  135.5290  154.6955 H   0  0  0  0  0  0  0  0  0  0  0  0  # atno 10763 bound_to 10752
  154.6078  135.2875  155.0468 H   0  0  0  0  0  0  0  0  0  0  0  0  # atno 10764 bound_to 10752
  154.1501  135.6564  153.5014 H   0  0  0  0  0  0  0  0  0  0  0  0  # atno 10765 bound_to 10752
  139.8780  134.9240  156.5119 H   0  0  0  0  0  0  0  0  0  0  0  0  # atno 11005 bound_to 11000
  144.8205  140.6541  143.6356 LP  0  0  0  0  0  0  0  0  0  0  0  0  # atno 17320 bound_to 7965
  145.4267  139.1555  143.4045 LP  0  0  0  0  0  0  0  0  0  0  0  0  # atno 17321 bound_to 7965
  139.9911  143.5846  152.2910 LP  0  0  0  0  0  0  0  0  0  0  0  0  # atno 17342 bound_to 10162
  139.6502  144.7660  151.2164 LP  0  0  0  0  0  0  0  0  0  0  0  0  # atno 17343 bound_to 10162
  156.7299  130.9039  151.3625 LP  0  0  0  0  0  0  0  0  0  0  0  0  # atno 17370 bound_to 10713
  157.6860  130.9186  150.0387 LP  0  0  0  0  0  0  0  0  0  0  0  0  # atno 17371 bound_to 10713
  140.8514  133.8129  155.9172 LP  0  0  0  0  0  0  0  0  0  0  0  0  # atno 17394 bound_to 11000
  140.9141  134.2224  157.4968 LP  0  0  0  0  0  0  0  0  0  0  0  0  # atno 17395 bound_to 11000

$$$$
