AV-unprocessed.smi:3179|AV-procd|sdf|12132|dock4
  -GOLD-   2272017573D 1   1.00000     0.00000
 Structure written by MMmdl.
 34 34  0  0  0  0  0  0  0  0  2 V2000
  151.5380  137.7379  154.4617 C   0  0  0  0  0  0  0  0  0  0  0  0
  150.3551  138.6948  154.2887 C   0  0  0  0  0  0  0  0  0  0  0  0
  150.5028  139.8822  155.1404 N   0  3  0  0  0  0  0  0  0  0  0  0
  149.7017  140.9655  155.1225 C   0  0  0  0  0  0  0  0  0  0  0  0
  148.6640  141.0218  154.2649 N   0  0  0  0  0  0  0  0  0  0  0  0
  147.7169  142.1374  154.1381 C   0  0  0  0  0  0  0  0  0  0  0  0
  146.2879  141.6905  154.4585 C   0  0  0  0  0  0  0  0  0  0  0  0
  149.9375  141.9928  155.9618 N   0  0  0  0  0  0  0  0  0  0  0  0
  151.0346  142.0711  156.9359 C   0  0  0  0  0  0  0  0  0  0  0  0
  151.0856  143.4500  157.6044 C   0  0  0  0  0  0  0  0  0  0  0  0
  151.7317  143.4084  158.9486 C   0  0  0  0  0  0  0  0  0  0  0  0
  152.3213  142.3189  159.4486 N   0  0  0  0  0  0  0  0  0  0  0  0
  152.8310  142.5285  160.7325 C   0  0  0  0  0  0  0  0  0  0  0  0
  152.6030  143.7934  161.2118 C   0  0  0  0  0  0  0  0  0  0  0  0
  151.7353  144.7731  160.0611 S   0  0  0  0  0  0  0  0  0  0  0  0
  151.4162  136.8556  153.8327 H   0  0  0  0  0  0  0  0  0  0  0  0
  151.6245  137.3996  155.4947 H   0  0  0  0  0  0  0  0  0  0  0  0
  152.4771  138.2170  154.1836 H   0  0  0  0  0  0  0  0  0  0  0  0
  150.2763  139.0098  153.2481 H   0  0  0  0  0  0  0  0  0  0  0  0
  149.4250  138.1872  154.5457 H   0  0  0  0  0  0  0  0  0  0  0  0
  148.5143  140.2354  153.6491 H   0  0  0  0  0  0  0  0  0  0  0  0
  148.0184  142.9395  154.8122 H   0  0  0  0  0  0  0  0  0  0  0  0
  147.7660  142.5310  153.1225 H   0  0  0  0  0  0  0  0  0  0  0  0
  145.5902  142.5215  154.3518 H   0  0  0  0  0  0  0  0  0  0  0  0
  146.2098  141.3207  155.4812 H   0  0  0  0  0  0  0  0  0  0  0  0
  145.9625  140.8958  153.7866 H   0  0  0  0  0  0  0  0  0  0  0  0
  149.3281  142.7966  155.9092 H   0  0  0  0  0  0  0  0  0  0  0  0
  150.8963  141.2966  157.6911 H   0  0  0  0  0  0  0  0  0  0  0  0
  151.9746  141.8622  156.4242 H   0  0  0  0  0  0  0  0  0  0  0  0
  151.6316  144.1539  156.9747 H   0  0  0  0  0  0  0  0  0  0  0  0
  150.0775  143.8501  157.7175 H   0  0  0  0  0  0  0  0  0  0  0  0
  153.3420  141.7196  161.2339 H   0  0  0  0  0  0  0  0  0  0  0  0
  152.8897  144.2053  162.1683 H   0  0  0  0  0  0  0  0  0  0  0  0
  151.2786  139.8751  155.7872 H   0  0  0  0  0  0  0  0  0  0  0  0
  1  2  1  0  0  0  0
  1 16  1  0  0  0  0
  1 17  1  0  0  0  0
  1 18  1  0  0  0  0
  2  3  1  0  0  0  0
  2 19  1  0  0  0  0
  2 20  1  0  0  0  0
  3  4  2  0  0  0  0
  3 34  1  0  0  0  0
  4  5  1  0  0  0  0
  4  8  1  0  0  0  0
  5  6  1  0  0  0  0
  5 21  1  0  0  0  0
  6  7  1  0  0  0  0
  6 22  1  0  0  0  0
  6 23  1  0  0  0  0
  7 24  1  0  0  0  0
  7 25  1  0  0  0  0
  7 26  1  0  0  0  0
  8  9  1  0  0  0  0
  8 27  1  0  0  0  0
  9 10  1  0  0  0  0
  9 28  1  0  0  0  0
  9 29  1  0  0  0  0
 10 11  1  0  0  0  0
 10 30  1  0  0  0  0
 10 31  1  0  0  0  0
 11 15  1  0  0  0  0
 11 12  2  0  0  0  0
 12 13  1  0  0  0  0
 13 14  2  0  0  0  0
 13 32  1  0  0  0  0
 14 15  1  0  0  0  0
 14 33  1  0  0  0  0
M  CHG  1   3   1
M  END
> <s_m_source_file>
AV-unprocessed.smi

> <i_m_source_file_index>
3179

> <i_lp_mmshare_version>
43012

> <i_f3d_flags>
0

> <s_epik_input>
W0NIM11bQ0gyXS9OPUMoXFtOSF1bQ0gyXVtDSDNdKVtOSF1bQ0gyXVtDSDJdYzFuW2NIXVtjSF1zMQ==

> <s_epik_cmdline>
J2VwaWtfcHl0aG9uJywgJy1waCcsICc3LjAnLCAnLXRuJywgJzgnLCAnLW1hJywgJzIwMCcsICctbWV0YWxfYmluZGluZycsICctaW1hZScsICc8aW5maWxlLm1hZT4nLCAnLW9tYWUnLCAnPG91dGZpbGUubWFlPic=

> <r_lp_tautomer_probability>
1

> <r_epik_Ionization_Penalty>
3.28801e-05

> <r_epik_Ionization_Penalty_Charging>
8.99277e-08

> <r_epik_Ionization_Penalty_Neutral>
3.27902e-05

> <r_epik_State_Penalty>
-0

> <r_epik_Charging_Adjusted_Penalty>
8.99277e-08

> <i_epik_Tot_Q>
1

> <i_epik_Tot_abs_Q>
1

> <r_epik_Metal_State_Penalty>
-0

> <b_epik_Metal_Only>
0

> <s_epik_Chemistry_Notes>
This compound has an imine and may undergo hydrolysis.

> <s_lp_Force_Field>
OPLS_2005

> <r_lp_Energy>
0.386487

> <b_lp_Chiralities_Consistent>
1

> <s_lp_Variant>
AV-unprocessed.smi:3179-1

> <Gold.Version>
5.8.1

> <Gold.Id.Protein>
6NUR|6NUR_protein|mol2

> <Gold.PLP.Fitness>
41.9169

> <Gold.PLP.PLP>
-36.3871

> <Gold.PLP.part.hbond>
-1.0000

> <Gold.PLP.part.metal>
0.0000

> <Gold.PLP.part.buried>
-4.7799

> <Gold.PLP.part.nonpolar>
-30.9427

> <Gold.PLP.part.repulsive>
0.4041

> <Gold.PLP.ligand.clash>
0.0000

> <Gold.PLP.ligand.torsion>
0.2446

> <Gold.PLP.Chemscore.Hbond>
2.0000

> <Gold.PLP.Chemscore.CHOScore>
0.0000

> <Gold.PLP.Chemscore.Metal>
0.0000

> <Gold.Chemscore.Hbonds>
donor molecule, donor type, donor heavy atom, donor atom, acceptor molecule, acceptor atom, score
      L1  H     8    27       P1  8028  2.00

> <Gold.PLP.Chemscore.Internal.Correction>
0.0190

> <Gold.Rescore>
     Score         DG    S(hbond)    S(metal)    S(lipo)     H(rot)  DE(clash)    DE(int)     intcor
     15.08     -15.43       0.98        0.00      94.60       1.72       0.14       0.21       ----

> <Gold.Chemscore.Fitness>
15.0840

> <Gold.Chemscore.DG>
-15.4330

> <Gold.Chemscore.ZeroCoef>
-5.4800

> <Gold.Chemscore.Hbond>
0.9833

> <Gold.Chemscore.Metal>
0.0000

> <Gold.Chemscore.Lipo>
94.6025

> <Gold.Chemscore.Internal_Hbond>
0.0000

> <Gold.Chemscore.DEClash>
0.1402

> <Gold.Chemscore.DEInternal>
0.2088

> <Gold.Chemscore.Rot>
1.7187

> <Gold.Chemscore.Internal.Correction>
   9.000000E+99

> <Gold.Chemscore.Hbonds>
donor molecule, donor type, donor heavy atom, donor atom, acceptor molecule, acceptor atom, score
      L1  H     8    27       P1  8028  0.95

> <Gold.Chemscore.Hbond.Weighted>
-3.2842

> <Gold.Chemscore.Metal.Weighted>
-0.0000

> <Gold.Chemscore.Lipo.Weighted>
-11.0685

> <Gold.Chemscore.Internal_Hbond.Weighted>
0.0000

> <Gold.Chemscore.DEClash.Weighted>
0.1402

> <Gold.Chemscore.DEInternal.Weighted>
0.2088

> <Gold.Chemscore.Rot.Weighted>
4.3998

> <Gold.Chemscore.Internal.Correction.Weighted>
   9.000000E+99

> <Gold.Protein.RotatedTorsions>
[ 6907 6896 6895 6894 ] final  174.64 input  -60.11 | X-H torsion
[ 7974 7965 7964 7962 ] final  134.92 input  175.53 | X-H torsion
[ 8008 7997 7996 7995 ] final   -9.02 input   59.86 | X-H torsion
[ 10167 10162 10161 10158 ] final   -9.42 input  -65.29 | X-H torsion
[ 10718 10713 10712 10709 ] final  -62.79 input   66.30 | X-H torsion
[ 10763 10752 10751 10750 ] final -104.91 input  -60.55 | X-H torsion
[ 11005 11000 10999 10996 ] final  176.78 input  -57.11 | X-H torsion

> <Gold.Protein.ActiveResidues>
 VAL166  LYS551  ARG553  GLY616  TRP617  ASP618  TYR619  PRO620  LYS621  CYS622 
 ASP623  PHE694  ASN695  SER759  ASP760  ASP761  ALA762  ILE779  LEU786  VAL792 
 PHE793  MET794  SER795  GLU796  ALA797  LYS798  CYS799  TRP800  GLU811  SER814 

> <Gold.Protein.RotatedAtoms>
  151.7491  133.3326  159.3386 H   0  0  0  0  0  0  0  0  0  0  0  0  # atno 6907 bound_to 6896
  150.7542  134.6209  159.6145 H   0  0  0  0  0  0  0  0  0  0  0  0  # atno 6908 bound_to 6896
  152.3480  134.7046  160.0296 H   0  0  0  0  0  0  0  0  0  0  0  0  # atno 6909 bound_to 6896
  144.9716  139.4600  143.5430 H   0  0  0  0  0  0  0  0  0  0  0  0  # atno 7974 bound_to 7965
  154.5686  140.2366  155.8225 H   0  0  0  0  0  0  0  0  0  0  0  0  # atno 8008 bound_to 7997
  156.2089  140.3032  155.9645 H   0  0  0  0  0  0  0  0  0  0  0  0  # atno 8009 bound_to 7997
  155.2754  140.0420  157.3001 H   0  0  0  0  0  0  0  0  0  0  0  0  # atno 8010 bound_to 7997
  140.7087  143.5859  150.8943 H   0  0  0  0  0  0  0  0  0  0  0  0  # atno 10167 bound_to 10162
  156.0832  130.4213  150.1184 H   0  0  0  0  0  0  0  0  0  0  0  0  # atno 10718 bound_to 10713
  154.7911  135.4769  154.0054 H   0  0  0  0  0  0  0  0  0  0  0  0  # atno 10763 bound_to 10752
  153.1632  135.6812  153.8720 H   0  0  0  0  0  0  0  0  0  0  0  0  # atno 10764 bound_to 10752
  153.8327  135.3189  155.3398 H   0  0  0  0  0  0  0  0  0  0  0  0  # atno 10765 bound_to 10752
  140.3768  134.6981  157.4426 H   0  0  0  0  0  0  0  0  0  0  0  0  # atno 11005 bound_to 11000
  146.3383  139.8931  142.8806 LP  0  0  0  0  0  0  0  0  0  0  0  0  # atno 17320 bound_to 7965
  145.2551  141.0058  143.3858 LP  0  0  0  0  0  0  0  0  0  0  0  0  # atno 17321 bound_to 7965
  139.9585  143.6191  152.3009 LP  0  0  0  0  0  0  0  0  0  0  0  0  # atno 17342 bound_to 10162
  139.6735  144.7660  151.1740 LP  0  0  0  0  0  0  0  0  0  0  0  0  # atno 17343 bound_to 10162
  156.9211  130.9683  151.3548 LP  0  0  0  0  0  0  0  0  0  0  0  0  # atno 17370 bound_to 10713
  157.5957  130.8476  149.8726 LP  0  0  0  0  0  0  0  0  0  0  0  0  # atno 17371 bound_to 10713
  140.0509  134.6132  155.8863 LP  0  0  0  0  0  0  0  0  0  0  0  0  # atno 17394 bound_to 11000
  141.1936  133.6580  156.5558 LP  0  0  0  0  0  0  0  0  0  0  0  0  # atno 17395 bound_to 11000

$$$$
