AV-unprocessed.smi:106|AV-procd|sdf|1011|dock10
  -GOLD-   2262018 13D 1   1.00000     0.00000
 Structure written by MMmdl.
 51 54  0  0  0  0  0  0  0  0  1 V2000
  153.0978  136.0126  156.3172 O   0  0  0  0  0  0  0  0  0  0  0  0
  152.2394  136.5940  156.9850 C   0  0  0  0  0  0  0  0  0  0  0  0
  150.7589  136.1863  156.8190 C   0  0  0  0  0  0  0  0  0  0  0  0
  150.5521  135.0823  155.8541 N   0  0  0  0  0  0  0  0  0  0  0  0
  151.3079  133.8946  156.0146 C   0  0  0  0  0  0  0  0  0  0  0  0
  152.1243  133.7757  156.9296 O   0  0  0  0  0  0  0  0  0  0  0  0
  151.0518  132.8481  155.0325 C   0  0  0  0  0  0  0  0  0  0  0  0
  151.7019  131.6754  155.1235 F   0  0  0  0  0  0  0  0  0  0  0  0
  150.1666  133.0365  154.0326 C   0  0  0  0  0  0  0  0  0  0  0  0
  149.4633  134.2129  153.8623 N   0  0  0  0  0  0  0  0  0  0  0  0
  148.4695  134.3119  152.7252 C   0  0  2  0  0  0  0  0  0  0  0  0
  147.0189  134.5190  153.1859 C   0  0  0  0  0  0  0  0  0  0  0  0
  146.2629  133.7357  152.1347 C   0  0  0  0  0  0  0  0  0  0  0  0
  147.2146  132.5770  151.8570 C   0  0  0  0  0  0  0  0  0  0  0  0
  148.5204  133.1380  151.9663 O   0  0  0  0  0  0  0  0  0  0  0  0
  149.6278  135.2631  154.7961 C   0  0  0  0  0  0  0  0  0  0  0  0
  148.9878  136.3106  154.6957 O   0  0  0  0  0  0  0  0  0  0  0  0
  152.5558  137.5811  157.8590 N   0  0  0  0  0  0  0  0  0  0  0  0
  151.5571  138.3346  158.6322 C   0  0  0  0  0  0  0  0  0  0  0  0
  152.0469  139.7441  159.0179 C   0  0  0  0  0  0  0  0  0  0  0  0
  153.3250  139.7309  159.7443 N   0  0  0  0  0  0  0  0  0  0  0  0
  153.6842  140.7980  160.5030 C   0  0  0  0  0  0  0  0  0  0  0  0
  154.6769  140.7732  161.2332 O   0  0  0  0  0  0  0  0  0  0  0  0
  152.8748  142.0412  160.4434 C   0  0  0  0  0  0  0  0  0  0  0  0
  152.3679  142.7747  159.3975 C   0  0  0  0  0  0  0  0  0  0  0  0
  151.6823  143.9527  159.8161 C   0  0  0  0  0  0  0  0  0  0  0  0
  151.6962  144.1219  161.1747 C   0  0  0  0  0  0  0  0  0  0  0  0
  152.5655  142.8387  161.9696 S   0  0  0  0  0  0  0  0  0  0  0  0
  154.1877  138.5679  159.4849 C   0  0  0  0  0  0  0  0  0  0  0  0
  153.9577  137.9617  158.0873 C   0  0  0  0  0  0  0  0  0  0  0  0
  150.3499  135.9149  157.7936 H   0  0  0  0  0  0  0  0  0  0  0  0
  150.1864  137.0656  156.5219 H   0  0  0  0  0  0  0  0  0  0  0  0
  150.0122  132.2268  153.3344 H   0  0  0  0  0  0  0  0  0  0  0  0
  148.8131  135.1329  152.0948 H   0  0  0  0  0  0  0  0  0  0  0  0
  146.8463  134.0981  154.1754 H   0  0  0  0  0  0  0  0  0  0  0  0
  146.7637  135.5787  153.2079 H   0  0  0  0  0  0  0  0  0  0  0  0
  145.2780  133.4087  152.4692 H   0  0  0  0  0  0  0  0  0  0  0  0
  146.1374  134.3402  151.2354 H   0  0  0  0  0  0  0  0  0  0  0  0
  147.0922  131.7937  152.6053 H   0  0  0  0  0  0  0  0  0  0  0  0
  147.0548  132.1311  150.8751 H   0  0  0  0  0  0  0  0  0  0  0  0
  150.6274  138.4580  158.0777 H   0  0  0  0  0  0  0  0  0  0  0  0
  151.3131  137.7667  159.5311 H   0  0  0  0  0  0  0  0  0  0  0  0
  152.1642  140.3524  158.1195 H   0  0  0  0  0  0  0  0  0  0  0  0
  151.2691  140.2204  159.6175 H   0  0  0  0  0  0  0  0  0  0  0  0
  152.4634  142.5144  158.3541 H   0  0  0  0  0  0  0  0  0  0  0  0
  151.2170  144.6299  159.1151 H   0  0  0  0  0  0  0  0  0  0  0  0
  151.2627  144.9234  161.7543 H   0  0  0  0  0  0  0  0  0  0  0  0
  155.2426  138.8362  159.5521 H   0  0  0  0  0  0  0  0  0  0  0  0
  153.9993  137.8127  160.2487 H   0  0  0  0  0  0  0  0  0  0  0  0
  154.6205  137.1009  157.9834 H   0  0  0  0  0  0  0  0  0  0  0  0
  154.2539  138.6763  157.3181 H   0  0  0  0  0  0  0  0  0  0  0  0
  1  2  2  0  0  0  0
  2  3  1  0  0  0  0
  2 18  1  0  0  0  0
  3  4  1  0  0  0  0
  3 31  1  0  0  0  0
  3 32  1  0  0  0  0
  4 16  1  0  0  0  0
  4  5  1  0  0  0  0
  5  6  2  0  0  0  0
  5  7  1  0  0  0  0
  7  8  1  0  0  0  0
  7  9  2  0  0  0  0
  9 10  1  0  0  0  0
  9 33  1  0  0  0  0
 10 11  1  0  0  0  0
 10 16  1  0  0  0  0
 11 15  1  0  0  0  0
 11 12  1  0  0  0  0
 11 34  1  0  0  0  0
 12 13  1  0  0  0  0
 12 35  1  0  0  0  0
 12 36  1  0  0  0  0
 13 14  1  0  0  0  0
 13 37  1  0  0  0  0
 13 38  1  0  0  0  0
 14 15  1  0  0  0  0
 14 39  1  0  0  0  0
 14 40  1  0  0  0  0
 16 17  2  0  0  0  0
 18 30  1  0  0  0  0
 18 19  1  0  0  0  0
 19 20  1  0  0  0  0
 19 41  1  0  0  0  0
 19 42  1  0  0  0  0
 20 21  1  0  0  0  0
 20 43  1  0  0  0  0
 20 44  1  0  0  0  0
 21 22  1  0  0  0  0
 21 29  1  0  0  0  0
 22 23  2  0  0  0  0
 22 24  1  0  0  0  0
 24 28  1  0  0  0  0
 24 25  2  0  0  0  0
 25 26  1  0  0  0  0
 25 45  1  0  0  0  0
 26 27  2  0  0  0  0
 26 46  1  0  0  0  0
 27 28  1  0  0  0  0
 27 47  1  0  0  0  0
 29 30  1  0  0  0  0
 29 48  1  0  0  0  0
 29 49  1  0  0  0  0
 30 50  1  0  0  0  0
 30 51  1  0  0  0  0
M  END
> <s_m_source_file>
AV-unprocessed.smi

> <i_m_source_file_index>
106

> <i_lp_mmshare_version>
43012

> <i_f3d_flags>
0

> <s_epik_input>
czFbY0hdW2NIXVtjSF1jMUMoPU8pTihbQ0gyXVtDSDJdMilbQ0gyXVtDSDJdTjJDKD1PKVtDSDJdbjNjKD1PKWMoRilbY0hdbihjMz1PKVtDQEBIXTRbQ0gyXVtDSDJdW0NIMl1PNA==

> <s_epik_cmdline>
J2VwaWtfcHl0aG9uJywgJy1waCcsICc3LjAnLCAnLXRuJywgJzgnLCAnLW1hJywgJzIwMCcsICctbWV0YWxfYmluZGluZycsICctaW1hZScsICc8aW5maWxlLm1hZT4nLCAnLW9tYWUnLCAnPG91dGZpbGUubWFlPic=

> <r_lp_tautomer_probability>
1

> <r_epik_Ionization_Penalty>
4.82844e-09

> <r_epik_Ionization_Penalty_Charging>
4.20153e-09

> <r_epik_Ionization_Penalty_Neutral>
6.26919e-10

> <r_epik_State_Penalty>
-0

> <r_epik_Charging_Adjusted_Penalty>
4.20153e-09

> <i_epik_Tot_Q>
0

> <i_epik_Tot_abs_Q>
0

> <r_epik_Metal_State_Penalty>
-0

> <b_epik_Metal_Only>
0

> <s_epik_Chemistry_Notes>
This compound contains an acetal/aminal-like group ( X-CH(R)-Y where X, Y are N, S, or O) that may be acid/base labile, releasing an aldehyde.

> <s_lp_Force_Field>
OPLS_2005

> <r_lp_Energy>
67.8789

> <b_lp_Chiralities_Consistent>
1

> <s_lp_Variant>
AV-unprocessed.smi:106-1

> <Gold.Version>
5.8.1

> <Gold.Id.Protein>
6NUR|6NUR_protein|mol2

> <Gold.PLP.Fitness>
53.7038

> <Gold.PLP.PLP>
-51.1363

> <Gold.PLP.part.hbond>
-2.3166

> <Gold.PLP.part.metal>
0.0000

> <Gold.PLP.part.buried>
-5.6188

> <Gold.PLP.part.nonpolar>
-43.9162

> <Gold.PLP.part.repulsive>
0.4561

> <Gold.PLP.ligand.clash>
0.0000

> <Gold.PLP.ligand.torsion>
0.8712

> <Gold.PLP.Chemscore.Hbond>
1.2480

> <Gold.PLP.Chemscore.CHOScore>
0.0000

> <Gold.PLP.Chemscore.Metal>
0.0000

> <Gold.Chemscore.Hbonds>
donor molecule, donor type, donor heavy atom, donor atom, acceptor molecule, acceptor atom, score
      P1  H  6896  6907       L1     6  0.02
      P1  H 10752 10763       L1     1  0.46

> <Gold.PLP.Chemscore.Internal.Correction>
0.5659

> <Gold.Rescore>
     Score         DG    S(hbond)    S(metal)    S(lipo)     H(rot)  DE(clash)    DE(int)     intcor
     15.07     -17.96       1.65        0.00      95.26       1.63       0.33       2.55       ----

> <Gold.Chemscore.Fitness>
15.0746

> <Gold.Chemscore.DG>
-17.9596

> <Gold.Chemscore.ZeroCoef>
-5.4800

> <Gold.Chemscore.Hbond>
1.6451

> <Gold.Chemscore.Metal>
0.0000

> <Gold.Chemscore.Lipo>
95.2594

> <Gold.Chemscore.Internal_Hbond>
0.0000

> <Gold.Chemscore.DEClash>
0.3325

> <Gold.Chemscore.DEInternal>
2.5525

> <Gold.Chemscore.Rot>
1.6252

> <Gold.Chemscore.Internal.Correction>
   9.000000E+99

> <Gold.Chemscore.Hbonds>
donor molecule, donor type, donor heavy atom, donor atom, acceptor molecule, acceptor atom, score
      P1  H  6896  6907       L1     6  0.04
      P1  H 10752 10763       L1     1  0.45

> <Gold.Chemscore.Hbond.Weighted>
-5.4947

> <Gold.Chemscore.Metal.Weighted>
-0.0000

> <Gold.Chemscore.Lipo.Weighted>
-11.1453

> <Gold.Chemscore.Internal_Hbond.Weighted>
0.0000

> <Gold.Chemscore.DEClash.Weighted>
0.3325

> <Gold.Chemscore.DEInternal.Weighted>
2.5525

> <Gold.Chemscore.Rot.Weighted>
4.1605

> <Gold.Chemscore.Internal.Correction.Weighted>
   9.000000E+99

> <Gold.Protein.RotatedTorsions>
[ 6907 6896 6895 6894 ] final -165.91 input  -60.11 | X-H torsion
[ 7974 7965 7964 7962 ] final -141.80 input  175.53 | X-H torsion
[ 8008 7997 7996 7995 ] final  167.76 input   59.86 | X-H torsion
[ 10167 10162 10161 10158 ] final  116.23 input  -65.29 | X-H torsion
[ 10718 10713 10712 10709 ] final   75.16 input   66.30 | X-H torsion
[ 10763 10752 10751 10750 ] final   85.90 input  -60.55 | X-H torsion
[ 11005 11000 10999 10996 ] final   40.42 input  -57.11 | X-H torsion

> <Gold.Protein.ActiveResidues>
 VAL166  LYS551  ARG553  GLY616  TRP617  ASP618  TYR619  PRO620  LYS621  CYS622 
 ASP623  PHE694  ASN695  SER759  ASP760  ASP761  ALA762  ILE779  LEU786  VAL792 
 PHE793  MET794  SER795  GLU796  ALA797  LYS798  CYS799  TRP800  GLU811  SER814 

> <Gold.Protein.RotatedAtoms>
  151.4352  133.3659  159.2773 H   0  0  0  0  0  0  0  0  0  0  0  0  # atno 6907 bound_to 6896
  150.9196  134.8616  159.7491 H   0  0  0  0  0  0  0  0  0  0  0  0  # atno 6908 bound_to 6896
  152.4975  134.4289  159.9557 H   0  0  0  0  0  0  0  0  0  0  0  0  # atno 6909 bound_to 6896
  144.8491  140.6035  143.5401 H   0  0  0  0  0  0  0  0  0  0  0  0  # atno 7974 bound_to 7965
  156.1606  140.1608  156.8618 H   0  0  0  0  0  0  0  0  0  0  0  0  # atno 8008 bound_to 7997
  154.5157  140.0790  156.8112 H   0  0  0  0  0  0  0  0  0  0  0  0  # atno 8009 bound_to 7997
  155.3715  140.3400  155.4245 H   0  0  0  0  0  0  0  0  0  0  0  0  # atno 8010 bound_to 7997
  139.6262  144.7108  151.2529 H   0  0  0  0  0  0  0  0  0  0  0  0  # atno 10167 bound_to 10162
  157.6622  130.9713  150.1313 H   0  0  0  0  0  0  0  0  0  0  0  0  # atno 10718 bound_to 10713
  153.1519  135.4600  154.9648 H   0  0  0  0  0  0  0  0  0  0  0  0  # atno 10763 bound_to 10752
  154.7831  135.3195  154.7948 H   0  0  0  0  0  0  0  0  0  0  0  0  # atno 10764 bound_to 10752
  153.8452  135.6926  153.4852 H   0  0  0  0  0  0  0  0  0  0  0  0  # atno 10765 bound_to 10752
  140.1932  134.3961  155.8135 H   0  0  0  0  0  0  0  0  0  0  0  0  # atno 11005 bound_to 11000
  145.4535  139.1521  143.3905 LP  0  0  0  0  0  0  0  0  0  0  0  0  # atno 17320 bound_to 7965
  146.2770  140.4662  142.8791 LP  0  0  0  0  0  0  0  0  0  0  0  0  # atno 17321 bound_to 7965
  140.7412  143.6564  150.8203 LP  0  0  0  0  0  0  0  0  0  0  0  0  # atno 17342 bound_to 10162
  140.0182  143.5570  152.2811 LP  0  0  0  0  0  0  0  0  0  0  0  0  # atno 17343 bound_to 10162
  156.2159  130.3670  149.8614 LP  0  0  0  0  0  0  0  0  0  0  0  0  # atno 17370 bound_to 10713
  156.6480  130.8732  151.3526 LP  0  0  0  0  0  0  0  0  0  0  0  0  # atno 17371 bound_to 10713
  141.2226  133.7057  156.8131 LP  0  0  0  0  0  0  0  0  0  0  0  0  # atno 17394 bound_to 11000
  140.2136  134.8809  157.3301 LP  0  0  0  0  0  0  0  0  0  0  0  0  # atno 17395 bound_to 11000

$$$$
