AV-unprocessed.smi:1644|AV-procd|sdf|6584|dock5
  -GOLD-   22720 7273D 1   1.00000     0.00000
 Structure written by MMmdl.
 49 51  0  0  0  0  0  0  0  0  1 V2000
  149.5191  134.0644  154.6134 C   0  0  0  0  0  0  0  0  0  0  0  0
  149.6102  134.9478  155.8625 C   0  0  0  0  0  0  0  0  0  0  0  0
  150.8751  135.8210  155.8746 C   0  0  0  0  0  0  0  0  0  0  0  0
  150.8417  136.9558  154.8319 C   0  0  2  0  0  0  0  0  0  0  0  0
  152.0748  137.7170  154.7925 N   0  0  0  0  0  0  0  0  0  0  0  0
  151.8897  139.0122  155.0770 C   0  0  0  0  0  0  0  0  0  0  0  0
  152.7771  139.8633  155.1151 O   0  0  0  0  0  0  0  0  0  0  0  0
  150.5810  139.2110  155.3172 N   0  0  0  0  0  0  0  0  0  0  0  0
  149.9961  140.5021  155.6934 C   0  0  0  0  0  0  0  0  0  0  0  0
  150.4832  140.9745  157.0786 C   0  0  2  0  0  0  0  0  0  0  0  0
  149.3586  141.3461  157.8521 O   0  0  0  0  0  0  0  0  0  0  0  0
  151.4250  142.1887  156.9652 C   0  0  0  0  0  0  0  0  0  0  0  0
  151.3908  143.0314  158.1475 N   0  0  0  0  0  0  0  0  0  0  0  0
  150.7767  144.2232  158.2746 C   0  0  0  0  0  0  0  0  0  0  0  0
  150.8730  144.8356  159.4513 N   0  0  0  0  0  0  0  0  0  0  0  0
  151.6388  143.9355  160.1723 C   0  0  0  0  0  0  0  0  0  0  0  0
  152.1060  143.9893  161.5037 C   0  0  0  0  0  0  0  0  0  0  0  0
  152.8892  142.9424  162.0401 C   0  0  0  0  0  0  0  0  0  0  0  0
  153.3734  143.0427  163.4757 C   0  0  0  0  0  0  0  0  0  0  0  0
  153.2147  141.8175  161.2406 C   0  0  0  0  0  0  0  0  0  0  0  0
  154.0556  140.6809  161.7948 C   0  0  0  0  0  0  0  0  0  0  0  0
  152.7553  141.7472  159.9088 C   0  0  0  0  0  0  0  0  0  0  0  0
  151.9778  142.7956  159.3862 C   0  0  0  0  0  0  0  0  0  0  0  0
  149.8854  138.0715  155.2097 C   0  0  0  0  0  0  0  0  0  0  0  0
  148.6769  137.9132  155.3832 O   0  0  0  0  0  0  0  0  0  0  0  0
  148.6092  133.4640  154.6272 H   0  0  0  0  0  0  0  0  0  0  0  0
  150.3669  133.3818  154.5502 H   0  0  0  0  0  0  0  0  0  0  0  0
  149.5055  134.6673  153.7050 H   0  0  0  0  0  0  0  0  0  0  0  0
  148.7222  135.5785  155.9166 H   0  0  0  0  0  0  0  0  0  0  0  0
  149.5946  134.3160  156.7512 H   0  0  0  0  0  0  0  0  0  0  0  0
  150.9952  136.2539  156.8689 H   0  0  0  0  0  0  0  0  0  0  0  0
  151.7513  135.1909  155.7106 H   0  0  0  0  0  0  0  0  0  0  0  0
  150.6005  136.5788  153.8373 H   0  0  0  0  0  0  0  0  0  0  0  0
  152.9693  137.3018  154.5759 H   0  0  0  0  0  0  0  0  0  0  0  0
  150.2843  141.2339  154.9368 H   0  0  0  0  0  0  0  0  0  0  0  0
  148.9054  140.4690  155.6580 H   0  0  0  0  0  0  0  0  0  0  0  0
  151.0097  140.1676  157.5906 H   0  0  0  0  0  0  0  0  0  0  0  0
  148.9308  140.5601  158.1565 H   0  0  0  0  0  0  0  0  0  0  0  0
  152.4526  141.8538  156.8176 H   0  0  0  0  0  0  0  0  0  0  0  0
  151.1683  142.7947  156.0951 H   0  0  0  0  0  0  0  0  0  0  0  0
  150.2291  144.6669  157.4559 H   0  0  0  0  0  0  0  0  0  0  0  0
  151.8578  144.8465  162.1121 H   0  0  0  0  0  0  0  0  0  0  0  0
  152.9767  142.2197  164.0707 H   0  0  0  0  0  0  0  0  0  0  0  0
  153.0530  143.9761  163.9398 H   0  0  0  0  0  0  0  0  0  0  0  0
  154.4623  143.0067  163.5156 H   0  0  0  0  0  0  0  0  0  0  0  0
  154.1941  139.8913  161.0557 H   0  0  0  0  0  0  0  0  0  0  0  0
  153.5748  140.2402  162.6686 H   0  0  0  0  0  0  0  0  0  0  0  0
  155.0415  141.0433  162.0868 H   0  0  0  0  0  0  0  0  0  0  0  0
  152.9985  140.8981  159.2871 H   0  0  0  0  0  0  0  0  0  0  0  0
  1  2  1  0  0  0  0
  1 26  1  0  0  0  0
  1 27  1  0  0  0  0
  1 28  1  0  0  0  0
  2  3  1  0  0  0  0
  2 29  1  0  0  0  0
  2 30  1  0  0  0  0
  3  4  1  0  0  0  0
  3 31  1  0  0  0  0
  3 32  1  0  0  0  0
  4 24  1  0  0  0  0
  4  5  1  0  0  0  0
  4 33  1  0  0  0  0
  5  6  1  0  0  0  0
  5 34  1  0  0  0  0
  6  7  2  0  0  0  0
  6  8  1  0  0  0  0
  8  9  1  0  0  0  0
  8 24  1  0  0  0  0
  9 10  1  0  0  0  0
  9 35  1  0  0  0  0
  9 36  1  0  0  0  0
 10 11  1  0  0  0  0
 10 12  1  0  0  0  0
 10 37  1  0  0  0  0
 11 38  1  0  0  0  0
 12 13  1  0  0  0  0
 12 39  1  0  0  0  0
 12 40  1  0  0  0  0
 13 23  1  0  0  0  0
 13 14  1  0  0  0  0
 14 15  2  0  0  0  0
 14 41  1  0  0  0  0
 15 16  1  0  0  0  0
 16 23  2  0  0  0  0
 16 17  1  0  0  0  0
 17 18  2  0  0  0  0
 17 42  1  0  0  0  0
 18 19  1  0  0  0  0
 18 20  1  0  0  0  0
 19 43  1  0  0  0  0
 19 44  1  0  0  0  0
 19 45  1  0  0  0  0
 20 21  1  0  0  0  0
 20 22  2  0  0  0  0
 21 46  1  0  0  0  0
 21 47  1  0  0  0  0
 21 48  1  0  0  0  0
 22 23  1  0  0  0  0
 22 49  1  0  0  0  0
 24 25  2  0  0  0  0
M  END
> <s_m_source_file>
AV-unprocessed.smi

> <i_m_source_file_index>
1644

> <i_lp_mmshare_version>
43012

> <i_f3d_flags>
0

> <s_epik_input>
W0NIM11bQ0gyXVtDSDJdW0NAQEhdMVtOSF1DKD1PKU4oQzE9TylbQ0gyXVtDQEhdKFtPSF0pW0NIMl1uKFtjSF1uMiljKGMyMylbY0hdYyhbQ0gzXSljKFtjSF0zKVtDSDNd

> <s_epik_cmdline>
J2VwaWtfcHl0aG9uJywgJy1waCcsICc3LjAnLCAnLXRuJywgJzgnLCAnLW1hJywgJzIwMCcsICctbWV0YWxfYmluZGluZycsICctaW1hZScsICc8aW5maWxlLm1hZT4nLCAnLW9tYWUnLCAnPG91dGZpbGUubWFlPic=

> <r_lp_tautomer_probability>
1

> <r_epik_Ionization_Penalty>
0.10693

> <r_epik_Ionization_Penalty_Charging>
0

> <r_epik_Ionization_Penalty_Neutral>
0.10693

> <r_epik_State_Penalty>
0.096713

> <r_epik_Charging_Adjusted_Penalty>
0.096713

> <i_epik_Tot_Q>
0

> <i_epik_Tot_abs_Q>
0

> <r_epik_Metal_State_Penalty>
0.102757

> <b_epik_Metal_Only>
0

> <s_lp_Force_Field>
OPLS_2005

> <r_lp_Energy>
24.4016

> <b_lp_Chiralities_Consistent>
1

> <s_lp_Variant>
AV-unprocessed.smi:1644-1

> <Gold.Version>
5.8.1

> <Gold.Id.Protein>
6NUR|6NUR_protein|mol2

> <Gold.PLP.Fitness>
58.5634

> <Gold.PLP.PLP>
-54.4764

> <Gold.PLP.part.hbond>
-2.0000

> <Gold.PLP.part.metal>
0.0000

> <Gold.PLP.part.buried>
-7.3571

> <Gold.PLP.part.nonpolar>
-45.8742

> <Gold.PLP.part.repulsive>
0.3718

> <Gold.PLP.ligand.clash>
0.0000

> <Gold.PLP.ligand.torsion>
1.3525

> <Gold.PLP.Chemscore.Hbond>
1.1902

> <Gold.PLP.Chemscore.CHOScore>
1.0372

> <Gold.PLP.Chemscore.Metal>
0.0000

> <Gold.Chemscore.Hbonds>
donor molecule, donor type, donor heavy atom, donor atom, acceptor molecule, acceptor atom, score
      P1  H  7989  7998       L1     7  0.10
      P1  H  7997  8010       L1     7  1.00
      L1  C    14    41       P1  8028  1.00

> <Gold.PLP.Chemscore.Internal.Correction>
0.1095

> <Gold.Rescore>
     Score         DG    S(hbond)    S(metal)    S(lipo)     H(rot)  DE(clash)    DE(int)     intcor
     15.14     -16.48       1.00        0.00     124.99       2.72       0.04       1.30       ----

> <Gold.Chemscore.Fitness>
15.1369

> <Gold.Chemscore.DG>
-16.4782

> <Gold.Chemscore.ZeroCoef>
-5.4800

> <Gold.Chemscore.Hbond>
1.0000

> <Gold.Chemscore.Metal>
0.0000

> <Gold.Chemscore.Lipo>
124.9949

> <Gold.Chemscore.Internal_Hbond>
0.0000

> <Gold.Chemscore.DEClash>
0.0363

> <Gold.Chemscore.DEInternal>
1.3050

> <Gold.Chemscore.Rot>
2.7212

> <Gold.Chemscore.Internal.Correction>
   9.000000E+99

> <Gold.Chemscore.Hbonds>
donor molecule, donor type, donor heavy atom, donor atom, acceptor molecule, acceptor atom, score
      P1  H  7997  8010       L1     7  1.00

> <Gold.Chemscore.Hbond.Weighted>
-3.3400

> <Gold.Chemscore.Metal.Weighted>
-0.0000

> <Gold.Chemscore.Lipo.Weighted>
-14.6244

> <Gold.Chemscore.Internal_Hbond.Weighted>
0.0000

> <Gold.Chemscore.DEClash.Weighted>
0.0363

> <Gold.Chemscore.DEInternal.Weighted>
1.3050

> <Gold.Chemscore.Rot.Weighted>
6.9663

> <Gold.Chemscore.Internal.Correction.Weighted>
   9.000000E+99

> <Gold.Protein.RotatedTorsions>
[ 6907 6896 6895 6894 ] final   82.72 input  -60.11 | X-H torsion
[ 7974 7965 7964 7962 ] final  144.89 input  175.53 | X-H torsion
[ 8008 7997 7996 7995 ] final   93.17 input   59.86 | X-H torsion
[ 10167 10162 10161 10158 ] final   87.13 input  -65.29 | X-H torsion
[ 10718 10713 10712 10709 ] final  -73.34 input   66.30 | X-H torsion
[ 10763 10752 10751 10750 ] final  -15.27 input  -60.55 | X-H torsion
[ 11005 11000 10999 10996 ] final  -80.06 input  -57.11 | X-H torsion

> <Gold.Protein.ActiveResidues>
 VAL166  LYS551  ARG553  GLY616  TRP617  ASP618  TYR619  PRO620  LYS621  CYS622 
 ASP623  PHE694  ASN695  SER759  ASP760  ASP761  ALA762  ILE779  LEU786  VAL792 
 PHE793  MET794  SER795  GLU796  ALA797  LYS798  CYS799  TRP800  GLU811  SER814 

> <Gold.Protein.RotatedAtoms>
  152.5307  134.3006  159.9076 H   0  0  0  0  0  0  0  0  0  0  0  0  # atno 6907 bound_to 6896
  151.2956  133.4139  159.2644 H   0  0  0  0  0  0  0  0  0  0  0  0  # atno 6908 bound_to 6896
  151.0163  134.9451  159.8092 H   0  0  0  0  0  0  0  0  0  0  0  0  # atno 6909 bound_to 6896
  144.8798  139.5717  143.5848 H   0  0  0  0  0  0  0  0  0  0  0  0  # atno 7974 bound_to 7965
  156.0437  140.3316  155.7273 H   0  0  0  0  0  0  0  0  0  0  0  0  # atno 8008 bound_to 7997
  155.5705  140.0627  157.2825 H   0  0  0  0  0  0  0  0  0  0  0  0  # atno 8009 bound_to 7997
  154.4404  140.1861  156.0863 H   0  0  0  0  0  0  0  0  0  0  0  0  # atno 8010 bound_to 7997
  139.8805  144.6442  150.8848 H   0  0  0  0  0  0  0  0  0  0  0  0  # atno 10167 bound_to 10162
  156.0284  130.4392  150.2728 H   0  0  0  0  0  0  0  0  0  0  0  0  # atno 10718 bound_to 10713
  153.5407  135.7013  153.5638 H   0  0  0  0  0  0  0  0  0  0  0  0  # atno 10763 bound_to 10752
  153.3605  135.3971  155.1714 H   0  0  0  0  0  0  0  0  0  0  0  0  # atno 10764 bound_to 10752
  154.8674  135.3787  154.4911 H   0  0  0  0  0  0  0  0  0  0  0  0  # atno 10765 bound_to 10752
  141.1668  133.7133  156.8216 H   0  0  0  0  0  0  0  0  0  0  0  0  # atno 11005 bound_to 11000
  146.2987  139.7357  142.9107 LP  0  0  0  0  0  0  0  0  0  0  0  0  # atno 17320 bound_to 7965
  145.3975  141.0381  143.3089 LP  0  0  0  0  0  0  0  0  0  0  0  0  # atno 17321 bound_to 7965
  140.7745  143.3590  151.1866 LP  0  0  0  0  0  0  0  0  0  0  0  0  # atno 17342 bound_to 10162
  139.7200  143.9238  152.2982 LP  0  0  0  0  0  0  0  0  0  0  0  0  # atno 17343 bound_to 10162
  157.0831  131.0149  151.3149 LP  0  0  0  0  0  0  0  0  0  0  0  0  # atno 17370 bound_to 10713
  157.4912  130.7823  149.7510 LP  0  0  0  0  0  0  0  0  0  0  0  0  # atno 17371 bound_to 10713
  140.2115  134.8824  157.3280 LP  0  0  0  0  0  0  0  0  0  0  0  0  # atno 17394 bound_to 11000
  140.2081  134.4172  155.7627 LP  0  0  0  0  0  0  0  0  0  0  0  0  # atno 17395 bound_to 11000

$$$$
