AV-unprocessed.smi:2699|AV-procd|sdf|10423|dock8
  -GOLD-   2272014463D 1   1.00000     0.00000
 Structure written by MMmdl.
 42 44  0  0  0  0  0  0  0  0  2 V2000
  149.6942  140.9217  155.0378 C   0  0  0  0  0  0  0  0  0  0  0  0
  149.7988  139.4073  155.1790 C   0  0  0  0  0  0  0  0  0  0  0  0
  148.7271  138.6217  154.9344 C   0  0  0  0  0  0  0  0  0  0  0  0
  148.7989  137.2379  155.0258 C   0  0  0  0  0  0  0  0  0  0  0  0
  147.8092  136.5061  154.8036 O   0  5  0  0  0  0  0  0  0  0  0  0
  150.0383  136.7169  155.3741 C   0  0  0  0  0  0  0  0  0  0  0  0
  151.2306  137.5114  155.6436 C   0  0  0  0  0  0  0  0  0  0  0  0
  152.3096  136.9935  155.9372 O   0  0  0  0  0  0  0  0  0  0  0  0
  151.0555  138.8598  155.5519 N   0  0  0  0  0  0  0  0  0  0  0  0
  152.1991  139.7480  155.8638 C   0  0  0  0  0  0  0  0  0  0  0  0
  152.3423  140.0732  157.3644 C   0  0  0  0  0  0  0  0  0  0  0  0
  153.1487  139.4630  158.0648 O   0  0  0  0  0  0  0  0  0  0  0  0
  151.5775  141.0435  157.8881 N   0  0  0  0  0  0  0  0  0  0  0  0
  151.5731  141.4887  159.2781 C   0  0  0  0  0  0  0  0  0  0  0  0
  152.7501  142.4347  159.5785 C   0  0  0  0  0  0  0  0  0  0  0  0
  152.7004  143.5718  158.5542 C   0  0  0  0  0  0  0  0  0  0  0  0
  152.3094  144.9790  158.9372 C   0  0  0  0  0  0  0  0  0  0  0  0
  151.4208  144.1684  158.0150 C   0  0  0  0  0  0  0  0  0  0  0  0
  152.8467  142.8919  161.0494 C   0  0  0  0  0  0  0  0  0  0  0  0
  153.7995  141.7311  161.3309 C   0  0  0  0  0  0  0  0  0  0  0  0
  154.1039  141.7251  159.8337 C   0  0  0  0  0  0  0  0  0  0  0  0
  148.7844  141.1965  154.5036 H   0  0  0  0  0  0  0  0  0  0  0  0
  150.5265  141.3391  154.4717 H   0  0  0  0  0  0  0  0  0  0  0  0
  149.6557  141.3957  156.0187 H   0  0  0  0  0  0  0  0  0  0  0  0
  147.7907  139.0842  154.6565 H   0  0  0  0  0  0  0  0  0  0  0  0
  150.1399  135.6441  155.4539 H   0  0  0  0  0  0  0  0  0  0  0  0
  153.1361  139.3362  155.4931 H   0  0  0  0  0  0  0  0  0  0  0  0
  152.1014  140.6854  155.3140 H   0  0  0  0  0  0  0  0  0  0  0  0
  150.9377  141.5147  157.2651 H   0  0  0  0  0  0  0  0  0  0  0  0
  150.6263  141.9843  159.4979 H   0  0  0  0  0  0  0  0  0  0  0  0
  151.6142  140.6093  159.9220 H   0  0  0  0  0  0  0  0  0  0  0  0
  153.4914  143.4928  157.8101 H   0  0  0  0  0  0  0  0  0  0  0  0
  151.9546  145.1524  159.9514 H   0  0  0  0  0  0  0  0  0  0  0  0
  152.8829  145.7933  158.4995 H   0  0  0  0  0  0  0  0  0  0  0  0
  151.4061  144.4490  156.9639 H   0  0  0  0  0  0  0  0  0  0  0  0
  150.4701  143.8172  158.4079 H   0  0  0  0  0  0  0  0  0  0  0  0
  153.3328  143.8623  161.1644 H   0  0  0  0  0  0  0  0  0  0  0  0
  151.9090  142.8539  161.6047 H   0  0  0  0  0  0  0  0  0  0  0  0
  154.6471  141.9803  161.9695 H   0  0  0  0  0  0  0  0  0  0  0  0
  153.2874  140.8284  161.6677 H   0  0  0  0  0  0  0  0  0  0  0  0
  154.1888  140.7281  159.4003 H   0  0  0  0  0  0  0  0  0  0  0  0
  154.9827  142.3240  159.5968 H   0  0  0  0  0  0  0  0  0  0  0  0
  1  2  1  0  0  0  0
  1 22  1  0  0  0  0
  1 23  1  0  0  0  0
  1 24  1  0  0  0  0
  2  9  1  0  0  0  0
  2  3  2  0  0  0  0
  3  4  1  0  0  0  0
  3 25  1  0  0  0  0
  4  5  1  0  0  0  0
  4  6  2  0  0  0  0
  6  7  1  0  0  0  0
  6 26  1  0  0  0  0
  7  8  2  0  0  0  0
  7  9  1  0  0  0  0
  9 10  1  0  0  0  0
 10 11  1  0  0  0  0
 10 27  1  0  0  0  0
 10 28  1  0  0  0  0
 11 12  2  0  0  0  0
 11 13  1  0  0  0  0
 13 14  1  0  0  0  0
 13 29  1  0  0  0  0
 14 15  1  0  0  0  0
 14 30  1  0  0  0  0
 14 31  1  0  0  0  0
 15 21  1  0  0  0  0
 15 16  1  0  0  0  0
 15 19  1  0  0  0  0
 16 18  1  0  0  0  0
 16 17  1  0  0  0  0
 16 32  1  0  0  0  0
 17 18  1  0  0  0  0
 17 33  1  0  0  0  0
 17 34  1  0  0  0  0
 18 35  1  0  0  0  0
 18 36  1  0  0  0  0
 19 20  1  0  0  0  0
 19 37  1  0  0  0  0
 19 38  1  0  0  0  0
 20 21  1  0  0  0  0
 20 39  1  0  0  0  0
 20 40  1  0  0  0  0
 21 41  1  0  0  0  0
 21 42  1  0  0  0  0
M  CHG  1   5  -1
M  END
> <s_m_source_file>
AV-unprocessed.smi

> <i_m_source_file_index>
2699

> <i_lp_mmshare_version>
43012

> <i_f3d_flags>
0

> <s_epik_input>
W0NIM11jMVtjSF1jKFtPSF0pW2NIXWMoPU8pbjFbQ0gyXUMoPU8pW05IXVtDSDJdQzIoW0NIXTNbQ0gyXVtDSDJdMylbQ0gyXVtDSDJdW0NIMl0y

> <s_epik_cmdline>
J2VwaWtfcHl0aG9uJywgJy1waCcsICc3LjAnLCAnLXRuJywgJzgnLCAnLW1hJywgJzIwMCcsICctbWV0YWxfYmluZGluZycsICctaW1hZScsICc8aW5maWxlLm1hZT4nLCAnLW9tYWUnLCAnPG91dGZpbGUubWFlPic=

> <r_lp_tautomer_probability>
1

> <r_epik_Ionization_Penalty>
0.201472

> <r_epik_Ionization_Penalty_Charging>
0.201472

> <r_epik_Ionization_Penalty_Neutral>
1.82775e-08

> <r_epik_State_Penalty>
0.183831

> <r_epik_Charging_Adjusted_Penalty>
0.385303

> <i_epik_Tot_Q>
-1

> <i_epik_Tot_abs_Q>
1

> <r_epik_Metal_State_Penalty>
0.183831

> <b_epik_Metal_Only>
0

> <s_lp_Force_Field>
OPLS_2005

> <r_lp_Energy>
45.0719

> <b_lp_Chiralities_Consistent>
1

> <s_lp_Variant>
AV-unprocessed.smi:2699-1

> <Gold.Version>
5.8.1

> <Gold.Id.Protein>
6NUR|6NUR_protein|mol2

> <Gold.PLP.Fitness>
47.5280

> <Gold.PLP.PLP>
-44.6729

> <Gold.PLP.part.hbond>
-2.0000

> <Gold.PLP.part.metal>
0.0000

> <Gold.PLP.part.buried>
-2.8583

> <Gold.PLP.part.nonpolar>
-40.5166

> <Gold.PLP.part.repulsive>
0.7839

> <Gold.PLP.ligand.clash>
0.0000

> <Gold.PLP.ligand.torsion>
2.2963

> <Gold.PLP.Chemscore.Hbond>
1.9120

> <Gold.PLP.Chemscore.CHOScore>
0.0000

> <Gold.PLP.Chemscore.Metal>
0.0000

> <Gold.Chemscore.Hbonds>
donor molecule, donor type, donor heavy atom, donor atom, acceptor molecule, acceptor atom, score
      P1  H  7997  8010       L1    12  0.45
      P1  H 10752 10763       L1     8  0.85

> <Gold.PLP.Chemscore.Internal.Correction>
1.7117

> <Gold.Rescore>
     Score         DG    S(hbond)    S(metal)    S(lipo)     H(rot)  DE(clash)    DE(int)     intcor
     15.96     -20.96       1.72        0.00     120.44       1.71       1.63       3.36       ----

> <Gold.Chemscore.Fitness>
15.9596

> <Gold.Chemscore.DG>
-20.9559

> <Gold.Chemscore.ZeroCoef>
-5.4800

> <Gold.Chemscore.Hbond>
1.7247

> <Gold.Chemscore.Metal>
0.0000

> <Gold.Chemscore.Lipo>
120.4388

> <Gold.Chemscore.Internal_Hbond>
0.0000

> <Gold.Chemscore.DEClash>
1.6323

> <Gold.Chemscore.DEInternal>
3.3639

> <Gold.Chemscore.Rot>
1.7094

> <Gold.Chemscore.Internal.Correction>
   9.000000E+99

> <Gold.Chemscore.Hbonds>
donor molecule, donor type, donor heavy atom, donor atom, acceptor molecule, acceptor atom, score
      P1  H  7997  8010       L1    12  0.02
      P1  H 10752 10763       L1     8  0.81

> <Gold.Chemscore.Hbond.Weighted>
-5.7605

> <Gold.Chemscore.Metal.Weighted>
-0.0000

> <Gold.Chemscore.Lipo.Weighted>
-14.0913

> <Gold.Chemscore.Internal_Hbond.Weighted>
0.0000

> <Gold.Chemscore.DEClash.Weighted>
1.6323

> <Gold.Chemscore.DEInternal.Weighted>
3.3639

> <Gold.Chemscore.Rot.Weighted>
4.3760

> <Gold.Chemscore.Internal.Correction.Weighted>
   9.000000E+99

> <Gold.Protein.RotatedTorsions>
[ 6907 6896 6895 6894 ] final   41.81 input  -60.11 | X-H torsion
[ 7974 7965 7964 7962 ] final -173.75 input  175.53 | X-H torsion
[ 8008 7997 7996 7995 ] final   41.81 input   59.86 | X-H torsion
[ 10167 10162 10161 10158 ] final   82.28 input  -65.29 | X-H torsion
[ 10718 10713 10712 10709 ] final   11.07 input   66.30 | X-H torsion
[ 10763 10752 10751 10750 ] final   71.51 input  -60.55 | X-H torsion
[ 11005 11000 10999 10996 ] final -103.20 input  -57.11 | X-H torsion

> <Gold.Protein.ActiveResidues>
 VAL166  LYS551  ARG553  GLY616  TRP617  ASP618  TYR619  PRO620  LYS621  CYS622 
 ASP623  PHE694  ASN695  SER759  ASP760  ASP761  ALA762  ILE779  LEU786  VAL792 
 PHE793  MET794  SER795  GLU796  ALA797  LYS798  CYS799  TRP800  GLU811  SER814 

> <Gold.Protein.RotatedAtoms>
  152.2000  134.8596  160.0508 H   0  0  0  0  0  0  0  0  0  0  0  0  # atno 6907 bound_to 6896
  151.9454  133.3645  159.3988 H   0  0  0  0  0  0  0  0  0  0  0  0  # atno 6908 bound_to 6896
  150.6952  134.4320  159.5297 H   0  0  0  0  0  0  0  0  0  0  0  0  # atno 6909 bound_to 6896
  144.7136  140.1574  143.6379 H   0  0  0  0  0  0  0  0  0  0  0  0  # atno 7974 bound_to 7965
  155.2757  140.3369  155.4262 H   0  0  0  0  0  0  0  0  0  0  0  0  # atno 8008 bound_to 7997
  156.2112  140.1771  156.7731 H   0  0  0  0  0  0  0  0  0  0  0  0  # atno 8009 bound_to 7997
  154.5689  140.0673  156.8919 H   0  0  0  0  0  0  0  0  0  0  0  0  # atno 8010 bound_to 7997
  139.9304  144.6155  150.8350 H   0  0  0  0  0  0  0  0  0  0  0  0  # atno 10167 bound_to 10162
  156.9901  130.6039  149.5685 H   0  0  0  0  0  0  0  0  0  0  0  0  # atno 10718 bound_to 10713
  153.0403  135.5134  154.7604 H   0  0  0  0  0  0  0  0  0  0  0  0  # atno 10763 bound_to 10752
  154.6547  135.2930  154.9945 H   0  0  0  0  0  0  0  0  0  0  0  0  # atno 10764 bound_to 10752
  154.0817  135.6663  153.4891 H   0  0  0  0  0  0  0  0  0  0  0  0  # atno 10765 bound_to 10752
  141.1156  133.8620  157.1455 H   0  0  0  0  0  0  0  0  0  0  0  0  # atno 11005 bound_to 11000
  145.9061  139.2459  143.1465 LP  0  0  0  0  0  0  0  0  0  0  0  0  # atno 17320 bound_to 7965
  145.9762  140.8720  143.0137 LP  0  0  0  0  0  0  0  0  0  0  0  0  # atno 17321 bound_to 7965
  140.7639  143.3234  151.2570 LP  0  0  0  0  0  0  0  0  0  0  0  0  # atno 17342 bound_to 10162
  139.6787  143.9893  152.2796 LP  0  0  0  0  0  0  0  0  0  0  0  0  # atno 17343 bound_to 10162
  156.0210  130.5305  150.8276 LP  0  0  0  0  0  0  0  0  0  0  0  0  # atno 17370 bound_to 10713
  157.5464  131.0942  150.9756 LP  0  0  0  0  0  0  0  0  0  0  0  0  # atno 17371 bound_to 10713
  140.0077  135.0001  157.0327 LP  0  0  0  0  0  0  0  0  0  0  0  0  # atno 17394 bound_to 11000
  140.4654  134.1441  155.7196 LP  0  0  0  0  0  0  0  0  0  0  0  0  # atno 17395 bound_to 11000

$$$$
