AV-unprocessed.smi:287|AV-procd|sdf|2190|dock9
  -GOLD-   2262021583D 1   1.00000     0.00000
 Structure written by MMmdl.
 55 58  0  0  0  0  0  0  0  0  1 V2000
  152.9009  141.3169  160.1065 C   0  0  0  0  0  0  0  0  0  0  0  0
  152.3494  140.9480  158.7721 C   0  0  0  0  0  0  0  0  0  0  0  0
  152.4012  139.8192  158.0076 C   0  0  0  0  0  0  0  0  0  0  0  0
  151.6620  140.0773  156.8147 C   0  0  0  0  0  0  0  0  0  0  0  0
  151.4448  139.0954  155.6709 C   0  0  2  0  0  0  0  0  0  0  0  0
  152.7891  138.7682  154.9994 C   0  0  0  0  0  0  0  0  0  0  0  0
  150.6331  139.6223  154.6392 O   0  0  0  0  0  0  0  0  0  0  0  0
  150.7526  137.7940  156.1383 C   0  0  0  0  0  0  0  0  0  0  0  0
  149.4873  138.0381  156.8236 N   0  0  0  0  0  0  0  0  0  0  0  0
  148.3328  138.0807  156.1260 C   0  0  0  0  0  0  0  0  0  0  0  0
  147.5906  139.2164  156.0718 N   0  0  0  0  0  0  0  0  0  0  0  0
  146.4536  139.2340  155.3721 C   0  0  0  0  0  0  0  0  0  0  0  0
  145.8914  138.2476  154.6711 N   0  0  0  0  0  0  0  0  0  0  0  0
  146.6290  137.0995  154.7191 C   0  0  0  0  0  0  0  0  0  0  0  0
  147.8570  136.9432  155.4240 C   0  0  0  0  0  0  0  0  0  0  0  0
  148.3389  135.6543  155.2546 N   0  0  0  0  0  0  0  0  0  0  0  0
  147.4483  135.0855  154.4894 C   0  0  0  0  0  0  0  0  0  0  0  0
  146.3758  135.8720  154.1265 N   0  0  0  0  0  0  0  0  0  0  0  0
  145.2426  135.4505  153.2293 C   0  0  2  0  0  0  0  0  0  0  0  0
  145.5486  134.2027  152.6936 O   0  0  0  0  0  0  0  0  0  0  0  0
  146.0955  134.3674  151.3959 C   0  0  1  0  0  0  0  0  0  0  0  0
  145.9603  133.0668  150.5842 C   0  0  0  0  0  0  0  0  0  0  0  0
  146.6314  131.9851  151.1973 O   0  0  0  0  0  0  0  0  0  0  0  0
  145.4144  135.6207  150.8196 C   0  0  2  0  0  0  0  0  0  0  0  0
  146.3343  136.3585  150.0405 O   0  0  0  0  0  0  0  0  0  0  0  0
  144.9862  136.4189  152.0573 C   0  0  1  0  0  0  0  0  0  0  0  0
  143.6152  136.7518  151.9685 O   0  0  0  0  0  0  0  0  0  0  0  0
  151.2206  141.3721  156.9496 C   0  0  0  0  0  0  0  0  0  0  0  0
  150.4083  142.2875  156.0939 C   0  0  0  0  0  0  0  0  0  0  0  0
  151.6318  141.9058  158.1337 O   0  0  0  0  0  0  0  0  0  0  0  0
  144.3937  135.3673  153.9097 H   0  0  0  0  0  0  0  0  0  0  0  0
  147.1595  134.5550  151.5396 H   0  0  0  0  0  0  0  0  0  0  0  0
  144.5503  135.3623  150.2069 H   0  0  0  0  0  0  0  0  0  0  0  0
  145.5464  137.3440  152.1929 H   0  0  0  0  0  0  0  0  0  0  0  0
  153.3696  140.4567  160.5851 H   0  0  0  0  0  0  0  0  0  0  0  0
  152.1116  141.6803  160.7645 H   0  0  0  0  0  0  0  0  0  0  0  0
  153.6516  142.1015  160.0108 H   0  0  0  0  0  0  0  0  0  0  0  0
  152.9085  138.9044  158.2758 H   0  0  0  0  0  0  0  0  0  0  0  0
  153.4834  138.3108  155.7051 H   0  0  0  0  0  0  0  0  0  0  0  0
  153.2660  139.6676  154.6074 H   0  0  0  0  0  0  0  0  0  0  0  0
  152.6629  138.0725  154.1690 H   0  0  0  0  0  0  0  0  0  0  0  0
  149.7276  139.5237  154.8908 H   0  0  0  0  0  0  0  0  0  0  0  0
  150.6099  137.1061  155.3032 H   0  0  0  0  0  0  0  0  0  0  0  0
  151.4073  137.2886  156.8500 H   0  0  0  0  0  0  0  0  0  0  0  0
  149.5360  138.1196  157.8295 H   0  0  0  0  0  0  0  0  0  0  0  0
  145.9171  140.1714  155.3747 H   0  0  0  0  0  0  0  0  0  0  0  0
  147.5519  134.0606  154.1636 H   0  0  0  0  0  0  0  0  0  0  0  0
  144.9074  132.7997  150.4922 H   0  0  0  0  0  0  0  0  0  0  0  0
  146.3433  133.2056  149.5731 H   0  0  0  0  0  0  0  0  0  0  0  0
  147.4332  131.8221  150.7240 H   0  0  0  0  0  0  0  0  0  0  0  0
  146.4155  135.9370  149.1980 H   0  0  0  0  0  0  0  0  0  0  0  0
  143.4879  137.2930  151.2041 H   0  0  0  0  0  0  0  0  0  0  0  0
  150.8704  142.4123  155.1146 H   0  0  0  0  0  0  0  0  0  0  0  0
  150.3156  143.2744  156.5479 H   0  0  0  0  0  0  0  0  0  0  0  0
  149.4039  141.8899  155.9484 H   0  0  0  0  0  0  0  0  0  0  0  0
  1  2  1  0  0  0  0
  1 35  1  0  0  0  0
  1 36  1  0  0  0  0
  1 37  1  0  0  0  0
  2 30  1  0  0  0  0
  2  3  2  0  0  0  0
  3  4  1  0  0  0  0
  3 38  1  0  0  0  0
  4  5  1  0  0  0  0
  4 28  2  0  0  0  0
  5  6  1  0  0  0  0
  5  7  1  0  0  0  0
  5  8  1  0  0  0  0
  6 39  1  0  0  0  0
  6 40  1  0  0  0  0
  6 41  1  0  0  0  0
  7 42  1  0  0  0  0
  8  9  1  0  0  0  0
  8 43  1  0  0  0  0
  8 44  1  0  0  0  0
  9 10  1  0  0  0  0
  9 45  1  0  0  0  0
 10 15  1  0  0  0  0
 10 11  2  0  0  0  0
 11 12  1  0  0  0  0
 12 13  2  0  0  0  0
 12 46  1  0  0  0  0
 13 14  1  0  0  0  0
 14 18  1  0  0  0  0
 14 15  2  0  0  0  0
 15 16  1  0  0  0  0
 16 17  2  0  0  0  0
 17 18  1  0  0  0  0
 17 47  1  0  0  0  0
 18 19  1  0  0  0  0
 19 31  1  0  0  0  0
 19 26  1  0  0  0  0
 19 20  1  0  0  0  0
 20 21  1  0  0  0  0
 21 32  1  0  0  0  0
 21 22  1  0  0  0  0
 21 24  1  0  0  0  0
 22 23  1  0  0  0  0
 22 48  1  0  0  0  0
 22 49  1  0  0  0  0
 23 50  1  0  0  0  0
 24 33  1  0  0  0  0
 24 25  1  0  0  0  0
 24 26  1  0  0  0  0
 25 51  1  0  0  0  0
 26 34  1  0  0  0  0
 26 27  1  0  0  0  0
 27 52  1  0  0  0  0
 28 29  1  0  0  0  0
 28 30  1  0  0  0  0
 29 53  1  0  0  0  0
 29 54  1  0  0  0  0
 29 55  1  0  0  0  0
M  END
> <s_m_source_file>
AV-unprocessed.smi

> <i_m_source_file_index>
287

> <i_lp_mmshare_version>
43012

> <i_f3d_flags>
0

> <s_epik_input>
W0NIM11jMVtjSF1jKGMobzEpW0NIM10pW0NAQF0oW0NIM10pKFtPSF0pW0NIMl1bTkhdYyhuW2NIXW4yKWMoYzIzKW5bY0hdbjNbQ0BASF00T1tDQEhdKFtDSDJdW09IXSlbQ0BASF0oW09IXSlbQ0BIXTRbT0hd

> <s_epik_cmdline>
J2VwaWtfcHl0aG9uJywgJy1waCcsICc3LjAnLCAnLXRuJywgJzgnLCAnLW1hJywgJzIwMCcsICctbWV0YWxfYmluZGluZycsICctaW1hZScsICc8aW5maWxlLm1hZT4nLCAnLW9tYWUnLCAnPG91dGZpbGUubWFlPic=

> <r_lp_tautomer_probability>
1

> <r_epik_Ionization_Penalty>
0.000992612

> <r_epik_Ionization_Penalty_Charging>
0

> <r_epik_Ionization_Penalty_Neutral>
0.000992612

> <r_epik_State_Penalty>
-0

> <r_epik_Charging_Adjusted_Penalty>
0

> <i_epik_Tot_Q>
0

> <i_epik_Tot_abs_Q>
0

> <r_epik_Metal_State_Penalty>
-0

> <b_epik_Metal_Only>
0

> <s_epik_Chemistry_Notes>
This compound contains an acetal/aminal-like group ( X-CH(R)-Y where X, Y are N, S, or O) that may be acid/base labile, releasing an aldehyde.

> <s_lp_Force_Field>
OPLS_2005

> <r_lp_Energy>
41.2787

> <b_lp_Chiralities_Consistent>
1

> <s_lp_Variant>
AV-unprocessed.smi:287-14

> <Gold.Version>
5.8.1

> <Gold.Id.Protein>
6NUR|6NUR_protein|mol2

> <Gold.PLP.Fitness>
44.1744

> <Gold.PLP.PLP>
-33.6070

> <Gold.PLP.part.hbond>
-6.0155

> <Gold.PLP.part.metal>
0.0000

> <Gold.PLP.part.buried>
-0.4450

> <Gold.PLP.part.nonpolar>
-27.6454

> <Gold.PLP.part.repulsive>
0.2641

> <Gold.PLP.ligand.clash>
0.0000

> <Gold.PLP.ligand.torsion>
1.0010

> <Gold.PLP.Chemscore.Hbond>
4.1459

> <Gold.PLP.Chemscore.CHOScore>
0.0000

> <Gold.PLP.Chemscore.Metal>
0.0000

> <Gold.Chemscore.Hbonds>
donor molecule, donor type, donor heavy atom, donor atom, acceptor molecule, acceptor atom, score
      L1  H    23    50       P1 10747  1.00
      L1  H    25    51       P1  7921  1.00
      L1  H    27    52       P1 10171  1.00
      P1  H  7954  7966       L1    25  0.10
      P1  H  7989  7998       L1     7  1.00

> <Gold.PLP.Chemscore.Internal.Correction>
0.1317

> <Gold.Rescore>
     Score         DG    S(hbond)    S(metal)    S(lipo)     H(rot)  DE(clash)    DE(int)     intcor
     11.74     -14.88       3.85        0.00      85.76       5.27       1.44       1.70       ----

> <Gold.Chemscore.Fitness>
11.7435

> <Gold.Chemscore.DG>
-14.8830

> <Gold.Chemscore.ZeroCoef>
-5.4800

> <Gold.Chemscore.Hbond>
3.8481

> <Gold.Chemscore.Metal>
0.0000

> <Gold.Chemscore.Lipo>
85.7644

> <Gold.Chemscore.Internal_Hbond>
0.0000

> <Gold.Chemscore.DEClash>
1.4377

> <Gold.Chemscore.DEInternal>
1.7018

> <Gold.Chemscore.Rot>
5.2672

> <Gold.Chemscore.Internal.Correction>
   9.000000E+99

> <Gold.Chemscore.Hbonds>
donor molecule, donor type, donor heavy atom, donor atom, acceptor molecule, acceptor atom, score
      L1  H    23    50       P1 10747  0.98
      L1  H    25    51       P1  7921  0.74
      L1  H    27    52       P1 10171  0.97
      P1  H  7954  7966       L1    25  0.02
      P1  H  7989  7998       L1     7  0.81

> <Gold.Chemscore.Hbond.Weighted>
-12.8525

> <Gold.Chemscore.Metal.Weighted>
-0.0000

> <Gold.Chemscore.Lipo.Weighted>
-10.0344

> <Gold.Chemscore.Internal_Hbond.Weighted>
0.0000

> <Gold.Chemscore.DEClash.Weighted>
1.4377

> <Gold.Chemscore.DEInternal.Weighted>
1.7018

> <Gold.Chemscore.Rot.Weighted>
13.4839

> <Gold.Chemscore.Internal.Correction.Weighted>
   9.000000E+99

> <Gold.Protein.RotatedTorsions>
[ 6907 6896 6895 6894 ] final -152.93 input  -60.11 | X-H torsion
[ 7974 7965 7964 7962 ] final  108.57 input  175.53 | X-H torsion
[ 8008 7997 7996 7995 ] final  155.76 input   59.86 | X-H torsion
[ 10167 10162 10161 10158 ] final  -46.02 input  -65.29 | X-H torsion
[ 10718 10713 10712 10709 ] final  106.44 input   66.30 | X-H torsion
[ 10763 10752 10751 10750 ] final  169.33 input  -60.55 | X-H torsion
[ 11005 11000 10999 10996 ] final    4.77 input  -57.11 | X-H torsion

> <Gold.Protein.ActiveResidues>
 VAL166  LYS551  ARG553  GLY616  TRP617  ASP618  TYR619  PRO620  LYS621  CYS622 
 ASP623  PHE694  ASN695  SER759  ASP760  ASP761  ALA762  ILE779  LEU786  VAL792 
 PHE793  MET794  SER795  GLU796  ALA797  LYS798  CYS799  TRP800  GLU811  SER814 

> <Gold.Protein.RotatedAtoms>
  151.2351  133.4429  159.2604 H   0  0  0  0  0  0  0  0  0  0  0  0  # atno 6907 bound_to 6896
  151.0758  134.9827  159.8341 H   0  0  0  0  0  0  0  0  0  0  0  0  # atno 6908 bound_to 6896
  152.5418  134.2294  159.8871 H   0  0  0  0  0  0  0  0  0  0  0  0  # atno 6909 bound_to 6896
  145.2790  139.2639  143.3926 H   0  0  0  0  0  0  0  0  0  0  0  0  # atno 7974 bound_to 7965
  156.2461  140.1931  156.6850 H   0  0  0  0  0  0  0  0  0  0  0  0  # atno 8008 bound_to 7997
  154.6293  140.0598  156.9739 H   0  0  0  0  0  0  0  0  0  0  0  0  # atno 8009 bound_to 7997
  155.1735  140.3270  155.4391 H   0  0  0  0  0  0  0  0  0  0  0  0  # atno 8010 bound_to 7997
  140.6834  143.2851  151.3723 H   0  0  0  0  0  0  0  0  0  0  0  0  # atno 10167 bound_to 10162
  157.6668  131.0851  150.6007 H   0  0  0  0  0  0  0  0  0  0  0  0  # atno 10718 bound_to 10713
  154.3816  135.2753  155.2208 H   0  0  0  0  0  0  0  0  0  0  0  0  # atno 10763 bound_to 10752
  154.4312  135.5977  153.6073 H   0  0  0  0  0  0  0  0  0  0  0  0  # atno 10764 bound_to 10752
  152.9834  135.5996  154.4060 H   0  0  0  0  0  0  0  0  0  0  0  0  # atno 10765 bound_to 10752
  140.5782  134.0038  155.8036 H   0  0  0  0  0  0  0  0  0  0  0  0  # atno 11005 bound_to 11000
  146.3222  140.3252  142.8636 LP  0  0  0  0  0  0  0  0  0  0  0  0  # atno 17320 bound_to 7965
  144.9270  140.7932  143.5713 LP  0  0  0  0  0  0  0  0  0  0  0  0  # atno 17321 bound_to 7965
  139.6174  144.0976  152.2358 LP  0  0  0  0  0  0  0  0  0  0  0  0  # atno 17342 bound_to 10162
  140.0409  144.6008  150.7412 LP  0  0  0  0  0  0  0  0  0  0  0  0  # atno 17343 bound_to 10162
  156.6308  130.4431  149.5787 LP  0  0  0  0  0  0  0  0  0  0  0  0  # atno 17370 bound_to 10713
  156.2283  130.6779  151.1438 LP  0  0  0  0  0  0  0  0  0  0  0  0  # atno 17371 bound_to 10713
  141.1013  133.9763  157.3073 LP  0  0  0  0  0  0  0  0  0  0  0  0  # atno 17394 bound_to 11000
  139.9330  135.0198  156.8462 LP  0  0  0  0  0  0  0  0  0  0  0  0  # atno 17395 bound_to 11000

$$$$
