AV-unprocessed.smi:845|AV-procd|sdf|3928|dock6
  -GOLD-   22720 1393D 1   1.00000     0.00000
 Structure written by MMmdl.
 43 44  0  0  0  0  0  0  0  0  2 V2000
  146.5496  139.7142  157.3375 C   0  0  0  0  0  0  0  0  0  0  0  0
  146.2019  139.8783  155.8450 C   0  0  0  0  0  0  0  0  0  0  0  0
  144.7165  139.5277  155.6363 C   0  0  0  0  0  0  0  0  0  0  0  0
  147.1395  139.0343  154.9316 C   0  0  1  0  0  0  0  0  0  0  0  0
  146.7465  139.0144  153.4270 C   0  0  0  0  0  0  0  0  0  0  0  0
  146.9232  137.7088  152.7915 N   0  0  0  0  0  0  0  0  0  0  0  0
  145.9360  136.8834  152.4154 C   0  0  0  0  0  0  0  0  0  0  0  0
  144.7422  137.1300  152.5874 O   0  0  0  0  0  0  0  0  0  0  0  0
  146.4248  135.7691  151.8436 N   0  0  0  0  0  0  0  0  0  0  0  0
  145.7048  134.6519  151.3441 C   0  0  0  0  0  0  0  0  0  0  0  0
  144.3714  134.5414  151.3690 N   0  0  0  0  0  0  0  0  0  0  0  0
  143.9347  133.3359  150.8138 C   0  0  0  0  0  0  0  0  0  0  0  0
  144.9566  132.5338  150.3699 C   0  0  0  0  0  0  0  0  0  0  0  0
  146.5174  133.2651  150.6331 S   0  0  0  0  0  0  0  0  0  0  0  0
  148.5799  139.3616  155.1658 N   0  3  0  0  0  0  0  0  0  0  0  0
  149.5345  138.5397  154.3824 C   0  0  0  0  0  0  0  0  0  0  0  0
  150.9704  138.7980  154.8700 C   0  0  0  0  0  0  0  0  0  0  0  0
  151.2696  140.1858  154.7726 O   0  0  0  0  0  0  0  0  0  0  0  0
  150.4038  140.9808  155.5749 C   0  0  0  0  0  0  0  0  0  0  0  0
  148.9532  140.7962  155.1013 C   0  0  0  0  0  0  0  0  0  0  0  0
  146.4741  138.6723  157.6503 H   0  0  0  0  0  0  0  0  0  0  0  0
  145.8723  140.2959  157.9636 H   0  0  0  0  0  0  0  0  0  0  0  0
  147.5593  140.0584  157.5619 H   0  0  0  0  0  0  0  0  0  0  0  0
  146.3216  140.9341  155.6015 H   0  0  0  0  0  0  0  0  0  0  0  0
  144.5268  138.4721  155.8339 H   0  0  0  0  0  0  0  0  0  0  0  0
  144.3838  139.7411  154.6209 H   0  0  0  0  0  0  0  0  0  0  0  0
  144.0792  140.1076  156.3044 H   0  0  0  0  0  0  0  0  0  0  0  0
  147.0227  138.0058  155.2774 H   0  0  0  0  0  0  0  0  0  0  0  0
  145.7386  139.4037  153.2835 H   0  0  0  0  0  0  0  0  0  0  0  0
  147.3924  139.7062  152.8860 H   0  0  0  0  0  0  0  0  0  0  0  0
  147.8734  137.4223  152.6058 H   0  0  0  0  0  0  0  0  0  0  0  0
  147.4287  135.7099  151.7566 H   0  0  0  0  0  0  0  0  0  0  0  0
  142.8753  133.1293  150.7746 H   0  0  0  0  0  0  0  0  0  0  0  0
  144.8858  131.5610  149.9062 H   0  0  0  0  0  0  0  0  0  0  0  0
  149.2996  137.4804  154.4913 H   0  0  0  0  0  0  0  0  0  0  0  0
  149.4578  138.7797  153.3216 H   0  0  0  0  0  0  0  0  0  0  0  0
  151.0988  138.4596  155.8995 H   0  0  0  0  0  0  0  0  0  0  0  0
  151.6807  138.2387  154.2607 H   0  0  0  0  0  0  0  0  0  0  0  0
  150.5089  140.7107  156.6267 H   0  0  0  0  0  0  0  0  0  0  0  0
  150.6986  142.0262  155.4832 H   0  0  0  0  0  0  0  0  0  0  0  0
  148.8702  141.1589  154.0777 H   0  0  0  0  0  0  0  0  0  0  0  0
  148.2853  141.3970  155.7178 H   0  0  0  0  0  0  0  0  0  0  0  0
  148.7408  139.0900  156.1252 H   0  0  0  0  0  0  0  0  0  0  0  0
  1  2  1  0  0  0  0
  1 21  1  0  0  0  0
  1 22  1  0  0  0  0
  1 23  1  0  0  0  0
  2  3  1  0  0  0  0
  2  4  1  0  0  0  0
  2 24  1  0  0  0  0
  3 25  1  0  0  0  0
  3 26  1  0  0  0  0
  3 27  1  0  0  0  0
  4  5  1  0  0  0  0
  4 15  1  0  0  0  0
  4 28  1  0  0  0  0
  5  6  1  0  0  0  0
  5 29  1  0  0  0  0
  5 30  1  0  0  0  0
  6  7  1  0  0  0  0
  6 31  1  0  0  0  0
  7  8  2  0  0  0  0
  7  9  1  0  0  0  0
  9 10  1  0  0  0  0
  9 32  1  0  0  0  0
 10 14  1  0  0  0  0
 10 11  2  0  0  0  0
 11 12  1  0  0  0  0
 12 13  2  0  0  0  0
 12 33  1  0  0  0  0
 13 14  1  0  0  0  0
 13 34  1  0  0  0  0
 15 20  1  0  0  0  0
 15 16  1  0  0  0  0
 15 43  1  0  0  0  0
 16 17  1  0  0  0  0
 16 35  1  0  0  0  0
 16 36  1  0  0  0  0
 17 18  1  0  0  0  0
 17 37  1  0  0  0  0
 17 38  1  0  0  0  0
 18 19  1  0  0  0  0
 19 20  1  0  0  0  0
 19 39  1  0  0  0  0
 19 40  1  0  0  0  0
 20 41  1  0  0  0  0
 20 42  1  0  0  0  0
M  CHG  1  15   1
M  END
> <s_m_source_file>
AV-unprocessed.smi

> <i_m_source_file_index>
845

> <i_lp_mmshare_version>
43012

> <i_f3d_flags>
0

> <s_epik_input>
W0NIMl0xW0NIMl1PW0NIMl1bQ0gyXU4xW0NASF0oW0NIXShbQ0gzXSlbQ0gzXSlbQ0gyXVtOSF1DKD1PKVtOSF1jMm5bY0hdW2NIXXMy

> <s_epik_cmdline>
J2VwaWtfcHl0aG9uJywgJy1waCcsICc3LjAnLCAnLXRuJywgJzgnLCAnLW1hJywgJzIwMCcsICctbWV0YWxfYmluZGluZycsICctaW1hZScsICc8aW5maWxlLm1hZT4nLCAnLW9tYWUnLCAnPG91dGZpbGUubWFlPic=

> <r_lp_tautomer_probability>
0.999

> <r_epik_Ionization_Penalty>
0.398341

> <r_epik_Ionization_Penalty_Charging>
0.398119

> <r_epik_Ionization_Penalty_Neutral>
0.000222117

> <r_epik_State_Penalty>
0.397286

> <r_epik_Charging_Adjusted_Penalty>
0.795404

> <i_epik_Tot_Q>
1

> <i_epik_Tot_abs_Q>
1

> <r_epik_Metal_State_Penalty>
0.407542

> <b_epik_Metal_Only>
0

> <s_lp_Force_Field>
OPLS_2005

> <r_lp_Energy>
31.69

> <b_lp_Chiralities_Consistent>
1

> <s_lp_Variant>
AV-unprocessed.smi:845-2

> <Gold.Version>
5.8.1

> <Gold.Id.Protein>
6NUR|6NUR_protein|mol2

> <Gold.PLP.Fitness>
39.1516

> <Gold.PLP.PLP>
-28.3469

> <Gold.PLP.part.hbond>
-2.9070

> <Gold.PLP.part.metal>
0.0000

> <Gold.PLP.part.buried>
-5.3717

> <Gold.PLP.part.nonpolar>
-20.9544

> <Gold.PLP.part.repulsive>
0.5483

> <Gold.PLP.ligand.clash>
0.0000

> <Gold.PLP.ligand.torsion>
0.6881

> <Gold.PLP.Chemscore.Hbond>
2.9673

> <Gold.PLP.Chemscore.CHOScore>
1.0000

> <Gold.PLP.Chemscore.Metal>
0.0000

> <Gold.Chemscore.Hbonds>
donor molecule, donor type, donor heavy atom, donor atom, acceptor molecule, acceptor atom, score
      L1  H     6    31       P1  7948  0.94
      L1  H     9    32       P1  7948  1.00
      P1  H  7989  7998       L1    18  0.89
      L1  C    12    33       P1 10186  0.88

> <Gold.PLP.Chemscore.Internal.Correction>
0.2790

> <Gold.Rescore>
     Score         DG    S(hbond)    S(metal)    S(lipo)     H(rot)  DE(clash)    DE(int)     intcor
     15.70     -17.78       2.94        0.00      60.69       1.80       0.04       2.04       ----

> <Gold.Chemscore.Fitness>
15.7036

> <Gold.Chemscore.DG>
-17.7817

> <Gold.Chemscore.ZeroCoef>
-5.4800

> <Gold.Chemscore.Hbond>
2.9402

> <Gold.Chemscore.Metal>
0.0000

> <Gold.Chemscore.Lipo>
60.6927

> <Gold.Chemscore.Internal_Hbond>
0.0000

> <Gold.Chemscore.DEClash>
0.0360

> <Gold.Chemscore.DEInternal>
2.0421

> <Gold.Chemscore.Rot>
1.8046

> <Gold.Chemscore.Internal.Correction>
   9.000000E+99

> <Gold.Chemscore.Hbonds>
donor molecule, donor type, donor heavy atom, donor atom, acceptor molecule, acceptor atom, score
      L1  H     6    31       P1  7948  0.92
      L1  H     9    32       P1  7948  0.96
      P1  H  7989  7998       L1    18  0.71

> <Gold.Chemscore.Hbond.Weighted>
-9.8204

> <Gold.Chemscore.Metal.Weighted>
-0.0000

> <Gold.Chemscore.Lipo.Weighted>
-7.1010

> <Gold.Chemscore.Internal_Hbond.Weighted>
0.0000

> <Gold.Chemscore.DEClash.Weighted>
0.0360

> <Gold.Chemscore.DEInternal.Weighted>
2.0421

> <Gold.Chemscore.Rot.Weighted>
4.6197

> <Gold.Chemscore.Internal.Correction.Weighted>
   9.000000E+99

> <Gold.Protein.RotatedTorsions>
[ 6907 6896 6895 6894 ] final  -54.04 input  -60.11 | X-H torsion
[ 7974 7965 7964 7962 ] final -101.32 input  175.53 | X-H torsion
[ 8008 7997 7996 7995 ] final   88.98 input   59.86 | X-H torsion
[ 10167 10162 10161 10158 ] final  -92.39 input  -65.29 | X-H torsion
[ 10718 10713 10712 10709 ] final   88.17 input   66.30 | X-H torsion
[ 10763 10752 10751 10750 ] final   46.99 input  -60.55 | X-H torsion
[ 11005 11000 10999 10996 ] final   43.29 input  -57.11 | X-H torsion

> <Gold.Protein.ActiveResidues>
 VAL166  LYS551  ARG553  GLY616  TRP617  ASP618  TYR619  PRO620  LYS621  CYS622 
 ASP623  PHE694  ASN695  SER759  ASP760  ASP761  ALA762  ILE779  LEU786  VAL792 
 PHE793  MET794  SER795  GLU796  ALA797  LYS798  CYS799  TRP800  GLU811  SER814 

> <Gold.Protein.RotatedAtoms>
  150.8373  134.7651  159.6903 H   0  0  0  0  0  0  0  0  0  0  0  0  # atno 6907 bound_to 6896
  152.4467  134.5476  159.9867 H   0  0  0  0  0  0  0  0  0  0  0  0  # atno 6908 bound_to 6896
  151.5623  133.3363  159.3009 H   0  0  0  0  0  0  0  0  0  0  0  0  # atno 6909 bound_to 6896
  145.2831  140.9332  143.2920 H   0  0  0  0  0  0  0  0  0  0  0  0  # atno 7974 bound_to 7965
  155.9944  140.3365  155.6784 H   0  0  0  0  0  0  0  0  0  0  0  0  # atno 8008 bound_to 7997
  155.6376  140.0692  157.2647 H   0  0  0  0  0  0  0  0  0  0  0  0  # atno 8009 bound_to 7997
  154.4229  140.1748  156.1526 H   0  0  0  0  0  0  0  0  0  0  0  0  # atno 8010 bound_to 7997
  140.3353  143.2972  151.9896 H   0  0  0  0  0  0  0  0  0  0  0  0  # atno 10167 bound_to 10162
  157.6947  131.0284  150.3234 H   0  0  0  0  0  0  0  0  0  0  0  0  # atno 10718 bound_to 10713
  152.9804  135.5990  154.3690 H   0  0  0  0  0  0  0  0  0  0  0  0  # atno 10763 bound_to 10752
  154.3365  135.2768  155.2447 H   0  0  0  0  0  0  0  0  0  0  0  0  # atno 10764 bound_to 10752
  154.4547  135.5981  153.6270 H   0  0  0  0  0  0  0  0  0  0  0  0  # atno 10765 bound_to 10752
  140.1659  134.4283  155.8288 H   0  0  0  0  0  0  0  0  0  0  0  0  # atno 11005 bound_to 11000
  144.9236  139.4382  143.6529 LP  0  0  0  0  0  0  0  0  0  0  0  0  # atno 17320 bound_to 7965
  146.3210  139.8109  142.8946 LP  0  0  0  0  0  0  0  0  0  0  0  0  # atno 17321 bound_to 7965
  139.4849  144.6202  151.7270 LP  0  0  0  0  0  0  0  0  0  0  0  0  # atno 17342 bound_to 10162
  140.5360  144.0656  150.6070 LP  0  0  0  0  0  0  0  0  0  0  0  0  # atno 17343 bound_to 10162
  156.3718  130.3865  149.7170 LP  0  0  0  0  0  0  0  0  0  0  0  0  # atno 17370 bound_to 10713
  156.4581  130.7939  151.2959 LP  0  0  0  0  0  0  0  0  0  0  0  0  # atno 17371 bound_to 10713
  141.2213  133.6934  156.7677 LP  0  0  0  0  0  0  0  0  0  0  0  0  # atno 17394 bound_to 11000
  140.2435  134.8595  157.3597 LP  0  0  0  0  0  0  0  0  0  0  0  0  # atno 17395 bound_to 11000

$$$$
