AV-unprocessed.smi:1082|AV-procd|sdf|4714|dock10
  -GOLD-   22720 3243D 1   1.00000     0.00000
 Structure written by MMmdl.
 48 50  0  0  0  0  0  0  0  0  4 V2000
  150.2485  138.0352  158.9901 O   0  0  0  0  0  0  0  0  0  0  0  0
  149.5764  137.9408  157.9568 C   0  0  0  0  0  0  0  0  0  0  0  0
  148.9048  136.8525  157.4958 N   0  5  0  0  0  0  0  0  0  0  0  0
  148.5842  136.6034  156.0884 C   0  0  0  0  0  0  0  0  0  0  0  0
  149.3540  135.3645  155.5870 C   0  0  0  0  0  0  0  0  0  0  0  0
  148.8090  134.8193  154.3144 N   0  3  0  0  0  0  0  0  0  0  0  0
  149.4151  133.5357  153.8868 C   0  0  0  0  0  0  0  0  0  0  0  0
  148.2859  132.6794  153.2965 C   0  0  0  0  0  0  0  0  0  0  0  0
  147.1128  133.6400  153.1304 C   0  0  0  0  0  0  0  0  0  0  0  0
  147.3386  134.6517  154.2480 C   0  0  0  0  0  0  0  0  0  0  0  0
  149.4591  138.9945  157.1309 N   0  0  0  0  0  0  0  0  0  0  0  0
  150.0934  140.2626  157.2362 C   0  0  0  0  0  0  0  0  0  0  0  0
  151.2610  140.4237  158.0236 C   0  0  0  0  0  0  0  0  0  0  0  0
  151.8331  141.7005  158.1772 C   0  0  0  0  0  0  0  0  0  0  0  0
  151.2175  142.8000  157.5546 C   0  0  0  0  0  0  0  0  0  0  0  0
  150.0984  142.6154  156.8239 N   0  3  0  0  0  0  0  0  0  0  0  0
  149.5085  141.4096  156.6265 C   0  0  0  0  0  0  0  0  0  0  0  0
  148.3441  141.3667  155.8260 N   0  0  0  0  0  0  0  0  0  0  0  0
  148.4567  141.5988  154.3889 C   0  0  0  0  0  0  0  0  0  0  0  0
  147.1835  142.3425  153.9712 C   0  0  0  0  0  0  0  0  0  0  0  0
  146.1909  142.0148  155.0829 C   0  0  0  0  0  0  0  0  0  0  0  0
  147.0911  141.9316  156.3127 C   0  0  0  0  0  0  0  0  0  0  0  0
  147.5165  136.4326  155.9513 H   0  0  0  0  0  0  0  0  0  0  0  0
  148.8325  137.4488  155.4453 H   0  0  0  0  0  0  0  0  0  0  0  0
  150.3943  135.6550  155.4311 H   0  0  0  0  0  0  0  0  0  0  0  0
  149.3684  134.5857  156.3503 H   0  0  0  0  0  0  0  0  0  0  0  0
  150.1889  133.7412  153.1466 H   0  0  0  0  0  0  0  0  0  0  0  0
  149.8845  133.0112  154.7205 H   0  0  0  0  0  0  0  0  0  0  0  0
  148.5685  132.1997  152.3589 H   0  0  0  0  0  0  0  0  0  0  0  0
  148.0169  131.8927  154.0025 H   0  0  0  0  0  0  0  0  0  0  0  0
  147.1741  134.1379  152.1617 H   0  0  0  0  0  0  0  0  0  0  0  0
  146.1438  133.1442  153.1954 H   0  0  0  0  0  0  0  0  0  0  0  0
  146.9671  134.2463  155.1905 H   0  0  0  0  0  0  0  0  0  0  0  0
  146.8271  135.5964  154.0595 H   0  0  0  0  0  0  0  0  0  0  0  0
  148.9813  138.8127  156.2604 H   0  0  0  0  0  0  0  0  0  0  0  0
  151.7130  139.5830  158.5288 H   0  0  0  0  0  0  0  0  0  0  0  0
  152.7234  141.8339  158.7740 H   0  0  0  0  0  0  0  0  0  0  0  0
  151.5800  143.8156  157.6217 H   0  0  0  0  0  0  0  0  0  0  0  0
  149.3509  142.1688  154.1321 H   0  0  0  0  0  0  0  0  0  0  0  0
  148.5100  140.6358  153.8800 H   0  0  0  0  0  0  0  0  0  0  0  0
  147.3744  143.4166  153.9569 H   0  0  0  0  0  0  0  0  0  0  0  0
  146.8284  142.0516  152.9822 H   0  0  0  0  0  0  0  0  0  0  0  0
  145.3993  142.7579  155.1838 H   0  0  0  0  0  0  0  0  0  0  0  0
  145.7267  141.0459  154.8928 H   0  0  0  0  0  0  0  0  0  0  0  0
  146.6514  141.3126  157.0955 H   0  0  0  0  0  0  0  0  0  0  0  0
  147.2560  142.9321  156.7149 H   0  0  0  0  0  0  0  0  0  0  0  0
  149.0538  135.4887  153.5978 H   0  0  0  0  0  0  0  0  0  0  0  0
  149.6742  143.4329  156.3856 H   0  0  0  0  0  0  0  0  0  0  0  0
  1  2  2  0  0  0  0
  2  3  1  0  0  0  0
  2 11  1  0  0  0  0
  3  4  1  0  0  0  0
  4  5  1  0  0  0  0
  4 23  1  0  0  0  0
  4 24  1  0  0  0  0
  5  6  1  0  0  0  0
  5 25  1  0  0  0  0
  5 26  1  0  0  0  0
  6 10  1  0  0  0  0
  6  7  1  0  0  0  0
  6 47  1  0  0  0  0
  7  8  1  0  0  0  0
  7 27  1  0  0  0  0
  7 28  1  0  0  0  0
  8  9  1  0  0  0  0
  8 29  1  0  0  0  0
  8 30  1  0  0  0  0
  9 10  1  0  0  0  0
  9 31  1  0  0  0  0
  9 32  1  0  0  0  0
 10 33  1  0  0  0  0
 10 34  1  0  0  0  0
 11 12  1  0  0  0  0
 11 35  1  0  0  0  0
 12 17  1  0  0  0  0
 12 13  2  0  0  0  0
 13 14  1  0  0  0  0
 13 36  1  0  0  0  0
 14 15  2  0  0  0  0
 14 37  1  0  0  0  0
 15 16  1  0  0  0  0
 15 38  1  0  0  0  0
 16 17  2  0  0  0  0
 16 48  1  0  0  0  0
 17 18  1  0  0  0  0
 18 22  1  0  0  0  0
 18 19  1  0  0  0  0
 19 20  1  0  0  0  0
 19 39  1  0  0  0  0
 19 40  1  0  0  0  0
 20 21  1  0  0  0  0
 20 41  1  0  0  0  0
 20 42  1  0  0  0  0
 21 22  1  0  0  0  0
 21 43  1  0  0  0  0
 21 44  1  0  0  0  0
 22 45  1  0  0  0  0
 22 46  1  0  0  0  0
M  CHG  1   3  -1
M  CHG  1   6   1
M  CHG  1  16   1
M  END
> <s_m_source_file>
AV-unprocessed.smi

> <i_m_source_file_index>
1082

> <i_lp_mmshare_version>
43012

> <i_f3d_flags>
0

> <s_epik_input>
W0NIMl0xW0NIMl1bQ0gyXVtDSDJdTjFbQ0gyXVtDSDJdW05IXUMoPU8pW05IXWMyW2NIXVtjSF1bY0hdbmMyTjNbQ0gyXVtDSDJdW0NIMl1bQ0gyXTM=

> <s_epik_cmdline>
J2VwaWtfcHl0aG9uJywgJy1waCcsICc3LjAnLCAnLXRuJywgJzgnLCAnLW1hJywgJzIwMCcsICctbWV0YWxfYmluZGluZycsICctaW1hZScsICc8aW5maWxlLm1hZT4nLCAnLW9tYWUnLCAnPG91dGZpbGUubWFlPic=

> <r_lp_tautomer_probability>
0.999994

> <r_epik_Ionization_Penalty>
8.55934

> <r_epik_Ionization_Penalty_Charging>
8.55934

> <r_epik_Ionization_Penalty_Neutral>
3.77642e-06

> <r_epik_State_Penalty>
8.06887

> <r_epik_Charging_Adjusted_Penalty>
16.6282

> <i_epik_Tot_Q>
1

> <i_epik_Tot_abs_Q>
3

> <r_epik_Metal_State_Penalty>
4.05607

> <b_epik_Metal_Only>
1

> <s_lp_Force_Field>
OPLS_2005

> <r_lp_Energy>
53.4939

> <b_lp_Chiralities_Consistent>
1

> <s_lp_Variant>
AV-unprocessed.smi:1082-3

> <Gold.Version>
5.8.1

> <Gold.Id.Protein>
6NUR|6NUR_protein|mol2

> <Gold.PLP.Fitness>
44.1370

> <Gold.PLP.PLP>
-32.6845

> <Gold.PLP.part.hbond>
-2.2790

> <Gold.PLP.part.metal>
0.0000

> <Gold.PLP.part.buried>
-6.6314

> <Gold.PLP.part.nonpolar>
-24.4209

> <Gold.PLP.part.repulsive>
0.1595

> <Gold.PLP.ligand.clash>
0.0000

> <Gold.PLP.ligand.torsion>
0.5767

> <Gold.PLP.Chemscore.Hbond>
4.0000

> <Gold.PLP.Chemscore.CHOScore>
0.0000

> <Gold.PLP.Chemscore.Metal>
0.0000

> <Gold.Chemscore.Hbonds>
donor molecule, donor type, donor heavy atom, donor atom, acceptor molecule, acceptor atom, score
      L1  H     6    47       P1  7948  2.00
      L1  H    16    48       P1  8028  2.00

> <Gold.PLP.Chemscore.Internal.Correction>
0.6058

> <Gold.Rescore>
     Score         DG    S(hbond)    S(metal)    S(lipo)     H(rot)  DE(clash)    DE(int)     intcor
     14.23     -16.24       1.94        0.00      71.60       1.60       0.03       1.99       ----

> <Gold.Chemscore.Fitness>
14.2286

> <Gold.Chemscore.DG>
-16.2445

> <Gold.Chemscore.ZeroCoef>
-5.4800

> <Gold.Chemscore.Hbond>
1.9409

> <Gold.Chemscore.Metal>
0.0000

> <Gold.Chemscore.Lipo>
71.6042

> <Gold.Chemscore.Internal_Hbond>
0.0000

> <Gold.Chemscore.DEClash>
0.0293

> <Gold.Chemscore.DEInternal>
1.9867

> <Gold.Chemscore.Rot>
1.5998

> <Gold.Chemscore.Internal.Correction>
   9.000000E+99

> <Gold.Chemscore.Hbonds>
donor molecule, donor type, donor heavy atom, donor atom, acceptor molecule, acceptor atom, score
      L1  H     6    47       P1  7948  0.68
      L1  H    16    48       P1  8028  1.00

> <Gold.Chemscore.Hbond.Weighted>
-6.4825

> <Gold.Chemscore.Metal.Weighted>
-0.0000

> <Gold.Chemscore.Lipo.Weighted>
-8.3777

> <Gold.Chemscore.Internal_Hbond.Weighted>
0.0000

> <Gold.Chemscore.DEClash.Weighted>
0.0293

> <Gold.Chemscore.DEInternal.Weighted>
1.9867

> <Gold.Chemscore.Rot.Weighted>
4.0956

> <Gold.Chemscore.Internal.Correction.Weighted>
   9.000000E+99

> <Gold.Protein.RotatedTorsions>
[ 6907 6896 6895 6894 ] final   79.95 input  -60.11 | X-H torsion
[ 7974 7965 7964 7962 ] final  -79.15 input  175.53 | X-H torsion
[ 8008 7997 7996 7995 ] final  -64.74 input   59.86 | X-H torsion
[ 10167 10162 10161 10158 ] final   38.44 input  -65.29 | X-H torsion
[ 10718 10713 10712 10709 ] final   18.23 input   66.30 | X-H torsion
[ 10763 10752 10751 10750 ] final -163.09 input  -60.55 | X-H torsion
[ 11005 11000 10999 10996 ] final  134.24 input  -57.11 | X-H torsion

> <Gold.Protein.ActiveResidues>
 VAL166  LYS551  ARG553  GLY616  TRP617  ASP618  TYR619  PRO620  LYS621  CYS622 
 ASP623  PHE694  ASN695  SER759  ASP760  ASP761  ALA762  ILE779  LEU786  VAL792 
 PHE793  MET794  SER795  GLU796  ALA797  LYS798  CYS799  TRP800  GLU811  SER814 

> <Gold.Protein.RotatedAtoms>
  152.5217  134.3432  159.9224 H   0  0  0  0  0  0  0  0  0  0  0  0  # atno 6907 bound_to 6896
  151.3382  133.3966  159.2676 H   0  0  0  0  0  0  0  0  0  0  0  0  # atno 6908 bound_to 6896
  150.9825  134.9195  159.7910 H   0  0  0  0  0  0  0  0  0  0  0  0  # atno 6909 bound_to 6896
  145.5770  140.9455  143.1364 H   0  0  0  0  0  0  0  0  0  0  0  0  # atno 7974 bound_to 7965
  154.4629  140.0947  156.6943 H   0  0  0  0  0  0  0  0  0  0  0  0  # atno 8008 bound_to 7997
  155.4941  140.3471  155.4341 H   0  0  0  0  0  0  0  0  0  0  0  0  # atno 8009 bound_to 7997
  156.0904  140.1396  156.9588 H   0  0  0  0  0  0  0  0  0  0  0  0  # atno 8010 bound_to 7997
  140.3936  144.1818  150.6131 H   0  0  0  0  0  0  0  0  0  0  0  0  # atno 10167 bound_to 10162
  157.0933  130.6437  149.5854 H   0  0  0  0  0  0  0  0  0  0  0  0  # atno 10718 bound_to 10713
  154.7154  135.3014  154.9131 H   0  0  0  0  0  0  0  0  0  0  0  0  # atno 10763 bound_to 10752
  154.0020  135.6705  153.4764 H   0  0  0  0  0  0  0  0  0  0  0  0  # atno 10764 bound_to 10752
  153.0789  135.5019  154.8377 H   0  0  0  0  0  0  0  0  0  0  0  0  # atno 10765 bound_to 10752
  139.9902  134.9518  156.9838 H   0  0  0  0  0  0  0  0  0  0  0  0  # atno 11005 bound_to 11000
  144.7411  139.7446  143.7310 LP  0  0  0  0  0  0  0  0  0  0  0  0  # atno 17320 bound_to 7965
  146.1743  139.4907  142.9907 LP  0  0  0  0  0  0  0  0  0  0  0  0  # atno 17321 bound_to 7965
  140.4813  143.2378  151.8951 LP  0  0  0  0  0  0  0  0  0  0  0  0  # atno 17342 bound_to 10162
  139.4788  144.5266  151.8727 LP  0  0  0  0  0  0  0  0  0  0  0  0  # atno 17343 bound_to 10162
  155.9892  130.4939  150.7204 LP  0  0  0  0  0  0  0  0  0  0  0  0  # atno 17370 bound_to 10713
  157.4702  131.0892  151.0650 LP  0  0  0  0  0  0  0  0  0  0  0  0  # atno 17371 bound_to 10713
  140.4923  134.1180  155.7235 LP  0  0  0  0  0  0  0  0  0  0  0  0  # atno 17394 bound_to 11000
  141.1559  133.8883  157.1978 LP  0  0  0  0  0  0  0  0  0  0  0  0  # atno 17395 bound_to 11000

$$$$
