AV-unprocessed.smi:3098|AV-procd|sdf|11800|dock3
  -GOLD-   2272017173D 1   1.00000     0.00000
 Structure written by MMmdl.
 30 31  0  0  0  0  0  0  0  0  2 V2000
  143.1936  133.9384  148.1302 N   0  3  0  0  0  0  0  0  0  0  0  0
  143.6753  132.6325  148.6101 C   0  0  0  0  0  0  0  0  0  0  0  0
  144.5850  132.7968  149.8110 C   0  0  0  0  0  0  0  0  0  0  0  0
  145.1708  131.6752  150.4347 C   0  0  0  0  0  0  0  0  0  0  0  0
  145.9828  131.7638  151.5090 N   0  0  0  0  0  0  0  0  0  0  0  0
  146.2536  132.9925  152.0131 C   0  0  0  0  0  0  0  0  0  0  0  0
  147.0955  133.0809  153.1313 N   0  0  0  0  0  0  0  0  0  0  0  0
  146.5798  132.3868  154.3048 C   0  0  0  0  0  0  0  0  0  0  0  0
  147.4947  132.6472  155.5140 C   0  0  0  0  0  0  0  0  0  0  0  0
  148.8282  132.2588  155.1958 O   0  0  0  0  0  0  0  0  0  0  0  0
  149.3519  132.9949  154.0938 C   0  0  0  0  0  0  0  0  0  0  0  0
  148.4851  132.7435  152.8477 C   0  0  0  0  0  0  0  0  0  0  0  0
  145.7180  134.1745  151.4558 C   0  0  0  0  0  0  0  0  0  0  0  0
  146.0082  135.3875  151.9846 F   0  0  0  0  0  0  0  0  0  0  0  0
  144.8711  134.0738  150.3354 C   0  0  0  0  0  0  0  0  0  0  0  0
  142.6603  133.8105  147.2818 H   0  0  0  0  0  0  0  0  0  0  0  0
  143.9820  134.5416  147.9435 H   0  0  0  0  0  0  0  0  0  0  0  0
  142.8213  132.0078  148.8736 H   0  0  0  0  0  0  0  0  0  0  0  0
  144.2085  132.1263  147.8046 H   0  0  0  0  0  0  0  0  0  0  0  0
  144.9784  130.6785  150.0657 H   0  0  0  0  0  0  0  0  0  0  0  0
  145.5664  132.7272  154.5212 H   0  0  0  0  0  0  0  0  0  0  0  0
  146.5257  131.3154  154.1061 H   0  0  0  0  0  0  0  0  0  0  0  0
  147.4701  133.6995  155.8021 H   0  0  0  0  0  0  0  0  0  0  0  0
  147.1532  132.0725  156.3751 H   0  0  0  0  0  0  0  0  0  0  0  0
  149.3863  134.0582  154.3365 H   0  0  0  0  0  0  0  0  0  0  0  0
  150.3775  132.6762  153.9088 H   0  0  0  0  0  0  0  0  0  0  0  0
  148.5588  131.6959  152.5520 H   0  0  0  0  0  0  0  0  0  0  0  0
  148.8478  133.3424  152.0116 H   0  0  0  0  0  0  0  0  0  0  0  0
  144.4480  134.9626  149.8902 H   0  0  0  0  0  0  0  0  0  0  0  0
  142.6064  134.3616  148.8347 H   0  0  0  0  0  0  0  0  0  0  0  0
  1  2  1  0  0  0  0
  1 16  1  0  0  0  0
  1 17  1  0  0  0  0
  1 30  1  0  0  0  0
  2  3  1  0  0  0  0
  2 18  1  0  0  0  0
  2 19  1  0  0  0  0
  3 15  1  0  0  0  0
  3  4  2  0  0  0  0
  4  5  1  0  0  0  0
  4 20  1  0  0  0  0
  5  6  2  0  0  0  0
  6  7  1  0  0  0  0
  6 13  1  0  0  0  0
  7 12  1  0  0  0  0
  7  8  1  0  0  0  0
  8  9  1  0  0  0  0
  8 21  1  0  0  0  0
  8 22  1  0  0  0  0
  9 10  1  0  0  0  0
  9 23  1  0  0  0  0
  9 24  1  0  0  0  0
 10 11  1  0  0  0  0
 11 12  1  0  0  0  0
 11 25  1  0  0  0  0
 11 26  1  0  0  0  0
 12 27  1  0  0  0  0
 12 28  1  0  0  0  0
 13 14  1  0  0  0  0
 13 15  2  0  0  0  0
 15 29  1  0  0  0  0
M  CHG  1   1   1
M  END
> <s_m_source_file>
AV-unprocessed.smi

> <i_m_source_file_index>
3098

> <i_lp_mmshare_version>
43012

> <i_f3d_flags>
0

> <s_epik_input>
W05IMl1bQ0gyXWMxW2NIXW5jKGMoRilbY0hdMSlOMltDSDJdW0NIMl1PW0NIMl1bQ0gyXTI=

> <s_epik_cmdline>
J2VwaWtfcHl0aG9uJywgJy1waCcsICc3LjAnLCAnLXRuJywgJzgnLCAnLW1hJywgJzIwMCcsICctbWV0YWxfYmluZGluZycsICctaW1hZScsICc8aW5maWxlLm1hZT4nLCAnLW9tYWUnLCAnPG91dGZpbGUubWFlPic=

> <r_lp_tautomer_probability>
1

> <r_epik_Ionization_Penalty>
0.06982

> <r_epik_Ionization_Penalty_Charging>
0.0698168

> <r_epik_Ionization_Penalty_Neutral>
3.20429e-06

> <r_epik_State_Penalty>
0.0611812

> <r_epik_Charging_Adjusted_Penalty>
0.130998

> <i_epik_Tot_Q>
1

> <i_epik_Tot_abs_Q>
1

> <r_epik_Metal_State_Penalty>
0.0611834

> <b_epik_Metal_Only>
0

> <s_lp_Force_Field>
OPLS_2005

> <r_lp_Energy>
20.0675

> <b_lp_Chiralities_Consistent>
1

> <s_lp_Variant>
AV-unprocessed.smi:3098-1

> <Gold.Version>
5.8.1

> <Gold.Id.Protein>
6NUR|6NUR_protein|mol2

> <Gold.PLP.Fitness>
39.1737

> <Gold.PLP.PLP>
-27.2323

> <Gold.PLP.part.hbond>
-3.0000

> <Gold.PLP.part.metal>
0.0000

> <Gold.PLP.part.buried>
-3.2767

> <Gold.PLP.part.nonpolar>
-21.9300

> <Gold.PLP.part.repulsive>
1.2014

> <Gold.PLP.ligand.clash>
0.0000

> <Gold.PLP.ligand.torsion>
0.0840

> <Gold.PLP.Chemscore.Hbond>
4.0000

> <Gold.PLP.Chemscore.CHOScore>
0.0000

> <Gold.PLP.Chemscore.Metal>
0.0000

> <Gold.Chemscore.Hbonds>
donor molecule, donor type, donor heavy atom, donor atom, acceptor molecule, acceptor atom, score
      L1  H     1    16       P1 10195  0.99
      L1  H     1    17       P1  7921  0.67
      L1  H     1    30       P1 10186  1.82

> <Gold.PLP.Chemscore.Internal.Correction>
0.1094

> <Gold.Rescore>
     Score         DG    S(hbond)    S(metal)    S(lipo)     H(rot)  DE(clash)    DE(int)     intcor
     18.32     -18.65       2.77        0.00      62.91       1.34       0.21       0.12       ----

> <Gold.Chemscore.Fitness>
18.3210

> <Gold.Chemscore.DG>
-18.6538

> <Gold.Chemscore.ZeroCoef>
-5.4800

> <Gold.Chemscore.Hbond>
2.7693

> <Gold.Chemscore.Metal>
0.0000

> <Gold.Chemscore.Lipo>
62.9107

> <Gold.Chemscore.Internal_Hbond>
0.0000

> <Gold.Chemscore.DEClash>
0.2087

> <Gold.Chemscore.DEInternal>
0.1241

> <Gold.Chemscore.Rot>
1.3423

> <Gold.Chemscore.Internal.Correction>
   9.000000E+99

> <Gold.Chemscore.Hbonds>
donor molecule, donor type, donor heavy atom, donor atom, acceptor molecule, acceptor atom, score
      L1  H     1    16       P1 10195  0.84
      L1  H     1    17       P1  7921  0.63
      L1  H     1    30       P1 10186  0.90

> <Gold.Chemscore.Hbond.Weighted>
-9.2496

> <Gold.Chemscore.Metal.Weighted>
-0.0000

> <Gold.Chemscore.Lipo.Weighted>
-7.3606

> <Gold.Chemscore.Internal_Hbond.Weighted>
0.0000

> <Gold.Chemscore.DEClash.Weighted>
0.2087

> <Gold.Chemscore.DEInternal.Weighted>
0.1241

> <Gold.Chemscore.Rot.Weighted>
3.4363

> <Gold.Chemscore.Internal.Correction.Weighted>
   9.000000E+99

> <Gold.Protein.RotatedTorsions>
[ 6907 6896 6895 6894 ] final  -84.51 input  -60.11 | X-H torsion
[ 7974 7965 7964 7962 ] final  141.71 input  175.53 | X-H torsion
[ 8008 7997 7996 7995 ] final  -71.36 input   59.86 | X-H torsion
[ 10167 10162 10161 10158 ] final -135.11 input  -65.29 | X-H torsion
[ 10718 10713 10712 10709 ] final -114.75 input   66.30 | X-H torsion
[ 10763 10752 10751 10750 ] final  117.76 input  -60.55 | X-H torsion
[ 11005 11000 10999 10996 ] final  133.20 input  -57.11 | X-H torsion

> <Gold.Protein.ActiveResidues>
 VAL166  LYS551  ARG553  GLY616  TRP617  ASP618  TYR619  PRO620  LYS621  CYS622 
 ASP623  PHE694  ASN695  SER759  ASP760  ASP761  ALA762  ILE779  LEU786  VAL792 
 PHE793  MET794  SER795  GLU796  ALA797  LYS798  CYS799  TRP800  GLU811  SER814 

> <Gold.Protein.RotatedAtoms>
  150.6876  134.3348  159.4842 H   0  0  0  0  0  0  0  0  0  0  0  0  # atno 6907 bound_to 6896
  152.1208  134.9204  160.0572 H   0  0  0  0  0  0  0  0  0  0  0  0  # atno 6908 bound_to 6896
  152.0411  133.3943  159.4374 H   0  0  0  0  0  0  0  0  0  0  0  0  # atno 6909 bound_to 6896
  144.9072  139.5342  143.5726 H   0  0  0  0  0  0  0  0  0  0  0  0  # atno 7974 bound_to 7965
  154.5082  140.0817  156.7936 H   0  0  0  0  0  0  0  0  0  0  0  0  # atno 8008 bound_to 7997
  155.3846  140.3429  155.4230 H   0  0  0  0  0  0  0  0  0  0  0  0  # atno 8009 bound_to 7997
  156.1541  140.1567  156.8709 H   0  0  0  0  0  0  0  0  0  0  0  0  # atno 8010 bound_to 7997
  139.8812  143.6837  152.2627 H   0  0  0  0  0  0  0  0  0  0  0  0  # atno 10167 bound_to 10162
  156.0850  130.6044  150.8816 H   0  0  0  0  0  0  0  0  0  0  0  0  # atno 10718 bound_to 10713
  153.5573  135.3528  155.2784 H   0  0  0  0  0  0  0  0  0  0  0  0  # atno 10763 bound_to 10752
  154.8699  135.4128  154.2870 H   0  0  0  0  0  0  0  0  0  0  0  0  # atno 10764 bound_to 10752
  153.3609  135.7060  153.6782 H   0  0  0  0  0  0  0  0  0  0  0  0  # atno 10765 bound_to 10752
  139.9837  134.9539  156.9691 H   0  0  0  0  0  0  0  0  0  0  0  0  # atno 11005 bound_to 11000
  146.3140  139.7850  142.8998 LP  0  0  0  0  0  0  0  0  0  0  0  0  # atno 17320 bound_to 7965
  145.3515  141.0308  143.3336 LP  0  0  0  0  0  0  0  0  0  0  0  0  # atno 17321 bound_to 7965
  139.7194  144.7605  151.0980 LP  0  0  0  0  0  0  0  0  0  0  0  0  # atno 17342 bound_to 10162
  140.7744  143.5227  150.9517 LP  0  0  0  0  0  0  0  0  0  0  0  0  # atno 17343 bound_to 10162
  157.5982  131.0942  150.9006 LP  0  0  0  0  0  0  0  0  0  0  0  0  # atno 17370 bound_to 10713
  156.9168  130.5300  149.5279 LP  0  0  0  0  0  0  0  0  0  0  0  0  # atno 17371 bound_to 10713
  140.5045  134.1064  155.7257 LP  0  0  0  0  0  0  0  0  0  0  0  0  # atno 17394 bound_to 11000
  141.1505  133.8977  157.2108 LP  0  0  0  0  0  0  0  0  0  0  0  0  # atno 17395 bound_to 11000

$$$$
