AV-unprocessed.smi:1888|AV-procd|sdf|7657|dock8
  -GOLD-   22720 9393D 1   1.00000     0.00000
 Structure written by MMmdl.
 44 46  0  0  0  0  0  0  0  0  1 V2000
  153.9227  136.8329  163.5334 C   0  0  0  0  0  0  0  0  0  0  0  0
  153.6814  137.1968  162.0667 C   0  0  0  0  0  0  0  0  0  0  0  0
  154.3682  138.4019  161.7744 O   0  0  0  0  0  0  0  0  0  0  0  0
  154.1522  138.8462  160.4463 C   0  0  0  0  0  0  0  0  0  0  0  0
  152.7564  139.4768  160.3573 C   0  0  0  0  0  0  0  0  0  0  0  0
  152.3200  139.6331  158.9747 N   0  0  0  0  0  0  0  0  0  0  0  0
  152.0261  140.7816  158.3108 C   0  0  0  0  0  0  0  0  0  0  0  0
  152.1113  142.0417  158.9416 N   0  0  0  0  0  0  0  0  0  0  0  0
  151.0622  142.8918  158.9042 N   0  0  0  0  0  0  0  0  0  0  0  0
  151.4671  143.9637  159.5644 C   0  0  0  0  0  0  0  0  0  0  0  0
  150.5317  145.1247  159.7290 C   0  0  0  0  0  0  0  0  0  0  0  0
  152.8023  143.8307  160.0381 C   0  0  0  0  0  0  0  0  0  0  0  0
  153.1875  142.5890  159.6168 C   0  0  0  0  0  0  0  0  0  0  0  0
  154.4825  141.8673  159.8000 C   0  0  0  0  0  0  0  0  0  0  0  0
  151.6706  140.6185  157.0329 N   0  0  0  0  0  0  0  0  0  0  0  0
  151.7314  139.2417  156.8738 C   0  0  0  0  0  0  0  0  0  0  0  0
  152.1168  138.6338  158.0243 C   0  0  0  0  0  0  0  0  0  0  0  0
  152.2625  137.1779  158.1366 C   0  0  0  0  0  0  0  0  0  0  0  0
  152.6080  136.6098  159.1702 O   0  0  0  0  0  0  0  0  0  0  0  0
  151.9734  136.5267  156.9835 N   0  0  0  0  0  0  0  0  0  0  0  0
  151.5792  137.0752  155.7930 C   0  0  0  0  0  0  0  0  0  0  0  0
  151.3480  136.3426  154.8315 O   0  0  0  0  0  0  0  0  0  0  0  0
  151.4579  138.4417  155.7300 N   0  0  0  0  0  0  0  0  0  0  0  0
  151.0390  139.1268  154.5056 C   0  0  0  0  0  0  0  0  0  0  0  0
  152.0562  135.5206  157.0055 H   0  0  0  0  0  0  0  0  0  0  0  0
  153.4122  135.9057  163.7943 H   0  0  0  0  0  0  0  0  0  0  0  0
  153.5538  137.6162  164.1957 H   0  0  0  0  0  0  0  0  0  0  0  0
  154.9860  136.6975  163.7331 H   0  0  0  0  0  0  0  0  0  0  0  0
  154.0388  136.3937  161.4202 H   0  0  0  0  0  0  0  0  0  0  0  0
  152.6126  137.3177  161.8846 H   0  0  0  0  0  0  0  0  0  0  0  0
  154.9160  139.5736  160.1673 H   0  0  0  0  0  0  0  0  0  0  0  0
  154.2332  138.0060  159.7555 H   0  0  0  0  0  0  0  0  0  0  0  0
  152.0328  138.8666  160.8982 H   0  0  0  0  0  0  0  0  0  0  0  0
  152.7445  140.4511  160.8453 H   0  0  0  0  0  0  0  0  0  0  0  0
  151.0202  145.9564  160.2371 H   0  0  0  0  0  0  0  0  0  0  0  0
  149.6582  144.8430  160.3175 H   0  0  0  0  0  0  0  0  0  0  0  0
  150.1805  145.4872  158.7624 H   0  0  0  0  0  0  0  0  0  0  0  0
  153.3891  144.5408  160.6018 H   0  0  0  0  0  0  0  0  0  0  0  0
  155.1499  142.4244  160.4577 H   0  0  0  0  0  0  0  0  0  0  0  0
  154.9893  141.7321  158.8441 H   0  0  0  0  0  0  0  0  0  0  0  0
  154.3209  140.8832  160.2406 H   0  0  0  0  0  0  0  0  0  0  0  0
  150.9152  138.4667  153.6463 H   0  0  0  0  0  0  0  0  0  0  0  0
  151.7760  139.8817  154.2295 H   0  0  0  0  0  0  0  0  0  0  0  0
  150.0872  139.6324  154.6714 H   0  0  0  0  0  0  0  0  0  0  0  0
  1  2  1  0  0  0  0
  1 26  1  0  0  0  0
  1 27  1  0  0  0  0
  1 28  1  0  0  0  0
  2  3  1  0  0  0  0
  2 29  1  0  0  0  0
  2 30  1  0  0  0  0
  3  4  1  0  0  0  0
  4  5  1  0  0  0  0
  4 31  1  0  0  0  0
  4 32  1  0  0  0  0
  5  6  1  0  0  0  0
  5 33  1  0  0  0  0
  5 34  1  0  0  0  0
  6 17  1  0  0  0  0
  6  7  1  0  0  0  0
  7  8  1  0  0  0  0
  7 15  2  0  0  0  0
  8 13  1  0  0  0  0
  8  9  1  0  0  0  0
  9 10  2  0  0  0  0
 10 11  1  0  0  0  0
 10 12  1  0  0  0  0
 11 35  1  0  0  0  0
 11 36  1  0  0  0  0
 11 37  1  0  0  0  0
 12 13  2  0  0  0  0
 12 38  1  0  0  0  0
 13 14  1  0  0  0  0
 14 39  1  0  0  0  0
 14 40  1  0  0  0  0
 14 41  1  0  0  0  0
 15 16  1  0  0  0  0
 16 23  1  0  0  0  0
 16 17  2  0  0  0  0
 17 18  1  0  0  0  0
 18 19  2  0  0  0  0
 18 20  1  0  0  0  0
 20 25  1  0  0  0  0
 20 21  1  0  0  0  0
 21 22  2  0  0  0  0
 21 23  1  0  0  0  0
 23 24  1  0  0  0  0
 24 42  1  0  0  0  0
 24 43  1  0  0  0  0
 24 44  1  0  0  0  0
M  END
> <s_m_source_file>
AV-unprocessed.smi

> <i_m_source_file_index>
1888

> <i_lp_mmshare_version>
43012

> <i_f3d_flags>
0

> <s_epik_input>
W0NIM11uMWMoPU8pW25IXWMoPU8pYyhjMTIpbihbQ0gyXVtDSDJdT1tDSDJdW0NIM10pYyhuMiktbjNuYyhbQ0gzXSlbY0hdYzNbQ0gzXQ==

> <s_epik_cmdline>
J2VwaWtfcHl0aG9uJywgJy1waCcsICc3LjAnLCAnLXRuJywgJzgnLCAnLW1hJywgJzIwMCcsICctbWV0YWxfYmluZGluZycsICctaW1hZScsICc8aW5maWxlLm1hZT4nLCAnLW9tYWUnLCAnPG91dGZpbGUubWFlPic=

> <r_lp_tautomer_probability>
1

> <r_epik_Ionization_Penalty>
0.00155345

> <r_epik_Ionization_Penalty_Charging>
0.000715499

> <r_epik_Ionization_Penalty_Neutral>
0.000837951

> <r_epik_State_Penalty>
-0

> <r_epik_Charging_Adjusted_Penalty>
0.000715499

> <i_epik_Tot_Q>
0

> <i_epik_Tot_abs_Q>
0

> <r_epik_Metal_State_Penalty>
0.258535

> <b_epik_Metal_Only>
0

> <s_lp_Force_Field>
OPLS_2005

> <r_lp_Energy>
26.5558

> <b_lp_Chiralities_Consistent>
1

> <s_lp_Variant>
AV-unprocessed.smi:1888-1

> <Gold.Version>
5.8.1

> <Gold.Id.Protein>
6NUR|6NUR_protein|mol2

> <Gold.PLP.Fitness>
42.7609

> <Gold.PLP.PLP>
-38.6637

> <Gold.PLP.part.hbond>
-2.0000

> <Gold.PLP.part.metal>
0.0000

> <Gold.PLP.part.buried>
-6.0133

> <Gold.PLP.part.nonpolar>
-30.0129

> <Gold.PLP.part.repulsive>
0.3444

> <Gold.PLP.ligand.clash>
0.0000

> <Gold.PLP.ligand.torsion>
1.0916

> <Gold.PLP.Chemscore.Hbond>
1.9600

> <Gold.PLP.Chemscore.CHOScore>
0.0000

> <Gold.PLP.Chemscore.Metal>
0.0000

> <Gold.Chemscore.Hbonds>
donor molecule, donor type, donor heavy atom, donor atom, acceptor molecule, acceptor atom, score
      P1  H  6896  6908       L1    19  0.94
      P1  H 10752 10764       L1    22  1.00

> <Gold.PLP.Chemscore.Internal.Correction>
0.4004

> <Gold.Rescore>
     Score         DG    S(hbond)    S(metal)    S(lipo)     H(rot)  DE(clash)    DE(int)     intcor
     14.96     -18.73       1.85        0.00      97.58       1.70       1.57       2.20       ----

> <Gold.Chemscore.Fitness>
14.9581

> <Gold.Chemscore.DG>
-18.7289

> <Gold.Chemscore.ZeroCoef>
-5.4800

> <Gold.Chemscore.Hbond>
1.8480

> <Gold.Chemscore.Metal>
0.0000

> <Gold.Chemscore.Lipo>
97.5764

> <Gold.Chemscore.Internal_Hbond>
0.0000

> <Gold.Chemscore.DEClash>
1.5725

> <Gold.Chemscore.DEInternal>
2.1983

> <Gold.Chemscore.Rot>
1.6953

> <Gold.Chemscore.Internal.Correction>
   9.000000E+99

> <Gold.Chemscore.Hbonds>
donor molecule, donor type, donor heavy atom, donor atom, acceptor molecule, acceptor atom, score
      P1  H  6896  6908       L1    19  0.92
      P1  H 10752 10764       L1    22  0.30

> <Gold.Chemscore.Hbond.Weighted>
-6.1724

> <Gold.Chemscore.Metal.Weighted>
-0.0000

> <Gold.Chemscore.Lipo.Weighted>
-11.4164

> <Gold.Chemscore.Internal_Hbond.Weighted>
0.0000

> <Gold.Chemscore.DEClash.Weighted>
1.5725

> <Gold.Chemscore.DEInternal.Weighted>
2.1983

> <Gold.Chemscore.Rot.Weighted>
4.3399

> <Gold.Chemscore.Internal.Correction.Weighted>
   9.000000E+99

> <Gold.Protein.RotatedTorsions>
[ 6907 6896 6895 6894 ] final -102.51 input  -60.11 | X-H torsion
[ 7974 7965 7964 7962 ] final  -19.41 input  175.53 | X-H torsion
[ 8008 7997 7996 7995 ] final  143.32 input   59.86 | X-H torsion
[ 10167 10162 10161 10158 ] final -174.11 input  -65.29 | X-H torsion
[ 10718 10713 10712 10709 ] final  -40.38 input   66.30 | X-H torsion
[ 10763 10752 10751 10750 ] final  -59.40 input  -60.55 | X-H torsion
[ 11005 11000 10999 10996 ] final  -34.36 input  -57.11 | X-H torsion

> <Gold.Protein.ActiveResidues>
 VAL166  LYS551  ARG553  GLY616  TRP617  ASP618  TYR619  PRO620  LYS621  CYS622 
 ASP623  PHE694  ASN695  SER759  ASP760  ASP761  ALA762  ILE779  LEU786  VAL792 
 PHE793  MET794  SER795  GLU796  ALA797  LYS798  CYS799  TRP800  GLU811  SER814 

> <Gold.Protein.RotatedAtoms>
  150.7199  134.0570  159.3817 H   0  0  0  0  0  0  0  0  0  0  0  0  # atno 6907 bound_to 6896
  151.8549  135.0542  160.0472 H   0  0  0  0  0  0  0  0  0  0  0  0  # atno 6908 bound_to 6896
  152.2762  133.5392  159.5506 H   0  0  0  0  0  0  0  0  0  0  0  0  # atno 6909 bound_to 6896
  146.1843  140.4058  142.8482 H   0  0  0  0  0  0  0  0  0  0  0  0  # atno 7974 bound_to 7965
  156.2932  140.2265  156.4871 H   0  0  0  0  0  0  0  0  0  0  0  0  # atno 8008 bound_to 7997
  154.7802  140.0461  157.1143 H   0  0  0  0  0  0  0  0  0  0  0  0  # atno 8009 bound_to 7997
  154.9767  140.3073  155.4967 H   0  0  0  0  0  0  0  0  0  0  0  0  # atno 8010 bound_to 7997
  139.5651  144.1774  152.1300 H   0  0  0  0  0  0  0  0  0  0  0  0  # atno 10167 bound_to 10162
  156.2820  130.4218  149.8327 H   0  0  0  0  0  0  0  0  0  0  0  0  # atno 10718 bound_to 10713
  154.2532  135.6322  153.5247 H   0  0  0  0  0  0  0  0  0  0  0  0  # atno 10763 bound_to 10752
  152.9908  135.5569  154.5785 H   0  0  0  0  0  0  0  0  0  0  0  0  # atno 10764 bound_to 10752
  154.5317  135.2889  155.1149 H   0  0  0  0  0  0  0  0  0  0  0  0  # atno 10765 bound_to 10752
  140.9710  133.7110  156.1523 H   0  0  0  0  0  0  0  0  0  0  0  0  # atno 11005 bound_to 11000
  144.8369  140.6795  143.6255 LP  0  0  0  0  0  0  0  0  0  0  0  0  # atno 17320 bound_to 7965
  145.3986  139.1602  143.4190 LP  0  0  0  0  0  0  0  0  0  0  0  0  # atno 17321 bound_to 7965
  140.1295  144.5301  150.6811 LP  0  0  0  0  0  0  0  0  0  0  0  0  # atno 17342 bound_to 10162
  140.6934  143.2389  151.5067 LP  0  0  0  0  0  0  0  0  0  0  0  0  # atno 17343 bound_to 10162
  156.5771  130.8450  151.3373 LP  0  0  0  0  0  0  0  0  0  0  0  0  # atno 17370 bound_to 10713
  157.7317  130.9704  150.1893 LP  0  0  0  0  0  0  0  0  0  0  0  0  # atno 17371 bound_to 10713
  140.7329  134.4235  157.5564 LP  0  0  0  0  0  0  0  0  0  0  0  0  # atno 17394 bound_to 11000
  139.8912  134.8785  156.2331 LP  0  0  0  0  0  0  0  0  0  0  0  0  # atno 17395 bound_to 11000

$$$$
