AV-unprocessed.smi:3116|AV-procd|sdf|11876|dock9
  -GOLD-   2272017263D 1   1.00000     0.00000
 Structure written by MMmdl.
 33 33  0  0  0  0  0  0  0  0  1 V2000
  153.3255  138.5705  154.8460 C   0  0  0  0  0  0  0  0  0  0  0  0
  151.8350  138.9399  154.7875 C   0  0  2  0  0  0  0  0  0  0  0  0
  151.3723  139.3430  156.1279 N   0  0  0  0  0  0  0  0  0  0  0  0
  151.5655  140.7526  156.4672 C   0  0  1  0  0  0  0  0  0  0  0  0
  150.5897  141.5864  155.6123 C   0  0  0  0  0  0  0  0  0  0  0  0
  151.3444  140.9241  157.9936 C   0  0  1  0  0  0  0  0  0  0  0  0
  152.1527  139.9134  158.8286 C   0  0  0  0  0  0  0  0  0  0  0  0
  151.6523  142.2784  158.4360 N   0  0  0  0  0  0  0  0  0  0  0  0
  151.2062  143.4778  157.9170 C   0  0  0  0  0  0  0  0  0  0  0  0
  151.7649  144.4777  158.6599 C   0  0  0  0  0  0  0  0  0  0  0  0
  152.5501  143.7840  159.6222 C   0  0  0  0  0  0  0  0  0  0  0  0
  152.4820  142.4699  159.4850 N   0  0  0  0  0  0  0  0  0  0  0  0
  151.0163  137.7886  154.1802 C   0  0  0  0  0  0  0  0  0  0  0  0
  150.2340  138.0787  153.1376 N   0  0  0  0  0  0  0  0  0  0  0  0
  151.0755  136.6570  154.6577 O   0  0  0  0  0  0  0  0  0  0  0  0
  153.7021  138.2825  153.8638 H   0  0  0  0  0  0  0  0  0  0  0  0
  153.5089  137.7404  155.5299 H   0  0  0  0  0  0  0  0  0  0  0  0
  153.9228  139.4165  155.1874 H   0  0  0  0  0  0  0  0  0  0  0  0
  151.7432  139.8071  154.1305 H   0  0  0  0  0  0  0  0  0  0  0  0
  150.4153  139.0680  156.2989 H   0  0  0  0  0  0  0  0  0  0  0  0
  152.5845  141.0691  156.2392 H   0  0  0  0  0  0  0  0  0  0  0  0
  150.7367  142.6560  155.7619 H   0  0  0  0  0  0  0  0  0  0  0  0
  149.5525  141.3577  155.8597 H   0  0  0  0  0  0  0  0  0  0  0  0
  150.7239  141.3979  154.5474 H   0  0  0  0  0  0  0  0  0  0  0  0
  150.2866  140.7494  158.2025 H   0  0  0  0  0  0  0  0  0  0  0  0
  151.8671  138.8866  158.6002 H   0  0  0  0  0  0  0  0  0  0  0  0
  151.9842  140.0660  159.8952 H   0  0  0  0  0  0  0  0  0  0  0  0
  153.2230  140.0079  158.6439 H   0  0  0  0  0  0  0  0  0  0  0  0
  150.5341  143.5185  157.0726 H   0  0  0  0  0  0  0  0  0  0  0  0
  151.6336  145.5421  158.5348 H   0  0  0  0  0  0  0  0  0  0  0  0
  153.1641  144.1929  160.4110 H   0  0  0  0  0  0  0  0  0  0  0  0
  149.6772  137.3544  152.7081 H   0  0  0  0  0  0  0  0  0  0  0  0
  150.2012  139.0237  152.7837 H   0  0  0  0  0  0  0  0  0  0  0  0
  1  2  1  0  0  0  0
  1 16  1  0  0  0  0
  1 17  1  0  0  0  0
  1 18  1  0  0  0  0
  2  3  1  0  0  0  0
  2 13  1  0  0  0  0
  2 19  1  0  0  0  0
  3  4  1  0  0  0  0
  3 20  1  0  0  0  0
  4  5  1  0  0  0  0
  4  6  1  0  0  0  0
  4 21  1  0  0  0  0
  5 22  1  0  0  0  0
  5 23  1  0  0  0  0
  5 24  1  0  0  0  0
  6  7  1  0  0  0  0
  6  8  1  0  0  0  0
  6 25  1  0  0  0  0
  7 26  1  0  0  0  0
  7 27  1  0  0  0  0
  7 28  1  0  0  0  0
  8 12  1  0  0  0  0
  8  9  1  0  0  0  0
  9 10  2  0  0  0  0
  9 29  1  0  0  0  0
 10 11  1  0  0  0  0
 10 30  1  0  0  0  0
 11 12  2  0  0  0  0
 11 31  1  0  0  0  0
 13 14  1  0  0  0  0
 13 15  2  0  0  0  0
 14 32  1  0  0  0  0
 14 33  1  0  0  0  0
M  END
> <s_m_source_file>
AV-unprocessed.smi

> <i_m_source_file_index>
3116

> <i_lp_mmshare_version>
43012

> <i_f3d_flags>
0

> <s_epik_input>
W05IMl1DKD1PKVtDQEhdKFtDSDNdKVtOSF1bQ0BIXShbQ0gzXSlbQ0BIXShbQ0gzXSluMVtjSF1bY0hdW2NIXW4x

> <s_epik_cmdline>
J2VwaWtfcHl0aG9uJywgJy1waCcsICc3LjAnLCAnLXRuJywgJzgnLCAnLW1hJywgJzIwMCcsICctbWV0YWxfYmluZGluZycsICctaW1hZScsICc8aW5maWxlLm1hZT4nLCAnLW9tYWUnLCAnPG91dGZpbGUubWFlPic=

> <r_lp_tautomer_probability>
1

> <r_epik_Ionization_Penalty>
0.865977

> <r_epik_Ionization_Penalty_Charging>
0

> <r_epik_Ionization_Penalty_Neutral>
0.865977

> <r_epik_State_Penalty>
0.901888

> <r_epik_Charging_Adjusted_Penalty>
0.901888

> <i_epik_Tot_Q>
0

> <i_epik_Tot_abs_Q>
0

> <r_epik_Metal_State_Penalty>
0.901181

> <b_epik_Metal_Only>
0

> <s_lp_Force_Field>
OPLS_2005

> <r_lp_Energy>
9.22902

> <b_lp_Chiralities_Consistent>
1

> <s_lp_Variant>
AV-unprocessed.smi:3116-15

> <Gold.Version>
5.8.1

> <Gold.Id.Protein>
6NUR|6NUR_protein|mol2

> <Gold.PLP.Fitness>
43.9006

> <Gold.PLP.PLP>
-34.0757

> <Gold.PLP.part.hbond>
-3.9126

> <Gold.PLP.part.metal>
0.0000

> <Gold.PLP.part.buried>
-1.2662

> <Gold.PLP.part.nonpolar>
-28.2884

> <Gold.PLP.part.repulsive>
0.2622

> <Gold.PLP.ligand.clash>
0.0000

> <Gold.PLP.ligand.torsion>
0.6911

> <Gold.PLP.Chemscore.Hbond>
2.7030

> <Gold.PLP.Chemscore.CHOScore>
1.0000

> <Gold.PLP.Chemscore.Metal>
0.0000

> <Gold.Chemscore.Hbonds>
donor molecule, donor type, donor heavy atom, donor atom, acceptor molecule, acceptor atom, score
      L1  H    14    32       P1  7948  1.00
      L1  H    14    33       P1  7957  0.78
      P1  H 10752 10764       L1    15  0.76
      L1  C     9    29       P1  8028  1.00

> <Gold.PLP.Chemscore.Internal.Correction>
0.0982

> <Gold.Rescore>
     Score         DG    S(hbond)    S(metal)    S(lipo)     H(rot)  DE(clash)    DE(int)     intcor
     15.45     -16.40       2.27        0.00      80.84       2.38       0.30       0.65       ----

> <Gold.Chemscore.Fitness>
15.4494

> <Gold.Chemscore.DG>
-16.4025

> <Gold.Chemscore.ZeroCoef>
-5.4800

> <Gold.Chemscore.Hbond>
2.2655

> <Gold.Chemscore.Metal>
0.0000

> <Gold.Chemscore.Lipo>
80.8354

> <Gold.Chemscore.Internal_Hbond>
0.0000

> <Gold.Chemscore.DEClash>
0.2989

> <Gold.Chemscore.DEInternal>
0.6541

> <Gold.Chemscore.Rot>
2.3836

> <Gold.Chemscore.Internal.Correction>
   9.000000E+99

> <Gold.Chemscore.Hbonds>
donor molecule, donor type, donor heavy atom, donor atom, acceptor molecule, acceptor atom, score
      L1  H    14    32       P1  7948  0.37
      L1  H    14    33       P1  7957  0.49
      P1  H 10752 10764       L1    15  0.72

> <Gold.Chemscore.Hbond.Weighted>
-7.5667

> <Gold.Chemscore.Metal.Weighted>
-0.0000

> <Gold.Chemscore.Lipo.Weighted>
-9.4577

> <Gold.Chemscore.Internal_Hbond.Weighted>
0.0000

> <Gold.Chemscore.DEClash.Weighted>
0.2989

> <Gold.Chemscore.DEInternal.Weighted>
0.6541

> <Gold.Chemscore.Rot.Weighted>
6.1020

> <Gold.Chemscore.Internal.Correction.Weighted>
   9.000000E+99

> <Gold.Protein.RotatedTorsions>
[ 6907 6896 6895 6894 ] final   21.15 input  -60.11 | X-H torsion
[ 7974 7965 7964 7962 ] final   18.68 input  175.53 | X-H torsion
[ 8008 7997 7996 7995 ] final  -82.13 input   59.86 | X-H torsion
[ 10167 10162 10161 10158 ] final  -22.90 input  -65.29 | X-H torsion
[ 10718 10713 10712 10709 ] final  174.34 input   66.30 | X-H torsion
[ 10763 10752 10751 10750 ] final  -64.49 input  -60.55 | X-H torsion
[ 11005 11000 10999 10996 ] final  124.82 input  -57.11 | X-H torsion

> <Gold.Protein.ActiveResidues>
 VAL166  LYS551  ARG553  GLY616  TRP617  ASP618  TYR619  PRO620  LYS621  CYS622 
 ASP623  PHE694  ASN695  SER759  ASP760  ASP761  ALA762  ILE779  LEU786  VAL792 
 PHE793  MET794  SER795  GLU796  ALA797  LYS798  CYS799  TRP800  GLU811  SER814 

> <Gold.Protein.RotatedAtoms>
  151.9073  135.0353  160.0511 H   0  0  0  0  0  0  0  0  0  0  0  0  # atno 6907 bound_to 6896
  152.2308  133.5052  159.5223 H   0  0  0  0  0  0  0  0  0  0  0  0  # atno 6908 bound_to 6896
  150.7025  134.1135  159.4051 H   0  0  0  0  0  0  0  0  0  0  0  0  # atno 6909 bound_to 6896
  146.2176  139.8422  142.8639 H   0  0  0  0  0  0  0  0  0  0  0  0  # atno 7974 bound_to 7965
  154.6055  140.0637  156.9424 H   0  0  0  0  0  0  0  0  0  0  0  0  # atno 8008 bound_to 7997
  155.2061  140.3319  155.4317 H   0  0  0  0  0  0  0  0  0  0  0  0  # atno 8009 bound_to 7997
  156.2344  140.1856  156.7141 H   0  0  0  0  0  0  0  0  0  0  0  0  # atno 8010 bound_to 7997
  140.7287  143.4492  151.0541 H   0  0  0  0  0  0  0  0  0  0  0  0  # atno 10167 bound_to 10162
  156.9510  131.0031  151.2948 H   0  0  0  0  0  0  0  0  0  0  0  0  # atno 10718 bound_to 10713
  154.3308  135.6177  153.5550 H   0  0  0  0  0  0  0  0  0  0  0  0  # atno 10763 bound_to 10752
  152.9811  135.5746  154.4963 H   0  0  0  0  0  0  0  0  0  0  0  0  # atno 10764 bound_to 10752
  154.4649  135.2857  155.1662 H   0  0  0  0  0  0  0  0  0  0  0  0  # atno 10765 bound_to 10752
  139.9377  134.9638  156.8466 H   0  0  0  0  0  0  0  0  0  0  0  0  # atno 11005 bound_to 11000
  145.2888  141.0161  143.3675 LP  0  0  0  0  0  0  0  0  0  0  0  0  # atno 17320 bound_to 7965
  144.9093  139.4548  143.6594 LP  0  0  0  0  0  0  0  0  0  0  0  0  # atno 17321 bound_to 7965
  139.8167  143.7876  152.3174 LP  0  0  0  0  0  0  0  0  0  0  0  0  # atno 17342 bound_to 10162
  139.7944  144.7398  150.9910 LP  0  0  0  0  0  0  0  0  0  0  0  0  # atno 17343 bound_to 10162
  157.5722  130.8318  149.8406 LP  0  0  0  0  0  0  0  0  0  0  0  0  # atno 17370 bound_to 10713
  156.0363  130.3750  150.1553 LP  0  0  0  0  0  0  0  0  0  0  0  0  # atno 17371 bound_to 10713
  140.6033  134.0151  155.7546 LP  0  0  0  0  0  0  0  0  0  0  0  0  # atno 17394 bound_to 11000
  141.0998  133.9786  157.3099 LP  0  0  0  0  0  0  0  0  0  0  0  0  # atno 17395 bound_to 11000

$$$$
