AV-unprocessed.smi:756|AV-procd|sdf|3612|dock7
  -GOLD-   22720 1 13D 1   1.00000     0.00000
 Structure written by MMmdl.
 42 43  0  0  0  0  0  0  0  0  1 V2000
  151.6755  144.7303  159.8646 C   0  0  0  0  0  0  0  0  0  0  0  0
  152.3289  143.3634  159.9689 C   0  0  0  0  0  0  0  0  0  0  0  0
  152.9903  142.8956  161.0328 C   0  0  0  0  0  0  0  0  0  0  0  0
  153.5751  141.2661  160.8021 S   0  0  0  0  0  0  0  0  0  0  0  0
  152.8608  141.2343  159.1499 C   0  0  0  0  0  0  0  0  0  0  0  0
  152.9415  140.2576  158.4068 O   0  0  0  0  0  0  0  0  0  0  0  0
  152.2436  142.4599  158.9003 N   0  0  0  0  0  0  0  0  0  0  0  0
  151.5721  142.7645  157.6297 C   0  0  0  0  0  0  0  0  0  0  0  0
  150.4813  141.7489  157.2642 C   0  0  0  0  0  0  0  0  0  0  0  0
  150.6180  140.5507  157.5149 O   0  0  0  0  0  0  0  0  0  0  0  0
  149.3856  142.2529  156.6808 N   0  0  0  0  0  0  0  0  0  0  0  0
  148.2342  141.4624  156.2597 C   0  0  0  0  0  0  0  0  0  0  0  0
  147.9034  141.6320  154.7547 C   0  0  1  0  0  0  0  0  0  0  0  0
  146.6587  142.5191  154.5290 C   0  0  0  0  0  0  0  0  0  0  0  0
  149.0107  142.2762  154.1507 O   0  0  0  0  0  0  0  0  0  0  0  0
  147.7141  140.2392  154.0859 C   0  0  0  0  0  0  0  0  0  0  0  0
  147.3173  140.2552  152.6028 C   0  0  0  0  0  0  0  0  0  0  0  0
  146.8547  138.8259  152.3225 C   0  0  0  0  0  0  0  0  0  0  0  0
  146.2324  138.3272  153.6327 C   0  0  0  0  0  0  0  0  0  0  0  0
  146.6617  139.3161  154.7273 C   0  0  0  0  0  0  0  0  0  0  0  0
  151.5957  145.1892  160.8506 H   0  0  0  0  0  0  0  0  0  0  0  0
  150.6683  144.6616  159.4530 H   0  0  0  0  0  0  0  0  0  0  0  0
  152.2709  145.3891  159.2322 H   0  0  0  0  0  0  0  0  0  0  0  0
  153.1631  143.4202  161.9610 H   0  0  0  0  0  0  0  0  0  0  0  0
  151.1405  143.7649  157.6422 H   0  0  0  0  0  0  0  0  0  0  0  0
  152.3136  142.7824  156.8290 H   0  0  0  0  0  0  0  0  0  0  0  0
  149.3480  143.2460  156.5027 H   0  0  0  0  0  0  0  0  0  0  0  0
  148.4168  140.4144  156.5030 H   0  0  0  0  0  0  0  0  0  0  0  0
  147.3739  141.7757  156.8540 H   0  0  0  0  0  0  0  0  0  0  0  0
  145.7767  142.0812  154.9973 H   0  0  0  0  0  0  0  0  0  0  0  0
  146.4394  142.6456  153.4689 H   0  0  0  0  0  0  0  0  0  0  0  0
  146.7864  143.5212  154.9395 H   0  0  0  0  0  0  0  0  0  0  0  0
  149.1990  143.0659  154.6344 H   0  0  0  0  0  0  0  0  0  0  0  0
  148.6691  139.7140  154.1468 H   0  0  0  0  0  0  0  0  0  0  0  0
  146.4899  140.9450  152.4319 H   0  0  0  0  0  0  0  0  0  0  0  0
  148.1380  140.5517  151.9490 H   0  0  0  0  0  0  0  0  0  0  0  0
  146.1601  138.7728  151.4838 H   0  0  0  0  0  0  0  0  0  0  0  0
  147.7186  138.2083  152.0728 H   0  0  0  0  0  0  0  0  0  0  0  0
  145.1448  138.2976  153.5585 H   0  0  0  0  0  0  0  0  0  0  0  0
  146.5702  137.3147  153.8566 H   0  0  0  0  0  0  0  0  0  0  0  0
  147.0542  138.8001  155.6040 H   0  0  0  0  0  0  0  0  0  0  0  0
  145.7900  139.8852  155.0515 H   0  0  0  0  0  0  0  0  0  0  0  0
  1  2  1  0  0  0  0
  1 21  1  0  0  0  0
  1 22  1  0  0  0  0
  1 23  1  0  0  0  0
  2  7  1  0  0  0  0
  2  3  2  0  0  0  0
  3  4  1  0  0  0  0
  3 24  1  0  0  0  0
  4  5  1  0  0  0  0
  5  6  2  0  0  0  0
  5  7  1  0  0  0  0
  7  8  1  0  0  0  0
  8  9  1  0  0  0  0
  8 25  1  0  0  0  0
  8 26  1  0  0  0  0
  9 10  2  0  0  0  0
  9 11  1  0  0  0  0
 11 12  1  0  0  0  0
 11 27  1  0  0  0  0
 12 13  1  0  0  0  0
 12 28  1  0  0  0  0
 12 29  1  0  0  0  0
 13 14  1  0  0  0  0
 13 15  1  0  0  0  0
 13 16  1  0  0  0  0
 14 30  1  0  0  0  0
 14 31  1  0  0  0  0
 14 32  1  0  0  0  0
 15 33  1  0  0  0  0
 16 20  1  0  0  0  0
 16 17  1  0  0  0  0
 16 34  1  0  0  0  0
 17 18  1  0  0  0  0
 17 35  1  0  0  0  0
 17 36  1  0  0  0  0
 18 19  1  0  0  0  0
 18 37  1  0  0  0  0
 18 38  1  0  0  0  0
 19 20  1  0  0  0  0
 19 39  1  0  0  0  0
 19 40  1  0  0  0  0
 20 41  1  0  0  0  0
 20 42  1  0  0  0  0
M  END
> <s_m_source_file>
AV-unprocessed.smi

> <i_m_source_file_index>
756

> <i_lp_mmshare_version>
43012

> <i_f3d_flags>
0

> <s_epik_input>
W0NIM11jMVtjSF1zYyg9TyluMVtDSDJdQyg9TylbTkhdW0NIMl1bQ0BAXShbQ0gzXSkoW09IXSlbQ0hdMltDSDJdW0NIMl1bQ0gyXVtDSDJdMg==

> <s_epik_cmdline>
J2VwaWtfcHl0aG9uJywgJy1waCcsICc3LjAnLCAnLXRuJywgJzgnLCAnLW1hJywgJzIwMCcsICctbWV0YWxfYmluZGluZycsICctaW1hZScsICc8aW5maWxlLm1hZT4nLCAnLW9tYWUnLCAnPG91dGZpbGUubWFlPic=

> <r_lp_tautomer_probability>
1

> <r_epik_Ionization_Penalty>
1.53576e-06

> <r_epik_Ionization_Penalty_Charging>
1.31044e-06

> <r_epik_Ionization_Penalty_Neutral>
2.25323e-07

> <r_epik_State_Penalty>
-0

> <r_epik_Charging_Adjusted_Penalty>
1.31044e-06

> <i_epik_Tot_Q>
0

> <i_epik_Tot_abs_Q>
0

> <r_epik_Metal_State_Penalty>
-0

> <b_epik_Metal_Only>
0

> <s_lp_Force_Field>
OPLS_2005

> <r_lp_Energy>
32.8559

> <b_lp_Chiralities_Consistent>
1

> <s_lp_Variant>
AV-unprocessed.smi:756-1

> <Gold.Version>
5.8.1

> <Gold.Id.Protein>
6NUR|6NUR_protein|mol2

> <Gold.PLP.Fitness>
50.0103

> <Gold.PLP.PLP>
-43.2793

> <Gold.PLP.part.hbond>
-4.0000

> <Gold.PLP.part.metal>
0.0000

> <Gold.PLP.part.buried>
-2.4867

> <Gold.PLP.part.nonpolar>
-36.4939

> <Gold.PLP.part.repulsive>
0.0315

> <Gold.PLP.ligand.clash>
0.0000

> <Gold.PLP.ligand.torsion>
1.4096

> <Gold.PLP.Chemscore.Hbond>
3.1680

> <Gold.PLP.Chemscore.CHOScore>
0.0000

> <Gold.PLP.Chemscore.Metal>
0.0000

> <Gold.Chemscore.Hbonds>
donor molecule, donor type, donor heavy atom, donor atom, acceptor molecule, acceptor atom, score
      L1  H    11    27       P1  8028  1.00
      L1  H    15    33       P1  8028  1.00
      P1  H  7997  8010       L1     6  0.63
      P1  H  8011  8017       L1    15  0.26

> <Gold.PLP.Chemscore.Internal.Correction>
0.0462

> <Gold.Rescore>
     Score         DG    S(hbond)    S(metal)    S(lipo)     H(rot)  DE(clash)    DE(int)     intcor
     16.01     -21.11       3.01        0.00      99.60       2.37       0.84       4.27       ----

> <Gold.Chemscore.Fitness>
16.0088

> <Gold.Chemscore.DG>
-21.1107

> <Gold.Chemscore.ZeroCoef>
-5.4800

> <Gold.Chemscore.Hbond>
3.0087

> <Gold.Chemscore.Metal>
0.0000

> <Gold.Chemscore.Lipo>
99.5991

> <Gold.Chemscore.Internal_Hbond>
0.0000

> <Gold.Chemscore.DEClash>
0.8360

> <Gold.Chemscore.DEInternal>
4.2659

> <Gold.Chemscore.Rot>
2.3717

> <Gold.Chemscore.Internal.Correction>
   9.000000E+99

> <Gold.Chemscore.Hbonds>
donor molecule, donor type, donor heavy atom, donor atom, acceptor molecule, acceptor atom, score
      L1  H    11    27       P1  8028  0.99
      L1  H    15    33       P1  8028  0.98
      P1  H  7997  8010       L1     6  0.60
      P1  H  8011  8017       L1    15  0.16

> <Gold.Chemscore.Hbond.Weighted>
-10.0492

> <Gold.Chemscore.Metal.Weighted>
-0.0000

> <Gold.Chemscore.Lipo.Weighted>
-11.6531

> <Gold.Chemscore.Internal_Hbond.Weighted>
0.0000

> <Gold.Chemscore.DEClash.Weighted>
0.8360

> <Gold.Chemscore.DEInternal.Weighted>
4.2659

> <Gold.Chemscore.Rot.Weighted>
6.0715

> <Gold.Chemscore.Internal.Correction.Weighted>
   9.000000E+99

> <Gold.Protein.RotatedTorsions>
[ 6907 6896 6895 6894 ] final  -91.00 input  -60.11 | X-H torsion
[ 7974 7965 7964 7962 ] final  -23.11 input  175.53 | X-H torsion
[ 8008 7997 7996 7995 ] final   40.28 input   59.86 | X-H torsion
[ 10167 10162 10161 10158 ] final    9.88 input  -65.29 | X-H torsion
[ 10718 10713 10712 10709 ] final  -91.07 input   66.30 | X-H torsion
[ 10763 10752 10751 10750 ] final -144.25 input  -60.55 | X-H torsion
[ 11005 11000 10999 10996 ] final  -58.85 input  -57.11 | X-H torsion

> <Gold.Protein.ActiveResidues>
 VAL166  LYS551  ARG553  GLY616  TRP617  ASP618  TYR619  PRO620  LYS621  CYS622 
 ASP623  PHE694  ASN695  SER759  ASP760  ASP761  ALA762  ILE779  LEU786  VAL792 
 PHE793  MET794  SER795  GLU796  ALA797  LYS798  CYS799  TRP800  GLU811  SER814 

> <Gold.Protein.RotatedAtoms>
  150.6887  134.2345  159.4447 H   0  0  0  0  0  0  0  0  0  0  0  0  # atno 6907 bound_to 6896
  152.0293  134.9775  160.0581 H   0  0  0  0  0  0  0  0  0  0  0  0  # atno 6908 bound_to 6896
  152.1320  133.4379  159.4762 H   0  0  0  0  0  0  0  0  0  0  0  0  # atno 6909 bound_to 6896
  146.1636  140.4571  142.8561 H   0  0  0  0  0  0  0  0  0  0  0  0  # atno 7974 bound_to 7965
  155.2504  140.3352  155.4283 H   0  0  0  0  0  0  0  0  0  0  0  0  # atno 8008 bound_to 7997
  156.2218  140.1812  156.7503 H   0  0  0  0  0  0  0  0  0  0  0  0  # atno 8009 bound_to 7997
  154.5837  140.0649  156.9125 H   0  0  0  0  0  0  0  0  0  0  0  0  # atno 8010 bound_to 7997
  140.6228  143.8167  150.7196 H   0  0  0  0  0  0  0  0  0  0  0  0  # atno 10167 bound_to 10162
  155.9991  130.4934  150.5419 H   0  0  0  0  0  0  0  0  0  0  0  0  # atno 10718 bound_to 10713
  154.8436  135.3445  154.6316 H   0  0  0  0  0  0  0  0  0  0  0  0  # atno 10763 bound_to 10752
  153.6926  135.6974  153.5090 H   0  0  0  0  0  0  0  0  0  0  0  0  # atno 10764 bound_to 10752
  153.2584  135.4331  155.0824 H   0  0  0  0  0  0  0  0  0  0  0  0  # atno 10765 bound_to 10752
  141.1224  133.6614  156.4982 H   0  0  0  0  0  0  0  0  0  0  0  0  # atno 11005 bound_to 11000
  144.8061  140.6301  143.6446 LP  0  0  0  0  0  0  0  0  0  0  0  0  # atno 17320 bound_to 7965
  145.4526  139.1522  143.3910 LP  0  0  0  0  0  0  0  0  0  0  0  0  # atno 17321 bound_to 7965
  140.1761  143.4154  152.1966 LP  0  0  0  0  0  0  0  0  0  0  0  0  # atno 17342 bound_to 10162
  139.5453  144.7293  151.4602 LP  0  0  0  0  0  0  0  0  0  0  0  0  # atno 17343 bound_to 10162
  157.3354  131.0707  151.1829 LP  0  0  0  0  0  0  0  0  0  0  0  0  # atno 17370 bound_to 10713
  157.2695  130.6697  149.6013 LP  0  0  0  0  0  0  0  0  0  0  0  0  # atno 17371 bound_to 10713
  140.4467  134.6966  157.5019 LP  0  0  0  0  0  0  0  0  0  0  0  0  # atno 17394 bound_to 11000
  140.0193  134.6572  155.9263 LP  0  0  0  0  0  0  0  0  0  0  0  0  # atno 17395 bound_to 11000

$$$$
