AV-unprocessed.smi:79|AV-procd|sdf|783|dock1
  -GOLD-   2262017143D 1   1.00000     0.00000
 Structure written by MMmdl.
 56 59  0  0  0  0  0  0  0  0  2 V2000
  143.7716  132.9424  150.9734 C   0  0  0  0  0  0  0  0  0  0  0  0
  144.8507  133.2517  149.9250 C   0  0  2  0  0  0  0  0  0  0  0  0
  144.2074  133.5633  148.7076 O   0  0  0  0  0  0  0  0  0  0  0  0
  145.8110  132.0704  149.6788 C   0  0  0  0  0  0  0  0  0  0  0  0
  146.6656  131.7681  150.8554 N   0  3  1  0  0  0  0  0  0  0  0  0
  147.4186  132.9584  151.3272 C   0  0  0  0  0  0  0  0  0  0  0  0
  148.3782  132.5910  152.4715 C   0  0  0  0  0  0  0  0  0  0  0  0
  147.6593  131.9134  153.5481 N   0  0  0  0  0  0  0  0  0  0  0  0
  147.1857  132.7268  154.5283 C   0  0  0  0  0  0  0  0  0  0  0  0
  147.1287  134.0710  154.3309 N   0  0  0  0  0  0  0  0  0  0  0  0
  146.6737  134.8773  155.2944 C   0  0  0  0  0  0  0  0  0  0  0  0
  146.2324  134.5555  156.5113 N   0  0  0  0  0  0  0  0  0  0  0  0
  146.2827  133.2082  156.7156 C   0  0  0  0  0  0  0  0  0  0  0  0
  146.7411  132.2321  155.7866 C   0  0  0  0  0  0  0  0  0  0  0  0
  146.6337  130.9634  156.3431 N   0  0  0  0  0  0  0  0  0  0  0  0
  146.1461  131.1774  157.5347 C   0  0  0  0  0  0  0  0  0  0  0  0
  145.9141  132.4986  157.8458 N   0  0  0  0  0  0  0  0  0  0  0  0
  145.3751  133.0194  159.0930 C   0  0  0  0  0  0  0  0  0  0  0  0
  144.0820  132.3204  159.5527 C   0  0  0  0  0  0  0  0  0  0  0  0
  143.0518  132.3907  158.4073 C   0  0  0  0  0  0  0  0  0  0  0  0
  141.9041  131.6055  158.6621 O   0  0  0  0  0  0  0  0  0  0  0  0
  144.2862  130.9427  160.1991 C   0  0  0  0  0  0  0  0  0  0  0  0
  143.5498  131.3219  161.3829 O   0  0  0  0  0  0  0  0  0  0  0  0
  143.5652  132.6995  160.9481 C   0  0  0  0  0  0  0  0  0  0  0  0
  146.8691  130.7461  153.1428 C   0  0  2  0  0  0  0  0  0  0  0  0
  147.7719  129.5453  152.8118 C   0  0  0  0  0  0  0  0  0  0  0  0
  145.9320  131.0991  151.9647 C   0  0  0  0  0  0  0  0  0  0  0  0
  144.2149  132.7342  151.9474 H   0  0  0  0  0  0  0  0  0  0  0  0
  143.1740  132.0758  150.6877 H   0  0  0  0  0  0  0  0  0  0  0  0
  143.0937  133.7875  151.0991 H   0  0  0  0  0  0  0  0  0  0  0  0
  145.4034  134.1413  150.2252 H   0  0  0  0  0  0  0  0  0  0  0  0
  144.7676  134.1330  148.2023 H   0  0  0  0  0  0  0  0  0  0  0  0
  145.2157  131.1915  149.4259 H   0  0  0  0  0  0  0  0  0  0  0  0
  146.4475  132.2650  148.8138 H   0  0  0  0  0  0  0  0  0  0  0  0
  147.9906  133.3879  150.5041 H   0  0  0  0  0  0  0  0  0  0  0  0
  146.7143  133.7232  151.6593 H   0  0  0  0  0  0  0  0  0  0  0  0
  149.1647  131.9319  152.1038 H   0  0  0  0  0  0  0  0  0  0  0  0
  148.8814  133.4908  152.8245 H   0  0  0  0  0  0  0  0  0  0  0  0
  146.6616  135.9308  155.0569 H   0  0  0  0  0  0  0  0  0  0  0  0
  145.9396  130.3700  158.2219 H   0  0  0  0  0  0  0  0  0  0  0  0
  146.1460  132.9443  159.8612 H   0  0  0  0  0  0  0  0  0  0  0  0
  145.2031  134.0876  158.9546 H   0  0  0  0  0  0  0  0  0  0  0  0
  142.7105  133.4131  158.2463 H   0  0  0  0  0  0  0  0  0  0  0  0
  143.4915  132.0516  157.4688 H   0  0  0  0  0  0  0  0  0  0  0  0
  141.1380  132.1096  158.4346 H   0  0  0  0  0  0  0  0  0  0  0  0
  143.8198  130.1170  159.6608 H   0  0  0  0  0  0  0  0  0  0  0  0
  145.3269  130.7104  160.4299 H   0  0  0  0  0  0  0  0  0  0  0  0
  144.2635  133.2946  161.5372 H   0  0  0  0  0  0  0  0  0  0  0  0
  142.5727  133.1516  160.9501 H   0  0  0  0  0  0  0  0  0  0  0  0
  146.2504  130.4288  153.9835 H   0  0  0  0  0  0  0  0  0  0  0  0
  147.1746  128.6603  152.5908 H   0  0  0  0  0  0  0  0  0  0  0  0
  148.4180  129.3001  153.6552 H   0  0  0  0  0  0  0  0  0  0  0  0
  148.4093  129.7346  151.9482 H   0  0  0  0  0  0  0  0  0  0  0  0
  145.1386  131.7636  152.3088 H   0  0  0  0  0  0  0  0  0  0  0  0
  145.4393  130.1937  151.6127 H   0  0  0  0  0  0  0  0  0  0  0  0
  147.3638  131.1123  150.5354 H   0  0  0  0  0  0  0  0  0  0  0  0
  1  2  1  0  0  0  0
  1 28  1  0  0  0  0
  1 29  1  0  0  0  0
  1 30  1  0  0  0  0
  2  3  1  0  0  0  0
  2  4  1  0  0  0  0
  2 31  1  0  0  0  0
  3 32  1  0  0  0  0
  4  5  1  0  0  0  0
  4 33  1  0  0  0  0
  4 34  1  0  0  0  0
  5 27  1  0  0  0  0
  5  6  1  0  0  0  0
  5 56  1  0  0  0  0
  6  7  1  0  0  0  0
  6 35  1  0  0  0  0
  6 36  1  0  0  0  0
  7  8  1  0  0  0  0
  7 37  1  0  0  0  0
  7 38  1  0  0  0  0
  8  9  1  0  0  0  0
  8 25  1  0  0  0  0
  9 14  1  0  0  0  0
  9 10  2  0  0  0  0
 10 11  1  0  0  0  0
 11 12  2  0  0  0  0
 11 39  1  0  0  0  0
 12 13  1  0  0  0  0
 13 17  1  0  0  0  0
 13 14  2  0  0  0  0
 14 15  1  0  0  0  0
 15 16  2  0  0  0  0
 16 17  1  0  0  0  0
 16 40  1  0  0  0  0
 17 18  1  0  0  0  0
 18 19  1  0  0  0  0
 18 41  1  0  0  0  0
 18 42  1  0  0  0  0
 19 24  1  0  0  0  0
 19 20  1  0  0  0  0
 19 22  1  0  0  0  0
 20 21  1  0  0  0  0
 20 43  1  0  0  0  0
 20 44  1  0  0  0  0
 21 45  1  0  0  0  0
 22 23  1  0  0  0  0
 22 46  1  0  0  0  0
 22 47  1  0  0  0  0
 23 24  1  0  0  0  0
 24 48  1  0  0  0  0
 24 49  1  0  0  0  0
 25 26  1  0  0  0  0
 25 27  1  0  0  0  0
 25 50  1  0  0  0  0
 26 51  1  0  0  0  0
 26 52  1  0  0  0  0
 26 53  1  0  0  0  0
 27 54  1  0  0  0  0
 27 55  1  0  0  0  0
M  CHG  1   5   1
M  END
> <s_m_source_file>
AV-unprocessed.smi

> <i_m_source_file_index>
79

> <i_lp_mmshare_version>
43012

> <i_f3d_flags>
0

> <s_epik_input>
W0NIM11bQ0BIXShbT0hdKVtDSDJdTjFbQ0gyXVtDSDJdTihbQ0BASF0oW0NIM10pW0NIMl0xKWMobltjSF1uMiljKGMyMyluW2NIXW4zW0NIMl1DNChbQ0gyXVtPSF0pW0NIMl1PW0NIMl00

> <s_epik_cmdline>
J2VwaWtfcHl0aG9uJywgJy1waCcsICc3LjAnLCAnLXRuJywgJzgnLCAnLW1hJywgJzIwMCcsICctbWV0YWxfYmluZGluZycsICctaW1hZScsICc8aW5maWxlLm1hZT4nLCAnLW9tYWUnLCAnPG91dGZpbGUubWFlPic=

> <r_lp_tautomer_probability>
1

> <r_epik_Ionization_Penalty>
0.00515943

> <r_epik_Ionization_Penalty_Charging>
0.00509693

> <r_epik_Ionization_Penalty_Neutral>
6.25007e-05

> <r_epik_State_Penalty>
-0

> <r_epik_Charging_Adjusted_Penalty>
0.00509693

> <i_epik_Tot_Q>
1

> <i_epik_Tot_abs_Q>
1

> <r_epik_Metal_State_Penalty>
-0

> <b_epik_Metal_Only>
0

> <s_lp_Force_Field>
OPLS_2005

> <r_lp_Energy>
51.2807

> <b_lp_Chiralities_Consistent>
1

> <s_lp_Variant>
AV-unprocessed.smi:79-7

> <Gold.Version>
5.8.1

> <Gold.Id.Protein>
6NUR|6NUR_protein|mol2

> <Gold.PLP.Fitness>
44.9755

> <Gold.PLP.PLP>
-36.3244

> <Gold.PLP.part.hbond>
-3.1622

> <Gold.PLP.part.metal>
0.0000

> <Gold.PLP.part.buried>
-7.2426

> <Gold.PLP.part.nonpolar>
-26.3177

> <Gold.PLP.part.repulsive>
0.5440

> <Gold.PLP.ligand.clash>
0.0000

> <Gold.PLP.ligand.torsion>
0.6383

> <Gold.PLP.Chemscore.Hbond>
3.0000

> <Gold.PLP.Chemscore.CHOScore>
0.0000

> <Gold.PLP.Chemscore.Metal>
0.0000

> <Gold.Chemscore.Hbonds>
donor molecule, donor type, donor heavy atom, donor atom, acceptor molecule, acceptor atom, score
      L1  H     3    32       P1  7921  1.00
      L1  H     5    56       P1 10747  0.93

> <Gold.PLP.Chemscore.Internal.Correction>
0.9278

> <Gold.Rescore>
     Score         DG    S(hbond)    S(metal)    S(lipo)     H(rot)  DE(clash)    DE(int)     intcor
     14.75     -15.71       2.96        0.00      84.27       3.72       0.00       0.96       ----

> <Gold.Chemscore.Fitness>
14.7506

> <Gold.Chemscore.DG>
-15.7057

> <Gold.Chemscore.ZeroCoef>
-5.4800

> <Gold.Chemscore.Hbond>
2.9627

> <Gold.Chemscore.Metal>
0.0000

> <Gold.Chemscore.Lipo>
84.2731

> <Gold.Chemscore.Internal_Hbond>
0.0000

> <Gold.Chemscore.DEClash>
0.0000

> <Gold.Chemscore.DEInternal>
0.9550

> <Gold.Chemscore.Rot>
3.7226

> <Gold.Chemscore.Internal.Correction>
   9.000000E+99

> <Gold.Chemscore.Hbonds>
donor molecule, donor type, donor heavy atom, donor atom, acceptor molecule, acceptor atom, score
      L1  H     3    32       P1  7921  0.98
      L1  H     5    56       P1 10747  0.89

> <Gold.Chemscore.Hbond.Weighted>
-9.8955

> <Gold.Chemscore.Metal.Weighted>
-0.0000

> <Gold.Chemscore.Lipo.Weighted>
-9.8600

> <Gold.Chemscore.Internal_Hbond.Weighted>
0.0000

> <Gold.Chemscore.DEClash.Weighted>
0.0000

> <Gold.Chemscore.DEInternal.Weighted>
0.9550

> <Gold.Chemscore.Rot.Weighted>
9.5298

> <Gold.Chemscore.Internal.Correction.Weighted>
   9.000000E+99

> <Gold.Protein.RotatedTorsions>
[ 6907 6896 6895 6894 ] final   28.07 input  -60.11 | X-H torsion
[ 7974 7965 7964 7962 ] final  -13.55 input  175.53 | X-H torsion
[ 8008 7997 7996 7995 ] final -133.15 input   59.86 | X-H torsion
[ 10167 10162 10161 10158 ] final -144.64 input  -65.29 | X-H torsion
[ 10718 10713 10712 10709 ] final   -9.14 input   66.30 | X-H torsion
[ 10763 10752 10751 10750 ] final  177.43 input  -60.55 | X-H torsion
[ 11005 11000 10999 10996 ] final  -50.44 input  -57.11 | X-H torsion

> <Gold.Protein.ActiveResidues>
 VAL166  LYS551  ARG553  GLY616  TRP617  ASP618  TYR619  PRO620  LYS621  CYS622 
 ASP623  PHE694  ASN695  SER759  ASP760  ASP761  ALA762  ILE779  LEU786  VAL792 
 PHE793  MET794  SER795  GLU796  ALA797  LYS798  CYS799  TRP800  GLU811  SER814 

> <Gold.Protein.RotatedAtoms>
  152.0115  134.9873  160.0567 H   0  0  0  0  0  0  0  0  0  0  0  0  # atno 6907 bound_to 6896
  152.1424  133.4467  159.4781 H   0  0  0  0  0  0  0  0  0  0  0  0  # atno 6908 bound_to 6896
  150.6866  134.2207  159.4439 H   0  0  0  0  0  0  0  0  0  0  0  0  # atno 6909 bound_to 6896
  146.2110  140.3219  142.8391 H   0  0  0  0  0  0  0  0  0  0  0  0  # atno 7974 bound_to 7965
  155.3407  140.0472  157.3045 H   0  0  0  0  0  0  0  0  0  0  0  0  # atno 8008 bound_to 7997
  154.5279  140.2247  155.8822 H   0  0  0  0  0  0  0  0  0  0  0  0  # atno 8009 bound_to 7997
  156.1758  140.3085  155.9063 H   0  0  0  0  0  0  0  0  0  0  0  0  # atno 8010 bound_to 7997
  139.7880  143.8006  152.2647 H   0  0  0  0  0  0  0  0  0  0  0  0  # atno 10167 bound_to 10162
  156.6924  130.5069  149.5940 H   0  0  0  0  0  0  0  0  0  0  0  0  # atno 10718 bound_to 10713
  154.4944  135.2780  155.1471 H   0  0  0  0  0  0  0  0  0  0  0  0  # atno 10763 bound_to 10752
  154.3129  135.6225  153.5477 H   0  0  0  0  0  0  0  0  0  0  0  0  # atno 10764 bound_to 10752
  152.9893  135.5724  154.5373 H   0  0  0  0  0  0  0  0  0  0  0  0  # atno 10765 bound_to 10752
  141.0816  133.6652  156.3732 H   0  0  0  0  0  0  0  0  0  0  0  0  # atno 11005 bound_to 11000
  144.8914  140.7528  143.5924 LP  0  0  0  0  0  0  0  0  0  0  0  0  # atno 17320 bound_to 7965
  145.3142  139.1809  143.4622 LP  0  0  0  0  0  0  0  0  0  0  0  0  # atno 17321 bound_to 7965
  139.8089  144.7344  150.9724 LP  0  0  0  0  0  0  0  0  0  0  0  0  # atno 17342 bound_to 10162
  140.7820  143.4270  151.0752 LP  0  0  0  0  0  0  0  0  0  0  0  0  # atno 17343 bound_to 10162
  156.1788  130.6485  151.0926 LP  0  0  0  0  0  0  0  0  0  0  0  0  # atno 17370 bound_to 10713
  157.7004  131.0778  150.6839 LP  0  0  0  0  0  0  0  0  0  0  0  0  # atno 17371 bound_to 10713
  140.5455  134.6078  157.5392 LP  0  0  0  0  0  0  0  0  0  0  0  0  # atno 17394 bound_to 11000
  139.9630  134.7419  156.0196 LP  0  0  0  0  0  0  0  0  0  0  0  0  # atno 17395 bound_to 11000

$$$$
