AV-unprocessed.smi:276|AV-procd|sdf|2085|dock10
  -GOLD-   2262021363D 1   1.00000     0.00000
 Structure written by MMmdl.
 57 61  0  0  0  0  0  0  0  0  1 V2000
  151.2929  140.7384  158.0490 C   0  0  0  0  0  0  0  0  0  0  0  0
  151.3139  139.8973  156.9095 O   0  0  0  0  0  0  0  0  0  0  0  0
  150.1416  140.0188  156.1194 C   0  0  1  0  0  0  0  0  0  0  0  0
  150.1447  141.2112  155.1554 C   0  0  0  0  0  0  0  0  0  0  0  0
  149.5248  140.2935  154.0832 C   0  0  2  0  0  0  0  0  0  0  0  0
  148.0575  140.3795  154.0811 N   0  0  0  0  0  0  0  0  0  0  0  0
  147.4881  141.6533  153.6517 C   0  0  0  0  0  0  0  0  0  0  0  0
  147.4020  139.3571  153.4873 C   0  0  0  0  0  0  0  0  0  0  0  0
  147.4256  139.3181  152.1316 N   0  0  0  0  0  0  0  0  0  0  0  0
  146.7905  138.3400  151.4792 C   0  0  0  0  0  0  0  0  0  0  0  0
  146.0907  137.3194  151.9795 N   0  0  0  0  0  0  0  0  0  0  0  0
  146.0789  137.3482  153.3428 C   0  0  0  0  0  0  0  0  0  0  0  0
  146.7075  138.3186  154.1728 C   0  0  0  0  0  0  0  0  0  0  0  0
  146.4830  138.0111  155.5100 N   0  0  0  0  0  0  0  0  0  0  0  0
  145.7564  136.9276  155.4718 C   0  0  0  0  0  0  0  0  0  0  0  0
  145.4670  136.4617  154.2099 N   0  0  0  0  0  0  0  0  0  0  0  0
  144.6861  135.2862  153.8701 C   0  0  0  0  0  0  0  0  0  0  0  0
  145.5720  134.0845  153.4901 C   0  0  1  0  0  0  0  0  0  0  0  0
  145.2341  132.9511  154.2673 O   0  0  0  0  0  0  0  0  0  0  0  0
  145.5082  133.7496  151.9864 C   0  0  1  0  0  0  0  0  0  0  0  0
  146.4294  132.6298  151.4957 C   0  0  0  0  0  0  0  0  0  0  0  0
  145.7267  132.2096  150.2243 C   0  0  0  0  0  0  0  0  0  0  0  0
  144.2574  132.3285  150.6236 C   0  0  0  0  0  0  0  0  0  0  0  0
  144.1920  133.3880  151.5750 O   0  0  0  0  0  0  0  0  0  0  0  0
  150.1267  139.1048  154.8808 C   0  0  0  0  0  0  0  0  0  0  0  0
  151.4335  138.4529  154.3926 C   0  0  0  0  0  0  0  0  0  0  0  0
  150.9787  137.1600  155.0751 C   0  0  0  0  0  0  0  0  0  0  0  0
  149.5442  137.6801  154.9539 C   0  0  0  0  0  0  0  0  0  0  0  0
  152.2106  140.6019  158.6211 H   0  0  0  0  0  0  0  0  0  0  0  0
  150.4513  140.4978  158.6996 H   0  0  0  0  0  0  0  0  0  0  0  0
  151.2273  141.7895  157.7657 H   0  0  0  0  0  0  0  0  0  0  0  0
  149.2163  139.9386  156.6941 H   0  0  0  0  0  0  0  0  0  0  0  0
  149.5403  142.0552  155.4865 H   0  0  0  0  0  0  0  0  0  0  0  0
  151.1536  141.5327  154.8912 H   0  0  0  0  0  0  0  0  0  0  0  0
  149.9822  140.4420  153.1052 H   0  0  0  0  0  0  0  0  0  0  0  0
  146.4516  141.5575  153.3228 H   0  0  0  0  0  0  0  0  0  0  0  0
  148.0649  142.0735  152.8270 H   0  0  0  0  0  0  0  0  0  0  0  0
  147.5000  142.3676  154.4744 H   0  0  0  0  0  0  0  0  0  0  0  0
  146.8504  138.3818  150.4017 H   0  0  0  0  0  0  0  0  0  0  0  0
  145.4126  136.4329  156.3685 H   0  0  0  0  0  0  0  0  0  0  0  0
  144.0420  135.0393  154.7153 H   0  0  0  0  0  0  0  0  0  0  0  0
  144.0267  135.5452  153.0408 H   0  0  0  0  0  0  0  0  0  0  0  0
  146.6073  134.3282  153.7322 H   0  0  0  0  0  0  0  0  0  0  0  0
  144.3009  132.8149  154.2041 H   0  0  0  0  0  0  0  0  0  0  0  0
  145.7578  134.6518  151.4252 H   0  0  0  0  0  0  0  0  0  0  0  0
  147.4535  132.9644  151.3286 H   0  0  0  0  0  0  0  0  0  0  0  0
  146.4537  131.7919  152.1930 H   0  0  0  0  0  0  0  0  0  0  0  0
  145.9561  132.9106  149.4204 H   0  0  0  0  0  0  0  0  0  0  0  0
  145.9995  131.2074  149.8932 H   0  0  0  0  0  0  0  0  0  0  0  0
  143.6076  132.5190  149.7693 H   0  0  0  0  0  0  0  0  0  0  0  0
  143.9204  131.4108  151.1071 H   0  0  0  0  0  0  0  0  0  0  0  0
  151.4746  138.3588  153.3060 H   0  0  0  0  0  0  0  0  0  0  0  0
  152.3535  138.8834  154.7887 H   0  0  0  0  0  0  0  0  0  0  0  0
  151.1853  136.2484  154.5137 H   0  0  0  0  0  0  0  0  0  0  0  0
  151.3161  137.0864  156.1103 H   0  0  0  0  0  0  0  0  0  0  0  0
  148.9110  137.4851  155.8198 H   0  0  0  0  0  0  0  0  0  0  0  0
  149.0796  137.3387  154.0293 H   0  0  0  0  0  0  0  0  0  0  0  0
  1  2  1  0  0  0  0
  1 29  1  0  0  0  0
  1 30  1  0  0  0  0
  1 31  1  0  0  0  0
  2  3  1  0  0  0  0
  3 25  1  0  0  0  0
  3  4  1  0  0  0  0
  3 32  1  0  0  0  0
  4  5  1  0  0  0  0
  4 33  1  0  0  0  0
  4 34  1  0  0  0  0
  5  6  1  0  0  0  0
  5 25  1  0  0  0  0
  5 35  1  0  0  0  0
  6  7  1  0  0  0  0
  6  8  1  0  0  0  0
  7 36  1  0  0  0  0
  7 37  1  0  0  0  0
  7 38  1  0  0  0  0
  8 13  1  0  0  0  0
  8  9  2  0  0  0  0
  9 10  1  0  0  0  0
 10 11  2  0  0  0  0
 10 39  1  0  0  0  0
 11 12  1  0  0  0  0
 12 16  1  0  0  0  0
 12 13  2  0  0  0  0
 13 14  1  0  0  0  0
 14 15  2  0  0  0  0
 15 16  1  0  0  0  0
 15 40  1  0  0  0  0
 16 17  1  0  0  0  0
 17 18  1  0  0  0  0
 17 41  1  0  0  0  0
 17 42  1  0  0  0  0
 18 19  1  0  0  0  0
 18 20  1  0  0  0  0
 18 43  1  0  0  0  0
 19 44  1  0  0  0  0
 20 24  1  0  0  0  0
 20 21  1  0  0  0  0
 20 45  1  0  0  0  0
 21 22  1  0  0  0  0
 21 46  1  0  0  0  0
 21 47  1  0  0  0  0
 22 23  1  0  0  0  0
 22 48  1  0  0  0  0
 22 49  1  0  0  0  0
 23 24  1  0  0  0  0
 23 50  1  0  0  0  0
 23 51  1  0  0  0  0
 25 28  1  0  0  0  0
 25 26  1  0  0  0  0
 26 27  1  0  0  0  0
 26 52  1  0  0  0  0
 26 53  1  0  0  0  0
 27 28  1  0  0  0  0
 27 54  1  0  0  0  0
 27 55  1  0  0  0  0
 28 56  1  0  0  0  0
 28 57  1  0  0  0  0
M  END
> <s_m_source_file>
AV-unprocessed.smi

> <i_m_source_file_index>
276

> <i_lp_mmshare_version>
43012

> <i_f3d_flags>
0

> <s_epik_input>
W0NIMl0xW0NIMl1bQ0gyXUMxMltDQEhdKE9bQ0gzXSlbQ0gyXVtDQEhdMk4oW0NIM10pYyhuW2NIXW4zKWMoYzM0KW5bY0hdbjRbQ0gyXVtDQEhdKFtPSF0pW0NAQEhdNVtDSDJdW0NIMl1bQ0gyXU81

> <s_epik_cmdline>
J2VwaWtfcHl0aG9uJywgJy1waCcsICc3LjAnLCAnLXRuJywgJzgnLCAnLW1hJywgJzIwMCcsICctbWV0YWxfYmluZGluZycsICctaW1hZScsICc8aW5maWxlLm1hZT4nLCAnLW9tYWUnLCAnPG91dGZpbGUubWFlPic=

> <r_lp_tautomer_probability>
1

> <r_epik_Ionization_Penalty>
0.00204117

> <r_epik_Ionization_Penalty_Charging>
0

> <r_epik_Ionization_Penalty_Neutral>
0.00204117

> <r_epik_State_Penalty>
0.00127401

> <r_epik_Charging_Adjusted_Penalty>
0.00127401

> <i_epik_Tot_Q>
0

> <i_epik_Tot_abs_Q>
0

> <r_epik_Metal_State_Penalty>
-0

> <b_epik_Metal_Only>
0

> <s_lp_Force_Field>
OPLS_2005

> <r_lp_Energy>
58.9981

> <b_lp_Chiralities_Consistent>
1

> <s_lp_Variant>
AV-unprocessed.smi:276-16

> <Gold.Version>
5.8.1

> <Gold.Id.Protein>
6NUR|6NUR_protein|mol2

> <Gold.PLP.Fitness>
39.7224

> <Gold.PLP.PLP>
-36.9349

> <Gold.PLP.part.hbond>
-1.0000

> <Gold.PLP.part.metal>
0.0000

> <Gold.PLP.part.buried>
-6.4350

> <Gold.PLP.part.nonpolar>
-32.6390

> <Gold.PLP.part.repulsive>
1.9536

> <Gold.PLP.ligand.clash>
0.0000

> <Gold.PLP.ligand.torsion>
1.4348

> <Gold.PLP.Chemscore.Hbond>
1.0000

> <Gold.PLP.Chemscore.CHOScore>
0.6214

> <Gold.PLP.Chemscore.Metal>
0.0000

> <Gold.Chemscore.Hbonds>
donor molecule, donor type, donor heavy atom, donor atom, acceptor molecule, acceptor atom, score
      L1  H    19    44       P1 10957  0.96

> <Gold.PLP.Chemscore.Internal.Correction>
0.7931

> <Gold.Rescore>
     Score         DG    S(hbond)    S(metal)    S(lipo)     H(rot)  DE(clash)    DE(int)     intcor
     10.42     -12.41       0.91        0.00      92.61       2.72       0.55       1.44       ----

> <Gold.Chemscore.Fitness>
10.4217

> <Gold.Chemscore.DG>
-12.4084

> <Gold.Chemscore.ZeroCoef>
-5.4800

> <Gold.Chemscore.Hbond>
0.9129

> <Gold.Chemscore.Metal>
0.0000

> <Gold.Chemscore.Lipo>
92.6106

> <Gold.Chemscore.Internal_Hbond>
0.0000

> <Gold.Chemscore.DEClash>
0.5492

> <Gold.Chemscore.DEInternal>
1.4375

> <Gold.Chemscore.Rot>
2.7172

> <Gold.Chemscore.Internal.Correction>
   9.000000E+99

> <Gold.Chemscore.Hbonds>
donor molecule, donor type, donor heavy atom, donor atom, acceptor molecule, acceptor atom, score
      L1  H    19    44       P1 10957  0.82

> <Gold.Chemscore.Hbond.Weighted>
-3.0489

> <Gold.Chemscore.Metal.Weighted>
-0.0000

> <Gold.Chemscore.Lipo.Weighted>
-10.8354

> <Gold.Chemscore.Internal_Hbond.Weighted>
0.0000

> <Gold.Chemscore.DEClash.Weighted>
0.5492

> <Gold.Chemscore.DEInternal.Weighted>
1.4375

> <Gold.Chemscore.Rot.Weighted>
6.9560

> <Gold.Chemscore.Internal.Correction.Weighted>
   9.000000E+99

> <Gold.Protein.RotatedTorsions>
[ 6907 6896 6895 6894 ] final   94.28 input  -60.11 | X-H torsion
[ 7974 7965 7964 7962 ] final   53.72 input  175.53 | X-H torsion
[ 8008 7997 7996 7995 ] final  129.09 input   59.86 | X-H torsion
[ 10167 10162 10161 10158 ] final  176.75 input  -65.29 | X-H torsion
[ 10718 10713 10712 10709 ] final -148.00 input   66.30 | X-H torsion
[ 10763 10752 10751 10750 ] final -159.45 input  -60.55 | X-H torsion
[ 11005 11000 10999 10996 ] final -114.33 input  -57.11 | X-H torsion

> <Gold.Protein.ActiveResidues>
 VAL166  LYS551  ARG553  GLY616  TRP617  ASP618  TYR619  PRO620  LYS621  CYS622 
 ASP623  PHE694  ASN695  SER759  ASP760  ASP761  ALA762  ILE779  LEU786  VAL792 
 PHE793  MET794  SER795  GLU796  ALA797  LYS798  CYS799  TRP800  GLU811  SER814 

> <Gold.Protein.RotatedAtoms>
  152.5450  134.1218  159.8401 H   0  0  0  0  0  0  0  0  0  0  0  0  # atno 6907 bound_to 6896
  151.1273  133.5054  159.2607 H   0  0  0  0  0  0  0  0  0  0  0  0  # atno 6908 bound_to 6896
  151.1713  135.0329  159.8807 H   0  0  0  0  0  0  0  0  0  0  0  0  # atno 6909 bound_to 6896
  145.9682  139.4124  143.0206 H   0  0  0  0  0  0  0  0  0  0  0  0  # atno 7974 bound_to 7965
  156.2929  140.2629  156.2542 H   0  0  0  0  0  0  0  0  0  0  0  0  # atno 8008 bound_to 7997
  154.9853  140.0389  157.2314 H   0  0  0  0  0  0  0  0  0  0  0  0  # atno 8009 bound_to 7997
  154.7735  140.2782  155.6124 H   0  0  0  0  0  0  0  0  0  0  0  0  # atno 8010 bound_to 7997
  139.5226  144.2879  152.0489 H   0  0  0  0  0  0  0  0  0  0  0  0  # atno 10167 bound_to 10162
  156.4146  130.7999  151.2218 H   0  0  0  0  0  0  0  0  0  0  0  0  # atno 10718 bound_to 10713
  154.7473  135.3083  154.8621 H   0  0  0  0  0  0  0  0  0  0  0  0  # atno 10763 bound_to 10752
  153.9418  135.6774  153.4748 H   0  0  0  0  0  0  0  0  0  0  0  0  # atno 10764 bound_to 10752
  153.1069  135.4885  154.8894 H   0  0  0  0  0  0  0  0  0  0  0  0  # atno 10765 bound_to 10752
  141.0558  133.9614  157.2756 H   0  0  0  0  0  0  0  0  0  0  0  0  # atno 11005 bound_to 11000
  145.7943  140.9800  143.1032 LP  0  0  0  0  0  0  0  0  0  0  0  0  # atno 17320 bound_to 7965
  144.6830  139.9722  143.7482 LP  0  0  0  0  0  0  0  0  0  0  0  0  # atno 17321 bound_to 7965
  140.2331  144.4347  150.6291 LP  0  0  0  0  0  0  0  0  0  0  0  0  # atno 17342 bound_to 10162
  140.6341  143.2192  151.6432 LP  0  0  0  0  0  0  0  0  0  0  0  0  # atno 17343 bound_to 10162
  157.7507  131.0247  150.3887 LP  0  0  0  0  0  0  0  0  0  0  0  0  # atno 17370 bound_to 10713
  156.4192  130.3949  149.6837 LP  0  0  0  0  0  0  0  0  0  0  0  0  # atno 17371 bound_to 10713
  139.9389  135.0193  156.8645 LP  0  0  0  0  0  0  0  0  0  0  0  0  # atno 17394 bound_to 11000
  140.5966  134.0211  155.7520 LP  0  0  0  0  0  0  0  0  0  0  0  0  # atno 17395 bound_to 11000

$$$$
