AV-unprocessed.smi:2243|AV-procd|sdf|9070|dock3
  -GOLD-   2272012273D 1   1.00000     0.00000
 Structure written by MMmdl.
 33 34  0  0  0  0  0  0  0  0  2 V2000
  153.7699  141.2914  160.5798 C   0  0  0  0  0  0  0  0  0  0  0  0
  152.6123  141.6421  159.6294 C   0  0  2  0  0  0  0  0  0  0  0  0
  152.8735  140.9859  158.3464 N   0  0  0  0  0  0  0  0  0  0  0  0
  152.0519  140.1611  157.6784 C   0  0  0  0  0  0  0  0  0  0  0  0
  150.9359  139.8969  158.1316 O   0  0  0  0  0  0  0  0  0  0  0  0
  152.5738  139.6990  156.5199 N   0  5  0  0  0  0  0  0  0  0  0  0
  151.7677  139.1556  155.5938 C   0  0  0  0  0  0  0  0  0  0  0  0
  151.6364  137.8554  155.3239 N   0  0  0  0  0  0  0  0  0  0  0  0
  150.7058  137.7732  154.2995 C   0  0  0  0  0  0  0  0  0  0  0  0
  150.3147  139.0460  153.9847 C   0  0  0  0  0  0  0  0  0  0  0  0
  150.9800  139.9270  154.7918 O   0  0  0  0  0  0  0  0  0  0  0  0
  152.4195  143.1710  159.4361 C   0  0  0  0  0  0  0  0  0  0  0  0
  152.1656  143.9092  160.7664 C   0  0  0  0  0  0  0  0  0  0  0  0
  151.9057  145.4070  160.5365 C   0  0  0  0  0  0  0  0  0  0  0  0
  150.8070  145.5825  159.6510 O   0  0  0  0  0  0  0  0  0  0  0  0
  151.0493  145.0283  158.3638 C   0  0  0  0  0  0  0  0  0  0  0  0
  151.2602  143.5101  158.4747 C   0  0  0  0  0  0  0  0  0  0  0  0
  153.5756  141.6287  161.5974 H   0  0  0  0  0  0  0  0  0  0  0  0
  154.7065  141.7412  160.2484 H   0  0  0  0  0  0  0  0  0  0  0  0
  153.9201  140.2122  160.6290 H   0  0  0  0  0  0  0  0  0  0  0  0
  151.7008  141.2377  160.0725 H   0  0  0  0  0  0  0  0  0  0  0  0
  153.7718  141.1695  157.9243 H   0  0  0  0  0  0  0  0  0  0  0  0
  150.4003  136.8262  153.8800 H   0  0  0  0  0  0  0  0  0  0  0  0
  149.6258  139.4668  153.2679 H   0  0  0  0  0  0  0  0  0  0  0  0
  153.3363  143.5730  159.0016 H   0  0  0  0  0  0  0  0  0  0  0  0
  151.3079  143.4675  161.2754 H   0  0  0  0  0  0  0  0  0  0  0  0
  153.0172  143.8028  161.4376 H   0  0  0  0  0  0  0  0  0  0  0  0
  151.6738  145.8950  161.4832 H   0  0  0  0  0  0  0  0  0  0  0  0
  152.7930  145.8991  160.1353 H   0  0  0  0  0  0  0  0  0  0  0  0
  150.1935  145.2404  157.7229 H   0  0  0  0  0  0  0  0  0  0  0  0
  151.9154  145.5084  157.9058 H   0  0  0  0  0  0  0  0  0  0  0  0
  151.4520  143.1100  157.4790 H   0  0  0  0  0  0  0  0  0  0  0  0
  150.3403  143.0409  158.8259 H   0  0  0  0  0  0  0  0  0  0  0  0
  1  2  1  0  0  0  0
  1 18  1  0  0  0  0
  1 19  1  0  0  0  0
  1 20  1  0  0  0  0
  2  3  1  0  0  0  0
  2 12  1  0  0  0  0
  2 21  1  0  0  0  0
  3 22  1  0  0  0  0
  3  4  1  0  0  0  0
  4  6  1  0  0  0  0
  4  5  2  0  0  0  0
  6  7  1  0  0  0  0
  7 11  1  0  0  0  0
  7  8  2  0  0  0  0
  8  9  1  0  0  0  0
  9 23  1  0  0  0  0
  9 10  2  0  0  0  0
 10 24  1  0  0  0  0
 10 11  1  0  0  0  0
 12 17  1  0  0  0  0
 12 13  1  0  0  0  0
 12 25  1  0  0  0  0
 13 14  1  0  0  0  0
 13 26  1  0  0  0  0
 13 27  1  0  0  0  0
 14 15  1  0  0  0  0
 14 28  1  0  0  0  0
 14 29  1  0  0  0  0
 15 16  1  0  0  0  0
 16 17  1  0  0  0  0
 16 30  1  0  0  0  0
 16 31  1  0  0  0  0
 17 32  1  0  0  0  0
 17 33  1  0  0  0  0
M  CHG  1   6  -1
M  END
> <s_m_source_file>
AV-unprocessed.smi

> <i_m_source_file_index>
2243

> <i_lp_mmshare_version>
43012

> <i_f3d_flags>
0

> <s_epik_input>
W0NIMl0xW0NIMl1PW0NIMl1bQ0gyXVtDSF0xW0NASF0oW0NIM10pW05IXUMoPU8pW05IXWMybltjSF1bY0hdbzI=

> <s_epik_cmdline>
J2VwaWtfcHl0aG9uJywgJy1waCcsICc3LjAnLCAnLXRuJywgJzgnLCAnLW1hJywgJzIwMCcsICctbWV0YWxfYmluZGluZycsICctaW1hZScsICc8aW5maWxlLm1hZT4nLCAnLW9tYWUnLCAnPG91dGZpbGUubWFlPic=

> <r_lp_tautomer_probability>
0.107061

> <r_epik_Ionization_Penalty>
11.1403

> <r_epik_Ionization_Penalty_Charging>
7.81312

> <r_epik_Ionization_Penalty_Neutral>
3.32719

> <r_epik_State_Penalty>
5.94317

> <r_epik_Charging_Adjusted_Penalty>
13.7563

> <i_epik_Tot_Q>
-1

> <i_epik_Tot_abs_Q>
1

> <r_epik_Metal_State_Penalty>
1.86619

> <b_epik_Metal_Only>
1

> <s_lp_Force_Field>
OPLS_2005

> <r_lp_Energy>
6.48942

> <b_lp_Chiralities_Consistent>
1

> <s_lp_Variant>
AV-unprocessed.smi:2243-9

> <Gold.Version>
5.8.1

> <Gold.Id.Protein>
6NUR|6NUR_protein|mol2

> <Gold.PLP.Fitness>
48.9755

> <Gold.PLP.PLP>
-35.9685

> <Gold.PLP.part.hbond>
-3.3473

> <Gold.PLP.part.metal>
0.0000

> <Gold.PLP.part.buried>
-3.2544

> <Gold.PLP.part.nonpolar>
-29.9730

> <Gold.PLP.part.repulsive>
0.4157

> <Gold.PLP.ligand.clash>
0.0000

> <Gold.PLP.ligand.torsion>
0.8340

> <Gold.PLP.Chemscore.Hbond>
2.9500

> <Gold.PLP.Chemscore.CHOScore>
1.9308

> <Gold.PLP.Chemscore.Metal>
0.0000

> <Gold.Chemscore.Hbonds>
donor molecule, donor type, donor heavy atom, donor atom, acceptor molecule, acceptor atom, score
      P1  H  7989  7998       L1    11  0.75
      P1  H  7997  8008       L1     6  2.00
      L1  C     9    23       P1  7948  0.73
      L1  C     9    23       P1  7949  0.26
      L1  C    10    24       P1  7957  1.00

> <Gold.PLP.Chemscore.Internal.Correction>
0.0326

> <Gold.Rescore>
     Score         DG    S(hbond)    S(metal)    S(lipo)     H(rot)  DE(clash)    DE(int)     intcor
     16.62     -18.12       1.59        0.00      91.23       1.31       0.56       0.95       ----

> <Gold.Chemscore.Fitness>
16.6151

> <Gold.Chemscore.DG>
-18.1209

> <Gold.Chemscore.ZeroCoef>
-5.4800

> <Gold.Chemscore.Hbond>
1.5901

> <Gold.Chemscore.Metal>
0.0000

> <Gold.Chemscore.Lipo>
91.2320

> <Gold.Chemscore.Internal_Hbond>
0.0000

> <Gold.Chemscore.DEClash>
0.5558

> <Gold.Chemscore.DEInternal>
0.9500

> <Gold.Chemscore.Rot>
1.3063

> <Gold.Chemscore.Internal.Correction>
   9.000000E+99

> <Gold.Chemscore.Hbonds>
donor molecule, donor type, donor heavy atom, donor atom, acceptor molecule, acceptor atom, score
      P1  H  7989  7998       L1    11  0.09
      P1  H  7997  8008       L1     6  0.78

> <Gold.Chemscore.Hbond.Weighted>
-5.3110

> <Gold.Chemscore.Metal.Weighted>
-0.0000

> <Gold.Chemscore.Lipo.Weighted>
-10.6741

> <Gold.Chemscore.Internal_Hbond.Weighted>
0.0000

> <Gold.Chemscore.DEClash.Weighted>
0.5558

> <Gold.Chemscore.DEInternal.Weighted>
0.9500

> <Gold.Chemscore.Rot.Weighted>
3.3443

> <Gold.Chemscore.Internal.Correction.Weighted>
   9.000000E+99

> <Gold.Protein.RotatedTorsions>
[ 6907 6896 6895 6894 ] final -154.99 input  -60.11 | X-H torsion
[ 7974 7965 7964 7962 ] final  103.13 input  175.53 | X-H torsion
[ 8008 7997 7996 7995 ] final  -45.16 input   59.86 | X-H torsion
[ 10167 10162 10161 10158 ] final   88.35 input  -65.29 | X-H torsion
[ 10718 10713 10712 10709 ] final -110.79 input   66.30 | X-H torsion
[ 10763 10752 10751 10750 ] final    8.51 input  -60.55 | X-H torsion
[ 11005 11000 10999 10996 ] final -134.21 input  -57.11 | X-H torsion

> <Gold.Protein.ActiveResidues>
 VAL166  LYS551  ARG553  GLY616  TRP617  ASP618  TYR619  PRO620  LYS621  CYS622 
 ASP623  PHE694  ASN695  SER759  ASP760  ASP761  ALA762  ILE779  LEU786  VAL792 
 PHE793  MET794  SER795  GLU796  ALA797  LYS798  CYS799  TRP800  GLU811  SER814 

> <Gold.Protein.RotatedAtoms>
  151.2657  133.4280  159.2618 H   0  0  0  0  0  0  0  0  0  0  0  0  # atno 6907 bound_to 6896
  151.0490  134.9660  159.8212 H   0  0  0  0  0  0  0  0  0  0  0  0  # atno 6908 bound_to 6896
  152.5379  134.2613  159.8989 H   0  0  0  0  0  0  0  0  0  0  0  0  # atno 6909 bound_to 6896
  145.3500  139.2441  143.3563 H   0  0  0  0  0  0  0  0  0  0  0  0  # atno 7974 bound_to 7965
  154.4000  140.1404  156.3802 H   0  0  0  0  0  0  0  0  0  0  0  0  # atno 8008 bound_to 7997
  155.8011  140.3476  155.5383 H   0  0  0  0  0  0  0  0  0  0  0  0  # atno 8009 bound_to 7997
  155.8482  140.0937  157.1682 H   0  0  0  0  0  0  0  0  0  0  0  0  # atno 8010 bound_to 7997
  139.8681  144.6507  150.8980 H   0  0  0  0  0  0  0  0  0  0  0  0  # atno 10167 bound_to 10162
  156.0610  130.5833  150.8285 H   0  0  0  0  0  0  0  0  0  0  0  0  # atno 10718 bound_to 10713
  153.2242  135.6885  153.7964 H   0  0  0  0  0  0  0  0  0  0  0  0  # atno 10763 bound_to 10752
  153.7152  135.3276  155.3256 H   0  0  0  0  0  0  0  0  0  0  0  0  # atno 10764 bound_to 10752
  154.8284  135.4600  154.1102 H   0  0  0  0  0  0  0  0  0  0  0  0  # atno 10765 bound_to 10752
  140.9010  134.1690  157.4460 H   0  0  0  0  0  0  0  0  0  0  0  0  # atno 11005 bound_to 11000
  146.2972  140.4114  142.8717 LP  0  0  0  0  0  0  0  0  0  0  0  0  # atno 17320 bound_to 7965
  144.8725  140.7291  143.6038 LP  0  0  0  0  0  0  0  0  0  0  0  0  # atno 17321 bound_to 7965
  140.7765  143.3687  151.1691 LP  0  0  0  0  0  0  0  0  0  0  0  0  # atno 17342 bound_to 10162
  139.7309  143.9073  152.3019 LP  0  0  0  0  0  0  0  0  0  0  0  0  # atno 17343 bound_to 10162
  157.5619  131.0946  150.9547 LP  0  0  0  0  0  0  0  0  0  0  0  0  # atno 17370 bound_to 10713
  156.9783  130.5517  149.5294 LP  0  0  0  0  0  0  0  0  0  0  0  0  # atno 17371 bound_to 10713
  139.8742  134.9898  156.5474 LP  0  0  0  0  0  0  0  0  0  0  0  0  # atno 17394 bound_to 11000
  140.8229  133.8339  155.8912 LP  0  0  0  0  0  0  0  0  0  0  0  0  # atno 17395 bound_to 11000

$$$$
