AV-unprocessed.smi:352|AV-procd|sdf|2401|dock10
  -GOLD-   2262022333D 1   1.00000     0.00000
 Structure written by MMmdl.
 45 46  0  0  0  0  0  0  0  0  2 V2000
  153.0691  142.9537  160.3325 C   0  0  0  0  0  0  0  0  0  0  0  0
  152.8146  141.7787  159.4521 C   0  0  0  0  0  0  0  0  0  0  0  0
  151.7783  141.4425  158.6276 C   0  0  0  0  0  0  0  0  0  0  0  0
  152.1893  140.1859  158.0948 C   0  0  0  0  0  0  0  0  0  0  0  0
  151.4691  139.3885  157.1683 N   0  0  0  0  0  0  0  0  0  0  0  0
  150.7717  139.7855  156.0906 C   0  0  0  0  0  0  0  0  0  0  0  0
  150.6130  140.9521  155.7340 O   0  0  0  0  0  0  0  0  0  0  0  0
  150.2627  138.7351  155.4305 N   0  0  0  0  0  0  0  0  0  0  0  0
  149.4527  138.8015  154.2132 C   0  0  0  0  0  0  0  0  0  0  0  0
  147.9546  138.4042  154.4301 C   0  0  0  0  0  0  0  0  0  0  0  0
  147.8371  136.9001  154.3291 N   0  3  0  0  0  0  0  0  0  0  0  0
  146.4603  136.3420  154.2830 C   0  0  0  0  0  0  0  0  0  0  0  0
  148.6698  136.1326  155.2925 C   0  0  0  0  0  0  0  0  0  0  0  0
  147.4798  138.9095  155.8263 C   0  0  0  0  0  0  0  0  0  0  0  0
  147.4346  140.4449  155.9497 C   0  0  0  0  0  0  0  0  0  0  0  0
  146.5660  141.0777  154.8548 C   0  0  0  0  0  0  0  0  0  0  0  0
  147.0251  140.6390  153.4583 C   0  0  0  0  0  0  0  0  0  0  0  0
  147.0634  139.1032  153.3504 C   0  0  0  0  0  0  0  0  0  0  0  0
  153.3650  139.7986  158.5536 N   0  0  0  0  0  0  0  0  0  0  0  0
  153.7733  140.8142  159.4260 O   0  0  0  0  0  0  0  0  0  0  0  0
  152.3782  143.7661  160.1063 H   0  0  0  0  0  0  0  0  0  0  0  0
  154.0844  143.3271  160.1974 H   0  0  0  0  0  0  0  0  0  0  0  0
  152.9431  142.6843  161.3812 H   0  0  0  0  0  0  0  0  0  0  0  0
  150.8807  142.0151  158.4489 H   0  0  0  0  0  0  0  0  0  0  0  0
  151.5026  138.3949  157.3424 H   0  0  0  0  0  0  0  0  0  0  0  0
  150.4313  137.8156  155.8119 H   0  0  0  0  0  0  0  0  0  0  0  0
  149.5203  139.8262  153.8498 H   0  0  0  0  0  0  0  0  0  0  0  0
  149.9227  138.2181  153.4229 H   0  0  0  0  0  0  0  0  0  0  0  0
  145.8681  136.6551  155.1427 H   0  0  0  0  0  0  0  0  0  0  0  0
  146.4854  135.2516  154.2807 H   0  0  0  0  0  0  0  0  0  0  0  0
  145.9392  136.6280  153.3699 H   0  0  0  0  0  0  0  0  0  0  0  0
  148.2857  136.2179  156.3093 H   0  0  0  0  0  0  0  0  0  0  0  0
  149.7120  136.4462  155.2901 H   0  0  0  0  0  0  0  0  0  0  0  0
  148.6666  135.0737  155.0321 H   0  0  0  0  0  0  0  0  0  0  0  0
  146.4834  138.5234  156.0421 H   0  0  0  0  0  0  0  0  0  0  0  0
  148.1270  138.5273  156.6157 H   0  0  0  0  0  0  0  0  0  0  0  0
  147.0429  140.7205  156.9293 H   0  0  0  0  0  0  0  0  0  0  0  0
  148.4427  140.8571  155.9044 H   0  0  0  0  0  0  0  0  0  0  0  0
  145.5253  140.7873  155.0041 H   0  0  0  0  0  0  0  0  0  0  0  0
  146.5976  142.1648  154.9341 H   0  0  0  0  0  0  0  0  0  0  0  0
  146.3394  141.0386  152.7105 H   0  0  0  0  0  0  0  0  0  0  0  0
  147.9960  141.0747  153.2273 H   0  0  0  0  0  0  0  0  0  0  0  0
  147.3671  138.8096  152.3458 H   0  0  0  0  0  0  0  0  0  0  0  0
  146.0253  138.7891  153.4505 H   0  0  0  0  0  0  0  0  0  0  0  0
  148.2235  136.6816  153.4219 H   0  0  0  0  0  0  0  0  0  0  0  0
  1  2  1  0  0  0  0
  1 21  1  0  0  0  0
  1 22  1  0  0  0  0
  1 23  1  0  0  0  0
  2 20  1  0  0  0  0
  2  3  2  0  0  0  0
  3  4  1  0  0  0  0
  3 24  1  0  0  0  0
  4  5  1  0  0  0  0
  4 19  2  0  0  0  0
  5  6  1  0  0  0  0
  5 25  1  0  0  0  0
  6  7  2  0  0  0  0
  6  8  1  0  0  0  0
  8  9  1  0  0  0  0
  8 26  1  0  0  0  0
  9 10  1  0  0  0  0
  9 27  1  0  0  0  0
  9 28  1  0  0  0  0
 10 18  1  0  0  0  0
 10 11  1  0  0  0  0
 10 14  1  0  0  0  0
 11 12  1  0  0  0  0
 11 13  1  0  0  0  0
 11 45  1  0  0  0  0
 12 29  1  0  0  0  0
 12 30  1  0  0  0  0
 12 31  1  0  0  0  0
 13 32  1  0  0  0  0
 13 33  1  0  0  0  0
 13 34  1  0  0  0  0
 14 15  1  0  0  0  0
 14 35  1  0  0  0  0
 14 36  1  0  0  0  0
 15 16  1  0  0  0  0
 15 37  1  0  0  0  0
 15 38  1  0  0  0  0
 16 17  1  0  0  0  0
 16 39  1  0  0  0  0
 16 40  1  0  0  0  0
 17 18  1  0  0  0  0
 17 41  1  0  0  0  0
 17 42  1  0  0  0  0
 18 43  1  0  0  0  0
 18 44  1  0  0  0  0
 19 20  1  0  0  0  0
M  CHG  1  11   1
M  END
> <s_m_source_file>
AV-unprocessed.smi

> <i_m_source_file_index>
352

> <i_lp_mmshare_version>
43012

> <i_f3d_flags>
0

> <s_epik_input>
W0NIM11jMVtjSF1jKG5vMSlbTkhdQyg9TylbTkhdW0NIMl1DMihOKFtDSDNdKVtDSDNdKVtDSDJdW0NIMl1bQ0gyXVtDSDJdW0NIMl0y

> <s_epik_cmdline>
J2VwaWtfcHl0aG9uJywgJy1waCcsICc3LjAnLCAnLXRuJywgJzgnLCAnLW1hJywgJzIwMCcsICctbWV0YWxfYmluZGluZycsICctaW1hZScsICc8aW5maWxlLm1hZT4nLCAnLW9tYWUnLCAnPG91dGZpbGUubWFlPic=

> <r_epik_Ionization_Penalty>
0.00254175

> <r_epik_Ionization_Penalty_Charging>
0.00251809

> <r_epik_Ionization_Penalty_Neutral>
2.36624e-05

> <r_epik_State_Penalty>
0.00174714

> <r_epik_Charging_Adjusted_Penalty>
0.00426523

> <i_epik_Tot_Q>
1

> <i_epik_Tot_abs_Q>
1

> <r_epik_Metal_State_Penalty>
-0

> <b_epik_Metal_Only>
0

> <s_lp_Force_Field>
OPLS_2005

> <r_lp_Energy>
33.762

> <b_lp_Chiralities_Consistent>
1

> <s_lp_Variant>
AV-unprocessed.smi:352-1

> <Gold.Version>
5.8.1

> <Gold.Id.Protein>
6NUR|6NUR_protein|mol2

> <Gold.PLP.Fitness>
35.8072

> <Gold.PLP.PLP>
-27.4345

> <Gold.PLP.part.hbond>
-3.0535

> <Gold.PLP.part.metal>
0.0000

> <Gold.PLP.part.buried>
-2.1132

> <Gold.PLP.part.nonpolar>
-21.9315

> <Gold.PLP.part.repulsive>
0.1761

> <Gold.PLP.ligand.clash>
0.0000

> <Gold.PLP.ligand.torsion>
0.8538

> <Gold.PLP.Chemscore.Hbond>
3.3242

> <Gold.PLP.Chemscore.CHOScore>
0.0000

> <Gold.PLP.Chemscore.Metal>
0.0000

> <Gold.Chemscore.Hbonds>
donor molecule, donor type, donor heavy atom, donor atom, acceptor molecule, acceptor atom, score
      L1  H    11    45       P1  7948  2.00
      P1  H  7997  8008       L1    19  1.00

> <Gold.PLP.Chemscore.Internal.Correction>
0.1076

> <Gold.Rescore>
     Score         DG    S(hbond)    S(metal)    S(lipo)     H(rot)  DE(clash)    DE(int)     intcor
     14.32     -15.36       1.68        0.00      70.22       1.55       0.03       1.02       ----

> <Gold.Chemscore.Fitness>
14.3213

> <Gold.Chemscore.DG>
-15.3620

> <Gold.Chemscore.ZeroCoef>
-5.4800

> <Gold.Chemscore.Hbond>
1.6841

> <Gold.Chemscore.Metal>
0.0000

> <Gold.Chemscore.Lipo>
70.2215

> <Gold.Chemscore.Internal_Hbond>
0.0000

> <Gold.Chemscore.DEClash>
0.0250

> <Gold.Chemscore.DEInternal>
1.0156

> <Gold.Chemscore.Rot>
1.5464

> <Gold.Chemscore.Internal.Correction>
   9.000000E+99

> <Gold.Chemscore.Hbonds>
donor molecule, donor type, donor heavy atom, donor atom, acceptor molecule, acceptor atom, score
      L1  H    11    45       P1  7948  1.00
      P1  H  7989  7998       L1     7  0.01
      P1  H  7997  8008       L1    19  0.15

> <Gold.Chemscore.Hbond.Weighted>
-5.6248

> <Gold.Chemscore.Metal.Weighted>
-0.0000

> <Gold.Chemscore.Lipo.Weighted>
-8.2159

> <Gold.Chemscore.Internal_Hbond.Weighted>
0.0000

> <Gold.Chemscore.DEClash.Weighted>
0.0250

> <Gold.Chemscore.DEInternal.Weighted>
1.0156

> <Gold.Chemscore.Rot.Weighted>
3.9588

> <Gold.Chemscore.Internal.Correction.Weighted>
   9.000000E+99

> <Gold.Protein.RotatedTorsions>
[ 6907 6896 6895 6894 ] final  -25.26 input  -60.11 | X-H torsion
[ 7974 7965 7964 7962 ] final   56.62 input  175.53 | X-H torsion
[ 8008 7997 7996 7995 ] final  -85.15 input   59.86 | X-H torsion
[ 10167 10162 10161 10158 ] final -144.28 input  -65.29 | X-H torsion
[ 10718 10713 10712 10709 ] final   45.40 input   66.30 | X-H torsion
[ 10763 10752 10751 10750 ] final  -82.85 input  -60.55 | X-H torsion
[ 11005 11000 10999 10996 ] final   17.95 input  -57.11 | X-H torsion

> <Gold.Protein.ActiveResidues>
 VAL166  LYS551  ARG553  GLY616  TRP617  ASP618  TYR619  PRO620  LYS621  CYS622 
 ASP623  PHE694  ASN695  SER759  ASP760  ASP761  ALA762  ILE779  LEU786  VAL792 
 PHE793  MET794  SER795  GLU796  ALA797  LYS798  CYS799  TRP800  GLU811  SER814 

> <Gold.Protein.RotatedAtoms>
  151.1777  135.0347  159.8778 H   0  0  0  0  0  0  0  0  0  0  0  0  # atno 6907 bound_to 6896
  152.5446  134.1098  159.8364 H   0  0  0  0  0  0  0  0  0  0  0  0  # atno 6908 bound_to 6896
  151.1211  133.5056  159.2634 H   0  0  0  0  0  0  0  0  0  0  0  0  # atno 6909 bound_to 6896
  145.9378  139.3862  143.0382 H   0  0  0  0  0  0  0  0  0  0  0  0  # atno 7974 bound_to 7965
  154.6376  140.0595  156.9807 H   0  0  0  0  0  0  0  0  0  0  0  0  # atno 8008 bound_to 7997
  155.1567  140.3279  155.4401 H   0  0  0  0  0  0  0  0  0  0  0  0  # atno 8009 bound_to 7997
  156.2515  140.1938  156.6676 H   0  0  0  0  0  0  0  0  0  0  0  0  # atno 8010 bound_to 7997
  139.7914  143.7961  152.2650 H   0  0  0  0  0  0  0  0  0  0  0  0  # atno 10167 bound_to 10162
  157.4371  130.8059  149.7658 H   0  0  0  0  0  0  0  0  0  0  0  0  # atno 10718 bound_to 10713
  154.5807  135.5577  153.7183 H   0  0  0  0  0  0  0  0  0  0  0  0  # atno 10763 bound_to 10752
  153.0080  135.6319  154.1986 H   0  0  0  0  0  0  0  0  0  0  0  0  # atno 10764 bound_to 10752
  154.1927  135.2881  155.2997 H   0  0  0  0  0  0  0  0  0  0  0  0  # atno 10765 bound_to 10752
  140.4302  134.1428  155.7680 H   0  0  0  0  0  0  0  0  0  0  0  0  # atno 11005 bound_to 11000
  145.8340  140.9615  143.0834 LP  0  0  0  0  0  0  0  0  0  0  0  0  # atno 17320 bound_to 7965
  144.6774  140.0199  143.7484 LP  0  0  0  0  0  0  0  0  0  0  0  0  # atno 17321 bound_to 7965
  139.8053  144.7357  150.9769 LP  0  0  0  0  0  0  0  0  0  0  0  0  # atno 17342 bound_to 10162
  140.7820  143.4304  151.0704 LP  0  0  0  0  0  0  0  0  0  0  0  0  # atno 17343 bound_to 10162
  155.9934  130.3924  150.2899 LP  0  0  0  0  0  0  0  0  0  0  0  0  # atno 17370 bound_to 10713
  157.1061  131.0209  151.3066 LP  0  0  0  0  0  0  0  0  0  0  0  0  # atno 17371 bound_to 10713
  141.1748  133.8535  157.1455 LP  0  0  0  0  0  0  0  0  0  0  0  0  # atno 17394 bound_to 11000
  140.0139  134.9976  157.0453 LP  0  0  0  0  0  0  0  0  0  0  0  0  # atno 17395 bound_to 11000

$$$$
