AV-unprocessed.smi:1586|AV-procd|sdf|6383|dock3
  -GOLD-   22720 7 13D 1   1.00000     0.00000
 Structure written by MMmdl.
 46 47  0  0  0  0  0  0  0  0  3 V2000
  143.9437  132.1484  150.1965 C   0  0  0  0  0  0  0  0  0  0  0  0
  144.0911  133.4072  151.0639 C   0  0  0  0  0  0  0  0  0  0  0  0
  145.2225  134.2354  150.6398 N   0  0  0  0  0  0  0  0  0  0  0  0
  145.3443  135.5210  151.3321 C   0  0  0  0  0  0  0  0  0  0  0  0
  145.7621  135.3596  152.8091 C   0  0  0  0  0  0  0  0  0  0  0  0
  147.0522  134.6247  152.9220 N   0  3  0  0  0  0  0  0  0  0  0  0
  147.6034  134.4706  154.3079 C   0  0  2  0  0  0  0  0  0  0  0  0
  146.9119  133.3553  155.1304 C   0  0  0  0  0  0  0  0  0  0  0  0
  147.5187  135.8207  155.0594 C   0  0  0  0  0  0  0  0  0  0  0  0
  148.3652  136.8408  154.4506 N   0  0  0  0  0  0  0  0  0  0  0  0
  148.6060  138.0555  154.9614 C   0  0  0  0  0  0  0  0  0  0  0  0
  148.0704  138.3933  156.0194 O   0  0  0  0  0  0  0  0  0  0  0  0
  149.4542  138.7995  154.2155 N   0  5  0  0  0  0  0  0  0  0  0  0
  150.7488  138.8939  154.5571 C   0  0  0  0  0  0  0  0  0  0  0  0
  151.6880  137.8268  154.5856 C   0  0  0  0  0  0  0  0  0  0  0  0
  152.8389  138.4349  155.0001 C   0  0  0  0  0  0  0  0  0  0  0  0
  154.2199  137.9292  155.2431 C   0  0  0  0  0  0  0  0  0  0  0  0
  152.6204  139.7595  155.2190 O   0  0  0  0  0  0  0  0  0  0  0  0
  151.2784  140.0437  154.9396 N   0  0  0  0  0  0  0  0  0  0  0  0
  146.9374  133.3251  152.2059 C   0  0  0  0  0  0  0  0  0  0  0  0
  146.5027  133.5333  150.7400 C   0  0  0  0  0  0  0  0  0  0  0  0
  143.1844  131.4864  150.6128 H   0  0  0  0  0  0  0  0  0  0  0  0
  144.8777  131.5878  150.1488 H   0  0  0  0  0  0  0  0  0  0  0  0
  143.6374  132.3859  149.1783 H   0  0  0  0  0  0  0  0  0  0  0  0
  143.1586  133.9702  151.0709 H   0  0  0  0  0  0  0  0  0  0  0  0
  144.2665  133.0872  152.0917 H   0  0  0  0  0  0  0  0  0  0  0  0
  146.0922  136.1202  150.8110 H   0  0  0  0  0  0  0  0  0  0  0  0
  144.4143  136.0833  151.2607 H   0  0  0  0  0  0  0  0  0  0  0  0
  145.8617  136.3650  153.2168 H   0  0  0  0  0  0  0  0  0  0  0  0
  144.9873  134.8562  153.3882 H   0  0  0  0  0  0  0  0  0  0  0  0
  148.6537  134.1874  154.2189 H   0  0  0  0  0  0  0  0  0  0  0  0
  147.3237  133.2802  156.1370 H   0  0  0  0  0  0  0  0  0  0  0  0
  147.0509  132.3707  154.6839 H   0  0  0  0  0  0  0  0  0  0  0  0
  145.8418  133.5392  155.2312 H   0  0  0  0  0  0  0  0  0  0  0  0
  146.5028  136.2126  155.0726 H   0  0  0  0  0  0  0  0  0  0  0  0
  147.8110  135.6717  156.1007 H   0  0  0  0  0  0  0  0  0  0  0  0
  148.8207  136.6044  153.5811 H   0  0  0  0  0  0  0  0  0  0  0  0
  151.5415  136.7864  154.3365 H   0  0  0  0  0  0  0  0  0  0  0  0
  154.6668  137.5711  154.3158 H   0  0  0  0  0  0  0  0  0  0  0  0
  154.2083  137.1040  155.9549 H   0  0  0  0  0  0  0  0  0  0  0  0
  154.8615  138.7134  155.6458 H   0  0  0  0  0  0  0  0  0  0  0  0
  147.8929  132.8040  152.2026 H   0  0  0  0  0  0  0  0  0  0  0  0
  146.2378  132.6719  152.7290 H   0  0  0  0  0  0  0  0  0  0  0  0
  146.4365  132.5742  150.2248 H   0  0  0  0  0  0  0  0  0  0  0  0
  147.2621  134.1115  150.2119 H   0  0  0  0  0  0  0  0  0  0  0  0
  147.7263  135.1803  152.4149 H   0  0  0  0  0  0  0  0  0  0  0  0
  1  2  1  0  0  0  0
  1 22  1  0  0  0  0
  1 23  1  0  0  0  0
  1 24  1  0  0  0  0
  2  3  1  0  0  0  0
  2 25  1  0  0  0  0
  2 26  1  0  0  0  0
  3 21  1  0  0  0  0
  3  4  1  0  0  0  0
  4  5  1  0  0  0  0
  4 27  1  0  0  0  0
  4 28  1  0  0  0  0
  5  6  1  0  0  0  0
  5 29  1  0  0  0  0
  5 30  1  0  0  0  0
  6  7  1  0  0  0  0
  6 20  1  0  0  0  0
  6 46  1  0  0  0  0
  7  8  1  0  0  0  0
  7  9  1  0  0  0  0
  7 31  1  0  0  0  0
  8 32  1  0  0  0  0
  8 33  1  0  0  0  0
  8 34  1  0  0  0  0
  9 10  1  0  0  0  0
  9 35  1  0  0  0  0
  9 36  1  0  0  0  0
 10 11  1  0  0  0  0
 10 37  1  0  0  0  0
 11 12  2  0  0  0  0
 11 13  1  0  0  0  0
 13 14  1  0  0  0  0
 14 19  2  0  0  0  0
 14 15  1  0  0  0  0
 15 16  2  0  0  0  0
 15 38  1  0  0  0  0
 16 17  1  0  0  0  0
 16 18  1  0  0  0  0
 17 39  1  0  0  0  0
 17 40  1  0  0  0  0
 17 41  1  0  0  0  0
 18 19  1  0  0  0  0
 20 21  1  0  0  0  0
 20 42  1  0  0  0  0
 20 43  1  0  0  0  0
 21 44  1  0  0  0  0
 21 45  1  0  0  0  0
M  CHG  1   6   1
M  CHG  1  13  -1
M  END
> <s_m_source_file>
AV-unprocessed.smi

> <i_m_source_file_index>
1586

> <i_lp_mmshare_version>
43012

> <i_f3d_flags>
0

> <s_epik_input>
W0NIM11bQ0gyXU4xW0NIMl1bQ0gyXU4oW0NIMl1bQ0gyXTEpW0NASF0oW0NIM10pW0NIMl1bTkhdQyg9TylbTkhdYzJbY0hdYyhbQ0gzXSlvbjI=

> <s_epik_cmdline>
J2VwaWtfcHl0aG9uJywgJy1waCcsICc3LjAnLCAnLXRuJywgJzgnLCAnLW1hJywgJzIwMCcsICctbWV0YWxfYmluZGluZycsICctaW1hZScsICc8aW5maWxlLm1hZT4nLCAnLW9tYWUnLCAnPG91dGZpbGUubWFlPic=

> <r_epik_Ionization_Penalty>
6.35599

> <r_epik_Ionization_Penalty_Charging>
6.35441

> <r_epik_Ionization_Penalty_Neutral>
0.00158318

> <r_epik_State_Penalty>
7.1902

> <r_epik_Charging_Adjusted_Penalty>
13.5446

> <i_epik_Tot_Q>
0

> <i_epik_Tot_abs_Q>
2

> <r_epik_Metal_State_Penalty>
3.12491

> <b_epik_Metal_Only>
1

> <s_lp_Force_Field>
OPLS_2005

> <r_lp_Energy>
12.1212

> <b_lp_Chiralities_Consistent>
1

> <s_lp_Variant>
AV-unprocessed.smi:1586-11

> <Gold.Version>
5.8.1

> <Gold.Id.Protein>
6NUR|6NUR_protein|mol2

> <Gold.PLP.Fitness>
42.4223

> <Gold.PLP.PLP>
-31.0961

> <Gold.PLP.part.hbond>
-4.9574

> <Gold.PLP.part.metal>
0.0000

> <Gold.PLP.part.buried>
-0.9477

> <Gold.PLP.part.nonpolar>
-26.3572

> <Gold.PLP.part.repulsive>
0.5017

> <Gold.PLP.ligand.clash>
0.0000

> <Gold.PLP.ligand.torsion>
1.5891

> <Gold.PLP.Chemscore.Hbond>
4.8000

> <Gold.PLP.Chemscore.CHOScore>
0.0000

> <Gold.PLP.Chemscore.Metal>
0.0000

> <Gold.Chemscore.Hbonds>
donor molecule, donor type, donor heavy atom, donor atom, acceptor molecule, acceptor atom, score
      L1  H     6    46       P1  7948  2.00
      L1  H    10    37       P1  7948  1.00
      P1  H  7989  7998       L1    19  0.65
      P1  H  7997  8009       L1    18  0.85

> <Gold.PLP.Chemscore.Internal.Correction>
0.1043

> <Gold.Rescore>
     Score         DG    S(hbond)    S(metal)    S(lipo)     H(rot)  DE(clash)    DE(int)     intcor
     16.03     -19.37       2.92        0.00      73.14       1.73       1.74       1.60       ----

> <Gold.Chemscore.Fitness>
16.0255

> <Gold.Chemscore.DG>
-19.3653

> <Gold.Chemscore.ZeroCoef>
-5.4800

> <Gold.Chemscore.Hbond>
2.9174

> <Gold.Chemscore.Metal>
0.0000

> <Gold.Chemscore.Lipo>
73.1390

> <Gold.Chemscore.Internal_Hbond>
0.0000

> <Gold.Chemscore.DEClash>
1.7425

> <Gold.Chemscore.DEInternal>
1.5973

> <Gold.Chemscore.Rot>
1.7250

> <Gold.Chemscore.Internal.Correction>
   9.000000E+99

> <Gold.Chemscore.Hbonds>
donor molecule, donor type, donor heavy atom, donor atom, acceptor molecule, acceptor atom, score
      L1  H     6    46       P1  7948  0.99
      L1  H    10    37       P1  7948  0.99
      P1  H  7989  7998       L1    19  0.03
      P1  H  7997  8009       L1    18  0.14

> <Gold.Chemscore.Hbond.Weighted>
-9.7441

> <Gold.Chemscore.Metal.Weighted>
-0.0000

> <Gold.Chemscore.Lipo.Weighted>
-8.5573

> <Gold.Chemscore.Internal_Hbond.Weighted>
0.0000

> <Gold.Chemscore.DEClash.Weighted>
1.7425

> <Gold.Chemscore.DEInternal.Weighted>
1.5973

> <Gold.Chemscore.Rot.Weighted>
4.4161

> <Gold.Chemscore.Internal.Correction.Weighted>
   9.000000E+99

> <Gold.Protein.RotatedTorsions>
[ 6907 6896 6895 6894 ] final   87.01 input  -60.11 | X-H torsion
[ 7974 7965 7964 7962 ] final  130.76 input  175.53 | X-H torsion
[ 8008 7997 7996 7995 ] final -151.45 input   59.86 | X-H torsion
[ 10167 10162 10161 10158 ] final -108.25 input  -65.29 | X-H torsion
[ 10718 10713 10712 10709 ] final   31.27 input   66.30 | X-H torsion
[ 10763 10752 10751 10750 ] final -145.44 input  -60.55 | X-H torsion
[ 11005 11000 10999 10996 ] final   -6.74 input  -57.11 | X-H torsion

> <Gold.Protein.ActiveResidues>
 VAL166  LYS551  ARG553  GLY616  TRP617  ASP618  TYR619  PRO620  LYS621  CYS622 
 ASP623  PHE694  ASN695  SER759  ASP760  ASP761  ALA762  ILE779  LEU786  VAL792 
 PHE793  MET794  SER795  GLU796  ALA797  LYS798  CYS799  TRP800  GLU811  SER814 

> <Gold.Protein.RotatedAtoms>
  152.5404  134.2343  159.8836 H   0  0  0  0  0  0  0  0  0  0  0  0  # atno 6907 bound_to 6896
  151.2313  133.4442  159.2611 H   0  0  0  0  0  0  0  0  0  0  0  0  # atno 6908 bound_to 6896
  151.0713  134.9813  159.8366 H   0  0  0  0  0  0  0  0  0  0  0  0  # atno 6909 bound_to 6896
  145.0145  139.4189  143.5228 H   0  0  0  0  0  0  0  0  0  0  0  0  # atno 7974 bound_to 7965
  155.6396  140.0700  157.2623 H   0  0  0  0  0  0  0  0  0  0  0  0  # atno 8008 bound_to 7997
  154.4187  140.1753  156.1608 H   0  0  0  0  0  0  0  0  0  0  0  0  # atno 8009 bound_to 7997
  155.9866  140.3349  155.6717 H   0  0  0  0  0  0  0  0  0  0  0  0  # atno 8010 bound_to 7997
  140.1682  143.4064  152.1374 H   0  0  0  0  0  0  0  0  0  0  0  0  # atno 10167 bound_to 10162
  157.2704  130.7205  149.6501 H   0  0  0  0  0  0  0  0  0  0  0  0  # atno 10718 bound_to 10713
  154.8383  135.3413  154.6505 H   0  0  0  0  0  0  0  0  0  0  0  0  # atno 10763 bound_to 10752
  153.7118  135.6963  153.5040 H   0  0  0  0  0  0  0  0  0  0  0  0  # atno 10764 bound_to 10752
  153.2446  135.4373  155.0688 H   0  0  0  0  0  0  0  0  0  0  0  0  # atno 10765 bound_to 10752
  140.7053  133.8955  155.8712 H   0  0  0  0  0  0  0  0  0  0  0  0  # atno 11005 bound_to 11000
  146.3475  139.9608  142.8717 LP  0  0  0  0  0  0  0  0  0  0  0  0  # atno 17320 bound_to 7965
  145.1978  140.9841  143.4173 LP  0  0  0  0  0  0  0  0  0  0  0  0  # atno 17321 bound_to 7965
  139.5350  144.7200  151.4925 LP  0  0  0  0  0  0  0  0  0  0  0  0  # atno 17342 bound_to 10162
  140.6599  143.8520  150.6876 LP  0  0  0  0  0  0  0  0  0  0  0  0  # atno 17343 bound_to 10162
  155.9663  130.4369  150.5155 LP  0  0  0  0  0  0  0  0  0  0  0  0  # atno 17370 bound_to 10713
  157.3078  131.0658  151.2023 LP  0  0  0  0  0  0  0  0  0  0  0  0  # atno 17371 bound_to 10713
  141.0130  134.0994  157.4202 LP  0  0  0  0  0  0  0  0  0  0  0  0  # atno 17394 bound_to 11000
  139.8886  135.0099  156.6629 LP  0  0  0  0  0  0  0  0  0  0  0  0  # atno 17395 bound_to 11000

$$$$
