AV-unprocessed.smi:2718|AV-procd|sdf|10492|dock3
  -GOLD-   2272014543D 1   1.00000     0.00000
 Structure written by MMmdl.
 47 48  0  0  0  0  0  0  0  0  1 V2000
  146.5226  138.2782  151.6102 C   0  0  0  0  0  0  0  0  0  0  0  0
  145.5825  137.1038  151.7957 C   0  0  0  0  0  0  0  0  0  0  0  0
  144.6634  137.2110  152.9996 C   0  0  0  0  0  0  0  0  0  0  0  0
  145.5836  136.0563  150.9488 C   0  0  0  0  0  0  0  0  0  0  0  0
  144.7183  134.8436  151.0239 C   0  0  2  0  0  0  0  0  0  0  0  0
  144.6156  133.9226  152.2362 C   0  0  2  0  0  0  0  0  0  0  0  0
  145.4226  134.1744  153.4795 C   0  0  0  0  0  0  0  0  0  0  0  0
  146.3431  134.9877  153.5611 O   0  0  0  0  0  0  0  0  0  0  0  0
  145.0376  133.4203  154.5197 N   0  0  0  0  0  0  0  0  0  0  0  0
  145.6232  133.4526  155.8575 C   0  0  0  0  0  0  0  0  0  0  0  0
  147.1218  133.0738  155.8822 C   0  0  1  0  0  0  0  0  0  0  0  0
  147.6435  132.9116  157.3173 C   0  0  0  0  0  0  0  0  0  0  0  0
  147.4344  131.8656  155.0398 C   0  0  0  0  0  0  0  0  0  0  0  0
  146.9775  130.6358  155.3127 N   0  0  0  0  0  0  0  0  0  0  0  0
  147.4763  129.8214  154.3163 N   0  0  0  0  0  0  0  0  0  0  0  0
  148.1902  130.6376  153.5430 C   0  0  0  0  0  0  0  0  0  0  0  0
  148.2092  131.9201  153.9355 N   0  0  0  0  0  0  0  0  0  0  0  0
  148.8928  133.0393  153.3183 C   0  0  0  0  0  0  0  0  0  0  0  0
  145.2863  133.4348  150.9552 C   0  0  0  0  0  0  0  0  0  0  0  0
  144.5544  132.3835  150.1387 C   0  0  0  0  0  0  0  0  0  0  0  0
  146.7893  133.1984  150.8276 C   0  0  0  0  0  0  0  0  0  0  0  0
  145.9559  139.2009  151.4844 H   0  0  0  0  0  0  0  0  0  0  0  0
  147.1590  138.1489  150.7343 H   0  0  0  0  0  0  0  0  0  0  0  0
  147.1667  138.3866  152.4832 H   0  0  0  0  0  0  0  0  0  0  0  0
  145.2520  137.2439  153.9165 H   0  0  0  0  0  0  0  0  0  0  0  0
  143.9730  136.3714  153.0739 H   0  0  0  0  0  0  0  0  0  0  0  0
  144.0717  138.1246  152.9403 H   0  0  0  0  0  0  0  0  0  0  0  0
  146.2696  136.0777  150.1147 H   0  0  0  0  0  0  0  0  0  0  0  0
  143.7902  135.0117  150.4807 H   0  0  0  0  0  0  0  0  0  0  0  0
  143.6229  133.5166  152.4259 H   0  0  0  0  0  0  0  0  0  0  0  0
  144.2759  132.7728  154.3756 H   0  0  0  0  0  0  0  0  0  0  0  0
  145.4677  134.4338  156.3088 H   0  0  0  0  0  0  0  0  0  0  0  0
  145.0598  132.7438  156.4652 H   0  0  0  0  0  0  0  0  0  0  0  0
  147.6618  133.9224  155.4637 H   0  0  0  0  0  0  0  0  0  0  0  0
  148.7179  132.7260  157.3245 H   0  0  0  0  0  0  0  0  0  0  0  0
  147.1577  132.0778  157.8252 H   0  0  0  0  0  0  0  0  0  0  0  0
  147.4600  133.8111  157.9055 H   0  0  0  0  0  0  0  0  0  0  0  0
  148.7165  130.2882  152.6667 H   0  0  0  0  0  0  0  0  0  0  0  0
  149.3739  132.7219  152.3928 H   0  0  0  0  0  0  0  0  0  0  0  0
  149.6512  133.4266  153.9988 H   0  0  0  0  0  0  0  0  0  0  0  0
  148.1784  133.8300  153.0904 H   0  0  0  0  0  0  0  0  0  0  0  0
  144.7891  131.3847  150.5082 H   0  0  0  0  0  0  0  0  0  0  0  0
  144.8444  132.4453  149.0894 H   0  0  0  0  0  0  0  0  0  0  0  0
  143.4750  132.5253  150.2009 H   0  0  0  0  0  0  0  0  0  0  0  0
  147.0574  132.2388  151.2697 H   0  0  0  0  0  0  0  0  0  0  0  0
  147.3779  133.9756  151.3109 H   0  0  0  0  0  0  0  0  0  0  0  0
  147.0776  133.1813  149.7761 H   0  0  0  0  0  0  0  0  0  0  0  0
  1  2  1  0  0  0  0
  1 22  1  0  0  0  0
  1 23  1  0  0  0  0
  1 24  1  0  0  0  0
  2  3  1  0  0  0  0
  2  4  2  0  0  0  0
  3 25  1  0  0  0  0
  3 26  1  0  0  0  0
  3 27  1  0  0  0  0
  4  5  1  0  0  0  0
  4 28  1  0  0  0  0
  5 19  1  0  0  0  0
  5  6  1  0  0  0  0
  5 29  1  0  0  0  0
  6  7  1  0  0  0  0
  6 19  1  0  0  0  0
  6 30  1  0  0  0  0
  7  8  2  0  0  0  0
  7  9  1  0  0  0  0
  9 10  1  0  0  0  0
  9 31  1  0  0  0  0
 10 11  1  0  0  0  0
 10 32  1  0  0  0  0
 10 33  1  0  0  0  0
 11 12  1  0  0  0  0
 11 13  1  0  0  0  0
 11 34  1  0  0  0  0
 12 35  1  0  0  0  0
 12 36  1  0  0  0  0
 12 37  1  0  0  0  0
 13 17  1  0  0  0  0
 13 14  2  0  0  0  0
 14 15  1  0  0  0  0
 15 16  2  0  0  0  0
 16 17  1  0  0  0  0
 16 38  1  0  0  0  0
 17 18  1  0  0  0  0
 18 39  1  0  0  0  0
 18 40  1  0  0  0  0
 18 41  1  0  0  0  0
 19 20  1  0  0  0  0
 19 21  1  0  0  0  0
 20 42  1  0  0  0  0
 20 43  1  0  0  0  0
 20 44  1  0  0  0  0
 21 45  1  0  0  0  0
 21 46  1  0  0  0  0
 21 47  1  0  0  0  0
M  END
> <s_m_source_file>
AV-unprocessed.smi

> <i_m_source_file_index>
2718

> <i_lp_mmshare_version>
43012

> <i_f3d_flags>
0

> <s_epik_input>
W0NIM11DKFtDSDNdKT1bQ0hdW0NAQEhdKEMxKFtDSDNdKVtDSDNdKVtDQEhdMUMoPU8pW05IXVtDSDJdW0NASF0oW0NIM10pYzJubltjSF1uMltDSDNd

> <s_epik_cmdline>
J2VwaWtfcHl0aG9uJywgJy1waCcsICc3LjAnLCAnLXRuJywgJzgnLCAnLW1hJywgJzIwMCcsICctbWV0YWxfYmluZGluZycsICctaW1hZScsICc8aW5maWxlLm1hZT4nLCAnLW9tYWUnLCAnPG91dGZpbGUubWFlPic=

> <r_lp_tautomer_probability>
1

> <r_epik_Ionization_Penalty>
0.000449586

> <r_epik_Ionization_Penalty_Charging>
0

> <r_epik_Ionization_Penalty_Neutral>
0.000449586

> <r_epik_State_Penalty>
0.000243372

> <r_epik_Charging_Adjusted_Penalty>
0.000243372

> <i_epik_Tot_Q>
0

> <i_epik_Tot_abs_Q>
0

> <r_epik_Metal_State_Penalty>
-0

> <b_epik_Metal_Only>
0

> <s_lp_Force_Field>
OPLS_2005

> <r_lp_Energy>
15.6704

> <b_lp_Chiralities_Consistent>
1

> <s_lp_Variant>
AV-unprocessed.smi:2718-7

> <Gold.Version>
5.8.1

> <Gold.Id.Protein>
6NUR|6NUR_protein|mol2

> <Gold.PLP.Fitness>
36.5993

> <Gold.PLP.PLP>
-30.8080

> <Gold.PLP.part.hbond>
-1.0000

> <Gold.PLP.part.metal>
0.0000

> <Gold.PLP.part.buried>
-1.7949

> <Gold.PLP.part.nonpolar>
-28.4177

> <Gold.PLP.part.repulsive>
0.2416

> <Gold.PLP.ligand.clash>
0.0000

> <Gold.PLP.ligand.torsion>
0.2721

> <Gold.PLP.Chemscore.Hbond>
1.0000

> <Gold.PLP.Chemscore.CHOScore>
1.0000

> <Gold.PLP.Chemscore.Metal>
0.0000

> <Gold.Chemscore.Hbonds>
donor molecule, donor type, donor heavy atom, donor atom, acceptor molecule, acceptor atom, score
      L1  H     9    31       P1 10957  1.00
      L1  C    16    38       P1 10747  1.00

> <Gold.PLP.Chemscore.Internal.Correction>
0.3354

> <Gold.Rescore>
     Score         DG    S(hbond)    S(metal)    S(lipo)     H(rot)  DE(clash)    DE(int)     intcor
      9.07     -11.95       0.96        0.00      70.62       1.95       0.17       2.71       ----

> <Gold.Chemscore.Fitness>
9.0733

> <Gold.Chemscore.DG>
-11.9491

> <Gold.Chemscore.ZeroCoef>
-5.4800

> <Gold.Chemscore.Hbond>
0.9602

> <Gold.Chemscore.Metal>
0.0000

> <Gold.Chemscore.Lipo>
70.6196

> <Gold.Chemscore.Internal_Hbond>
0.0000

> <Gold.Chemscore.DEClash>
0.1700

> <Gold.Chemscore.DEInternal>
2.7058

> <Gold.Chemscore.Rot>
1.9533

> <Gold.Chemscore.Internal.Correction>
   9.000000E+99

> <Gold.Chemscore.Hbonds>
donor molecule, donor type, donor heavy atom, donor atom, acceptor molecule, acceptor atom, score
      L1  H     9    31       P1 10957  0.95

> <Gold.Chemscore.Hbond.Weighted>
-3.2071

> <Gold.Chemscore.Metal.Weighted>
-0.0000

> <Gold.Chemscore.Lipo.Weighted>
-8.2625

> <Gold.Chemscore.Internal_Hbond.Weighted>
0.0000

> <Gold.Chemscore.DEClash.Weighted>
0.1700

> <Gold.Chemscore.DEInternal.Weighted>
2.7058

> <Gold.Chemscore.Rot.Weighted>
5.0005

> <Gold.Chemscore.Internal.Correction.Weighted>
   9.000000E+99

> <Gold.Protein.RotatedTorsions>
[ 6907 6896 6895 6894 ] final  152.88 input  -60.11 | X-H torsion
[ 7974 7965 7964 7962 ] final -165.57 input  175.53 | X-H torsion
[ 8008 7997 7996 7995 ] final  158.01 input   59.86 | X-H torsion
[ 10167 10162 10161 10158 ] final   46.16 input  -65.29 | X-H torsion
[ 10718 10713 10712 10709 ] final -124.08 input   66.30 | X-H torsion
[ 10763 10752 10751 10750 ] final  116.16 input  -60.55 | X-H torsion
[ 11005 11000 10999 10996 ] final -111.41 input  -57.11 | X-H torsion

> <Gold.Protein.ActiveResidues>
 VAL166  LYS551  ARG553  GLY616  TRP617  ASP618  TYR619  PRO620  LYS621  CYS622 
 ASP623  PHE694  ASN695  SER759  ASP760  ASP761  ALA762  ILE779  LEU786  VAL792 
 PHE793  MET794  SER795  GLU796  ALA797  LYS798  CYS799  TRP800  GLU811  SER814 

> <Gold.Protein.RotatedAtoms>
  152.0805  133.4150  159.4498 H   0  0  0  0  0  0  0  0  0  0  0  0  # atno 6907 bound_to 6896
  150.6862  134.2987  159.4706 H   0  0  0  0  0  0  0  0  0  0  0  0  # atno 6908 bound_to 6896
  152.0828  134.9459  160.0624 H   0  0  0  0  0  0  0  0  0  0  0  0  # atno 6909 bound_to 6896
  144.7266  140.2794  143.6238 H   0  0  0  0  0  0  0  0  0  0  0  0  # atno 7974 bound_to 7965
  156.2329  140.1870  156.7196 H   0  0  0  0  0  0  0  0  0  0  0  0  # atno 8008 bound_to 7997
  154.6054  140.0630  156.9451 H   0  0  0  0  0  0  0  0  0  0  0  0  # atno 8009 bound_to 7997
  155.2104  140.3299  155.4332 H   0  0  0  0  0  0  0  0  0  0  0  0  # atno 8010 bound_to 7997
  140.3167  144.2755  150.6190 H   0  0  0  0  0  0  0  0  0  0  0  0  # atno 10167 bound_to 10162
  156.1556  130.6566  150.9977 H   0  0  0  0  0  0  0  0  0  0  0  0  # atno 10718 bound_to 10713
  153.5331  135.3574  155.2684 H   0  0  0  0  0  0  0  0  0  0  0  0  # atno 10763 bound_to 10752
  154.8725  135.4073  154.3129 H   0  0  0  0  0  0  0  0  0  0  0  0  # atno 10764 bound_to 10752
  153.3822  135.7068  153.6625 H   0  0  0  0  0  0  0  0  0  0  0  0  # atno 10765 bound_to 10752
  141.0736  133.9339  157.2436 H   0  0  0  0  0  0  0  0  0  0  0  0  # atno 11005 bound_to 11000
  145.7964  139.1947  143.2073 LP  0  0  0  0  0  0  0  0  0  0  0  0  # atno 17320 bound_to 7965
  146.0713  140.7866  142.9687 LP  0  0  0  0  0  0  0  0  0  0  0  0  # atno 17321 bound_to 7965
  140.5520  143.2205  151.7911 LP  0  0  0  0  0  0  0  0  0  0  0  0  # atno 17342 bound_to 10162
  139.4882  144.4464  151.9705 LP  0  0  0  0  0  0  0  0  0  0  0  0  # atno 17343 bound_to 10162
  157.6692  131.0865  150.7653 LP  0  0  0  0  0  0  0  0  0  0  0  0  # atno 17370 bound_to 10713
  156.7718  130.4831  149.5417 LP  0  0  0  0  0  0  0  0  0  0  0  0  # atno 17371 bound_to 10713
  139.9548  135.0168  156.9098 LP  0  0  0  0  0  0  0  0  0  0  0  0  # atno 17394 bound_to 11000
  140.5621  134.0524  155.7402 LP  0  0  0  0  0  0  0  0  0  0  0  0  # atno 17395 bound_to 11000

$$$$
