AV-unprocessed.smi:126|AV-procd|sdf|1151|dock4
  -GOLD-   2262018283D 1   1.00000     0.00000
 Structure written by MMmdl.
 40 42  0  0  0  0  0  0  0  0  1 V2000
  148.2921  132.1951  155.0694 O   0  0  0  0  0  0  0  0  0  0  0  0
  148.6672  133.2189  154.4960 C   0  0  0  0  0  0  0  0  0  0  0  0
  149.6914  134.1523  155.1604 C   0  0  0  0  0  0  0  0  0  0  0  0
  149.2625  135.5675  155.1985 N   0  0  0  0  0  0  0  0  0  0  0  0
  147.9439  135.8719  155.6184 C   0  0  0  0  0  0  0  0  0  0  0  0
  147.1549  134.9831  155.9422 O   0  0  0  0  0  0  0  0  0  0  0  0
  147.6028  137.2898  155.6440 C   0  0  0  0  0  0  0  0  0  0  0  0
  146.3710  137.6711  156.0225 F   0  0  0  0  0  0  0  0  0  0  0  0
  148.5054  138.2289  155.2929 C   0  0  0  0  0  0  0  0  0  0  0  0
  149.7930  137.9174  154.8951 N   0  0  0  0  0  0  0  0  0  0  0  0
  150.7980  138.9844  154.5193 C   0  0  2  0  0  0  0  0  0  0  0  0
  151.9490  139.0248  155.5399 C   0  0  0  0  0  0  0  0  0  0  0  0
  152.0472  140.5008  155.8680 C   0  0  0  0  0  0  0  0  0  0  0  0
  150.6062  140.9559  155.6916 C   0  0  0  0  0  0  0  0  0  0  0  0
  150.1847  140.2424  154.5362 O   0  0  0  0  0  0  0  0  0  0  0  0
  150.1994  136.5667  154.8431 C   0  0  0  0  0  0  0  0  0  0  0  0
  151.3468  136.2688  154.5037 O   0  0  0  0  0  0  0  0  0  0  0  0
  148.2139  133.6305  153.2979 N   0  0  0  0  0  0  0  0  0  0  0  0
  147.2878  132.9897  152.4311 C   0  0  0  0  0  0  0  0  0  0  0  0
  146.8121  133.7330  151.3302 C   0  0  0  0  0  0  0  0  0  0  0  0
  145.9070  133.1583  150.4173 C   0  0  0  0  0  0  0  0  0  0  0  0
  145.4783  131.8292  150.5926 C   0  0  0  0  0  0  0  0  0  0  0  0
  145.9607  131.0739  151.6778 C   0  0  0  0  0  0  0  0  0  0  0  0
  146.8660  131.6471  152.5922 C   0  0  0  0  0  0  0  0  0  0  0  0
  149.8979  133.7903  156.1693 H   0  0  0  0  0  0  0  0  0  0  0  0
  150.6436  134.0381  154.6402 H   0  0  0  0  0  0  0  0  0  0  0  0
  148.1895  139.2599  155.3323 H   0  0  0  0  0  0  0  0  0  0  0  0
  151.1128  138.7558  153.4995 H   0  0  0  0  0  0  0  0  0  0  0  0
  151.6822  138.4543  156.4311 H   0  0  0  0  0  0  0  0  0  0  0  0
  152.8650  138.6129  155.1156 H   0  0  0  0  0  0  0  0  0  0  0  0
  152.4373  140.6921  156.8678 H   0  0  0  0  0  0  0  0  0  0  0  0
  152.6900  141.0049  155.1452 H   0  0  0  0  0  0  0  0  0  0  0  0
  150.0016  140.6689  156.5529 H   0  0  0  0  0  0  0  0  0  0  0  0
  150.5171  142.0335  155.5519 H   0  0  0  0  0  0  0  0  0  0  0  0
  148.5299  134.5409  152.9966 H   0  0  0  0  0  0  0  0  0  0  0  0
  147.1364  134.7531  151.1840 H   0  0  0  0  0  0  0  0  0  0  0  0
  145.5430  133.7369  149.5812 H   0  0  0  0  0  0  0  0  0  0  0  0
  144.7856  131.3872  149.8918 H   0  0  0  0  0  0  0  0  0  0  0  0
  145.6409  130.0505  151.8069 H   0  0  0  0  0  0  0  0  0  0  0  0
  147.2341  131.0335  153.3999 H   0  0  0  0  0  0  0  0  0  0  0  0
  1  2  2  0  0  0  0
  2  3  1  0  0  0  0
  2 18  1  0  0  0  0
  3  4  1  0  0  0  0
  3 25  1  0  0  0  0
  3 26  1  0  0  0  0
  4 16  1  0  0  0  0
  4  5  1  0  0  0  0
  5  6  2  0  0  0  0
  5  7  1  0  0  0  0
  7  8  1  0  0  0  0
  7  9  2  0  0  0  0
  9 10  1  0  0  0  0
  9 27  1  0  0  0  0
 10 11  1  0  0  0  0
 10 16  1  0  0  0  0
 11 15  1  0  0  0  0
 11 12  1  0  0  0  0
 11 28  1  0  0  0  0
 12 13  1  0  0  0  0
 12 29  1  0  0  0  0
 12 30  1  0  0  0  0
 13 14  1  0  0  0  0
 13 31  1  0  0  0  0
 13 32  1  0  0  0  0
 14 15  1  0  0  0  0
 14 33  1  0  0  0  0
 14 34  1  0  0  0  0
 16 17  2  0  0  0  0
 18 19  1  0  0  0  0
 18 35  1  0  0  0  0
 19 24  1  0  0  0  0
 19 20  2  0  0  0  0
 20 21  1  0  0  0  0
 20 36  1  0  0  0  0
 21 22  2  0  0  0  0
 21 37  1  0  0  0  0
 22 23  1  0  0  0  0
 22 38  1  0  0  0  0
 23 24  2  0  0  0  0
 23 39  1  0  0  0  0
 24 40  1  0  0  0  0
M  END
> <s_m_source_file>
AV-unprocessed.smi

> <i_m_source_file_index>
126

> <i_lp_mmshare_version>
43012

> <i_f3d_flags>
0

> <s_epik_input>
W2NIXTFbY0hdW2NIXVtjSF1bY0hdYzFbTkhdQyg9TylbQ0gyXW4yYyg9TyljKEYpW2NIXW4oYzI9TylbQ0BASF0zW0NIMl1bQ0gyXVtDSDJdTzM=

> <s_epik_cmdline>
J2VwaWtfcHl0aG9uJywgJy1waCcsICc3LjAnLCAnLXRuJywgJzgnLCAnLW1hJywgJzIwMCcsICctbWV0YWxfYmluZGluZycsICctaW1hZScsICc8aW5maWxlLm1hZT4nLCAnLW9tYWUnLCAnPG91dGZpbGUubWFlPic=

> <r_lp_tautomer_probability>
1

> <r_epik_Ionization_Penalty>
1.86934e-06

> <r_epik_Ionization_Penalty_Charging>
3.88729e-08

> <r_epik_Ionization_Penalty_Neutral>
1.83046e-06

> <r_epik_State_Penalty>
-0

> <r_epik_Charging_Adjusted_Penalty>
3.88729e-08

> <i_epik_Tot_Q>
0

> <i_epik_Tot_abs_Q>
0

> <r_epik_Metal_State_Penalty>
-0

> <b_epik_Metal_Only>
0

> <s_epik_Chemistry_Notes>
This compound contains an acetal/aminal-like group ( X-CH(R)-Y where X, Y are N, S, or O) that may be acid/base labile, releasing an aldehyde.

> <s_lp_Force_Field>
OPLS_2005

> <r_lp_Energy>
33.0924

> <b_lp_Chiralities_Consistent>
1

> <s_lp_Variant>
AV-unprocessed.smi:126-1

> <Gold.Version>
5.8.1

> <Gold.Id.Protein>
6NUR|6NUR_protein|mol2

> <Gold.PLP.Fitness>
40.6088

> <Gold.PLP.PLP>
-34.9536

> <Gold.PLP.part.hbond>
-3.0000

> <Gold.PLP.part.metal>
0.0000

> <Gold.PLP.part.buried>
-3.6421

> <Gold.PLP.part.nonpolar>
-28.9992

> <Gold.PLP.part.repulsive>
0.8596

> <Gold.PLP.ligand.clash>
0.4721

> <Gold.PLP.ligand.torsion>
0.3513

> <Gold.PLP.Chemscore.Hbond>
2.2713

> <Gold.PLP.Chemscore.CHOScore>
0.0000

> <Gold.PLP.Chemscore.Metal>
0.0000

> <Gold.Chemscore.Hbonds>
donor molecule, donor type, donor heavy atom, donor atom, acceptor molecule, acceptor atom, score
      L1  H    18    35       P1  7948  0.99
      P1  H  7989  7998       L1    15  0.26
      P1  H 10752 10764       L1    17  1.00

> <Gold.PLP.Chemscore.Internal.Correction>
0.0161

> <Gold.Rescore>
     Score         DG    S(hbond)    S(metal)    S(lipo)     H(rot)  DE(clash)    DE(int)     intcor
      9.88     -14.61       1.53        0.00      70.69       1.66       0.43       4.30       ----

> <Gold.Chemscore.Fitness>
9.8844

> <Gold.Chemscore.DG>
-14.6071

> <Gold.Chemscore.ZeroCoef>
-5.4800

> <Gold.Chemscore.Hbond>
1.5304

> <Gold.Chemscore.Metal>
0.0000

> <Gold.Chemscore.Lipo>
70.6866

> <Gold.Chemscore.Internal_Hbond>
0.0000

> <Gold.Chemscore.DEClash>
0.4253

> <Gold.Chemscore.DEInternal>
4.2974

> <Gold.Chemscore.Rot>
1.6621

> <Gold.Chemscore.Internal.Correction>
   9.000000E+99

> <Gold.Chemscore.Hbonds>
donor molecule, donor type, donor heavy atom, donor atom, acceptor molecule, acceptor atom, score
      L1  H    18    35       P1  7948  0.24
      P1  H 10752 10764       L1    17  1.00

> <Gold.Chemscore.Hbond.Weighted>
-5.1117

> <Gold.Chemscore.Metal.Weighted>
-0.0000

> <Gold.Chemscore.Lipo.Weighted>
-8.2703

> <Gold.Chemscore.Internal_Hbond.Weighted>
0.0000

> <Gold.Chemscore.DEClash.Weighted>
0.4253

> <Gold.Chemscore.DEInternal.Weighted>
4.2974

> <Gold.Chemscore.Rot.Weighted>
4.2550

> <Gold.Chemscore.Internal.Correction.Weighted>
   9.000000E+99

> <Gold.Protein.RotatedTorsions>
[ 6907 6896 6895 6894 ] final   36.41 input  -60.11 | X-H torsion
[ 7974 7965 7964 7962 ] final  117.29 input  175.53 | X-H torsion
[ 8008 7997 7996 7995 ] final   63.63 input   59.86 | X-H torsion
[ 10167 10162 10161 10158 ] final  157.32 input  -65.29 | X-H torsion
[ 10718 10713 10712 10709 ] final   57.16 input   66.30 | X-H torsion
[ 10763 10752 10751 10750 ] final  -71.22 input  -60.55 | X-H torsion
[ 11005 11000 10999 10996 ] final -155.09 input  -57.11 | X-H torsion

> <Gold.Protein.ActiveResidues>
 VAL166  LYS551  ARG553  GLY616  TRP617  ASP618  TYR619  PRO620  LYS621  CYS622 
 ASP623  PHE694  ASN695  SER759  ASP760  ASP761  ALA762  ILE779  LEU786  VAL792 
 PHE793  MET794  SER795  GLU796  ALA797  LYS798  CYS799  TRP800  GLU811  SER814 

> <Gold.Protein.RotatedAtoms>
  152.1294  134.9146  160.0559 H   0  0  0  0  0  0  0  0  0  0  0  0  # atno 6907 bound_to 6896
  152.0257  133.3911  159.4284 H   0  0  0  0  0  0  0  0  0  0  0  0  # atno 6908 bound_to 6896
  150.6855  134.3498  159.4948 H   0  0  0  0  0  0  0  0  0  0  0  0  # atno 6909 bound_to 6896
  145.1692  139.3111  143.4477 H   0  0  0  0  0  0  0  0  0  0  0  0  # atno 7974 bound_to 7965
  155.6332  140.3496  155.4690 H   0  0  0  0  0  0  0  0  0  0  0  0  # atno 8008 bound_to 7997
  155.9986  140.1208  157.0593 H   0  0  0  0  0  0  0  0  0  0  0  0  # atno 8009 bound_to 7997
  154.4241  140.1105  156.5651 H   0  0  0  0  0  0  0  0  0  0  0  0  # atno 8010 bound_to 7997
  139.4823  144.4928  151.8283 H   0  0  0  0  0  0  0  0  0  0  0  0  # atno 10167 bound_to 10162
  157.5492  130.8753  149.8937 H   0  0  0  0  0  0  0  0  0  0  0  0  # atno 10718 bound_to 10713
  154.4287  135.5969  153.6055 H   0  0  0  0  0  0  0  0  0  0  0  0  # atno 10763 bound_to 10752
  152.9797  135.5970  154.3865 H   0  0  0  0  0  0  0  0  0  0  0  0  # atno 10764 bound_to 10752
  154.3701  135.2841  155.2250 H   0  0  0  0  0  0  0  0  0  0  0  0  # atno 10765 bound_to 10752
  140.6902  134.4049  157.5220 H   0  0  0  0  0  0  0  0  0  0  0  0  # atno 11005 bound_to 11000
  146.3471  140.1831  142.8589 LP  0  0  0  0  0  0  0  0  0  0  0  0  # atno 17320 bound_to 7965
  145.0251  140.8825  143.5143 LP  0  0  0  0  0  0  0  0  0  0  0  0  # atno 17321 bound_to 7965
  140.4414  144.1981  150.5891 LP  0  0  0  0  0  0  0  0  0  0  0  0  # atno 17342 bound_to 10162
  140.4679  143.2424  151.9130 LP  0  0  0  0  0  0  0  0  0  0  0  0  # atno 17343 bound_to 10162
  156.0562  130.3708  150.1087 LP  0  0  0  0  0  0  0  0  0  0  0  0  # atno 17370 bound_to 10713
  156.9261  130.9698  151.3540 LP  0  0  0  0  0  0  0  0  0  0  0  0  # atno 17371 bound_to 10713
  139.8925  134.8752  156.2265 LP  0  0  0  0  0  0  0  0  0  0  0  0  # atno 17394 bound_to 11000
  141.0247  133.7021  156.1328 LP  0  0  0  0  0  0  0  0  0  0  0  0  # atno 17395 bound_to 11000

$$$$
