AV-unprocessed.smi:109|AV-procd|sdf|1038|dock3
  -GOLD-   2262018 63D 1   1.00000     0.00000
 Structure written by MMmdl.
 58 61  0  0  0  0  0  0  0  0  1 V2000
  147.8572  141.3319  158.2355 O   0  0  0  0  0  0  0  0  0  0  0  0
  148.3012  140.6565  157.0788 C   0  0  0  0  0  0  0  0  0  0  0  0
  149.5330  141.3711  156.4960 C   0  0  0  0  0  0  0  0  0  0  0  0
  150.6808  141.5806  157.5138 C   0  0  1  0  0  0  0  0  0  0  0  0
  151.9335  141.0833  156.9396 N   0  0  0  0  0  0  0  0  0  0  0  0
  152.0122  139.8932  156.3028 C   0  0  0  0  0  0  0  0  0  0  0  0
  152.6448  139.7671  155.1071 N   0  0  0  0  0  0  0  0  0  0  0  0
  152.7108  138.5756  154.5053 C   0  0  0  0  0  0  0  0  0  0  0  0
  152.2218  137.4038  154.9176 N   0  0  0  0  0  0  0  0  0  0  0  0
  151.5850  137.5274  156.1179 C   0  0  0  0  0  0  0  0  0  0  0  0
  151.4373  138.7260  156.8683 C   0  0  0  0  0  0  0  0  0  0  0  0
  150.7392  138.4628  158.0400 N   0  0  0  0  0  0  0  0  0  0  0  0
  150.4940  137.1806  157.9811 C   0  0  0  0  0  0  0  0  0  0  0  0
  150.9600  136.5433  156.8503 N   0  0  0  0  0  0  0  0  0  0  0  0
  150.8656  135.1011  156.4620 C   0  0  1  0  0  0  0  0  0  0  0  0
  150.1580  134.4095  157.4542 O   0  0  0  0  0  0  0  0  0  0  0  0
  148.9848  133.7866  156.9278 C   0  0  1  0  0  0  0  0  0  0  0  0
  147.7578  134.6743  157.2304 C   0  0  0  0  0  0  0  0  0  0  0  0
  147.6274  134.8501  158.6249 O   0  0  0  0  0  0  0  0  0  0  0  0
  149.3333  133.6296  155.4414 C   0  0  1  0  0  0  0  0  0  0  0  0
  148.2337  133.4064  154.5778 O   0  0  0  0  0  0  0  0  0  0  0  0
  150.1294  134.8850  155.1242 C   0  0  1  0  0  0  0  0  0  0  0  0
  149.3020  135.9721  154.7380 O   0  0  0  0  0  0  0  0  0  0  0  0
  150.8661  143.0605  157.9556 C   0  0  0  0  0  0  0  0  0  0  0  0
  152.2761  143.2861  158.5595 C   0  0  0  0  0  0  0  0  0  0  0  0
  152.4991  144.7376  159.0113 C   0  0  0  0  0  0  0  0  0  0  0  0
  151.4309  145.1744  160.0207 C   0  0  0  0  0  0  0  0  0  0  0  0
  150.0270  144.9830  159.4350 C   0  0  0  0  0  0  0  0  0  0  0  0
  149.7998  143.5332  158.9754 C   0  0  0  0  0  0  0  0  0  0  0  0
  151.8987  134.7514  156.4445 H   0  0  0  0  0  0  0  0  0  0  0  0
  148.8455  132.8028  157.3786 H   0  0  0  0  0  0  0  0  0  0  0  0
  150.0018  132.7728  155.3433 H   0  0  0  0  0  0  0  0  0  0  0  0
  150.8569  134.7112  154.3306 H   0  0  0  0  0  0  0  0  0  0  0  0
  148.1043  142.2413  158.1661 H   0  0  0  0  0  0  0  0  0  0  0  0
  148.5429  139.6260  157.3406 H   0  0  0  0  0  0  0  0  0  0  0  0
  147.4816  140.6289  156.3607 H   0  0  0  0  0  0  0  0  0  0  0  0
  149.9039  140.8202  155.6306 H   0  0  0  0  0  0  0  0  0  0  0  0
  149.1886  142.3346  156.1238 H   0  0  0  0  0  0  0  0  0  0  0  0
  150.4187  141.0241  158.4129 H   0  0  0  0  0  0  0  0  0  0  0  0
  152.7057  141.7339  156.9630 H   0  0  0  0  0  0  0  0  0  0  0  0
  153.2299  138.5594  153.5585 H   0  0  0  0  0  0  0  0  0  0  0  0
  149.9653  136.6665  158.7703 H   0  0  0  0  0  0  0  0  0  0  0  0
  147.8145  135.6427  156.7357 H   0  0  0  0  0  0  0  0  0  0  0  0
  146.8413  134.1954  156.8873 H   0  0  0  0  0  0  0  0  0  0  0  0
  148.4465  134.6172  159.0348 H   0  0  0  0  0  0  0  0  0  0  0  0
  147.6775  132.7475  154.9649 H   0  0  0  0  0  0  0  0  0  0  0  0
  149.3038  136.0250  153.7943 H   0  0  0  0  0  0  0  0  0  0  0  0
  150.7752  143.6906  157.0692 H   0  0  0  0  0  0  0  0  0  0  0  0
  152.4209  142.6167  159.4088 H   0  0  0  0  0  0  0  0  0  0  0  0
  153.0513  143.0307  157.8370 H   0  0  0  0  0  0  0  0  0  0  0  0
  153.4907  144.8403  159.4532 H   0  0  0  0  0  0  0  0  0  0  0  0
  152.4767  145.3980  158.1437 H   0  0  0  0  0  0  0  0  0  0  0  0
  151.5302  144.5925  160.9380 H   0  0  0  0  0  0  0  0  0  0  0  0
  151.5815  146.2186  160.2961 H   0  0  0  0  0  0  0  0  0  0  0  0
  149.2759  145.2589  160.1758 H   0  0  0  0  0  0  0  0  0  0  0  0
  149.8892  145.6587  158.5898 H   0  0  0  0  0  0  0  0  0  0  0  0
  148.8014  143.4826  158.5441 H   0  0  0  0  0  0  0  0  0  0  0  0
  149.7995  142.8709  159.8422 H   0  0  0  0  0  0  0  0  0  0  0  0
  1  2  1  0  0  0  0
  1 34  1  0  0  0  0
  2  3  1  0  0  0  0
  2 35  1  0  0  0  0
  2 36  1  0  0  0  0
  3  4  1  0  0  0  0
  3 37  1  0  0  0  0
  3 38  1  0  0  0  0
  4  5  1  0  0  0  0
  4 24  1  0  0  0  0
  4 39  1  0  0  0  0
  5  6  1  0  0  0  0
  5 40  1  0  0  0  0
  6 11  1  0  0  0  0
  6  7  2  0  0  0  0
  7  8  1  0  0  0  0
  8  9  2  0  0  0  0
  8 41  1  0  0  0  0
  9 10  1  0  0  0  0
 10 14  1  0  0  0  0
 10 11  2  0  0  0  0
 11 12  1  0  0  0  0
 12 13  2  0  0  0  0
 13 14  1  0  0  0  0
 13 42  1  0  0  0  0
 14 15  1  0  0  0  0
 15 30  1  0  0  0  0
 15 22  1  0  0  0  0
 15 16  1  0  0  0  0
 16 17  1  0  0  0  0
 17 31  1  0  0  0  0
 17 18  1  0  0  0  0
 17 20  1  0  0  0  0
 18 19  1  0  0  0  0
 18 43  1  0  0  0  0
 18 44  1  0  0  0  0
 19 45  1  0  0  0  0
 20 32  1  0  0  0  0
 20 21  1  0  0  0  0
 20 22  1  0  0  0  0
 21 46  1  0  0  0  0
 22 33  1  0  0  0  0
 22 23  1  0  0  0  0
 23 47  1  0  0  0  0
 24 29  1  0  0  0  0
 24 25  1  0  0  0  0
 24 48  1  0  0  0  0
 25 26  1  0  0  0  0
 25 49  1  0  0  0  0
 25 50  1  0  0  0  0
 26 27  1  0  0  0  0
 26 51  1  0  0  0  0
 26 52  1  0  0  0  0
 27 28  1  0  0  0  0
 27 53  1  0  0  0  0
 27 54  1  0  0  0  0
 28 29  1  0  0  0  0
 28 55  1  0  0  0  0
 28 56  1  0  0  0  0
 29 57  1  0  0  0  0
 29 58  1  0  0  0  0
M  END
> <s_m_source_file>
AV-unprocessed.smi

> <i_m_source_file_index>
109

> <i_lp_mmshare_version>
43012

> <i_f3d_flags>
0

> <s_epik_input>
W0NIMl0xW0NIMl1bQ0gyXVtDSDJdW0NIMl1bQ0hdMVtDQEhdKFtDSDJdW0NIMl1bT0hdKVtOSF1jKG5bY0hdbjIpYyhjMjMpbltjSF1uM1tDQEBIXTRPW0NASF0oW0NIMl1bT0hdKVtDQEBIXShbT0hdKVtDQEhdNFtPSF0=

> <s_epik_cmdline>
J2VwaWtfcHl0aG9uJywgJy1waCcsICc3LjAnLCAnLXRuJywgJzgnLCAnLW1hJywgJzIwMCcsICctbWV0YWxfYmluZGluZycsICctaW1hZScsICc8aW5maWxlLm1hZT4nLCAnLW9tYWUnLCAnPG91dGZpbGUubWFlPic=

> <r_lp_tautomer_probability>
1

> <r_epik_Ionization_Penalty>
0.000793976

> <r_epik_Ionization_Penalty_Charging>
0

> <r_epik_Ionization_Penalty_Neutral>
0.000793976

> <r_epik_State_Penalty>
-0

> <r_epik_Charging_Adjusted_Penalty>
0

> <i_epik_Tot_Q>
0

> <i_epik_Tot_abs_Q>
0

> <r_epik_Metal_State_Penalty>
-0

> <b_epik_Metal_Only>
0

> <s_epik_Chemistry_Notes>
This compound contains an acetal/aminal-like group ( X-CH(R)-Y where X, Y are N, S, or O) that may be acid/base labile, releasing an aldehyde.

> <s_lp_Force_Field>
OPLS_2005

> <r_lp_Energy>
62.3675

> <b_lp_Chiralities_Consistent>
1

> <s_lp_Variant>
AV-unprocessed.smi:109-8

> <Gold.Version>
5.8.1

> <Gold.Id.Protein>
6NUR|6NUR_protein|mol2

> <Gold.PLP.Fitness>
50.2431

> <Gold.PLP.PLP>
-41.9111

> <Gold.PLP.part.hbond>
-5.8463

> <Gold.PLP.part.metal>
0.0000

> <Gold.PLP.part.buried>
-5.9701

> <Gold.PLP.part.nonpolar>
-31.1142

> <Gold.PLP.part.repulsive>
0.2201

> <Gold.PLP.ligand.clash>
0.0000

> <Gold.PLP.ligand.torsion>
1.6013

> <Gold.PLP.Chemscore.Hbond>
3.7625

> <Gold.PLP.Chemscore.CHOScore>
0.0000

> <Gold.PLP.Chemscore.Metal>
0.0000

> <Gold.Chemscore.Hbonds>
donor molecule, donor type, donor heavy atom, donor atom, acceptor molecule, acceptor atom, score
      L1  H    23    47       P1  7948  1.00
      P1  H  6896  6907       L1    16  0.80
      P1  H  7989  7998       L1     7  0.34
      P1  H  7997  8009       L1     7  0.79
      P1  H 10752 10764       L1     9  0.74

> <Gold.PLP.Chemscore.Internal.Correction>
0.2470

> <Gold.Rescore>
     Score         DG    S(hbond)    S(metal)    S(lipo)     H(rot)  DE(clash)    DE(int)     intcor
      9.25     -11.46       2.82        0.00      90.26       5.47       0.49       1.72       ----

> <Gold.Chemscore.Fitness>
9.2502

> <Gold.Chemscore.DG>
-11.4638

> <Gold.Chemscore.ZeroCoef>
-5.4800

> <Gold.Chemscore.Hbond>
2.8195

> <Gold.Chemscore.Metal>
0.0000

> <Gold.Chemscore.Lipo>
90.2568

> <Gold.Chemscore.Internal_Hbond>
0.0000

> <Gold.Chemscore.DEClash>
0.4901

> <Gold.Chemscore.DEInternal>
1.7234

> <Gold.Chemscore.Rot>
5.4662

> <Gold.Chemscore.Internal.Correction>
   9.000000E+99

> <Gold.Chemscore.Hbonds>
donor molecule, donor type, donor heavy atom, donor atom, acceptor molecule, acceptor atom, score
      L1  H    23    47       P1  7948  0.78
      P1  H  6896  6907       L1    16  0.76
      P1  H  7989  7998       L1     7  0.06
      P1  H  7997  8009       L1     7  0.07
      P1  H 10752 10764       L1     9  0.70

> <Gold.Chemscore.Hbond.Weighted>
-9.4172

> <Gold.Chemscore.Metal.Weighted>
-0.0000

> <Gold.Chemscore.Lipo.Weighted>
-10.5601

> <Gold.Chemscore.Internal_Hbond.Weighted>
0.0000

> <Gold.Chemscore.DEClash.Weighted>
0.4901

> <Gold.Chemscore.DEInternal.Weighted>
1.7234

> <Gold.Chemscore.Rot.Weighted>
13.9935

> <Gold.Chemscore.Internal.Correction.Weighted>
   9.000000E+99

> <Gold.Protein.RotatedTorsions>
[ 6907 6896 6895 6894 ] final -105.71 input  -60.11 | X-H torsion
[ 7974 7965 7964 7962 ] final -116.80 input  175.53 | X-H torsion
[ 8008 7997 7996 7995 ] final -129.50 input   59.86 | X-H torsion
[ 10167 10162 10161 10158 ] final   29.21 input  -65.29 | X-H torsion
[ 10718 10713 10712 10709 ] final   79.53 input   66.30 | X-H torsion
[ 10763 10752 10751 10750 ] final  -71.69 input  -60.55 | X-H torsion
[ 11005 11000 10999 10996 ] final  150.08 input  -57.11 | X-H torsion

> <Gold.Protein.ActiveResidues>
 VAL166  LYS551  ARG553  GLY616  TRP617  ASP618  TYR619  PRO620  LYS621  CYS622 
 ASP623  PHE694  ASN695  SER759  ASP760  ASP761  ALA762  ILE779  LEU786  VAL792 
 PHE793  MET794  SER795  GLU796  ALA797  LYS798  CYS799  TRP800  GLU811  SER814 

> <Gold.Protein.RotatedAtoms>
  150.7351  134.0086  159.3661 H   0  0  0  0  0  0  0  0  0  0  0  0  # atno 6907 bound_to 6896
  151.8044  135.0697  160.0414 H   0  0  0  0  0  0  0  0  0  0  0  0  # atno 6908 bound_to 6896
  152.3117  133.5724  159.5722 H   0  0  0  0  0  0  0  0  0  0  0  0  # atno 6909 bound_to 6896
  145.0926  140.8500  143.3973 H   0  0  0  0  0  0  0  0  0  0  0  0  # atno 7974 bound_to 7965
  155.2803  140.0444  157.3015 H   0  0  0  0  0  0  0  0  0  0  0  0  # atno 8008 bound_to 7997
  154.5601  140.2343  155.8317 H   0  0  0  0  0  0  0  0  0  0  0  0  # atno 8009 bound_to 7997
  156.2040  140.3018  155.9594 H   0  0  0  0  0  0  0  0  0  0  0  0  # atno 8010 bound_to 7997
  140.4785  144.0652  150.6258 H   0  0  0  0  0  0  0  0  0  0  0  0  # atno 10167 bound_to 10162
  157.6779  130.9918  150.1946 H   0  0  0  0  0  0  0  0  0  0  0  0  # atno 10718 bound_to 10713
  154.4353  135.5954  153.6095 H   0  0  0  0  0  0  0  0  0  0  0  0  # atno 10763 bound_to 10752
  152.9801  135.5985  154.3789 H   0  0  0  0  0  0  0  0  0  0  0  0  # atno 10764 bound_to 10752
  154.3632  135.2841  155.2287 H   0  0  0  0  0  0  0  0  0  0  0  0  # atno 10765 bound_to 10752
  140.1100  134.8930  157.1922 H   0  0  0  0  0  0  0  0  0  0  0  0  # atno 11005 bound_to 11000
  145.1048  139.2797  143.5667 LP  0  0  0  0  0  0  0  0  0  0  0  0  # atno 17320 bound_to 7965
  146.3531  140.0626  142.8628 LP  0  0  0  0  0  0  0  0  0  0  0  0  # atno 17321 bound_to 7965
  140.3887  143.2764  152.0085 LP  0  0  0  0  0  0  0  0  0  0  0  0  # atno 17342 bound_to 10162
  139.4829  144.6095  151.7460 LP  0  0  0  0  0  0  0  0  0  0  0  0  # atno 17343 bound_to 10162
  156.2650  130.3715  149.8090 LP  0  0  0  0  0  0  0  0  0  0  0  0  # atno 17370 bound_to 10713
  156.5824  130.8471  151.3386 LP  0  0  0  0  0  0  0  0  0  0  0  0  # atno 17371 bound_to 10713
  140.3104  134.3031  155.7268 LP  0  0  0  0  0  0  0  0  0  0  0  0  # atno 17394 bound_to 11000
  141.2128  133.7646  156.9768 LP  0  0  0  0  0  0  0  0  0  0  0  0  # atno 17395 bound_to 11000

$$$$
