AV-unprocessed.smi:1277|AV-procd|sdf|5346|dock5
  -GOLD-   22720 4483D 1   1.00000     0.00000
 Structure written by MMmdl.
 43 44  0  0  0  0  0  0  0  0  1 V2000
  145.0968  136.1158  152.0470 C   0  0  0  0  0  0  0  0  0  0  0  0
  145.5827  137.2005  152.8181 O   0  0  0  0  0  0  0  0  0  0  0  0
  146.3574  138.1069  152.0513 C   0  0  0  0  0  0  0  0  0  0  0  0
  146.8857  139.2129  152.9684 C   0  0  0  0  0  0  0  0  0  0  0  0
  147.9019  138.6667  153.8037 O   0  0  0  0  0  0  0  0  0  0  0  0
  148.7119  139.5331  154.5088 C   0  0  0  0  0  0  0  0  0  0  0  0
  148.6880  140.9014  154.1731 C   0  0  0  0  0  0  0  0  0  0  0  0
  149.5128  141.7926  154.8858 C   0  0  0  0  0  0  0  0  0  0  0  0
  150.3437  141.2824  155.9111 C   0  0  0  0  0  0  0  0  0  0  0  0
  151.1964  142.0846  156.7150 N   0  0  0  0  0  0  0  0  0  0  0  0
  151.5302  141.9097  158.0063 C   0  0  0  0  0  0  0  0  0  0  0  0
  151.0680  141.0282  158.7318 O   0  0  0  0  0  0  0  0  0  0  0  0
  152.5130  142.9469  158.5849 C   0  0  1  0  0  0  0  0  0  0  0  0
  152.0583  144.3665  158.2111 C   0  0  0  0  0  0  0  0  0  0  0  0
  152.5617  145.2438  159.3412 C   0  0  0  0  0  0  0  0  0  0  0  0
  152.5738  144.3313  160.5669 C   0  0  0  0  0  0  0  0  0  0  0  0
  152.6277  142.9581  160.0573 N   0  0  0  0  0  0  0  0  0  0  0  0
  152.8231  141.8767  160.8510 C   0  0  0  0  0  0  0  0  0  0  0  0
  152.8791  142.0817  162.3668 C   0  0  0  0  0  0  0  0  0  0  0  0
  152.9709  140.7372  160.4096 O   0  0  0  0  0  0  0  0  0  0  0  0
  150.2818  139.8999  156.1806 C   0  0  0  0  0  0  0  0  0  0  0  0
  149.4956  139.0400  155.4997 N   0  0  0  0  0  0  0  0  0  0  0  0
  153.5137  142.7681  158.1867 H   0  0  0  0  0  0  0  0  0  0  0  0
  144.5120  135.4491  152.6805 H   0  0  0  0  0  0  0  0  0  0  0  0
  145.9167  135.5385  151.6177 H   0  0  0  0  0  0  0  0  0  0  0  0
  144.4522  136.4640  151.2389 H   0  0  0  0  0  0  0  0  0  0  0  0
  147.1915  137.5820  151.5830 H   0  0  0  0  0  0  0  0  0  0  0  0
  145.7501  138.5405  151.2553 H   0  0  0  0  0  0  0  0  0  0  0  0
  147.2850  140.0305  152.3658 H   0  0  0  0  0  0  0  0  0  0  0  0
  146.0687  139.6068  153.5756 H   0  0  0  0  0  0  0  0  0  0  0  0
  148.0441  141.2631  153.3849 H   0  0  0  0  0  0  0  0  0  0  0  0
  149.4810  142.8443  154.6458 H   0  0  0  0  0  0  0  0  0  0  0  0
  151.5575  142.9166  156.2714 H   0  0  0  0  0  0  0  0  0  0  0  0
  152.4388  144.6837  157.2394 H   0  0  0  0  0  0  0  0  0  0  0  0
  150.9694  144.4349  158.1747 H   0  0  0  0  0  0  0  0  0  0  0  0
  153.5811  145.5621  159.1188 H   0  0  0  0  0  0  0  0  0  0  0  0
  151.9587  146.1407  159.4854 H   0  0  0  0  0  0  0  0  0  0  0  0
  153.4182  144.5671  161.2161 H   0  0  0  0  0  0  0  0  0  0  0  0
  151.6552  144.4621  161.1404 H   0  0  0  0  0  0  0  0  0  0  0  0
  151.9822  142.5879  162.7245 H   0  0  0  0  0  0  0  0  0  0  0  0
  153.7516  142.6729  162.6449 H   0  0  0  0  0  0  0  0  0  0  0  0
  152.9478  141.1228  162.8813 H   0  0  0  0  0  0  0  0  0  0  0  0
  150.8863  139.4666  156.9642 H   0  0  0  0  0  0  0  0  0  0  0  0
  1  2  1  0  0  0  0
  1 24  1  0  0  0  0
  1 25  1  0  0  0  0
  1 26  1  0  0  0  0
  2  3  1  0  0  0  0
  3  4  1  0  0  0  0
  3 27  1  0  0  0  0
  3 28  1  0  0  0  0
  4  5  1  0  0  0  0
  4 29  1  0  0  0  0
  4 30  1  0  0  0  0
  5  6  1  0  0  0  0
  6 22  1  0  0  0  0
  6  7  2  0  0  0  0
  7  8  1  0  0  0  0
  7 31  1  0  0  0  0
  8  9  2  0  0  0  0
  8 32  1  0  0  0  0
  9 10  1  0  0  0  0
  9 21  1  0  0  0  0
 10 11  1  0  0  0  0
 10 33  1  0  0  0  0
 11 12  2  0  0  0  0
 11 13  1  0  0  0  0
 13 23  1  0  0  0  0
 13 17  1  0  0  0  0
 13 14  1  0  0  0  0
 14 15  1  0  0  0  0
 14 34  1  0  0  0  0
 14 35  1  0  0  0  0
 15 16  1  0  0  0  0
 15 36  1  0  0  0  0
 15 37  1  0  0  0  0
 16 17  1  0  0  0  0
 16 38  1  0  0  0  0
 16 39  1  0  0  0  0
 17 18  1  0  0  0  0
 18 19  1  0  0  0  0
 18 20  2  0  0  0  0
 19 40  1  0  0  0  0
 19 41  1  0  0  0  0
 19 42  1  0  0  0  0
 21 22  2  0  0  0  0
 21 43  1  0  0  0  0
M  END
> <s_m_source_file>
AV-unprocessed.smi

> <i_m_source_file_index>
1277

> <i_lp_mmshare_version>
43012

> <i_f3d_flags>
0

> <s_epik_input>
W0NIM11PW0NIMl1bQ0gyXU9jMVtjSF1bY0hdYyhbY0hdbjEpW05IXUMoPU8pW0NAQEhdMltDSDJdW0NIMl1bQ0gyXU4yQyg9TylbQ0gzXQ==

> <s_epik_cmdline>
J2VwaWtfcHl0aG9uJywgJy1waCcsICc3LjAnLCAnLXRuJywgJzgnLCAnLW1hJywgJzIwMCcsICctbWV0YWxfYmluZGluZycsICctaW1hZScsICc8aW5maWxlLm1hZT4nLCAnLW9tYWUnLCAnPG91dGZpbGUubWFlPic=

> <r_lp_tautomer_probability>
1

> <r_epik_Ionization_Penalty>
1.62854e-05

> <r_epik_Ionization_Penalty_Charging>
0

> <r_epik_Ionization_Penalty_Neutral>
1.62854e-05

> <r_epik_State_Penalty>
-0

> <r_epik_Charging_Adjusted_Penalty>
0

> <i_epik_Tot_Q>
0

> <i_epik_Tot_abs_Q>
0

> <r_epik_Metal_State_Penalty>
-0

> <b_epik_Metal_Only>
0

> <s_lp_Force_Field>
OPLS_2005

> <r_lp_Energy>
20.2537

> <b_lp_Chiralities_Consistent>
1

> <s_lp_Variant>
AV-unprocessed.smi:1277-2

> <Gold.Version>
5.8.1

> <Gold.Id.Protein>
6NUR|6NUR_protein|mol2

> <Gold.PLP.Fitness>
49.1414

> <Gold.PLP.PLP>
-50.5212

> <Gold.PLP.part.hbond>
-0.9015

> <Gold.PLP.part.metal>
0.0000

> <Gold.PLP.part.buried>
-1.9793

> <Gold.PLP.part.nonpolar>
-49.0293

> <Gold.PLP.part.repulsive>
1.0704

> <Gold.PLP.ligand.clash>
0.0791

> <Gold.PLP.ligand.torsion>
0.7137

> <Gold.PLP.Chemscore.Hbond>
0.0000

> <Gold.PLP.Chemscore.CHOScore>
0.0000

> <Gold.PLP.Chemscore.Metal>
0.0000

> <Gold.PLP.Chemscore.Internal.Correction>
0.1266

> <Gold.Rescore>
     Score         DG    S(hbond)    S(metal)    S(lipo)     H(rot)  DE(clash)    DE(int)     intcor
      9.05     -14.71       0.59        0.00     103.27       1.89       0.26       5.40       ----

> <Gold.Chemscore.Fitness>
9.0541

> <Gold.Chemscore.DG>
-14.7101

> <Gold.Chemscore.ZeroCoef>
-5.4800

> <Gold.Chemscore.Hbond>
0.5935

> <Gold.Chemscore.Metal>
0.0000

> <Gold.Chemscore.Lipo>
103.2655

> <Gold.Chemscore.Internal_Hbond>
0.0000

> <Gold.Chemscore.DEClash>
0.2598

> <Gold.Chemscore.DEInternal>
5.3962

> <Gold.Chemscore.Rot>
1.8884

> <Gold.Chemscore.Internal.Correction>
   9.000000E+99

> <Gold.Chemscore.Hbond.Weighted>
-1.9823

> <Gold.Chemscore.Metal.Weighted>
-0.0000

> <Gold.Chemscore.Lipo.Weighted>
-12.0821

> <Gold.Chemscore.Internal_Hbond.Weighted>
0.0000

> <Gold.Chemscore.DEClash.Weighted>
0.2598

> <Gold.Chemscore.DEInternal.Weighted>
5.3962

> <Gold.Chemscore.Rot.Weighted>
4.8342

> <Gold.Chemscore.Internal.Correction.Weighted>
   9.000000E+99

> <Gold.Protein.RotatedTorsions>
[ 6907 6896 6895 6894 ] final  105.66 input  -60.11 | X-H torsion
[ 7974 7965 7964 7962 ] final -164.14 input  175.53 | X-H torsion
[ 8008 7997 7996 7995 ] final   78.77 input   59.86 | X-H torsion
[ 10167 10162 10161 10158 ] final -107.26 input  -65.29 | X-H torsion
[ 10718 10713 10712 10709 ] final -111.31 input   66.30 | X-H torsion
[ 10763 10752 10751 10750 ] final  -20.19 input  -60.55 | X-H torsion
[ 11005 11000 10999 10996 ] final -154.02 input  -57.11 | X-H torsion

> <Gold.Protein.ActiveResidues>
 VAL166  LYS551  ARG553  GLY616  TRP617  ASP618  TYR619  PRO620  LYS621  CYS622 
 ASP623  PHE694  ASN695  SER759  ASP760  ASP761  ALA762  ILE779  LEU786  VAL792 
 PHE793  MET794  SER795  GLU796  ALA797  LYS798  CYS799  TRP800  GLU811  SER814 

> <Gold.Protein.RotatedAtoms>
  152.5222  133.9496  159.7665 H   0  0  0  0  0  0  0  0  0  0  0  0  # atno 6907 bound_to 6896
  150.9809  133.6238  159.2730 H   0  0  0  0  0  0  0  0  0  0  0  0  # atno 6908 bound_to 6896
  151.3416  135.0871  159.9426 H   0  0  0  0  0  0  0  0  0  0  0  0  # atno 6909 bound_to 6896
  144.7305  140.3004  143.6205 H   0  0  0  0  0  0  0  0  0  0  0  0  # atno 7974 bound_to 7965
  155.8603  140.3454  155.5752 H   0  0  0  0  0  0  0  0  0  0  0  0  # atno 8008 bound_to 7997
  155.7940  140.0876  157.2012 H   0  0  0  0  0  0  0  0  0  0  0  0  # atno 8009 bound_to 7997
  154.4011  140.1478  156.3184 H   0  0  0  0  0  0  0  0  0  0  0  0  # atno 8010 bound_to 7997
  140.1788  143.3983  152.1297 H   0  0  0  0  0  0  0  0  0  0  0  0  # atno 10167 bound_to 10162
  156.0640  130.5861  150.8356 H   0  0  0  0  0  0  0  0  0  0  0  0  # atno 10718 bound_to 10713
  153.6165  135.6994  153.5327 H   0  0  0  0  0  0  0  0  0  0  0  0  # atno 10763 bound_to 10752
  153.2973  135.4139  155.1220 H   0  0  0  0  0  0  0  0  0  0  0  0  # atno 10764 bound_to 10752
  154.8552  135.3640  154.5705 H   0  0  0  0  0  0  0  0  0  0  0  0  # atno 10765 bound_to 10752
  140.7019  134.3928  157.5208 H   0  0  0  0  0  0  0  0  0  0  0  0  # atno 11005 bound_to 11000
  145.7766  139.1876  143.2182 LP  0  0  0  0  0  0  0  0  0  0  0  0  # atno 17320 bound_to 7965
  146.0868  140.7702  142.9615 LP  0  0  0  0  0  0  0  0  0  0  0  0  # atno 17321 bound_to 7965
  139.5305  144.7153  151.5073 LP  0  0  0  0  0  0  0  0  0  0  0  0  # atno 17342 bound_to 10162
  140.6533  143.8651  150.6808 LP  0  0  0  0  0  0  0  0  0  0  0  0  # atno 17343 bound_to 10162
  157.5669  131.0946  150.9477 LP  0  0  0  0  0  0  0  0  0  0  0  0  # atno 17370 bound_to 10713
  156.9702  130.5488  149.5290 LP  0  0  0  0  0  0  0  0  0  0  0  0  # atno 17371 bound_to 10713
  139.8894  134.8830  156.2420 LP  0  0  0  0  0  0  0  0  0  0  0  0  # atno 17394 bound_to 11000
  141.0157  133.7070  156.1184 LP  0  0  0  0  0  0  0  0  0  0  0  0  # atno 17395 bound_to 11000

$$$$
