AV-unprocessed.smi:1574|AV-procd|sdf|6336|dock3
  -GOLD-   22720 6553D 1   1.00000     0.00000
 Structure written by MMmdl.
 40 41  0  0  0  0  0  0  0  0  1 V2000
  151.6763  144.9177  159.3774 C   0  0  0  0  0  0  0  0  0  0  0  0
  152.6163  143.9394  160.0983 C   0  0  1  0  0  0  0  0  0  0  0  0
  152.2052  143.7394  161.5707 C   0  0  0  0  0  0  0  0  0  0  0  0
  153.1742  142.7996  162.3053 C   0  0  0  0  0  0  0  0  0  0  0  0
  153.3004  141.4504  161.5822 C   0  0  0  0  0  0  0  0  0  0  0  0
  153.7097  141.6414  160.1118 C   0  0  0  0  0  0  0  0  0  0  0  0
  152.7457  142.5822  159.3660 C   0  0  1  0  0  0  0  0  0  0  0  0
  151.4789  141.9390  159.3079 O   0  0  0  0  0  0  0  0  0  0  0  0
  151.4666  140.7106  158.5984 C   0  0  0  0  0  0  0  0  0  0  0  0
  151.3816  141.0010  157.0935 C   0  0  0  0  0  0  0  0  0  0  0  0
  150.9886  139.8138  156.3418 N   0  0  0  0  0  0  0  0  0  0  0  0
  151.6525  139.3062  155.2912 C   0  0  0  0  0  0  0  0  0  0  0  0
  152.6764  139.8054  154.8253 O   0  0  0  0  0  0  0  0  0  0  0  0
  151.0719  138.0390  154.6653 C   0  0  0  0  0  0  0  0  0  0  0  0
  151.0943  136.9417  155.6128 N   0  0  0  0  0  0  0  0  0  0  0  0
  150.1091  136.1868  156.1033 C   0  0  0  0  0  0  0  0  0  0  0  0
  150.5634  135.2910  156.9665 N   0  0  0  0  0  0  0  0  0  0  0  0
  151.9262  135.5371  156.9874 N   0  0  0  0  0  0  0  0  0  0  0  0
  152.2472  136.5157  156.1863 N   0  0  0  0  0  0  0  0  0  0  0  0
  150.6481  144.5553  159.3751 H   0  0  0  0  0  0  0  0  0  0  0  0
  151.9826  145.0665  158.3418 H   0  0  0  0  0  0  0  0  0  0  0  0
  151.6801  145.8927  159.8651 H   0  0  0  0  0  0  0  0  0  0  0  0
  153.6057  144.3990  160.0972 H   0  0  0  0  0  0  0  0  0  0  0  0
  152.1750  144.7016  162.0829 H   0  0  0  0  0  0  0  0  0  0  0  0
  151.1942  143.3336  161.6224 H   0  0  0  0  0  0  0  0  0  0  0  0
  154.1561  143.2693  162.3750 H   0  0  0  0  0  0  0  0  0  0  0  0
  152.8331  142.6413  163.3288 H   0  0  0  0  0  0  0  0  0  0  0  0
  154.0312  140.8223  162.0923 H   0  0  0  0  0  0  0  0  0  0  0  0
  152.3491  140.9186  161.6335 H   0  0  0  0  0  0  0  0  0  0  0  0
  154.7194  142.0516  160.0697 H   0  0  0  0  0  0  0  0  0  0  0  0
  153.7510  140.6751  159.6084 H   0  0  0  0  0  0  0  0  0  0  0  0
  153.1440  142.7475  158.3627 H   0  0  0  0  0  0  0  0  0  0  0  0
  152.3576  140.1203  158.8169 H   0  0  0  0  0  0  0  0  0  0  0  0
  150.6023  140.1251  158.9148 H   0  0  0  0  0  0  0  0  0  0  0  0
  150.6262  141.7665  156.9159 H   0  0  0  0  0  0  0  0  0  0  0  0
  152.3248  141.4060  156.7231 H   0  0  0  0  0  0  0  0  0  0  0  0
  150.1531  139.3372  156.6488 H   0  0  0  0  0  0  0  0  0  0  0  0
  150.0401  138.2165  154.3589 H   0  0  0  0  0  0  0  0  0  0  0  0
  151.6311  137.7614  153.7703 H   0  0  0  0  0  0  0  0  0  0  0  0
  149.0692  136.2960  155.8330 H   0  0  0  0  0  0  0  0  0  0  0  0
  1  2  1  0  0  0  0
  1 20  1  0  0  0  0
  1 21  1  0  0  0  0
  1 22  1  0  0  0  0
  2  7  1  0  0  0  0
  2  3  1  0  0  0  0
  2 23  1  0  0  0  0
  3  4  1  0  0  0  0
  3 24  1  0  0  0  0
  3 25  1  0  0  0  0
  4  5  1  0  0  0  0
  4 26  1  0  0  0  0
  4 27  1  0  0  0  0
  5  6  1  0  0  0  0
  5 28  1  0  0  0  0
  5 29  1  0  0  0  0
  6  7  1  0  0  0  0
  6 30  1  0  0  0  0
  6 31  1  0  0  0  0
  7  8  1  0  0  0  0
  7 32  1  0  0  0  0
  8  9  1  0  0  0  0
  9 10  1  0  0  0  0
  9 33  1  0  0  0  0
  9 34  1  0  0  0  0
 10 11  1  0  0  0  0
 10 35  1  0  0  0  0
 10 36  1  0  0  0  0
 11 12  1  0  0  0  0
 11 37  1  0  0  0  0
 12 13  2  0  0  0  0
 12 14  1  0  0  0  0
 14 15  1  0  0  0  0
 14 38  1  0  0  0  0
 14 39  1  0  0  0  0
 15 19  1  0  0  0  0
 15 16  1  0  0  0  0
 16 17  2  0  0  0  0
 16 40  1  0  0  0  0
 17 18  1  0  0  0  0
 18 19  2  0  0  0  0
M  END
> <s_m_source_file>
AV-unprocessed.smi

> <i_m_source_file_index>
1574

> <i_lp_mmshare_version>
43012

> <i_f3d_flags>
0

> <s_epik_input>
W0NIM11bQ0BASF0xW0NIMl1bQ0gyXVtDSDJdW0NIMl1bQ0BIXTFPW0NIMl1bQ0gyXVtOSF1DKD1PKVtDSDJdbjJbY0hdbm5uMg==

> <s_epik_cmdline>
J2VwaWtfcHl0aG9uJywgJy1waCcsICc3LjAnLCAnLXRuJywgJzgnLCAnLW1hJywgJzIwMCcsICctbWV0YWxfYmluZGluZycsICctaW1hZScsICc8aW5maWxlLm1hZT4nLCAnLW9tYWUnLCAnPG91dGZpbGUubWFlPic=

> <r_lp_tautomer_probability>
1

> <r_epik_Ionization_Penalty>
1.44269e-06

> <r_epik_Ionization_Penalty_Charging>
0

> <r_epik_Ionization_Penalty_Neutral>
1.44269e-06

> <r_epik_State_Penalty>
-0

> <r_epik_Charging_Adjusted_Penalty>
0

> <i_epik_Tot_Q>
0

> <i_epik_Tot_abs_Q>
0

> <r_epik_Metal_State_Penalty>
-0

> <b_epik_Metal_Only>
0

> <s_lp_Force_Field>
OPLS_2005

> <r_lp_Energy>
13.6049

> <b_lp_Chiralities_Consistent>
1

> <s_lp_Variant>
AV-unprocessed.smi:1574-2

> <Gold.Version>
5.8.1

> <Gold.Id.Protein>
6NUR|6NUR_protein|mol2

> <Gold.PLP.Fitness>
51.7212

> <Gold.PLP.PLP>
-45.5667

> <Gold.PLP.part.hbond>
-4.1578

> <Gold.PLP.part.metal>
0.0000

> <Gold.PLP.part.buried>
-6.8116

> <Gold.PLP.part.nonpolar>
-35.0375

> <Gold.PLP.part.repulsive>
0.1144

> <Gold.PLP.ligand.clash>
0.0000

> <Gold.PLP.ligand.torsion>
0.2063

> <Gold.PLP.Chemscore.Hbond>
2.1698

> <Gold.PLP.Chemscore.CHOScore>
0.0000

> <Gold.PLP.Chemscore.Metal>
0.0000

> <Gold.Chemscore.Hbonds>
donor molecule, donor type, donor heavy atom, donor atom, acceptor molecule, acceptor atom, score
      P1  H  7989  7998       L1    13  0.36
      P1  H  7997  8009       L1    13  0.71
      P1  H 10752 10765       L1    19  0.90

> <Gold.PLP.Chemscore.Internal.Correction>
0.0577

> <Gold.Rescore>
     Score         DG    S(hbond)    S(metal)    S(lipo)     H(rot)  DE(clash)    DE(int)     intcor
     15.58     -15.93       2.06        0.00      94.13       2.90       0.00       0.35       ----

> <Gold.Chemscore.Fitness>
15.5756

> <Gold.Chemscore.DG>
-15.9326

> <Gold.Chemscore.ZeroCoef>
-5.4800

> <Gold.Chemscore.Hbond>
2.0588

> <Gold.Chemscore.Metal>
0.0000

> <Gold.Chemscore.Lipo>
94.1270

> <Gold.Chemscore.Internal_Hbond>
0.0000

> <Gold.Chemscore.DEClash>
0.0038

> <Gold.Chemscore.DEInternal>
0.3532

> <Gold.Chemscore.Rot>
2.9050

> <Gold.Chemscore.Internal.Correction>
   9.000000E+99

> <Gold.Chemscore.Hbonds>
donor molecule, donor type, donor heavy atom, donor atom, acceptor molecule, acceptor atom, score
      P1  H  7989  7998       L1    13  0.04
      P1  H  7997  8009       L1    13  0.69
      P1  H 10752 10765       L1    19  0.09

> <Gold.Chemscore.Hbond.Weighted>
-6.8764

> <Gold.Chemscore.Metal.Weighted>
-0.0000

> <Gold.Chemscore.Lipo.Weighted>
-11.0129

> <Gold.Chemscore.Internal_Hbond.Weighted>
0.0000

> <Gold.Chemscore.DEClash.Weighted>
0.0038

> <Gold.Chemscore.DEInternal.Weighted>
0.3532

> <Gold.Chemscore.Rot.Weighted>
7.4367

> <Gold.Chemscore.Internal.Correction.Weighted>
   9.000000E+99

> <Gold.Protein.RotatedTorsions>
[ 6907 6896 6895 6894 ] final  144.04 input  -60.11 | X-H torsion
[ 7974 7965 7964 7962 ] final  -89.53 input  175.53 | X-H torsion
[ 8008 7997 7996 7995 ] final -149.88 input   59.86 | X-H torsion
[ 10167 10162 10161 10158 ] final  -42.84 input  -65.29 | X-H torsion
[ 10718 10713 10712 10709 ] final  -86.67 input   66.30 | X-H torsion
[ 10763 10752 10751 10750 ] final -161.51 input  -60.55 | X-H torsion
[ 11005 11000 10999 10996 ] final   19.08 input  -57.11 | X-H torsion

> <Gold.Protein.ActiveResidues>
 VAL166  LYS551  ARG553  GLY616  TRP617  ASP618  TYR619  PRO620  LYS621  CYS622 
 ASP623  PHE694  ASN695  SER759  ASP760  ASP761  ALA762  ILE779  LEU786  VAL792 
 PHE793  MET794  SER795  GLU796  ALA797  LYS798  CYS799  TRP800  GLU811  SER814 

> <Gold.Protein.RotatedAtoms>
  152.1987  133.4825  159.5046 H   0  0  0  0  0  0  0  0  0  0  0  0  # atno 6907 bound_to 6896
  150.6965  134.1619  159.4188 H   0  0  0  0  0  0  0  0  0  0  0  0  # atno 6908 bound_to 6896
  151.9536  135.0157  160.0594 H   0  0  0  0  0  0  0  0  0  0  0  0  # atno 6909 bound_to 6896
  145.4386  140.9558  143.2088 H   0  0  0  0  0  0  0  0  0  0  0  0  # atno 7974 bound_to 7965
  155.6146  140.0675  157.2696 H   0  0  0  0  0  0  0  0  0  0  0  0  # atno 8008 bound_to 7997
  154.4244  140.1795  156.1356 H   0  0  0  0  0  0  0  0  0  0  0  0  # atno 8009 bound_to 7997
  156.0058  140.3331  155.6894 H   0  0  0  0  0  0  0  0  0  0  0  0  # atno 8010 bound_to 7997
  140.6955  143.3015  151.3267 H   0  0  0  0  0  0  0  0  0  0  0  0  # atno 10167 bound_to 10162
  155.9988  130.4773  150.4750 H   0  0  0  0  0  0  0  0  0  0  0  0  # atno 10718 bound_to 10713
  154.7297  135.3043  154.8912 H   0  0  0  0  0  0  0  0  0  0  0  0  # atno 10763 bound_to 10752
  153.9759  135.6736  153.4752 H   0  0  0  0  0  0  0  0  0  0  0  0  # atno 10764 bound_to 10752
  153.0907  135.4961  154.8604 H   0  0  0  0  0  0  0  0  0  0  0  0  # atno 10765 bound_to 10752
  140.4176  134.1552  155.7671 H   0  0  0  0  0  0  0  0  0  0  0  0  # atno 11005 bound_to 11000
  144.8136  139.5917  143.7018 LP  0  0  0  0  0  0  0  0  0  0  0  0  # atno 17320 bound_to 7965
  146.2569  139.6321  142.9389 LP  0  0  0  0  0  0  0  0  0  0  0  0  # atno 17321 bound_to 7965
  139.6405  144.0548  152.2551 LP  0  0  0  0  0  0  0  0  0  0  0  0  # atno 17342 bound_to 10162
  140.0052  144.6264  150.7695 LP  0  0  0  0  0  0  0  0  0  0  0  0  # atno 17343 bound_to 10162
  157.2761  131.0597  151.2228 LP  0  0  0  0  0  0  0  0  0  0  0  0  # atno 17370 bound_to 10713
  157.3291  130.6976  149.6314 LP  0  0  0  0  0  0  0  0  0  0  0  0  # atno 17371 bound_to 10713
  141.1796  133.8441  157.1302 LP  0  0  0  0  0  0  0  0  0  0  0  0  # atno 17394 bound_to 11000
  140.0223  134.9940  157.0616 LP  0  0  0  0  0  0  0  0  0  0  0  0  # atno 17395 bound_to 11000

$$$$
