AV-unprocessed.smi:160|AV-procd|sdf|1371|dock10
  -GOLD-   2262019 93D 1   1.00000     0.00000
 Structure written by MMmdl.
 28 29  0  0  0  0  0  0  0  0  2 V2000
  152.3129  137.3651  153.5988 N   0  5  0  0  0  0  0  0  0  0  0  0
  152.8837  138.3786  154.2856 C   0  0  0  0  0  0  0  0  0  0  0  0
  154.0904  138.5887  154.4035 O   0  0  0  0  0  0  0  0  0  0  0  0
  151.9038  139.3148  154.9522 C   0  0  0  0  0  0  0  0  0  0  0  0
  152.3248  140.2004  155.9060 N   0  0  0  0  0  0  0  0  0  0  0  0
  151.1647  140.7790  156.1851 C   0  0  0  0  0  0  0  0  0  0  0  0
  150.1340  140.3108  155.4759 N   0  0  0  0  0  0  0  0  0  0  0  0
  148.6880  140.6933  155.5162 C   0  0  2  0  0  0  0  0  0  0  0  0
  147.9785  139.6024  156.0217 O   0  0  0  0  0  0  0  0  0  0  0  0
  146.8471  139.3209  155.2014 C   0  0  2  0  0  0  0  0  0  0  0  0
  146.4409  137.8406  155.3123 C   0  0  0  0  0  0  0  0  0  0  0  0
  147.5503  137.0096  155.0430 O   0  0  0  0  0  0  0  0  0  0  0  0
  147.2721  139.7893  153.8024 C   0  0  2  0  0  0  0  0  0  0  0  0
  148.0113  138.7852  153.1287 O   0  0  0  0  0  0  0  0  0  0  0  0
  148.1075  141.0221  154.1255 C   0  0  2  0  0  0  0  0  0  0  0  0
  149.0490  141.3499  153.1170 O   0  0  0  0  0  0  0  0  0  0  0  0
  150.5998  139.3334  154.6605 N   0  0  0  0  0  0  0  0  0  0  0  0
  148.6491  141.5384  156.2046 H   0  0  0  0  0  0  0  0  0  0  0  0
  146.0257  139.9603  155.5307 H   0  0  0  0  0  0  0  0  0  0  0  0
  146.4112  140.0427  153.1831 H   0  0  0  0  0  0  0  0  0  0  0  0
  147.4375  141.8726  154.2571 H   0  0  0  0  0  0  0  0  0  0  0  0
  151.3098  137.1892  153.7320 H   0  0  0  0  0  0  0  0  0  0  0  0
  151.0645  141.5623  156.9219 H   0  0  0  0  0  0  0  0  0  0  0  0
  146.1070  137.6171  156.3259 H   0  0  0  0  0  0  0  0  0  0  0  0
  145.6169  137.6037  154.6382 H   0  0  0  0  0  0  0  0  0  0  0  0
  148.1947  137.5153  154.5719 H   0  0  0  0  0  0  0  0  0  0  0  0
  148.3979  139.1676  152.3555 H   0  0  0  0  0  0  0  0  0  0  0  0
  149.0925  140.6351  152.5007 H   0  0  0  0  0  0  0  0  0  0  0  0
  1  2  1  0  0  0  0
  1 22  1  0  0  0  0
  2  3  2  0  0  0  0
  2  4  1  0  0  0  0
  4 17  2  0  0  0  0
  4  5  1  0  0  0  0
  5  6  2  0  0  0  0
  6  7  1  0  0  0  0
  6 23  1  0  0  0  0
  7  8  1  0  0  0  0
  7 17  1  0  0  0  0
  8 18  1  0  0  0  0
  8 15  1  0  0  0  0
  8  9  1  0  0  0  0
  9 10  1  0  0  0  0
 10 19  1  0  0  0  0
 10 11  1  0  0  0  0
 10 13  1  0  0  0  0
 11 12  1  0  0  0  0
 11 24  1  0  0  0  0
 11 25  1  0  0  0  0
 12 26  1  0  0  0  0
 13 20  1  0  0  0  0
 13 14  1  0  0  0  0
 13 15  1  0  0  0  0
 14 27  1  0  0  0  0
 15 21  1  0  0  0  0
 15 16  1  0  0  0  0
 16 28  1  0  0  0  0
M  CHG  1   1  -1
M  END
> <s_m_source_file>
AV-unprocessed.smi

> <i_m_source_file_index>
160

> <i_lp_mmshare_version>
43012

> <i_f3d_flags>
0

> <s_epik_input>
W05IMl1DKD1PKWMxbltjSF1uKG4xKVtDQEBIXTJPW0NASF0oW0NIMl1bT0hdKVtDQEBIXShbT0hdKVtDQEhdMltPSF0=

> <s_epik_cmdline>
J2VwaWtfcHl0aG9uJywgJy1waCcsICc3LjAnLCAnLXRuJywgJzgnLCAnLW1hJywgJzIwMCcsICctbWV0YWxfYmluZGluZycsICctaW1hZScsICc8aW5maWxlLm1hZT4nLCAnLW9tYWUnLCAnPG91dGZpbGUubWFlPic=

> <r_lp_tautomer_probability>
1

> <r_epik_Ionization_Penalty>
6.6993

> <r_epik_Ionization_Penalty_Charging>
6.6993

> <r_epik_Ionization_Penalty_Neutral>
6.01698e-06

> <r_epik_State_Penalty>
6.69929

> <r_epik_Charging_Adjusted_Penalty>
13.3986

> <i_epik_Tot_Q>
-1

> <i_epik_Tot_abs_Q>
1

> <r_epik_Metal_State_Penalty>
2.62798

> <b_epik_Metal_Only>
1

> <s_epik_Chemistry_Notes>
This compound contains an acetal/aminal-like group ( X-CH(R)-Y where X, Y are N, S, or O) that may be acid/base labile, releasing an aldehyde.

> <s_lp_Force_Field>
OPLS_2005

> <r_lp_Energy>
51.4861

> <b_lp_Chiralities_Consistent>
1

> <s_lp_Variant>
AV-unprocessed.smi:160-29

> <Gold.Version>
5.8.1

> <Gold.Id.Protein>
6NUR|6NUR_protein|mol2

> <Gold.PLP.Fitness>
42.7885

> <Gold.PLP.PLP>
-26.5777

> <Gold.PLP.part.hbond>
-8.2164

> <Gold.PLP.part.metal>
0.0000

> <Gold.PLP.part.buried>
-3.4455

> <Gold.PLP.part.nonpolar>
-15.7235

> <Gold.PLP.part.repulsive>
0.0956

> <Gold.PLP.ligand.clash>
0.0000

> <Gold.PLP.ligand.torsion>
0.2120

> <Gold.PLP.Chemscore.Hbond>
5.5426

> <Gold.PLP.Chemscore.CHOScore>
0.0000

> <Gold.PLP.Chemscore.Metal>
0.0000

> <Gold.Chemscore.Hbonds>
donor molecule, donor type, donor heavy atom, donor atom, acceptor molecule, acceptor atom, score
      L1  H    14    27       P1  7957  1.00
      L1  H    16    28       P1  7957  0.99
      P1  H  7997  8009       L1     3  0.59
      P1  H  8011  8017       L1    16  0.96
      P1  H 10752 10765       L1     1  1.82

> <Gold.PLP.Chemscore.Internal.Correction>
0.0072

> <Gold.Rescore>
     Score         DG    S(hbond)    S(metal)    S(lipo)     H(rot)  DE(clash)    DE(int)     intcor
      8.85      -9.35       3.70        0.00      15.91       4.04       0.12       0.38       ----

> <Gold.Chemscore.Fitness>
8.8494

> <Gold.Chemscore.DG>
-9.3489

> <Gold.Chemscore.ZeroCoef>
-5.4800

> <Gold.Chemscore.Hbond>
3.6978

> <Gold.Chemscore.Metal>
0.0000

> <Gold.Chemscore.Lipo>
15.9091

> <Gold.Chemscore.Internal_Hbond>
0.0000

> <Gold.Chemscore.DEClash>
0.1223

> <Gold.Chemscore.DEInternal>
0.3771

> <Gold.Chemscore.Rot>
4.0403

> <Gold.Chemscore.Internal.Correction>
   9.000000E+99

> <Gold.Chemscore.Hbonds>
donor molecule, donor type, donor heavy atom, donor atom, acceptor molecule, acceptor atom, score
      L1  H    14    27       P1  7957  1.00
      L1  H    16    28       P1  7957  0.89
      P1  H  7997  8009       L1     3  0.52
      P1  H  8011  8017       L1    16  0.23
      P1  H 10752 10765       L1     1  0.22

> <Gold.Chemscore.Hbond.Weighted>
-12.3506

> <Gold.Chemscore.Metal.Weighted>
-0.0000

> <Gold.Chemscore.Lipo.Weighted>
-1.8614

> <Gold.Chemscore.Internal_Hbond.Weighted>
0.0000

> <Gold.Chemscore.DEClash.Weighted>
0.1223

> <Gold.Chemscore.DEInternal.Weighted>
0.3771

> <Gold.Chemscore.Rot.Weighted>
10.3431

> <Gold.Chemscore.Internal.Correction.Weighted>
   9.000000E+99

> <Gold.Protein.RotatedTorsions>
[ 6907 6896 6895 6894 ] final -176.48 input  -60.11 | X-H torsion
[ 7974 7965 7964 7962 ] final   88.53 input  175.53 | X-H torsion
[ 8008 7997 7996 7995 ] final -125.01 input   59.86 | X-H torsion
[ 10167 10162 10161 10158 ] final  129.60 input  -65.29 | X-H torsion
[ 10718 10713 10712 10709 ] final  140.85 input   66.30 | X-H torsion
[ 10763 10752 10751 10750 ] final  148.55 input  -60.55 | X-H torsion
[ 11005 11000 10999 10996 ] final -115.31 input  -57.11 | X-H torsion

> <Gold.Protein.ActiveResidues>
 VAL166  LYS551  ARG553  GLY616  TRP617  ASP618  TYR619  PRO620  LYS621  CYS622 
 ASP623  PHE694  ASN695  SER759  ASP760  ASP761  ALA762  ILE779  LEU786  VAL792 
 PHE793  MET794  SER795  GLU796  ALA797  LYS798  CYS799  TRP800  GLU811  SER814 

> <Gold.Protein.RotatedAtoms>
  151.6055  133.3352  159.3056 H   0  0  0  0  0  0  0  0  0  0  0  0  # atno 6907 bound_to 6896
  150.8185  134.7383  159.6762 H   0  0  0  0  0  0  0  0  0  0  0  0  # atno 6908 bound_to 6896
  152.4279  134.5838  160.0007 H   0  0  0  0  0  0  0  0  0  0  0  0  # atno 6909 bound_to 6896
  145.5445  139.2291  143.2547 H   0  0  0  0  0  0  0  0  0  0  0  0  # atno 7974 bound_to 7965
  155.2062  140.0417  157.2926 H   0  0  0  0  0  0  0  0  0  0  0  0  # atno 8008 bound_to 7997
  154.6042  140.2460  155.7724 H   0  0  0  0  0  0  0  0  0  0  0  0  # atno 8009 bound_to 7997
  156.2340  140.2928  156.0271 H   0  0  0  0  0  0  0  0  0  0  0  0  # atno 8010 bound_to 7997
  139.5470  144.6781  151.4442 H   0  0  0  0  0  0  0  0  0  0  0  0  # atno 10167 bound_to 10162
  157.3986  131.1014  151.0575 H   0  0  0  0  0  0  0  0  0  0  0  0  # atno 10718 bound_to 10713
  154.0566  135.2877  155.3332 H   0  0  0  0  0  0  0  0  0  0  0  0  # atno 10763 bound_to 10752
  154.6835  135.5254  153.8298 H   0  0  0  0  0  0  0  0  0  0  0  0  # atno 10764 bound_to 10752
  153.0539  135.6587  154.0758 H   0  0  0  0  0  0  0  0  0  0  0  0  # atno 10765 bound_to 10752
  141.0496  133.9709  157.2860 H   0  0  0  0  0  0  0  0  0  0  0  0  # atno 11005 bound_to 11000
  146.1959  140.6266  142.9124 LP  0  0  0  0  0  0  0  0  0  0  0  0  # atno 17320 bound_to 7965
  144.7560  140.5309  143.6768 LP  0  0  0  0  0  0  0  0  0  0  0  0  # atno 17321 bound_to 7965
  140.6721  143.8270  150.7012 LP  0  0  0  0  0  0  0  0  0  0  0  0  # atno 17342 bound_to 10162
  140.1698  143.4204  152.2009 LP  0  0  0  0  0  0  0  0  0  0  0  0  # atno 17343 bound_to 10162
  157.1582  130.6214  149.5602 LP  0  0  0  0  0  0  0  0  0  0  0  0  # atno 17370 bound_to 10713
  155.9817  130.4826  150.6842 LP  0  0  0  0  0  0  0  0  0  0  0  0  # atno 17371 bound_to 10713
  139.9339  135.0198  156.8492 LP  0  0  0  0  0  0  0  0  0  0  0  0  # atno 17394 bound_to 11000
  140.6081  134.0108  155.7565 LP  0  0  0  0  0  0  0  0  0  0  0  0  # atno 17395 bound_to 11000

$$$$
