AV-unprocessed.smi:1007|AV-procd|sdf|4408|dock7
  -GOLD-   22720 2353D 1   1.00000     0.00000
 Structure written by MMmdl.
 57 59  0  0  0  0  0  0  0  0  3 V2000
  149.6329  131.7519  153.8148 C   0  0  0  0  0  0  0  0  0  0  0  0
  150.1559  132.8796  154.4952 O   0  0  0  0  0  0  0  0  0  0  0  0
  149.7165  134.1057  153.9347 C   0  0  0  0  0  0  0  0  0  0  0  0
  150.2074  135.2589  154.8232 C   0  0  0  0  0  0  0  0  0  0  0  0
  149.8323  136.5908  154.2840 N   0  3  2  0  0  0  0  0  0  0  0  0
  150.8747  137.6159  154.5404 C   0  0  0  0  0  0  0  0  0  0  0  0
  150.5061  138.9592  153.8818 C   0  0  0  0  0  0  0  0  0  0  0  0
  149.1785  139.4462  154.3326 N   0  3  2  0  0  0  0  0  0  0  0  0
  149.1984  140.0149  155.7071 C   0  0  0  0  0  0  0  0  0  0  0  0
  149.3678  141.5507  155.7198 C   0  0  2  0  0  0  0  0  0  0  0  0
  148.9348  142.0672  154.4781 O   0  0  0  0  0  0  0  0  0  0  0  0
  150.8235  142.0076  155.9419 C   0  0  0  0  0  0  0  0  0  0  0  0
  151.3771  141.5041  157.1858 N   0  0  0  0  0  0  0  0  0  0  0  0
  151.7032  140.2284  157.4687 C   0  0  0  0  0  0  0  0  0  0  0  0
  152.2229  139.9854  158.6681 N   0  0  0  0  0  0  0  0  0  0  0  0
  152.2238  141.2484  159.2346 C   0  0  0  0  0  0  0  0  0  0  0  0
  152.6582  141.6841  160.5054 C   0  0  0  0  0  0  0  0  0  0  0  0
  152.5733  143.0462  160.8728 C   0  0  0  0  0  0  0  0  0  0  0  0
  153.0527  143.4707  162.2498 C   0  0  0  0  0  0  0  0  0  0  0  0
  152.0458  143.9966  159.9619 C   0  0  0  0  0  0  0  0  0  0  0  0
  151.9434  145.4650  160.3350 C   0  0  0  0  0  0  0  0  0  0  0  0
  151.6054  143.5779  158.6893 C   0  0  0  0  0  0  0  0  0  0  0  0
  151.6970  142.2204  158.3346 C   0  0  0  0  0  0  0  0  0  0  0  0
  148.1309  138.4170  154.0980 C   0  0  0  0  0  0  0  0  0  0  0  0
  148.4929  137.0562  154.7294 C   0  0  0  0  0  0  0  0  0  0  0  0
  149.9993  130.8386  154.2838 H   0  0  0  0  0  0  0  0  0  0  0  0
  149.9453  131.7418  152.7697 H   0  0  0  0  0  0  0  0  0  0  0  0
  148.5429  131.7371  153.8548 H   0  0  0  0  0  0  0  0  0  0  0  0
  150.0715  134.2109  152.9093 H   0  0  0  0  0  0  0  0  0  0  0  0
  148.6263  134.1181  153.8965 H   0  0  0  0  0  0  0  0  0  0  0  0
  149.8230  135.1500  155.8384 H   0  0  0  0  0  0  0  0  0  0  0  0
  151.2935  135.1860  154.8976 H   0  0  0  0  0  0  0  0  0  0  0  0
  151.0111  137.7402  155.6159 H   0  0  0  0  0  0  0  0  0  0  0  0
  151.8298  137.2737  154.1401 H   0  0  0  0  0  0  0  0  0  0  0  0
  151.2743  139.7081  154.0791 H   0  0  0  0  0  0  0  0  0  0  0  0
  150.4768  138.8353  152.7984 H   0  0  0  0  0  0  0  0  0  0  0  0
  148.2880  139.7182  156.2247 H   0  0  0  0  0  0  0  0  0  0  0  0
  150.0201  139.5761  156.2751 H   0  0  0  0  0  0  0  0  0  0  0  0
  148.7510  141.9960  156.4995 H   0  0  0  0  0  0  0  0  0  0  0  0
  148.0693  142.4329  154.5846 H   0  0  0  0  0  0  0  0  0  0  0  0
  151.4599  141.6769  155.1198 H   0  0  0  0  0  0  0  0  0  0  0  0
  150.8798  143.0971  155.9596 H   0  0  0  0  0  0  0  0  0  0  0  0
  151.5607  139.4348  156.7494 H   0  0  0  0  0  0  0  0  0  0  0  0
  153.0594  140.9601  161.1996 H   0  0  0  0  0  0  0  0  0  0  0  0
  152.2461  143.9490  162.8059 H   0  0  0  0  0  0  0  0  0  0  0  0
  153.8808  144.1746  162.1658 H   0  0  0  0  0  0  0  0  0  0  0  0
  153.3979  142.6163  162.8326 H   0  0  0  0  0  0  0  0  0  0  0  0
  151.5437  146.0579  159.5120 H   0  0  0  0  0  0  0  0  0  0  0  0
  152.9250  145.8654  160.5895 H   0  0  0  0  0  0  0  0  0  0  0  0
  151.2830  145.5952  161.1927 H   0  0  0  0  0  0  0  0  0  0  0  0
  151.2008  144.2922  157.9875 H   0  0  0  0  0  0  0  0  0  0  0  0
  147.1593  138.7535  154.4569 H   0  0  0  0  0  0  0  0  0  0  0  0
  148.0211  138.2908  153.0201 H   0  0  0  0  0  0  0  0  0  0  0  0
  147.7312  136.3296  154.4490 H   0  0  0  0  0  0  0  0  0  0  0  0
  148.4703  137.1206  155.8180 H   0  0  0  0  0  0  0  0  0  0  0  0
  148.9533  140.2288  153.7337 H   0  0  0  0  0  0  0  0  0  0  0  0
  149.7887  136.4823  153.2802 H   0  0  0  0  0  0  0  0  0  0  0  0
  1  2  1  0  0  0  0
  1 26  1  0  0  0  0
  1 27  1  0  0  0  0
  1 28  1  0  0  0  0
  2  3  1  0  0  0  0
  3  4  1  0  0  0  0
  3 29  1  0  0  0  0
  3 30  1  0  0  0  0
  4  5  1  0  0  0  0
  4 31  1  0  0  0  0
  4 32  1  0  0  0  0
  5 25  1  0  0  0  0
  5  6  1  0  0  0  0
  5 57  1  0  0  0  0
  6  7  1  0  0  0  0
  6 33  1  0  0  0  0
  6 34  1  0  0  0  0
  7  8  1  0  0  0  0
  7 35  1  0  0  0  0
  7 36  1  0  0  0  0
  8  9  1  0  0  0  0
  8 24  1  0  0  0  0
  8 56  1  0  0  0  0
  9 10  1  0  0  0  0
  9 37  1  0  0  0  0
  9 38  1  0  0  0  0
 10 11  1  0  0  0  0
 10 12  1  0  0  0  0
 10 39  1  0  0  0  0
 11 40  1  0  0  0  0
 12 13  1  0  0  0  0
 12 41  1  0  0  0  0
 12 42  1  0  0  0  0
 13 23  1  0  0  0  0
 13 14  1  0  0  0  0
 14 15  2  0  0  0  0
 14 43  1  0  0  0  0
 15 16  1  0  0  0  0
 16 23  2  0  0  0  0
 16 17  1  0  0  0  0
 17 18  2  0  0  0  0
 17 44  1  0  0  0  0
 18 19  1  0  0  0  0
 18 20  1  0  0  0  0
 19 45  1  0  0  0  0
 19 46  1  0  0  0  0
 19 47  1  0  0  0  0
 20 21  1  0  0  0  0
 20 22  2  0  0  0  0
 21 48  1  0  0  0  0
 21 49  1  0  0  0  0
 21 50  1  0  0  0  0
 22 23  1  0  0  0  0
 22 51  1  0  0  0  0
 24 25  1  0  0  0  0
 24 52  1  0  0  0  0
 24 53  1  0  0  0  0
 25 54  1  0  0  0  0
 25 55  1  0  0  0  0
M  CHG  1   5   1
M  CHG  1   8   1
M  END
> <s_m_source_file>
AV-unprocessed.smi

> <i_m_source_file_index>
1007

> <i_lp_mmshare_version>
43012

> <i_f3d_flags>
0

> <s_epik_input>
W0NIM11PW0NIMl1bQ0gyXU4xW0NIMl1bQ0gyXU4oW0NIMl1bQ0gyXTEpW0NIMl1bQ0BIXShbT0hdKVtDSDJdbihbY0hdbjIpYyhjMjMpW2NIXWMoW0NIM10pYyhbY0hdMylbQ0gzXQ==

> <s_epik_cmdline>
J2VwaWtfcHl0aG9uJywgJy1waCcsICc3LjAnLCAnLXRuJywgJzgnLCAnLW1hJywgJzIwMCcsICctbWV0YWxfYmluZGluZycsICctaW1hZScsICc8aW5maWxlLm1hZT4nLCAnLW9tYWUnLCAnPG91dGZpbGUubWFlPic=

> <r_epik_Ionization_Penalty>
3.88944

> <r_epik_Ionization_Penalty_Charging>
3.80608

> <r_epik_Ionization_Penalty_Neutral>
0.0833653

> <r_epik_State_Penalty>
2.70739

> <r_epik_Charging_Adjusted_Penalty>
6.51347

> <i_epik_Tot_Q>
2

> <i_epik_Tot_abs_Q>
2

> <r_epik_Metal_State_Penalty>
2.62239

> <b_epik_Metal_Only>
0

> <s_lp_Force_Field>
OPLS_2005

> <r_lp_Energy>
30.4149

> <b_lp_Chiralities_Consistent>
1

> <s_lp_Variant>
AV-unprocessed.smi:1007-11

> <Gold.Version>
5.8.1

> <Gold.Id.Protein>
6NUR|6NUR_protein|mol2

> <Gold.PLP.Fitness>
54.5142

> <Gold.PLP.PLP>
-50.9011

> <Gold.PLP.part.hbond>
-3.0000

> <Gold.PLP.part.metal>
0.0000

> <Gold.PLP.part.buried>
-7.7704

> <Gold.PLP.part.nonpolar>
-39.1148

> <Gold.PLP.part.repulsive>
0.1124

> <Gold.PLP.ligand.clash>
0.0000

> <Gold.PLP.ligand.torsion>
1.5664

> <Gold.PLP.Chemscore.Hbond>
2.1914

> <Gold.PLP.Chemscore.CHOScore>
0.0000

> <Gold.PLP.Chemscore.Metal>
0.0000

> <Gold.Chemscore.Hbonds>
donor molecule, donor type, donor heavy atom, donor atom, acceptor molecule, acceptor atom, score
      L1  H     5    57       P1  7948  1.80
      P1  H  8011  8017       L1    11  0.09

> <Gold.PLP.Chemscore.Internal.Correction>
0.1718

> <Gold.Rescore>
     Score         DG    S(hbond)    S(metal)    S(lipo)     H(rot)  DE(clash)    DE(int)     intcor
     16.36     -18.74       1.18        0.00     137.37       2.63       0.11       2.27       ----

> <Gold.Chemscore.Fitness>
16.3619

> <Gold.Chemscore.DG>
-18.7448

> <Gold.Chemscore.ZeroCoef>
-5.4800

> <Gold.Chemscore.Hbond>
1.1788

> <Gold.Chemscore.Metal>
0.0000

> <Gold.Chemscore.Lipo>
137.3700

> <Gold.Chemscore.Internal_Hbond>
0.0000

> <Gold.Chemscore.DEClash>
0.1119

> <Gold.Chemscore.DEInternal>
2.2710

> <Gold.Chemscore.Rot>
2.6347

> <Gold.Chemscore.Internal.Correction>
   9.000000E+99

> <Gold.Chemscore.Hbonds>
donor molecule, donor type, donor heavy atom, donor atom, acceptor molecule, acceptor atom, score
      L1  H     5    57       P1  7948  0.17
      P1  H  8011  8017       L1    11  0.08

> <Gold.Chemscore.Hbond.Weighted>
-3.9373

> <Gold.Chemscore.Metal.Weighted>
-0.0000

> <Gold.Chemscore.Lipo.Weighted>
-16.0723

> <Gold.Chemscore.Internal_Hbond.Weighted>
0.0000

> <Gold.Chemscore.DEClash.Weighted>
0.1119

> <Gold.Chemscore.DEInternal.Weighted>
2.2710

> <Gold.Chemscore.Rot.Weighted>
6.7448

> <Gold.Chemscore.Internal.Correction.Weighted>
   9.000000E+99

> <Gold.Protein.RotatedTorsions>
[ 6907 6896 6895 6894 ] final  175.72 input  -60.11 | X-H torsion
[ 7974 7965 7964 7962 ] final -164.04 input  175.53 | X-H torsion
[ 8008 7997 7996 7995 ] final  168.00 input   59.86 | X-H torsion
[ 10167 10162 10161 10158 ] final  102.10 input  -65.29 | X-H torsion
[ 10718 10713 10712 10709 ] final -171.22 input   66.30 | X-H torsion
[ 10763 10752 10751 10750 ] final  -91.23 input  -60.55 | X-H torsion
[ 11005 11000 10999 10996 ] final -141.54 input  -57.11 | X-H torsion

> <Gold.Protein.ActiveResidues>
 VAL166  LYS551  ARG553  GLY616  TRP617  ASP618  TYR619  PRO620  LYS621  CYS622 
 ASP623  PHE694  ASN695  SER759  ASP760  ASP761  ALA762  ILE779  LEU786  VAL792 
 PHE793  MET794  SER795  GLU796  ALA797  LYS798  CYS799  TRP800  GLU811  SER814 

> <Gold.Protein.RotatedAtoms>
  151.7317  133.3318  159.3341 H   0  0  0  0  0  0  0  0  0  0  0  0  # atno 6907 bound_to 6896
  150.7610  134.6358  159.6220 H   0  0  0  0  0  0  0  0  0  0  0  0  # atno 6908 bound_to 6896
  152.3588  134.6905  160.0265 H   0  0  0  0  0  0  0  0  0  0  0  0  # atno 6909 bound_to 6896
  144.7308  140.3019  143.6203 H   0  0  0  0  0  0  0  0  0  0  0  0  # atno 7974 bound_to 7965
  156.1585  140.1602  156.8653 H   0  0  0  0  0  0  0  0  0  0  0  0  # atno 8008 bound_to 7997
  154.5137  140.0794  156.8076 H   0  0  0  0  0  0  0  0  0  0  0  0  # atno 8009 bound_to 7997
  155.3755  140.3402  155.4247 H   0  0  0  0  0  0  0  0  0  0  0  0  # atno 8010 bound_to 7997
  139.7380  144.7019  151.0619 H   0  0  0  0  0  0  0  0  0  0  0  0  # atno 10167 bound_to 10162
  156.7376  130.9330  151.3108 H   0  0  0  0  0  0  0  0  0  0  0  0  # atno 10718 bound_to 10713
  154.6739  135.5275  153.8174 H   0  0  0  0  0  0  0  0  0  0  0  0  # atno 10763 bound_to 10752
  153.0519  135.6536  154.0682 H   0  0  0  0  0  0  0  0  0  0  0  0  # atno 10764 bound_to 10752
  154.0577  135.2964  155.3310 H   0  0  0  0  0  0  0  0  0  0  0  0  # atno 10765 bound_to 10752
  140.8314  134.2512  157.4855 H   0  0  0  0  0  0  0  0  0  0  0  0  # atno 11005 bound_to 11000
  145.7752  139.1871  143.2189 LP  0  0  0  0  0  0  0  0  0  0  0  0  # atno 17320 bound_to 7965
  146.0879  140.7690  142.9610 LP  0  0  0  0  0  0  0  0  0  0  0  0  # atno 17321 bound_to 7965
  140.7781  143.4960  150.9832 LP  0  0  0  0  0  0  0  0  0  0  0  0  # atno 17342 bound_to 10162
  139.8648  143.7268  152.3171 LP  0  0  0  0  0  0  0  0  0  0  0  0  # atno 17343 bound_to 10162
  157.6832  130.9160  150.0320 LP  0  0  0  0  0  0  0  0  0  0  0  0  # atno 17370 bound_to 10713
  156.1486  130.3642  149.9472 LP  0  0  0  0  0  0  0  0  0  0  0  0  # atno 17371 bound_to 10713
  139.8705  134.9588  156.4312 LP  0  0  0  0  0  0  0  0  0  0  0  0  # atno 17394 bound_to 11000
  140.8994  133.7790  155.9662 LP  0  0  0  0  0  0  0  0  0  0  0  0  # atno 17395 bound_to 11000

$$$$
