AV-unprocessed.smi:818|AV-procd|sdf|3833|dock7
  -GOLD-   22720 1273D 1   1.00000     0.00000
 Structure written by MMmdl.
 44 45  0  0  0  0  0  0  0  0  1 V2000
  144.6001  132.9853  151.1396 C   0  0  0  0  0  0  0  0  0  0  0  0
  145.7526  133.9139  150.7387 C   0  0  0  0  0  0  0  0  0  0  0  0
  145.8951  135.0202  151.6644 N   0  0  0  0  0  0  0  0  0  0  0  0
  145.7058  136.3661  151.4215 C   0  0  0  0  0  0  0  0  0  0  0  0
  145.9681  136.9966  152.6005 C   0  0  0  0  0  0  0  0  0  0  0  0
  145.9028  138.3979  152.8004 N   0  0  0  0  0  0  0  0  0  0  0  0
  146.8638  139.1937  153.2963 C   0  0  0  0  0  0  0  0  0  0  0  0
  147.9608  138.8117  153.7042 O   0  0  0  0  0  0  0  0  0  0  0  0
  146.4774  140.4779  153.2981 N   0  0  0  0  0  0  0  0  0  0  0  0
  147.2760  141.6004  153.7888 C   0  0  1  0  0  0  0  0  0  0  0  0
  146.3804  142.8505  153.7915 C   0  0  0  0  0  0  0  0  0  0  0  0
  147.7433  141.3522  155.2325 C   0  0  0  0  0  0  0  0  0  0  0  0
  146.9373  141.0487  156.1138 O   0  0  0  0  0  0  0  0  0  0  0  0
  149.0567  141.5062  155.4597 N   0  0  0  0  0  0  0  0  0  0  0  0
  149.7138  141.3442  156.7538 C   0  0  0  0  0  0  0  0  0  0  0  0
  149.0056  142.1827  157.8353 C   0  0  0  0  0  0  0  0  0  0  0  0
  150.1082  142.9493  158.5681 C   0  0  0  0  0  0  0  0  0  0  0  0
  151.1976  143.1407  157.5178 C   0  0  0  0  0  0  0  0  0  0  0  0
  151.1722  141.8418  156.7110 C   0  0  0  0  0  0  0  0  0  0  0  0
  146.3146  135.9687  153.5226 C   0  0  0  0  0  0  0  0  0  0  0  0
  146.2680  134.7774  152.9451 N   0  0  0  0  0  0  0  0  0  0  0  0
  144.5071  132.1577  150.4363 H   0  0  0  0  0  0  0  0  0  0  0  0
  143.6491  133.5186  151.1524 H   0  0  0  0  0  0  0  0  0  0  0  0
  144.7614  132.5631  152.1319 H   0  0  0  0  0  0  0  0  0  0  0  0
  146.6912  133.3595  150.7111 H   0  0  0  0  0  0  0  0  0  0  0  0
  145.5898  134.3110  149.7356 H   0  0  0  0  0  0  0  0  0  0  0  0
  145.4105  136.7463  150.4545 H   0  0  0  0  0  0  0  0  0  0  0  0
  145.0393  138.8427  152.5258 H   0  0  0  0  0  0  0  0  0  0  0  0
  145.5548  140.6968  152.9522 H   0  0  0  0  0  0  0  0  0  0  0  0
  148.1364  141.7644  153.1367 H   0  0  0  0  0  0  0  0  0  0  0  0
  146.9261  143.7289  154.1385 H   0  0  0  0  0  0  0  0  0  0  0  0
  145.5081  142.7246  154.4347 H   0  0  0  0  0  0  0  0  0  0  0  0
  146.0191  143.0720  152.7867 H   0  0  0  0  0  0  0  0  0  0  0  0
  149.6457  141.7565  154.6786 H   0  0  0  0  0  0  0  0  0  0  0  0
  149.6976  140.2924  157.0460 H   0  0  0  0  0  0  0  0  0  0  0  0
  148.3188  142.8986  157.3801 H   0  0  0  0  0  0  0  0  0  0  0  0
  148.4184  141.5648  158.5156 H   0  0  0  0  0  0  0  0  0  0  0  0
  149.7566  143.8925  158.9871 H   0  0  0  0  0  0  0  0  0  0  0  0
  150.4939  142.3438  159.3892 H   0  0  0  0  0  0  0  0  0  0  0  0
  150.9416  143.9812  156.8711 H   0  0  0  0  0  0  0  0  0  0  0  0
  152.1747  143.3430  157.9576 H   0  0  0  0  0  0  0  0  0  0  0  0
  151.8150  141.1058  157.1958 H   0  0  0  0  0  0  0  0  0  0  0  0
  151.5553  141.9820  155.6990 H   0  0  0  0  0  0  0  0  0  0  0  0
  146.5961  136.0344  154.5628 H   0  0  0  0  0  0  0  0  0  0  0  0
  1  2  1  0  0  0  0
  1 22  1  0  0  0  0
  1 23  1  0  0  0  0
  1 24  1  0  0  0  0
  2  3  1  0  0  0  0
  2 25  1  0  0  0  0
  2 26  1  0  0  0  0
  3 21  1  0  0  0  0
  3  4  1  0  0  0  0
  4  5  2  0  0  0  0
  4 27  1  0  0  0  0
  5  6  1  0  0  0  0
  5 20  1  0  0  0  0
  6  7  1  0  0  0  0
  6 28  1  0  0  0  0
  7  8  2  0  0  0  0
  7  9  1  0  0  0  0
  9 10  1  0  0  0  0
  9 29  1  0  0  0  0
 10 11  1  0  0  0  0
 10 12  1  0  0  0  0
 10 30  1  0  0  0  0
 11 31  1  0  0  0  0
 11 32  1  0  0  0  0
 11 33  1  0  0  0  0
 12 13  2  0  0  0  0
 12 14  1  0  0  0  0
 14 15  1  0  0  0  0
 14 34  1  0  0  0  0
 15 19  1  0  0  0  0
 15 16  1  0  0  0  0
 15 35  1  0  0  0  0
 16 17  1  0  0  0  0
 16 36  1  0  0  0  0
 16 37  1  0  0  0  0
 17 18  1  0  0  0  0
 17 38  1  0  0  0  0
 17 39  1  0  0  0  0
 18 19  1  0  0  0  0
 18 40  1  0  0  0  0
 18 41  1  0  0  0  0
 19 42  1  0  0  0  0
 19 43  1  0  0  0  0
 20 21  2  0  0  0  0
 20 44  1  0  0  0  0
M  END
> <s_m_source_file>
AV-unprocessed.smi

> <i_m_source_file_index>
818

> <i_lp_mmshare_version>
43012

> <i_f3d_flags>
0

> <s_epik_input>
W0NIM11bQ0gyXW4xW2NIXWMoW2NIXW4xKVtOSF1DKD1PKVtOSF1bQ0BIXShbQ0gzXSlDKD1PKVtOSF1bQ0hdMltDSDJdW0NIMl1bQ0gyXVtDSDJdMg==

> <s_epik_cmdline>
J2VwaWtfcHl0aG9uJywgJy1waCcsICc3LjAnLCAnLXRuJywgJzgnLCAnLW1hJywgJzIwMCcsICctbWV0YWxfYmluZGluZycsICctaW1hZScsICc8aW5maWxlLm1hZT4nLCAnLW9tYWUnLCAnPG91dGZpbGUubWFlPic=

> <r_lp_tautomer_probability>
1

> <r_epik_Ionization_Penalty>
0.00015627

> <r_epik_Ionization_Penalty_Charging>
0

> <r_epik_Ionization_Penalty_Neutral>
0.00015627

> <r_epik_State_Penalty>
-0

> <r_epik_Charging_Adjusted_Penalty>
0

> <i_epik_Tot_Q>
0

> <i_epik_Tot_abs_Q>
0

> <r_epik_Metal_State_Penalty>
-0

> <b_epik_Metal_Only>
0

> <s_lp_Force_Field>
OPLS_2005

> <r_lp_Energy>
21.9602

> <b_lp_Chiralities_Consistent>
1

> <s_lp_Variant>
AV-unprocessed.smi:818-2

> <Gold.Version>
5.8.1

> <Gold.Id.Protein>
6NUR|6NUR_protein|mol2

> <Gold.PLP.Fitness>
41.1059

> <Gold.PLP.PLP>
-33.5715

> <Gold.PLP.part.hbond>
-2.4429

> <Gold.PLP.part.metal>
0.0000

> <Gold.PLP.part.buried>
-5.6618

> <Gold.PLP.part.nonpolar>
-24.7736

> <Gold.PLP.part.repulsive>
0.4865

> <Gold.PLP.ligand.clash>
0.0000

> <Gold.PLP.ligand.torsion>
0.7450

> <Gold.PLP.Chemscore.Hbond>
2.0000

> <Gold.PLP.Chemscore.CHOScore>
1.0000

> <Gold.PLP.Chemscore.Metal>
0.0000

> <Gold.Chemscore.Hbonds>
donor molecule, donor type, donor heavy atom, donor atom, acceptor molecule, acceptor atom, score
      L1  H     6    28       P1 10175  0.80
      L1  H     9    29       P1 10175  1.00
      L1  C     4    27       P1 10171  1.00

> <Gold.PLP.Chemscore.Internal.Correction>
0.0242

> <Gold.Rescore>
     Score         DG    S(hbond)    S(metal)    S(lipo)     H(rot)  DE(clash)    DE(int)     intcor
     11.67     -15.27       1.67        0.00      72.89       1.68       0.08       3.51       ----

> <Gold.Chemscore.Fitness>
11.6725

> <Gold.Chemscore.DG>
-15.2673

> <Gold.Chemscore.ZeroCoef>
-5.4800

> <Gold.Chemscore.Hbond>
1.6667

> <Gold.Chemscore.Metal>
0.0000

> <Gold.Chemscore.Lipo>
72.8945

> <Gold.Chemscore.Internal_Hbond>
0.0000

> <Gold.Chemscore.DEClash>
0.0808

> <Gold.Chemscore.DEInternal>
3.5140

> <Gold.Chemscore.Rot>
1.6828

> <Gold.Chemscore.Internal.Correction>
   9.000000E+99

> <Gold.Chemscore.Hbonds>
donor molecule, donor type, donor heavy atom, donor atom, acceptor molecule, acceptor atom, score
      L1  H     6    28       P1 10175  0.77
      L1  H     9    29       P1 10175  0.65

> <Gold.Chemscore.Hbond.Weighted>
-5.5667

> <Gold.Chemscore.Metal.Weighted>
-0.0000

> <Gold.Chemscore.Lipo.Weighted>
-8.5287

> <Gold.Chemscore.Internal_Hbond.Weighted>
0.0000

> <Gold.Chemscore.DEClash.Weighted>
0.0808

> <Gold.Chemscore.DEInternal.Weighted>
3.5140

> <Gold.Chemscore.Rot.Weighted>
4.3081

> <Gold.Chemscore.Internal.Correction.Weighted>
   9.000000E+99

> <Gold.Protein.RotatedTorsions>
[ 6907 6896 6895 6894 ] final  152.74 input  -60.11 | X-H torsion
[ 7974 7965 7964 7962 ] final -172.25 input  175.53 | X-H torsion
[ 8008 7997 7996 7995 ] final  173.49 input   59.86 | X-H torsion
[ 10167 10162 10161 10158 ] final  124.04 input  -65.29 | X-H torsion
[ 10718 10713 10712 10709 ] final   73.16 input   66.30 | X-H torsion
[ 10763 10752 10751 10750 ] final  -89.93 input  -60.55 | X-H torsion
[ 11005 11000 10999 10996 ] final  -43.42 input  -57.11 | X-H torsion

> <Gold.Protein.ActiveResidues>
 VAL166  LYS551  ARG553  GLY616  TRP617  ASP618  TYR619  PRO620  LYS621  CYS622 
 ASP623  PHE694  ASN695  SER759  ASP760  ASP761  ALA762  ILE779  LEU786  VAL792 
 PHE793  MET794  SER795  GLU796  ALA797  LYS798  CYS799  TRP800  GLU811  SER814 

> <Gold.Protein.RotatedAtoms>
  152.0825  133.4160  159.4507 H   0  0  0  0  0  0  0  0  0  0  0  0  # atno 6907 bound_to 6896
  150.6862  134.2965  159.4698 H   0  0  0  0  0  0  0  0  0  0  0  0  # atno 6908 bound_to 6896
  152.0808  134.9471  160.0624 H   0  0  0  0  0  0  0  0  0  0  0  0  # atno 6909 bound_to 6896
  144.7148  140.1800  143.6359 H   0  0  0  0  0  0  0  0  0  0  0  0  # atno 7974 bound_to 7965
  156.1070  140.1459  156.9390 H   0  0  0  0  0  0  0  0  0  0  0  0  # atno 8008 bound_to 7997
  154.4741  140.0900  156.7262 H   0  0  0  0  0  0  0  0  0  0  0  0  # atno 8009 bound_to 7997
  155.4662  140.3440  155.4321 H   0  0  0  0  0  0  0  0  0  0  0  0  # atno 8010 bound_to 7997
  139.5765  144.6965  151.3641 H   0  0  0  0  0  0  0  0  0  0  0  0  # atno 10167 bound_to 10162
  157.6535  130.9615  150.1031 H   0  0  0  0  0  0  0  0  0  0  0  0  # atno 10718 bound_to 10713
  154.6604  135.5323  153.8011 H   0  0  0  0  0  0  0  0  0  0  0  0  # atno 10763 bound_to 10752
  153.0439  135.6504  154.0880 H   0  0  0  0  0  0  0  0  0  0  0  0  # atno 10764 bound_to 10752
  154.0789  135.2948  155.3274 H   0  0  0  0  0  0  0  0  0  0  0  0  # atno 10765 bound_to 10752
  141.0383  133.6791  156.2731 H   0  0  0  0  0  0  0  0  0  0  0  0  # atno 11005 bound_to 11000
  145.8865  139.2351  143.1575 LP  0  0  0  0  0  0  0  0  0  0  0  0  # atno 17320 bound_to 7965
  145.9945  140.8574  143.0049 LP  0  0  0  0  0  0  0  0  0  0  0  0  # atno 17321 bound_to 7965
  140.7047  143.7544  150.7461 LP  0  0  0  0  0  0  0  0  0  0  0  0  # atno 17342 bound_to 10162
  140.1065  143.4739  152.2395 LP  0  0  0  0  0  0  0  0  0  0  0  0  # atno 17343 bound_to 10162
  156.1948  130.3656  149.8863 LP  0  0  0  0  0  0  0  0  0  0  0  0  # atno 17370 bound_to 10713
  156.6782  130.8847  151.3572 LP  0  0  0  0  0  0  0  0  0  0  0  0  # atno 17371 bound_to 10713
  140.6282  134.5291  157.5556 LP  0  0  0  0  0  0  0  0  0  0  0  0  # atno 17394 bound_to 11000
  139.9256  134.8062  156.1078 LP  0  0  0  0  0  0  0  0  0  0  0  0  # atno 17395 bound_to 11000

$$$$
