AV-unprocessed.smi:2391|AV-procd|sdf|9483|dock1
  -GOLD-   2272013113D 1   1.00000     0.00000
 Structure written by MMmdl.
 35 36  0  0  0  0  0  0  0  0  1 V2000
  154.6871  139.9745  158.9774 O   0  0  0  0  0  0  0  0  0  0  0  0
  153.6370  139.5030  159.4233 C   0  0  0  0  0  0  0  0  0  0  0  0
  153.4585  138.3784  160.2211 N   0  0  0  0  0  0  0  0  0  0  0  0
  154.0931  138.2080  161.3444 C   0  0  0  0  0  0  0  0  0  0  0  0
  153.8686  137.0219  162.1532 C   0  0  0  0  0  0  0  0  0  0  0  0
  154.5212  136.8335  163.3235 C   0  0  0  0  0  0  0  0  0  0  0  0
  155.4605  137.8461  163.7631 C   0  0  0  0  0  0  0  0  0  0  0  0
  155.6930  138.9139  163.0757 N   0  0  0  0  0  0  0  0  0  0  0  0
  155.0378  139.0917  161.9103 N   0  0  0  0  0  0  0  0  0  0  0  0
  152.4474  140.0702  159.1708 N   0  0  0  0  0  0  0  0  0  0  0  0
  152.2018  141.2733  158.3709 C   0  0  2  0  0  0  0  0  0  0  0  0
  151.7595  142.4293  159.3057 C   0  0  0  0  0  0  0  0  0  0  0  0
  151.9149  143.8382  158.7221 C   0  0  0  0  0  0  0  0  0  0  0  0
  151.8740  144.7761  159.9313 C   0  0  0  0  0  0  0  0  0  0  0  0
  152.3678  143.9515  161.1272 C   0  0  0  0  0  0  0  0  0  0  0  0
  152.5598  142.5197  160.6138 C   0  0  0  0  0  0  0  0  0  0  0  0
  151.1786  140.9333  157.2628 C   0  0  0  0  0  0  0  0  0  0  0  0
  150.0348  140.5252  157.8142 F   0  0  0  0  0  0  0  0  0  0  0  0
  150.9303  142.0036  156.5069 F   0  0  0  0  0  0  0  0  0  0  0  0
  151.6253  139.9485  156.4846 F   0  0  0  0  0  0  0  0  0  0  0  0
  153.1726  136.2569  161.8410 H   0  0  0  0  0  0  0  0  0  0  0  0
  154.3551  135.9522  163.9251 H   0  0  0  0  0  0  0  0  0  0  0  0
  155.9576  137.6469  164.7123 H   0  0  0  0  0  0  0  0  0  0  0  0
  151.6312  139.6256  159.5655 H   0  0  0  0  0  0  0  0  0  0  0  0
  153.1235  141.5790  157.8733 H   0  0  0  0  0  0  0  0  0  0  0  0
  150.7093  142.2896  159.5677 H   0  0  0  0  0  0  0  0  0  0  0  0
  152.8799  143.9301  158.2213 H   0  0  0  0  0  0  0  0  0  0  0  0
  151.1381  144.0831  157.9973 H   0  0  0  0  0  0  0  0  0  0  0  0
  152.4768  145.6702  159.7700 H   0  0  0  0  0  0  0  0  0  0  0  0
  150.8488  145.1024  160.1114 H   0  0  0  0  0  0  0  0  0  0  0  0
  153.2998  144.3480  161.5317 H   0  0  0  0  0  0  0  0  0  0  0  0
  151.6288  143.9763  161.9288 H   0  0  0  0  0  0  0  0  0  0  0  0
  152.2456  141.7758  161.3467 H   0  0  0  0  0  0  0  0  0  0  0  0
  153.6184  142.3506  160.4113 H   0  0  0  0  0  0  0  0  0  0  0  0
  155.2513  139.9397  161.4047 H   0  0  0  0  0  0  0  0  0  0  0  0
  1  2  2  0  0  0  0
  2  3  1  0  0  0  0
  2 10  1  0  0  0  0
  3  4  2  0  0  0  0
  4  9  1  0  0  0  0
  4  5  1  0  0  0  0
  5  6  2  0  0  0  0
  5 21  1  0  0  0  0
  6  7  1  0  0  0  0
  6 22  1  0  0  0  0
  7  8  2  0  0  0  0
  7 23  1  0  0  0  0
  8  9  1  0  0  0  0
  9 35  1  0  0  0  0
 10 11  1  0  0  0  0
 10 24  1  0  0  0  0
 11 12  1  0  0  0  0
 11 17  1  0  0  0  0
 11 25  1  0  0  0  0
 12 16  1  0  0  0  0
 12 13  1  0  0  0  0
 12 26  1  0  0  0  0
 13 14  1  0  0  0  0
 13 27  1  0  0  0  0
 13 28  1  0  0  0  0
 14 15  1  0  0  0  0
 14 29  1  0  0  0  0
 14 30  1  0  0  0  0
 15 16  1  0  0  0  0
 15 31  1  0  0  0  0
 15 32  1  0  0  0  0
 16 33  1  0  0  0  0
 16 34  1  0  0  0  0
 17 18  1  0  0  0  0
 17 19  1  0  0  0  0
 17 20  1  0  0  0  0
M  END
> <s_m_source_file>
AV-unprocessed.smi

> <i_m_source_file_index>
2391

> <i_lp_mmshare_version>
43012

> <i_f3d_flags>
0

> <s_epik_input>
W0NIMl0xW0NIMl1bQ0gyXVtDSDJdW0NIXTFbQ0BIXShDKEYpKEYpRilbTkhdQyg9TylbTkhdYzJbY0hdW2NIXVtjSF1ubjI=

> <s_epik_cmdline>
J2VwaWtfcHl0aG9uJywgJy1waCcsICc3LjAnLCAnLXRuJywgJzgnLCAnLW1hJywgJzIwMCcsICctbWV0YWxfYmluZGluZycsICctaW1hZScsICc8aW5maWxlLm1hZT4nLCAnLW9tYWUnLCAnPG91dGZpbGUubWFlPic=

> <r_epik_Ionization_Penalty>
0.0611197

> <r_epik_Ionization_Penalty_Charging>
0.0611196

> <r_epik_Ionization_Penalty_Neutral>
6.50554e-08

> <r_epik_State_Penalty>
2.29873

> <r_epik_Charging_Adjusted_Penalty>
2.35985

> <i_epik_Tot_Q>
0

> <i_epik_Tot_abs_Q>
0

> <r_epik_Metal_State_Penalty>
2.32932

> <b_epik_Metal_Only>
0

> <s_lp_Force_Field>
OPLS_2005

> <r_lp_Energy>
49.9712

> <b_lp_Chiralities_Consistent>
1

> <s_lp_Variant>
AV-unprocessed.smi:2391-3

> <Gold.Version>
5.8.1

> <Gold.Id.Protein>
6NUR|6NUR_protein|mol2

> <Gold.PLP.Fitness>
42.9020

> <Gold.PLP.PLP>
-41.2445

> <Gold.PLP.part.hbond>
-1.0000

> <Gold.PLP.part.metal>
0.0000

> <Gold.PLP.part.buried>
-5.6420

> <Gold.PLP.part.nonpolar>
-34.7619

> <Gold.PLP.part.repulsive>
0.1309

> <Gold.PLP.ligand.clash>
0.0000

> <Gold.PLP.ligand.torsion>
0.8545

> <Gold.PLP.Chemscore.Hbond>
0.9920

> <Gold.PLP.Chemscore.CHOScore>
0.0000

> <Gold.PLP.Chemscore.Metal>
0.0000

> <Gold.Chemscore.Hbonds>
donor molecule, donor type, donor heavy atom, donor atom, acceptor molecule, acceptor atom, score
      P1  H  7997  8008       L1     1  0.99

> <Gold.PLP.Chemscore.Internal.Correction>
0.3905

> <Gold.Rescore>
     Score         DG    S(hbond)    S(metal)    S(lipo)     H(rot)  DE(clash)    DE(int)     intcor
     15.51     -16.54       1.00        0.00      95.26       1.33       0.01       1.02       ----

> <Gold.Chemscore.Fitness>
15.5079

> <Gold.Chemscore.DG>
-16.5441

> <Gold.Chemscore.ZeroCoef>
-5.4800

> <Gold.Chemscore.Hbond>
0.9955

> <Gold.Chemscore.Metal>
0.0000

> <Gold.Chemscore.Lipo>
95.2554

> <Gold.Chemscore.Internal_Hbond>
0.0000

> <Gold.Chemscore.DEClash>
0.0147

> <Gold.Chemscore.DEInternal>
1.0215

> <Gold.Chemscore.Rot>
1.3304

> <Gold.Chemscore.Internal.Correction>
   9.000000E+99

> <Gold.Chemscore.Hbonds>
donor molecule, donor type, donor heavy atom, donor atom, acceptor molecule, acceptor atom, score
      P1  H  7997  8008       L1     1  0.94

> <Gold.Chemscore.Hbond.Weighted>
-3.3249

> <Gold.Chemscore.Metal.Weighted>
-0.0000

> <Gold.Chemscore.Lipo.Weighted>
-11.1449

> <Gold.Chemscore.Internal_Hbond.Weighted>
0.0000

> <Gold.Chemscore.DEClash.Weighted>
0.0147

> <Gold.Chemscore.DEInternal.Weighted>
1.0215

> <Gold.Chemscore.Rot.Weighted>
3.4057

> <Gold.Chemscore.Internal.Correction.Weighted>
   9.000000E+99

> <Gold.Protein.RotatedTorsions>
[ 6907 6896 6895 6894 ] final  -80.24 input  -60.11 | X-H torsion
[ 7974 7965 7964 7962 ] final   83.14 input  175.53 | X-H torsion
[ 8008 7997 7996 7995 ] final -129.04 input   59.86 | X-H torsion
[ 10167 10162 10161 10158 ] final   36.26 input  -65.29 | X-H torsion
[ 10718 10713 10712 10709 ] final -143.88 input   66.30 | X-H torsion
[ 10763 10752 10751 10750 ] final  142.88 input  -60.55 | X-H torsion
[ 11005 11000 10999 10996 ] final   47.61 input  -57.11 | X-H torsion

> <Gold.Protein.ActiveResidues>
 VAL166  LYS551  ARG553  GLY616  TRP617  ASP618  TYR619  PRO620  LYS621  CYS622 
 ASP623  PHE694  ASN695  SER759  ASP760  ASP761  ALA762  ILE779  LEU786  VAL792 
 PHE793  MET794  SER795  GLU796  ALA797  LYS798  CYS799  TRP800  GLU811  SER814 

> <Gold.Protein.RotatedAtoms>
  150.6933  134.4000  159.5114 H   0  0  0  0  0  0  0  0  0  0  0  0  # atno 6907 bound_to 6896
  152.1775  134.8779  160.0538 H   0  0  0  0  0  0  0  0  0  0  0  0  # atno 6908 bound_to 6896
  151.9782  133.3714  159.4134 H   0  0  0  0  0  0  0  0  0  0  0  0  # atno 6909 bound_to 6896
  145.6158  139.2376  143.2166 H   0  0  0  0  0  0  0  0  0  0  0  0  # atno 7974 bound_to 7965
  155.2727  140.0440  157.3008 H   0  0  0  0  0  0  0  0  0  0  0  0  # atno 8008 bound_to 7997
  154.5644  140.2355  155.8255 H   0  0  0  0  0  0  0  0  0  0  0  0  # atno 8009 bound_to 7997
  156.2073  140.3009  155.9662 H   0  0  0  0  0  0  0  0  0  0  0  0  # atno 8010 bound_to 7997
  140.4145  144.1547  150.6142 H   0  0  0  0  0  0  0  0  0  0  0  0  # atno 10167 bound_to 10162
  156.3634  130.7750  151.1920 H   0  0  0  0  0  0  0  0  0  0  0  0  # atno 10718 bound_to 10713
  153.9631  135.2958  155.3432 H   0  0  0  0  0  0  0  0  0  0  0  0  # atno 10763 bound_to 10752
  154.7364  135.5045  153.9051 H   0  0  0  0  0  0  0  0  0  0  0  0  # atno 10764 bound_to 10752
  153.0937  135.6715  153.9915 H   0  0  0  0  0  0  0  0  0  0  0  0  # atno 10765 bound_to 10752
  140.1263  134.4763  155.8556 H   0  0  0  0  0  0  0  0  0  0  0  0  # atno 11005 bound_to 11000
  146.1469  140.6980  142.9340 LP  0  0  0  0  0  0  0  0  0  0  0  0  # atno 17320 bound_to 7965
  144.7251  140.4499  143.6979 LP  0  0  0  0  0  0  0  0  0  0  0  0  # atno 17321 bound_to 7965
  140.4602  143.2452  151.9230 LP  0  0  0  0  0  0  0  0  0  0  0  0  # atno 17342 bound_to 10162
  139.4782  144.5475  151.8436 LP  0  0  0  0  0  0  0  0  0  0  0  0  # atno 17343 bound_to 10162
  157.7476  131.0393  150.4546 LP  0  0  0  0  0  0  0  0  0  0  0  0  # atno 17370 bound_to 10713
  156.4760  130.4063  149.6489 LP  0  0  0  0  0  0  0  0  0  0  0  0  # atno 17371 bound_to 10713
  141.2162  133.6779  156.6985 LP  0  0  0  0  0  0  0  0  0  0  0  0  # atno 17394 bound_to 11000
  140.2899  134.8249  157.4008 LP  0  0  0  0  0  0  0  0  0  0  0  0  # atno 17395 bound_to 11000

$$$$
