AV-unprocessed.smi:1768|AV-procd|sdf|7145|dock2
  -GOLD-   22720 8383D 1   1.00000     0.00000
 Structure written by MMmdl.
 33 34  0  0  0  0  0  0  0  0  1 V2000
  155.8812  134.6253  157.0986 C   0  0  0  0  0  0  0  0  0  0  0  0
  154.8530  135.6165  157.5255 C   0  0  0  0  0  0  0  0  0  0  0  0
  153.5446  135.4507  157.2964 N   0  0  0  0  0  0  0  0  0  0  0  0
  152.7867  136.5045  157.7876 N   0  0  0  0  0  0  0  0  0  0  0  0
  153.5489  137.4377  158.3743 C   0  0  0  0  0  0  0  0  0  0  0  0
  153.0342  138.6229  158.9628 N   0  0  0  0  0  0  0  0  0  0  0  0
  153.6918  139.7536  159.2737 C   0  0  0  0  0  0  0  0  0  0  0  0
  154.8933  139.9501  159.0902 O   0  0  0  0  0  0  0  0  0  0  0  0
  152.8634  140.6578  159.8170 N   0  0  0  0  0  0  0  0  0  0  0  0
  153.2296  142.0043  160.2510 C   0  0  2  0  0  0  0  0  0  0  0  0
  153.3004  142.0282  161.7855 C   0  0  0  0  0  0  0  0  0  0  0  0
  152.2082  143.0142  159.6932 C   0  0  1  0  0  0  0  0  0  0  0  0
  152.3184  144.4248  160.2757 C   0  0  0  0  0  0  0  0  0  0  0  0
  151.7663  145.3186  159.1749 C   0  0  0  0  0  0  0  0  0  0  0  0
  151.6981  144.4046  157.9489 C   0  0  0  0  0  0  0  0  0  0  0  0
  152.4384  143.2490  158.3123 O   0  0  0  0  0  0  0  0  0  0  0  0
  155.2717  137.1005  158.3723 S   0  0  0  0  0  0  0  0  0  0  0  0
  155.4123  133.7632  156.6229 H   0  0  0  0  0  0  0  0  0  0  0  0
  156.4479  134.2808  157.9638 H   0  0  0  0  0  0  0  0  0  0  0  0
  156.5691  135.0850  156.3887 H   0  0  0  0  0  0  0  0  0  0  0  0
  152.0465  138.6096  159.1687 H   0  0  0  0  0  0  0  0  0  0  0  0
  151.8933  140.4013  159.9255 H   0  0  0  0  0  0  0  0  0  0  0  0
  154.2165  142.2698  159.8677 H   0  0  0  0  0  0  0  0  0  0  0  0
  153.6112  143.0058  162.1538 H   0  0  0  0  0  0  0  0  0  0  0  0
  154.0219  141.2984  162.1550 H   0  0  0  0  0  0  0  0  0  0  0  0
  152.3329  141.7959  162.2317 H   0  0  0  0  0  0  0  0  0  0  0  0
  151.1902  142.6396  159.8205 H   0  0  0  0  0  0  0  0  0  0  0  0
  151.7787  144.5323  161.2170 H   0  0  0  0  0  0  0  0  0  0  0  0
  153.3639  144.6781  160.4574 H   0  0  0  0  0  0  0  0  0  0  0  0
  150.7775  145.7041  159.4257 H   0  0  0  0  0  0  0  0  0  0  0  0
  152.4255  146.1702  159.0036 H   0  0  0  0  0  0  0  0  0  0  0  0
  150.6662  144.1179  157.7406 H   0  0  0  0  0  0  0  0  0  0  0  0
  152.1096  144.8708  157.0536 H   0  0  0  0  0  0  0  0  0  0  0  0
  1  2  1  0  0  0  0
  1 18  1  0  0  0  0
  1 19  1  0  0  0  0
  1 20  1  0  0  0  0
  2 17  1  0  0  0  0
  2  3  2  0  0  0  0
  3  4  1  0  0  0  0
  4  5  2  0  0  0  0
  5  6  1  0  0  0  0
  5 17  1  0  0  0  0
  6  7  1  0  0  0  0
  6 21  1  0  0  0  0
  7  8  2  0  0  0  0
  7  9  1  0  0  0  0
  9 10  1  0  0  0  0
  9 22  1  0  0  0  0
 10 11  1  0  0  0  0
 10 12  1  0  0  0  0
 10 23  1  0  0  0  0
 11 24  1  0  0  0  0
 11 25  1  0  0  0  0
 11 26  1  0  0  0  0
 12 16  1  0  0  0  0
 12 13  1  0  0  0  0
 12 27  1  0  0  0  0
 13 14  1  0  0  0  0
 13 28  1  0  0  0  0
 13 29  1  0  0  0  0
 14 15  1  0  0  0  0
 14 30  1  0  0  0  0
 14 31  1  0  0  0  0
 15 16  1  0  0  0  0
 15 32  1  0  0  0  0
 15 33  1  0  0  0  0
M  END
> <s_m_source_file>
AV-unprocessed.smi

> <i_m_source_file_index>
1768

> <i_lp_mmshare_version>
43012

> <i_f3d_flags>
0

> <s_epik_input>
W0NIM11jMW5uYyhzMSlbTkhdQyg9TylbTkhdW0NASF0oW0NIM10pW0NAQEhdMltDSDJdW0NIMl1bQ0gyXU8y

> <s_epik_cmdline>
J2VwaWtfcHl0aG9uJywgJy1waCcsICc3LjAnLCAnLXRuJywgJzgnLCAnLW1hJywgJzIwMCcsICctbWV0YWxfYmluZGluZycsICctaW1hZScsICc8aW5maWxlLm1hZT4nLCAnLW9tYWUnLCAnPG91dGZpbGUubWFlPic=

> <r_lp_tautomer_probability>
1

> <r_epik_Ionization_Penalty>
0.000523083

> <r_epik_Ionization_Penalty_Charging>
0

> <r_epik_Ionization_Penalty_Neutral>
0.000523083

> <r_epik_State_Penalty>
-0

> <r_epik_Charging_Adjusted_Penalty>
0

> <i_epik_Tot_Q>
0

> <i_epik_Tot_abs_Q>
0

> <r_epik_Metal_State_Penalty>
0.223408

> <b_epik_Metal_Only>
0

> <s_lp_Force_Field>
OPLS_2005

> <r_lp_Energy>
16.8898

> <b_lp_Chiralities_Consistent>
1

> <s_lp_Variant>
AV-unprocessed.smi:1768-3

> <Gold.Version>
5.8.1

> <Gold.Id.Protein>
6NUR|6NUR_protein|mol2

> <Gold.PLP.Fitness>
36.1866

> <Gold.PLP.PLP>
-31.0223

> <Gold.PLP.part.hbond>
-2.0000

> <Gold.PLP.part.metal>
0.0000

> <Gold.PLP.part.buried>
-4.1139

> <Gold.PLP.part.nonpolar>
-25.0714

> <Gold.PLP.part.repulsive>
0.2089

> <Gold.PLP.ligand.clash>
0.0000

> <Gold.PLP.ligand.torsion>
0.4285

> <Gold.PLP.Chemscore.Hbond>
2.0000

> <Gold.PLP.Chemscore.CHOScore>
0.0000

> <Gold.PLP.Chemscore.Metal>
0.0000

> <Gold.Chemscore.Hbonds>
donor molecule, donor type, donor heavy atom, donor atom, acceptor molecule, acceptor atom, score
      P1  H  7997  8008       L1     8  1.00
      P1  H 10752 10763       L1     3  0.55

> <Gold.PLP.Chemscore.Internal.Correction>
0.0212

> <Gold.Rescore>
     Score         DG    S(hbond)    S(metal)    S(lipo)     H(rot)  DE(clash)    DE(int)     intcor
     16.67     -17.21       1.85        0.00      75.72       1.29       0.02       0.52       ----

> <Gold.Chemscore.Fitness>
16.6714

> <Gold.Chemscore.DG>
-17.2065

> <Gold.Chemscore.ZeroCoef>
-5.4800

> <Gold.Chemscore.Hbond>
1.8486

> <Gold.Chemscore.Metal>
0.0000

> <Gold.Chemscore.Lipo>
75.7207

> <Gold.Chemscore.Internal_Hbond>
0.0000

> <Gold.Chemscore.DEClash>
0.0174

> <Gold.Chemscore.DEInternal>
0.5177

> <Gold.Chemscore.Rot>
1.2919

> <Gold.Chemscore.Internal.Correction>
   9.000000E+99

> <Gold.Chemscore.Hbonds>
donor molecule, donor type, donor heavy atom, donor atom, acceptor molecule, acceptor atom, score
      P1  H  7997  8008       L1     8  0.81
      P1  H 10752 10763       L1     3  0.03

> <Gold.Chemscore.Hbond.Weighted>
-6.1743

> <Gold.Chemscore.Metal.Weighted>
-0.0000

> <Gold.Chemscore.Lipo.Weighted>
-8.8593

> <Gold.Chemscore.Internal_Hbond.Weighted>
0.0000

> <Gold.Chemscore.DEClash.Weighted>
0.0174

> <Gold.Chemscore.DEInternal.Weighted>
0.5177

> <Gold.Chemscore.Rot.Weighted>
3.3072

> <Gold.Chemscore.Internal.Correction.Weighted>
   9.000000E+99

> <Gold.Protein.RotatedTorsions>
[ 6907 6896 6895 6894 ] final -149.90 input  -60.11 | X-H torsion
[ 7974 7965 7964 7962 ] final  109.36 input  175.53 | X-H torsion
[ 8008 7997 7996 7995 ] final -133.83 input   59.86 | X-H torsion
[ 10167 10162 10161 10158 ] final  -58.67 input  -65.29 | X-H torsion
[ 10718 10713 10712 10709 ] final  -62.03 input   66.30 | X-H torsion
[ 10763 10752 10751 10750 ] final  136.83 input  -60.55 | X-H torsion
[ 11005 11000 10999 10996 ] final  114.16 input  -57.11 | X-H torsion

> <Gold.Protein.ActiveResidues>
 VAL166  LYS551  ARG553  GLY616  TRP617  ASP618  TYR619  PRO620  LYS621  CYS622 
 ASP623  PHE694  ASN695  SER759  ASP760  ASP761  ALA762  ILE779  LEU786  VAL792 
 PHE793  MET794  SER795  GLU796  ALA797  LYS798  CYS799  TRP800  GLU811  SER814 

> <Gold.Protein.RotatedAtoms>
  151.1907  133.4669  159.2594 H   0  0  0  0  0  0  0  0  0  0  0  0  # atno 6907 bound_to 6896
  151.1166  135.0056  159.8529 H   0  0  0  0  0  0  0  0  0  0  0  0  # atno 6908 bound_to 6896
  152.5453  134.1822  159.8693 H   0  0  0  0  0  0  0  0  0  0  0  0  # atno 6909 bound_to 6896
  145.2688  139.2674  143.3978 H   0  0  0  0  0  0  0  0  0  0  0  0  # atno 7974 bound_to 7965
  155.3520  140.0478  157.3046 H   0  0  0  0  0  0  0  0  0  0  0  0  # atno 8008 bound_to 7997
  154.5222  140.2229  155.8919 H   0  0  0  0  0  0  0  0  0  0  0  0  # atno 8009 bound_to 7997
  156.1702  140.3097  155.8966 H   0  0  0  0  0  0  0  0  0  0  0  0  # atno 8010 bound_to 7997
  140.6183  143.2410  151.5544 H   0  0  0  0  0  0  0  0  0  0  0  0  # atno 10167 bound_to 10162
  156.0882  130.4204  150.1078 H   0  0  0  0  0  0  0  0  0  0  0  0  # atno 10718 bound_to 10713
  153.8631  135.3065  155.3438 H   0  0  0  0  0  0  0  0  0  0  0  0  # atno 10763 bound_to 10752
  154.7840  135.4820  153.9908 H   0  0  0  0  0  0  0  0  0  0  0  0  # atno 10764 bound_to 10752
  153.1450  135.6832  153.9063 H   0  0  0  0  0  0  0  0  0  0  0  0  # atno 10765 bound_to 10752
  139.8973  134.9563  156.6850 H   0  0  0  0  0  0  0  0  0  0  0  0  # atno 11005 bound_to 11000
  146.3253  140.3124  142.8627 LP  0  0  0  0  0  0  0  0  0  0  0  0  # atno 17320 bound_to 7965
  144.9354  140.8020  143.5663 LP  0  0  0  0  0  0  0  0  0  0  0  0  # atno 17321 bound_to 7965
  139.5417  144.2631  152.1363 LP  0  0  0  0  0  0  0  0  0  0  0  0  # atno 17342 bound_to 10162
  140.1845  144.4812  150.6511 LP  0  0  0  0  0  0  0  0  0  0  0  0  # atno 17343 bound_to 10162
  156.9094  130.9647  151.3565 LP  0  0  0  0  0  0  0  0  0  0  0  0  # atno 17370 bound_to 10713
  157.6023  130.8521  149.8821 LP  0  0  0  0  0  0  0  0  0  0  0  0  # atno 17371 bound_to 10713
  140.7269  133.9092  155.8185 LP  0  0  0  0  0  0  0  0  0  0  0  0  # atno 17394 bound_to 11000
  141.0183  134.0924  157.4148 LP  0  0  0  0  0  0  0  0  0  0  0  0  # atno 17395 bound_to 11000

$$$$
