AV-unprocessed.smi:2062|AV-procd|sdf|8404|dock9
  -GOLD-   2272011 93D 1   1.00000     0.00000
 Structure written by MMmdl.
 42 43  0  0  0  0  0  0  0  0  3 V2000
  150.4773  143.3948  158.4178 C   0  0  0  0  0  0  0  0  0  0  0  0
  150.4591  141.8840  158.1311 C   0  0  0  0  0  0  0  0  0  0  0  0
  151.6397  141.1928  158.8294 C   0  0  0  0  0  0  0  0  0  0  0  0
  150.4760  141.5858  156.6165 C   0  0  0  0  0  0  0  0  0  0  0  0
  149.1508  141.7898  155.9707 N   0  3  1  0  0  0  0  0  0  0  0  0
  149.1762  141.6247  154.4970 C   0  0  0  0  0  0  0  0  0  0  0  0
  149.1927  140.1369  154.1052 C   0  0  0  0  0  0  0  0  0  0  0  0
  148.0631  139.4905  154.6764 O   0  0  0  0  0  0  0  0  0  0  0  0
  148.0748  139.5260  156.1006 C   0  0  2  0  0  0  0  0  0  0  0  0
  146.8612  138.7397  156.6130 C   0  0  0  0  0  0  0  0  0  0  0  0
  146.8676  138.6827  158.0681 N   0  0  0  0  0  0  0  0  0  0  0  0
  146.7493  137.5661  158.7966 C   0  0  0  0  0  0  0  0  0  0  0  0
  146.6191  136.4771  158.2332 O   0  0  0  0  0  0  0  0  0  0  0  0
  146.7887  137.7837  160.1303 N   0  5  0  0  0  0  0  0  0  0  0  0
  146.8054  136.7442  160.9807 C   0  0  0  0  0  0  0  0  0  0  0  0
  147.2580  136.8370  162.2365 N   0  0  0  0  0  0  0  0  0  0  0  0
  147.1765  135.6375  162.9460 C   0  0  0  0  0  0  0  0  0  0  0  0
  146.6404  134.6096  162.2166 C   0  0  0  0  0  0  0  0  0  0  0  0
  146.2200  135.1206  160.6066 S   0  0  0  0  0  0  0  0  0  0  0  0
  148.0399  141.0000  156.5625 C   0  0  0  0  0  0  0  0  0  0  0  0
  151.3709  143.8660  158.0069 H   0  0  0  0  0  0  0  0  0  0  0  0
  150.4642  143.5900  159.4906 H   0  0  0  0  0  0  0  0  0  0  0  0
  149.6092  143.8948  157.9879 H   0  0  0  0  0  0  0  0  0  0  0  0
  149.5508  141.4711  158.5690 H   0  0  0  0  0  0  0  0  0  0  0  0
  152.5949  141.5569  158.4492 H   0  0  0  0  0  0  0  0  0  0  0  0
  151.6106  140.1135  158.6770 H   0  0  0  0  0  0  0  0  0  0  0  0
  151.6203  141.3714  159.9049 H   0  0  0  0  0  0  0  0  0  0  0  0
  151.2118  142.2435  156.1518 H   0  0  0  0  0  0  0  0  0  0  0  0
  150.8286  140.5709  156.4329 H   0  0  0  0  0  0  0  0  0  0  0  0
  148.2822  142.0941  154.0843 H   0  0  0  0  0  0  0  0  0  0  0  0
  150.0257  142.1524  154.0621 H   0  0  0  0  0  0  0  0  0  0  0  0
  149.1436  140.0349  153.0211 H   0  0  0  0  0  0  0  0  0  0  0  0
  150.1140  139.6496  154.4282 H   0  0  0  0  0  0  0  0  0  0  0  0
  148.9797  139.0395  156.4680 H   0  0  0  0  0  0  0  0  0  0  0  0
  145.9400  139.2214  156.2814 H   0  0  0  0  0  0  0  0  0  0  0  0
  146.8626  137.7274  156.2060 H   0  0  0  0  0  0  0  0  0  0  0  0
  146.9789  139.5542  158.5650 H   0  0  0  0  0  0  0  0  0  0  0  0
  147.5227  135.6065  163.9685 H   0  0  0  0  0  0  0  0  0  0  0  0
  146.4670  133.5900  162.5254 H   0  0  0  0  0  0  0  0  0  0  0  0
  148.0510  141.0619  157.6500 H   0  0  0  0  0  0  0  0  0  0  0  0
  147.1003  141.4542  156.2444 H   0  0  0  0  0  0  0  0  0  0  0  0
  148.9307  142.7624  156.1321 H   0  0  0  0  0  0  0  0  0  0  0  0
  1  2  1  0  0  0  0
  1 21  1  0  0  0  0
  1 22  1  0  0  0  0
  1 23  1  0  0  0  0
  2  3  1  0  0  0  0
  2  4  1  0  0  0  0
  2 24  1  0  0  0  0
  3 25  1  0  0  0  0
  3 26  1  0  0  0  0
  3 27  1  0  0  0  0
  4  5  1  0  0  0  0
  4 28  1  0  0  0  0
  4 29  1  0  0  0  0
  5 20  1  0  0  0  0
  5  6  1  0  0  0  0
  5 42  1  0  0  0  0
  6  7  1  0  0  0  0
  6 30  1  0  0  0  0
  6 31  1  0  0  0  0
  7  8  1  0  0  0  0
  7 32  1  0  0  0  0
  7 33  1  0  0  0  0
  8  9  1  0  0  0  0
  9 10  1  0  0  0  0
  9 20  1  0  0  0  0
  9 34  1  0  0  0  0
 10 11  1  0  0  0  0
 10 35  1  0  0  0  0
 10 36  1  0  0  0  0
 11 12  1  0  0  0  0
 11 37  1  0  0  0  0
 12 13  2  0  0  0  0
 12 14  1  0  0  0  0
 14 15  1  0  0  0  0
 15 19  1  0  0  0  0
 15 16  2  0  0  0  0
 16 17  1  0  0  0  0
 17 18  2  0  0  0  0
 17 38  1  0  0  0  0
 18 19  1  0  0  0  0
 18 39  1  0  0  0  0
 20 40  1  0  0  0  0
 20 41  1  0  0  0  0
M  CHG  1   5   1
M  CHG  1  14  -1
M  END
> <s_m_source_file>
AV-unprocessed.smi

> <i_m_source_file_index>
2062

> <i_lp_mmshare_version>
43012

> <i_f3d_flags>
0

> <s_epik_input>
W0NIM11bQ0hdKFtDSDNdKVtDSDJdTjFbQ0gyXVtDSDJdT1tDQEhdKFtDSDJdMSlbQ0gyXVtOSF1DKD1PKVtOSF1jMm5bY0hdW2NIXXMy

> <s_epik_cmdline>
J2VwaWtfcHl0aG9uJywgJy1waCcsICc3LjAnLCAnLXRuJywgJzgnLCAnLW1hJywgJzIwMCcsICctbWV0YWxfYmluZGluZycsICctaW1hZScsICc8aW5maWxlLm1hZT4nLCAnLW9tYWUnLCAnPG91dGZpbGUubWFlPic=

> <r_lp_tautomer_probability>
0.999

> <r_epik_Ionization_Penalty>
6.35835

> <r_epik_Ionization_Penalty_Charging>
5.49938

> <r_epik_Ionization_Penalty_Neutral>
0.858963

> <r_epik_State_Penalty>
5.49328

> <r_epik_Charging_Adjusted_Penalty>
10.9927

> <i_epik_Tot_Q>
0

> <i_epik_Tot_abs_Q>
2

> <r_epik_Metal_State_Penalty>
1.51523

> <b_epik_Metal_Only>
1

> <s_lp_Force_Field>
OPLS_2005

> <r_lp_Energy>
10.2516

> <b_lp_Chiralities_Consistent>
1

> <s_lp_Variant>
AV-unprocessed.smi:2062-9

> <Gold.Version>
5.8.1

> <Gold.Id.Protein>
6NUR|6NUR_protein|mol2

> <Gold.PLP.Fitness>
42.5769

> <Gold.PLP.PLP>
-28.1375

> <Gold.PLP.part.hbond>
-2.9834

> <Gold.PLP.part.metal>
0.0000

> <Gold.PLP.part.buried>
-0.2226

> <Gold.PLP.part.nonpolar>
-24.3761

> <Gold.PLP.part.repulsive>
0.2960

> <Gold.PLP.ligand.clash>
0.0000

> <Gold.PLP.ligand.torsion>
0.3376

> <Gold.PLP.Chemscore.Hbond>
5.0000

> <Gold.PLP.Chemscore.CHOScore>
0.0000

> <Gold.PLP.Chemscore.Metal>
0.0000

> <Gold.Chemscore.Hbonds>
donor molecule, donor type, donor heavy atom, donor atom, acceptor molecule, acceptor atom, score
      L1  H     5    42       P1  8028  2.00
      P1  H  6931  6943       L1    16  0.36
      P1  H  6934  6947       L1    14  1.92

> <Gold.PLP.Chemscore.Internal.Correction>
0.1146

> <Gold.Rescore>
     Score         DG    S(hbond)    S(metal)    S(lipo)     H(rot)  DE(clash)    DE(int)     intcor
     13.73     -16.09       1.86        0.00      75.13       1.72       0.44       1.92       ----

> <Gold.Chemscore.Fitness>
13.7315

> <Gold.Chemscore.DG>
-16.0886

> <Gold.Chemscore.ZeroCoef>
-5.4800

> <Gold.Chemscore.Hbond>
1.8622

> <Gold.Chemscore.Metal>
0.0000

> <Gold.Chemscore.Lipo>
75.1340

> <Gold.Chemscore.Internal_Hbond>
0.0000

> <Gold.Chemscore.DEClash>
0.4409

> <Gold.Chemscore.DEInternal>
1.9162

> <Gold.Chemscore.Rot>
1.7194

> <Gold.Chemscore.Internal.Correction>
   9.000000E+99

> <Gold.Chemscore.Hbonds>
donor molecule, donor type, donor heavy atom, donor atom, acceptor molecule, acceptor atom, score
      L1  H     5    42       P1  8028  0.93
      P1  H  6931  6943       L1    16  0.09
      P1  H  6934  6947       L1    14  0.59

> <Gold.Chemscore.Hbond.Weighted>
-6.2197

> <Gold.Chemscore.Metal.Weighted>
-0.0000

> <Gold.Chemscore.Lipo.Weighted>
-8.7907

> <Gold.Chemscore.Internal_Hbond.Weighted>
0.0000

> <Gold.Chemscore.DEClash.Weighted>
0.4409

> <Gold.Chemscore.DEInternal.Weighted>
1.9162

> <Gold.Chemscore.Rot.Weighted>
4.4017

> <Gold.Chemscore.Internal.Correction.Weighted>
   9.000000E+99

> <Gold.Protein.RotatedTorsions>
[ 6907 6896 6895 6894 ] final -157.11 input  -60.11 | X-H torsion
[ 7974 7965 7964 7962 ] final  174.10 input  175.53 | X-H torsion
[ 8008 7997 7996 7995 ] final  -52.38 input   59.86 | X-H torsion
[ 10167 10162 10161 10158 ] final  -38.69 input  -65.29 | X-H torsion
[ 10718 10713 10712 10709 ] final -135.29 input   66.30 | X-H torsion
[ 10763 10752 10751 10750 ] final -102.56 input  -60.55 | X-H torsion
[ 11005 11000 10999 10996 ] final   92.62 input  -57.11 | X-H torsion

> <Gold.Protein.ActiveResidues>
 VAL166  LYS551  ARG553  GLY616  TRP617  ASP618  TYR619  PRO620  LYS621  CYS622 
 ASP623  PHE694  ASN695  SER759  ASP760  ASP761  ALA762  ILE779  LEU786  VAL792 
 PHE793  MET794  SER795  GLU796  ALA797  LYS798  CYS799  TRP800  GLU811  SER814 

> <Gold.Protein.RotatedAtoms>
  151.2978  133.4136  159.2637 H   0  0  0  0  0  0  0  0  0  0  0  0  # atno 6907 bound_to 6896
  151.0221  134.9477  159.8076 H   0  0  0  0  0  0  0  0  0  0  0  0  # atno 6908 bound_to 6896
  152.5326  134.2941  159.9106 H   0  0  0  0  0  0  0  0  0  0  0  0  # atno 6909 bound_to 6896
  144.7229  139.9747  143.6437 H   0  0  0  0  0  0  0  0  0  0  0  0  # atno 7974 bound_to 7965
  154.4105  140.1225  156.4983 H   0  0  0  0  0  0  0  0  0  0  0  0  # atno 8008 bound_to 7997
  155.6921  140.3495  155.4878 H   0  0  0  0  0  0  0  0  0  0  0  0  # atno 8009 bound_to 7997
  155.9460  140.1096  157.1007 H   0  0  0  0  0  0  0  0  0  0  0  0  # atno 8010 bound_to 7997
  140.7085  143.3261  151.2677 H   0  0  0  0  0  0  0  0  0  0  0  0  # atno 10167 bound_to 10162
  156.2645  130.7229  151.1175 H   0  0  0  0  0  0  0  0  0  0  0  0  # atno 10718 bound_to 10713
  154.7743  135.4856  153.9712 H   0  0  0  0  0  0  0  0  0  0  0  0  # atno 10763 bound_to 10752
  153.1408  135.6772  153.9038 H   0  0  0  0  0  0  0  0  0  0  0  0  # atno 10764 bound_to 10752
  153.8713  135.3143  155.3420 H   0  0  0  0  0  0  0  0  0  0  0  0  # atno 10765 bound_to 10752
  139.8821  134.8743  156.3599 H   0  0  0  0  0  0  0  0  0  0  0  0  # atno 11005 bound_to 11000
  146.0535  139.3534  143.0625 LP  0  0  0  0  0  0  0  0  0  0  0  0  # atno 17320 bound_to 7965
  145.8184  140.9691  143.0912 LP  0  0  0  0  0  0  0  0  0  0  0  0  # atno 17321 bound_to 7965
  139.6730  143.9987  152.2764 LP  0  0  0  0  0  0  0  0  0  0  0  0  # atno 17342 bound_to 10162
  139.9592  144.6569  150.8096 LP  0  0  0  0  0  0  0  0  0  0  0  0  # atno 17343 bound_to 10162
  157.7262  131.0647  150.5918 LP  0  0  0  0  0  0  0  0  0  0  0  0  # atno 17370 bound_to 10713
  156.6008  130.4354  149.5898 LP  0  0  0  0  0  0  0  0  0  0  0  0  # atno 17371 bound_to 10713
  140.9537  133.7434  156.0306 LP  0  0  0  0  0  0  0  0  0  0  0  0  # atno 17394 bound_to 11000
  140.8075  134.3438  157.5422 LP  0  0  0  0  0  0  0  0  0  0  0  0  # atno 17395 bound_to 11000

$$$$
