AV-unprocessed.smi:1760|AV-procd|sdf|7091|dock6
  -GOLD-   22720 8313D 1   1.00000     0.00000
 Structure written by MMmdl.
 43 45  0  0  0  0  0  0  0  0  1 V2000
  146.7414  137.1644  153.1466 O   0  0  0  0  0  0  0  0  0  0  0  0
  146.0360  138.1398  152.8905 C   0  0  0  0  0  0  0  0  0  0  0  0
  146.3297  139.4209  153.1809 N   0  0  0  0  0  0  0  0  0  0  0  0
  147.4728  139.9545  153.8000 C   0  0  0  0  0  0  0  0  0  0  0  0
  148.5861  139.2451  154.1225 C   0  0  0  0  0  0  0  0  0  0  0  0
  149.7386  139.8638  154.7560 C   0  0  0  0  0  0  0  0  0  0  0  0
  150.9466  139.0449  155.1841 C   0  0  0  0  0  0  0  0  0  0  0  0
  151.0413  138.9798  156.5128 F   0  0  0  0  0  0  0  0  0  0  0  0
  150.8750  137.8017  154.7083 F   0  0  0  0  0  0  0  0  0  0  0  0
  152.0611  139.6047  154.7158 F   0  0  0  0  0  0  0  0  0  0  0  0
  149.6448  141.1803  155.0183 C   0  0  0  0  0  0  0  0  0  0  0  0
  148.5138  141.9214  154.6692 N   0  0  0  0  0  0  0  0  0  0  0  0
  147.4183  141.4006  154.0723 C   0  0  0  0  0  0  0  0  0  0  0  0
  146.4613  142.1223  153.7933 O   0  0  0  0  0  0  0  0  0  0  0  0
  144.8391  138.0508  152.2926 N   0  0  0  0  0  0  0  0  0  0  0  0
  144.1842  136.8162  151.8675 C   0  0  0  0  0  0  0  0  0  0  0  0
  143.8666  135.9368  153.0868 C   0  0  0  0  0  0  0  0  0  0  0  0
  143.3188  134.5669  152.6491 C   0  0  0  0  0  0  0  0  0  0  0  0
  144.2873  133.8878  151.7877 N   0  0  0  0  0  0  0  0  0  0  0  0
  143.7629  132.5807  151.4279 C   0  0  0  0  0  0  0  0  0  0  0  0
  144.7143  131.4072  151.4776 C   0  0  0  0  0  0  0  0  0  0  0  0
  144.2645  131.9570  150.1457 C   0  0  0  0  0  0  0  0  0  0  0  0
  144.4971  134.6645  150.5655 C   0  0  0  0  0  0  0  0  0  0  0  0
  145.0975  136.0397  150.9061 C   0  0  0  0  0  0  0  0  0  0  0  0
  148.5282  142.9087  154.8814 H   0  0  0  0  0  0  0  0  0  0  0  0
  145.6161  140.1021  152.9650 H   0  0  0  0  0  0  0  0  0  0  0  0
  148.6596  138.1935  153.8990 H   0  0  0  0  0  0  0  0  0  0  0  0
  150.4124  141.7589  155.5107 H   0  0  0  0  0  0  0  0  0  0  0  0
  144.3308  138.9074  152.1285 H   0  0  0  0  0  0  0  0  0  0  0  0
  143.2483  137.0328  151.3490 H   0  0  0  0  0  0  0  0  0  0  0  0
  144.7651  135.7908  153.6886 H   0  0  0  0  0  0  0  0  0  0  0  0
  143.1409  136.4364  153.7293 H   0  0  0  0  0  0  0  0  0  0  0  0
  143.1245  133.9552  153.5310 H   0  0  0  0  0  0  0  0  0  0  0  0
  142.3683  134.6876  152.1268 H   0  0  0  0  0  0  0  0  0  0  0  0
  142.7300  132.3484  151.6831 H   0  0  0  0  0  0  0  0  0  0  0  0
  145.7435  131.5969  151.7767 H   0  0  0  0  0  0  0  0  0  0  0  0
  144.3085  130.4467  151.7886 H   0  0  0  0  0  0  0  0  0  0  0  0
  143.5593  131.3630  149.5681 H   0  0  0  0  0  0  0  0  0  0  0  0
  144.9958  132.5113  149.5602 H   0  0  0  0  0  0  0  0  0  0  0  0
  145.1765  134.1255  149.9038 H   0  0  0  0  0  0  0  0  0  0  0  0
  143.5548  134.7852  150.0283 H   0  0  0  0  0  0  0  0  0  0  0  0
  145.2498  136.6128  149.9911 H   0  0  0  0  0  0  0  0  0  0  0  0
  146.0832  135.9024  151.3537 H   0  0  0  0  0  0  0  0  0  0  0  0
  1  2  2  0  0  0  0
  2  3  1  0  0  0  0
  2 15  1  0  0  0  0
  3  4  1  0  0  0  0
  3 26  1  0  0  0  0
  4 13  1  0  0  0  0
  4  5  2  0  0  0  0
  5  6  1  0  0  0  0
  5 27  1  0  0  0  0
  6  7  1  0  0  0  0
  6 11  2  0  0  0  0
  7  8  1  0  0  0  0
  7  9  1  0  0  0  0
  7 10  1  0  0  0  0
 11 12  1  0  0  0  0
 11 28  1  0  0  0  0
 12 25  1  0  0  0  0
 12 13  1  0  0  0  0
 13 14  2  0  0  0  0
 15 16  1  0  0  0  0
 15 29  1  0  0  0  0
 16 24  1  0  0  0  0
 16 17  1  0  0  0  0
 16 30  1  0  0  0  0
 17 18  1  0  0  0  0
 17 31  1  0  0  0  0
 17 32  1  0  0  0  0
 18 19  1  0  0  0  0
 18 33  1  0  0  0  0
 18 34  1  0  0  0  0
 19 20  1  0  0  0  0
 19 23  1  0  0  0  0
 20 22  1  0  0  0  0
 20 21  1  0  0  0  0
 20 35  1  0  0  0  0
 21 22  1  0  0  0  0
 21 36  1  0  0  0  0
 21 37  1  0  0  0  0
 22 38  1  0  0  0  0
 22 39  1  0  0  0  0
 23 24  1  0  0  0  0
 23 40  1  0  0  0  0
 23 41  1  0  0  0  0
 24 42  1  0  0  0  0
 24 43  1  0  0  0  0
M  END
> <s_m_source_file>
AV-unprocessed.smi

> <i_m_source_file_index>
1760

> <i_lp_mmshare_version>
43012

> <i_f3d_flags>
0

> <s_epik_input>
W0NIMl0xW0NIMl1bQ0hdMU4oW0NIMl1bQ0gyXTIpW0NIMl1bQ0gyXVtDSF0yW05IXUMoPU8pW05IXWMzW2NIXWMoQyhGKShGKUYpW2NIXVtuSF1jMz1P

> <s_epik_cmdline>
J2VwaWtfcHl0aG9uJywgJy1waCcsICc3LjAnLCAnLXRuJywgJzgnLCAnLW1hJywgJzIwMCcsICctbWV0YWxfYmluZGluZycsICctaW1hZScsICc8aW5maWxlLm1hZT4nLCAnLW9tYWUnLCAnPG91dGZpbGUubWFlPic=

> <r_lp_tautomer_probability>
0.999

> <r_epik_Ionization_Penalty>
0.980325

> <r_epik_Ionization_Penalty_Charging>
0.0037226

> <r_epik_Ionization_Penalty_Neutral>
0.976602

> <r_epik_State_Penalty>
1.02305

> <r_epik_Charging_Adjusted_Penalty>
1.02677

> <i_epik_Tot_Q>
0

> <i_epik_Tot_abs_Q>
0

> <r_epik_Metal_State_Penalty>
1.39928

> <b_epik_Metal_Only>
0

> <s_lp_Force_Field>
OPLS_2005

> <r_lp_Energy>
33.0511

> <b_lp_Chiralities_Consistent>
1

> <s_lp_Variant>
AV-unprocessed.smi:1760-3

> <Gold.Version>
5.8.1

> <Gold.Id.Protein>
6NUR|6NUR_protein|mol2

> <Gold.PLP.Fitness>
47.8974

> <Gold.PLP.PLP>
-39.9375

> <Gold.PLP.part.hbond>
-4.0000

> <Gold.PLP.part.metal>
0.0000

> <Gold.PLP.part.buried>
0.2049

> <Gold.PLP.part.nonpolar>
-39.2450

> <Gold.PLP.part.repulsive>
3.4379

> <Gold.PLP.ligand.clash>
0.0108

> <Gold.PLP.ligand.torsion>
1.0933

> <Gold.PLP.Chemscore.Hbond>
2.9760

> <Gold.PLP.Chemscore.CHOScore>
0.0000

> <Gold.PLP.Chemscore.Metal>
0.0000

> <Gold.Chemscore.Hbonds>
donor molecule, donor type, donor heavy atom, donor atom, acceptor molecule, acceptor atom, score
      L1  H     3    26       P1 10175  0.98
      L1  H    12    25       P1  8028  1.00
      L1  H    15    29       P1 10175  1.00

> <Gold.PLP.Chemscore.Internal.Correction>
1.2294

> <Gold.Rescore>
     Score         DG    S(hbond)    S(metal)    S(lipo)     H(rot)  DE(clash)    DE(int)     intcor
     15.59     -21.37       2.92        0.00      80.20       1.27       2.06       3.72       ----

> <Gold.Chemscore.Fitness>
15.5937

> <Gold.Chemscore.DG>
-21.3718

> <Gold.Chemscore.ZeroCoef>
-5.4800

> <Gold.Chemscore.Hbond>
2.9247

> <Gold.Chemscore.Metal>
0.0000

> <Gold.Chemscore.Lipo>
80.1989

> <Gold.Chemscore.Internal_Hbond>
0.0000

> <Gold.Chemscore.DEClash>
2.0610

> <Gold.Chemscore.DEInternal>
3.7170

> <Gold.Chemscore.Rot>
1.2734

> <Gold.Chemscore.Internal.Correction>
   9.000000E+99

> <Gold.Chemscore.Hbonds>
donor molecule, donor type, donor heavy atom, donor atom, acceptor molecule, acceptor atom, score
      L1  H     3    26       P1 10175  0.85
      L1  H    12    25       P1  8028  0.97
      L1  H    15    29       P1 10175  0.99

> <Gold.Chemscore.Hbond.Weighted>
-9.7684

> <Gold.Chemscore.Metal.Weighted>
-0.0000

> <Gold.Chemscore.Lipo.Weighted>
-9.3833

> <Gold.Chemscore.Internal_Hbond.Weighted>
0.0000

> <Gold.Chemscore.DEClash.Weighted>
2.0610

> <Gold.Chemscore.DEInternal.Weighted>
3.7170

> <Gold.Chemscore.Rot.Weighted>
3.2598

> <Gold.Chemscore.Internal.Correction.Weighted>
   9.000000E+99

> <Gold.Protein.RotatedTorsions>
[ 6907 6896 6895 6894 ] final  -43.67 input  -60.11 | X-H torsion
[ 7974 7965 7964 7962 ] final   12.70 input  175.53 | X-H torsion
[ 8008 7997 7996 7995 ] final -120.15 input   59.86 | X-H torsion
[ 10167 10162 10161 10158 ] final -156.91 input  -65.29 | X-H torsion
[ 10718 10713 10712 10709 ] final  125.14 input   66.30 | X-H torsion
[ 10763 10752 10751 10750 ] final  -38.20 input  -60.55 | X-H torsion
[ 11005 11000 10999 10996 ] final   53.01 input  -57.11 | X-H torsion

> <Gold.Protein.ActiveResidues>
 VAL166  LYS551  ARG553  GLY616  TRP617  ASP618  TYR619  PRO620  LYS621  CYS622 
 ASP623  PHE694  ASN695  SER759  ASP760  ASP761  ALA762  ILE779  LEU786  VAL792 
 PHE793  MET794  SER795  GLU796  ALA797  LYS798  CYS799  TRP800  GLU811  SER814 

> <Gold.Protein.RotatedAtoms>
  150.9413  134.8822  159.7613 H   0  0  0  0  0  0  0  0  0  0  0  0  # atno 6907 bound_to 6896
  152.5081  134.3938  159.9403 H   0  0  0  0  0  0  0  0  0  0  0  0  # atno 6908 bound_to 6896
  151.3959  133.3733  159.2761 H   0  0  0  0  0  0  0  0  0  0  0  0  # atno 6909 bound_to 6896
  146.2345  139.9297  142.8498 H   0  0  0  0  0  0  0  0  0  0  0  0  # atno 7974 bound_to 7965
  155.1272  140.0399  157.2765 H   0  0  0  0  0  0  0  0  0  0  0  0  # atno 8008 bound_to 7997
  154.6569  140.2582  155.7125 H   0  0  0  0  0  0  0  0  0  0  0  0  # atno 8009 bound_to 7997
  156.2602  140.2825  156.1026 H   0  0  0  0  0  0  0  0  0  0  0  0  # atno 8010 bound_to 7997
  139.6812  143.9577  152.2338 H   0  0  0  0  0  0  0  0  0  0  0  0  # atno 10167 bound_to 10162
  157.5528  131.1093  150.8673 H   0  0  0  0  0  0  0  0  0  0  0  0  # atno 10718 bound_to 10713
  153.9089  135.6794  153.4752 H   0  0  0  0  0  0  0  0  0  0  0  0  # atno 10763 bound_to 10752
  153.1089  135.4792  154.8997 H   0  0  0  0  0  0  0  0  0  0  0  0  # atno 10764 bound_to 10752
  154.7537  135.3191  154.8465 H   0  0  0  0  0  0  0  0  0  0  0  0  # atno 10765 bound_to 10752
  140.0802  134.5349  155.8954 H   0  0  0  0  0  0  0  0  0  0  0  0  # atno 11005 bound_to 11000
  145.2056  140.9873  143.4130 LP  0  0  0  0  0  0  0  0  0  0  0  0  # atno 17320 bound_to 7965
  144.9735  139.3855  143.6297 LP  0  0  0  0  0  0  0  0  0  0  0  0  # atno 17321 bound_to 7965
  139.9368  144.6707  150.8306 LP  0  0  0  0  0  0  0  0  0  0  0  0  # atno 17342 bound_to 10162
  140.7653  143.3271  151.2492 LP  0  0  0  0  0  0  0  0  0  0  0  0  # atno 17343 bound_to 10162
  156.9194  130.5309  149.5279 LP  0  0  0  0  0  0  0  0  0  0  0  0  # atno 17370 bound_to 10713
  156.0591  130.5647  150.9155 LP  0  0  0  0  0  0  0  0  0  0  0  0  # atno 17371 bound_to 10713
  141.2044  133.6639  156.6118 LP  0  0  0  0  0  0  0  0  0  0  0  0  # atno 17394 bound_to 11000
  140.3499  134.7777  157.4459 LP  0  0  0  0  0  0  0  0  0  0  0  0  # atno 17395 bound_to 11000

$$$$
