AV-unprocessed.smi:1464|AV-procd|sdf|5942|dock10
  -GOLD-   22720 6 23D 1   1.00000     0.00000
 Structure written by MMmdl.
 40 41  0  0  0  0  0  0  0  0  2 V2000
  153.2277  141.2152  160.8814 C   0  0  0  0  0  0  0  0  0  0  0  0
  152.3748  140.6418  159.7356 C   0  0  1  0  0  0  0  0  0  0  0  0
  152.4430  141.5812  158.5133 C   0  0  0  0  0  0  0  0  0  0  0  0
  151.5999  141.0670  157.3384 C   0  0  0  0  0  0  0  0  0  0  0  0
  152.0189  139.6429  156.9456 C   0  0  0  0  0  0  0  0  0  0  0  0
  151.9436  138.6756  158.1434 C   0  0  2  0  0  0  0  0  0  0  0  0
  150.5575  138.4645  158.5499 N   0  0  0  0  0  0  0  0  0  0  0  0
  149.8440  137.3334  158.4347 C   0  0  0  0  0  0  0  0  0  0  0  0
  150.3033  136.2950  157.9597 O   0  0  0  0  0  0  0  0  0  0  0  0
  148.3824  137.3688  158.9159 C   0  0  0  0  0  0  0  0  0  0  0  0
  148.1053  136.4996  160.0729 N   0  0  0  0  0  0  0  0  0  0  0  0
  147.5470  137.2060  161.2229 N   0  5  0  0  0  0  0  0  0  0  0  0
  147.1517  136.4925  162.3104 C   0  0  0  0  0  0  0  0  0  0  0  0
  146.6371  137.0127  163.2975 O   0  0  0  0  0  0  0  0  0  0  0  0
  147.3555  135.0534  162.2953 C   0  0  0  0  0  0  0  0  0  0  0  0
  147.8994  134.4309  161.2310 C   0  0  0  0  0  0  0  0  0  0  0  0
  148.3042  135.1509  160.0299 C   0  0  0  0  0  0  0  0  0  0  0  0
  148.7711  134.5843  159.0420 O   0  0  0  0  0  0  0  0  0  0  0  0
  152.7831  139.1937  159.3404 C   0  0  2  0  0  0  0  0  0  0  0  0
  152.7264  138.2088  160.5266 C   0  0  0  0  0  0  0  0  0  0  0  0
  154.2894  141.1970  160.6342 H   0  0  0  0  0  0  0  0  0  0  0  0
  153.0874  140.6576  161.8069 H   0  0  0  0  0  0  0  0  0  0  0  0
  152.9541  142.2494  161.0923 H   0  0  0  0  0  0  0  0  0  0  0  0
  151.3402  140.6245  160.0825 H   0  0  0  0  0  0  0  0  0  0  0  0
  152.1011  142.5788  158.7910 H   0  0  0  0  0  0  0  0  0  0  0  0
  153.4798  141.6907  158.1920 H   0  0  0  0  0  0  0  0  0  0  0  0
  150.5429  141.0842  157.6078 H   0  0  0  0  0  0  0  0  0  0  0  0
  151.7093  141.7340  156.4832 H   0  0  0  0  0  0  0  0  0  0  0  0
  151.3967  139.2840  156.1248 H   0  0  0  0  0  0  0  0  0  0  0  0
  153.0402  139.6624  156.5635 H   0  0  0  0  0  0  0  0  0  0  0  0
  152.3552  137.7141  157.8312 H   0  0  0  0  0  0  0  0  0  0  0  0
  150.0879  139.2561  158.9667 H   0  0  0  0  0  0  0  0  0  0  0  0
  148.1125  138.4008  159.1460 H   0  0  0  0  0  0  0  0  0  0  0  0
  147.7453  137.0834  158.0769 H   0  0  0  0  0  0  0  0  0  0  0  0
  147.0683  134.4710  163.1585 H   0  0  0  0  0  0  0  0  0  0  0  0
  148.0345  133.3601  161.2648 H   0  0  0  0  0  0  0  0  0  0  0  0
  153.8216  139.2256  159.0078 H   0  0  0  0  0  0  0  0  0  0  0  0
  151.7478  138.2134  161.0088 H   0  0  0  0  0  0  0  0  0  0  0  0
  153.4709  138.4493  161.2849 H   0  0  0  0  0  0  0  0  0  0  0  0
  152.9285  137.1891  160.1978 H   0  0  0  0  0  0  0  0  0  0  0  0
  1  2  1  0  0  0  0
  1 21  1  0  0  0  0
  1 22  1  0  0  0  0
  1 23  1  0  0  0  0
  2 19  1  0  0  0  0
  2  3  1  0  0  0  0
  2 24  1  0  0  0  0
  3  4  1  0  0  0  0
  3 25  1  0  0  0  0
  3 26  1  0  0  0  0
  4  5  1  0  0  0  0
  4 27  1  0  0  0  0
  4 28  1  0  0  0  0
  5  6  1  0  0  0  0
  5 29  1  0  0  0  0
  5 30  1  0  0  0  0
  6  7  1  0  0  0  0
  6 19  1  0  0  0  0
  6 31  1  0  0  0  0
  7  8  1  0  0  0  0
  7 32  1  0  0  0  0
  8  9  2  0  0  0  0
  8 10  1  0  0  0  0
 10 33  1  0  0  0  0
 10 34  1  0  0  0  0
 10 11  1  0  0  0  0
 11 12  1  0  0  0  0
 11 17  1  0  0  0  0
 12 13  1  0  0  0  0
 13 14  2  0  0  0  0
 13 15  1  0  0  0  0
 15 35  1  0  0  0  0
 15 16  2  0  0  0  0
 16 36  1  0  0  0  0
 16 17  1  0  0  0  0
 17 18  2  0  0  0  0
 19 20  1  0  0  0  0
 19 37  1  0  0  0  0
 20 38  1  0  0  0  0
 20 39  1  0  0  0  0
 20 40  1  0  0  0  0
M  CHG  1  12  -1
M  END
> <s_m_source_file>
AV-unprocessed.smi

> <i_m_source_file_index>
1464

> <i_lp_mmshare_version>
43012

> <i_f3d_flags>
0

> <s_epik_input>
W0NIM11bQ0BASF0xW0NIMl1bQ0gyXVtDSDJdW0NASF0oW0NASF0xW0NIM10pW05IXUMoPU8pW0NIMl1uMltuSF1jKD1PKVtjSF1bY0hdYzI9Tw==

> <s_epik_cmdline>
J2VwaWtfcHl0aG9uJywgJy1waCcsICc3LjAnLCAnLXRuJywgJzgnLCAnLW1hJywgJzIwMCcsICctbWV0YWxfYmluZGluZycsICctaW1hZScsICc8aW5maWxlLm1hZT4nLCAnLW9tYWUnLCAnPG91dGZpbGUubWFlPic=

> <r_lp_tautomer_probability>
1

> <r_epik_Ionization_Penalty>
0.101366

> <r_epik_Ionization_Penalty_Charging>
0.101366

> <r_epik_Ionization_Penalty_Neutral>
1.90469e-08

> <r_epik_State_Penalty>
0.035861

> <r_epik_Charging_Adjusted_Penalty>
0.137227

> <i_epik_Tot_Q>
-1

> <i_epik_Tot_abs_Q>
1

> <r_epik_Metal_State_Penalty>
0.035861

> <b_epik_Metal_Only>
0

> <s_lp_Force_Field>
OPLS_2005

> <r_lp_Energy>
23.814

> <b_lp_Chiralities_Consistent>
1

> <s_lp_Variant>
AV-unprocessed.smi:1464-8

> <Gold.Version>
5.8.1

> <Gold.Id.Protein>
6NUR|6NUR_protein|mol2

> <Gold.PLP.Fitness>
42.7969

> <Gold.PLP.PLP>
-28.8024

> <Gold.PLP.part.hbond>
-3.0000

> <Gold.PLP.part.metal>
0.0000

> <Gold.PLP.part.buried>
-3.0057

> <Gold.PLP.part.nonpolar>
-23.3128

> <Gold.PLP.part.repulsive>
0.1363

> <Gold.PLP.ligand.clash>
0.0000

> <Gold.PLP.ligand.torsion>
0.0770

> <Gold.PLP.Chemscore.Hbond>
4.7120

> <Gold.PLP.Chemscore.CHOScore>
0.0000

> <Gold.PLP.Chemscore.Metal>
0.0000

> <Gold.Chemscore.Hbonds>
donor molecule, donor type, donor heavy atom, donor atom, acceptor molecule, acceptor atom, score
      P1  H  6896  6908       L1    18  1.00
      P1  H  6931  6943       L1    12  1.82
      P1  H  6934  6947       L1    12  1.82

> <Gold.PLP.Chemscore.Internal.Correction>
0.0126

> <Gold.Rescore>
     Score         DG    S(hbond)    S(metal)    S(lipo)     H(rot)  DE(clash)    DE(int)     intcor
     11.87     -15.21       1.60        0.00      73.40       1.64       0.07       3.28       ----

> <Gold.Chemscore.Fitness>
11.8656

> <Gold.Chemscore.DG>
-15.2140

> <Gold.Chemscore.ZeroCoef>
-5.4800

> <Gold.Chemscore.Hbond>
1.6031

> <Gold.Chemscore.Metal>
0.0000

> <Gold.Chemscore.Lipo>
73.3990

> <Gold.Chemscore.Internal_Hbond>
0.0000

> <Gold.Chemscore.DEClash>
0.0730

> <Gold.Chemscore.DEInternal>
3.2754

> <Gold.Chemscore.Rot>
1.6438

> <Gold.Chemscore.Internal.Correction>
   9.000000E+99

> <Gold.Chemscore.Hbonds>
donor molecule, donor type, donor heavy atom, donor atom, acceptor molecule, acceptor atom, score
      P1  H  6896  6908       L1    18  0.60
      P1  H  6931  6943       L1    12  0.16
      P1  H  6934  6947       L1    12  0.81

> <Gold.Chemscore.Hbond.Weighted>
-5.3543

> <Gold.Chemscore.Metal.Weighted>
-0.0000

> <Gold.Chemscore.Lipo.Weighted>
-8.5877

> <Gold.Chemscore.Internal_Hbond.Weighted>
0.0000

> <Gold.Chemscore.DEClash.Weighted>
0.0730

> <Gold.Chemscore.DEInternal.Weighted>
3.2754

> <Gold.Chemscore.Rot.Weighted>
4.2080

> <Gold.Chemscore.Internal.Correction.Weighted>
   9.000000E+99

> <Gold.Protein.RotatedTorsions>
[ 6907 6896 6895 6894 ] final  146.47 input  -60.11 | X-H torsion
[ 7974 7965 7964 7962 ] final    2.88 input  175.53 | X-H torsion
[ 8008 7997 7996 7995 ] final  172.62 input   59.86 | X-H torsion
[ 10167 10162 10161 10158 ] final   51.08 input  -65.29 | X-H torsion
[ 10718 10713 10712 10709 ] final -129.42 input   66.30 | X-H torsion
[ 10763 10752 10751 10750 ] final -114.45 input  -60.55 | X-H torsion
[ 11005 11000 10999 10996 ] final  -68.18 input  -57.11 | X-H torsion

> <Gold.Protein.ActiveResidues>
 VAL166  LYS551  ARG553  GLY616  TRP617  ASP618  TYR619  PRO620  LYS621  CYS622 
 ASP623  PHE694  ASN695  SER759  ASP760  ASP761  ALA762  ILE779  LEU786  VAL792 
 PHE793  MET794  SER795  GLU796  ALA797  LYS798  CYS799  TRP800  GLU811  SER814 

> <Gold.Protein.RotatedAtoms>
  152.1675  133.4621  159.4891 H   0  0  0  0  0  0  0  0  0  0  0  0  # atno 6907 bound_to 6896
  150.6915  134.1995  159.4325 H   0  0  0  0  0  0  0  0  0  0  0  0  # atno 6908 bound_to 6896
  151.9900  134.9983  160.0612 H   0  0  0  0  0  0  0  0  0  0  0  0  # atno 6909 bound_to 6896
  146.2444  140.0769  142.8359 H   0  0  0  0  0  0  0  0  0  0  0  0  # atno 7974 bound_to 7965
  156.1156  140.1481  156.9277 H   0  0  0  0  0  0  0  0  0  0  0  0  # atno 8008 bound_to 7997
  154.4798  140.0883  156.7393 H   0  0  0  0  0  0  0  0  0  0  0  0  # atno 8009 bound_to 7997
  155.4519  140.3435  155.4304 H   0  0  0  0  0  0  0  0  0  0  0  0  # atno 8010 bound_to 7997
  140.2657  144.3322  150.6304 H   0  0  0  0  0  0  0  0  0  0  0  0  # atno 10167 bound_to 10162
  156.2045  130.6878  151.0578 H   0  0  0  0  0  0  0  0  0  0  0  0  # atno 10718 bound_to 10713
  154.8440  135.4417  154.1508 H   0  0  0  0  0  0  0  0  0  0  0  0  # atno 10763 bound_to 10752
  153.2669  135.6941  153.7526 H   0  0  0  0  0  0  0  0  0  0  0  0  # atno 10764 bound_to 10752
  153.6781  135.3407  155.3146 H   0  0  0  0  0  0  0  0  0  0  0  0  # atno 10765 bound_to 10752
  141.1526  133.6735  156.6407 H   0  0  0  0  0  0  0  0  0  0  0  0  # atno 11005 bound_to 11000
  145.0767  140.9193  143.4850 LP  0  0  0  0  0  0  0  0  0  0  0  0  # atno 17320 bound_to 7965
  145.0914  139.2887  143.5733 LP  0  0  0  0  0  0  0  0  0  0  0  0  # atno 17321 bound_to 7965
  140.5930  143.2167  151.7217 LP  0  0  0  0  0  0  0  0  0  0  0  0  # atno 17342 bound_to 10162
  139.5003  144.3910  152.0280 LP  0  0  0  0  0  0  0  0  0  0  0  0  # atno 17343 bound_to 10162
  157.7004  131.0778  150.6837 LP  0  0  0  0  0  0  0  0  0  0  0  0  # atno 17370 bound_to 10713
  156.6895  130.4591  149.5604 LP  0  0  0  0  0  0  0  0  0  0  0  0  # atno 17371 bound_to 10713
  140.3396  134.7860  157.4387 LP  0  0  0  0  0  0  0  0  0  0  0  0  # atno 17394 bound_to 11000
  140.0949  134.5551  155.8408 LP  0  0  0  0  0  0  0  0  0  0  0  0  # atno 17395 bound_to 11000

$$$$
