AV-unprocessed.smi:2801|AV-procd|sdf|10800|dock5
  -GOLD-   2272015233D 1   1.00000     0.00000
 Structure written by MMmdl.
 32 32  0  0  0  0  0  0  0  0  1 V2000
  147.0796  144.8555  161.0624 C   0  0  0  0  0  0  0  0  0  0  0  0
  148.1972  145.1724  160.0665 C   0  0  0  0  0  0  0  0  0  0  0  0
  148.9337  143.9818  159.8149 O   0  0  0  0  0  0  0  0  0  0  0  0
  150.0036  144.1100  158.8807 C   0  0  1  0  0  0  0  0  0  0  0  0
  151.2013  144.7398  159.6168 C   0  0  0  0  0  0  0  0  0  0  0  0
  152.5119  144.6227  158.8286 C   0  0  0  0  0  0  0  0  0  0  0  0
  150.3686  142.7322  158.3037 C   0  0  0  0  0  0  0  0  0  0  0  0
  150.6494  141.8100  159.0687 O   0  0  0  0  0  0  0  0  0  0  0  0
  150.3190  142.6314  156.9623 N   0  0  0  0  0  0  0  0  0  0  0  0
  150.5989  141.5125  156.1275 C   0  0  0  0  0  0  0  0  0  0  0  0
  151.5496  140.5099  156.4387 C   0  0  0  0  0  0  0  0  0  0  0  0
  151.7511  139.4592  155.5219 C   0  0  0  0  0  0  0  0  0  0  0  0
  151.0899  139.3560  154.3504 N   0  0  0  0  0  0  0  0  0  0  0  0
  150.1942  140.3184  154.0488 C   0  0  0  0  0  0  0  0  0  0  0  0
  149.9149  141.4125  154.8935 C   0  0  0  0  0  0  0  0  0  0  0  0
  148.9958  142.3491  154.5107 O   0  0  0  0  0  0  0  0  0  0  0  0
  146.4926  145.7464  161.2857 H   0  0  0  0  0  0  0  0  0  0  0  0
  147.4869  144.4782  162.0007 H   0  0  0  0  0  0  0  0  0  0  0  0
  146.4021  144.1005  160.6630 H   0  0  0  0  0  0  0  0  0  0  0  0
  147.7639  145.5705  159.1484 H   0  0  0  0  0  0  0  0  0  0  0  0
  148.8547  145.9383  160.4804 H   0  0  0  0  0  0  0  0  0  0  0  0
  149.7036  144.7780  158.0707 H   0  0  0  0  0  0  0  0  0  0  0  0
  151.0004  145.7913  159.8268 H   0  0  0  0  0  0  0  0  0  0  0  0
  151.3351  144.2546  160.5848 H   0  0  0  0  0  0  0  0  0  0  0  0
  153.3390  145.0667  159.3824 H   0  0  0  0  0  0  0  0  0  0  0  0
  152.4427  145.1347  157.8685 H   0  0  0  0  0  0  0  0  0  0  0  0
  152.7637  143.5797  158.6350 H   0  0  0  0  0  0  0  0  0  0  0  0
  149.9940  143.4532  156.4738 H   0  0  0  0  0  0  0  0  0  0  0  0
  152.1341  140.5270  157.3447 H   0  0  0  0  0  0  0  0  0  0  0  0
  152.4700  138.6818  155.7340 H   0  0  0  0  0  0  0  0  0  0  0  0
  149.6858  140.2138  153.1016 H   0  0  0  0  0  0  0  0  0  0  0  0
  148.9777  143.1024  155.0814 H   0  0  0  0  0  0  0  0  0  0  0  0
  1  2  1  0  0  0  0
  1 17  1  0  0  0  0
  1 18  1  0  0  0  0
  1 19  1  0  0  0  0
  2  3  1  0  0  0  0
  2 20  1  0  0  0  0
  2 21  1  0  0  0  0
  3  4  1  0  0  0  0
  4  5  1  0  0  0  0
  4  7  1  0  0  0  0
  4 22  1  0  0  0  0
  5  6  1  0  0  0  0
  5 23  1  0  0  0  0
  5 24  1  0  0  0  0
  6 25  1  0  0  0  0
  6 26  1  0  0  0  0
  6 27  1  0  0  0  0
  7  8  2  0  0  0  0
  7  9  1  0  0  0  0
  9 10  1  0  0  0  0
  9 28  1  0  0  0  0
 10 15  1  0  0  0  0
 10 11  2  0  0  0  0
 11 12  1  0  0  0  0
 11 29  1  0  0  0  0
 12 13  2  0  0  0  0
 12 30  1  0  0  0  0
 13 14  1  0  0  0  0
 14 15  2  0  0  0  0
 14 31  1  0  0  0  0
 15 16  1  0  0  0  0
 16 32  1  0  0  0  0
M  END
> <s_m_source_file>
AV-unprocessed.smi

> <i_m_source_file_index>
2801

> <i_lp_mmshare_version>
43012

> <i_f3d_flags>
0

> <s_epik_input>
W0NIM11bQ0gyXU9bQ0BIXShbQ0gyXVtDSDNdKUMoPU8pW05IXWMxW2NIXVtjSF1uW2NIXWMxW09IXQ==

> <s_epik_cmdline>
J2VwaWtfcHl0aG9uJywgJy1waCcsICc3LjAnLCAnLXRuJywgJzgnLCAnLW1hJywgJzIwMCcsICctbWV0YWxfYmluZGluZycsICctaW1hZScsICc8aW5maWxlLm1hZT4nLCAnLW9tYWUnLCAnPG91dGZpbGUubWFlPic=

> <r_lp_tautomer_probability>
0.43658

> <r_epik_Ionization_Penalty>
0.0250035

> <r_epik_Ionization_Penalty_Charging>
0

> <r_epik_Ionization_Penalty_Neutral>
0.0250035

> <r_epik_State_Penalty>
0.520524

> <r_epik_Charging_Adjusted_Penalty>
0.520524

> <i_epik_Tot_Q>
0

> <i_epik_Tot_abs_Q>
0

> <r_epik_Metal_State_Penalty>
0.772586

> <b_epik_Metal_Only>
0

> <s_lp_Force_Field>
OPLS_2005

> <r_lp_Energy>
11.8743

> <b_lp_Chiralities_Consistent>
1

> <s_lp_Variant>
AV-unprocessed.smi:2801-4

> <Gold.Version>
5.8.1

> <Gold.Id.Protein>
6NUR|6NUR_protein|mol2

> <Gold.PLP.Fitness>
47.1772

> <Gold.PLP.PLP>
-38.2085

> <Gold.PLP.part.hbond>
-4.4606

> <Gold.PLP.part.metal>
0.0000

> <Gold.PLP.part.buried>
-4.7282

> <Gold.PLP.part.nonpolar>
-30.0304

> <Gold.PLP.part.repulsive>
0.3067

> <Gold.PLP.ligand.clash>
0.0000

> <Gold.PLP.ligand.torsion>
0.5238

> <Gold.PLP.Chemscore.Hbond>
2.3331

> <Gold.PLP.Chemscore.CHOScore>
1.0000

> <Gold.PLP.Chemscore.Metal>
0.0000

> <Gold.Chemscore.Hbonds>
donor molecule, donor type, donor heavy atom, donor atom, acceptor molecule, acceptor atom, score
      L1  H     9    28       P1  8028  1.00
      L1  H    16    32       P1  8028  1.00
      P1  H  6933  6944       L1     3  0.17
      P1  H  8011  8017       L1    16  0.04
      L1  C    14    31       P1  7957  0.80

> <Gold.PLP.Chemscore.Internal.Correction>
0.0168

> <Gold.Rescore>
     Score         DG    S(hbond)    S(metal)    S(lipo)     H(rot)  DE(clash)    DE(int)     intcor
     14.63     -16.22       2.12        0.00      77.59       2.11       0.28       1.32       ----

> <Gold.Chemscore.Fitness>
14.6308

> <Gold.Chemscore.DG>
-16.2222

> <Gold.Chemscore.ZeroCoef>
-5.4800

> <Gold.Chemscore.Hbond>
2.1178

> <Gold.Chemscore.Metal>
0.0000

> <Gold.Chemscore.Lipo>
77.5869

> <Gold.Chemscore.Internal_Hbond>
0.0000

> <Gold.Chemscore.DEClash>
0.2753

> <Gold.Chemscore.DEInternal>
1.3162

> <Gold.Chemscore.Rot>
2.1129

> <Gold.Chemscore.Internal.Correction>
   9.000000E+99

> <Gold.Chemscore.Hbonds>
donor molecule, donor type, donor heavy atom, donor atom, acceptor molecule, acceptor atom, score
      L1  H     9    28       P1  8028  1.00
      L1  H    16    32       P1  8028  1.00
      P1  H  6933  6944       L1     3  0.15

> <Gold.Chemscore.Hbond.Weighted>
-7.0735

> <Gold.Chemscore.Metal.Weighted>
-0.0000

> <Gold.Chemscore.Lipo.Weighted>
-9.0777

> <Gold.Chemscore.Internal_Hbond.Weighted>
0.0000

> <Gold.Chemscore.DEClash.Weighted>
0.2753

> <Gold.Chemscore.DEInternal.Weighted>
1.3162

> <Gold.Chemscore.Rot.Weighted>
5.4089

> <Gold.Chemscore.Internal.Correction.Weighted>
   9.000000E+99

> <Gold.Protein.RotatedTorsions>
[ 6907 6896 6895 6894 ] final  -62.15 input  -60.11 | X-H torsion
[ 7974 7965 7964 7962 ] final  177.70 input  175.53 | X-H torsion
[ 8008 7997 7996 7995 ] final  -58.23 input   59.86 | X-H torsion
[ 10167 10162 10161 10158 ] final  161.04 input  -65.29 | X-H torsion
[ 10718 10713 10712 10709 ] final  164.69 input   66.30 | X-H torsion
[ 10763 10752 10751 10750 ] final -122.07 input  -60.55 | X-H torsion
[ 11005 11000 10999 10996 ] final  106.72 input  -57.11 | X-H torsion

> <Gold.Protein.ActiveResidues>
 VAL166  LYS551  ARG553  GLY616  TRP617  ASP618  TYR619  PRO620  LYS621  CYS622 
 ASP623  PHE694  ASN695  SER759  ASP760  ASP761  ALA762  ILE779  LEU786  VAL792 
 PHE793  MET794  SER795  GLU796  ALA797  LYS798  CYS799  TRP800  GLU811  SER814 

> <Gold.Protein.RotatedAtoms>
  150.7735  134.6609  159.6338 H   0  0  0  0  0  0  0  0  0  0  0  0  # atno 6907 bound_to 6896
  152.3796  134.6607  160.0156 H   0  0  0  0  0  0  0  0  0  0  0  0  # atno 6908 bound_to 6896
  151.6941  133.3274  159.3286 H   0  0  0  0  0  0  0  0  0  0  0  0  # atno 6909 bound_to 6896
  144.7165  140.0286  143.6439 H   0  0  0  0  0  0  0  0  0  0  0  0  # atno 7974 bound_to 7965
  154.4300  140.1089  156.5924 H   0  0  0  0  0  0  0  0  0  0  0  0  # atno 8008 bound_to 7997
  155.5997  140.3493  155.4571 H   0  0  0  0  0  0  0  0  0  0  0  0  # atno 8009 bound_to 7997
  156.0182  140.1234  157.0374 H   0  0  0  0  0  0  0  0  0  0  0  0  # atno 8010 bound_to 7997
  139.4845  144.4575  151.8748 H   0  0  0  0  0  0  0  0  0  0  0  0  # atno 10167 bound_to 10162
  157.0908  131.0417  151.2538 H   0  0  0  0  0  0  0  0  0  0  0  0  # atno 10718 bound_to 10713
  154.8682  135.4145  154.2723 H   0  0  0  0  0  0  0  0  0  0  0  0  # atno 10763 bound_to 10752
  153.3630  135.7004  153.6702 H   0  0  0  0  0  0  0  0  0  0  0  0  # atno 10764 bound_to 10752
  153.5595  135.3613  155.2765 H   0  0  0  0  0  0  0  0  0  0  0  0  # atno 10765 bound_to 10752
  139.8818  134.9378  156.5710 H   0  0  0  0  0  0  0  0  0  0  0  0  # atno 11005 bound_to 11000
  146.0121  139.3179  143.0864 LP  0  0  0  0  0  0  0  0  0  0  0  0  # atno 17320 bound_to 7965
  145.8669  140.9443  143.0671 LP  0  0  0  0  0  0  0  0  0  0  0  0  # atno 17321 bound_to 7965
  140.4036  144.2461  150.5892 LP  0  0  0  0  0  0  0  0  0  0  0  0  # atno 17342 bound_to 10162
  140.5034  143.2311  151.8645 LP  0  0  0  0  0  0  0  0  0  0  0  0  # atno 17343 bound_to 10162
  157.4722  130.7715  149.7334 LP  0  0  0  0  0  0  0  0  0  0  0  0  # atno 17370 bound_to 10713
  155.9898  130.3949  150.3055 LP  0  0  0  0  0  0  0  0  0  0  0  0  # atno 17371 bound_to 10713
  140.8098  133.8438  155.8800 LP  0  0  0  0  0  0  0  0  0  0  0  0  # atno 17394 bound_to 11000
  140.9516  134.1771  157.4723 LP  0  0  0  0  0  0  0  0  0  0  0  0  # atno 17395 bound_to 11000

$$$$
