AV-unprocessed.smi:1046|AV-procd|sdf|4550|dock2
  -GOLD-   22720 2573D 1   1.00000     0.00000
 Structure written by MMmdl.
 53 55  0  0  0  0  0  0  0  0  2 V2000
  152.2471  144.4257  159.0520 C   0  0  0  0  0  0  0  0  0  0  0  0
  152.3814  142.9186  159.1806 C   0  0  0  0  0  0  0  0  0  0  0  0
  153.2755  142.3876  160.1375 C   0  0  0  0  0  0  0  0  0  0  0  0
  153.4309  140.9920  160.2874 C   0  0  0  0  0  0  0  0  0  0  0  0
  154.2366  140.2640  161.1460 N   0  0  0  0  0  0  0  0  0  0  0  0
  153.9330  139.0151  160.8040 C   0  0  0  0  0  0  0  0  0  0  0  0
  153.0251  138.8478  159.8230 N   0  0  0  0  0  0  0  0  0  0  0  0
  152.5375  137.5924  159.2817 C   0  0  0  0  0  0  0  0  0  0  0  0
  152.7089  137.5164  157.7525 C   0  0  2  0  0  0  0  0  0  0  0  0
  153.8131  138.2950  157.3369 O   0  0  0  0  0  0  0  0  0  0  0  0
  151.4743  137.8837  156.8987 C   0  0  0  0  0  0  0  0  0  0  0  0
  151.4810  137.4377  155.4967 N   0  0  0  0  0  0  0  0  0  0  0  0
  150.6463  136.2549  155.2795 C   0  0  0  0  0  0  0  0  0  0  0  0
  149.1365  136.5482  155.3784 C   0  0  0  0  0  0  0  0  0  0  0  0
  148.7510  137.5838  154.3871 N   0  3  0  0  0  0  0  0  0  0  0  0
  147.2888  137.8412  154.3749 C   0  0  0  0  0  0  0  0  0  0  0  0
  146.8493  138.7177  153.1894 C   0  0  0  0  0  0  0  0  0  0  0  0
  147.1468  138.0686  151.9710 O   0  0  0  0  0  0  0  0  0  0  0  0
  149.5754  138.8078  154.5660 C   0  0  0  0  0  0  0  0  0  0  0  0
  151.0782  138.4578  154.5205 C   0  0  0  0  0  0  0  0  0  0  0  0
  152.6613  140.1358  159.4468 C   0  0  0  0  0  0  0  0  0  0  0  0
  151.7675  140.6516  158.4920 C   0  0  0  0  0  0  0  0  0  0  0  0
  151.6233  142.0483  158.3563 C   0  0  0  0  0  0  0  0  0  0  0  0
  150.6544  142.5958  157.3234 C   0  0  0  0  0  0  0  0  0  0  0  0
  152.9397  144.9453  159.7146 H   0  0  0  0  0  0  0  0  0  0  0  0
  151.2358  144.7410  159.3101 H   0  0  0  0  0  0  0  0  0  0  0  0
  152.4603  144.7439  158.0313 H   0  0  0  0  0  0  0  0  0  0  0  0
  153.8513  143.0498  160.7670 H   0  0  0  0  0  0  0  0  0  0  0  0
  154.3960  138.1723  161.2962 H   0  0  0  0  0  0  0  0  0  0  0  0
  153.0817  136.7807  159.7660 H   0  0  0  0  0  0  0  0  0  0  0  0
  151.4884  137.4931  159.5600 H   0  0  0  0  0  0  0  0  0  0  0  0
  152.9566  136.4841  157.5016 H   0  0  0  0  0  0  0  0  0  0  0  0
  154.5868  137.7526  157.3594 H   0  0  0  0  0  0  0  0  0  0  0  0
  150.6166  137.4364  157.4037 H   0  0  0  0  0  0  0  0  0  0  0  0
  151.3005  138.9574  156.9572 H   0  0  0  0  0  0  0  0  0  0  0  0
  150.8619  135.8432  154.2926 H   0  0  0  0  0  0  0  0  0  0  0  0
  150.9190  135.4722  155.9885 H   0  0  0  0  0  0  0  0  0  0  0  0
  148.5795  135.6307  155.1839 H   0  0  0  0  0  0  0  0  0  0  0  0
  148.8681  136.8749  156.3843 H   0  0  0  0  0  0  0  0  0  0  0  0
  146.7513  136.8932  154.3188 H   0  0  0  0  0  0  0  0  0  0  0  0
  146.9933  138.3036  155.3177 H   0  0  0  0  0  0  0  0  0  0  0  0
  145.7723  138.8817  153.2334 H   0  0  0  0  0  0  0  0  0  0  0  0
  147.3167  139.7016  153.2080 H   0  0  0  0  0  0  0  0  0  0  0  0
  147.9349  137.5585  152.0851 H   0  0  0  0  0  0  0  0  0  0  0  0
  149.3616  139.5217  153.7715 H   0  0  0  0  0  0  0  0  0  0  0  0
  149.3151  139.3009  155.5030 H   0  0  0  0  0  0  0  0  0  0  0  0
  151.6583  139.3677  154.6402 H   0  0  0  0  0  0  0  0  0  0  0  0
  151.3177  138.0958  153.5198 H   0  0  0  0  0  0  0  0  0  0  0  0
  151.1972  139.9770  157.8709 H   0  0  0  0  0  0  0  0  0  0  0  0
  150.1096  141.7934  156.8248 H   0  0  0  0  0  0  0  0  0  0  0  0
  151.1902  143.1620  156.5614 H   0  0  0  0  0  0  0  0  0  0  0  0
  149.9226  143.2529  157.7936 H   0  0  0  0  0  0  0  0  0  0  0  0
  148.9799  137.2029  153.4798 H   0  0  0  0  0  0  0  0  0  0  0  0
  1  2  1  0  0  0  0
  1 25  1  0  0  0  0
  1 26  1  0  0  0  0
  1 27  1  0  0  0  0
  2 23  1  0  0  0  0
  2  3  2  0  0  0  0
  3  4  1  0  0  0  0
  3 28  1  0  0  0  0
  4 21  2  0  0  0  0
  4  5  1  0  0  0  0
  5  6  2  0  0  0  0
  6  7  1  0  0  0  0
  6 29  1  0  0  0  0
  7  8  1  0  0  0  0
  7 21  1  0  0  0  0
  8  9  1  0  0  0  0
  8 30  1  0  0  0  0
  8 31  1  0  0  0  0
  9 10  1  0  0  0  0
  9 11  1  0  0  0  0
  9 32  1  0  0  0  0
 10 33  1  0  0  0  0
 11 12  1  0  0  0  0
 11 34  1  0  0  0  0
 11 35  1  0  0  0  0
 12 20  1  0  0  0  0
 12 13  1  0  0  0  0
 13 14  1  0  0  0  0
 13 36  1  0  0  0  0
 13 37  1  0  0  0  0
 14 15  1  0  0  0  0
 14 38  1  0  0  0  0
 14 39  1  0  0  0  0
 15 16  1  0  0  0  0
 15 19  1  0  0  0  0
 15 53  1  0  0  0  0
 16 17  1  0  0  0  0
 16 40  1  0  0  0  0
 16 41  1  0  0  0  0
 17 18  1  0  0  0  0
 17 42  1  0  0  0  0
 17 43  1  0  0  0  0
 18 44  1  0  0  0  0
 19 20  1  0  0  0  0
 19 45  1  0  0  0  0
 19 46  1  0  0  0  0
 20 47  1  0  0  0  0
 20 48  1  0  0  0  0
 21 22  1  0  0  0  0
 22 23  2  0  0  0  0
 22 49  1  0  0  0  0
 23 24  1  0  0  0  0
 24 50  1  0  0  0  0
 24 51  1  0  0  0  0
 24 52  1  0  0  0  0
M  CHG  1  15   1
M  END
> <s_m_source_file>
AV-unprocessed.smi

> <i_m_source_file_index>
1046

> <i_lp_mmshare_version>
43012

> <i_f3d_flags>
0

> <s_epik_input>
W0NIM11jKFtjSF0xKWMoW0NIM10pW2NIXWMoYzEyKW4oW2NIXW4yKVtDSDJdW0NASF0oW09IXSlbQ0gyXU4zW0NIMl1bQ0gyXU4oW0NIMl1bQ0gyXTMpW0NIMl1bQ0gyXVtPSF0=

> <s_epik_cmdline>
J2VwaWtfcHl0aG9uJywgJy1waCcsICc3LjAnLCAnLXRuJywgJzgnLCAnLW1hJywgJzIwMCcsICctbWV0YWxfYmluZGluZycsICctaW1hZScsICc8aW5maWxlLm1hZT4nLCAnLW9tYWUnLCAnPG91dGZpbGUubWFlPic=

> <r_epik_Ionization_Penalty>
0.218081

> <r_epik_Ionization_Penalty_Charging>
0.0909554

> <r_epik_Ionization_Penalty_Neutral>
0.127126

> <r_epik_State_Penalty>
0.825642

> <r_epik_Charging_Adjusted_Penalty>
0.916597

> <i_epik_Tot_Q>
1

> <i_epik_Tot_abs_Q>
1

> <r_epik_Metal_State_Penalty>
0.740189

> <b_epik_Metal_Only>
0

> <s_lp_Force_Field>
OPLS_2005

> <r_lp_Energy>
40.3597

> <b_lp_Chiralities_Consistent>
1

> <s_lp_Variant>
AV-unprocessed.smi:1046-3

> <Gold.Version>
5.8.1

> <Gold.Id.Protein>
6NUR|6NUR_protein|mol2

> <Gold.PLP.Fitness>
56.0843

> <Gold.PLP.PLP>
-46.7898

> <Gold.PLP.part.hbond>
-5.0000

> <Gold.PLP.part.metal>
0.0000

> <Gold.PLP.part.buried>
-6.7127

> <Gold.PLP.part.nonpolar>
-35.8112

> <Gold.PLP.part.repulsive>
0.0615

> <Gold.PLP.ligand.clash>
0.0000

> <Gold.PLP.ligand.torsion>
1.2460

> <Gold.PLP.Chemscore.Hbond>
3.8480

> <Gold.PLP.Chemscore.CHOScore>
0.0000

> <Gold.PLP.Chemscore.Metal>
0.0000

> <Gold.Chemscore.Hbonds>
donor molecule, donor type, donor heavy atom, donor atom, acceptor molecule, acceptor atom, score
      L1  H    15    53       P1  7948  2.00
      L1  H    18    44       P1  7948  1.00
      P1  H  7997  8009       L1    10  0.86

> <Gold.PLP.Chemscore.Internal.Correction>
0.2425

> <Gold.Rescore>
     Score         DG    S(hbond)    S(metal)    S(lipo)     H(rot)  DE(clash)    DE(int)     intcor
     18.64     -20.67       2.55        0.00     127.21       3.21       0.07       1.95       ----

> <Gold.Chemscore.Fitness>
18.6441

> <Gold.Chemscore.DG>
-20.6690

> <Gold.Chemscore.ZeroCoef>
-5.4800

> <Gold.Chemscore.Hbond>
2.5484

> <Gold.Chemscore.Metal>
0.0000

> <Gold.Chemscore.Lipo>
127.2133

> <Gold.Chemscore.Internal_Hbond>
0.0000

> <Gold.Chemscore.DEClash>
0.0703

> <Gold.Chemscore.DEInternal>
1.9547

> <Gold.Chemscore.Rot>
3.2058

> <Gold.Chemscore.Internal.Correction>
   9.000000E+99

> <Gold.Chemscore.Hbonds>
donor molecule, donor type, donor heavy atom, donor atom, acceptor molecule, acceptor atom, score
      L1  H    15    53       P1  7948  1.00
      L1  H    18    44       P1  7948  0.98
      P1  H  7997  8009       L1    10  0.29

> <Gold.Chemscore.Hbond.Weighted>
-8.5118

> <Gold.Chemscore.Metal.Weighted>
-0.0000

> <Gold.Chemscore.Lipo.Weighted>
-14.8840

> <Gold.Chemscore.Internal_Hbond.Weighted>
0.0000

> <Gold.Chemscore.DEClash.Weighted>
0.0703

> <Gold.Chemscore.DEInternal.Weighted>
1.9547

> <Gold.Chemscore.Rot.Weighted>
8.2067

> <Gold.Chemscore.Internal.Correction.Weighted>
   9.000000E+99

> <Gold.Protein.RotatedTorsions>
[ 6907 6896 6895 6894 ] final  116.72 input  -60.11 | X-H torsion
[ 7974 7965 7964 7962 ] final   79.78 input  175.53 | X-H torsion
[ 8008 7997 7996 7995 ] final  160.34 input   59.86 | X-H torsion
[ 10167 10162 10161 10158 ] final -165.23 input  -65.29 | X-H torsion
[ 10718 10713 10712 10709 ] final   26.95 input   66.30 | X-H torsion
[ 10763 10752 10751 10750 ] final   80.84 input  -60.55 | X-H torsion
[ 11005 11000 10999 10996 ] final -155.01 input  -57.11 | X-H torsion

> <Gold.Protein.ActiveResidues>
 VAL166  LYS551  ARG553  GLY616  TRP617  ASP618  TYR619  PRO620  LYS621  CYS622 
 ASP623  PHE694  ASN695  SER759  ASP760  ASP761  ALA762  ILE779  LEU786  VAL792 
 PHE793  MET794  SER795  GLU796  ALA797  LYS798  CYS799  TRP800  GLU811  SER814 

> <Gold.Protein.RotatedAtoms>
  152.4659  133.7923  159.6908 H   0  0  0  0  0  0  0  0  0  0  0  0  # atno 6907 bound_to 6896
  150.8624  133.7614  159.2994 H   0  0  0  0  0  0  0  0  0  0  0  0  # atno 6908 bound_to 6896
  151.5175  135.1069  159.9922 H   0  0  0  0  0  0  0  0  0  0  0  0  # atno 6909 bound_to 6896
  145.6597  139.2468  143.1929 H   0  0  0  0  0  0  0  0  0  0  0  0  # atno 7974 bound_to 7965
  156.2178  140.1807  156.7547 H   0  0  0  0  0  0  0  0  0  0  0  0  # atno 8008 bound_to 7997
  154.5819  140.0665  156.9145 H   0  0  0  0  0  0  0  0  0  0  0  0  # atno 8009 bound_to 7997
  155.2488  140.3327  155.4287 H   0  0  0  0  0  0  0  0  0  0  0  0  # atno 8010 bound_to 7997
  139.6196  144.0651  152.1920 H   0  0  0  0  0  0  0  0  0  0  0  0  # atno 10167 bound_to 10162
  157.2137  130.6946  149.6240 H   0  0  0  0  0  0  0  0  0  0  0  0  # atno 10718 bound_to 10713
  153.1067  135.4787  154.8964 H   0  0  0  0  0  0  0  0  0  0  0  0  # atno 10763 bound_to 10752
  154.7438  135.3089  154.8684 H   0  0  0  0  0  0  0  0  0  0  0  0  # atno 10764 bound_to 10752
  153.9285  135.6847  153.4799 H   0  0  0  0  0  0  0  0  0  0  0  0  # atno 10765 bound_to 10752
  140.6911  134.4040  157.5219 H   0  0  0  0  0  0  0  0  0  0  0  0  # atno 11005 bound_to 11000
  146.1135  140.7398  142.9492 LP  0  0  0  0  0  0  0  0  0  0  0  0  # atno 17320 bound_to 7965
  144.7093  140.3977  143.7093 LP  0  0  0  0  0  0  0  0  0  0  0  0  # atno 17321 bound_to 7965
  140.0289  144.6096  150.7504 LP  0  0  0  0  0  0  0  0  0  0  0  0  # atno 17342 bound_to 10162
  140.7373  143.2764  151.3729 LP  0  0  0  0  0  0  0  0  0  0  0  0  # atno 17343 bound_to 10162
  155.9688  130.4542  150.5843 LP  0  0  0  0  0  0  0  0  0  0  0  0  # atno 17370 bound_to 10713
  157.3646  131.0755  151.1608 LP  0  0  0  0  0  0  0  0  0  0  0  0  # atno 17371 bound_to 10713
  139.8923  134.8758  156.2277 LP  0  0  0  0  0  0  0  0  0  0  0  0  # atno 17394 bound_to 11000
  141.0240  133.7025  156.1316 LP  0  0  0  0  0  0  0  0  0  0  0  0  # atno 17395 bound_to 11000

$$$$
