AV-unprocessed.smi:2892|AV-procd|sdf|11119|dock3
  -GOLD-   2272015593D 1   1.00000     0.00000
 Structure written by MMmdl.
 42 42  0  0  0  0  0  0  0  0  2 V2000
  152.7890  143.6861  158.7228 C   0  0  0  0  0  0  0  0  0  0  0  0
  152.1333  142.3990  159.2453 C   0  0  0  0  0  0  0  0  0  0  0  0
  151.2614  141.6514  158.2010 C   0  0  1  0  0  0  0  0  0  0  0  0
  150.6822  142.6515  157.1746 C   0  0  0  0  0  0  0  0  0  0  0  0
  152.0362  140.5018  157.4836 C   0  0  2  0  0  0  0  0  0  0  0  0
  151.1112  139.7518  156.6335 N   0  0  0  0  0  0  0  0  0  0  0  0
  151.2889  139.4596  155.3341 C   0  0  0  0  0  0  0  0  0  0  0  0
  152.2407  139.8691  154.6698 O   0  0  0  0  0  0  0  0  0  0  0  0
  150.2226  138.5769  154.6783 C   0  0  0  0  0  0  0  0  0  0  0  0
  148.9715  139.3701  154.4007 C   0  0  0  0  0  0  0  0  0  0  0  0
  147.8992  139.0370  153.5245 C   0  0  0  0  0  0  0  0  0  0  0  0
  147.0594  140.1095  153.6098 C   0  0  0  0  0  0  0  0  0  0  0  0
  147.6143  140.9980  154.5084 N   0  0  0  0  0  0  0  0  0  0  0  0
  147.1330  142.3107  154.9113 C   0  0  0  0  0  0  0  0  0  0  0  0
  146.8165  142.3525  156.4144 C   0  0  0  0  0  0  0  0  0  0  0  0
  145.9269  142.7263  154.0560 C   0  0  0  0  0  0  0  0  0  0  0  0
  148.7882  140.5408  154.9944 N   0  0  0  0  0  0  0  0  0  0  0  0
  152.6259  139.5159  158.5112 C   0  0  0  0  0  0  0  0  0  0  0  0
  153.8725  139.4474  158.5797 O   0  0  0  0  0  0  0  0  0  0  0  0
  151.8256  138.8541  159.2109 O   0  5  0  0  0  0  0  0  0  0  0  0
  153.2882  144.2161  159.5341 H   0  0  0  0  0  0  0  0  0  0  0  0
  152.0468  144.3610  158.2959 H   0  0  0  0  0  0  0  0  0  0  0  0
  153.5412  143.4822  157.9618 H   0  0  0  0  0  0  0  0  0  0  0  0
  152.9012  141.7287  159.6327 H   0  0  0  0  0  0  0  0  0  0  0  0
  151.5317  142.6875  160.1064 H   0  0  0  0  0  0  0  0  0  0  0  0
  150.4167  141.2093  158.7327 H   0  0  0  0  0  0  0  0  0  0  0  0
  151.4769  143.1388  156.6090 H   0  0  0  0  0  0  0  0  0  0  0  0
  150.0905  143.4295  157.6546 H   0  0  0  0  0  0  0  0  0  0  0  0
  150.0182  142.1668  156.4590 H   0  0  0  0  0  0  0  0  0  0  0  0
  152.8402  140.9271  156.8793 H   0  0  0  0  0  0  0  0  0  0  0  0
  150.3025  139.3609  157.0940 H   0  0  0  0  0  0  0  0  0  0  0  0
  150.6279  138.1666  153.7531 H   0  0  0  0  0  0  0  0  0  0  0  0
  150.0026  137.7271  155.3262 H   0  0  0  0  0  0  0  0  0  0  0  0
  147.7792  138.1573  152.9101 H   0  0  0  0  0  0  0  0  0  0  0  0
  146.1268  140.3144  153.1054 H   0  0  0  0  0  0  0  0  0  0  0  0
  147.9340  143.0291  154.7268 H   0  0  0  0  0  0  0  0  0  0  0  0
  146.5275  143.3574  156.7227 H   0  0  0  0  0  0  0  0  0  0  0  0
  147.6854  142.0638  157.0065 H   0  0  0  0  0  0  0  0  0  0  0  0
  145.9973  141.6805  156.6721 H   0  0  0  0  0  0  0  0  0  0  0  0
  145.5927  143.7321  154.3112 H   0  0  0  0  0  0  0  0  0  0  0  0
  145.0848  142.0487  154.1995 H   0  0  0  0  0  0  0  0  0  0  0  0
  146.1792  142.7219  152.9950 H   0  0  0  0  0  0  0  0  0  0  0  0
  1  2  1  0  0  0  0
  1 21  1  0  0  0  0
  1 22  1  0  0  0  0
  1 23  1  0  0  0  0
  2  3  1  0  0  0  0
  2 24  1  0  0  0  0
  2 25  1  0  0  0  0
  3  4  1  0  0  0  0
  3  5  1  0  0  0  0
  3 26  1  0  0  0  0
  4 27  1  0  0  0  0
  4 28  1  0  0  0  0
  4 29  1  0  0  0  0
  5  6  1  0  0  0  0
  5 18  1  0  0  0  0
  5 30  1  0  0  0  0
  6  7  1  0  0  0  0
  6 31  1  0  0  0  0
  7  8  2  0  0  0  0
  7  9  1  0  0  0  0
  9 10  1  0  0  0  0
  9 32  1  0  0  0  0
  9 33  1  0  0  0  0
 10 17  2  0  0  0  0
 10 11  1  0  0  0  0
 11 12  2  0  0  0  0
 11 34  1  0  0  0  0
 12 13  1  0  0  0  0
 12 35  1  0  0  0  0
 13 14  1  0  0  0  0
 13 17  1  0  0  0  0
 14 15  1  0  0  0  0
 14 16  1  0  0  0  0
 14 36  1  0  0  0  0
 15 37  1  0  0  0  0
 15 38  1  0  0  0  0
 15 39  1  0  0  0  0
 16 40  1  0  0  0  0
 16 41  1  0  0  0  0
 16 42  1  0  0  0  0
 18 19  2  0  0  0  0
 18 20  1  0  0  0  0
M  CHG  1  20  -1
M  END
> <s_m_source_file>
AV-unprocessed.smi

> <i_m_source_file_index>
2892

> <i_lp_mmshare_version>
43012

> <i_f3d_flags>
0

> <s_epik_input>
W0NIM11bQ0gyXVtDQEhdKFtDSDNdKVtDQEBIXShDKD1PKVtPSF0pW05IXUMoPU8pW0NIMl1jMVtjSF1bY0hdbihuMSlbQ0hdKFtDSDNdKVtDSDNd

> <s_epik_cmdline>
J2VwaWtfcHl0aG9uJywgJy1waCcsICc3LjAnLCAnLXRuJywgJzgnLCAnLW1hJywgJzIwMCcsICctbWV0YWxfYmluZGluZycsICctaW1hZScsICc8aW5maWxlLm1hZT4nLCAnLW9tYWUnLCAnPG91dGZpbGUubWFlPic=

> <r_lp_tautomer_probability>
1

> <r_epik_Ionization_Penalty>
0.000286846

> <r_epik_Ionization_Penalty_Charging>
0.000224481

> <r_epik_Ionization_Penalty_Neutral>
6.23655e-05

> <r_epik_State_Penalty>
-0

> <r_epik_Charging_Adjusted_Penalty>
0.000224481

> <i_epik_Tot_Q>
-1

> <i_epik_Tot_abs_Q>
1

> <r_epik_Metal_State_Penalty>
-0

> <b_epik_Metal_Only>
0

> <s_lp_Force_Field>
OPLS_2005

> <r_lp_Energy>
14.4899

> <b_lp_Chiralities_Consistent>
1

> <s_lp_Variant>
AV-unprocessed.smi:2892-2

> <Gold.Version>
5.8.1

> <Gold.Id.Protein>
6NUR|6NUR_protein|mol2

> <Gold.PLP.Fitness>
44.6103

> <Gold.PLP.PLP>
-35.4841

> <Gold.PLP.part.hbond>
-1.7469

> <Gold.PLP.part.metal>
0.0000

> <Gold.PLP.part.buried>
-0.8212

> <Gold.PLP.part.nonpolar>
-32.3740

> <Gold.PLP.part.repulsive>
0.2276

> <Gold.PLP.ligand.clash>
0.0000

> <Gold.PLP.ligand.torsion>
1.1131

> <Gold.PLP.Chemscore.Hbond>
2.7040

> <Gold.PLP.Chemscore.CHOScore>
0.9997

> <Gold.PLP.Chemscore.Metal>
0.0000

> <Gold.Chemscore.Hbonds>
donor molecule, donor type, donor heavy atom, donor atom, acceptor molecule, acceptor atom, score
      P1  H  7989  7998       L1     8  0.72
      P1  H  7997  8010       L1    19  2.00
      L1  C    12    35       P1 10175  1.00

> <Gold.PLP.Chemscore.Internal.Correction>
0.2413

> <Gold.Rescore>
     Score         DG    S(hbond)    S(metal)    S(lipo)     H(rot)  DE(clash)    DE(int)     intcor
     12.45     -14.80       1.66        0.00      84.61       2.39       0.16       2.19       ----

> <Gold.Chemscore.Fitness>
12.4532

> <Gold.Chemscore.DG>
-14.7981

> <Gold.Chemscore.ZeroCoef>
-5.4800

> <Gold.Chemscore.Hbond>
1.6551

> <Gold.Chemscore.Metal>
0.0000

> <Gold.Chemscore.Lipo>
84.6111

> <Gold.Chemscore.Internal_Hbond>
0.0000

> <Gold.Chemscore.DEClash>
0.1590

> <Gold.Chemscore.DEInternal>
2.1860

> <Gold.Chemscore.Rot>
2.3865

> <Gold.Chemscore.Internal.Correction>
   9.000000E+99

> <Gold.Chemscore.Hbonds>
donor molecule, donor type, donor heavy atom, donor atom, acceptor molecule, acceptor atom, score
      P1  H  7989  7998       L1     8  0.50
      P1  H  7997  8010       L1    19  0.88

> <Gold.Chemscore.Hbond.Weighted>
-5.5280

> <Gold.Chemscore.Metal.Weighted>
-0.0000

> <Gold.Chemscore.Lipo.Weighted>
-9.8995

> <Gold.Chemscore.Internal_Hbond.Weighted>
0.0000

> <Gold.Chemscore.DEClash.Weighted>
0.1590

> <Gold.Chemscore.DEInternal.Weighted>
2.1860

> <Gold.Chemscore.Rot.Weighted>
6.1093

> <Gold.Chemscore.Internal.Correction.Weighted>
   9.000000E+99

> <Gold.Protein.RotatedTorsions>
[ 6907 6896 6895 6894 ] final  -44.48 input  -60.11 | X-H torsion
[ 7974 7965 7964 7962 ] final  -14.27 input  175.53 | X-H torsion
[ 8008 7997 7996 7995 ] final   27.49 input   59.86 | X-H torsion
[ 10167 10162 10161 10158 ] final   99.24 input  -65.29 | X-H torsion
[ 10718 10713 10712 10709 ] final -104.74 input   66.30 | X-H torsion
[ 10763 10752 10751 10750 ] final  -36.43 input  -60.55 | X-H torsion
[ 11005 11000 10999 10996 ] final -139.33 input  -57.11 | X-H torsion

> <Gold.Protein.ActiveResidues>
 VAL166  LYS551  ARG553  GLY616  TRP617  ASP618  TYR619  PRO620  LYS621  CYS622 
 ASP623  PHE694  ASN695  SER759  ASP760  ASP761  ALA762  ILE779  LEU786  VAL792 
 PHE793  MET794  SER795  GLU796  ALA797  LYS798  CYS799  TRP800  GLU811  SER814 

> <Gold.Protein.RotatedAtoms>
  150.9324  134.8738  159.7559 H   0  0  0  0  0  0  0  0  0  0  0  0  # atno 6907 bound_to 6896
  152.5044  134.4060  159.9442 H   0  0  0  0  0  0  0  0  0  0  0  0  # atno 6908 bound_to 6896
  151.4086  133.3694  159.2776 H   0  0  0  0  0  0  0  0  0  0  0  0  # atno 6909 bound_to 6896
  146.2081  140.3323  142.8400 H   0  0  0  0  0  0  0  0  0  0  0  0  # atno 7974 bound_to 7965
  155.0438  140.3172  155.4715 H   0  0  0  0  0  0  0  0  0  0  0  0  # atno 8008 bound_to 7997
  156.2849  140.2158  156.5506 H   0  0  0  0  0  0  0  0  0  0  0  0  # atno 8009 bound_to 7997
  154.7267  140.0485  157.0677 H   0  0  0  0  0  0  0  0  0  0  0  0  # atno 8010 bound_to 7997
  139.7636  144.6946  151.0257 H   0  0  0  0  0  0  0  0  0  0  0  0  # atno 10167 bound_to 10162
  156.0317  130.5530  150.7440 H   0  0  0  0  0  0  0  0  0  0  0  0  # atno 10718 bound_to 10713
  153.8797  135.6823  153.4768 H   0  0  0  0  0  0  0  0  0  0  0  0  # atno 10763 bound_to 10752
  153.1241  135.4727  154.9241 H   0  0  0  0  0  0  0  0  0  0  0  0  # atno 10764 bound_to 10752
  154.7675  135.3228  154.8209 H   0  0  0  0  0  0  0  0  0  0  0  0  # atno 10765 bound_to 10752
  140.8530  134.2262  157.4750 H   0  0  0  0  0  0  0  0  0  0  0  0  # atno 11005 bound_to 11000
  144.8843  140.7442  143.5966 LP  0  0  0  0  0  0  0  0  0  0  0  0  # atno 17320 bound_to 7965
  145.3244  139.1778  143.4570 LP  0  0  0  0  0  0  0  0  0  0  0  0  # atno 17321 bound_to 7965
  140.7809  143.4669  151.0200 LP  0  0  0  0  0  0  0  0  0  0  0  0  # atno 17342 bound_to 10162
  139.8354  143.7634  152.3180 LP  0  0  0  0  0  0  0  0  0  0  0  0  # atno 17343 bound_to 10162
  157.5001  131.0918  151.0324 LP  0  0  0  0  0  0  0  0  0  0  0  0  # atno 17370 bound_to 10713
  157.0707  130.5863  149.5402 LP  0  0  0  0  0  0  0  0  0  0  0  0  # atno 17371 bound_to 10713
  139.8704  134.9692  156.4659 LP  0  0  0  0  0  0  0  0  0  0  0  0  # atno 17394 bound_to 11000
  140.8769  133.7947  155.9424 LP  0  0  0  0  0  0  0  0  0  0  0  0  # atno 17395 bound_to 11000

$$$$
