AV-unprocessed.smi:2801|AV-procd|sdf|10798|dock1
  -GOLD-   2272015233D 1   1.00000     0.00000
 Structure written by MMmdl.
 32 32  0  0  0  0  0  0  0  0  3 V2000
  153.0205  142.4769  160.9374 C   0  0  0  0  0  0  0  0  0  0  0  0
  152.8136  141.4767  159.7981 C   0  0  0  0  0  0  0  0  0  0  0  0
  152.6720  142.1998  158.5814 O   0  0  0  0  0  0  0  0  0  0  0  0
  151.3906  142.7859  158.3629 C   0  0  1  0  0  0  0  0  0  0  0  0
  151.6089  144.2078  157.8122 C   0  0  0  0  0  0  0  0  0  0  0  0
  152.2344  145.1552  158.8436 C   0  0  0  0  0  0  0  0  0  0  0  0
  150.5788  141.9276  157.3788 C   0  0  0  0  0  0  0  0  0  0  0  0
  149.3658  142.1077  157.2739 O   0  0  0  0  0  0  0  0  0  0  0  0
  151.2894  141.0363  156.6638 N   0  0  0  0  0  0  0  0  0  0  0  0
  150.8538  140.1056  155.6782 C   0  0  0  0  0  0  0  0  0  0  0  0
  149.5693  140.1394  155.0766 C   0  0  0  0  0  0  0  0  0  0  0  0
  149.2249  139.1627  154.1209 C   0  0  0  0  0  0  0  0  0  0  0  0
  150.1102  138.1993  153.7909 N   0  3  0  0  0  0  0  0  0  0  0  0
  151.3379  138.1173  154.3439 C   0  0  0  0  0  0  0  0  0  0  0  0
  151.7427  139.0657  155.3051 C   0  0  0  0  0  0  0  0  0  0  0  0
  152.9892  138.9615  155.8564 O   0  5  0  0  0  0  0  0  0  0  0  0
  153.1328  141.9629  161.8920 H   0  0  0  0  0  0  0  0  0  0  0  0
  152.1718  143.1564  161.0202 H   0  0  0  0  0  0  0  0  0  0  0  0
  153.9158  143.0769  160.7724 H   0  0  0  0  0  0  0  0  0  0  0  0
  153.6622  140.7933  159.7551 H   0  0  0  0  0  0  0  0  0  0  0  0
  151.9191  140.8813  159.9868 H   0  0  0  0  0  0  0  0  0  0  0  0
  150.8552  142.8595  159.3119 H   0  0  0  0  0  0  0  0  0  0  0  0
  152.2437  144.1722  156.9256 H   0  0  0  0  0  0  0  0  0  0  0  0
  150.6553  144.6280  157.4894 H   0  0  0  0  0  0  0  0  0  0  0  0
  152.3602  146.1544  158.4264 H   0  0  0  0  0  0  0  0  0  0  0  0
  153.2158  144.8022  159.1611 H   0  0  0  0  0  0  0  0  0  0  0  0
  151.6059  145.2420  159.7302 H   0  0  0  0  0  0  0  0  0  0  0  0
  152.2899  141.0598  156.8027 H   0  0  0  0  0  0  0  0  0  0  0  0
  148.8340  140.8846  155.3348 H   0  0  0  0  0  0  0  0  0  0  0  0
  148.2699  139.1204  153.6184 H   0  0  0  0  0  0  0  0  0  0  0  0
  151.9558  137.2985  154.0049 H   0  0  0  0  0  0  0  0  0  0  0  0
  149.8396  137.5011  153.0985 H   0  0  0  0  0  0  0  0  0  0  0  0
  1  2  1  0  0  0  0
  1 17  1  0  0  0  0
  1 18  1  0  0  0  0
  1 19  1  0  0  0  0
  2  3  1  0  0  0  0
  2 20  1  0  0  0  0
  2 21  1  0  0  0  0
  3  4  1  0  0  0  0
  4  5  1  0  0  0  0
  4  7  1  0  0  0  0
  4 22  1  0  0  0  0
  5  6  1  0  0  0  0
  5 23  1  0  0  0  0
  5 24  1  0  0  0  0
  6 25  1  0  0  0  0
  6 26  1  0  0  0  0
  6 27  1  0  0  0  0
  7  8  2  0  0  0  0
  7  9  1  0  0  0  0
  9 28  1  0  0  0  0
  9 10  1  0  0  0  0
 10 11  2  0  0  0  0
 10 15  1  0  0  0  0
 11 12  1  0  0  0  0
 11 29  1  0  0  0  0
 12 13  2  0  0  0  0
 12 30  1  0  0  0  0
 13 14  1  0  0  0  0
 13 32  1  0  0  0  0
 14 15  2  0  0  0  0
 14 31  1  0  0  0  0
 15 16  1  0  0  0  0
M  CHG  1  13   1
M  CHG  1  16  -1
M  END
> <s_m_source_file>
AV-unprocessed.smi

> <i_m_source_file_index>
2801

> <i_lp_mmshare_version>
43012

> <i_f3d_flags>
0

> <s_epik_input>
W0NIM11bQ0gyXU9bQ0BIXShbQ0gyXVtDSDNdKUMoPU8pW05IXWMxW2NIXVtjSF1uW2NIXWMxW09IXQ==

> <s_epik_cmdline>
J2VwaWtfcHl0aG9uJywgJy1waCcsICc3LjAnLCAnLXRuJywgJzgnLCAnLW1hJywgJzIwMCcsICctbWV0YWxfYmluZGluZycsICctaW1hZScsICc8aW5maWxlLm1hZT4nLCAnLW9tYWUnLCAnPG91dGZpbGUubWFlPic=

> <r_lp_tautomer_probability>
0.56342

> <r_epik_Ionization_Penalty>
0.0170685

> <r_epik_Ionization_Penalty_Charging>
0.0170685

> <r_epik_Ionization_Penalty_Neutral>
1.5328e-09

> <r_epik_State_Penalty>
0.331557

> <r_epik_Charging_Adjusted_Penalty>
0.348625

> <i_epik_Tot_Q>
0

> <i_epik_Tot_abs_Q>
2

> <r_epik_Metal_State_Penalty>
0.590147

> <b_epik_Metal_Only>
0

> <s_lp_Force_Field>
OPLS_2005

> <r_lp_Energy>
9.87866

> <b_lp_Chiralities_Consistent>
1

> <s_lp_Variant>
AV-unprocessed.smi:2801-2

> <Gold.Version>
5.8.1

> <Gold.Id.Protein>
6NUR|6NUR_protein|mol2

> <Gold.PLP.Fitness>
46.9734

> <Gold.PLP.PLP>
-37.1910

> <Gold.PLP.part.hbond>
-2.6139

> <Gold.PLP.part.metal>
0.0000

> <Gold.PLP.part.buried>
-3.3081

> <Gold.PLP.part.nonpolar>
-31.7258

> <Gold.PLP.part.repulsive>
0.7809

> <Gold.PLP.ligand.clash>
0.0000

> <Gold.PLP.ligand.torsion>
1.1657

> <Gold.PLP.Chemscore.Hbond>
4.0000

> <Gold.PLP.Chemscore.CHOScore>
0.0000

> <Gold.PLP.Chemscore.Metal>
0.0000

> <Gold.Chemscore.Hbonds>
donor molecule, donor type, donor heavy atom, donor atom, acceptor molecule, acceptor atom, score
      L1  H    13    32       P1  7948  2.00
      P1  H  7997  8009       L1    16  2.00

> <Gold.PLP.Chemscore.Internal.Correction>
0.1138

> <Gold.Rescore>
     Score         DG    S(hbond)    S(metal)    S(lipo)     H(rot)  DE(clash)    DE(int)     intcor
     16.09     -18.17       1.92        0.00      88.41       1.59       0.15       1.94       ----

> <Gold.Chemscore.Fitness>
16.0873

> <Gold.Chemscore.DG>
-18.1731

> <Gold.Chemscore.ZeroCoef>
-5.4800

> <Gold.Chemscore.Hbond>
1.9245

> <Gold.Chemscore.Metal>
0.0000

> <Gold.Chemscore.Lipo>
88.4119

> <Gold.Chemscore.Internal_Hbond>
0.0000

> <Gold.Chemscore.DEClash>
0.1465

> <Gold.Chemscore.DEInternal>
1.9393

> <Gold.Chemscore.Rot>
1.5933

> <Gold.Chemscore.Internal.Correction>
   9.000000E+99

> <Gold.Chemscore.Hbonds>
donor molecule, donor type, donor heavy atom, donor atom, acceptor molecule, acceptor atom, score
      L1  H    13    32       P1  7948  0.45
      P1  H  7997  8009       L1    16  0.99

> <Gold.Chemscore.Hbond.Weighted>
-6.4278

> <Gold.Chemscore.Metal.Weighted>
-0.0000

> <Gold.Chemscore.Lipo.Weighted>
-10.3442

> <Gold.Chemscore.Internal_Hbond.Weighted>
0.0000

> <Gold.Chemscore.DEClash.Weighted>
0.1465

> <Gold.Chemscore.DEInternal.Weighted>
1.9393

> <Gold.Chemscore.Rot.Weighted>
4.0789

> <Gold.Chemscore.Internal.Correction.Weighted>
   9.000000E+99

> <Gold.Protein.RotatedTorsions>
[ 6907 6896 6895 6894 ] final  -48.60 input  -60.11 | X-H torsion
[ 7974 7965 7964 7962 ] final   -8.91 input  175.53 | X-H torsion
[ 8008 7997 7996 7995 ] final -165.39 input   59.86 | X-H torsion
[ 10167 10162 10161 10158 ] final -159.12 input  -65.29 | X-H torsion
[ 10718 10713 10712 10709 ] final -129.33 input   66.30 | X-H torsion
[ 10763 10752 10751 10750 ] final -174.44 input  -60.55 | X-H torsion
[ 11005 11000 10999 10996 ] final   86.60 input  -57.11 | X-H torsion

> <Gold.Protein.ActiveResidues>
 VAL166  LYS551  ARG553  GLY616  TRP617  ASP618  TYR619  PRO620  LYS621  CYS622 
 ASP623  PHE694  ASN695  SER759  ASP760  ASP761  ALA762  ILE779  LEU786  VAL792 
 PHE793  MET794  SER795  GLU796  ALA797  LYS798  CYS799  TRP800  GLU811  SER814 

> <Gold.Protein.RotatedAtoms>
  150.8889  134.8290  159.7278 H   0  0  0  0  0  0  0  0  0  0  0  0  # atno 6907 bound_to 6896
  152.4825  134.4679  159.9636 H   0  0  0  0  0  0  0  0  0  0  0  0  # atno 6908 bound_to 6896
  151.4744  133.3522  159.2864 H   0  0  0  0  0  0  0  0  0  0  0  0  # atno 6909 bound_to 6896
  146.2267  140.2538  142.8348 H   0  0  0  0  0  0  0  0  0  0  0  0  # atno 7974 bound_to 7965
  155.8491  140.0960  157.1686 H   0  0  0  0  0  0  0  0  0  0  0  0  # atno 8008 bound_to 7997
  154.3984  140.1386  156.3884 H   0  0  0  0  0  0  0  0  0  0  0  0  # atno 8009 bound_to 7997
  155.7981  140.3453  155.5389 H   0  0  0  0  0  0  0  0  0  0  0  0  # atno 8010 bound_to 7997
  139.6640  143.9862  152.2243 H   0  0  0  0  0  0  0  0  0  0  0  0  # atno 10167 bound_to 10162
  156.2036  130.6873  151.0568 H   0  0  0  0  0  0  0  0  0  0  0  0  # atno 10718 bound_to 10713
  154.5962  135.2850  155.0584 H   0  0  0  0  0  0  0  0  0  0  0  0  # atno 10763 bound_to 10752
  154.1866  135.6448  153.5052 H   0  0  0  0  0  0  0  0  0  0  0  0  # atno 10764 bound_to 10752
  153.0139  135.5436  154.6665 H   0  0  0  0  0  0  0  0  0  0  0  0  # atno 10765 bound_to 10752
  139.8940  134.8366  156.2743 H   0  0  0  0  0  0  0  0  0  0  0  0  # atno 11005 bound_to 11000
  144.9391  140.8059  143.5641 LP  0  0  0  0  0  0  0  0  0  0  0  0  # atno 17320 bound_to 7965
  145.2488  139.2040  143.4953 LP  0  0  0  0  0  0  0  0  0  0  0  0  # atno 17321 bound_to 7965
  139.9609  144.6558  150.8080 LP  0  0  0  0  0  0  0  0  0  0  0  0  # atno 17342 bound_to 10162
  140.7591  143.3123  151.2816 LP  0  0  0  0  0  0  0  0  0  0  0  0  # atno 17343 bound_to 10162
  157.7000  131.0779  150.6851 LP  0  0  0  0  0  0  0  0  0  0  0  0  # atno 17370 bound_to 10713
  156.6909  130.4595  149.5600 LP  0  0  0  0  0  0  0  0  0  0  0  0  # atno 17371 bound_to 10713
  141.0080  133.7112  156.1066 LP  0  0  0  0  0  0  0  0  0  0  0  0  # atno 17394 bound_to 11000
  140.7407  134.4153  157.5555 LP  0  0  0  0  0  0  0  0  0  0  0  0  # atno 17395 bound_to 11000

$$$$
