AV-unprocessed.smi:3279|AV-procd|sdf|12549|dock5
  -GOLD-   2272018463D 1   1.00000     0.00000
 Structure written by MMmdl.
 35 35  0  0  0  0  0  0  0  0  2 V2000
  147.7760  141.1969  153.8417 C   0  0  0  0  0  0  0  0  0  0  0  0
  148.8325  141.0905  154.9527 C   0  0  1  0  0  0  0  0  0  0  0  0
  148.2378  141.3189  156.3593 C   0  0  0  0  0  0  0  0  0  0  0  0
  148.8298  142.4831  157.0154 N   0  0  0  0  0  0  0  0  0  0  0  0
  149.4664  142.4791  158.1971 C   0  0  0  0  0  0  0  0  0  0  0  0
  149.5578  141.4861  158.9197 O   0  0  0  0  0  0  0  0  0  0  0  0
  150.1025  143.8017  158.6227 C   0  0  0  0  0  0  0  0  0  0  0  0
  150.6730  143.6370  159.9178 O   0  0  0  0  0  0  0  0  0  0  0  0
  151.9701  144.1856  160.1626 C   0  0  0  0  0  0  0  0  0  0  0  0
  153.0262  143.5706  159.2227 C   0  0  0  0  0  0  0  0  0  0  0  0
  152.2814  143.7869  161.6141 C   0  0  0  0  0  0  0  0  0  0  0  0
  151.9442  145.7222  160.0439 C   0  0  0  0  0  0  0  0  0  0  0  0
  149.6134  139.8086  154.8529 C   0  0  0  0  0  0  0  0  0  0  0  0
  149.0418  138.5986  154.9513 N   0  0  0  0  0  0  0  0  0  0  0  0
  150.0652  137.7527  154.7726 N   0  0  0  0  0  0  0  0  0  0  0  0
  151.1944  138.4437  154.5770 N   0  0  0  0  0  0  0  0  0  0  0  0
  150.9355  139.7572  154.6233 N   0  5  0  0  0  0  0  0  0  0  0  0
  148.2351  141.1148  152.8561 H   0  0  0  0  0  0  0  0  0  0  0  0
  147.2554  142.1538  153.8853 H   0  0  0  0  0  0  0  0  0  0  0  0
  147.0276  140.4085  153.9275 H   0  0  0  0  0  0  0  0  0  0  0  0
  149.5091  141.9302  154.7840 H   0  0  0  0  0  0  0  0  0  0  0  0
  147.1622  141.4806  156.2853 H   0  0  0  0  0  0  0  0  0  0  0  0
  148.3682  140.4198  156.9639 H   0  0  0  0  0  0  0  0  0  0  0  0
  148.8121  143.3494  156.4972 H   0  0  0  0  0  0  0  0  0  0  0  0
  150.8634  144.0830  157.8942 H   0  0  0  0  0  0  0  0  0  0  0  0
  149.3282  144.5681  158.6200 H   0  0  0  0  0  0  0  0  0  0  0  0
  154.0320  143.8778  159.5105 H   0  0  0  0  0  0  0  0  0  0  0  0
  152.8845  143.8814  158.1877 H   0  0  0  0  0  0  0  0  0  0  0  0
  152.9927  142.4809  159.2520 H   0  0  0  0  0  0  0  0  0  0  0  0
  152.2850  142.7026  161.7326 H   0  0  0  0  0  0  0  0  0  0  0  0
  151.5368  144.1883  162.3023 H   0  0  0  0  0  0  0  0  0  0  0  0
  153.2574  144.1573  161.9294 H   0  0  0  0  0  0  0  0  0  0  0  0
  152.8880  146.1555  160.3763 H   0  0  0  0  0  0  0  0  0  0  0  0
  151.1506  146.1515  160.6562 H   0  0  0  0  0  0  0  0  0  0  0  0
  151.7886  146.0518  159.0168 H   0  0  0  0  0  0  0  0  0  0  0  0
  1  2  1  0  0  0  0
  1 18  1  0  0  0  0
  1 19  1  0  0  0  0
  1 20  1  0  0  0  0
  2  3  1  0  0  0  0
  2 13  1  0  0  0  0
  2 21  1  0  0  0  0
  3  4  1  0  0  0  0
  3 22  1  0  0  0  0
  3 23  1  0  0  0  0
  4  5  1  0  0  0  0
  4 24  1  0  0  0  0
  5  6  2  0  0  0  0
  5  7  1  0  0  0  0
  7  8  1  0  0  0  0
  7 25  1  0  0  0  0
  7 26  1  0  0  0  0
  8  9  1  0  0  0  0
  9 10  1  0  0  0  0
  9 11  1  0  0  0  0
  9 12  1  0  0  0  0
 10 27  1  0  0  0  0
 10 28  1  0  0  0  0
 10 29  1  0  0  0  0
 11 30  1  0  0  0  0
 11 31  1  0  0  0  0
 11 32  1  0  0  0  0
 12 33  1  0  0  0  0
 12 34  1  0  0  0  0
 12 35  1  0  0  0  0
 13 17  1  0  0  0  0
 13 14  2  0  0  0  0
 14 15  1  0  0  0  0
 15 16  2  0  0  0  0
 16 17  1  0  0  0  0
M  CHG  1  17  -1
M  END
> <s_m_source_file>
AV-unprocessed.smi

> <i_m_source_file_index>
3279

> <i_lp_mmshare_version>
43012

> <i_f3d_flags>
0

> <s_epik_input>
W25IXTFubm5jMVtDQEhdKFtDSDNdKVtDSDJdW05IXUMoPU8pW0NIMl1PQyhbQ0gzXSkoW0NIM10pW0NIM10=

> <s_epik_cmdline>
J2VwaWtfcHl0aG9uJywgJy1waCcsICc3LjAnLCAnLXRuJywgJzgnLCAnLW1hJywgJzIwMCcsICctbWV0YWxfYmluZGluZycsICctaW1hZScsICc8aW5maWxlLm1hZT4nLCAnLW9tYWUnLCAnPG91dGZpbGUubWFlPic=

> <r_epik_Ionization_Penalty>
0.054353

> <r_epik_Ionization_Penalty_Charging>
0.054353

> <r_epik_Ionization_Penalty_Neutral>
3.0997e-08

> <r_epik_State_Penalty>
0.0139445

> <r_epik_Charging_Adjusted_Penalty>
0.0682975

> <i_epik_Tot_Q>
-1

> <i_epik_Tot_abs_Q>
1

> <r_epik_Metal_State_Penalty>
0.0109703

> <b_epik_Metal_Only>
0

> <s_lp_Force_Field>
OPLS_2005

> <r_lp_Energy>
1.27922

> <b_lp_Chiralities_Consistent>
1

> <s_lp_Variant>
AV-unprocessed.smi:3279-2

> <Gold.Version>
5.8.1

> <Gold.Id.Protein>
6NUR|6NUR_protein|mol2

> <Gold.PLP.Fitness>
36.5011

> <Gold.PLP.PLP>
-32.6078

> <Gold.PLP.part.hbond>
-3.7284

> <Gold.PLP.part.metal>
0.0000

> <Gold.PLP.part.buried>
-4.6292

> <Gold.PLP.part.nonpolar>
-25.4193

> <Gold.PLP.part.repulsive>
0.6954

> <Gold.PLP.ligand.clash>
0.0000

> <Gold.PLP.ligand.torsion>
1.1062

> <Gold.PLP.Chemscore.Hbond>
2.0000

> <Gold.PLP.Chemscore.CHOScore>
0.0000

> <Gold.PLP.Chemscore.Metal>
0.0000

> <Gold.Chemscore.Hbonds>
donor molecule, donor type, donor heavy atom, donor atom, acceptor molecule, acceptor atom, score
      L1  H     4    24       P1  8028  1.00
      P1  H  7989  7998       L1    17  1.00

> <Gold.PLP.Chemscore.Internal.Correction>
0.1056

> <Gold.Rescore>
     Score         DG    S(hbond)    S(metal)    S(lipo)     H(rot)  DE(clash)    DE(int)     intcor
     12.93     -14.08       1.91        0.00      76.59       2.64       0.05       1.10       ----

> <Gold.Chemscore.Fitness>
12.9328

> <Gold.Chemscore.DG>
-14.0752

> <Gold.Chemscore.ZeroCoef>
-5.4800

> <Gold.Chemscore.Hbond>
1.9148

> <Gold.Chemscore.Metal>
0.0000

> <Gold.Chemscore.Lipo>
76.5855

> <Gold.Chemscore.Internal_Hbond>
0.0000

> <Gold.Chemscore.DEClash>
0.0453

> <Gold.Chemscore.DEInternal>
1.0971

> <Gold.Chemscore.Rot>
2.6409

> <Gold.Chemscore.Internal.Correction>
   9.000000E+99

> <Gold.Chemscore.Hbonds>
donor molecule, donor type, donor heavy atom, donor atom, acceptor molecule, acceptor atom, score
      L1  H     4    24       P1  8028  0.89
      P1  H  7989  7998       L1    17  0.96

> <Gold.Chemscore.Hbond.Weighted>
-6.3954

> <Gold.Chemscore.Metal.Weighted>
-0.0000

> <Gold.Chemscore.Lipo.Weighted>
-8.9605

> <Gold.Chemscore.Internal_Hbond.Weighted>
0.0000

> <Gold.Chemscore.DEClash.Weighted>
0.0453

> <Gold.Chemscore.DEInternal.Weighted>
1.0971

> <Gold.Chemscore.Rot.Weighted>
6.7607

> <Gold.Chemscore.Internal.Correction.Weighted>
   9.000000E+99

> <Gold.Protein.RotatedTorsions>
[ 6907 6896 6895 6894 ] final -179.79 input  -60.11 | X-H torsion
[ 7974 7965 7964 7962 ] final   26.24 input  175.53 | X-H torsion
[ 8008 7997 7996 7995 ] final  137.32 input   59.86 | X-H torsion
[ 10167 10162 10161 10158 ] final   55.93 input  -65.29 | X-H torsion
[ 10718 10713 10712 10709 ] final  101.38 input   66.30 | X-H torsion
[ 10763 10752 10751 10750 ] final   98.67 input  -60.55 | X-H torsion
[ 11005 11000 10999 10996 ] final  157.35 input  -57.11 | X-H torsion

> <Gold.Protein.ActiveResidues>
 VAL166  LYS551  ARG553  GLY616  TRP617  ASP618  TYR619  PRO620  LYS621  CYS622 
 ASP623  PHE694  ASN695  SER759  ASP760  ASP761  ALA762  ILE779  LEU786  VAL792 
 PHE793  MET794  SER795  GLU796  ALA797  LYS798  CYS799  TRP800  GLU811  SER814 

> <Gold.Protein.RotatedAtoms>
  151.6591  133.3317  159.3169 H   0  0  0  0  0  0  0  0  0  0  0  0  # atno 6907 bound_to 6896
  150.7922  134.6959  159.6532 H   0  0  0  0  0  0  0  0  0  0  0  0  # atno 6908 bound_to 6896
  152.4004  134.6300  160.0124 H   0  0  0  0  0  0  0  0  0  0  0  0  # atno 6909 bound_to 6896
  146.1847  139.7355  142.8875 H   0  0  0  0  0  0  0  0  0  0  0  0  # atno 7974 bound_to 7965
  156.3002  140.2422  156.3891 H   0  0  0  0  0  0  0  0  0  0  0  0  # atno 8008 bound_to 7997
  154.8631  140.0419  157.1697 H   0  0  0  0  0  0  0  0  0  0  0  0  # atno 8009 bound_to 7997
  154.8875  140.2958  155.5393 H   0  0  0  0  0  0  0  0  0  0  0  0  # atno 8010 bound_to 7997
  140.2141  144.3857  150.6476 H   0  0  0  0  0  0  0  0  0  0  0  0  # atno 10167 bound_to 10162
  157.6830  131.0724  150.5244 H   0  0  0  0  0  0  0  0  0  0  0  0  # atno 10718 bound_to 10713
  153.2919  135.4140  155.1174 H   0  0  0  0  0  0  0  0  0  0  0  0  # atno 10763 bound_to 10752
  154.8523  135.3520  154.5970 H   0  0  0  0  0  0  0  0  0  0  0  0  # atno 10764 bound_to 10752
  153.6393  135.7057  153.5305 H   0  0  0  0  0  0  0  0  0  0  0  0  # atno 10765 bound_to 10752
  140.1761  134.8509  157.2748 H   0  0  0  0  0  0  0  0  0  0  0  0  # atno 11005 bound_to 11000
  145.3972  141.0380  143.3090 LP  0  0  0  0  0  0  0  0  0  0  0  0  # atno 17320 bound_to 7965
  144.8377  139.5523  143.6915 LP  0  0  0  0  0  0  0  0  0  0  0  0  # atno 17321 bound_to 7965
  140.6302  143.2186  151.6512 LP  0  0  0  0  0  0  0  0  0  0  0  0  # atno 17342 bound_to 10162
  139.5168  144.3334  152.0806 LP  0  0  0  0  0  0  0  0  0  0  0  0  # atno 17343 bound_to 10162
  156.5556  130.4242  149.6087 LP  0  0  0  0  0  0  0  0  0  0  0  0  # atno 17370 bound_to 10713
  156.2865  130.7100  151.1938 LP  0  0  0  0  0  0  0  0  0  0  0  0  # atno 17371 bound_to 10713
  140.2321  134.3896  155.7517 LP  0  0  0  0  0  0  0  0  0  0  0  0  # atno 17394 bound_to 11000
  141.2220  133.7220  156.8657 LP  0  0  0  0  0  0  0  0  0  0  0  0  # atno 17395 bound_to 11000

$$$$
