AV-unprocessed.smi:655|AV-procd|sdf|3215|dock5
  -GOLD-   22720 0153D 1   1.00000     0.00000
 Structure written by MMmdl.
 35 36  0  0  0  0  0  0  0  0  1 V2000
  152.1454  139.5667  158.0431 C   0  0  0  0  0  0  0  0  0  0  0  0
  151.6285  140.0597  156.6842 C   0  0  2  0  0  0  0  0  0  0  0  0
  150.7080  141.2828  156.8411 C   0  0  0  0  0  0  0  0  0  0  0  0
  150.1840  141.7835  155.4820 C   0  0  0  0  0  0  0  0  0  0  0  0
  149.4649  140.6771  154.6722 C   0  0  2  0  0  0  0  0  0  0  0  0
  149.3112  141.1503  153.3469 O   0  0  0  0  0  0  0  0  0  0  0  0
  148.0499  140.2856  155.1953 C   0  0  0  0  0  0  0  0  0  0  0  0
  147.1374  141.3890  155.4306 N   0  0  0  0  0  0  0  0  0  0  0  0
  146.7067  142.2073  154.3960 C   0  0  0  0  0  0  0  0  0  0  0  0
  145.8469  143.2402  154.5666 C   0  0  0  0  0  0  0  0  0  0  0  0
  145.3657  144.2131  153.2229 Cl  0  0  0  0  0  0  0  0  0  0  0  0
  145.3180  143.5383  155.8961 C   0  0  0  0  0  0  0  0  0  0  0  0
  144.5369  144.4487  156.1651 O   0  0  0  0  0  0  0  0  0  0  0  0
  145.7674  142.6851  156.9075 N   0  0  0  0  0  0  0  0  0  0  0  0
  146.6496  141.6173  156.7402 C   0  0  0  0  0  0  0  0  0  0  0  0
  146.9593  140.9335  157.7143 O   0  0  0  0  0  0  0  0  0  0  0  0
  150.3847  139.4378  154.5570 C   0  0  0  0  0  0  0  0  0  0  0  0
  150.8989  138.9414  155.9192 C   0  0  0  0  0  0  0  0  0  0  0  0
  145.4204  142.8542  157.8406 H   0  0  0  0  0  0  0  0  0  0  0  0
  151.3262  139.2407  158.6846 H   0  0  0  0  0  0  0  0  0  0  0  0
  152.6852  140.3560  158.5670 H   0  0  0  0  0  0  0  0  0  0  0  0
  152.8283  138.7253  157.9225 H   0  0  0  0  0  0  0  0  0  0  0  0
  152.4945  140.3630  156.0938 H   0  0  0  0  0  0  0  0  0  0  0  0
  149.8769  141.0230  157.4939 H   0  0  0  0  0  0  0  0  0  0  0  0
  151.2451  142.0900  157.3403 H   0  0  0  0  0  0  0  0  0  0  0  0
  149.5374  142.6492  155.6228 H   0  0  0  0  0  0  0  0  0  0  0  0
  151.0380  142.1485  154.9088 H   0  0  0  0  0  0  0  0  0  0  0  0
  149.3845  140.4161  152.7568 H   0  0  0  0  0  0  0  0  0  0  0  0
  147.5381  139.6505  154.4695 H   0  0  0  0  0  0  0  0  0  0  0  0
  148.0979  139.6836  156.1036 H   0  0  0  0  0  0  0  0  0  0  0  0
  147.0760  142.0143  153.3987 H   0  0  0  0  0  0  0  0  0  0  0  0
  149.8684  138.6281  154.0397 H   0  0  0  0  0  0  0  0  0  0  0  0
  151.2505  139.6818  153.9391 H   0  0  0  0  0  0  0  0  0  0  0  0
  151.5741  138.0992  155.7644 H   0  0  0  0  0  0  0  0  0  0  0  0
  150.0702  138.5589  156.5156 H   0  0  0  0  0  0  0  0  0  0  0  0
  1  2  1  0  0  0  0
  1 20  1  0  0  0  0
  1 21  1  0  0  0  0
  1 22  1  0  0  0  0
  2 18  1  0  0  0  0
  2  3  1  0  0  0  0
  2 23  1  0  0  0  0
  3  4  1  0  0  0  0
  3 24  1  0  0  0  0
  3 25  1  0  0  0  0
  4  5  1  0  0  0  0
  4 26  1  0  0  0  0
  4 27  1  0  0  0  0
  5  6  1  0  0  0  0
  5  7  1  0  0  0  0
  5 17  1  0  0  0  0
  6 28  1  0  0  0  0
  7  8  1  0  0  0  0
  7 29  1  0  0  0  0
  7 30  1  0  0  0  0
  8 15  1  0  0  0  0
  8  9  1  0  0  0  0
  9 10  2  0  0  0  0
  9 31  1  0  0  0  0
 10 11  1  0  0  0  0
 10 12  1  0  0  0  0
 12 13  2  0  0  0  0
 12 14  1  0  0  0  0
 14 19  1  0  0  0  0
 14 15  1  0  0  0  0
 15 16  2  0  0  0  0
 17 18  1  0  0  0  0
 17 32  1  0  0  0  0
 17 33  1  0  0  0  0
 18 34  1  0  0  0  0
 18 35  1  0  0  0  0
M  END
> <s_m_source_file>
AV-unprocessed.smi

> <i_m_source_file_index>
655

> <i_lp_mmshare_version>
43012

> <i_f3d_flags>
0

> <s_epik_input>
W0NIMl0xW0NIMl1bQ0BIXShbQ0gzXSlbQ0gyXVtDSDJdW0NAQF0xKFtPSF0pW0NIMl1uMltjSF1jKENsKWMoPU8pW25IXWMyPU8=

> <s_epik_cmdline>
J2VwaWtfcHl0aG9uJywgJy1waCcsICc3LjAnLCAnLXRuJywgJzgnLCAnLW1hJywgJzIwMCcsICctbWV0YWxfYmluZGluZycsICctaW1hZScsICc8aW5maWxlLm1hZT4nLCAnLW9tYWUnLCAnPG91dGZpbGUubWFlPic=

> <r_lp_tautomer_probability>
0.999537

> <r_epik_Ionization_Penalty>
0.0114762

> <r_epik_Ionization_Penalty_Charging>
0.0114753

> <r_epik_Ionization_Penalty_Neutral>
8.25878e-07

> <r_epik_State_Penalty>
0.00883314

> <r_epik_Charging_Adjusted_Penalty>
0.0203085

> <i_epik_Tot_Q>
0

> <i_epik_Tot_abs_Q>
0

> <r_epik_Metal_State_Penalty>
1.64347

> <b_epik_Metal_Only>
0

> <s_lp_Force_Field>
OPLS_2005

> <r_lp_Energy>
18.8489

> <b_lp_Chiralities_Consistent>
1

> <s_lp_Variant>
AV-unprocessed.smi:655-2

> <Gold.Version>
5.8.1

> <Gold.Id.Protein>
6NUR|6NUR_protein|mol2

> <Gold.PLP.Fitness>
36.8848

> <Gold.PLP.PLP>
-31.4940

> <Gold.PLP.part.hbond>
-2.8017

> <Gold.PLP.part.metal>
0.0000

> <Gold.PLP.part.buried>
-3.9508

> <Gold.PLP.part.nonpolar>
-25.3501

> <Gold.PLP.part.repulsive>
0.1107

> <Gold.PLP.ligand.clash>
0.0000

> <Gold.PLP.ligand.torsion>
0.0587

> <Gold.PLP.Chemscore.Hbond>
1.8320

> <Gold.PLP.Chemscore.CHOScore>
0.0000

> <Gold.PLP.Chemscore.Metal>
0.0000

> <Gold.Chemscore.Hbonds>
donor molecule, donor type, donor heavy atom, donor atom, acceptor molecule, acceptor atom, score
      L1  H     6    28       P1  7957  0.83
      P1  H  8011  8017       L1     6  1.00

> <Gold.PLP.Chemscore.Internal.Correction>
0.0122

> <Gold.Rescore>
     Score         DG    S(hbond)    S(metal)    S(lipo)     H(rot)  DE(clash)    DE(int)     intcor
     13.04     -13.22       1.36        0.00      67.78       1.84       0.00       0.18       ----

> <Gold.Chemscore.Fitness>
13.0446

> <Gold.Chemscore.DG>
-13.2216

> <Gold.Chemscore.ZeroCoef>
-5.4800

> <Gold.Chemscore.Hbond>
1.3556

> <Gold.Chemscore.Metal>
0.0000

> <Gold.Chemscore.Lipo>
67.7805

> <Gold.Chemscore.Internal_Hbond>
0.0000

> <Gold.Chemscore.DEClash>
0.0000

> <Gold.Chemscore.DEInternal>
0.1770

> <Gold.Chemscore.Rot>
1.8424

> <Gold.Chemscore.Internal.Correction>
   9.000000E+99

> <Gold.Chemscore.Hbonds>
donor molecule, donor type, donor heavy atom, donor atom, acceptor molecule, acceptor atom, score
      L1  H     6    28       P1  7957  0.83
      P1  H  8011  8017       L1     6  0.25

> <Gold.Chemscore.Hbond.Weighted>
-4.5277

> <Gold.Chemscore.Metal.Weighted>
-0.0000

> <Gold.Chemscore.Lipo.Weighted>
-7.9303

> <Gold.Chemscore.Internal_Hbond.Weighted>
0.0000

> <Gold.Chemscore.DEClash.Weighted>
0.0000

> <Gold.Chemscore.DEInternal.Weighted>
0.1770

> <Gold.Chemscore.Rot.Weighted>
4.7164

> <Gold.Chemscore.Internal.Correction.Weighted>
   9.000000E+99

> <Gold.Protein.RotatedTorsions>
[ 6907 6896 6895 6894 ] final  111.06 input  -60.11 | X-H torsion
[ 7974 7965 7964 7962 ] final  136.87 input  175.53 | X-H torsion
[ 8008 7997 7996 7995 ] final  -28.81 input   59.86 | X-H torsion
[ 10167 10162 10161 10158 ] final   72.31 input  -65.29 | X-H torsion
[ 10718 10713 10712 10709 ] final  -62.90 input   66.30 | X-H torsion
[ 10763 10752 10751 10750 ] final  125.10 input  -60.55 | X-H torsion
[ 11005 11000 10999 10996 ] final   52.13 input  -57.11 | X-H torsion

> <Gold.Protein.ActiveResidues>
 VAL166  LYS551  ARG553  GLY616  TRP617  ASP618  TYR619  PRO620  LYS621  CYS622 
 ASP623  PHE694  ASN695  SER759  ASP760  ASP761  ALA762  ILE779  LEU786  VAL792 
 PHE793  MET794  SER795  GLU796  ALA797  LYS798  CYS799  TRP800  GLU811  SER814 

> <Gold.Protein.RotatedAtoms>
  152.4989  133.8712  159.7298 H   0  0  0  0  0  0  0  0  0  0  0  0  # atno 6907 bound_to 6896
  150.9198  133.6886  159.2841 H   0  0  0  0  0  0  0  0  0  0  0  0  # atno 6908 bound_to 6896
  151.4266  135.1009  159.9682 H   0  0  0  0  0  0  0  0  0  0  0  0  # atno 6909 bound_to 6896
  144.9523  139.4804  143.5520 H   0  0  0  0  0  0  0  0  0  0  0  0  # atno 7974 bound_to 7965
  154.4316  140.1835  156.1149 H   0  0  0  0  0  0  0  0  0  0  0  0  # atno 8008 bound_to 7997
  156.0189  140.3343  155.6992 H   0  0  0  0  0  0  0  0  0  0  0  0  # atno 8009 bound_to 7997
  155.6005  140.0640  157.2725 H   0  0  0  0  0  0  0  0  0  0  0  0  # atno 8010 bound_to 7997
  140.0366  144.5423  150.7466 H   0  0  0  0  0  0  0  0  0  0  0  0  # atno 10167 bound_to 10162
  156.0825  130.4214  150.1200 H   0  0  0  0  0  0  0  0  0  0  0  0  # atno 10718 bound_to 10713
  153.6720  135.3329  155.3155 H   0  0  0  0  0  0  0  0  0  0  0  0  # atno 10763 bound_to 10752
  154.8488  135.4388  154.1696 H   0  0  0  0  0  0  0  0  0  0  0  0  # atno 10764 bound_to 10752
  153.2689  135.6998  153.7577 H   0  0  0  0  0  0  0  0  0  0  0  0  # atno 10765 bound_to 10752
  140.0875  134.5254  155.8885 H   0  0  0  0  0  0  0  0  0  0  0  0  # atno 11005 bound_to 11000
  146.3325  139.8617  142.8855 LP  0  0  0  0  0  0  0  0  0  0  0  0  # atno 17320 bound_to 7965
  145.2825  141.0143  143.3709 LP  0  0  0  0  0  0  0  0  0  0  0  0  # atno 17321 bound_to 7965
  140.7279  143.2656  151.4057 LP  0  0  0  0  0  0  0  0  0  0  0  0  # atno 17342 bound_to 10162
  139.6041  144.1234  152.2230 LP  0  0  0  0  0  0  0  0  0  0  0  0  # atno 17343 bound_to 10162
  156.9228  130.9688  151.3546 LP  0  0  0  0  0  0  0  0  0  0  0  0  # atno 17370 bound_to 10713
  157.5948  130.8469  149.8712 LP  0  0  0  0  0  0  0  0  0  0  0  0  # atno 17371 bound_to 10713
  141.2067  133.6658  156.6260 LP  0  0  0  0  0  0  0  0  0  0  0  0  # atno 17394 bound_to 11000
  140.3399  134.7857  157.4390 LP  0  0  0  0  0  0  0  0  0  0  0  0  # atno 17395 bound_to 11000

$$$$
