AV-unprocessed.smi:55|AV-procd|sdf|575|dock4
  -GOLD-   2262016473D 1   1.00000     0.00000
 Structure written by MMmdl.
 30 31  0  0  0  0  0  0  0  0  2 V2000
  152.4163  143.3271  159.4952 C   0  0  0  0  0  0  0  0  0  0  0  0
  152.4974  141.9529  158.8537 C   0  0  0  0  0  0  0  0  0  0  0  0
  151.4712  141.4231  158.1510 C   0  0  0  0  0  0  0  0  0  0  0  0
  151.5507  140.1696  157.5671 N   0  0  0  0  0  0  0  0  0  0  0  0
  150.3978  139.5813  156.7786 C   0  0  2  0  0  0  0  0  0  0  0  0
  150.6830  139.6525  155.2705 C   0  0  0  0  0  0  0  0  0  0  0  0
  149.3966  140.2413  154.7246 C   0  0  2  0  0  0  0  0  0  0  0  0
  149.6346  140.9673  153.5359 O   0  0  0  0  0  0  0  0  0  0  0  0
  148.9399  141.1362  155.8764 C   0  0  1  0  0  0  0  0  0  0  0  0
  147.4398  141.4655  155.8428 C   0  0  0  0  0  0  0  0  0  0  0  0
  147.1777  142.4426  154.8582 O   0  0  0  0  0  0  0  0  0  0  0  0
  149.2335  140.3229  157.0089 O   0  0  0  0  0  0  0  0  0  0  0  0
  152.7405  139.4078  157.7051 C   0  0  0  0  0  0  0  0  0  0  0  0
  152.7812  138.2984  157.1721 O   0  0  0  0  0  0  0  0  0  0  0  0
  153.7802  139.9336  158.4134 N   0  5  0  0  0  0  0  0  0  0  0  0
  153.7279  141.1653  158.9963 C   0  0  0  0  0  0  0  0  0  0  0  0
  154.6750  141.6285  159.6313 O   0  0  0  0  0  0  0  0  0  0  0  0
  150.2578  138.5692  157.1618 H   0  0  0  0  0  0  0  0  0  0  0  0
  148.6697  139.4482  154.5432 H   0  0  0  0  0  0  0  0  0  0  0  0
  149.5466  142.0437  155.9011 H   0  0  0  0  0  0  0  0  0  0  0  0
  151.4498  143.7959  159.3083 H   0  0  0  0  0  0  0  0  0  0  0  0
  153.1918  143.9805  159.0944 H   0  0  0  0  0  0  0  0  0  0  0  0
  152.5523  143.2520  160.5744 H   0  0  0  0  0  0  0  0  0  0  0  0
  150.5690  142.0063  158.0505 H   0  0  0  0  0  0  0  0  0  0  0  0
  151.5274  140.3196  155.0866 H   0  0  0  0  0  0  0  0  0  0  0  0
  150.9167  138.6670  154.8667 H   0  0  0  0  0  0  0  0  0  0  0  0
  149.4431  140.4068  152.7995 H   0  0  0  0  0  0  0  0  0  0  0  0
  146.8667  140.5761  155.5796 H   0  0  0  0  0  0  0  0  0  0  0  0
  147.0857  141.8024  156.8175 H   0  0  0  0  0  0  0  0  0  0  0  0
  147.7785  143.1614  154.9812 H   0  0  0  0  0  0  0  0  0  0  0  0
  1  2  1  0  0  0  0
  1 21  1  0  0  0  0
  1 22  1  0  0  0  0
  1 23  1  0  0  0  0
  2 16  1  0  0  0  0
  2  3  2  0  0  0  0
  3  4  1  0  0  0  0
  3 24  1  0  0  0  0
  4  5  1  0  0  0  0
  4 13  1  0  0  0  0
  5 18  1  0  0  0  0
  5 12  1  0  0  0  0
  5  6  1  0  0  0  0
  6  7  1  0  0  0  0
  6 25  1  0  0  0  0
  6 26  1  0  0  0  0
  7 19  1  0  0  0  0
  7  8  1  0  0  0  0
  7  9  1  0  0  0  0
  8 27  1  0  0  0  0
  9 20  1  0  0  0  0
  9 10  1  0  0  0  0
  9 12  1  0  0  0  0
 10 11  1  0  0  0  0
 10 28  1  0  0  0  0
 10 29  1  0  0  0  0
 11 30  1  0  0  0  0
 13 14  2  0  0  0  0
 13 15  1  0  0  0  0
 15 16  1  0  0  0  0
 16 17  2  0  0  0  0
M  CHG  1  15  -1
M  END
> <s_m_source_file>
AV-unprocessed.smi

> <i_m_source_file_index>
55

> <i_lp_mmshare_version>
43012

> <i_f3d_flags>
0

> <s_epik_input>
Tz1jMVtuSF1jKD1PKW4oW2NIXWMxW0NIM10pW0NAQEhdMltDSDJdW0NAQEhdKFtPSF0pW0NAQEhdKE8yKVtDSDJdW09IXQ==

> <s_epik_cmdline>
J2VwaWtfcHl0aG9uJywgJy1waCcsICc3LjAnLCAnLXRuJywgJzgnLCAnLW1hJywgJzIwMCcsICctbWV0YWxfYmluZGluZycsICctaW1hZScsICc8aW5maWxlLm1hZT4nLCAnLW9tYWUnLCAnPG91dGZpbGUubWFlPic=

> <r_lp_tautomer_probability>
0.999537

> <r_epik_Ionization_Penalty>
3.66603

> <r_epik_Ionization_Penalty_Charging>
1.09773e-07

> <r_epik_Ionization_Penalty_Neutral>
3.66603

> <r_epik_State_Penalty>
3.66562

> <r_epik_Charging_Adjusted_Penalty>
3.66562

> <i_epik_Tot_Q>
-1

> <i_epik_Tot_abs_Q>
1

> <r_epik_Metal_State_Penalty>
0.234536

> <b_epik_Metal_Only>
1

> <s_epik_Chemistry_Notes>
This compound contains an acetal/aminal-like group ( X-CH(R)-Y where X, Y are N, S, or O) that may be acid/base labile, releasing an aldehyde.

> <s_lp_Force_Field>
OPLS_2005

> <r_lp_Energy>
36.1714

> <b_lp_Chiralities_Consistent>
1

> <s_lp_Variant>
AV-unprocessed.smi:55-15

> <Gold.Version>
5.8.1

> <Gold.Id.Protein>
6NUR|6NUR_protein|mol2

> <Gold.PLP.Fitness>
40.5073

> <Gold.PLP.PLP>
-26.6880

> <Gold.PLP.part.hbond>
-4.3536

> <Gold.PLP.part.metal>
0.0000

> <Gold.PLP.part.buried>
-2.8673

> <Gold.PLP.part.nonpolar>
-18.0589

> <Gold.PLP.part.repulsive>
0.0227

> <Gold.PLP.ligand.clash>
0.0000

> <Gold.PLP.ligand.torsion>
0.4455

> <Gold.PLP.Chemscore.Hbond>
4.8980

> <Gold.PLP.Chemscore.CHOScore>
0.0000

> <Gold.PLP.Chemscore.Metal>
0.0000

> <Gold.Chemscore.Hbonds>
donor molecule, donor type, donor heavy atom, donor atom, acceptor molecule, acceptor atom, score
      L1  H     8    27       P1  7957  0.99
      L1  H    11    30       P1  8028  1.00
      P1  H  7989  7998       L1     8  0.27
      P1  H  7997  8010       L1    15  1.89
      P1  H  8011  8017       L1     8  0.40

> <Gold.PLP.Chemscore.Internal.Correction>
0.0163

> <Gold.Rescore>
     Score         DG    S(hbond)    S(metal)    S(lipo)     H(rot)  DE(clash)    DE(int)     intcor
     10.95     -11.42       2.04        0.00      51.39       2.69       0.02       0.45       ----

> <Gold.Chemscore.Fitness>
10.9513

> <Gold.Chemscore.DG>
-11.4153

> <Gold.Chemscore.ZeroCoef>
-5.4800

> <Gold.Chemscore.Hbond>
2.0364

> <Gold.Chemscore.Metal>
0.0000

> <Gold.Chemscore.Lipo>
51.3910

> <Gold.Chemscore.Internal_Hbond>
0.0000

> <Gold.Chemscore.DEClash>
0.0164

> <Gold.Chemscore.DEInternal>
0.4476

> <Gold.Chemscore.Rot>
2.6871

> <Gold.Chemscore.Internal.Correction>
   9.000000E+99

> <Gold.Chemscore.Hbonds>
donor molecule, donor type, donor heavy atom, donor atom, acceptor molecule, acceptor atom, score
      L1  H     8    27       P1  7957  0.93
      L1  H    11    30       P1  8028  0.63
      P1  H  7989  7998       L1     8  0.02
      P1  H  7997  8010       L1    15  0.15
      P1  H  8011  8017       L1     8  0.01

> <Gold.Chemscore.Hbond.Weighted>
-6.8016

> <Gold.Chemscore.Metal.Weighted>
-0.0000

> <Gold.Chemscore.Lipo.Weighted>
-6.0128

> <Gold.Chemscore.Internal_Hbond.Weighted>
0.0000

> <Gold.Chemscore.DEClash.Weighted>
0.0164

> <Gold.Chemscore.DEInternal.Weighted>
0.4476

> <Gold.Chemscore.Rot.Weighted>
6.8791

> <Gold.Chemscore.Internal.Correction.Weighted>
   9.000000E+99

> <Gold.Protein.RotatedTorsions>
[ 6907 6896 6895 6894 ] final  -13.71 input  -60.11 | X-H torsion
[ 7974 7965 7964 7962 ] final  122.73 input  175.53 | X-H torsion
[ 8008 7997 7996 7995 ] final    9.75 input   59.86 | X-H torsion
[ 10167 10162 10161 10158 ] final -156.84 input  -65.29 | X-H torsion
[ 10718 10713 10712 10709 ] final  -42.06 input   66.30 | X-H torsion
[ 10763 10752 10751 10750 ] final -165.46 input  -60.55 | X-H torsion
[ 11005 11000 10999 10996 ] final -157.74 input  -57.11 | X-H torsion

> <Gold.Protein.ActiveResidues>
 VAL166  LYS551  ARG553  GLY616  TRP617  ASP618  TYR619  PRO620  LYS621  CYS622 
 ASP623  PHE694  ASN695  SER759  ASP760  ASP761  ALA762  ILE779  LEU786  VAL792 
 PHE793  MET794  SER795  GLU796  ALA797  LYS798  CYS799  TRP800  GLU811  SER814 

> <Gold.Protein.RotatedAtoms>
  151.3507  135.0883  159.9401 H   0  0  0  0  0  0  0  0  0  0  0  0  # atno 6907 bound_to 6896
  152.5188  133.9356  159.7612 H   0  0  0  0  0  0  0  0  0  0  0  0  # atno 6908 bound_to 6896
  150.9730  133.6270  159.2764 H   0  0  0  0  0  0  0  0  0  0  0  0  # atno 6909 bound_to 6896
  145.1041  139.3498  143.4797 H   0  0  0  0  0  0  0  0  0  0  0  0  # atno 7974 bound_to 7965
  154.7841  140.2824  155.6041 H   0  0  0  0  0  0  0  0  0  0  0  0  # atno 8008 bound_to 7997
  156.2954  140.2617  156.2602 H   0  0  0  0  0  0  0  0  0  0  0  0  # atno 8009 bound_to 7997
  154.9748  140.0375  157.2241 H   0  0  0  0  0  0  0  0  0  0  0  0  # atno 8010 bound_to 7997
  139.6818  143.9569  152.2340 H   0  0  0  0  0  0  0  0  0  0  0  0  # atno 10167 bound_to 10162
  156.2637  130.4199  149.8514 H   0  0  0  0  0  0  0  0  0  0  0  0  # atno 10718 bound_to 10713
  154.6930  135.2974  154.9452 H   0  0  0  0  0  0  0  0  0  0  0  0  # atno 10763 bound_to 10752
  154.0410  135.6657  153.4794 H   0  0  0  0  0  0  0  0  0  0  0  0  # atno 10764 bound_to 10752
  153.0625  135.5107  154.8032 H   0  0  0  0  0  0  0  0  0  0  0  0  # atno 10765 bound_to 10752
  140.6613  134.4346  157.5234 H   0  0  0  0  0  0  0  0  0  0  0  0  # atno 11005 bound_to 11000
  146.3529  140.0931  142.8611 LP  0  0  0  0  0  0  0  0  0  0  0  0  # atno 17320 bound_to 7965
  145.0921  140.9291  143.4762 LP  0  0  0  0  0  0  0  0  0  0  0  0  # atno 17321 bound_to 7965
  139.9361  144.6711  150.8314 LP  0  0  0  0  0  0  0  0  0  0  0  0  # atno 17342 bound_to 10162
  140.7654  143.3276  151.2481 LP  0  0  0  0  0  0  0  0  0  0  0  0  # atno 17343 bound_to 10162
  156.6020  130.8551  151.3434 LP  0  0  0  0  0  0  0  0  0  0  0  0  # atno 17370 bound_to 10713
  157.7259  130.9623  150.1636 LP  0  0  0  0  0  0  0  0  0  0  0  0  # atno 17371 bound_to 10713
  139.9012  134.8552  156.1889 LP  0  0  0  0  0  0  0  0  0  0  0  0  # atno 17394 bound_to 11000
  141.0463  133.6912  156.1689 LP  0  0  0  0  0  0  0  0  0  0  0  0  # atno 17395 bound_to 11000

$$$$
