AV-unprocessed.smi:35|AV-procd|sdf|278|dock9
  -GOLD-   2262016 53D 1   1.00000     0.00000
 Structure written by MMmdl.
 28 29  0  0  0  0  0  0  0  0  2 V2000
  152.1607  136.7157  159.0555 O   0  0  0  0  0  0  0  0  0  0  0  0
  151.8514  137.5491  158.2062 C   0  0  0  0  0  0  0  0  0  0  0  0
  152.7338  138.0305  157.2842 N   0  5  0  0  0  0  0  0  0  0  0  0
  152.3887  138.9662  156.3516 C   0  0  0  0  0  0  0  0  0  0  0  0
  153.1761  139.3938  155.5071 O   0  0  0  0  0  0  0  0  0  0  0  0
  151.0614  139.4795  156.3449 N   0  0  0  0  0  0  0  0  0  0  0  0
  150.6892  140.5200  155.3022 C   0  0  1  0  0  0  0  0  0  0  0  0
  149.8912  139.9297  154.3164 O   0  0  0  0  0  0  0  0  0  0  0  0
  148.5177  140.1860  154.5943 C   0  0  2  0  0  0  0  0  0  0  0  0
  147.6404  139.9295  153.3573 C   0  0  0  0  0  0  0  0  0  0  0  0
  147.9489  138.6679  152.8046 O   0  0  0  0  0  0  0  0  0  0  0  0
  148.5633  141.6338  155.0921 C   0  0  2  0  0  0  0  0  0  0  0  0
  148.6166  142.5343  153.9970 O   0  0  0  0  0  0  0  0  0  0  0  0
  149.8415  141.6488  155.9303 C   0  0  2  0  0  0  0  0  0  0  0  0
  150.4858  142.9089  155.9183 O   0  0  0  0  0  0  0  0  0  0  0  0
  150.1359  138.9846  157.2514 C   0  0  0  0  0  0  0  0  0  0  0  0
  150.4830  138.0563  158.1655 C   0  0  0  0  0  0  0  0  0  0  0  0
  149.0577  137.4476  159.4004 Br  0  0  0  0  0  0  0  0  0  0  0  0
  151.6354  140.8455  154.8664 H   0  0  0  0  0  0  0  0  0  0  0  0
  148.1878  139.5546  155.4215 H   0  0  0  0  0  0  0  0  0  0  0  0
  146.5875  139.9151  153.6402 H   0  0  0  0  0  0  0  0  0  0  0  0
  147.7672  140.7112  152.6076 H   0  0  0  0  0  0  0  0  0  0  0  0
  148.4896  138.8027  152.0411 H   0  0  0  0  0  0  0  0  0  0  0  0
  147.6880  141.8827  155.6929 H   0  0  0  0  0  0  0  0  0  0  0  0
  148.9503  143.3609  154.3121 H   0  0  0  0  0  0  0  0  0  0  0  0
  149.5951  141.3854  156.9601 H   0  0  0  0  0  0  0  0  0  0  0  0
  149.8255  143.5733  155.7868 H   0  0  0  0  0  0  0  0  0  0  0  0
  149.1143  139.3312  157.2422 H   0  0  0  0  0  0  0  0  0  0  0  0
  1  2  2  0  0  0  0
  2 17  1  0  0  0  0
  2  3  1  0  0  0  0
  3  4  1  0  0  0  0
  4  5  2  0  0  0  0
  4  6  1  0  0  0  0
  6  7  1  0  0  0  0
  6 16  1  0  0  0  0
  7 14  1  0  0  0  0
  7  8  1  0  0  0  0
  7 19  1  0  0  0  0
  8  9  1  0  0  0  0
  9 10  1  0  0  0  0
  9 12  1  0  0  0  0
  9 20  1  0  0  0  0
 10 11  1  0  0  0  0
 10 21  1  0  0  0  0
 10 22  1  0  0  0  0
 11 23  1  0  0  0  0
 12 13  1  0  0  0  0
 12 14  1  0  0  0  0
 12 24  1  0  0  0  0
 13 25  1  0  0  0  0
 14 15  1  0  0  0  0
 14 26  1  0  0  0  0
 15 27  1  0  0  0  0
 16 17  2  0  0  0  0
 16 28  1  0  0  0  0
 17 18  1  0  0  0  0
M  CHG  1   3  -1
M  END
> <s_m_source_file>
AV-unprocessed.smi

> <i_m_source_file_index>
35

> <i_lp_mmshare_version>
43012

> <i_f3d_flags>
0

> <s_epik_input>
Tz1jMVtuSF1jKD1PKW4oW2NIXWMxQnIpW0NAQEhdMk9bQ0BASF0oW0NIMl1bT0hdKVtDQEBIXShbT0hdKVtDQEhdMltPSF0=

> <s_epik_cmdline>
J2VwaWtfcHl0aG9uJywgJy1waCcsICc3LjAnLCAnLXRuJywgJzgnLCAnLW1hJywgJzIwMCcsICctbWV0YWxfYmluZGluZycsICctaW1hZScsICc8aW5maWxlLm1hZT4nLCAnLW9tYWUnLCAnPG91dGZpbGUubWFlPic=

> <r_epik_Ionization_Penalty>
1.06112

> <r_epik_Ionization_Penalty_Charging>
2.1796e-09

> <r_epik_Ionization_Penalty_Neutral>
1.06112

> <r_epik_State_Penalty>
1.11484

> <r_epik_Charging_Adjusted_Penalty>
1.11484

> <i_epik_Tot_Q>
-1

> <i_epik_Tot_abs_Q>
1

> <r_epik_Metal_State_Penalty>
0.0032876

> <b_epik_Metal_Only>
0

> <s_epik_Chemistry_Notes>
This compound contains an acetal/aminal-like group ( X-CH(R)-Y where X, Y are N, S, or O) that may be acid/base labile, releasing an aldehyde.

> <s_lp_Force_Field>
OPLS_2005

> <r_lp_Energy>
41.3474

> <b_lp_Chiralities_Consistent>
1

> <s_lp_Variant>
AV-unprocessed.smi:35-32

> <Gold.Version>
5.8.1

> <Gold.Id.Protein>
6NUR|6NUR_protein|mol2

> <Gold.PLP.Fitness>
39.4809

> <Gold.PLP.PLP>
-25.7986

> <Gold.PLP.part.hbond>
-8.2472

> <Gold.PLP.part.metal>
0.0000

> <Gold.PLP.part.buried>
-0.6327

> <Gold.PLP.part.nonpolar>
-17.4716

> <Gold.PLP.part.repulsive>
0.1202

> <Gold.PLP.ligand.clash>
0.0000

> <Gold.PLP.ligand.torsion>
0.4408

> <Gold.PLP.Chemscore.Hbond>
4.8481

> <Gold.PLP.Chemscore.CHOScore>
0.0000

> <Gold.PLP.Chemscore.Metal>
0.0000

> <Gold.Chemscore.Hbonds>
donor molecule, donor type, donor heavy atom, donor atom, acceptor molecule, acceptor atom, score
      L1  H    11    23       P1  7957  0.91
      L1  H    13    25       P1  8028  0.96
      L1  H    15    27       P1  8028  0.88
      P1  H  6896  6909       L1     1  0.91
      P1  H  7997  8010       L1     5  1.00
      P1  H  8011  8017       L1    13  0.10

> <Gold.PLP.Chemscore.Internal.Correction>
0.0197

> <Gold.Rescore>
     Score         DG    S(hbond)    S(metal)    S(lipo)     H(rot)  DE(clash)    DE(int)     intcor
     15.66     -16.29       4.80        0.00      34.66       3.63       0.18       0.45       ----

> <Gold.Chemscore.Fitness>
15.6618

> <Gold.Chemscore.DG>
-16.2906

> <Gold.Chemscore.ZeroCoef>
-5.4800

> <Gold.Chemscore.Hbond>
4.8019

> <Gold.Chemscore.Metal>
0.0000

> <Gold.Chemscore.Lipo>
34.6591

> <Gold.Chemscore.Internal_Hbond>
0.0000

> <Gold.Chemscore.DEClash>
0.1815

> <Gold.Chemscore.DEInternal>
0.4473

> <Gold.Chemscore.Rot>
3.6261

> <Gold.Chemscore.Internal.Correction>
   9.000000E+99

> <Gold.Chemscore.Hbonds>
donor molecule, donor type, donor heavy atom, donor atom, acceptor molecule, acceptor atom, score
      L1  H    11    23       P1  7957  0.81
      L1  H    13    25       P1  8028  0.92
      L1  H    15    27       P1  8028  0.86
      P1  H  6896  6909       L1     1  0.89
      P1  H  7997  8010       L1     5  0.87
      P1  H  8011  8017       L1    13  0.02

> <Gold.Chemscore.Hbond.Weighted>
-16.0382

> <Gold.Chemscore.Metal.Weighted>
-0.0000

> <Gold.Chemscore.Lipo.Weighted>
-4.0551

> <Gold.Chemscore.Internal_Hbond.Weighted>
0.0000

> <Gold.Chemscore.DEClash.Weighted>
0.1815

> <Gold.Chemscore.DEInternal.Weighted>
0.4473

> <Gold.Chemscore.Rot.Weighted>
9.2828

> <Gold.Chemscore.Internal.Correction.Weighted>
   9.000000E+99

> <Gold.Protein.RotatedTorsions>
[ 6907 6896 6895 6894 ] final  125.74 input  -60.11 | X-H torsion
[ 7974 7965 7964 7962 ] final  -59.53 input  175.53 | X-H torsion
[ 8008 7997 7996 7995 ] final   94.43 input   59.86 | X-H torsion
[ 10167 10162 10161 10158 ] final   94.90 input  -65.29 | X-H torsion
[ 10718 10713 10712 10709 ] final   77.06 input   66.30 | X-H torsion
[ 10763 10752 10751 10750 ] final   35.47 input  -60.55 | X-H torsion
[ 11005 11000 10999 10996 ] final  -25.04 input  -57.11 | X-H torsion

> <Gold.Protein.ActiveResidues>
 VAL166  LYS551  ARG553  GLY616  TRP617  ASP618  TYR619  PRO620  LYS621  CYS622 
 ASP623  PHE694  ASN695  SER759  ASP760  ASP761  ALA762  ILE779  LEU786  VAL792 
 PHE793  MET794  SER795  GLU796  ALA797  LYS798  CYS799  TRP800  GLU811  SER814 

> <Gold.Protein.RotatedAtoms>
  152.3965  133.6754  159.6280 H   0  0  0  0  0  0  0  0  0  0  0  0  # atno 6907 bound_to 6896
  150.7863  133.8865  159.3310 H   0  0  0  0  0  0  0  0  0  0  0  0  # atno 6908 bound_to 6896
  151.6640  135.0987  160.0236 H   0  0  0  0  0  0  0  0  0  0  0  0  # atno 6909 bound_to 6896
  145.8264  140.8508  143.0106 H   0  0  0  0  0  0  0  0  0  0  0  0  # atno 7974 bound_to 7965
  156.0578  140.3300  155.7426 H   0  0  0  0  0  0  0  0  0  0  0  0  # atno 8008 bound_to 7997
  155.5502  140.0609  157.2869 H   0  0  0  0  0  0  0  0  0  0  0  0  # atno 8009 bound_to 7997
  154.4466  140.1895  156.0667 H   0  0  0  0  0  0  0  0  0  0  0  0  # atno 8010 bound_to 7997
  139.8040  144.6802  150.9728 H   0  0  0  0  0  0  0  0  0  0  0  0  # atno 10167 bound_to 10162
  157.6696  130.9803  150.1586 H   0  0  0  0  0  0  0  0  0  0  0  0  # atno 10718 bound_to 10713
  153.0118  135.6332  154.1831 H   0  0  0  0  0  0  0  0  0  0  0  0  # atno 10763 bound_to 10752
  154.1573  135.2825  155.3120 H   0  0  0  0  0  0  0  0  0  0  0  0  # atno 10764 bound_to 10752
  154.6008  135.5588  153.7433 H   0  0  0  0  0  0  0  0  0  0  0  0  # atno 10765 bound_to 10752
  140.8901  133.7594  156.0410 H   0  0  0  0  0  0  0  0  0  0  0  0  # atno 11005 bound_to 11000
  144.6743  140.0608  143.7476 LP  0  0  0  0  0  0  0  0  0  0  0  0  # atno 17320 bound_to 7965
  145.9619  139.2807  143.1150 LP  0  0  0  0  0  0  0  0  0  0  0  0  # atno 17321 bound_to 7965
  140.7819  143.4253  151.0778 LP  0  0  0  0  0  0  0  0  0  0  0  0  # atno 17342 bound_to 10162
  139.7923  143.8201  152.3153 LP  0  0  0  0  0  0  0  0  0  0  0  0  # atno 17343 bound_to 10162
  156.2368  130.3687  149.8382 LP  0  0  0  0  0  0  0  0  0  0  0  0  # atno 17370 bound_to 10713
  156.6194  130.8620  151.3472 LP  0  0  0  0  0  0  0  0  0  0  0  0  # atno 17371 bound_to 10713
  140.8357  134.3125  157.5332 LP  0  0  0  0  0  0  0  0  0  0  0  0  # atno 17394 bound_to 11000
  139.8728  134.9388  156.3725 LP  0  0  0  0  0  0  0  0  0  0  0  0  # atno 17395 bound_to 11000

$$$$
