AV-unprocessed.smi:2752|AV-procd|sdf|10605|dock2
  -GOLD-   2272015 53D 1   1.00000     0.00000
 Structure written by MMmdl.
 34 35  0  0  0  0  0  0  0  0  1 V2000
  148.7344  139.9617  157.2931 C   0  0  0  0  0  0  0  0  0  0  0  0
  147.6999  139.7308  156.3488 O   0  0  0  0  0  0  0  0  0  0  0  0
  148.1787  139.3922  155.0535 C   0  0  2  0  0  0  0  0  0  0  0  0
  149.0193  140.5658  154.5390 C   0  0  0  0  0  0  0  0  0  0  0  0
  148.0326  141.4557  153.7907 C   0  0  0  0  0  0  0  0  0  0  0  0
  147.0906  140.4658  153.1087 C   0  0  0  0  0  0  0  0  0  0  0  0
  147.0009  139.2577  154.0585 C   0  0  1  0  0  0  0  0  0  0  0  0
  147.0968  138.0024  153.3166 N   0  0  0  0  0  0  0  0  0  0  0  0
  146.0817  137.1639  153.0629 C   0  0  0  0  0  0  0  0  0  0  0  0
  144.9250  137.3591  153.4373 O   0  0  0  0  0  0  0  0  0  0  0  0
  146.5001  136.0975  152.3585 N   0  0  0  0  0  0  0  0  0  0  0  0
  145.7281  135.0114  151.8662 C   0  0  0  0  0  0  0  0  0  0  0  0
  146.4778  133.9379  151.3330 C   0  0  0  0  0  0  0  0  0  0  0  0
  145.8067  132.8137  150.8134 C   0  0  0  0  0  0  0  0  0  0  0  0
  144.4010  132.7940  150.8409 C   0  0  0  0  0  0  0  0  0  0  0  0
  143.7117  131.7359  150.3520 F   0  0  0  0  0  0  0  0  0  0  0  0
  143.7294  133.9028  151.3885 C   0  0  0  0  0  0  0  0  0  0  0  0
  144.3717  134.9806  151.8871 N   0  0  0  0  0  0  0  0  0  0  0  0
  148.2962  140.2018  158.2617 H   0  0  0  0  0  0  0  0  0  0  0  0
  149.3597  140.8030  156.9918 H   0  0  0  0  0  0  0  0  0  0  0  0
  149.3705  139.0856  157.4218 H   0  0  0  0  0  0  0  0  0  0  0  0
  148.7981  138.4942  155.1080 H   0  0  0  0  0  0  0  0  0  0  0  0
  149.5464  141.0933  155.3348 H   0  0  0  0  0  0  0  0  0  0  0  0
  149.7689  140.1952  153.8386 H   0  0  0  0  0  0  0  0  0  0  0  0
  147.4749  142.0667  154.5019 H   0  0  0  0  0  0  0  0  0  0  0  0
  148.5217  142.1260  153.0837 H   0  0  0  0  0  0  0  0  0  0  0  0
  146.1131  140.9028  152.9020 H   0  0  0  0  0  0  0  0  0  0  0  0
  147.5220  140.1707  152.1507 H   0  0  0  0  0  0  0  0  0  0  0  0
  146.0566  139.3211  154.6016 H   0  0  0  0  0  0  0  0  0  0  0  0
  148.0120  137.7551  152.9698 H   0  0  0  0  0  0  0  0  0  0  0  0
  147.4845  136.0644  152.1390 H   0  0  0  0  0  0  0  0  0  0  0  0
  147.5577  133.9711  151.3198 H   0  0  0  0  0  0  0  0  0  0  0  0
  146.3612  131.9833  150.4018 H   0  0  0  0  0  0  0  0  0  0  0  0
  142.6504  133.9263  151.4273 H   0  0  0  0  0  0  0  0  0  0  0  0
  1  2  1  0  0  0  0
  1 19  1  0  0  0  0
  1 20  1  0  0  0  0
  1 21  1  0  0  0  0
  2  3  1  0  0  0  0
  3  7  1  0  0  0  0
  3  4  1  0  0  0  0
  3 22  1  0  0  0  0
  4  5  1  0  0  0  0
  4 23  1  0  0  0  0
  4 24  1  0  0  0  0
  5  6  1  0  0  0  0
  5 25  1  0  0  0  0
  5 26  1  0  0  0  0
  6  7  1  0  0  0  0
  6 27  1  0  0  0  0
  6 28  1  0  0  0  0
  7  8  1  0  0  0  0
  7 29  1  0  0  0  0
  8  9  1  0  0  0  0
  8 30  1  0  0  0  0
  9 10  2  0  0  0  0
  9 11  1  0  0  0  0
 11 12  1  0  0  0  0
 11 31  1  0  0  0  0
 12 18  1  0  0  0  0
 12 13  2  0  0  0  0
 13 14  1  0  0  0  0
 13 32  1  0  0  0  0
 14 15  2  0  0  0  0
 14 33  1  0  0  0  0
 15 16  1  0  0  0  0
 15 17  1  0  0  0  0
 17 18  2  0  0  0  0
 17 34  1  0  0  0  0
M  END
> <s_m_source_file>
AV-unprocessed.smi

> <i_m_source_file_index>
2752

> <i_lp_mmshare_version>
43012

> <i_f3d_flags>
0

> <s_epik_input>
W0NIM11PW0NAQEhdMVtDSDJdW0NIMl1bQ0gyXVtDQEhdMVtOSF1DKD1PKVtOSF1jMltjSF1bY0hdYyhGKVtjSF1uMg==

> <s_epik_cmdline>
J2VwaWtfcHl0aG9uJywgJy1waCcsICc3LjAnLCAnLXRuJywgJzgnLCAnLW1hJywgJzIwMCcsICctbWV0YWxfYmluZGluZycsICctaW1hZScsICc8aW5maWxlLm1hZT4nLCAnLW9tYWUnLCAnPG91dGZpbGUubWFlPic=

> <r_lp_tautomer_probability>
1

> <r_epik_Ionization_Penalty>
3.49853e-05

> <r_epik_Ionization_Penalty_Charging>
0

> <r_epik_Ionization_Penalty_Neutral>
3.49853e-05

> <r_epik_State_Penalty>
-0

> <r_epik_Charging_Adjusted_Penalty>
0

> <i_epik_Tot_Q>
0

> <i_epik_Tot_abs_Q>
0

> <r_epik_Metal_State_Penalty>
-0

> <b_epik_Metal_Only>
0

> <s_lp_Force_Field>
OPLS_2005

> <r_lp_Energy>
22.4566

> <b_lp_Chiralities_Consistent>
1

> <s_lp_Variant>
AV-unprocessed.smi:2752-1

> <Gold.Version>
5.8.1

> <Gold.Id.Protein>
6NUR|6NUR_protein|mol2

> <Gold.PLP.Fitness>
34.3534

> <Gold.PLP.PLP>
-27.0134

> <Gold.PLP.part.hbond>
-1.8616

> <Gold.PLP.part.metal>
0.0000

> <Gold.PLP.part.buried>
-3.1909

> <Gold.PLP.part.nonpolar>
-23.0740

> <Gold.PLP.part.repulsive>
0.3489

> <Gold.PLP.ligand.clash>
0.0000

> <Gold.PLP.ligand.torsion>
0.2096

> <Gold.PLP.Chemscore.Hbond>
1.5833

> <Gold.PLP.Chemscore.CHOScore>
1.0000

> <Gold.PLP.Chemscore.Metal>
0.0000

> <Gold.Chemscore.Hbonds>
donor molecule, donor type, donor heavy atom, donor atom, acceptor molecule, acceptor atom, score
      L1  H     8    30       P1  7948  0.69
      L1  H    11    31       P1  7948  0.89
      L1  C    17    34       P1 10186  0.99

> <Gold.PLP.Chemscore.Internal.Correction>
0.0095

> <Gold.Rescore>
     Score         DG    S(hbond)    S(metal)    S(lipo)     H(rot)  DE(clash)    DE(int)     intcor
     13.90     -15.55       1.88        0.00      60.50       1.28       0.19       1.46       ----

> <Gold.Chemscore.Fitness>
13.8982

> <Gold.Chemscore.DG>
-15.5521

> <Gold.Chemscore.ZeroCoef>
-5.4800

> <Gold.Chemscore.Hbond>
1.8790

> <Gold.Chemscore.Metal>
0.0000

> <Gold.Chemscore.Lipo>
60.5002

> <Gold.Chemscore.Internal_Hbond>
0.0000

> <Gold.Chemscore.DEClash>
0.1930

> <Gold.Chemscore.DEInternal>
1.4609

> <Gold.Chemscore.Rot>
1.2821

> <Gold.Chemscore.Internal.Correction>
   9.000000E+99

> <Gold.Chemscore.Hbonds>
donor molecule, donor type, donor heavy atom, donor atom, acceptor molecule, acceptor atom, score
      L1  H     8    30       P1  7948  0.65
      L1  H    11    31       P1  7948  0.86

> <Gold.Chemscore.Hbond.Weighted>
-6.2758

> <Gold.Chemscore.Metal.Weighted>
-0.0000

> <Gold.Chemscore.Lipo.Weighted>
-7.0785

> <Gold.Chemscore.Internal_Hbond.Weighted>
0.0000

> <Gold.Chemscore.DEClash.Weighted>
0.1930

> <Gold.Chemscore.DEInternal.Weighted>
1.4609

> <Gold.Chemscore.Rot.Weighted>
3.2822

> <Gold.Chemscore.Internal.Correction.Weighted>
   9.000000E+99

> <Gold.Protein.RotatedTorsions>
[ 6907 6896 6895 6894 ] final   84.03 input  -60.11 | X-H torsion
[ 7974 7965 7964 7962 ] final  126.53 input  175.53 | X-H torsion
[ 8008 7997 7996 7995 ] final  -58.43 input   59.86 | X-H torsion
[ 10167 10162 10161 10158 ] final  141.89 input  -65.29 | X-H torsion
[ 10718 10713 10712 10709 ] final  148.17 input   66.30 | X-H torsion
[ 10763 10752 10751 10750 ] final  -10.83 input  -60.55 | X-H torsion
[ 11005 11000 10999 10996 ] final   79.44 input  -57.11 | X-H torsion

> <Gold.Protein.ActiveResidues>
 VAL166  LYS551  ARG553  GLY616  TRP617  ASP618  TYR619  PRO620  LYS621  CYS622 
 ASP623  PHE694  ASN695  SER759  ASP760  ASP761  ALA762  ILE779  LEU786  VAL792 
 PHE793  MET794  SER795  GLU796  ALA797  LYS798  CYS799  TRP800  GLU811  SER814 

> <Gold.Protein.RotatedAtoms>
  152.5342  134.2803  159.9004 H   0  0  0  0  0  0  0  0  0  0  0  0  # atno 6907 bound_to 6896
  151.2758  133.4227  159.2631 H   0  0  0  0  0  0  0  0  0  0  0  0  # atno 6908 bound_to 6896
  151.0327  134.9566  159.8176 H   0  0  0  0  0  0  0  0  0  0  0  0  # atno 6909 bound_to 6896
  145.0607  139.3807  143.5007 H   0  0  0  0  0  0  0  0  0  0  0  0  # atno 7974 bound_to 7965
  154.4308  140.1084  156.5955 H   0  0  0  0  0  0  0  0  0  0  0  0  # atno 8008 bound_to 7997
  155.5967  140.3493  155.4563 H   0  0  0  0  0  0  0  0  0  0  0  0  # atno 8009 bound_to 7997
  156.0205  140.1238  157.0351 H   0  0  0  0  0  0  0  0  0  0  0  0  # atno 8010 bound_to 7997
  139.5008  144.6142  151.6202 H   0  0  0  0  0  0  0  0  0  0  0  0  # atno 10167 bound_to 10162
  157.3119  131.0889  151.1309 H   0  0  0  0  0  0  0  0  0  0  0  0  # atno 10718 bound_to 10713
  153.4749  135.7017  153.5971 H   0  0  0  0  0  0  0  0  0  0  0  0  # atno 10763 bound_to 10752
  153.4209  135.3825  155.2111 H   0  0  0  0  0  0  0  0  0  0  0  0  # atno 10764 bound_to 10752
  154.8724  135.3927  154.4192 H   0  0  0  0  0  0  0  0  0  0  0  0  # atno 10765 bound_to 10752
  139.9173  134.7842  156.1779 H   0  0  0  0  0  0  0  0  0  0  0  0  # atno 11005 bound_to 11000
  146.3524  140.0304  142.8651 LP  0  0  0  0  0  0  0  0  0  0  0  0  # atno 17320 bound_to 7965
  145.1412  140.9572  143.4487 LP  0  0  0  0  0  0  0  0  0  0  0  0  # atno 17321 bound_to 7965
  140.5825  143.9920  150.6277 LP  0  0  0  0  0  0  0  0  0  0  0  0  # atno 17342 bound_to 10162
  140.3074  143.3220  152.0912 LP  0  0  0  0  0  0  0  0  0  0  0  0  # atno 17343 bound_to 10162
  157.2628  130.6667  149.5982 LP  0  0  0  0  0  0  0  0  0  0  0  0  # atno 17370 bound_to 10713
  155.9678  130.4503  150.5692 LP  0  0  0  0  0  0  0  0  0  0  0  0  # atno 17371 bound_to 10713
  141.0660  133.6819  156.2046 LP  0  0  0  0  0  0  0  0  0  0  0  0  # atno 17394 bound_to 11000
  140.6584  134.4994  157.5582 LP  0  0  0  0  0  0  0  0  0  0  0  0  # atno 17395 bound_to 11000

$$$$
