AV-unprocessed.smi:643|AV-procd|sdf|3153|dock2
  -GOLD-   22720 0 73D 1   1.00000     0.00000
 Structure written by MMmdl.
 40 41  0  0  0  0  0  0  0  0  1 V2000
  153.5304  142.1854  159.6834 C   0  0  0  0  0  0  0  0  0  0  0  0
  152.4543  143.2530  159.9796 C   0  0  0  0  0  0  0  0  0  0  0  0
  152.2488  143.3232  161.5086 C   0  0  0  0  0  0  0  0  0  0  0  0
  152.8659  144.6339  159.4446 C   0  0  0  0  0  0  0  0  0  0  0  0
  151.5658  145.4318  159.3119 C   0  0  0  0  0  0  0  0  0  0  0  0
  150.4507  144.3971  159.1097 C   0  0  0  0  0  0  0  0  0  0  0  0
  151.0938  143.0067  159.2763 C   0  0  1  0  0  0  0  0  0  0  0  0
  151.2500  142.3850  157.9588 N   0  0  0  0  0  0  0  0  0  0  0  0
  150.5936  141.3032  157.5145 C   0  0  0  0  0  0  0  0  0  0  0  0
  149.7546  140.6936  158.1774 O   0  0  0  0  0  0  0  0  0  0  0  0
  150.9807  140.9828  156.2683 N   0  0  0  0  0  0  0  0  0  0  0  0
  150.5379  139.9069  155.4558 C   0  0  0  0  0  0  0  0  0  0  0  0
  151.3530  138.8616  154.9260 C   0  0  0  0  0  0  0  0  0  0  0  0
  150.4638  138.0943  154.2291 C   0  0  0  0  0  0  0  0  0  0  0  0
  149.2195  138.6751  154.3639 N   0  0  0  0  0  0  0  0  0  0  0  0
  147.9553  138.2350  153.8065 C   0  0  0  0  0  0  0  0  0  0  0  0
  147.3320  139.2969  152.8906 C   0  0  0  0  0  0  0  0  0  0  0  0
  146.2851  138.7834  152.2458 F   0  0  0  0  0  0  0  0  0  0  0  0
  146.9322  140.3529  153.5991 F   0  0  0  0  0  0  0  0  0  0  0  0
  149.2635  139.7920  155.1223 N   0  0  0  0  0  0  0  0  0  0  0  0
  154.4499  142.3931  160.2313 H   0  0  0  0  0  0  0  0  0  0  0  0
  153.7946  142.1454  158.6261 H   0  0  0  0  0  0  0  0  0  0  0  0
  153.1894  141.1921  159.9770 H   0  0  0  0  0  0  0  0  0  0  0  0
  151.4960  144.0599  161.7892 H   0  0  0  0  0  0  0  0  0  0  0  0
  153.1733  143.5912  162.0212 H   0  0  0  0  0  0  0  0  0  0  0  0
  151.9238  142.3608  161.9053 H   0  0  0  0  0  0  0  0  0  0  0  0
  153.5986  145.1354  160.0780 H   0  0  0  0  0  0  0  0  0  0  0  0
  153.3158  144.5286  158.4563 H   0  0  0  0  0  0  0  0  0  0  0  0
  151.3808  145.9976  160.2257 H   0  0  0  0  0  0  0  0  0  0  0  0
  151.6149  146.1482  158.4915 H   0  0  0  0  0  0  0  0  0  0  0  0
  149.6741  144.5443  159.8611 H   0  0  0  0  0  0  0  0  0  0  0  0
  149.9702  144.5153  158.1372 H   0  0  0  0  0  0  0  0  0  0  0  0
  150.4568  142.3819  159.9047 H   0  0  0  0  0  0  0  0  0  0  0  0
  151.9204  142.8150  157.3387 H   0  0  0  0  0  0  0  0  0  0  0  0
  151.6911  141.5693  155.8559 H   0  0  0  0  0  0  0  0  0  0  0  0
  152.4133  138.6872  155.0298 H   0  0  0  0  0  0  0  0  0  0  0  0
  150.6113  137.1911  153.6555 H   0  0  0  0  0  0  0  0  0  0  0  0
  148.1264  137.3115  153.2514 H   0  0  0  0  0  0  0  0  0  0  0  0
  147.2756  137.9909  154.6239 H   0  0  0  0  0  0  0  0  0  0  0  0
  148.0370  139.6490  152.1370 H   0  0  0  0  0  0  0  0  0  0  0  0
  1  2  1  0  0  0  0
  1 21  1  0  0  0  0
  1 22  1  0  0  0  0
  1 23  1  0  0  0  0
  2  7  1  0  0  0  0
  2  3  1  0  0  0  0
  2  4  1  0  0  0  0
  3 24  1  0  0  0  0
  3 25  1  0  0  0  0
  3 26  1  0  0  0  0
  4  5  1  0  0  0  0
  4 27  1  0  0  0  0
  4 28  1  0  0  0  0
  5  6  1  0  0  0  0
  5 29  1  0  0  0  0
  5 30  1  0  0  0  0
  6  7  1  0  0  0  0
  6 31  1  0  0  0  0
  6 32  1  0  0  0  0
  7  8  1  0  0  0  0
  7 33  1  0  0  0  0
  8  9  1  0  0  0  0
  8 34  1  0  0  0  0
  9 10  2  0  0  0  0
  9 11  1  0  0  0  0
 11 12  1  0  0  0  0
 11 35  1  0  0  0  0
 12 20  2  0  0  0  0
 12 13  1  0  0  0  0
 13 14  2  0  0  0  0
 13 36  1  0  0  0  0
 14 15  1  0  0  0  0
 14 37  1  0  0  0  0
 15 16  1  0  0  0  0
 15 20  1  0  0  0  0
 16 17  1  0  0  0  0
 16 38  1  0  0  0  0
 16 39  1  0  0  0  0
 17 18  1  0  0  0  0
 17 19  1  0  0  0  0
 17 40  1  0  0  0  0
M  END
> <s_m_source_file>
AV-unprocessed.smi

> <i_m_source_file_index>
643

> <i_lp_mmshare_version>
43012

> <i_f3d_flags>
0

> <s_epik_input>
W0NIM11DMShbQ0gzXSlbQ0gyXVtDSDJdW0NIMl1bQ0BIXTFbTkhdQyg9TylbTkhdYzJbY0hdW2NIXW4objIpW0NIMl1bQ0hdKEYpRg==

> <s_epik_cmdline>
J2VwaWtfcHl0aG9uJywgJy1waCcsICc3LjAnLCAnLXRuJywgJzgnLCAnLW1hJywgJzIwMCcsICctbWV0YWxfYmluZGluZycsICctaW1hZScsICc8aW5maWxlLm1hZT4nLCAnLW9tYWUnLCAnPG91dGZpbGUubWFlPic=

> <r_lp_tautomer_probability>
1

> <r_epik_Ionization_Penalty>
3.99908e-05

> <r_epik_Ionization_Penalty_Charging>
0

> <r_epik_Ionization_Penalty_Neutral>
3.99908e-05

> <r_epik_State_Penalty>
-0

> <r_epik_Charging_Adjusted_Penalty>
0

> <i_epik_Tot_Q>
0

> <i_epik_Tot_abs_Q>
0

> <r_epik_Metal_State_Penalty>
-0

> <b_epik_Metal_Only>
0

> <s_lp_Force_Field>
OPLS_2005

> <r_lp_Energy>
26.1954

> <b_lp_Chiralities_Consistent>
1

> <s_lp_Variant>
AV-unprocessed.smi:643-1

> <Gold.Version>
5.8.1

> <Gold.Id.Protein>
6NUR|6NUR_protein|mol2

> <Gold.PLP.Fitness>
41.5537

> <Gold.PLP.PLP>
-39.5756

> <Gold.PLP.part.hbond>
0.0000

> <Gold.PLP.part.metal>
0.0000

> <Gold.PLP.part.buried>
1.4140

> <Gold.PLP.part.nonpolar>
-40.7040

> <Gold.PLP.part.repulsive>
0.2501

> <Gold.PLP.ligand.clash>
0.0000

> <Gold.PLP.ligand.torsion>
0.6777

> <Gold.PLP.Chemscore.Hbond>
0.0000

> <Gold.PLP.Chemscore.CHOScore>
1.1012

> <Gold.PLP.Chemscore.Metal>
0.0000

> <Gold.Chemscore.Hbonds>
donor molecule, donor type, donor heavy atom, donor atom, acceptor molecule, acceptor atom, score
      L1  C    14    37       P1  7948  0.48
      L1  C    14    37       P1  7949  0.64

> <Gold.PLP.Chemscore.Internal.Correction>
0.0299

> <Gold.Rescore>
     Score         DG    S(hbond)    S(metal)    S(lipo)     H(rot)  DE(clash)    DE(int)     intcor
      9.65     -14.98       0.00        0.00     109.11       1.28       3.13       2.19       ----

> <Gold.Chemscore.Fitness>
9.6507

> <Gold.Chemscore.DG>
-14.9769

> <Gold.Chemscore.ZeroCoef>
-5.4800

> <Gold.Chemscore.Hbond>
0.0000

> <Gold.Chemscore.Metal>
0.0000

> <Gold.Chemscore.Lipo>
109.1134

> <Gold.Chemscore.Internal_Hbond>
0.0000

> <Gold.Chemscore.DEClash>
3.1328

> <Gold.Chemscore.DEInternal>
2.1933

> <Gold.Chemscore.Rot>
1.2771

> <Gold.Chemscore.Internal.Correction>
   9.000000E+99

> <Gold.Chemscore.Hbond.Weighted>
-0.0000

> <Gold.Chemscore.Metal.Weighted>
-0.0000

> <Gold.Chemscore.Lipo.Weighted>
-12.7663

> <Gold.Chemscore.Internal_Hbond.Weighted>
0.0000

> <Gold.Chemscore.DEClash.Weighted>
3.1328

> <Gold.Chemscore.DEInternal.Weighted>
2.1933

> <Gold.Chemscore.Rot.Weighted>
3.2694

> <Gold.Chemscore.Internal.Correction.Weighted>
   9.000000E+99

> <Gold.Protein.RotatedTorsions>
[ 6907 6896 6895 6894 ] final  120.57 input  -60.11 | X-H torsion
[ 7974 7965 7964 7962 ] final  114.99 input  175.53 | X-H torsion
[ 8008 7997 7996 7995 ] final   40.28 input   59.86 | X-H torsion
[ 10167 10162 10161 10158 ] final -131.06 input  -65.29 | X-H torsion
[ 10718 10713 10712 10709 ] final  145.46 input   66.30 | X-H torsion
[ 10763 10752 10751 10750 ] final  -87.32 input  -60.55 | X-H torsion
[ 11005 11000 10999 10996 ] final -168.66 input  -57.11 | X-H torsion

> <Gold.Protein.ActiveResidues>
 VAL166  LYS551  ARG553  GLY616  TRP617  ASP618  TYR619  PRO620  LYS621  CYS622 
 ASP623  PHE694  ASN695  SER759  ASP760  ASP761  ALA762  ILE779  LEU786  VAL792 
 PHE793  MET794  SER795  GLU796  ALA797  LYS798  CYS799  TRP800  GLU811  SER814 

> <Gold.Protein.RotatedAtoms>
  152.4388  133.7409  159.6640 H   0  0  0  0  0  0  0  0  0  0  0  0  # atno 6907 bound_to 6896
  150.8275  133.8136  159.3118 H   0  0  0  0  0  0  0  0  0  0  0  0  # atno 6908 bound_to 6896
  151.5800  135.1061  160.0067 H   0  0  0  0  0  0  0  0  0  0  0  0  # atno 6909 bound_to 6896
  145.1976  139.2968  143.4335 H   0  0  0  0  0  0  0  0  0  0  0  0  # atno 7974 bound_to 7965
  155.2505  140.3352  155.4282 H   0  0  0  0  0  0  0  0  0  0  0  0  # atno 8008 bound_to 7997
  156.2218  140.1812  156.7503 H   0  0  0  0  0  0  0  0  0  0  0  0  # atno 8009 bound_to 7997
  154.5836  140.0649  156.9124 H   0  0  0  0  0  0  0  0  0  0  0  0  # atno 8010 bound_to 7997
  139.9228  143.6362  152.2549 H   0  0  0  0  0  0  0  0  0  0  0  0  # atno 10167 bound_to 10162
  157.3450  131.0942  151.1050 H   0  0  0  0  0  0  0  0  0  0  0  0  # atno 10718 bound_to 10713
  154.6323  135.5417  153.7695 H   0  0  0  0  0  0  0  0  0  0  0  0  # atno 10763 bound_to 10752
  153.0291  135.6439  154.1283 H   0  0  0  0  0  0  0  0  0  0  0  0  # atno 10764 bound_to 10752
  154.1212  135.2920  155.3188 H   0  0  0  0  0  0  0  0  0  0  0  0  # atno 10765 bound_to 10752
  140.5395  134.5536  157.5096 H   0  0  0  0  0  0  0  0  0  0  0  0  # atno 11005 bound_to 11000
  146.3424  140.2210  142.8591 LP  0  0  0  0  0  0  0  0  0  0  0  0  # atno 17320 bound_to 7965
  144.9979  140.8606  143.5299 LP  0  0  0  0  0  0  0  0  0  0  0  0  # atno 17321 bound_to 7965
  139.6847  144.7652  151.1545 LP  0  0  0  0  0  0  0  0  0  0  0  0  # atno 17342 bound_to 10162
  140.7658  143.5674  150.9033 LP  0  0  0  0  0  0  0  0  0  0  0  0  # atno 17343 bound_to 10162
  157.2247  130.6497  149.5825 LP  0  0  0  0  0  0  0  0  0  0  0  0  # atno 17370 bound_to 10713
  155.9713  130.4618  150.6122 LP  0  0  0  0  0  0  0  0  0  0  0  0  # atno 17371 bound_to 10713
  139.9511  134.7615  156.0446 LP  0  0  0  0  0  0  0  0  0  0  0  0  # atno 17394 bound_to 11000
  141.1235  133.6606  156.3276 LP  0  0  0  0  0  0  0  0  0  0  0  0  # atno 17395 bound_to 11000

$$$$
