AV-unprocessed.smi:2503|AV-procd|sdf|9847|dock4
  -GOLD-   2272013473D 1   1.00000     0.00000
 Structure written by MMmdl.
 37 38  0  0  0  0  0  0  0  0  2 V2000
  145.4728  143.1715  154.4125 C   0  0  0  0  0  0  0  0  0  0  0  0
  145.5823  141.9725  155.3642 C   0  0  0  0  0  0  0  0  0  0  0  0
  146.3922  142.3225  156.6226 C   0  0  0  0  0  0  0  0  0  0  0  0
  146.1314  140.7645  154.6555 C   0  0  0  0  0  0  0  0  0  0  0  0
  145.5028  139.5885  154.5302 N   0  3  0  0  0  0  0  0  0  0  0  0
  146.2883  138.6914  153.8604 C   0  0  0  0  0  0  0  0  0  0  0  0
  147.4600  139.3409  153.5774 C   0  0  0  0  0  0  0  0  0  0  0  0
  147.3420  140.6102  154.0857 N   0  0  0  0  0  0  0  0  0  0  0  0
  148.3690  141.6618  154.0224 C   0  0  0  0  0  0  0  0  0  0  0  0
  149.5634  141.3717  154.9395 C   0  0  0  0  0  0  0  0  0  0  0  0
  150.1866  140.3154  154.8089 O   0  0  0  0  0  0  0  0  0  0  0  0
  149.8362  142.3431  155.8408 N   0  0  0  0  0  0  0  0  0  0  0  0
  150.8175  142.4479  156.7682 C   0  0  0  0  0  0  0  0  0  0  0  0
  151.4156  141.4460  157.1564 O   0  0  0  0  0  0  0  0  0  0  0  0
  151.0898  143.6798  157.2374 N   0  0  0  0  0  0  0  0  0  0  0  0
  152.0812  144.0011  158.2122 C   0  0  0  0  0  0  0  0  0  0  0  0
  151.9170  143.4157  159.5979 C   0  0  0  0  0  0  0  0  0  0  0  0
  151.6647  144.8807  159.3710 C   0  0  0  0  0  0  0  0  0  0  0  0
  144.8400  142.9379  153.5559 H   0  0  0  0  0  0  0  0  0  0  0  0
  146.4511  143.4681  154.0329 H   0  0  0  0  0  0  0  0  0  0  0  0
  145.0371  144.0339  154.9177 H   0  0  0  0  0  0  0  0  0  0  0  0
  144.5786  141.7082  155.6941 H   0  0  0  0  0  0  0  0  0  0  0  0
  146.4278  141.4789  157.3125 H   0  0  0  0  0  0  0  0  0  0  0  0
  145.9433  143.1615  157.1548 H   0  0  0  0  0  0  0  0  0  0  0  0
  147.4181  142.5990  156.3777 H   0  0  0  0  0  0  0  0  0  0  0  0
  145.9647  137.6835  153.6448 H   0  0  0  0  0  0  0  0  0  0  0  0
  148.3491  139.0013  153.0658 H   0  0  0  0  0  0  0  0  0  0  0  0
  148.6852  141.7740  152.9843 H   0  0  0  0  0  0  0  0  0  0  0  0
  147.9094  142.6045  154.3215 H   0  0  0  0  0  0  0  0  0  0  0  0
  149.2034  143.1294  155.8190 H   0  0  0  0  0  0  0  0  0  0  0  0
  150.5478  144.4508  156.8734 H   0  0  0  0  0  0  0  0  0  0  0  0
  153.1052  144.1268  157.8630 H   0  0  0  0  0  0  0  0  0  0  0  0
  151.0528  142.7808  159.7843 H   0  0  0  0  0  0  0  0  0  0  0  0
  152.8219  143.1385  160.1353 H   0  0  0  0  0  0  0  0  0  0  0  0
  152.4009  145.5826  159.7574 H   0  0  0  0  0  0  0  0  0  0  0  0
  150.6319  145.2229  159.4065 H   0  0  0  0  0  0  0  0  0  0  0  0
  144.5730  139.3953  154.8807 H   0  0  0  0  0  0  0  0  0  0  0  0
  1  2  1  0  0  0  0
  1 19  1  0  0  0  0
  1 20  1  0  0  0  0
  1 21  1  0  0  0  0
  2  3  1  0  0  0  0
  2  4  1  0  0  0  0
  2 22  1  0  0  0  0
  3 23  1  0  0  0  0
  3 24  1  0  0  0  0
  3 25  1  0  0  0  0
  4  8  1  0  0  0  0
  4  5  2  0  0  0  0
  5  6  1  0  0  0  0
  5 37  1  0  0  0  0
  6  7  2  0  0  0  0
  6 26  1  0  0  0  0
  7  8  1  0  0  0  0
  7 27  1  0  0  0  0
  8  9  1  0  0  0  0
  9 10  1  0  0  0  0
  9 28  1  0  0  0  0
  9 29  1  0  0  0  0
 10 11  2  0  0  0  0
 10 12  1  0  0  0  0
 12 13  1  0  0  0  0
 12 30  1  0  0  0  0
 13 14  2  0  0  0  0
 13 15  1  0  0  0  0
 15 16  1  0  0  0  0
 15 31  1  0  0  0  0
 16 18  1  0  0  0  0
 16 17  1  0  0  0  0
 16 32  1  0  0  0  0
 17 18  1  0  0  0  0
 17 33  1  0  0  0  0
 17 34  1  0  0  0  0
 18 35  1  0  0  0  0
 18 36  1  0  0  0  0
M  CHG  1   5   1
M  END
> <s_m_source_file>
AV-unprocessed.smi

> <i_m_source_file_index>
2503

> <i_lp_mmshare_version>
43012

> <i_f3d_flags>
0

> <s_epik_input>
W0NIM11bQ0hdKFtDSDNdKWMxbltjSF1bY0hdbjFbQ0gyXUMoPU8pW05IXUMoPU8pW05IXVtDSF0yW0NIMl1bQ0gyXTI=

> <s_epik_cmdline>
J2VwaWtfcHl0aG9uJywgJy1waCcsICc3LjAnLCAnLXRuJywgJzgnLCAnLW1hJywgJzIwMCcsICctbWV0YWxfYmluZGluZycsICctaW1hZScsICc8aW5maWxlLm1hZT4nLCAnLW9tYWUnLCAnPG91dGZpbGUubWFlPic=

> <r_lp_tautomer_probability>
1

> <r_epik_Ionization_Penalty>
0.381304

> <r_epik_Ionization_Penalty_Charging>
0

> <r_epik_Ionization_Penalty_Neutral>
0.381304

> <r_epik_State_Penalty>
0.37936

> <r_epik_Charging_Adjusted_Penalty>
0.37936

> <i_epik_Tot_Q>
1

> <i_epik_Tot_abs_Q>
1

> <r_epik_Metal_State_Penalty>
0.628559

> <b_epik_Metal_Only>
0

> <s_lp_Force_Field>
OPLS_2005

> <r_lp_Energy>
25.6891

> <b_lp_Chiralities_Consistent>
1

> <s_lp_Variant>
AV-unprocessed.smi:2503-1

> <Gold.Version>
5.8.1

> <Gold.Id.Protein>
6NUR|6NUR_protein|mol2

> <Gold.PLP.Fitness>
47.5204

> <Gold.PLP.PLP>
-36.6722

> <Gold.PLP.part.hbond>
-4.0000

> <Gold.PLP.part.metal>
0.0000

> <Gold.PLP.part.buried>
-2.3796

> <Gold.PLP.part.nonpolar>
-30.5921

> <Gold.PLP.part.repulsive>
0.2853

> <Gold.PLP.ligand.clash>
0.0000

> <Gold.PLP.ligand.torsion>
0.2968

> <Gold.PLP.Chemscore.Hbond>
2.7680

> <Gold.PLP.Chemscore.CHOScore>
1.0000

> <Gold.PLP.Chemscore.Metal>
0.0000

> <Gold.Chemscore.Hbonds>
donor molecule, donor type, donor heavy atom, donor atom, acceptor molecule, acceptor atom, score
      L1  H    12    30       P1  8028  1.00
      L1  H    15    31       P1  8028  0.76
      P1  H  7989  7998       L1    11  1.00
      L1  C     7    27       P1  7957  1.00

> <Gold.PLP.Chemscore.Internal.Correction>
0.1378

> <Gold.Rescore>
     Score         DG    S(hbond)    S(metal)    S(lipo)     H(rot)  DE(clash)    DE(int)     intcor
     14.32     -15.98       2.28        0.00      64.58       1.82       0.13       1.53       ----

> <Gold.Chemscore.Fitness>
14.3175

> <Gold.Chemscore.DG>
-15.9751

> <Gold.Chemscore.ZeroCoef>
-5.4800

> <Gold.Chemscore.Hbond>
2.2766

> <Gold.Chemscore.Metal>
0.0000

> <Gold.Chemscore.Lipo>
64.5766

> <Gold.Chemscore.Internal_Hbond>
0.0000

> <Gold.Chemscore.DEClash>
0.1314

> <Gold.Chemscore.DEInternal>
1.5261

> <Gold.Chemscore.Rot>
1.8220

> <Gold.Chemscore.Internal.Correction>
   9.000000E+99

> <Gold.Chemscore.Hbonds>
donor molecule, donor type, donor heavy atom, donor atom, acceptor molecule, acceptor atom, score
      L1  H    12    30       P1  8028  0.96
      L1  H    15    31       P1  8028  0.66
      P1  H  7989  7998       L1    11  0.27

> <Gold.Chemscore.Hbond.Weighted>
-7.6039

> <Gold.Chemscore.Metal.Weighted>
-0.0000

> <Gold.Chemscore.Lipo.Weighted>
-7.5555

> <Gold.Chemscore.Internal_Hbond.Weighted>
0.0000

> <Gold.Chemscore.DEClash.Weighted>
0.1314

> <Gold.Chemscore.DEInternal.Weighted>
1.5261

> <Gold.Chemscore.Rot.Weighted>
4.6643

> <Gold.Chemscore.Internal.Correction.Weighted>
   9.000000E+99

> <Gold.Protein.RotatedTorsions>
[ 6907 6896 6895 6894 ] final  -88.65 input  -60.11 | X-H torsion
[ 7974 7965 7964 7962 ] final  147.82 input  175.53 | X-H torsion
[ 8008 7997 7996 7995 ] final -163.09 input   59.86 | X-H torsion
[ 10167 10162 10161 10158 ] final -113.67 input  -65.29 | X-H torsion
[ 10718 10713 10712 10709 ] final  112.59 input   66.30 | X-H torsion
[ 10763 10752 10751 10750 ] final   32.40 input  -60.55 | X-H torsion
[ 11005 11000 10999 10996 ] final   58.45 input  -57.11 | X-H torsion

> <Gold.Protein.ActiveResidues>
 VAL166  LYS551  ARG553  GLY616  TRP617  ASP618  TYR619  PRO620  LYS621  CYS622 
 ASP623  PHE694  ASN695  SER759  ASP760  ASP761  ALA762  ILE779  LEU786  VAL792 
 PHE793  MET794  SER795  GLU796  ALA797  LYS798  CYS799  TRP800  GLU811  SER814 

> <Gold.Protein.RotatedAtoms>
  150.6869  134.2708  159.4587 H   0  0  0  0  0  0  0  0  0  0  0  0  # atno 6907 bound_to 6896
  152.0631  134.9579  160.0584 H   0  0  0  0  0  0  0  0  0  0  0  0  # atno 6908 bound_to 6896
  152.0999  133.4209  159.4619 H   0  0  0  0  0  0  0  0  0  0  0  0  # atno 6909 bound_to 6896
  144.8562  139.6076  143.5951 H   0  0  0  0  0  0  0  0  0  0  0  0  # atno 7974 bound_to 7965
  155.8163  140.0913  157.1875 H   0  0  0  0  0  0  0  0  0  0  0  0  # atno 8008 bound_to 7997
  154.3979  140.1445  156.3506 H   0  0  0  0  0  0  0  0  0  0  0  0  # atno 8009 bound_to 7997
  155.8313  140.3442  155.5576 H   0  0  0  0  0  0  0  0  0  0  0  0  # atno 8010 bound_to 7997
  140.1093  143.4542  152.1763 H   0  0  0  0  0  0  0  0  0  0  0  0  # atno 10167 bound_to 10162
  157.6384  131.0970  150.6918 H   0  0  0  0  0  0  0  0  0  0  0  0  # atno 10718 bound_to 10713
  153.0264  135.6414  154.1349 H   0  0  0  0  0  0  0  0  0  0  0  0  # atno 10763 bound_to 10752
  154.1077  135.2855  155.3239 H   0  0  0  0  0  0  0  0  0  0  0  0  # atno 10764 bound_to 10752
  154.6354  135.5478  153.7790 H   0  0  0  0  0  0  0  0  0  0  0  0  # atno 10765 bound_to 10752
  140.0376  134.5920  155.9423 H   0  0  0  0  0  0  0  0  0  0  0  0  # atno 11005 bound_to 11000
  146.2825  139.6914  142.9219 LP  0  0  0  0  0  0  0  0  0  0  0  0  # atno 17320 bound_to 7965
  145.4402  141.0422  143.2862 LP  0  0  0  0  0  0  0  0  0  0  0  0  # atno 17321 bound_to 7965
  139.5628  144.7416  151.4107 LP  0  0  0  0  0  0  0  0  0  0  0  0  # atno 17342 bound_to 10162
  140.6934  143.7806  150.7290 LP  0  0  0  0  0  0  0  0  0  0  0  0  # atno 17343 bound_to 10162
  156.7245  130.4691  149.5514 LP  0  0  0  0  0  0  0  0  0  0  0  0  # atno 17370 bound_to 10713
  156.1643  130.6395  151.0758 LP  0  0  0  0  0  0  0  0  0  0  0  0  # atno 17371 bound_to 10713
  141.1866  133.6557  156.5245 LP  0  0  0  0  0  0  0  0  0  0  0  0  # atno 17394 bound_to 11000
  140.4122  134.7262  157.4842 LP  0  0  0  0  0  0  0  0  0  0  0  0  # atno 17395 bound_to 11000

$$$$
