AV-unprocessed.smi:1795|AV-procd|sdf|7250|dock2
  -GOLD-   22720 8503D 1   1.00000     0.00000
 Structure written by MMmdl.
 48 49  0  0  0  0  0  0  0  0  2 V2000
  149.3889  133.4275  153.5216 C   0  0  0  0  0  0  0  0  0  0  0  0
  149.0519  133.7916  154.9787 C   0  0  1  0  0  0  0  0  0  0  0  0
  149.7353  135.0827  155.4661 C   0  0  0  0  0  0  0  0  0  0  0  0
  149.1234  136.2933  154.8547 N   0  3  2  0  0  0  0  0  0  0  0  0
  149.8630  137.5487  155.2106 C   0  0  1  0  0  0  0  0  0  0  0  0
  151.3164  137.4555  154.6934 C   0  0  0  0  0  0  0  0  0  0  0  0
  149.1765  138.8497  154.7079 C   0  0  0  0  0  0  0  0  0  0  0  0
  149.9706  140.0471  154.9708 N   0  0  0  0  0  0  0  0  0  0  0  0
  150.3377  140.4888  156.1838 C   0  0  0  0  0  0  0  0  0  0  0  0
  150.0549  139.9047  157.2303 O   0  0  0  0  0  0  0  0  0  0  0  0
  151.1546  141.7874  156.2122 C   0  0  0  0  0  0  0  0  0  0  0  0
  151.5804  142.1622  157.5706 N   0  0  0  0  0  0  0  0  0  0  0  0
  151.1932  143.4333  158.0401 C   0  0  0  0  0  0  0  0  0  0  0  0
  151.5297  143.8707  159.2637 C   0  0  0  0  0  0  0  0  0  0  0  0
  152.3101  142.9992  160.1097 C   0  0  0  0  0  0  0  0  0  0  0  0
  152.6893  141.7830  159.6691 C   0  0  0  0  0  0  0  0  0  0  0  0
  152.3274  141.3024  158.3306 C   0  0  0  0  0  0  0  0  0  0  0  0
  152.6747  140.1954  157.9169 O   0  0  0  0  0  0  0  0  0  0  0  0
  147.6599  136.2923  155.1216 C   0  0  0  0  0  0  0  0  0  0  0  0
  147.0092  134.9909  154.6160 C   0  0  2  0  0  0  0  0  0  0  0  0
  145.5180  134.9223  154.9641 C   0  0  0  0  0  0  0  0  0  0  0  0
  147.6478  133.8675  155.2125 O   0  0  0  0  0  0  0  0  0  0  0  0
  150.4560  133.2349  153.4091 H   0  0  0  0  0  0  0  0  0  0  0  0
  149.1298  134.2234  152.8238 H   0  0  0  0  0  0  0  0  0  0  0  0
  148.8584  132.5261  153.2138 H   0  0  0  0  0  0  0  0  0  0  0  0
  149.4141  132.9711  155.5989 H   0  0  0  0  0  0  0  0  0  0  0  0
  149.6424  135.1508  156.5514 H   0  0  0  0  0  0  0  0  0  0  0  0
  150.8014  135.0222  155.2535 H   0  0  0  0  0  0  0  0  0  0  0  0
  149.8942  137.6142  156.2996 H   0  0  0  0  0  0  0  0  0  0  0  0
  151.9217  138.2948  155.0345 H   0  0  0  0  0  0  0  0  0  0  0  0
  151.3441  137.4505  153.6034 H   0  0  0  0  0  0  0  0  0  0  0  0
  151.8293  136.5592  155.0372 H   0  0  0  0  0  0  0  0  0  0  0  0
  148.9363  138.7691  153.6462 H   0  0  0  0  0  0  0  0  0  0  0  0
  148.2329  139.0097  155.2295 H   0  0  0  0  0  0  0  0  0  0  0  0
  150.2540  140.5899  154.1676 H   0  0  0  0  0  0  0  0  0  0  0  0
  152.0169  141.6585  155.5571 H   0  0  0  0  0  0  0  0  0  0  0  0
  150.5773  142.6008  155.7684 H   0  0  0  0  0  0  0  0  0  0  0  0
  150.6166  144.0262  157.3450 H   0  0  0  0  0  0  0  0  0  0  0  0
  151.2277  144.8498  159.6053 H   0  0  0  0  0  0  0  0  0  0  0  0
  152.5919  143.3243  161.1003 H   0  0  0  0  0  0  0  0  0  0  0  0
  153.2731  141.1447  160.3159 H   0  0  0  0  0  0  0  0  0  0  0  0
  147.4828  136.4192  156.1909 H   0  0  0  0  0  0  0  0  0  0  0  0
  147.1696  137.1177  154.6067 H   0  0  0  0  0  0  0  0  0  0  0  0
  147.1028  134.9336  153.5314 H   0  0  0  0  0  0  0  0  0  0  0  0
  144.9709  135.7525  154.5169 H   0  0  0  0  0  0  0  0  0  0  0  0
  145.3613  134.9603  156.0425 H   0  0  0  0  0  0  0  0  0  0  0  0
  145.0741  133.9971  154.5958 H   0  0  0  0  0  0  0  0  0  0  0  0
  149.2149  136.1950  153.8535 H   0  0  0  0  0  0  0  0  0  0  0  0
  1  2  1  0  0  0  0
  1 23  1  0  0  0  0
  1 24  1  0  0  0  0
  1 25  1  0  0  0  0
  2 22  1  0  0  0  0
  2  3  1  0  0  0  0
  2 26  1  0  0  0  0
  3  4  1  0  0  0  0
  3 27  1  0  0  0  0
  3 28  1  0  0  0  0
  4  5  1  0  0  0  0
  4 19  1  0  0  0  0
  4 48  1  0  0  0  0
  5  6  1  0  0  0  0
  5  7  1  0  0  0  0
  5 29  1  0  0  0  0
  6 30  1  0  0  0  0
  6 31  1  0  0  0  0
  6 32  1  0  0  0  0
  7  8  1  0  0  0  0
  7 33  1  0  0  0  0
  7 34  1  0  0  0  0
  8  9  1  0  0  0  0
  8 35  1  0  0  0  0
  9 10  2  0  0  0  0
  9 11  1  0  0  0  0
 11 12  1  0  0  0  0
 11 36  1  0  0  0  0
 11 37  1  0  0  0  0
 12 17  1  0  0  0  0
 12 13  1  0  0  0  0
 13 14  2  0  0  0  0
 13 38  1  0  0  0  0
 14 15  1  0  0  0  0
 14 39  1  0  0  0  0
 15 16  2  0  0  0  0
 15 40  1  0  0  0  0
 16 17  1  0  0  0  0
 16 41  1  0  0  0  0
 17 18  2  0  0  0  0
 19 20  1  0  0  0  0
 19 42  1  0  0  0  0
 19 43  1  0  0  0  0
 20 21  1  0  0  0  0
 20 22  1  0  0  0  0
 20 44  1  0  0  0  0
 21 45  1  0  0  0  0
 21 46  1  0  0  0  0
 21 47  1  0  0  0  0
M  CHG  1   4   1
M  END
> <s_m_source_file>
AV-unprocessed.smi

> <i_m_source_file_index>
1795

> <i_lp_mmshare_version>
43012

> <i_f3d_flags>
0

> <s_epik_input>
W0NIM11bQ0BASF0xW0NIMl1OKFtDSDJdW0NASF0oTzEpW0NIM10pW0NASF0oW0NIM10pW0NIMl1bTkhdQyg9TylbQ0gyXW4yW2NIXVtjSF1bY0hdW2NIXWMyPU8=

> <s_epik_cmdline>
J2VwaWtfcHl0aG9uJywgJy1waCcsICc3LjAnLCAnLXRuJywgJzgnLCAnLW1hJywgJzIwMCcsICctbWV0YWxfYmluZGluZycsICctaW1hZScsICc8aW5maWxlLm1hZT4nLCAnLW9tYWUnLCAnPG91dGZpbGUubWFlPic=

> <r_lp_tautomer_probability>
1

> <r_epik_Ionization_Penalty>
0.656654

> <r_epik_Ionization_Penalty_Charging>
0.656654

> <r_epik_Ionization_Penalty_Neutral>
8.90321e-08

> <r_epik_State_Penalty>
0.675641

> <r_epik_Charging_Adjusted_Penalty>
1.33229

> <i_epik_Tot_Q>
1

> <i_epik_Tot_abs_Q>
1

> <r_epik_Metal_State_Penalty>
0.675691

> <b_epik_Metal_Only>
0

> <s_lp_Force_Field>
OPLS_2005

> <r_lp_Energy>
30.8259

> <b_lp_Chiralities_Consistent>
1

> <s_lp_Variant>
AV-unprocessed.smi:1795-14

> <Gold.Version>
5.8.1

> <Gold.Id.Protein>
6NUR|6NUR_protein|mol2

> <Gold.PLP.Fitness>
45.6408

> <Gold.PLP.PLP>
-33.7512

> <Gold.PLP.part.hbond>
-2.0000

> <Gold.PLP.part.metal>
0.0000

> <Gold.PLP.part.buried>
-5.2104

> <Gold.PLP.part.nonpolar>
-25.9983

> <Gold.PLP.part.repulsive>
0.1609

> <Gold.PLP.ligand.clash>
0.0000

> <Gold.PLP.ligand.torsion>
0.1083

> <Gold.PLP.Chemscore.Hbond>
2.9920

> <Gold.PLP.Chemscore.CHOScore>
1.0000

> <Gold.PLP.Chemscore.Metal>
0.0000

> <Gold.Chemscore.Hbonds>
donor molecule, donor type, donor heavy atom, donor atom, acceptor molecule, acceptor atom, score
      L1  H     4    48       P1  7948  2.00
      P1  H  7997  8008       L1    18  0.85
      L1  C    13    38       P1  8028  1.00

> <Gold.PLP.Chemscore.Internal.Correction>
0.1301

> <Gold.Rescore>
     Score         DG    S(hbond)    S(metal)    S(lipo)     H(rot)  DE(clash)    DE(int)     intcor
     13.36     -17.04       1.85        0.00      87.27       1.89       0.14       3.54       ----

> <Gold.Chemscore.Fitness>
13.3648

> <Gold.Chemscore.DG>
-17.0436

> <Gold.Chemscore.ZeroCoef>
-5.4800

> <Gold.Chemscore.Hbond>
1.8516

> <Gold.Chemscore.Metal>
0.0000

> <Gold.Chemscore.Lipo>
87.2656

> <Gold.Chemscore.Internal_Hbond>
0.0000

> <Gold.Chemscore.DEClash>
0.1370

> <Gold.Chemscore.DEInternal>
3.5419

> <Gold.Chemscore.Rot>
1.8870

> <Gold.Chemscore.Internal.Correction>
   9.000000E+99

> <Gold.Chemscore.Hbonds>
donor molecule, donor type, donor heavy atom, donor atom, acceptor molecule, acceptor atom, score
      L1  H     4    48       P1  7948  0.88
      P1  H  7997  8008       L1    18  0.75

> <Gold.Chemscore.Hbond.Weighted>
-6.1843

> <Gold.Chemscore.Metal.Weighted>
-0.0000

> <Gold.Chemscore.Lipo.Weighted>
-10.2101

> <Gold.Chemscore.Internal_Hbond.Weighted>
0.0000

> <Gold.Chemscore.DEClash.Weighted>
0.1370

> <Gold.Chemscore.DEInternal.Weighted>
3.5419

> <Gold.Chemscore.Rot.Weighted>
4.8308

> <Gold.Chemscore.Internal.Correction.Weighted>
   9.000000E+99

> <Gold.Protein.RotatedTorsions>
[ 6907 6896 6895 6894 ] final   73.99 input  -60.11 | X-H torsion
[ 7974 7965 7964 7962 ] final  -53.16 input  175.53 | X-H torsion
[ 8008 7997 7996 7995 ] final  -77.98 input   59.86 | X-H torsion
[ 10167 10162 10161 10158 ] final -122.95 input  -65.29 | X-H torsion
[ 10718 10713 10712 10709 ] final -107.21 input   66.30 | X-H torsion
[ 10763 10752 10751 10750 ] final -105.17 input  -60.55 | X-H torsion
[ 11005 11000 10999 10996 ] final  152.12 input  -57.11 | X-H torsion

> <Gold.Protein.ActiveResidues>
 VAL166  LYS551  ARG553  GLY616  TRP617  ASP618  TYR619  PRO620  LYS621  CYS622 
 ASP623  PHE694  ASN695  SER759  ASP760  ASP761  ALA762  ILE779  LEU786  VAL792 
 PHE793  MET794  SER795  GLU796  ALA797  LYS798  CYS799  TRP800  GLU811  SER814 

> <Gold.Protein.RotatedAtoms>
  152.4952  134.4339  159.9520 H   0  0  0  0  0  0  0  0  0  0  0  0  # atno 6907 bound_to 6896
  151.4319  133.3662  159.2777 H   0  0  0  0  0  0  0  0  0  0  0  0  # atno 6908 bound_to 6896
  150.9149  134.8589  159.7510 H   0  0  0  0  0  0  0  0  0  0  0  0  # atno 6909 bound_to 6896
  145.8999  140.8003  142.9749 H   0  0  0  0  0  0  0  0  0  0  0  0  # atno 7974 bound_to 7965
  154.5646  140.0701  156.8872 H   0  0  0  0  0  0  0  0  0  0  0  0  # atno 8008 bound_to 7997
  155.2746  140.3367  155.4244 H   0  0  0  0  0  0  0  0  0  0  0  0  # atno 8009 bound_to 7997
  156.2070  140.1744  156.7763 H   0  0  0  0  0  0  0  0  0  0  0  0  # atno 8010 bound_to 7997
  140.0088  143.5463  152.2272 H   0  0  0  0  0  0  0  0  0  0  0  0  # atno 10167 bound_to 10162
  156.0426  130.5651  150.7789 H   0  0  0  0  0  0  0  0  0  0  0  0  # atno 10718 bound_to 10713
  154.7928  135.4759  154.0092 H   0  0  0  0  0  0  0  0  0  0  0  0  # atno 10763 bound_to 10752
  153.1657  135.6816  153.8685 H   0  0  0  0  0  0  0  0  0  0  0  0  # atno 10764 bound_to 10752
  153.8284  135.3195  155.3394 H   0  0  0  0  0  0  0  0  0  0  0  0  # atno 10765 bound_to 10752
  140.1279  134.8821  157.2164 H   0  0  0  0  0  0  0  0  0  0  0  0  # atno 11005 bound_to 11000
  144.6735  140.1660  143.7418 LP  0  0  0  0  0  0  0  0  0  0  0  0  # atno 17320 bound_to 7965
  145.8804  139.2320  143.1608 LP  0  0  0  0  0  0  0  0  0  0  0  0  # atno 17321 bound_to 7965
  139.6220  144.7630  151.2720 LP  0  0  0  0  0  0  0  0  0  0  0  0  # atno 17342 bound_to 10162
  140.7390  143.6632  150.8146 LP  0  0  0  0  0  0  0  0  0  0  0  0  # atno 17343 bound_to 10162
  157.5262  131.0934  151.0014 LP  0  0  0  0  0  0  0  0  0  0  0  0  # atno 17370 bound_to 10713
  157.0332  130.5719  149.5346 LP  0  0  0  0  0  0  0  0  0  0  0  0  # atno 17371 bound_to 10713
  140.2880  134.3274  155.7323 LP  0  0  0  0  0  0  0  0  0  0  0  0  # atno 17394 bound_to 11000
  141.2165  133.7517  156.9461 LP  0  0  0  0  0  0  0  0  0  0  0  0  # atno 17395 bound_to 11000

$$$$
