AV-unprocessed.smi:752|AV-procd|sdf|3598|dock4
  -GOLD-   22720 0593D 1   1.00000     0.00000
 Structure written by MMmdl.
 41 42  0  0  0  0  0  0  0  0  1 V2000
  147.4352  128.5039  152.1320 C   0  0  0  0  0  0  0  0  0  0  0  0
  146.3330  129.5684  152.1393 C   0  0  0  0  0  0  0  0  0  0  0  0
  146.8715  130.9503  152.3006 C   0  0  0  0  0  0  0  0  0  0  0  0
  148.1305  131.2127  152.6599 N   0  0  0  0  0  0  0  0  0  0  0  0
  148.3913  132.5846  152.7496 C   0  0  0  0  0  0  0  0  0  0  0  0
  149.7764  133.0664  153.0753 C   0  0  0  0  0  0  0  0  0  0  0  0
  149.7049  134.0110  154.2748 C   0  0  0  0  0  0  0  0  0  0  0  0
  150.1575  133.6620  155.3649 O   0  0  0  0  0  0  0  0  0  0  0  0
  149.0850  135.1832  154.0690 N   0  0  0  0  0  0  0  0  0  0  0  0
  148.6619  136.1001  155.1204 C   0  0  0  0  0  0  0  0  0  0  0  0
  148.9443  137.5683  154.7335 C   0  0  1  0  0  0  0  0  0  0  0  0
  147.7407  138.4743  155.0543 C   0  0  0  0  0  0  0  0  0  0  0  0
  148.0041  139.9280  154.6310 C   0  0  0  0  0  0  0  0  0  0  0  0
  149.2767  140.4844  155.2917 C   0  0  0  0  0  0  0  0  0  0  0  0
  150.5038  139.5895  155.0371 C   0  0  2  0  0  0  0  0  0  0  0  0
  150.9022  139.6777  153.6828 O   0  0  0  0  0  0  0  0  0  0  0  0
  150.2233  138.1213  155.4076 C   0  0  0  0  0  0  0  0  0  0  0  0
  147.2899  133.3610  152.4848 C   0  0  0  0  0  0  0  0  0  0  0  0
  145.8937  132.3977  152.0903 S   0  0  0  0  0  0  0  0  0  0  0  0
  147.0121  127.5066  152.0124 H   0  0  0  0  0  0  0  0  0  0  0  0
  147.9996  128.5166  153.0648 H   0  0  0  0  0  0  0  0  0  0  0  0
  148.1364  128.6691  151.3137 H   0  0  0  0  0  0  0  0  0  0  0  0
  145.7612  129.5192  151.2120 H   0  0  0  0  0  0  0  0  0  0  0  0
  145.6308  129.3716  152.9497 H   0  0  0  0  0  0  0  0  0  0  0  0
  150.4318  132.2270  153.3101 H   0  0  0  0  0  0  0  0  0  0  0  0
  150.2247  133.5862  152.2273 H   0  0  0  0  0  0  0  0  0  0  0  0
  148.7613  135.3855  153.1339 H   0  0  0  0  0  0  0  0  0  0  0  0
  147.6018  135.9565  155.3359 H   0  0  0  0  0  0  0  0  0  0  0  0
  149.2001  135.8435  156.0331 H   0  0  0  0  0  0  0  0  0  0  0  0
  149.0936  137.6001  153.6529 H   0  0  0  0  0  0  0  0  0  0  0  0
  146.8499  138.1044  154.5451 H   0  0  0  0  0  0  0  0  0  0  0  0
  147.5233  138.4380  156.1227 H   0  0  0  0  0  0  0  0  0  0  0  0
  148.1002  139.9804  153.5456 H   0  0  0  0  0  0  0  0  0  0  0  0
  147.1488  140.5509  154.8935 H   0  0  0  0  0  0  0  0  0  0  0  0
  149.4686  141.4996  154.9424 H   0  0  0  0  0  0  0  0  0  0  0  0
  149.1106  140.5599  156.3671 H   0  0  0  0  0  0  0  0  0  0  0  0
  151.3399  139.9529  155.6357 H   0  0  0  0  0  0  0  0  0  0  0  0
  151.4394  138.9277  153.4779 H   0  0  0  0  0  0  0  0  0  0  0  0
  150.1156  138.0438  156.4902 H   0  0  0  0  0  0  0  0  0  0  0  0
  151.0919  137.5161  155.1482 H   0  0  0  0  0  0  0  0  0  0  0  0
  147.2208  134.4389  152.4826 H   0  0  0  0  0  0  0  0  0  0  0  0
  1  2  1  0  0  0  0
  1 20  1  0  0  0  0
  1 21  1  0  0  0  0
  1 22  1  0  0  0  0
  2  3  1  0  0  0  0
  2 23  1  0  0  0  0
  2 24  1  0  0  0  0
  3 19  1  0  0  0  0
  3  4  2  0  0  0  0
  4  5  1  0  0  0  0
  5  6  1  0  0  0  0
  5 18  2  0  0  0  0
  6  7  1  0  0  0  0
  6 25  1  0  0  0  0
  6 26  1  0  0  0  0
  7  8  2  0  0  0  0
  7  9  1  0  0  0  0
  9 10  1  0  0  0  0
  9 27  1  0  0  0  0
 10 11  1  0  0  0  0
 10 28  1  0  0  0  0
 10 29  1  0  0  0  0
 11 17  1  0  0  0  0
 11 12  1  0  0  0  0
 11 30  1  0  0  0  0
 12 13  1  0  0  0  0
 12 31  1  0  0  0  0
 12 32  1  0  0  0  0
 13 14  1  0  0  0  0
 13 33  1  0  0  0  0
 13 34  1  0  0  0  0
 14 15  1  0  0  0  0
 14 35  1  0  0  0  0
 14 36  1  0  0  0  0
 15 16  1  0  0  0  0
 15 17  1  0  0  0  0
 15 37  1  0  0  0  0
 16 38  1  0  0  0  0
 17 39  1  0  0  0  0
 17 40  1  0  0  0  0
 18 19  1  0  0  0  0
 18 41  1  0  0  0  0
M  END
> <s_m_source_file>
AV-unprocessed.smi

> <i_m_source_file_index>
752

> <i_lp_mmshare_version>
43012

> <i_f3d_flags>
0

> <s_epik_input>
W0NIM11bQ0gyXWMxbmMoW2NIXXMxKVtDSDJdQyg9TylbTkhdW0NIMl1bQ0BASF0yW0NIMl1bQ0gyXVtDSDJdW0NAQEhdKFtPSF0pW0NIMl0y

> <s_epik_cmdline>
J2VwaWtfcHl0aG9uJywgJy1waCcsICc3LjAnLCAnLXRuJywgJzgnLCAnLW1hJywgJzIwMCcsICctbWV0YWxfYmluZGluZycsICctaW1hZScsICc8aW5maWxlLm1hZT4nLCAnLW9tYWUnLCAnPG91dGZpbGUubWFlPic=

> <r_lp_tautomer_probability>
1

> <r_epik_Ionization_Penalty>
5.44903e-05

> <r_epik_Ionization_Penalty_Charging>
0

> <r_epik_Ionization_Penalty_Neutral>
5.44903e-05

> <r_epik_State_Penalty>
-0

> <r_epik_Charging_Adjusted_Penalty>
0

> <i_epik_Tot_Q>
0

> <i_epik_Tot_abs_Q>
0

> <r_epik_Metal_State_Penalty>
-0

> <b_epik_Metal_Only>
0

> <s_lp_Force_Field>
OPLS_2005

> <r_lp_Energy>
4.32924

> <b_lp_Chiralities_Consistent>
1

> <s_lp_Variant>
AV-unprocessed.smi:752-4

> <Gold.Version>
5.8.1

> <Gold.Id.Protein>
6NUR|6NUR_protein|mol2

> <Gold.PLP.Fitness>
37.5594

> <Gold.PLP.PLP>
-30.4389

> <Gold.PLP.part.hbond>
-2.8421

> <Gold.PLP.part.metal>
0.0000

> <Gold.PLP.part.buried>
-3.4090

> <Gold.PLP.part.nonpolar>
-25.0742

> <Gold.PLP.part.repulsive>
0.1244

> <Gold.PLP.ligand.clash>
0.0000

> <Gold.PLP.ligand.torsion>
0.9599

> <Gold.PLP.Chemscore.Hbond>
2.0000

> <Gold.PLP.Chemscore.CHOScore>
1.0000

> <Gold.PLP.Chemscore.Metal>
0.0000

> <Gold.Chemscore.Hbonds>
donor molecule, donor type, donor heavy atom, donor atom, acceptor molecule, acceptor atom, score
      L1  H     9    27       P1  7948  0.89
      P1  H  7989  7998       L1    16  0.65
      L1  C    18    41       P1  7948  0.99

> <Gold.PLP.Chemscore.Internal.Correction>
0.0403

> <Gold.Rescore>
     Score         DG    S(hbond)    S(metal)    S(lipo)     H(rot)  DE(clash)    DE(int)     intcor
     15.26     -15.60       1.94        0.00      76.81       2.08       0.02       0.33       ----

> <Gold.Chemscore.Fitness>
15.2558

> <Gold.Chemscore.DG>
-15.6024

> <Gold.Chemscore.ZeroCoef>
-5.4800

> <Gold.Chemscore.Hbond>
1.9372

> <Gold.Chemscore.Metal>
0.0000

> <Gold.Chemscore.Lipo>
76.8135

> <Gold.Chemscore.Internal_Hbond>
0.0000

> <Gold.Chemscore.DEClash>
0.0153

> <Gold.Chemscore.DEInternal>
0.3314

> <Gold.Chemscore.Rot>
2.0840

> <Gold.Chemscore.Internal.Correction>
   9.000000E+99

> <Gold.Chemscore.Hbonds>
donor molecule, donor type, donor heavy atom, donor atom, acceptor molecule, acceptor atom, score
      L1  H     9    27       P1  7948  0.63
      P1  H  7989  7998       L1    16  0.36

> <Gold.Chemscore.Hbond.Weighted>
-6.4702

> <Gold.Chemscore.Metal.Weighted>
-0.0000

> <Gold.Chemscore.Lipo.Weighted>
-8.9872

> <Gold.Chemscore.Internal_Hbond.Weighted>
0.0000

> <Gold.Chemscore.DEClash.Weighted>
0.0153

> <Gold.Chemscore.DEInternal.Weighted>
0.3314

> <Gold.Chemscore.Rot.Weighted>
5.3350

> <Gold.Chemscore.Internal.Correction.Weighted>
   9.000000E+99

> <Gold.Protein.RotatedTorsions>
[ 6907 6896 6895 6894 ] final   36.85 input  -60.11 | X-H torsion
[ 7974 7965 7964 7962 ] final   55.57 input  175.53 | X-H torsion
[ 8008 7997 7996 7995 ] final  138.02 input   59.86 | X-H torsion
[ 10167 10162 10161 10158 ] final -179.83 input  -65.29 | X-H torsion
[ 10718 10713 10712 10709 ] final   60.92 input   66.30 | X-H torsion
[ 10763 10752 10751 10750 ] final -171.61 input  -60.55 | X-H torsion
[ 11005 11000 10999 10996 ] final  -42.50 input  -57.11 | X-H torsion

> <Gold.Protein.ActiveResidues>
 VAL166  LYS551  ARG553  GLY616  TRP617  ASP618  TYR619  PRO620  LYS621  CYS622 
 ASP623  PHE694  ASN695  SER759  ASP760  ASP761  ALA762  ILE779  LEU786  VAL792 
 PHE793  MET794  SER795  GLU796  ALA797  LYS798  CYS799  TRP800  GLU811  SER814 

> <Gold.Protein.RotatedAtoms>
  152.1353  134.9104  160.0556 H   0  0  0  0  0  0  0  0  0  0  0  0  # atno 6907 bound_to 6896
  152.0192  133.3887  159.4259 H   0  0  0  0  0  0  0  0  0  0  0  0  # atno 6908 bound_to 6896
  150.6860  134.3566  159.4976 H   0  0  0  0  0  0  0  0  0  0  0  0  # atno 6909 bound_to 6896
  145.9490  139.3955  143.0317 H   0  0  0  0  0  0  0  0  0  0  0  0  # atno 7974 bound_to 7965
  156.2999  140.2404  156.4006 H   0  0  0  0  0  0  0  0  0  0  0  0  # atno 8008 bound_to 7997
  154.8531  140.0423  157.1637 H   0  0  0  0  0  0  0  0  0  0  0  0  # atno 8009 bound_to 7997
  154.8977  140.2972  155.5338 H   0  0  0  0  0  0  0  0  0  0  0  0  # atno 8010 bound_to 7997
  139.5369  144.2473  152.0813 H   0  0  0  0  0  0  0  0  0  0  0  0  # atno 10167 bound_to 10162
  157.5790  130.8966  149.9397 H   0  0  0  0  0  0  0  0  0  0  0  0  # atno 10718 bound_to 10713
  154.6286  135.2884  155.0243 H   0  0  0  0  0  0  0  0  0  0  0  0  # atno 10763 bound_to 10752
  154.1411  135.6518  153.4946 H   0  0  0  0  0  0  0  0  0  0  0  0  # atno 10764 bound_to 10752
  153.0269  135.5333  154.7105 H   0  0  0  0  0  0  0  0  0  0  0  0  # atno 10765 bound_to 10752
  141.0320  133.6816  156.2603 H   0  0  0  0  0  0  0  0  0  0  0  0  # atno 11005 bound_to 11000
  145.8197  140.9685  143.0905 LP  0  0  0  0  0  0  0  0  0  0  0  0  # atno 17320 bound_to 7965
  144.6792  140.0025  143.7484 LP  0  0  0  0  0  0  0  0  0  0  0  0  # atno 17321 bound_to 7965
  140.1945  144.4719  150.6462 LP  0  0  0  0  0  0  0  0  0  0  0  0  # atno 17342 bound_to 10162
  140.6579  143.2243  151.5924 LP  0  0  0  0  0  0  0  0  0  0  0  0  # atno 17343 bound_to 10162
  156.0835  130.3670  150.0534 LP  0  0  0  0  0  0  0  0  0  0  0  0  # atno 17370 bound_to 10713
  156.8676  130.9513  151.3612 LP  0  0  0  0  0  0  0  0  0  0  0  0  # atno 17371 bound_to 10713
  140.6390  134.5185  157.5567 LP  0  0  0  0  0  0  0  0  0  0  0  0  # atno 17394 bound_to 11000
  139.9214  134.8141  156.1200 LP  0  0  0  0  0  0  0  0  0  0  0  0  # atno 17395 bound_to 11000

$$$$
