AV-unprocessed.smi:86|AV-procd|sdf|812|dock3
  -GOLD-   2262017213D 1   1.00000     0.00000
 Structure written by MMmdl.
 51 55  0  0  0  0  0  0  0  0  1 V2000
  154.7857  134.1841  165.3773 O   0  0  0  0  0  0  0  0  0  0  0  0
  154.3345  134.1179  164.0399 C   0  0  0  0  0  0  0  0  0  0  0  0
  155.5045  134.2299  163.0468 C   0  0  0  0  0  0  0  0  0  0  0  0
  156.2080  135.5944  163.1936 C   0  0  0  0  0  0  0  0  0  0  0  0
  155.4307  136.7135  162.6823 N   0  0  0  0  0  0  0  0  0  0  0  0
  154.2798  136.6441  161.9312 C   0  0  0  0  0  0  0  0  0  0  0  0
  153.7695  137.7950  161.5892 N   0  0  0  0  0  0  0  0  0  0  0  0
  154.6200  138.7348  162.1616 C   0  0  0  0  0  0  0  0  0  0  0  0
  154.6630  140.1603  162.1883 C   0  0  0  0  0  0  0  0  0  0  0  0
  153.7538  140.9639  161.5797 N   0  0  0  0  0  0  0  0  0  0  0  0
  153.3643  142.2624  162.1260 C   0  0  0  0  0  0  0  0  0  0  0  0
  153.0317  143.1014  160.8906 C   0  0  2  0  0  0  0  0  0  0  0  0
  152.0338  144.2575  161.0250 C   0  0  0  0  0  0  0  0  0  0  0  0
  151.8085  144.8909  159.6344 C   0  0  0  0  0  0  0  0  0  0  0  0
  151.3997  143.8449  158.5676 C   0  0  1  0  0  0  0  0  0  0  0  0
  151.3352  144.4644  157.3005 O   0  0  0  0  0  0  0  0  0  0  0  0
  152.3763  142.6480  158.5070 C   0  0  0  0  0  0  0  0  0  0  0  0
  152.5158  142.0539  159.9135 C   0  0  1  0  0  0  0  0  0  0  0  0
  153.5041  140.9126  160.1405 C   0  0  0  0  0  0  0  0  0  0  0  0
  155.6968  140.7389  162.8545 N   0  0  0  0  0  0  0  0  0  0  0  0
  156.6152  139.9872  163.4674 C   0  0  0  0  0  0  0  0  0  0  0  0
  156.6953  138.6579  163.5323 N   0  0  0  0  0  0  0  0  0  0  0  0
  155.6708  138.0666  162.8543 C   0  0  0  0  0  0  0  0  0  0  0  0
  156.4235  133.0000  163.0125 C   0  0  0  0  0  0  0  0  0  0  0  0
  155.8124  132.5059  161.8023 O   0  0  0  0  0  0  0  0  0  0  0  0
  155.1812  133.7902  161.6120 C   0  0  0  0  0  0  0  0  0  0  0  0
  154.0533  134.0138  165.9496 H   0  0  0  0  0  0  0  0  0  0  0  0
  153.7711  133.1956  163.8983 H   0  0  0  0  0  0  0  0  0  0  0  0
  153.6237  134.9310  163.8888 H   0  0  0  0  0  0  0  0  0  0  0  0
  156.4256  135.7988  164.2426 H   0  0  0  0  0  0  0  0  0  0  0  0
  157.1773  135.5866  162.6939 H   0  0  0  0  0  0  0  0  0  0  0  0
  153.8269  135.7084  161.6384 H   0  0  0  0  0  0  0  0  0  0  0  0
  152.4909  142.1344  162.7663 H   0  0  0  0  0  0  0  0  0  0  0  0
  154.1602  142.7277  162.7083 H   0  0  0  0  0  0  0  0  0  0  0  0
  153.9716  143.5032  160.5061 H   0  0  0  0  0  0  0  0  0  0  0  0
  151.0877  143.8937  161.4278 H   0  0  0  0  0  0  0  0  0  0  0  0
  152.4096  145.0049  161.7244 H   0  0  0  0  0  0  0  0  0  0  0  0
  151.0488  145.6700  159.7041 H   0  0  0  0  0  0  0  0  0  0  0  0
  152.7280  145.3879  159.3206 H   0  0  0  0  0  0  0  0  0  0  0  0
  150.4016  143.4738  158.8046 H   0  0  0  0  0  0  0  0  0  0  0  0
  150.4265  144.5615  157.0602 H   0  0  0  0  0  0  0  0  0  0  0  0
  152.0100  141.8916  157.8119 H   0  0  0  0  0  0  0  0  0  0  0  0
  153.3517  142.9713  158.1398 H   0  0  0  0  0  0  0  0  0  0  0  0
  151.5323  141.7136  160.2453 H   0  0  0  0  0  0  0  0  0  0  0  0
  154.4333  141.0841  159.5950 H   0  0  0  0  0  0  0  0  0  0  0  0
  153.0905  139.9508  159.8354 H   0  0  0  0  0  0  0  0  0  0  0  0
  157.3978  140.5286  163.9779 H   0  0  0  0  0  0  0  0  0  0  0  0
  157.4782  133.2330  162.8593 H   0  0  0  0  0  0  0  0  0  0  0  0
  156.2935  132.3226  163.8573 H   0  0  0  0  0  0  0  0  0  0  0  0
  154.1144  133.7064  161.3999 H   0  0  0  0  0  0  0  0  0  0  0  0
  155.6851  134.3784  160.8433 H   0  0  0  0  0  0  0  0  0  0  0  0
  1  2  1  0  0  0  0
  1 27  1  0  0  0  0
  2  3  1  0  0  0  0
  2 28  1  0  0  0  0
  2 29  1  0  0  0  0
  3 26  1  0  0  0  0
  3  4  1  0  0  0  0
  3 24  1  0  0  0  0
  4  5  1  0  0  0  0
  4 30  1  0  0  0  0
  4 31  1  0  0  0  0
  5 23  1  0  0  0  0
  5  6  1  0  0  0  0
  6  7  2  0  0  0  0
  6 32  1  0  0  0  0
  7  8  1  0  0  0  0
  8 23  2  0  0  0  0
  8  9  1  0  0  0  0
  9 10  1  0  0  0  0
  9 20  2  0  0  0  0
 10 19  1  0  0  0  0
 10 11  1  0  0  0  0
 11 12  1  0  0  0  0
 11 33  1  0  0  0  0
 11 34  1  0  0  0  0
 12 18  1  0  0  0  0
 12 13  1  0  0  0  0
 12 35  1  0  0  0  0
 13 14  1  0  0  0  0
 13 36  1  0  0  0  0
 13 37  1  0  0  0  0
 14 15  1  0  0  0  0
 14 38  1  0  0  0  0
 14 39  1  0  0  0  0
 15 16  1  0  0  0  0
 15 17  1  0  0  0  0
 15 40  1  0  0  0  0
 16 41  1  0  0  0  0
 17 18  1  0  0  0  0
 17 42  1  0  0  0  0
 17 43  1  0  0  0  0
 18 19  1  0  0  0  0
 18 44  1  0  0  0  0
 19 45  1  0  0  0  0
 19 46  1  0  0  0  0
 20 21  1  0  0  0  0
 21 22  2  0  0  0  0
 21 47  1  0  0  0  0
 22 23  1  0  0  0  0
 24 25  1  0  0  0  0
 24 48  1  0  0  0  0
 24 49  1  0  0  0  0
 25 26  1  0  0  0  0
 26 50  1  0  0  0  0
 26 51  1  0  0  0  0
M  END
> <s_m_source_file>
AV-unprocessed.smi

> <i_m_source_file_index>
86

> <i_lp_mmshare_version>
43012

> <i_f3d_flags>
0

> <s_epik_input>
W0NIMl0xT1tDSDJdQzEoW0NIMl1bT0hdKVtDSDJdbihbY0hdbjIpYyhjMjMpbltjSF1uYzNOKFtDSDJdNClbQ0gyXVtDQEBIXShbQ0BIXTQ1KVtDSDJdW0NASF0oW09IXSlbQ0gyXVtDSDJdNQ==

> <s_epik_cmdline>
J2VwaWtfcHl0aG9uJywgJy1waCcsICc3LjAnLCAnLXRuJywgJzgnLCAnLW1hJywgJzIwMCcsICctbWV0YWxfYmluZGluZycsICctaW1hZScsICc8aW5maWxlLm1hZT4nLCAnLW9tYWUnLCAnPG91dGZpbGUubWFlPic=

> <r_lp_tautomer_probability>
1

> <r_epik_Ionization_Penalty>
0.00425795

> <r_epik_Ionization_Penalty_Charging>
0

> <r_epik_Ionization_Penalty_Neutral>
0.00425795

> <r_epik_State_Penalty>
0.00299946

> <r_epik_Charging_Adjusted_Penalty>
0.00299946

> <i_epik_Tot_Q>
0

> <i_epik_Tot_abs_Q>
0

> <r_epik_Metal_State_Penalty>
-0

> <b_epik_Metal_Only>
0

> <s_lp_Force_Field>
OPLS_2005

> <r_lp_Energy>
53.7305

> <b_lp_Chiralities_Consistent>
1

> <s_lp_Variant>
AV-unprocessed.smi:86-1

> <Gold.Version>
5.8.1

> <Gold.Id.Protein>
6NUR|6NUR_protein|mol2

> <Gold.PLP.Fitness>
50.4827

> <Gold.PLP.PLP>
-49.2924

> <Gold.PLP.part.hbond>
-3.0000

> <Gold.PLP.part.metal>
0.0000

> <Gold.PLP.part.buried>
-6.3476

> <Gold.PLP.part.nonpolar>
-39.4286

> <Gold.PLP.part.repulsive>
0.0000

> <Gold.PLP.ligand.clash>
0.0000

> <Gold.PLP.ligand.torsion>
1.1544

> <Gold.PLP.Chemscore.Hbond>
1.0000

> <Gold.PLP.Chemscore.CHOScore>
0.0000

> <Gold.PLP.Chemscore.Metal>
0.0000

> <Gold.Chemscore.Hbonds>
donor molecule, donor type, donor heavy atom, donor atom, acceptor molecule, acceptor atom, score
      L1  H    16    41       P1  8028  0.94

> <Gold.PLP.Chemscore.Internal.Correction>
0.4990

> <Gold.Rescore>
     Score         DG    S(hbond)    S(metal)    S(lipo)     H(rot)  DE(clash)    DE(int)     intcor
     12.09     -14.24       0.98        0.00     107.49       2.76       0.37       1.78       ----

> <Gold.Chemscore.Fitness>
12.0913

> <Gold.Chemscore.DG>
-14.2403

> <Gold.Chemscore.ZeroCoef>
-5.4800

> <Gold.Chemscore.Hbond>
0.9752

> <Gold.Chemscore.Metal>
0.0000

> <Gold.Chemscore.Lipo>
107.4915

> <Gold.Chemscore.Internal_Hbond>
0.0000

> <Gold.Chemscore.DEClash>
0.3727

> <Gold.Chemscore.DEInternal>
1.7764

> <Gold.Chemscore.Rot>
2.7630

> <Gold.Chemscore.Internal.Correction>
   9.000000E+99

> <Gold.Chemscore.Hbonds>
donor molecule, donor type, donor heavy atom, donor atom, acceptor molecule, acceptor atom, score
      L1  H    16    41       P1  8028  0.65

> <Gold.Chemscore.Hbond.Weighted>
-3.2572

> <Gold.Chemscore.Metal.Weighted>
-0.0000

> <Gold.Chemscore.Lipo.Weighted>
-12.5765

> <Gold.Chemscore.Internal_Hbond.Weighted>
0.0000

> <Gold.Chemscore.DEClash.Weighted>
0.3727

> <Gold.Chemscore.DEInternal.Weighted>
1.7764

> <Gold.Chemscore.Rot.Weighted>
7.0734

> <Gold.Chemscore.Internal.Correction.Weighted>
   9.000000E+99

> <Gold.Protein.RotatedTorsions>
[ 6907 6896 6895 6894 ] final   70.62 input  -60.11 | X-H torsion
[ 7974 7965 7964 7962 ] final  124.64 input  175.53 | X-H torsion
[ 8008 7997 7996 7995 ] final  -37.93 input   59.86 | X-H torsion
[ 10167 10162 10161 10158 ] final  -47.58 input  -65.29 | X-H torsion
[ 10718 10713 10712 10709 ] final  162.86 input   66.30 | X-H torsion
[ 10763 10752 10751 10750 ] final   -2.71 input  -60.55 | X-H torsion
[ 11005 11000 10999 10996 ] final  159.54 input  -57.11 | X-H torsion

> <Gold.Protein.ActiveResidues>
 VAL166  LYS551  ARG553  GLY616  TRP617  ASP618  TYR619  PRO620  LYS621  CYS622 
 ASP623  PHE694  ASN695  SER759  ASP760  ASP761  ALA762  ILE779  LEU786  VAL792 
 PHE793  MET794  SER795  GLU796  ALA797  LYS798  CYS799  TRP800  GLU811  SER814 

> <Gold.Protein.RotatedAtoms>
  152.4760  134.4841  159.9674 H   0  0  0  0  0  0  0  0  0  0  0  0  # atno 6907 bound_to 6896
  151.4857  133.3530  159.2853 H   0  0  0  0  0  0  0  0  0  0  0  0  # atno 6908 bound_to 6896
  150.8800  134.8216  159.7279 H   0  0  0  0  0  0  0  0  0  0  0  0  # atno 6909 bound_to 6896
  145.0821  139.3649  143.4904 H   0  0  0  0  0  0  0  0  0  0  0  0  # atno 7974 bound_to 7965
  154.4045  140.1591  156.2617 H   0  0  0  0  0  0  0  0  0  0  0  0  # atno 8008 bound_to 7997
  155.9031  140.3432  155.6019 H   0  0  0  0  0  0  0  0  0  0  0  0  # atno 8009 bound_to 7997
  155.7424  140.0794  157.2230 H   0  0  0  0  0  0  0  0  0  0  0  0  # atno 8010 bound_to 7997
  140.6769  143.2778  151.3947 H   0  0  0  0  0  0  0  0  0  0  0  0  # atno 10167 bound_to 10162
  157.1166  131.0481  151.2433 H   0  0  0  0  0  0  0  0  0  0  0  0  # atno 10718 bound_to 10713
  153.3617  135.6990  153.6707 H   0  0  0  0  0  0  0  0  0  0  0  0  # atno 10763 bound_to 10752
  153.5393  135.3576  155.2711 H   0  0  0  0  0  0  0  0  0  0  0  0  # atno 10764 bound_to 10752
  154.8669  135.4199  154.2876 H   0  0  0  0  0  0  0  0  0  0  0  0  # atno 10765 bound_to 10752
  140.1971  134.8365  157.2977 H   0  0  0  0  0  0  0  0  0  0  0  0  # atno 11005 bound_to 11000
  146.3531  140.0616  142.8629 LP  0  0  0  0  0  0  0  0  0  0  0  0  # atno 17320 bound_to 7965
  145.1165  140.9437  143.4625 LP  0  0  0  0  0  0  0  0  0  0  0  0  # atno 17321 bound_to 7965
  139.6066  144.1184  152.2256 LP  0  0  0  0  0  0  0  0  0  0  0  0  # atno 17342 bound_to 10162
  140.0585  144.5876  150.7281 LP  0  0  0  0  0  0  0  0  0  0  0  0  # atno 17343 bound_to 10162
  157.4513  130.7600  149.7153 LP  0  0  0  0  0  0  0  0  0  0  0  0  # atno 17370 bound_to 10713
  155.9838  130.3997  150.3345 LP  0  0  0  0  0  0  0  0  0  0  0  0  # atno 17371 bound_to 10713
  140.2095  134.4156  155.7620 LP  0  0  0  0  0  0  0  0  0  0  0  0  # atno 17394 bound_to 11000
  141.2227  133.7111  156.8314 LP  0  0  0  0  0  0  0  0  0  0  0  0  # atno 17395 bound_to 11000

$$$$
