AV-unprocessed.smi:1578|AV-procd|sdf|6351|dock1
  -GOLD-   22720 6573D 1   1.00000     0.00000
 Structure written by MMmdl.
 44 45  0  0  0  0  0  0  0  0  1 V2000
  151.3231  138.7750  156.5978 C   0  0  0  0  0  0  0  0  0  0  0  0
  150.7722  138.8722  158.0263 C   0  0  1  0  0  0  0  0  0  0  0  0
  150.4637  140.3359  158.4155 C   0  0  0  0  0  0  0  0  0  0  0  0
  151.6360  141.1813  158.6502 N   0  0  0  0  0  0  0  0  0  0  0  0
  151.2897  142.5664  158.9557 C   0  0  0  0  0  0  0  0  0  0  0  0
  152.5463  143.4294  159.1603 C   0  0  0  0  0  0  0  0  0  0  0  0
  153.3453  142.8685  160.1973 O   0  0  0  0  0  0  0  0  0  0  0  0
  153.7320  141.5242  159.9290 C   0  0  0  0  0  0  0  0  0  0  0  0
  152.4783  140.6566  159.7177 C   0  0  0  0  0  0  0  0  0  0  0  0
  149.5545  138.0704  158.1321 N   0  0  0  0  0  0  0  0  0  0  0  0
  149.2678  137.2143  159.1253 C   0  0  0  0  0  0  0  0  0  0  0  0
  150.0726  136.8832  159.9961 O   0  0  0  0  0  0  0  0  0  0  0  0
  147.8404  136.6575  159.1508 C   0  0  0  0  0  0  0  0  0  0  0  0
  147.6422  135.7485  160.2920 N   0  0  0  0  0  0  0  0  0  0  0  0
  147.5917  134.3678  160.0173 C   0  0  0  0  0  0  0  0  0  0  0  0
  147.4557  133.4338  160.9783 C   0  0  0  0  0  0  0  0  0  0  0  0
  147.3543  131.9534  160.6453 C   0  0  0  0  0  0  0  0  0  0  0  0
  146.1769  131.4778  161.0485 F   0  0  0  0  0  0  0  0  0  0  0  0
  147.4584  131.7472  159.3322 F   0  0  0  0  0  0  0  0  0  0  0  0
  148.3137  131.2566  161.2556 F   0  0  0  0  0  0  0  0  0  0  0  0
  147.3284  133.9205  162.3380 C   0  0  0  0  0  0  0  0  0  0  0  0
  147.3652  135.2379  162.6176 C   0  0  0  0  0  0  0  0  0  0  0  0
  147.5323  136.2404  161.5635 C   0  0  0  0  0  0  0  0  0  0  0  0
  147.5723  137.4467  161.8083 O   0  0  0  0  0  0  0  0  0  0  0  0
  152.2420  139.3526  156.4936 H   0  0  0  0  0  0  0  0  0  0  0  0
  150.6070  139.1541  155.8679 H   0  0  0  0  0  0  0  0  0  0  0  0
  151.5523  137.7418  156.3350 H   0  0  0  0  0  0  0  0  0  0  0  0
  151.5436  138.4797  158.6900 H   0  0  0  0  0  0  0  0  0  0  0  0
  149.8291  140.7924  157.6546 H   0  0  0  0  0  0  0  0  0  0  0  0
  149.8637  140.3138  159.3264 H   0  0  0  0  0  0  0  0  0  0  0  0
  150.6960  142.9991  158.1522 H   0  0  0  0  0  0  0  0  0  0  0  0
  150.6718  142.6047  159.8541 H   0  0  0  0  0  0  0  0  0  0  0  0
  153.1251  143.4913  158.2370 H   0  0  0  0  0  0  0  0  0  0  0  0
  152.2679  144.4470  159.4340 H   0  0  0  0  0  0  0  0  0  0  0  0
  154.3757  141.4950  159.0484 H   0  0  0  0  0  0  0  0  0  0  0  0
  154.3180  141.1468  160.7669 H   0  0  0  0  0  0  0  0  0  0  0  0
  151.9098  140.6057  160.6477 H   0  0  0  0  0  0  0  0  0  0  0  0
  152.7840  139.6368  159.4814 H   0  0  0  0  0  0  0  0  0  0  0  0
  148.8280  138.2657  157.4585 H   0  0  0  0  0  0  0  0  0  0  0  0
  147.1136  137.4716  159.1868 H   0  0  0  0  0  0  0  0  0  0  0  0
  147.6550  136.1469  158.2051 H   0  0  0  0  0  0  0  0  0  0  0  0
  147.6773  134.1137  158.9707 H   0  0  0  0  0  0  0  0  0  0  0  0
  147.2077  133.2167  163.1483 H   0  0  0  0  0  0  0  0  0  0  0  0
  147.2717  135.5650  163.6428 H   0  0  0  0  0  0  0  0  0  0  0  0
  1  2  1  0  0  0  0
  1 25  1  0  0  0  0
  1 26  1  0  0  0  0
  1 27  1  0  0  0  0
  2  3  1  0  0  0  0
  2 10  1  0  0  0  0
  2 28  1  0  0  0  0
  3  4  1  0  0  0  0
  3 29  1  0  0  0  0
  3 30  1  0  0  0  0
  4  9  1  0  0  0  0
  4  5  1  0  0  0  0
  5  6  1  0  0  0  0
  5 31  1  0  0  0  0
  5 32  1  0  0  0  0
  6  7  1  0  0  0  0
  6 33  1  0  0  0  0
  6 34  1  0  0  0  0
  7  8  1  0  0  0  0
  8  9  1  0  0  0  0
  8 35  1  0  0  0  0
  8 36  1  0  0  0  0
  9 37  1  0  0  0  0
  9 38  1  0  0  0  0
 10 11  1  0  0  0  0
 10 39  1  0  0  0  0
 11 12  2  0  0  0  0
 11 13  1  0  0  0  0
 13 14  1  0  0  0  0
 13 40  1  0  0  0  0
 13 41  1  0  0  0  0
 14 23  1  0  0  0  0
 14 15  1  0  0  0  0
 15 16  2  0  0  0  0
 15 42  1  0  0  0  0
 16 17  1  0  0  0  0
 16 21  1  0  0  0  0
 17 18  1  0  0  0  0
 17 19  1  0  0  0  0
 17 20  1  0  0  0  0
 21 22  2  0  0  0  0
 21 43  1  0  0  0  0
 22 23  1  0  0  0  0
 22 44  1  0  0  0  0
 23 24  2  0  0  0  0
M  END
> <s_m_source_file>
AV-unprocessed.smi

> <i_m_source_file_index>
1578

> <i_lp_mmshare_version>
43012

> <i_f3d_flags>
0

> <s_epik_input>
W0NIMl0xW0NIMl1PW0NIMl1bQ0gyXU4xW0NIMl1bQ0BASF0oW0NIM10pW05IXUMoPU8pW0NIMl1uMltjSF1jKEMoRikoRilGKVtjSF1bY0hdYzI9Tw==

> <s_epik_cmdline>
J2VwaWtfcHl0aG9uJywgJy1waCcsICc3LjAnLCAnLXRuJywgJzgnLCAnLW1hJywgJzIwMCcsICctbWV0YWxfYmluZGluZycsICctaW1hZScsICc8aW5maWxlLm1hZT4nLCAnLW9tYWUnLCAnPG91dGZpbGUubWFlPic=

> <r_lp_tautomer_probability>
1

> <r_epik_Ionization_Penalty>
0.237382

> <r_epik_Ionization_Penalty_Charging>
1.80451e-08

> <r_epik_Ionization_Penalty_Neutral>
0.237382

> <r_epik_State_Penalty>
0.228245

> <r_epik_Charging_Adjusted_Penalty>
0.228245

> <i_epik_Tot_Q>
0

> <i_epik_Tot_abs_Q>
0

> <r_epik_Metal_State_Penalty>
0.228219

> <b_epik_Metal_Only>
0

> <s_lp_Force_Field>
OPLS_2005

> <r_lp_Energy>
36.9554

> <b_lp_Chiralities_Consistent>
1

> <s_lp_Variant>
AV-unprocessed.smi:1578-2

> <Gold.Version>
5.8.1

> <Gold.Id.Protein>
6NUR|6NUR_protein|mol2

> <Gold.PLP.Fitness>
49.5797

> <Gold.PLP.PLP>
-43.8484

> <Gold.PLP.part.hbond>
-3.7323

> <Gold.PLP.part.metal>
0.0000

> <Gold.PLP.part.buried>
-4.0232

> <Gold.PLP.part.nonpolar>
-36.0994

> <Gold.PLP.part.repulsive>
0.0998

> <Gold.PLP.ligand.clash>
1.3761

> <Gold.PLP.ligand.torsion>
0.4539

> <Gold.PLP.Chemscore.Hbond>
2.5520

> <Gold.PLP.Chemscore.CHOScore>
0.0000

> <Gold.PLP.Chemscore.Metal>
0.0000

> <Gold.Chemscore.Hbonds>
donor molecule, donor type, donor heavy atom, donor atom, acceptor molecule, acceptor atom, score
      P1  H  6896  6908       L1    12  0.86
      P1  H  6931  6943       L1    24  0.83
      P1  H  6934  6947       L1    24  0.66

> <Gold.PLP.Chemscore.Internal.Correction>
0.3592

> <Gold.Rescore>
     Score         DG    S(hbond)    S(metal)    S(lipo)     H(rot)  DE(clash)    DE(int)     intcor
     18.46     -19.11       2.74        0.00      83.94       2.09       0.01       0.64       ----

> <Gold.Chemscore.Fitness>
18.4631

> <Gold.Chemscore.DG>
-19.1091

> <Gold.Chemscore.ZeroCoef>
-5.4800

> <Gold.Chemscore.Hbond>
2.7440

> <Gold.Chemscore.Metal>
0.0000

> <Gold.Chemscore.Lipo>
83.9372

> <Gold.Chemscore.Internal_Hbond>
0.0000

> <Gold.Chemscore.DEClash>
0.0096

> <Gold.Chemscore.DEInternal>
0.6363

> <Gold.Chemscore.Rot>
2.0924

> <Gold.Chemscore.Internal.Correction>
   9.000000E+99

> <Gold.Chemscore.Hbonds>
donor molecule, donor type, donor heavy atom, donor atom, acceptor molecule, acceptor atom, score
      P1  H  6896  6908       L1    12  0.82
      P1  H  6931  6943       L1    24  0.82
      P1  H  6934  6947       L1    24  0.66

> <Gold.Chemscore.Hbond.Weighted>
-9.1650

> <Gold.Chemscore.Metal.Weighted>
-0.0000

> <Gold.Chemscore.Lipo.Weighted>
-9.8206

> <Gold.Chemscore.Internal_Hbond.Weighted>
0.0000

> <Gold.Chemscore.DEClash.Weighted>
0.0096

> <Gold.Chemscore.DEInternal.Weighted>
0.6363

> <Gold.Chemscore.Rot.Weighted>
5.3566

> <Gold.Chemscore.Internal.Correction.Weighted>
   9.000000E+99

> <Gold.Protein.RotatedTorsions>
[ 6907 6896 6895 6894 ] final -152.15 input  -60.11 | X-H torsion
[ 7974 7965 7964 7962 ] final  -99.81 input  175.53 | X-H torsion
[ 8008 7997 7996 7995 ] final  177.33 input   59.86 | X-H torsion
[ 10167 10162 10161 10158 ] final   50.82 input  -65.29 | X-H torsion
[ 10718 10713 10712 10709 ] final  -10.02 input   66.30 | X-H torsion
[ 10763 10752 10751 10750 ] final -176.16 input  -60.55 | X-H torsion
[ 11005 11000 10999 10996 ] final   91.42 input  -57.11 | X-H torsion

> <Gold.Protein.ActiveResidues>
 VAL166  LYS551  ARG553  GLY616  TRP617  ASP618  TYR619  PRO620  LYS621  CYS622 
 ASP623  PHE694  ASN695  SER759  ASP760  ASP761  ALA762  ILE779  LEU786  VAL792 
 PHE793  MET794  SER795  GLU796  ALA797  LYS798  CYS799  TRP800  GLU811  SER814 

> <Gold.Protein.RotatedAtoms>
  151.2235  133.4489  159.2601 H   0  0  0  0  0  0  0  0  0  0  0  0  # atno 6907 bound_to 6896
  151.0862  134.9888  159.8390 H   0  0  0  0  0  0  0  0  0  0  0  0  # atno 6908 bound_to 6896
  152.5430  134.2172  159.8826 H   0  0  0  0  0  0  0  0  0  0  0  0  # atno 6909 bound_to 6896
  145.3027  140.9381  143.2814 H   0  0  0  0  0  0  0  0  0  0  0  0  # atno 7974 bound_to 7965
  156.0668  140.1361  156.9876 H   0  0  0  0  0  0  0  0  0  0  0  0  # atno 8008 bound_to 7997
  154.4510  140.0980  156.6670 H   0  0  0  0  0  0  0  0  0  0  0  0  # atno 8009 bound_to 7997
  155.5291  140.3458  155.4425 H   0  0  0  0  0  0  0  0  0  0  0  0  # atno 8010 bound_to 7997
  140.2684  144.3293  150.6297 H   0  0  0  0  0  0  0  0  0  0  0  0  # atno 10167 bound_to 10162
  156.6796  130.5033  149.5975 H   0  0  0  0  0  0  0  0  0  0  0  0  # atno 10718 bound_to 10713
  154.5757  135.2832  155.0783 H   0  0  0  0  0  0  0  0  0  0  0  0  # atno 10763 bound_to 10752
  154.2138  135.6403  153.5127 H   0  0  0  0  0  0  0  0  0  0  0  0  # atno 10764 bound_to 10752
  153.0072  135.5498  154.6395 H   0  0  0  0  0  0  0  0  0  0  0  0  # atno 10765 bound_to 10752
  139.8839  134.8673  156.3425 H   0  0  0  0  0  0  0  0  0  0  0  0  # atno 11005 bound_to 11000
  144.9080  139.4565  143.6601 LP  0  0  0  0  0  0  0  0  0  0  0  0  # atno 17320 bound_to 7965
  146.3146  139.7872  142.8993 LP  0  0  0  0  0  0  0  0  0  0  0  0  # atno 17321 bound_to 7965
  140.5909  143.2168  151.7254 LP  0  0  0  0  0  0  0  0  0  0  0  0  # atno 17342 bound_to 10162
  139.4996  144.3940  152.0250 LP  0  0  0  0  0  0  0  0  0  0  0  0  # atno 17343 bound_to 10162
  156.1877  130.6540  151.1025 LP  0  0  0  0  0  0  0  0  0  0  0  0  # atno 17370 bound_to 10713
  157.7048  131.0761  150.6702 LP  0  0  0  0  0  0  0  0  0  0  0  0  # atno 17371 bound_to 10713
  140.9649  133.7365  156.0452 LP  0  0  0  0  0  0  0  0  0  0  0  0  # atno 17394 bound_to 11000
  140.7944  134.3581  157.5456 LP  0  0  0  0  0  0  0  0  0  0  0  0  # atno 17395 bound_to 11000

$$$$
