AV-unprocessed.smi:1429|AV-procd|sdf|5818|dock10
  -GOLD-   22720 5473D 1   1.00000     0.00000
 Structure written by MMmdl.
 30 31  0  0  0  0  0  0  0  0  1 V2000
  146.4614  129.2031  152.6935 C   0  0  0  0  0  0  0  0  0  0  0  0
  146.8112  130.6502  152.7666 C   0  0  0  0  0  0  0  0  0  0  0  0
  145.9997  131.6129  152.3127 N   0  0  0  0  0  0  0  0  0  0  0  0
  146.5379  132.8802  152.4868 N   0  0  0  0  0  0  0  0  0  0  0  0
  147.7449  132.8353  153.0670 C   0  0  0  0  0  0  0  0  0  0  0  0
  148.5217  133.9870  153.3621 N   0  0  0  0  0  0  0  0  0  0  0  0
  149.2720  134.2287  154.4515 C   0  0  0  0  0  0  0  0  0  0  0  0
  149.4140  133.4609  155.4036 O   0  0  0  0  0  0  0  0  0  0  0  0
  149.8599  135.4315  154.3796 N   0  0  0  0  0  0  0  0  0  0  0  0
  150.7361  135.9958  155.4010 C   0  0  0  0  0  0  0  0  0  0  0  0
  151.4067  137.3014  154.9328 C   0  0  2  0  0  0  0  0  0  0  0  0
  152.1908  138.0343  156.0039 C   0  0  0  0  0  0  0  0  0  0  0  0
  152.2934  139.4334  155.4067 C   0  0  0  0  0  0  0  0  0  0  0  0
  151.0834  139.6286  154.6817 O   0  0  0  0  0  0  0  0  0  0  0  0
  150.4192  138.3818  154.4907 C   0  0  0  0  0  0  0  0  0  0  0  0
  148.3276  131.2243  153.4502 S   0  0  0  0  0  0  0  0  0  0  0  0
  145.3881  129.0647  152.8278 H   0  0  0  0  0  0  0  0  0  0  0  0
  146.9835  128.6482  153.4732 H   0  0  0  0  0  0  0  0  0  0  0  0
  146.7493  128.7995  151.7229 H   0  0  0  0  0  0  0  0  0  0  0  0
  148.5031  134.7126  152.6608 H   0  0  0  0  0  0  0  0  0  0  0  0
  149.6901  135.9986  153.5616 H   0  0  0  0  0  0  0  0  0  0  0  0
  150.1720  136.1697  156.3188 H   0  0  0  0  0  0  0  0  0  0  0  0
  151.4940  135.2503  155.6438 H   0  0  0  0  0  0  0  0  0  0  0  0
  152.0769  137.0904  154.0975 H   0  0  0  0  0  0  0  0  0  0  0  0
  151.6270  138.0652  156.9375 H   0  0  0  0  0  0  0  0  0  0  0  0
  153.1651  137.5882  156.2058 H   0  0  0  0  0  0  0  0  0  0  0  0
  152.4347  140.2038  156.1651 H   0  0  0  0  0  0  0  0  0  0  0  0
  153.1295  139.4872  154.7086 H   0  0  0  0  0  0  0  0  0  0  0  0
  150.1041  138.2551  153.4547 H   0  0  0  0  0  0  0  0  0  0  0  0
  149.5258  138.3728  155.1168 H   0  0  0  0  0  0  0  0  0  0  0  0
  1  2  1  0  0  0  0
  1 17  1  0  0  0  0
  1 18  1  0  0  0  0
  1 19  1  0  0  0  0
  2 16  1  0  0  0  0
  2  3  2  0  0  0  0
  3  4  1  0  0  0  0
  4  5  2  0  0  0  0
  5  6  1  0  0  0  0
  5 16  1  0  0  0  0
  6  7  1  0  0  0  0
  6 20  1  0  0  0  0
  7  8  2  0  0  0  0
  7  9  1  0  0  0  0
  9 10  1  0  0  0  0
  9 21  1  0  0  0  0
 10 11  1  0  0  0  0
 10 22  1  0  0  0  0
 10 23  1  0  0  0  0
 11 15  1  0  0  0  0
 11 12  1  0  0  0  0
 11 24  1  0  0  0  0
 12 13  1  0  0  0  0
 12 25  1  0  0  0  0
 12 26  1  0  0  0  0
 13 14  1  0  0  0  0
 13 27  1  0  0  0  0
 13 28  1  0  0  0  0
 14 15  1  0  0  0  0
 15 29  1  0  0  0  0
 15 30  1  0  0  0  0
M  END
> <s_m_source_file>
AV-unprocessed.smi

> <i_m_source_file_index>
1429

> <i_lp_mmshare_version>
43012

> <i_f3d_flags>
0

> <s_epik_input>
W0NIM11jMW5uYyhzMSlbTkhdQyg9TylbTkhdW0NIMl1bQ0BASF0yW0NIMl1bQ0gyXU9bQ0gyXTI=

> <s_epik_cmdline>
J2VwaWtfcHl0aG9uJywgJy1waCcsICc3LjAnLCAnLXRuJywgJzgnLCAnLW1hJywgJzIwMCcsICctbWV0YWxfYmluZGluZycsICctaW1hZScsICc8aW5maWxlLm1hZT4nLCAnLW9tYWUnLCAnPG91dGZpbGUubWFlPic=

> <r_lp_tautomer_probability>
1

> <r_epik_Ionization_Penalty>
0.000468089

> <r_epik_Ionization_Penalty_Charging>
0

> <r_epik_Ionization_Penalty_Neutral>
0.000468089

> <r_epik_State_Penalty>
-0

> <r_epik_Charging_Adjusted_Penalty>
0

> <i_epik_Tot_Q>
0

> <i_epik_Tot_abs_Q>
0

> <r_epik_Metal_State_Penalty>
0.211262

> <b_epik_Metal_Only>
0

> <s_lp_Force_Field>
OPLS_2005

> <r_lp_Energy>
16.548

> <b_lp_Chiralities_Consistent>
1

> <s_lp_Variant>
AV-unprocessed.smi:1429-1

> <Gold.Version>
5.8.1

> <Gold.Id.Protein>
6NUR|6NUR_protein|mol2

> <Gold.PLP.Fitness>
34.3324

> <Gold.PLP.PLP>
-26.0364

> <Gold.PLP.part.hbond>
-3.2991

> <Gold.PLP.part.metal>
0.0000

> <Gold.PLP.part.buried>
-2.7996

> <Gold.PLP.part.nonpolar>
-20.6674

> <Gold.PLP.part.repulsive>
0.4276

> <Gold.PLP.ligand.clash>
0.0000

> <Gold.PLP.ligand.torsion>
0.3541

> <Gold.PLP.Chemscore.Hbond>
3.0000

> <Gold.PLP.Chemscore.CHOScore>
0.0000

> <Gold.PLP.Chemscore.Metal>
0.0000

> <Gold.Chemscore.Hbonds>
donor molecule, donor type, donor heavy atom, donor atom, acceptor molecule, acceptor atom, score
      L1  H     6    20       P1  7948  0.95
      L1  H     9    21       P1  7948  0.95
      P1  H  7989  7998       L1    14  1.00

> <Gold.PLP.Chemscore.Internal.Correction>
0.0042

> <Gold.Rescore>
     Score         DG    S(hbond)    S(metal)    S(lipo)     H(rot)  DE(clash)    DE(int)     intcor
     14.60     -15.06       2.13        0.00      49.79       1.31       0.03       0.42       ----

> <Gold.Chemscore.Fitness>
14.6028

> <Gold.Chemscore.DG>
-15.0561

> <Gold.Chemscore.ZeroCoef>
-5.4800

> <Gold.Chemscore.Hbond>
2.1289

> <Gold.Chemscore.Metal>
0.0000

> <Gold.Chemscore.Lipo>
49.7910

> <Gold.Chemscore.Internal_Hbond>
0.0000

> <Gold.Chemscore.DEClash>
0.0323

> <Gold.Chemscore.DEInternal>
0.4210

> <Gold.Chemscore.Rot>
1.3125

> <Gold.Chemscore.Internal.Correction>
   9.000000E+99

> <Gold.Chemscore.Hbonds>
donor molecule, donor type, donor heavy atom, donor atom, acceptor molecule, acceptor atom, score
      L1  H     6    20       P1  7948  0.21
      L1  H     9    21       P1  7948  0.21
      P1  H  7989  7998       L1    14  0.26

> <Gold.Chemscore.Hbond.Weighted>
-7.1106

> <Gold.Chemscore.Metal.Weighted>
-0.0000

> <Gold.Chemscore.Lipo.Weighted>
-5.8255

> <Gold.Chemscore.Internal_Hbond.Weighted>
0.0000

> <Gold.Chemscore.DEClash.Weighted>
0.0323

> <Gold.Chemscore.DEInternal.Weighted>
0.4210

> <Gold.Chemscore.Rot.Weighted>
3.3600

> <Gold.Chemscore.Internal.Correction.Weighted>
   9.000000E+99

> <Gold.Protein.RotatedTorsions>
[ 6907 6896 6895 6894 ] final  113.37 input  -60.11 | X-H torsion
[ 7974 7965 7964 7962 ] final  -74.08 input  175.53 | X-H torsion
[ 8008 7997 7996 7995 ] final   67.93 input   59.86 | X-H torsion
[ 10167 10162 10161 10158 ] final -151.63 input  -65.29 | X-H torsion
[ 10718 10713 10712 10709 ] final  161.32 input   66.30 | X-H torsion
[ 10763 10752 10751 10750 ] final -109.55 input  -60.55 | X-H torsion
[ 11005 11000 10999 10996 ] final   37.28 input  -57.11 | X-H torsion

> <Gold.Protein.ActiveResidues>
 VAL166  LYS551  ARG553  GLY616  TRP617  ASP618  TYR619  PRO620  LYS621  CYS622 
 ASP623  PHE694  ASN695  SER759  ASP760  ASP761  ALA762  ILE779  LEU786  VAL792 
 PHE793  MET794  SER795  GLU796  ALA797  LYS798  CYS799  TRP800  GLU811  SER814 

> <Gold.Protein.RotatedAtoms>
  152.4864  133.8385  159.7139 H   0  0  0  0  0  0  0  0  0  0  0  0  # atno 6907 bound_to 6896
  150.8955  133.7178  159.2899 H   0  0  0  0  0  0  0  0  0  0  0  0  # atno 6908 bound_to 6896
  151.4636  135.1044  159.9784 H   0  0  0  0  0  0  0  0  0  0  0  0  # atno 6909 bound_to 6896
  145.6438  140.9303  143.1021 H   0  0  0  0  0  0  0  0  0  0  0  0  # atno 7974 bound_to 7965
  155.7005  140.3495  155.4931 H   0  0  0  0  0  0  0  0  0  0  0  0  # atno 8008 bound_to 7997
  155.9445  140.1107  157.1051 H   0  0  0  0  0  0  0  0  0  0  0  0  # atno 8009 bound_to 7997
  154.4109  140.1206  156.4957 H   0  0  0  0  0  0  0  0  0  0  0  0  # atno 8010 bound_to 7997
  139.7251  143.8896  152.2516 H   0  0  0  0  0  0  0  0  0  0  0  0  # atno 10167 bound_to 10162
  157.1381  131.0533  151.2339 H   0  0  0  0  0  0  0  0  0  0  0  0  # atno 10718 bound_to 10713
  154.8199  135.4597  154.0749 H   0  0  0  0  0  0  0  0  0  0  0  0  # atno 10763 bound_to 10752
  153.2111  135.6882  153.8119 H   0  0  0  0  0  0  0  0  0  0  0  0  # atno 10764 bound_to 10752
  153.7569  135.3290  155.3307 H   0  0  0  0  0  0  0  0  0  0  0  0  # atno 10765 bound_to 10752
  140.2242  134.3605  155.7992 H   0  0  0  0  0  0  0  0  0  0  0  0  # atno 11005 bound_to 11000
  144.7147  139.8239  143.7402 LP  0  0  0  0  0  0  0  0  0  0  0  0  # atno 17320 bound_to 7965
  146.1259  139.4285  143.0199 LP  0  0  0  0  0  0  0  0  0  0  0  0  # atno 17321 bound_to 7965
  139.8803  144.7021  150.8885 LP  0  0  0  0  0  0  0  0  0  0  0  0  # atno 17342 bound_to 10162
  140.7761  143.3666  151.1727 LP  0  0  0  0  0  0  0  0  0  0  0  0  # atno 17343 bound_to 10162
  157.4332  130.7502  149.7007 LP  0  0  0  0  0  0  0  0  0  0  0  0  # atno 17370 bound_to 10713
  155.9794  130.4040  150.3590 LP  0  0  0  0  0  0  0  0  0  0  0  0  # atno 17371 bound_to 10713
  141.2221  133.7210  156.8625 LP  0  0  0  0  0  0  0  0  0  0  0  0  # atno 17394 bound_to 11000
  140.1818  134.9028  157.2957 LP  0  0  0  0  0  0  0  0  0  0  0  0  # atno 17395 bound_to 11000

$$$$
