AV-unprocessed.smi:3140|AV-procd|sdf|11959|dock1
  -GOLD-   2272017353D 1   1.00000     0.00000
 Structure written by MMmdl.
 38 39  0  0  0  0  0  0  0  0  2 V2000
  144.2880  136.5365  152.6463 C   0  0  0  0  0  0  0  0  0  0  0  0
  145.5712  136.2507  151.8546 C   0  0  1  0  0  0  0  0  0  0  0  0
  145.2470  135.5099  150.5388 C   0  0  0  0  0  0  0  0  0  0  0  0
  145.2011  134.0672  150.6968 N   0  0  0  0  0  0  0  0  0  0  0  0
  144.1092  133.2289  150.6122 C   0  0  0  0  0  0  0  0  0  0  0  0
  144.5528  131.9603  150.8549 C   0  0  0  0  0  0  0  0  0  0  0  0
  145.9489  132.1251  151.0751 C   0  0  0  0  0  0  0  0  0  0  0  0
  146.3340  133.3878  150.9795 N   0  0  0  0  0  0  0  0  0  0  0  0
  146.2812  137.5238  151.5931 N   0  3  0  0  0  0  0  0  0  0  0  0
  146.3716  138.4348  152.7529 C   0  0  0  0  0  0  0  0  0  0  0  0
  147.4390  139.5148  152.5217 C   0  0  0  0  0  0  0  0  0  0  0  0
  147.6109  140.3585  153.7008 N   0  0  0  0  0  0  0  0  0  0  0  0
  146.4989  141.1224  154.2409 C   0  0  0  0  0  0  0  0  0  0  0  0
  147.0201  141.6989  155.5655 C   0  0  0  0  0  0  0  0  0  0  0  0
  148.5424  141.5265  155.5237 C   0  0  0  0  0  0  0  0  0  0  0  0
  148.7545  140.5683  154.3641 C   0  0  0  0  0  0  0  0  0  0  0  0
  149.8474  140.0692  154.0996 O   0  0  0  0  0  0  0  0  0  0  0  0
  143.7602  135.6127  152.8849 H   0  0  0  0  0  0  0  0  0  0  0  0
  143.6048  137.1734  152.0834 H   0  0  0  0  0  0  0  0  0  0  0  0
  144.5111  137.0382  153.5886 H   0  0  0  0  0  0  0  0  0  0  0  0
  146.1998  135.6115  152.4771 H   0  0  0  0  0  0  0  0  0  0  0  0
  144.2769  135.8336  150.1593 H   0  0  0  0  0  0  0  0  0  0  0  0
  145.9780  135.7592  149.7674 H   0  0  0  0  0  0  0  0  0  0  0  0
  143.1185  133.6005  150.3946 H   0  0  0  0  0  0  0  0  0  0  0  0
  143.9691  131.0517  150.8730 H   0  0  0  0  0  0  0  0  0  0  0  0
  146.6879  131.3710  151.3036 H   0  0  0  0  0  0  0  0  0  0  0  0
  147.2145  137.3041  151.2742 H   0  0  0  0  0  0  0  0  0  0  0  0
  145.3969  138.8953  152.9208 H   0  0  0  0  0  0  0  0  0  0  0  0
  146.6096  137.8646  153.6503 H   0  0  0  0  0  0  0  0  0  0  0  0
  148.3952  139.0506  152.2735 H   0  0  0  0  0  0  0  0  0  0  0  0
  147.1655  140.1352  151.6670 H   0  0  0  0  0  0  0  0  0  0  0  0
  146.2382  141.9198  153.5437 H   0  0  0  0  0  0  0  0  0  0  0  0
  145.6188  140.4957  154.3903 H   0  0  0  0  0  0  0  0  0  0  0  0
  146.7298  142.7423  155.6943 H   0  0  0  0  0  0  0  0  0  0  0  0
  146.6082  141.1387  156.4061 H   0  0  0  0  0  0  0  0  0  0  0  0
  149.0445  142.4707  155.3101 H   0  0  0  0  0  0  0  0  0  0  0  0
  148.9386  141.1205  156.4549 H   0  0  0  0  0  0  0  0  0  0  0  0
  145.7968  138.0143  150.8550 H   0  0  0  0  0  0  0  0  0  0  0  0
  1  2  1  0  0  0  0
  1 18  1  0  0  0  0
  1 19  1  0  0  0  0
  1 20  1  0  0  0  0
  2  3  1  0  0  0  0
  2  9  1  0  0  0  0
  2 21  1  0  0  0  0
  3  4  1  0  0  0  0
  3 22  1  0  0  0  0
  3 23  1  0  0  0  0
  4  8  1  0  0  0  0
  4  5  1  0  0  0  0
  5  6  2  0  0  0  0
  5 24  1  0  0  0  0
  6  7  1  0  0  0  0
  6 25  1  0  0  0  0
  7  8  2  0  0  0  0
  7 26  1  0  0  0  0
  9 10  1  0  0  0  0
  9 27  1  0  0  0  0
  9 38  1  0  0  0  0
 10 11  1  0  0  0  0
 10 28  1  0  0  0  0
 10 29  1  0  0  0  0
 11 12  1  0  0  0  0
 11 30  1  0  0  0  0
 11 31  1  0  0  0  0
 12 16  1  0  0  0  0
 12 13  1  0  0  0  0
 13 14  1  0  0  0  0
 13 32  1  0  0  0  0
 13 33  1  0  0  0  0
 14 15  1  0  0  0  0
 14 34  1  0  0  0  0
 14 35  1  0  0  0  0
 15 16  1  0  0  0  0
 15 36  1  0  0  0  0
 15 37  1  0  0  0  0
 16 17  2  0  0  0  0
M  CHG  1   9   1
M  END
> <s_m_source_file>
AV-unprocessed.smi

> <i_m_source_file_index>
3140

> <i_lp_mmshare_version>
43012

> <i_f3d_flags>
0

> <s_epik_input>
bjFbY0hdW2NIXVtjSF1uMVtDSDJdW0NAQEhdKFtDSDNdKVtOSF1bQ0gyXVtDSDJdTjJbQ0gyXVtDSDJdW0NIMl1DMj1P

> <s_epik_cmdline>
J2VwaWtfcHl0aG9uJywgJy1waCcsICc3LjAnLCAnLXRuJywgJzgnLCAnLW1hJywgJzIwMCcsICctbWV0YWxfYmluZGluZycsICctaW1hZScsICc8aW5maWxlLm1hZT4nLCAnLW9tYWUnLCAnPG91dGZpbGUubWFlPic=

> <r_lp_tautomer_probability>
1

> <r_epik_Ionization_Penalty>
0.00826299

> <r_epik_Ionization_Penalty_Charging>
0.00825899

> <r_epik_Ionization_Penalty_Neutral>
3.99893e-06

> <r_epik_State_Penalty>
0.00621436

> <r_epik_Charging_Adjusted_Penalty>
0.0144734

> <i_epik_Tot_Q>
1

> <i_epik_Tot_abs_Q>
1

> <r_epik_Metal_State_Penalty>
0.00621472

> <b_epik_Metal_Only>
0

> <s_lp_Force_Field>
OPLS_2005

> <r_lp_Energy>
19.0418

> <b_lp_Chiralities_Consistent>
1

> <s_lp_Variant>
AV-unprocessed.smi:3140-2

> <Gold.Version>
5.8.1

> <Gold.Id.Protein>
6NUR|6NUR_protein|mol2

> <Gold.PLP.Fitness>
45.2382

> <Gold.PLP.PLP>
-31.4322

> <Gold.PLP.part.hbond>
-2.3729

> <Gold.PLP.part.metal>
0.0000

> <Gold.PLP.part.buried>
-1.4071

> <Gold.PLP.part.nonpolar>
-29.6256

> <Gold.PLP.part.repulsive>
1.4395

> <Gold.PLP.ligand.clash>
0.0000

> <Gold.PLP.ligand.torsion>
0.5782

> <Gold.PLP.Chemscore.Hbond>
2.9077

> <Gold.PLP.Chemscore.CHOScore>
2.0000

> <Gold.PLP.Chemscore.Metal>
0.0000

> <Gold.Chemscore.Hbonds>
donor molecule, donor type, donor heavy atom, donor atom, acceptor molecule, acceptor atom, score
      L1  H     9    27       P1  7948  1.46
      L1  H     9    38       P1 10171  0.44
      P1  H  7989  7998       L1    17  0.87
      L1  C     5    24       P1 10186  1.00
      L1  C     7    26       P1 10747  0.92

> <Gold.PLP.Chemscore.Internal.Correction>
0.2395

> <Gold.Rescore>
     Score         DG    S(hbond)    S(metal)    S(lipo)     H(rot)  DE(clash)    DE(int)     intcor
     12.71     -14.80       1.87        0.00      71.35       2.06       1.50       0.60       ----

> <Gold.Chemscore.Fitness>
12.7057

> <Gold.Chemscore.DG>
-14.8044

> <Gold.Chemscore.ZeroCoef>
-5.4800

> <Gold.Chemscore.Hbond>
1.8679

> <Gold.Chemscore.Metal>
0.0000

> <Gold.Chemscore.Lipo>
71.3518

> <Gold.Chemscore.Internal_Hbond>
0.0000

> <Gold.Chemscore.DEClash>
1.5024

> <Gold.Chemscore.DEInternal>
0.5963

> <Gold.Chemscore.Rot>
2.0557

> <Gold.Chemscore.Internal.Correction>
   9.000000E+99

> <Gold.Chemscore.Hbonds>
donor molecule, donor type, donor heavy atom, donor atom, acceptor molecule, acceptor atom, score
      L1  H     9    27       P1  7948  0.71
      L1  H     9    38       P1 10171  0.42
      P1  H  7989  7998       L1    17  0.80

> <Gold.Chemscore.Hbond.Weighted>
-6.2389

> <Gold.Chemscore.Metal.Weighted>
-0.0000

> <Gold.Chemscore.Lipo.Weighted>
-8.3482

> <Gold.Chemscore.Internal_Hbond.Weighted>
0.0000

> <Gold.Chemscore.DEClash.Weighted>
1.5024

> <Gold.Chemscore.DEInternal.Weighted>
0.5963

> <Gold.Chemscore.Rot.Weighted>
5.2627

> <Gold.Chemscore.Internal.Correction.Weighted>
   9.000000E+99

> <Gold.Protein.RotatedTorsions>
[ 6907 6896 6895 6894 ] final   12.22 input  -60.11 | X-H torsion
[ 7974 7965 7964 7962 ] final   58.81 input  175.53 | X-H torsion
[ 8008 7997 7996 7995 ] final -172.05 input   59.86 | X-H torsion
[ 10167 10162 10161 10158 ] final -146.65 input  -65.29 | X-H torsion
[ 10718 10713 10712 10709 ] final  -76.51 input   66.30 | X-H torsion
[ 10763 10752 10751 10750 ] final -122.14 input  -60.55 | X-H torsion
[ 11005 11000 10999 10996 ] final  111.31 input  -57.11 | X-H torsion

> <Gold.Protein.ActiveResidues>
 VAL166  LYS551  ARG553  GLY616  TRP617  ASP618  TYR619  PRO620  LYS621  CYS622 
 ASP623  PHE694  ASN695  SER759  ASP760  ASP761  ALA762  ILE779  LEU786  VAL792 
 PHE793  MET794  SER795  GLU796  ALA797  LYS798  CYS799  TRP800  GLU811  SER814 

> <Gold.Protein.RotatedAtoms>
  151.7669  135.0796  160.0353 H   0  0  0  0  0  0  0  0  0  0  0  0  # atno 6907 bound_to 6896
  152.3315  133.5960  159.5821 H   0  0  0  0  0  0  0  0  0  0  0  0  # atno 6908 bound_to 6896
  150.7425  133.9776  159.3607 H   0  0  0  0  0  0  0  0  0  0  0  0  # atno 6909 bound_to 6896
  145.9141  139.3677  143.0518 H   0  0  0  0  0  0  0  0  0  0  0  0  # atno 7974 bound_to 7965
  155.9395  140.1106  157.1067 H   0  0  0  0  0  0  0  0  0  0  0  0  # atno 8008 bound_to 7997
  154.4086  140.1222  156.4974 H   0  0  0  0  0  0  0  0  0  0  0  0  # atno 8009 bound_to 7997
  155.6979  140.3472  155.4923 H   0  0  0  0  0  0  0  0  0  0  0  0  # atno 8010 bound_to 7997
  139.7693  143.8261  152.2622 H   0  0  0  0  0  0  0  0  0  0  0  0  # atno 10167 bound_to 10162
  156.0173  130.4467  150.3204 H   0  0  0  0  0  0  0  0  0  0  0  0  # atno 10718 bound_to 10713
  154.8683  135.4143  154.2734 H   0  0  0  0  0  0  0  0  0  0  0  0  # atno 10763 bound_to 10752
  153.3640  135.7004  153.6695 H   0  0  0  0  0  0  0  0  0  0  0  0  # atno 10764 bound_to 10752
  153.5584  135.3615  155.2761 H   0  0  0  0  0  0  0  0  0  0  0  0  # atno 10765 bound_to 10752
  139.8901  134.9505  156.6412 H   0  0  0  0  0  0  0  0  0  0  0  0  # atno 11005 bound_to 11000
  145.8634  140.9462  143.0688 LP  0  0  0  0  0  0  0  0  0  0  0  0  # atno 17320 bound_to 7965
  144.6746  140.0560  143.7477 LP  0  0  0  0  0  0  0  0  0  0  0  0  # atno 17321 bound_to 7965
  139.8290  144.7262  150.9474 LP  0  0  0  0  0  0  0  0  0  0  0  0  # atno 17342 bound_to 10162
  140.7813  143.4087  151.1028 LP  0  0  0  0  0  0  0  0  0  0  0  0  # atno 17343 bound_to 10162
  157.1305  131.0270  151.2971 LP  0  0  0  0  0  0  0  0  0  0  0  0  # atno 17370 bound_to 10713
  157.4555  130.7623  149.7188 LP  0  0  0  0  0  0  0  0  0  0  0  0  # atno 17371 bound_to 10713
  140.7592  133.8832  155.8405 LP  0  0  0  0  0  0  0  0  0  0  0  0  # atno 17394 bound_to 11000
  140.9936  134.1245  157.4385 LP  0  0  0  0  0  0  0  0  0  0  0  0  # atno 17395 bound_to 11000

$$$$
