AV-unprocessed.smi:258|AV-procd|sdf|1965|dock10
  -GOLD-   2262021113D 1   1.00000     0.00000
 Structure written by MMmdl.
 57 60  0  0  0  0  0  0  0  0  1 V2000
  147.0239  132.5221  150.9443 O   0  0  0  0  0  0  0  0  0  0  0  0
  146.9850  132.4420  152.3534 C   0  0  0  0  0  0  0  0  0  0  0  0
  148.0964  133.3047  152.9632 C   0  0  0  0  0  0  0  0  0  0  0  0
  148.3447  132.8695  154.2924 O   0  0  0  0  0  0  0  0  0  0  0  0
  149.5969  133.2829  154.8236 C   0  0  2  0  0  0  0  0  0  0  0  0
  149.8414  132.6690  156.2180 C   0  0  0  0  0  0  0  0  0  0  0  0
  151.1186  133.2532  156.8426 C   0  0  0  0  0  0  0  0  0  0  0  0
  151.0588  134.7886  156.8777 C   0  0  0  0  0  0  0  0  0  0  0  0
  150.7906  135.3223  155.5455 N   0  0  0  0  0  0  0  0  0  0  0  0
  150.9216  136.6624  155.4651 C   0  0  0  0  0  0  0  0  0  0  0  0
  150.6298  137.2427  154.2755 N   0  0  0  0  0  0  0  0  0  0  0  0
  150.7388  138.5676  154.1350 C   0  0  0  0  0  0  0  0  0  0  0  0
  151.1147  139.4758  155.0387 N   0  0  0  0  0  0  0  0  0  0  0  0
  151.4095  138.8913  156.2354 C   0  0  0  0  0  0  0  0  0  0  0  0
  151.3413  137.5021  156.5350 C   0  0  0  0  0  0  0  0  0  0  0  0
  151.7152  137.2823  157.8555 N   0  0  0  0  0  0  0  0  0  0  0  0
  151.9892  138.4746  158.3109 C   0  0  0  0  0  0  0  0  0  0  0  0
  151.8356  139.4981  157.4027 N   0  0  0  0  0  0  0  0  0  0  0  0
  152.0661  140.9130  157.6352 C   0  0  0  0  0  0  0  0  0  0  0  0
  150.7670  141.7071  157.9202 C   0  0  2  0  0  0  0  0  0  0  0  0
  149.6980  141.5215  156.8160 C   0  0  0  0  0  0  0  0  0  0  0  0
  150.1122  142.0960  155.5934 O   0  0  0  0  0  0  0  0  0  0  0  0
  151.0644  143.2005  158.2076 C   0  0  2  0  0  0  0  0  0  0  0  0
  152.0869  143.4458  159.3034 C   0  0  0  0  0  0  0  0  0  0  0  0
  151.8233  144.9015  159.6736 C   0  0  0  0  0  0  0  0  0  0  0  0
  150.4334  145.1119  159.4496 O   0  0  0  0  0  0  0  0  0  0  0  0
  149.8775  143.9984  158.7571 C   0  0  0  0  0  0  0  0  0  0  0  0
  149.5716  134.8187  154.9181 C   0  0  0  0  0  0  0  0  0  0  0  0
  147.5076  131.7803  150.6143 H   0  0  0  0  0  0  0  0  0  0  0  0
  146.0118  132.8115  152.6775 H   0  0  0  0  0  0  0  0  0  0  0  0
  147.0620  131.4045  152.6798 H   0  0  0  0  0  0  0  0  0  0  0  0
  148.9936  133.2761  152.3442 H   0  0  0  0  0  0  0  0  0  0  0  0
  147.7600  134.3419  152.9962 H   0  0  0  0  0  0  0  0  0  0  0  0
  150.4036  132.9955  154.1465 H   0  0  0  0  0  0  0  0  0  0  0  0
  148.9894  132.8787  156.8660 H   0  0  0  0  0  0  0  0  0  0  0  0
  149.9295  131.5848  156.1589 H   0  0  0  0  0  0  0  0  0  0  0  0
  151.2579  132.8611  157.8502 H   0  0  0  0  0  0  0  0  0  0  0  0
  151.9859  132.9357  156.2622 H   0  0  0  0  0  0  0  0  0  0  0  0
  150.2761  135.1097  157.5662 H   0  0  0  0  0  0  0  0  0  0  0  0
  152.0015  135.1885  157.2542 H   0  0  0  0  0  0  0  0  0  0  0  0
  150.4903  138.9558  153.1583 H   0  0  0  0  0  0  0  0  0  0  0  0
  152.3190  138.6410  159.3263 H   0  0  0  0  0  0  0  0  0  0  0  0
  152.7601  140.9991  158.4714 H   0  0  0  0  0  0  0  0  0  0  0  0
  152.5789  141.3264  156.7659 H   0  0  0  0  0  0  0  0  0  0  0  0
  150.3363  141.2881  158.8309 H   0  0  0  0  0  0  0  0  0  0  0  0
  149.4857  140.4651  156.6512 H   0  0  0  0  0  0  0  0  0  0  0  0
  148.7508  141.9725  157.1113 H   0  0  0  0  0  0  0  0  0  0  0  0
  149.5589  142.8393  155.4082 H   0  0  0  0  0  0  0  0  0  0  0  0
  151.4169  143.6862  157.2962 H   0  0  0  0  0  0  0  0  0  0  0  0
  151.8894  142.8014  160.1614 H   0  0  0  0  0  0  0  0  0  0  0  0
  153.1150  143.2791  158.9808 H   0  0  0  0  0  0  0  0  0  0  0  0
  152.1010  145.1257  160.7036 H   0  0  0  0  0  0  0  0  0  0  0  0
  152.3848  145.5683  159.0182 H   0  0  0  0  0  0  0  0  0  0  0  0
  149.1956  144.3276  157.9726 H   0  0  0  0  0  0  0  0  0  0  0  0
  149.3073  143.4025  159.4712 H   0  0  0  0  0  0  0  0  0  0  0  0
  149.4645  135.2491  153.9214 H   0  0  0  0  0  0  0  0  0  0  0  0
  148.7049  135.1375  155.4986 H   0  0  0  0  0  0  0  0  0  0  0  0
  1  2  1  0  0  0  0
  1 29  1  0  0  0  0
  2  3  1  0  0  0  0
  2 30  1  0  0  0  0
  2 31  1  0  0  0  0
  3  4  1  0  0  0  0
  3 32  1  0  0  0  0
  3 33  1  0  0  0  0
  4  5  1  0  0  0  0
  5 28  1  0  0  0  0
  5  6  1  0  0  0  0
  5 34  1  0  0  0  0
  6  7  1  0  0  0  0
  6 35  1  0  0  0  0
  6 36  1  0  0  0  0
  7  8  1  0  0  0  0
  7 37  1  0  0  0  0
  7 38  1  0  0  0  0
  8  9  1  0  0  0  0
  8 39  1  0  0  0  0
  8 40  1  0  0  0  0
  9 10  1  0  0  0  0
  9 28  1  0  0  0  0
 10 15  1  0  0  0  0
 10 11  2  0  0  0  0
 11 12  1  0  0  0  0
 12 13  2  0  0  0  0
 12 41  1  0  0  0  0
 13 14  1  0  0  0  0
 14 18  1  0  0  0  0
 14 15  2  0  0  0  0
 15 16  1  0  0  0  0
 16 17  2  0  0  0  0
 17 18  1  0  0  0  0
 17 42  1  0  0  0  0
 18 19  1  0  0  0  0
 19 20  1  0  0  0  0
 19 43  1  0  0  0  0
 19 44  1  0  0  0  0
 20 21  1  0  0  0  0
 20 23  1  0  0  0  0
 20 45  1  0  0  0  0
 21 22  1  0  0  0  0
 21 46  1  0  0  0  0
 21 47  1  0  0  0  0
 22 48  1  0  0  0  0
 23 27  1  0  0  0  0
 23 24  1  0  0  0  0
 23 49  1  0  0  0  0
 24 25  1  0  0  0  0
 24 50  1  0  0  0  0
 24 51  1  0  0  0  0
 25 26  1  0  0  0  0
 25 52  1  0  0  0  0
 25 53  1  0  0  0  0
 26 27  1  0  0  0  0
 27 54  1  0  0  0  0
 27 55  1  0  0  0  0
 28 56  1  0  0  0  0
 28 57  1  0  0  0  0
M  END
> <s_m_source_file>
AV-unprocessed.smi

> <i_m_source_file_index>
258

> <i_lp_mmshare_version>
43012

> <i_f3d_flags>
0

> <s_epik_input>
W09IXVtDSDJdW0NIMl1PW0NAQEhdMVtDSDJdW0NIMl1bQ0gyXU4oW0NIMl0xKWMobltjSF1uMiljKGMyMyluW2NIXW4zW0NIMl1bQ0BIXShbQ0gyXVtPSF0pW0NAQEhdNFtDSDJdW0NIMl1PW0NIMl00

> <s_epik_cmdline>
J2VwaWtfcHl0aG9uJywgJy1waCcsICc3LjAnLCAnLXRuJywgJzgnLCAnLW1hJywgJzIwMCcsICctbWV0YWxfYmluZGluZycsICctaW1hZScsICc8aW5maWxlLm1hZT4nLCAnLW9tYWUnLCAnPG91dGZpbGUubWFlPic=

> <r_lp_tautomer_probability>
1

> <r_epik_Ionization_Penalty>
0.00349036

> <r_epik_Ionization_Penalty_Charging>
0

> <r_epik_Ionization_Penalty_Neutral>
0.00349036

> <r_epik_State_Penalty>
0.00229798

> <r_epik_Charging_Adjusted_Penalty>
0.00229798

> <i_epik_Tot_Q>
0

> <i_epik_Tot_abs_Q>
0

> <r_epik_Metal_State_Penalty>
-0

> <b_epik_Metal_Only>
0

> <s_lp_Force_Field>
OPLS_2005

> <r_lp_Energy>
47.3811

> <b_lp_Chiralities_Consistent>
1

> <s_lp_Variant>
AV-unprocessed.smi:258-1

> <Gold.Version>
5.8.1

> <Gold.Id.Protein>
6NUR|6NUR_protein|mol2

> <Gold.PLP.Fitness>
52.7822

> <Gold.PLP.PLP>
-42.7965

> <Gold.PLP.part.hbond>
-3.9702

> <Gold.PLP.part.metal>
0.0000

> <Gold.PLP.part.buried>
-7.8656

> <Gold.PLP.part.nonpolar>
-32.8883

> <Gold.PLP.part.repulsive>
2.3393

> <Gold.PLP.ligand.clash>
0.0163

> <Gold.PLP.ligand.torsion>
0.7696

> <Gold.PLP.Chemscore.Hbond>
2.7119

> <Gold.PLP.Chemscore.CHOScore>
1.0000

> <Gold.PLP.Chemscore.Metal>
0.0000

> <Gold.Chemscore.Hbonds>
donor molecule, donor type, donor heavy atom, donor atom, acceptor molecule, acceptor atom, score
      L1  H     1    29       P1 10747  1.00
      L1  H    22    48       P1  8028  1.00
      P1  H  7989  7998       L1    13  0.40
      L1  C    12    41       P1  7957  1.00

> <Gold.PLP.Chemscore.Internal.Correction>
0.4055

> <Gold.Rescore>
     Score         DG    S(hbond)    S(metal)    S(lipo)     H(rot)  DE(clash)    DE(int)     intcor
     10.68     -12.96       2.00        0.00      99.20       4.22       0.04       2.23       ----

> <Gold.Chemscore.Fitness>
10.6836

> <Gold.Chemscore.DG>
-12.9569

> <Gold.Chemscore.ZeroCoef>
-5.4800

> <Gold.Chemscore.Hbond>
2.0015

> <Gold.Chemscore.Metal>
0.0000

> <Gold.Chemscore.Lipo>
99.2038

> <Gold.Chemscore.Internal_Hbond>
0.0000

> <Gold.Chemscore.DEClash>
0.0399

> <Gold.Chemscore.DEInternal>
2.2333

> <Gold.Chemscore.Rot>
4.2246

> <Gold.Chemscore.Internal.Correction>
   9.000000E+99

> <Gold.Chemscore.Hbonds>
donor molecule, donor type, donor heavy atom, donor atom, acceptor molecule, acceptor atom, score
      L1  H     1    29       P1 10747  0.98
      L1  H    22    48       P1  8028  0.93
      P1  H  7989  7998       L1    13  0.02

> <Gold.Chemscore.Hbond.Weighted>
-6.6849

> <Gold.Chemscore.Metal.Weighted>
-0.0000

> <Gold.Chemscore.Lipo.Weighted>
-11.6068

> <Gold.Chemscore.Internal_Hbond.Weighted>
0.0000

> <Gold.Chemscore.DEClash.Weighted>
0.0399

> <Gold.Chemscore.DEInternal.Weighted>
2.2333

> <Gold.Chemscore.Rot.Weighted>
10.8149

> <Gold.Chemscore.Internal.Correction.Weighted>
   9.000000E+99

> <Gold.Protein.RotatedTorsions>
[ 6907 6896 6895 6894 ] final  143.83 input  -60.11 | X-H torsion
[ 7974 7965 7964 7962 ] final   -6.51 input  175.53 | X-H torsion
[ 8008 7997 7996 7995 ] final   66.18 input   59.86 | X-H torsion
[ 10167 10162 10161 10158 ] final -167.01 input  -65.29 | X-H torsion
[ 10718 10713 10712 10709 ] final  -14.23 input   66.30 | X-H torsion
[ 10763 10752 10751 10750 ] final   73.36 input  -60.55 | X-H torsion
[ 11005 11000 10999 10996 ] final    8.46 input  -57.11 | X-H torsion

> <Gold.Protein.ActiveResidues>
 VAL166  LYS551  ARG553  GLY616  TRP617  ASP618  TYR619  PRO620  LYS621  CYS622 
 ASP623  PHE694  ASN695  SER759  ASP760  ASP761  ALA762  ILE779  LEU786  VAL792 
 PHE793  MET794  SER795  GLU796  ALA797  LYS798  CYS799  TRP800  GLU811  SER814 

> <Gold.Protein.RotatedAtoms>
  152.2013  133.4843  159.5059 H   0  0  0  0  0  0  0  0  0  0  0  0  # atno 6907 bound_to 6896
  150.6970  134.1586  159.4177 H   0  0  0  0  0  0  0  0  0  0  0  0  # atno 6908 bound_to 6896
  151.9504  135.0171  160.0592 H   0  0  0  0  0  0  0  0  0  0  0  0  # atno 6909 bound_to 6896
  146.2329  140.2181  142.8337 H   0  0  0  0  0  0  0  0  0  0  0  0  # atno 7974 bound_to 7965
  155.6734  140.3497  155.4827 H   0  0  0  0  0  0  0  0  0  0  0  0  # atno 8008 bound_to 7997
  155.9669  140.1148  157.0869 H   0  0  0  0  0  0  0  0  0  0  0  0  # atno 8009 bound_to 7997
  154.4156  140.1164  156.5240 H   0  0  0  0  0  0  0  0  0  0  0  0  # atno 8010 bound_to 7997
  139.6077  144.0879  152.1810 H   0  0  0  0  0  0  0  0  0  0  0  0  # atno 10167 bound_to 10162
  156.6190  130.4870  149.6172 H   0  0  0  0  0  0  0  0  0  0  0  0  # atno 10718 bound_to 10713
  153.0517  135.5065  154.7882 H   0  0  0  0  0  0  0  0  0  0  0  0  # atno 10763 bound_to 10752
  154.6740  135.2957  154.9706 H   0  0  0  0  0  0  0  0  0  0  0  0  # atno 10764 bound_to 10752
  154.0515  135.6703  153.4853 H   0  0  0  0  0  0  0  0  0  0  0  0  # atno 10765 bound_to 10752
  140.5368  134.0413  155.7891 H   0  0  0  0  0  0  0  0  0  0  0  0  # atno 11005 bound_to 11000
  144.9654  140.8316  143.5488 LP  0  0  0  0  0  0  0  0  0  0  0  0  # atno 17320 bound_to 7965
  145.2156  139.2183  143.5120 LP  0  0  0  0  0  0  0  0  0  0  0  0  # atno 17321 bound_to 7965
  140.0490  144.5947  150.7351 LP  0  0  0  0  0  0  0  0  0  0  0  0  # atno 17342 bound_to 10162
  140.7297  143.2675  151.3997 LP  0  0  0  0  0  0  0  0  0  0  0  0  # atno 17343 bound_to 10162
  156.2327  130.6804  151.1480 LP  0  0  0  0  0  0  0  0  0  0  0  0  # atno 17370 bound_to 10713
  157.7233  131.0667  150.6042 LP  0  0  0  0  0  0  0  0  0  0  0  0  # atno 17371 bound_to 10713
  141.1250  133.9398  157.2653 LP  0  0  0  0  0  0  0  0  0  0  0  0  # atno 17394 bound_to 11000
  139.9525  135.0172  156.9035 LP  0  0  0  0  0  0  0  0  0  0  0  0  # atno 17395 bound_to 11000

$$$$
