AV-unprocessed.smi:1066|AV-procd|sdf|4670|dock7
  -GOLD-   22720 3183D 1   1.00000     0.00000
 Structure written by MMmdl.
 38 40  0  0  0  0  0  0  0  0  2 V2000
  151.6136  143.1568  158.1539 C   0  0  0  0  0  0  0  0  0  0  0  0
  151.3807  141.6805  158.3019 C   0  0  0  0  0  0  0  0  0  0  0  0
  152.1900  140.9713  159.0777 N   0  0  0  0  0  0  0  0  0  0  0  0
  151.7368  139.6486  159.0170 O   0  0  0  0  0  0  0  0  0  0  0  0
  150.6615  139.6363  158.1970 C   0  0  0  0  0  0  0  0  0  0  0  0
  149.8028  138.1932  157.8274 Cl  0  0  0  0  0  0  0  0  0  0  0  0
  150.3685  140.8747  157.7024 C   0  0  0  0  0  0  0  0  0  0  0  0
  149.2688  141.2960  156.7595 C   0  0  0  0  0  0  0  0  0  0  0  0
  149.3378  140.4663  155.4768 C   0  0  0  0  0  0  0  0  0  0  0  0
  150.4229  140.2523  154.9378 O   0  0  0  0  0  0  0  0  0  0  0  0
  148.1726  140.0014  155.0008 N   0  0  0  0  0  0  0  0  0  0  0  0
  148.0289  139.1591  153.8201 C   0  0  2  0  0  0  0  0  0  0  0  0
  147.3448  139.8461  152.6361 C   0  0  0  0  0  0  0  0  0  0  0  0
  146.6175  138.7080  151.8980 C   0  0  0  0  0  0  0  0  0  0  0  0
  146.7429  137.4984  152.7449 N   0  3  2  0  0  0  0  0  0  0  0  0
  145.5616  136.6107  152.7224 C   0  0  0  0  0  0  0  0  0  0  0  0
  144.9879  136.4069  151.3405 C   0  0  0  0  0  0  0  0  0  0  0  0
  144.2853  137.3141  152.3275 C   0  0  0  0  0  0  0  0  0  0  0  0
  147.1194  137.9654  154.0898 C   0  0  0  0  0  0  0  0  0  0  0  0
  151.1400  143.5453  157.2521 H   0  0  0  0  0  0  0  0  0  0  0  0
  152.6776  143.3863  158.0892 H   0  0  0  0  0  0  0  0  0  0  0  0
  151.2056  143.7028  159.0046 H   0  0  0  0  0  0  0  0  0  0  0  0
  148.2834  141.1692  157.2088 H   0  0  0  0  0  0  0  0  0  0  0  0
  149.3501  142.3538  156.5070 H   0  0  0  0  0  0  0  0  0  0  0  0
  147.3296  140.2329  155.5069 H   0  0  0  0  0  0  0  0  0  0  0  0
  149.0054  138.7846  153.5053 H   0  0  0  0  0  0  0  0  0  0  0  0
  146.6153  140.5779  152.9871 H   0  0  0  0  0  0  0  0  0  0  0  0
  148.0572  140.3697  151.9975 H   0  0  0  0  0  0  0  0  0  0  0  0
  145.5707  138.9733  151.7406 H   0  0  0  0  0  0  0  0  0  0  0  0
  147.0605  138.5132  150.9209 H   0  0  0  0  0  0  0  0  0  0  0  0
  145.5457  135.8030  153.4522 H   0  0  0  0  0  0  0  0  0  0  0  0
  145.4932  136.8761  150.4979 H   0  0  0  0  0  0  0  0  0  0  0  0
  144.5213  135.4474  151.1268 H   0  0  0  0  0  0  0  0  0  0  0  0
  143.3560  136.9514  152.7624 H   0  0  0  0  0  0  0  0  0  0  0  0
  144.3241  138.3859  152.1416 H   0  0  0  0  0  0  0  0  0  0  0  0
  147.6154  137.1817  154.6635 H   0  0  0  0  0  0  0  0  0  0  0  0
  146.2268  138.2772  154.6363 H   0  0  0  0  0  0  0  0  0  0  0  0
  147.5317  136.9766  152.3897 H   0  0  0  0  0  0  0  0  0  0  0  0
  1  2  1  0  0  0  0
  1 20  1  0  0  0  0
  1 21  1  0  0  0  0
  1 22  1  0  0  0  0
  2  7  1  0  0  0  0
  2  3  2  0  0  0  0
  3  4  1  0  0  0  0
  4  5  1  0  0  0  0
  5  6  1  0  0  0  0
  5  7  2  0  0  0  0
  7  8  1  0  0  0  0
  8  9  1  0  0  0  0
  8 23  1  0  0  0  0
  8 24  1  0  0  0  0
  9 10  2  0  0  0  0
  9 11  1  0  0  0  0
 11 12  1  0  0  0  0
 11 25  1  0  0  0  0
 12 19  1  0  0  0  0
 12 13  1  0  0  0  0
 12 26  1  0  0  0  0
 13 14  1  0  0  0  0
 13 27  1  0  0  0  0
 13 28  1  0  0  0  0
 14 15  1  0  0  0  0
 14 29  1  0  0  0  0
 14 30  1  0  0  0  0
 15 16  1  0  0  0  0
 15 19  1  0  0  0  0
 15 38  1  0  0  0  0
 16 18  1  0  0  0  0
 16 17  1  0  0  0  0
 16 31  1  0  0  0  0
 17 18  1  0  0  0  0
 17 32  1  0  0  0  0
 17 33  1  0  0  0  0
 18 34  1  0  0  0  0
 18 35  1  0  0  0  0
 19 36  1  0  0  0  0
 19 37  1  0  0  0  0
M  CHG  1  15   1
M  END
> <s_m_source_file>
AV-unprocessed.smi

> <i_m_source_file_index>
1066

> <i_lp_mmshare_version>
43012

> <i_f3d_flags>
0

> <s_epik_input>
W0NIM11jMW5vYyhDbCljMVtDSDJdQyg9TylbTkhdW0NAQEhdMltDSDJdW0NIMl1OKFtDSDJdMilbQ0hdM1tDSDJdW0NIMl0z

> <s_epik_cmdline>
J2VwaWtfcHl0aG9uJywgJy1waCcsICc3LjAnLCAnLXRuJywgJzgnLCAnLW1hJywgJzIwMCcsICctbWV0YWxfYmluZGluZycsICctaW1hZScsICc8aW5maWxlLm1hZT4nLCAnLW9tYWUnLCAnPG91dGZpbGUubWFlPic=

> <r_epik_Ionization_Penalty>
0.00108138

> <r_epik_Ionization_Penalty_Charging>
0.00108128

> <r_epik_Ionization_Penalty_Neutral>
9.66632e-08

> <r_epik_State_Penalty>
0.000708577

> <r_epik_Charging_Adjusted_Penalty>
0.00178986

> <i_epik_Tot_Q>
1

> <i_epik_Tot_abs_Q>
1

> <r_epik_Metal_State_Penalty>
-0

> <b_epik_Metal_Only>
0

> <s_lp_Force_Field>
OPLS_2005

> <r_lp_Energy>
30.9378

> <b_lp_Chiralities_Consistent>
1

> <s_lp_Variant>
AV-unprocessed.smi:1066-3

> <Gold.Version>
5.8.1

> <Gold.Id.Protein>
6NUR|6NUR_protein|mol2

> <Gold.PLP.Fitness>
36.5774

> <Gold.PLP.PLP>
-28.3119

> <Gold.PLP.part.hbond>
-2.0000

> <Gold.PLP.part.metal>
0.0000

> <Gold.PLP.part.buried>
-2.4990

> <Gold.PLP.part.nonpolar>
-24.7821

> <Gold.PLP.part.repulsive>
0.1645

> <Gold.PLP.ligand.clash>
0.0000

> <Gold.PLP.ligand.torsion>
0.9885

> <Gold.PLP.Chemscore.Hbond>
2.9920

> <Gold.PLP.Chemscore.CHOScore>
0.0000

> <Gold.PLP.Chemscore.Metal>
0.0000

> <Gold.Chemscore.Hbonds>
donor molecule, donor type, donor heavy atom, donor atom, acceptor molecule, acceptor atom, score
      L1  H    15    38       P1  7948  2.00
      P1  H  7989  7998       L1    10  1.00

> <Gold.PLP.Chemscore.Internal.Correction>
1.2665

> <Gold.Rescore>
     Score         DG    S(hbond)    S(metal)    S(lipo)     H(rot)  DE(clash)    DE(int)     intcor
     14.97     -16.12       1.95        0.00      69.59       1.57       0.37       0.78       ----

> <Gold.Chemscore.Fitness>
14.9727

> <Gold.Chemscore.DG>
-16.1197

> <Gold.Chemscore.ZeroCoef>
-5.4800

> <Gold.Chemscore.Hbond>
1.9521

> <Gold.Chemscore.Metal>
0.0000

> <Gold.Chemscore.Lipo>
69.5885

> <Gold.Chemscore.Internal_Hbond>
0.0000

> <Gold.Chemscore.DEClash>
0.3713

> <Gold.Chemscore.DEInternal>
0.7756

> <Gold.Chemscore.Rot>
1.5711

> <Gold.Chemscore.Internal.Correction>
   9.000000E+99

> <Gold.Chemscore.Hbonds>
donor molecule, donor type, donor heavy atom, donor atom, acceptor molecule, acceptor atom, score
      L1  H    15    38       P1  7948  1.00
      P1  H  7989  7998       L1    10  0.97

> <Gold.Chemscore.Hbond.Weighted>
-6.5199

> <Gold.Chemscore.Metal.Weighted>
-0.0000

> <Gold.Chemscore.Lipo.Weighted>
-8.1418

> <Gold.Chemscore.Internal_Hbond.Weighted>
0.0000

> <Gold.Chemscore.DEClash.Weighted>
0.3713

> <Gold.Chemscore.DEInternal.Weighted>
0.7756

> <Gold.Chemscore.Rot.Weighted>
4.0221

> <Gold.Chemscore.Internal.Correction.Weighted>
   9.000000E+99

> <Gold.Protein.RotatedTorsions>
[ 6907 6896 6895 6894 ] final  102.23 input  -60.11 | X-H torsion
[ 7974 7965 7964 7962 ] final  121.79 input  175.53 | X-H torsion
[ 8008 7997 7996 7995 ] final -113.79 input   59.86 | X-H torsion
[ 10167 10162 10161 10158 ] final   87.79 input  -65.29 | X-H torsion
[ 10718 10713 10712 10709 ] final  -88.67 input   66.30 | X-H torsion
[ 10763 10752 10751 10750 ] final  -62.67 input  -60.55 | X-H torsion
[ 11005 11000 10999 10996 ] final -112.35 input  -57.11 | X-H torsion

> <Gold.Protein.ActiveResidues>
 VAL166  LYS551  ARG553  GLY616  TRP617  ASP618  TYR619  PRO620  LYS621  CYS622 
 ASP623  PHE694  ASN695  SER759  ASP760  ASP761  ALA762  ILE779  LEU786  VAL792 
 PHE793  MET794  SER795  GLU796  ALA797  LYS798  CYS799  TRP800  GLU811  SER814 

> <Gold.Protein.RotatedAtoms>
  152.5329  134.0007  159.7893 H   0  0  0  0  0  0  0  0  0  0  0  0  # atno 6907 bound_to 6896
  151.0226  133.5854  159.2676 H   0  0  0  0  0  0  0  0  0  0  0  0  # atno 6908 bound_to 6896
  151.2888  135.0743  159.9250 H   0  0  0  0  0  0  0  0  0  0  0  0  # atno 6909 bound_to 6896
  145.1152  139.3426  143.4742 H   0  0  0  0  0  0  0  0  0  0  0  0  # atno 7974 bound_to 7965
  155.0262  140.0393  157.2456 H   0  0  0  0  0  0  0  0  0  0  0  0  # atno 8008 bound_to 7997
  154.7335  140.2735  155.6411 H   0  0  0  0  0  0  0  0  0  0  0  0  # atno 8009 bound_to 7997
  156.2847  140.2679  156.2042 H   0  0  0  0  0  0  0  0  0  0  0  0  # atno 8010 bound_to 7997
  139.8738  144.6478  150.8919 H   0  0  0  0  0  0  0  0  0  0  0  0  # atno 10167 bound_to 10162
  155.9983  130.4844  150.5055 H   0  0  0  0  0  0  0  0  0  0  0  0  # atno 10718 bound_to 10713
  154.3033  135.6230  153.5434 H   0  0  0  0  0  0  0  0  0  0  0  0  # atno 10763 bound_to 10752
  152.9838  135.5684  154.5259 H   0  0  0  0  0  0  0  0  0  0  0  0  # atno 10764 bound_to 10752
  154.4894  135.2866  155.1485 H   0  0  0  0  0  0  0  0  0  0  0  0  # atno 10765 bound_to 10752
  141.0680  133.9426  157.2540 H   0  0  0  0  0  0  0  0  0  0  0  0  # atno 11005 bound_to 11000
  146.3524  140.1088  142.8605 LP  0  0  0  0  0  0  0  0  0  0  0  0  # atno 17320 bound_to 7965
  145.0802  140.9216  143.4830 LP  0  0  0  0  0  0  0  0  0  0  0  0  # atno 17321 bound_to 7965
  140.7756  143.3642  151.1771 LP  0  0  0  0  0  0  0  0  0  0  0  0  # atno 17342 bound_to 10162
  139.7259  143.9149  152.3002 LP  0  0  0  0  0  0  0  0  0  0  0  0  # atno 17343 bound_to 10162
  157.3034  131.0649  151.2052 LP  0  0  0  0  0  0  0  0  0  0  0  0  # atno 17370 bound_to 10713
  157.3023  130.6849  149.6171 LP  0  0  0  0  0  0  0  0  0  0  0  0  # atno 17371 bound_to 10713
  139.9495  135.0178  156.8953 LP  0  0  0  0  0  0  0  0  0  0  0  0  # atno 17394 bound_to 11000
  140.5732  134.0423  155.7438 LP  0  0  0  0  0  0  0  0  0  0  0  0  # atno 17395 bound_to 11000

$$$$
