AV-unprocessed.smi:2087|AV-procd|sdf|8522|dock9
  -GOLD-   2272011243D 1   1.00000     0.00000
 Structure written by MMmdl.
 51 52  0  0  0  0  0  0  0  0  2 V2000
  146.0965  132.9746  151.0127 C   0  0  0  0  0  0  0  0  0  0  0  0
  144.7096  132.5581  151.5311 C   0  0  0  0  0  0  0  0  0  0  0  0
  143.9015  131.8821  150.4130 C   0  0  0  0  0  0  0  0  0  0  0  0
  143.9275  133.7551  152.1147 C   0  0  0  0  0  0  0  0  0  0  0  0
  144.2645  134.0406  153.5366 N   0  3  1  0  0  0  0  0  0  0  0  0
  145.6586  133.6841  153.8968 C   0  0  0  0  0  0  0  0  0  0  0  0
  146.6520  134.7491  153.3985 C   0  0  0  0  0  0  0  0  0  0  0  0
  146.2883  136.0155  153.9327 O   0  0  0  0  0  0  0  0  0  0  0  0
  144.9983  136.4384  153.5007 C   0  0  2  0  0  0  0  0  0  0  0  0
  144.7391  137.8490  154.0603 C   0  0  0  0  0  0  0  0  0  0  0  0
  145.7968  138.7780  153.6790 N   0  0  0  0  0  0  0  0  0  0  0  0
  146.3300  139.7065  154.4863 C   0  0  0  0  0  0  0  0  0  0  0  0
  146.0161  139.8302  155.6709 O   0  0  0  0  0  0  0  0  0  0  0  0
  147.3789  140.6317  153.8568 C   0  0  0  0  0  0  0  0  0  0  0  0
  148.7001  140.4937  154.4828 N   0  0  0  0  0  0  0  0  0  0  0  0
  149.2434  141.5561  155.1821 C   0  0  0  0  0  0  0  0  0  0  0  0
  150.4530  141.5119  155.7819 C   0  0  0  0  0  0  0  0  0  0  0  0
  151.2766  140.3102  155.7213 C   0  0  0  0  0  0  0  0  0  0  0  0
  152.3769  140.2242  156.2675 O   0  0  0  0  0  0  0  0  0  0  0  0
  150.7026  139.2429  154.9891 N   0  0  0  0  0  0  0  0  0  0  0  0
  151.4353  137.9987  154.8751 C   0  0  0  0  0  0  0  0  0  0  0  0
  149.4312  139.2905  154.3760 C   0  0  0  0  0  0  0  0  0  0  0  0
  148.9653  138.3231  153.7676 O   0  0  0  0  0  0  0  0  0  0  0  0
  143.9485  135.4189  153.9938 C   0  0  0  0  0  0  0  0  0  0  0  0
  146.0169  133.7257  150.2261 H   0  0  0  0  0  0  0  0  0  0  0  0
  146.6327  132.1193  150.6004 H   0  0  0  0  0  0  0  0  0  0  0  0
  146.7142  133.3896  151.8094 H   0  0  0  0  0  0  0  0  0  0  0  0
  144.8537  131.8080  152.3082 H   0  0  0  0  0  0  0  0  0  0  0  0
  143.7184  132.5676  149.5846 H   0  0  0  0  0  0  0  0  0  0  0  0
  142.9341  131.5368  150.7793 H   0  0  0  0  0  0  0  0  0  0  0  0
  144.4288  131.0141  150.0158 H   0  0  0  0  0  0  0  0  0  0  0  0
  144.1570  134.6333  151.5092 H   0  0  0  0  0  0  0  0  0  0  0  0
  142.8548  133.5941  152.0091 H   0  0  0  0  0  0  0  0  0  0  0  0
  145.7241  133.6137  154.9834 H   0  0  0  0  0  0  0  0  0  0  0  0
  145.9190  132.6978  153.5113 H   0  0  0  0  0  0  0  0  0  0  0  0
  147.6606  134.5047  153.7315 H   0  0  0  0  0  0  0  0  0  0  0  0
  146.6798  134.7903  152.3086 H   0  0  0  0  0  0  0  0  0  0  0  0
  144.9814  136.4837  152.4111 H   0  0  0  0  0  0  0  0  0  0  0  0
  143.7774  138.2272  153.7098 H   0  0  0  0  0  0  0  0  0  0  0  0
  144.6824  137.8183  155.1489 H   0  0  0  0  0  0  0  0  0  0  0  0
  146.1181  138.7381  152.7224 H   0  0  0  0  0  0  0  0  0  0  0  0
  147.4396  140.4024  152.7922 H   0  0  0  0  0  0  0  0  0  0  0  0
  147.0498  141.6708  153.9179 H   0  0  0  0  0  0  0  0  0  0  0  0
  148.6740  142.4713  155.2550 H   0  0  0  0  0  0  0  0  0  0  0  0
  150.8165  142.3782  156.3151 H   0  0  0  0  0  0  0  0  0  0  0  0
  151.3942  137.6759  153.8332 H   0  0  0  0  0  0  0  0  0  0  0  0
  150.9461  137.2811  155.5354 H   0  0  0  0  0  0  0  0  0  0  0  0
  152.4799  138.1339  155.1544 H   0  0  0  0  0  0  0  0  0  0  0  0
  142.9483  135.7174  153.6833 H   0  0  0  0  0  0  0  0  0  0  0  0
  143.9356  135.4147  155.0845 H   0  0  0  0  0  0  0  0  0  0  0  0
  143.6760  133.4180  154.0716 H   0  0  0  0  0  0  0  0  0  0  0  0
  1  2  1  0  0  0  0
  1 25  1  0  0  0  0
  1 26  1  0  0  0  0
  1 27  1  0  0  0  0
  2  3  1  0  0  0  0
  2  4  1  0  0  0  0
  2 28  1  0  0  0  0
  3 29  1  0  0  0  0
  3 30  1  0  0  0  0
  3 31  1  0  0  0  0
  4  5  1  0  0  0  0
  4 32  1  0  0  0  0
  4 33  1  0  0  0  0
  5 24  1  0  0  0  0
  5  6  1  0  0  0  0
  5 51  1  0  0  0  0
  6  7  1  0  0  0  0
  6 34  1  0  0  0  0
  6 35  1  0  0  0  0
  7  8  1  0  0  0  0
  7 36  1  0  0  0  0
  7 37  1  0  0  0  0
  8  9  1  0  0  0  0
  9 10  1  0  0  0  0
  9 24  1  0  0  0  0
  9 38  1  0  0  0  0
 10 11  1  0  0  0  0
 10 39  1  0  0  0  0
 10 40  1  0  0  0  0
 11 12  1  0  0  0  0
 11 41  1  0  0  0  0
 12 13  2  0  0  0  0
 12 14  1  0  0  0  0
 14 15  1  0  0  0  0
 14 42  1  0  0  0  0
 14 43  1  0  0  0  0
 15 22  1  0  0  0  0
 15 16  1  0  0  0  0
 16 17  2  0  0  0  0
 16 44  1  0  0  0  0
 17 18  1  0  0  0  0
 17 45  1  0  0  0  0
 18 19  2  0  0  0  0
 18 20  1  0  0  0  0
 20 21  1  0  0  0  0
 20 22  1  0  0  0  0
 21 46  1  0  0  0  0
 21 47  1  0  0  0  0
 21 48  1  0  0  0  0
 22 23  2  0  0  0  0
 24 49  1  0  0  0  0
 24 50  1  0  0  0  0
M  CHG  1   5   1
M  END
> <s_m_source_file>
AV-unprocessed.smi

> <i_m_source_file_index>
2087

> <i_lp_mmshare_version>
43012

> <i_f3d_flags>
0

> <s_epik_input>
W0NIM11bQ0hdKFtDSDNdKVtDSDJdTjFbQ0gyXVtDSDJdT1tDQEhdKFtDSDJdMSlbQ0gyXVtOSF1DKD1PKVtDSDJdbjJbY0hdW2NIXWMoPU8pbihbQ0gzXSljMj1P

> <s_epik_cmdline>
J2VwaWtfcHl0aG9uJywgJy1waCcsICc3LjAnLCAnLXRuJywgJzgnLCAnLW1hJywgJzIwMCcsICctbWV0YWxfYmluZGluZycsICctaW1hZScsICc8aW5maWxlLm1hZT4nLCAnLW9tYWUnLCAnPG91dGZpbGUubWFlPic=

> <r_lp_tautomer_probability>
1

> <r_epik_Ionization_Penalty>
0.097593

> <r_epik_Ionization_Penalty_Charging>
0.097593

> <r_epik_Ionization_Penalty_Neutral>
6.27044e-08

> <r_epik_State_Penalty>
0.0877056

> <r_epik_Charging_Adjusted_Penalty>
0.185299

> <i_epik_Tot_Q>
1

> <i_epik_Tot_abs_Q>
1

> <r_epik_Metal_State_Penalty>
0.0877109

> <b_epik_Metal_Only>
0

> <s_lp_Force_Field>
OPLS_2005

> <r_lp_Energy>
27.8921

> <b_lp_Chiralities_Consistent>
1

> <s_lp_Variant>
AV-unprocessed.smi:2087-3

> <Gold.Version>
5.8.1

> <Gold.Id.Protein>
6NUR|6NUR_protein|mol2

> <Gold.PLP.Fitness>
44.8552

> <Gold.PLP.PLP>
-34.3315

> <Gold.PLP.part.hbond>
-2.8645

> <Gold.PLP.part.metal>
0.0000

> <Gold.PLP.part.buried>
-3.7259

> <Gold.PLP.part.nonpolar>
-31.8362

> <Gold.PLP.part.repulsive>
3.6187

> <Gold.PLP.ligand.clash>
0.0000

> <Gold.PLP.ligand.torsion>
0.7708

> <Gold.PLP.Chemscore.Hbond>
3.0000

> <Gold.PLP.Chemscore.CHOScore>
1.0000

> <Gold.PLP.Chemscore.Metal>
0.0000

> <Gold.Chemscore.Hbonds>
donor molecule, donor type, donor heavy atom, donor atom, acceptor molecule, acceptor atom, score
      L1  H     5    51       P1 10957  1.82
      P1  H  7997  8008       L1    19  0.98
      L1  C    16    44       P1  8028  1.00

> <Gold.PLP.Chemscore.Internal.Correction>
0.0652

> <Gold.Rescore>
     Score         DG    S(hbond)    S(metal)    S(lipo)     H(rot)  DE(clash)    DE(int)     intcor
     12.27     -14.91       1.99        0.00      72.63       2.22       1.57       1.07       ----

> <Gold.Chemscore.Fitness>
12.2707

> <Gold.Chemscore.DG>
-14.9141

> <Gold.Chemscore.ZeroCoef>
-5.4800

> <Gold.Chemscore.Hbond>
1.9857

> <Gold.Chemscore.Metal>
0.0000

> <Gold.Chemscore.Lipo>
72.6304

> <Gold.Chemscore.Internal_Hbond>
0.0000

> <Gold.Chemscore.DEClash>
1.5734

> <Gold.Chemscore.DEInternal>
1.0701

> <Gold.Chemscore.Rot>
2.2249

> <Gold.Chemscore.Internal.Correction>
   9.000000E+99

> <Gold.Chemscore.Hbonds>
donor molecule, donor type, donor heavy atom, donor atom, acceptor molecule, acceptor atom, score
      L1  H     5    51       P1 10957  0.88
      P1  H  7997  8008       L1    19  0.90

> <Gold.Chemscore.Hbond.Weighted>
-6.6321

> <Gold.Chemscore.Metal.Weighted>
-0.0000

> <Gold.Chemscore.Lipo.Weighted>
-8.4978

> <Gold.Chemscore.Internal_Hbond.Weighted>
0.0000

> <Gold.Chemscore.DEClash.Weighted>
1.5734

> <Gold.Chemscore.DEInternal.Weighted>
1.0701

> <Gold.Chemscore.Rot.Weighted>
5.6957

> <Gold.Chemscore.Internal.Correction.Weighted>
   9.000000E+99

> <Gold.Protein.RotatedTorsions>
[ 6907 6896 6895 6894 ] final    7.08 input  -60.11 | X-H torsion
[ 7974 7965 7964 7962 ] final  160.79 input  175.53 | X-H torsion
[ 8008 7997 7996 7995 ] final  -55.25 input   59.86 | X-H torsion
[ 10167 10162 10161 10158 ] final  -49.57 input  -65.29 | X-H torsion
[ 10718 10713 10712 10709 ] final -105.74 input   66.30 | X-H torsion
[ 10763 10752 10751 10750 ] final  -56.34 input  -60.55 | X-H torsion
[ 11005 11000 10999 10996 ] final -123.61 input  -57.11 | X-H torsion

> <Gold.Protein.ActiveResidues>
 VAL166  LYS551  ARG553  GLY616  TRP617  ASP618  TYR619  PRO620  LYS621  CYS622 
 ASP623  PHE694  ASN695  SER759  ASP760  ASP761  ALA762  ILE779  LEU786  VAL792 
 PHE793  MET794  SER795  GLU796  ALA797  LYS798  CYS799  TRP800  GLU811  SER814 

> <Gold.Protein.RotatedAtoms>
  151.6841  135.0957  160.0221 H   0  0  0  0  0  0  0  0  0  0  0  0  # atno 6907 bound_to 6896
  152.3818  133.6552  159.6175 H   0  0  0  0  0  0  0  0  0  0  0  0  # atno 6908 bound_to 6896
  150.7753  133.9018  159.3385 H   0  0  0  0  0  0  0  0  0  0  0  0  # atno 6909 bound_to 6896
  144.7719  139.7806  143.6294 H   0  0  0  0  0  0  0  0  0  0  0  0  # atno 7974 bound_to 7965
  154.4189  140.1157  156.5446 H   0  0  0  0  0  0  0  0  0  0  0  0  # atno 8008 bound_to 7997
  155.6472  140.3496  155.4716 H   0  0  0  0  0  0  0  0  0  0  0  0  # atno 8009 bound_to 7997
  155.9822  140.1162  157.0706 H   0  0  0  0  0  0  0  0  0  0  0  0  # atno 8010 bound_to 7997
  140.6679  143.2692  151.4234 H   0  0  0  0  0  0  0  0  0  0  0  0  # atno 10167 bound_to 10162
  156.0359  130.5578  150.7582 H   0  0  0  0  0  0  0  0  0  0  0  0  # atno 10718 bound_to 10713
  154.2052  135.6404  153.5098 H   0  0  0  0  0  0  0  0  0  0  0  0  # atno 10763 bound_to 10752
  153.0002  135.5461  154.6274 H   0  0  0  0  0  0  0  0  0  0  0  0  # atno 10764 bound_to 10752
  154.5696  135.2916  155.0813 H   0  0  0  0  0  0  0  0  0  0  0  0  # atno 10765 bound_to 10752
  140.9905  134.0545  157.3660 H   0  0  0  0  0  0  0  0  0  0  0  0  # atno 11005 bound_to 11000
  146.1871  139.5092  142.9829 LP  0  0  0  0  0  0  0  0  0  0  0  0  # atno 17320 bound_to 7965
  145.6299  141.0306  143.1869 LP  0  0  0  0  0  0  0  0  0  0  0  0  # atno 17321 bound_to 7965
  139.5935  144.1448  152.2116 LP  0  0  0  0  0  0  0  0  0  0  0  0  # atno 17342 bound_to 10162
  140.0810  144.5700  150.7122 LP  0  0  0  0  0  0  0  0  0  0  0  0  # atno 17343 bound_to 10162
  157.5108  131.0925  151.0200 LP  0  0  0  0  0  0  0  0  0  0  0  0  # atno 17370 bound_to 10713
  157.0556  130.5804  149.5377 LP  0  0  0  0  0  0  0  0  0  0  0  0  # atno 17371 bound_to 10713
  139.8990  135.0157  156.7175 LP  0  0  0  0  0  0  0  0  0  0  0  0  # atno 17394 bound_to 11000
  140.7047  133.9275  155.8046 LP  0  0  0  0  0  0  0  0  0  0  0  0  # atno 17395 bound_to 11000

$$$$
