AV-unprocessed.smi:249|AV-procd|sdf|1910|dock3
  -GOLD-   2262021 03D 1   1.00000     0.00000
 Structure written by MMmdl.
 64 67  0  0  0  0  0  0  0  0  2 V2000
  145.8810  131.8837  151.6990 C   0  0  0  0  0  0  0  0  0  0  0  0
  146.5786  133.1967  151.3075 C   0  0  0  0  0  0  0  0  0  0  0  0
  147.3839  133.7984  152.4101 N   0  3  2  0  0  0  0  0  0  0  0  0
  148.4521  132.8728  152.8862 C   0  0  0  0  0  0  0  0  0  0  0  0
  149.3640  133.5274  153.9327 C   0  0  0  0  0  0  0  0  0  0  0  0
  148.5433  134.0177  155.1364 C   0  0  1  0  0  0  0  0  0  0  0  0
  149.3671  134.5802  156.2155 N   0  0  0  0  0  0  0  0  0  0  0  0
  150.1728  133.6445  156.9926 C   0  0  0  0  0  0  0  0  0  0  0  0
  149.9837  135.7634  155.9788 C   0  0  0  0  0  0  0  0  0  0  0  0
  150.1859  136.1766  154.6998 N   0  0  0  0  0  0  0  0  0  0  0  0
  150.7868  137.3464  154.4617 C   0  0  0  0  0  0  0  0  0  0  0  0
  151.2574  138.2366  155.3377 N   0  0  0  0  0  0  0  0  0  0  0  0
  151.0676  137.8179  156.6219 C   0  0  0  0  0  0  0  0  0  0  0  0
  150.4424  136.6058  157.0271 C   0  0  0  0  0  0  0  0  0  0  0  0
  150.4196  136.5209  158.4132 N   0  0  0  0  0  0  0  0  0  0  0  0
  150.9924  137.6254  158.8073 C   0  0  0  0  0  0  0  0  0  0  0  0
  151.4313  138.4525  157.7970 N   0  0  0  0  0  0  0  0  0  0  0  0
  152.0921  139.7364  157.9554 C   0  0  0  0  0  0  0  0  0  0  0  0
  152.1271  140.2773  159.4093 C   0  0  1  0  0  0  0  0  0  0  0  0
  153.4337  139.8107  160.0922 C   0  0  0  0  0  0  0  0  0  0  0  0
  154.5472  139.9438  159.2318 O   0  0  0  0  0  0  0  0  0  0  0  0
  151.9084  141.8137  159.5383 C   0  0  1  0  0  0  0  0  0  0  0  0
  153.0990  142.6905  159.1782 C   0  0  0  0  0  0  0  0  0  0  0  0
  152.4598  144.0486  158.9025 C   0  0  0  0  0  0  0  0  0  0  0  0
  151.1265  143.7813  158.4871 O   0  0  0  0  0  0  0  0  0  0  0  0
  150.8704  142.3854  158.5656 C   0  0  0  0  0  0  0  0  0  0  0  0
  147.4511  134.9725  154.6230 C   0  0  0  0  0  0  0  0  0  0  0  0
  146.5574  134.3135  153.5509 C   0  0  1  0  0  0  0  0  0  0  0  0
  145.4827  135.3318  153.1160 C   0  0  0  0  0  0  0  0  0  0  0  0
  145.4534  131.4051  150.8175 H   0  0  0  0  0  0  0  0  0  0  0  0
  145.0606  132.0402  152.3985 H   0  0  0  0  0  0  0  0  0  0  0  0
  146.5834  131.1793  152.1459 H   0  0  0  0  0  0  0  0  0  0  0  0
  147.2189  132.9483  150.4644 H   0  0  0  0  0  0  0  0  0  0  0  0
  145.8489  133.9205  150.9417 H   0  0  0  0  0  0  0  0  0  0  0  0
  147.9952  131.9722  153.2996 H   0  0  0  0  0  0  0  0  0  0  0  0
  149.0825  132.5533  152.0583 H   0  0  0  0  0  0  0  0  0  0  0  0
  150.1169  132.8065  154.2517 H   0  0  0  0  0  0  0  0  0  0  0  0
  149.9019  134.3567  153.4721 H   0  0  0  0  0  0  0  0  0  0  0  0
  148.0382  133.1524  155.5682 H   0  0  0  0  0  0  0  0  0  0  0  0
  150.5725  134.1288  157.8845 H   0  0  0  0  0  0  0  0  0  0  0  0
  151.0095  133.2578  156.4102 H   0  0  0  0  0  0  0  0  0  0  0  0
  149.5660  132.7991  157.3174 H   0  0  0  0  0  0  0  0  0  0  0  0
  150.9078  137.6070  153.4204 H   0  0  0  0  0  0  0  0  0  0  0  0
  151.1245  137.8619  159.8533 H   0  0  0  0  0  0  0  0  0  0  0  0
  153.1090  139.6199  157.5788 H   0  0  0  0  0  0  0  0  0  0  0  0
  151.6052  140.4588  157.2990 H   0  0  0  0  0  0  0  0  0  0  0  0
  151.3211  139.7914  159.9598 H   0  0  0  0  0  0  0  0  0  0  0  0
  153.6247  140.3750  161.0048 H   0  0  0  0  0  0  0  0  0  0  0  0
  153.3519  138.7666  160.3959 H   0  0  0  0  0  0  0  0  0  0  0  0
  155.1690  140.5316  159.6329 H   0  0  0  0  0  0  0  0  0  0  0  0
  151.5952  142.0533  160.5557 H   0  0  0  0  0  0  0  0  0  0  0  0
  153.8463  142.7606  159.9664 H   0  0  0  0  0  0  0  0  0  0  0  0
  153.5872  142.3184  158.2763 H   0  0  0  0  0  0  0  0  0  0  0  0
  152.4240  144.6480  159.8127 H   0  0  0  0  0  0  0  0  0  0  0  0
  153.0054  144.6134  158.1464 H   0  0  0  0  0  0  0  0  0  0  0  0
  150.9981  141.9572  157.5702 H   0  0  0  0  0  0  0  0  0  0  0  0
  149.8447  142.1989  158.8850 H   0  0  0  0  0  0  0  0  0  0  0  0
  146.8336  135.2930  155.4629 H   0  0  0  0  0  0  0  0  0  0  0  0
  147.8997  135.8738  154.2023 H   0  0  0  0  0  0  0  0  0  0  0  0
  146.0493  133.4625  154.0077 H   0  0  0  0  0  0  0  0  0  0  0  0
  145.0179  135.8014  153.9838 H   0  0  0  0  0  0  0  0  0  0  0  0
  144.6710  134.8669  152.5574 H   0  0  0  0  0  0  0  0  0  0  0  0
  145.9099  136.1273  152.5046 H   0  0  0  0  0  0  0  0  0  0  0  0
  147.8518  134.6019  152.0153 H   0  0  0  0  0  0  0  0  0  0  0  0
  1  2  1  0  0  0  0
  1 30  1  0  0  0  0
  1 31  1  0  0  0  0
  1 32  1  0  0  0  0
  2  3  1  0  0  0  0
  2 33  1  0  0  0  0
  2 34  1  0  0  0  0
  3 28  1  0  0  0  0
  3  4  1  0  0  0  0
  3 64  1  0  0  0  0
  4  5  1  0  0  0  0
  4 35  1  0  0  0  0
  4 36  1  0  0  0  0
  5  6  1  0  0  0  0
  5 37  1  0  0  0  0
  5 38  1  0  0  0  0
  6  7  1  0  0  0  0
  6 27  1  0  0  0  0
  6 39  1  0  0  0  0
  7  8  1  0  0  0  0
  7  9  1  0  0  0  0
  8 40  1  0  0  0  0
  8 41  1  0  0  0  0
  8 42  1  0  0  0  0
  9 14  1  0  0  0  0
  9 10  2  0  0  0  0
 10 11  1  0  0  0  0
 11 12  2  0  0  0  0
 11 43  1  0  0  0  0
 12 13  1  0  0  0  0
 13 17  1  0  0  0  0
 13 14  2  0  0  0  0
 14 15  1  0  0  0  0
 15 16  2  0  0  0  0
 16 17  1  0  0  0  0
 16 44  1  0  0  0  0
 17 18  1  0  0  0  0
 18 19  1  0  0  0  0
 18 45  1  0  0  0  0
 18 46  1  0  0  0  0
 19 20  1  0  0  0  0
 19 22  1  0  0  0  0
 19 47  1  0  0  0  0
 20 21  1  0  0  0  0
 20 48  1  0  0  0  0
 20 49  1  0  0  0  0
 21 50  1  0  0  0  0
 22 26  1  0  0  0  0
 22 23  1  0  0  0  0
 22 51  1  0  0  0  0
 23 24  1  0  0  0  0
 23 52  1  0  0  0  0
 23 53  1  0  0  0  0
 24 25  1  0  0  0  0
 24 54  1  0  0  0  0
 24 55  1  0  0  0  0
 25 26  1  0  0  0  0
 26 56  1  0  0  0  0
 26 57  1  0  0  0  0
 27 28  1  0  0  0  0
 27 58  1  0  0  0  0
 27 59  1  0  0  0  0
 28 29  1  0  0  0  0
 28 60  1  0  0  0  0
 29 61  1  0  0  0  0
 29 62  1  0  0  0  0
 29 63  1  0  0  0  0
M  CHG  1   3   1
M  END
> <s_m_source_file>
AV-unprocessed.smi

> <i_m_source_file_index>
249

> <i_lp_mmshare_version>
43012

> <i_f3d_flags>
0

> <s_epik_input>
W0NIM11bQ0gyXU4xW0NIMl1bQ0gyXVtDQEhdKFtDSDJdW0NASF0xW0NIM10pTihbQ0gzXSljKG5bY0hdbjIpYyhjMjMpbltjSF1uM1tDSDJdW0NASF0oW0NIMl1bT0hdKVtDQEBIXTRbQ0gyXVtDSDJdT1tDSDJdNA==

> <s_epik_cmdline>
J2VwaWtfcHl0aG9uJywgJy1waCcsICc3LjAnLCAnLXRuJywgJzgnLCAnLW1hJywgJzIwMCcsICctbWV0YWxfYmluZGluZycsICctaW1hZScsICc8aW5maWxlLm1hZT4nLCAnLW9tYWUnLCAnPG91dGZpbGUubWFlPic=

> <r_lp_tautomer_probability>
1

> <r_epik_Ionization_Penalty>
0.00294688

> <r_epik_Ionization_Penalty_Charging>
0.00169971

> <r_epik_Ionization_Penalty_Neutral>
0.00124717

> <r_epik_State_Penalty>
-0

> <r_epik_Charging_Adjusted_Penalty>
0.00169971

> <i_epik_Tot_Q>
1

> <i_epik_Tot_abs_Q>
1

> <r_epik_Metal_State_Penalty>
-0

> <b_epik_Metal_Only>
0

> <s_lp_Force_Field>
OPLS_2005

> <r_lp_Energy>
54.6385

> <b_lp_Chiralities_Consistent>
1

> <s_lp_Variant>
AV-unprocessed.smi:249-13

> <Gold.Version>
5.8.1

> <Gold.Id.Protein>
6NUR|6NUR_protein|mol2

> <Gold.PLP.Fitness>
54.6740

> <Gold.PLP.PLP>
-42.1151

> <Gold.PLP.part.hbond>
-3.0000

> <Gold.PLP.part.metal>
0.0000

> <Gold.PLP.part.buried>
-6.3595

> <Gold.PLP.part.nonpolar>
-35.3788

> <Gold.PLP.part.repulsive>
0.5401

> <Gold.PLP.ligand.clash>
0.0000

> <Gold.PLP.ligand.torsion>
1.4779

> <Gold.PLP.Chemscore.Hbond>
3.8960

> <Gold.PLP.Chemscore.CHOScore>
0.9490

> <Gold.PLP.Chemscore.Metal>
0.0000

> <Gold.Chemscore.Hbonds>
donor molecule, donor type, donor heavy atom, donor atom, acceptor molecule, acceptor atom, score
      L1  H     3    64       P1  7948  2.00
      P1  H  6896  6908       L1    15  0.76
      P1  H  7997  8010       L1    21  1.00
      L1  C    11    43       P1  7948  0.08
      L1  C    11    43       P1  7949  0.91

> <Gold.PLP.Chemscore.Internal.Correction>
0.9796

> <Gold.Rescore>
     Score         DG    S(hbond)    S(metal)    S(lipo)     H(rot)  DE(clash)    DE(int)     intcor
     15.04     -18.16       2.44        0.00     102.11       2.90       0.09       3.03       ----

> <Gold.Chemscore.Fitness>
15.0400

> <Gold.Chemscore.DG>
-18.1643

> <Gold.Chemscore.ZeroCoef>
-5.4800

> <Gold.Chemscore.Hbond>
2.4441

> <Gold.Chemscore.Metal>
0.0000

> <Gold.Chemscore.Lipo>
102.1096

> <Gold.Chemscore.Internal_Hbond>
0.0000

> <Gold.Chemscore.DEClash>
0.0902

> <Gold.Chemscore.DEInternal>
3.0341

> <Gold.Chemscore.Rot>
2.9006

> <Gold.Chemscore.Internal.Correction>
   9.000000E+99

> <Gold.Chemscore.Hbonds>
donor molecule, donor type, donor heavy atom, donor atom, acceptor molecule, acceptor atom, score
      L1  H     3    64       P1  7948  0.35
      P1  H  6896  6908       L1    15  0.51
      P1  H  7997  8010       L1    21  0.29

> <Gold.Chemscore.Hbond.Weighted>
-8.1632

> <Gold.Chemscore.Metal.Weighted>
-0.0000

> <Gold.Chemscore.Lipo.Weighted>
-11.9468

> <Gold.Chemscore.Internal_Hbond.Weighted>
0.0000

> <Gold.Chemscore.DEClash.Weighted>
0.0902

> <Gold.Chemscore.DEInternal.Weighted>
3.0341

> <Gold.Chemscore.Rot.Weighted>
7.4256

> <Gold.Chemscore.Internal.Correction.Weighted>
   9.000000E+99

> <Gold.Protein.RotatedTorsions>
[ 6907 6896 6895 6894 ] final -160.98 input  -60.11 | X-H torsion
[ 7974 7965 7964 7962 ] final -176.15 input  175.53 | X-H torsion
[ 8008 7997 7996 7995 ] final    0.52 input   59.86 | X-H torsion
[ 10167 10162 10161 10158 ] final -122.21 input  -65.29 | X-H torsion
[ 10718 10713 10712 10709 ] final  -25.62 input   66.30 | X-H torsion
[ 10763 10752 10751 10750 ] final  112.03 input  -60.55 | X-H torsion
[ 11005 11000 10999 10996 ] final -102.42 input  -57.11 | X-H torsion

> <Gold.Protein.ActiveResidues>
 VAL166  LYS551  ARG553  GLY616  TRP617  ASP618  TYR619  PRO620  LYS621  CYS622 
 ASP623  PHE694  ASN695  SER759  ASP760  ASP761  ALA762  ILE779  LEU786  VAL792 
 PHE793  MET794  SER795  GLU796  ALA797  LYS798  CYS799  TRP800  GLU811  SER814 

> <Gold.Protein.RotatedAtoms>
  151.3575  133.3902  159.2686 H   0  0  0  0  0  0  0  0  0  0  0  0  # atno 6907 bound_to 6896
  150.9752  134.9118  159.7822 H   0  0  0  0  0  0  0  0  0  0  0  0  # atno 6908 bound_to 6896
  152.5198  134.3538  159.9313 H   0  0  0  0  0  0  0  0  0  0  0  0  # atno 6909 bound_to 6896
  144.7127  140.1213  143.6405 H   0  0  0  0  0  0  0  0  0  0  0  0  # atno 7974 bound_to 7965
  154.6691  140.2608  155.7026 H   0  0  0  0  0  0  0  0  0  0  0  0  # atno 8008 bound_to 7997
  156.2651  140.2833  156.1115 H   0  0  0  0  0  0  0  0  0  0  0  0  # atno 8009 bound_to 7997
  155.1195  140.0377  157.2736 H   0  0  0  0  0  0  0  0  0  0  0  0  # atno 8010 bound_to 7997
  140.0167  143.5386  152.2239 H   0  0  0  0  0  0  0  0  0  0  0  0  # atno 10167 bound_to 10162
  156.4620  130.4506  149.6923 H   0  0  0  0  0  0  0  0  0  0  0  0  # atno 10718 bound_to 10713
  153.4719  135.3699  155.2395 H   0  0  0  0  0  0  0  0  0  0  0  0  # atno 10763 bound_to 10752
  154.8757  135.3933  154.3802 H   0  0  0  0  0  0  0  0  0  0  0  0  # atno 10764 bound_to 10752
  153.4392  135.7084  153.6245 H   0  0  0  0  0  0  0  0  0  0  0  0  # atno 10765 bound_to 10752
  141.1190  133.8557  157.1357 H   0  0  0  0  0  0  0  0  0  0  0  0  # atno 11005 bound_to 11000
  145.9368  139.2642  143.1292 LP  0  0  0  0  0  0  0  0  0  0  0  0  # atno 17320 bound_to 7965
  145.9465  140.8940  143.0281 LP  0  0  0  0  0  0  0  0  0  0  0  0  # atno 17321 bound_to 7965
  139.6167  144.7621  151.2830 LP  0  0  0  0  0  0  0  0  0  0  0  0  # atno 17342 bound_to 10162
  140.7359  143.6723  150.8071 LP  0  0  0  0  0  0  0  0  0  0  0  0  # atno 17343 bound_to 10162
  156.3706  130.7529  151.2511 LP  0  0  0  0  0  0  0  0  0  0  0  0  # atno 17370 bound_to 10713
  157.7497  131.0324  150.4225 LP  0  0  0  0  0  0  0  0  0  0  0  0  # atno 17371 bound_to 10713
  140.0133  134.9979  157.0440 LP  0  0  0  0  0  0  0  0  0  0  0  0  # atno 17394 bound_to 11000
  140.4563  134.1530  155.7186 LP  0  0  0  0  0  0  0  0  0  0  0  0  # atno 17395 bound_to 11000

$$$$
