AV-unprocessed.smi:2124|AV-procd|sdf|8672|dock2
  -GOLD-   2272011423D 1   1.00000     0.00000
 Structure written by MMmdl.
 46 48  0  0  0  0  0  0  0  0  2 V2000
  149.4377  133.7512  156.0096 C   0  0  0  0  0  0  0  0  0  0  0  0
  149.5602  135.2433  155.7866 C   0  0  0  0  0  0  0  0  0  0  0  0
  148.5186  135.9752  155.9003 N   0  0  0  0  0  0  0  0  0  0  0  0
  148.6241  137.3632  155.7097 C   0  0  0  0  0  0  0  0  0  0  0  0
  147.3408  138.1553  155.8894 C   0  0  0  0  0  0  0  0  0  0  0  0
  149.8187  137.9446  155.4004 C   0  0  0  0  0  0  0  0  0  0  0  0
  149.9949  139.4549  155.2300 C   0  0  0  0  0  0  0  0  0  0  0  0
  151.1991  140.0388  155.9700 C   0  0  0  0  0  0  0  0  0  0  0  0
  152.3029  140.0795  155.4268 O   0  0  0  0  0  0  0  0  0  0  0  0
  150.9529  140.5258  157.1951 N   0  0  0  0  0  0  0  0  0  0  0  0
  151.8480  141.3727  157.9746 C   0  0  2  0  0  0  0  0  0  0  0  0
  151.8981  140.8768  159.4281 C   0  0  0  0  0  0  0  0  0  0  0  0
  151.3722  142.8413  157.8692 C   0  0  1  0  0  0  0  0  0  0  0  0
  150.2079  143.2147  158.8133 C   0  0  0  0  0  0  0  0  0  0  0  0
  150.7138  144.5012  159.4940 C   0  0  1  0  0  0  0  0  0  0  0  0
  151.8091  144.1365  160.5133 C   0  0  0  0  0  0  0  0  0  0  0  0
  153.0019  143.7694  159.6117 C   0  0  0  0  0  0  0  0  0  0  0  0
  152.4203  143.9381  158.1934 C   0  0  2  0  0  0  0  0  0  0  0  0
  151.5250  145.1575  158.3827 C   0  0  0  0  0  0  0  0  0  0  0  0
  150.9950  137.0650  155.2763 C   0  0  0  0  0  0  0  0  0  0  0  0
  152.0994  137.5390  155.0133 O   0  0  0  0  0  0  0  0  0  0  0  0
  150.8107  135.7293  155.4773 N   0  5  0  0  0  0  0  0  0  0  0  0
  148.4366  133.4025  155.7534 H   0  0  0  0  0  0  0  0  0  0  0  0
  149.6291  133.5126  157.0558 H   0  0  0  0  0  0  0  0  0  0  0  0
  150.1536  133.2054  155.3937 H   0  0  0  0  0  0  0  0  0  0  0  0
  147.4509  138.8904  156.6866 H   0  0  0  0  0  0  0  0  0  0  0  0
  146.5073  137.5025  156.1518 H   0  0  0  0  0  0  0  0  0  0  0  0
  147.0804  138.6765  154.9683 H   0  0  0  0  0  0  0  0  0  0  0  0
  150.0668  139.7270  154.1766 H   0  0  0  0  0  0  0  0  0  0  0  0
  149.0932  139.9540  155.5857 H   0  0  0  0  0  0  0  0  0  0  0  0
  150.0148  140.4174  157.5545 H   0  0  0  0  0  0  0  0  0  0  0  0
  152.8562  141.3053  157.5625 H   0  0  0  0  0  0  0  0  0  0  0  0
  152.5758  141.4833  160.0292 H   0  0  0  0  0  0  0  0  0  0  0  0
  152.2500  139.8459  159.4786 H   0  0  0  0  0  0  0  0  0  0  0  0
  150.9136  140.9153  159.8955 H   0  0  0  0  0  0  0  0  0  0  0  0
  151.0439  143.0095  156.8415 H   0  0  0  0  0  0  0  0  0  0  0  0
  149.2997  143.4057  158.2405 H   0  0  0  0  0  0  0  0  0  0  0  0
  149.9806  142.4354  159.5418 H   0  0  0  0  0  0  0  0  0  0  0  0
  149.9171  145.1177  159.9113 H   0  0  0  0  0  0  0  0  0  0  0  0
  152.0558  144.9910  161.1444 H   0  0  0  0  0  0  0  0  0  0  0  0
  151.5116  143.3137  161.1643 H   0  0  0  0  0  0  0  0  0  0  0  0
  153.8262  144.4664  159.7684 H   0  0  0  0  0  0  0  0  0  0  0  0
  153.3861  142.7688  159.8055 H   0  0  0  0  0  0  0  0  0  0  0  0
  153.1830  144.0578  157.4229 H   0  0  0  0  0  0  0  0  0  0  0  0
  150.9326  145.4034  157.4997 H   0  0  0  0  0  0  0  0  0  0  0  0
  152.0677  146.0470  158.7080 H   0  0  0  0  0  0  0  0  0  0  0  0
  1  2  1  0  0  0  0
  1 23  1  0  0  0  0
  1 24  1  0  0  0  0
  1 25  1  0  0  0  0
  2 22  1  0  0  0  0
  2  3  2  0  0  0  0
  3  4  1  0  0  0  0
  4  5  1  0  0  0  0
  4  6  2  0  0  0  0
  5 26  1  0  0  0  0
  5 27  1  0  0  0  0
  5 28  1  0  0  0  0
  6  7  1  0  0  0  0
  6 20  1  0  0  0  0
  7  8  1  0  0  0  0
  7 29  1  0  0  0  0
  7 30  1  0  0  0  0
  8  9  2  0  0  0  0
  8 10  1  0  0  0  0
 10 11  1  0  0  0  0
 10 31  1  0  0  0  0
 11 12  1  0  0  0  0
 11 13  1  0  0  0  0
 11 32  1  0  0  0  0
 12 33  1  0  0  0  0
 12 34  1  0  0  0  0
 12 35  1  0  0  0  0
 13 18  1  0  0  0  0
 13 14  1  0  0  0  0
 13 36  1  0  0  0  0
 14 15  1  0  0  0  0
 14 37  1  0  0  0  0
 14 38  1  0  0  0  0
 15 19  1  0  0  0  0
 15 16  1  0  0  0  0
 15 39  1  0  0  0  0
 16 17  1  0  0  0  0
 16 40  1  0  0  0  0
 16 41  1  0  0  0  0
 17 18  1  0  0  0  0
 17 42  1  0  0  0  0
 17 43  1  0  0  0  0
 18 19  1  0  0  0  0
 18 44  1  0  0  0  0
 19 45  1  0  0  0  0
 19 46  1  0  0  0  0
 20 21  2  0  0  0  0
 20 22  1  0  0  0  0
M  CHG  1  22  -1
M  END
> <s_m_source_file>
AV-unprocessed.smi

> <i_m_source_file_index>
2124

> <i_lp_mmshare_version>
43012

> <i_f3d_flags>
0

> <s_epik_input>
W0NIM11jMW5jKFtDSDNdKWMoYyg9TylbbkhdMSlbQ0gyXUMoPU8pW05IXVtDQEhdKFtDSDNdKVtDQEhdKFtDSDJdW0NASF0yMylbQ0BIXShbQ0gyXTMpW0NIMl1bQ0gyXTI=

> <s_epik_cmdline>
J2VwaWtfcHl0aG9uJywgJy1waCcsICc3LjAnLCAnLXRuJywgJzgnLCAnLW1hJywgJzIwMCcsICctbWV0YWxfYmluZGluZycsICctaW1hZScsICc8aW5maWxlLm1hZT4nLCAnLW9tYWUnLCAnPG91dGZpbGUubWFlPic=

> <r_lp_tautomer_probability>
0.839158

> <r_epik_Ionization_Penalty>
6.63797

> <r_epik_Ionization_Penalty_Charging>
7.48558e-08

> <r_epik_Ionization_Penalty_Neutral>
6.63797

> <r_epik_State_Penalty>
4.49496

> <r_epik_Charging_Adjusted_Penalty>
4.49496

> <i_epik_Tot_Q>
-1

> <i_epik_Tot_abs_Q>
1

> <r_epik_Metal_State_Penalty>
0.841241

> <b_epik_Metal_Only>
1

> <s_lp_Force_Field>
OPLS_2005

> <r_lp_Energy>
53.1649

> <b_lp_Chiralities_Consistent>
1

> <s_lp_Variant>
AV-unprocessed.smi:2124-23

> <Gold.Version>
5.8.1

> <Gold.Id.Protein>
6NUR|6NUR_protein|mol2

> <Gold.PLP.Fitness>
47.9074

> <Gold.PLP.PLP>
-41.1444

> <Gold.PLP.part.hbond>
-4.0000

> <Gold.PLP.part.metal>
0.0000

> <Gold.PLP.part.buried>
-2.0164

> <Gold.PLP.part.nonpolar>
-35.4216

> <Gold.PLP.part.repulsive>
0.4581

> <Gold.PLP.ligand.clash>
0.0000

> <Gold.PLP.ligand.torsion>
1.1284

> <Gold.PLP.Chemscore.Hbond>
2.9929

> <Gold.PLP.Chemscore.CHOScore>
0.0000

> <Gold.PLP.Chemscore.Metal>
0.0000

> <Gold.Chemscore.Hbonds>
donor molecule, donor type, donor heavy atom, donor atom, acceptor molecule, acceptor atom, score
      P1  H  7989  7998       L1     9  0.39
      P1  H  7997  8009       L1     9  0.62
      P1  H 10752 10763       L1    21  0.24

> <Gold.PLP.Chemscore.Internal.Correction>
0.0412

> <Gold.Rescore>
     Score         DG    S(hbond)    S(metal)    S(lipo)     H(rot)  DE(clash)    DE(int)     intcor
     16.50     -20.18       1.88        0.00     107.21       1.61       0.19       3.49       ----

> <Gold.Chemscore.Fitness>
16.5034

> <Gold.Chemscore.DG>
-20.1837

> <Gold.Chemscore.ZeroCoef>
-5.4800

> <Gold.Chemscore.Hbond>
1.8769

> <Gold.Chemscore.Metal>
0.0000

> <Gold.Chemscore.Lipo>
107.2112

> <Gold.Chemscore.Internal_Hbond>
0.0000

> <Gold.Chemscore.DEClash>
0.1867

> <Gold.Chemscore.DEInternal>
3.4936

> <Gold.Chemscore.Rot>
1.6051

> <Gold.Chemscore.Internal.Correction>
   9.000000E+99

> <Gold.Chemscore.Hbonds>
donor molecule, donor type, donor heavy atom, donor atom, acceptor molecule, acceptor atom, score
      P1  H  7989  7998       L1     9  0.08
      P1  H  7997  8009       L1     9  0.60
      P1  H 10752 10763       L1    21  0.02

> <Gold.Chemscore.Hbond.Weighted>
-6.2690

> <Gold.Chemscore.Metal.Weighted>
-0.0000

> <Gold.Chemscore.Lipo.Weighted>
-12.5437

> <Gold.Chemscore.Internal_Hbond.Weighted>
0.0000

> <Gold.Chemscore.DEClash.Weighted>
0.1867

> <Gold.Chemscore.DEInternal.Weighted>
3.4936

> <Gold.Chemscore.Rot.Weighted>
4.1090

> <Gold.Chemscore.Internal.Correction.Weighted>
   9.000000E+99

> <Gold.Protein.RotatedTorsions>
[ 6907 6896 6895 6894 ] final  -55.34 input  -60.11 | X-H torsion
[ 7974 7965 7964 7962 ] final -145.28 input  175.53 | X-H torsion
[ 8008 7997 7996 7995 ] final -137.49 input   59.86 | X-H torsion
[ 10167 10162 10161 10158 ] final  166.10 input  -65.29 | X-H torsion
[ 10718 10713 10712 10709 ] final -166.89 input   66.30 | X-H torsion
[ 10763 10752 10751 10750 ] final   76.39 input  -60.55 | X-H torsion
[ 11005 11000 10999 10996 ] final -100.25 input  -57.11 | X-H torsion

> <Gold.Protein.ActiveResidues>
 VAL166  LYS551  ARG553  GLY616  TRP617  ASP618  TYR619  PRO620  LYS621  CYS622 
 ASP623  PHE694  ASN695  SER759  ASP760  ASP761  ALA762  ILE779  LEU786  VAL792 
 PHE793  MET794  SER795  GLU796  ALA797  LYS798  CYS799  TRP800  GLU811  SER814 

> <Gold.Protein.RotatedAtoms>
  150.8260  134.7491  159.6812 H   0  0  0  0  0  0  0  0  0  0  0  0  # atno 6907 bound_to 6896
  152.4371  134.5662  159.9918 H   0  0  0  0  0  0  0  0  0  0  0  0  # atno 6908 bound_to 6896
  151.5834  133.3337  159.3049 H   0  0  0  0  0  0  0  0  0  0  0  0  # atno 6909 bound_to 6896
  144.8239  140.5604  143.5560 H   0  0  0  0  0  0  0  0  0  0  0  0  # atno 7974 bound_to 7965
  155.4126  140.0513  157.3031 H   0  0  0  0  0  0  0  0  0  0  0  0  # atno 8008 bound_to 7997
  154.4939  140.2131  155.9448 H   0  0  0  0  0  0  0  0  0  0  0  0  # atno 8009 bound_to 7997
  156.1379  140.3160  155.8455 H   0  0  0  0  0  0  0  0  0  0  0  0  # atno 8010 bound_to 7997
  139.4918  144.4063  151.9351 H   0  0  0  0  0  0  0  0  0  0  0  0  # atno 10167 bound_to 10162
  156.6744  130.9097  151.3048 H   0  0  0  0  0  0  0  0  0  0  0  0  # atno 10718 bound_to 10713
  153.0722  135.4953  154.8328 H   0  0  0  0  0  0  0  0  0  0  0  0  # atno 10763 bound_to 10752
  154.7038  135.3006  154.9304 H   0  0  0  0  0  0  0  0  0  0  0  0  # atno 10764 bound_to 10752
  154.0019  135.6765  153.4812 H   0  0  0  0  0  0  0  0  0  0  0  0  # atno 10765 bound_to 10752
  141.1278  133.8384  157.1078 H   0  0  0  0  0  0  0  0  0  0  0  0  # atno 11005 bound_to 11000
  145.5044  139.1482  143.3639 LP  0  0  0  0  0  0  0  0  0  0  0  0  # atno 17320 bound_to 7965
  146.2544  140.5184  142.8880 LP  0  0  0  0  0  0  0  0  0  0  0  0  # atno 17321 bound_to 7965
  140.3503  144.3096  150.5950 LP  0  0  0  0  0  0  0  0  0  0  0  0  # atno 17342 bound_to 10162
  140.5490  143.2209  151.7958 LP  0  0  0  0  0  0  0  0  0  0  0  0  # atno 17343 bound_to 10162
  157.7066  130.9392  150.0951 LP  0  0  0  0  0  0  0  0  0  0  0  0  # atno 17370 bound_to 10713
  156.1915  130.3655  149.8904 LP  0  0  0  0  0  0  0  0  0  0  0  0  # atno 17371 bound_to 10713
  140.0293  134.9908  157.0749 LP  0  0  0  0  0  0  0  0  0  0  0  0  # atno 17394 bound_to 11000
  140.4310  134.1780  155.7168 LP  0  0  0  0  0  0  0  0  0  0  0  0  # atno 17395 bound_to 11000

$$$$
