AV-unprocessed.smi:2075|AV-procd|sdf|8456|dock5
  -GOLD-   2272011153D 1   1.00000     0.00000
 Structure written by MMmdl.
 37 38  0  0  0  0  0  0  0  0  1 V2000
  144.5088  137.5773  152.7176 O   0  0  0  0  0  0  0  0  0  0  0  0
  145.5679  136.9816  152.5195 C   0  0  0  0  0  0  0  0  0  0  0  0
  145.6102  135.4501  152.4478 C   0  0  0  0  0  0  0  0  0  0  0  0
  144.4007  134.8054  151.7409 C   0  0  0  0  0  0  0  0  0  0  0  0
  144.2398  135.3743  150.5465 F   0  0  0  0  0  0  0  0  0  0  0  0
  144.5899  133.4970  151.5648 F   0  0  0  0  0  0  0  0  0  0  0  0
  143.2881  134.9888  152.4535 F   0  0  0  0  0  0  0  0  0  0  0  0
  146.7415  137.6114  152.3527 N   0  0  0  0  0  0  0  0  0  0  0  0
  146.9217  139.0598  152.3687 C   0  0  0  0  0  0  0  0  0  0  0  0
  147.8053  139.5670  153.4995 C   0  0  0  0  0  0  0  0  0  0  0  0
  147.9579  140.9495  153.7178 C   0  0  0  0  0  0  0  0  0  0  0  0
  148.7788  141.3921  154.7726 C   0  0  0  0  0  0  0  0  0  0  0  0
  149.4317  140.4356  155.5920 C   0  0  0  0  0  0  0  0  0  0  0  0
  150.2663  140.8105  156.6706 N   0  0  0  0  0  0  0  0  0  0  0  0
  150.2921  142.2120  157.0828 C   0  0  0  0  0  0  0  0  0  0  0  0
  150.9836  142.3652  158.4482 C   0  0  0  0  0  0  0  0  0  0  0  0
  152.2769  141.7746  158.4028 O   0  0  0  0  0  0  0  0  0  0  0  0
  152.2056  140.3786  158.1371 C   0  0  0  0  0  0  0  0  0  0  0  0
  151.5646  140.1415  156.7591 C   0  0  0  0  0  0  0  0  0  0  0  0
  149.2713  139.1062  155.3812 N   0  0  0  0  0  0  0  0  0  0  0  0
  148.4837  138.6877  154.3691 C   0  0  0  0  0  0  0  0  0  0  0  0
  146.5235  135.1532  151.9297 H   0  0  0  0  0  0  0  0  0  0  0  0
  145.6917  135.0620  153.4638 H   0  0  0  0  0  0  0  0  0  0  0  0
  147.5665  137.0499  152.1986 H   0  0  0  0  0  0  0  0  0  0  0  0
  147.3206  139.3901  151.4078 H   0  0  0  0  0  0  0  0  0  0  0  0
  145.9401  139.5229  152.4701 H   0  0  0  0  0  0  0  0  0  0  0  0
  147.4571  141.6661  153.0835 H   0  0  0  0  0  0  0  0  0  0  0  0
  148.8958  142.4546  154.9205 H   0  0  0  0  0  0  0  0  0  0  0  0
  150.8161  142.7995  156.3278 H   0  0  0  0  0  0  0  0  0  0  0  0
  149.2776  142.6036  157.1633 H   0  0  0  0  0  0  0  0  0  0  0  0
  151.0835  143.4207  158.7008 H   0  0  0  0  0  0  0  0  0  0  0  0
  150.3888  141.9045  159.2387 H   0  0  0  0  0  0  0  0  0  0  0  0
  153.2126  139.9618  158.1575 H   0  0  0  0  0  0  0  0  0  0  0  0
  151.6378  139.8754  158.9214 H   0  0  0  0  0  0  0  0  0  0  0  0
  151.4783  139.0669  156.5988 H   0  0  0  0  0  0  0  0  0  0  0  0
  152.2133  140.5304  155.9732 H   0  0  0  0  0  0  0  0  0  0  0  0
  148.3946  137.6172  154.2562 H   0  0  0  0  0  0  0  0  0  0  0  0
  1  2  2  0  0  0  0
  2  3  1  0  0  0  0
  2  8  1  0  0  0  0
  3  4  1  0  0  0  0
  3 22  1  0  0  0  0
  3 23  1  0  0  0  0
  4  5  1  0  0  0  0
  4  6  1  0  0  0  0
  4  7  1  0  0  0  0
  8  9  1  0  0  0  0
  8 24  1  0  0  0  0
  9 10  1  0  0  0  0
  9 25  1  0  0  0  0
  9 26  1  0  0  0  0
 10 21  1  0  0  0  0
 10 11  2  0  0  0  0
 11 12  1  0  0  0  0
 11 27  1  0  0  0  0
 12 13  2  0  0  0  0
 12 28  1  0  0  0  0
 13 14  1  0  0  0  0
 13 20  1  0  0  0  0
 14 19  1  0  0  0  0
 14 15  1  0  0  0  0
 15 16  1  0  0  0  0
 15 29  1  0  0  0  0
 15 30  1  0  0  0  0
 16 17  1  0  0  0  0
 16 31  1  0  0  0  0
 16 32  1  0  0  0  0
 17 18  1  0  0  0  0
 18 19  1  0  0  0  0
 18 33  1  0  0  0  0
 18 34  1  0  0  0  0
 19 35  1  0  0  0  0
 19 36  1  0  0  0  0
 20 21  2  0  0  0  0
 21 37  1  0  0  0  0
M  END
> <s_m_source_file>
AV-unprocessed.smi

> <i_m_source_file_index>
2075

> <i_lp_mmshare_version>
43012

> <i_f3d_flags>
0

> <s_epik_input>
RkMoRikoRilbQ0gyXUMoPU8pW05IXVtDSDJdYzFbY0hdW2NIXWMobltjSF0xKU4yW0NIMl1bQ0gyXU9bQ0gyXVtDSDJdMg==

> <s_epik_cmdline>
J2VwaWtfcHl0aG9uJywgJy1waCcsICc3LjAnLCAnLXRuJywgJzgnLCAnLW1hJywgJzIwMCcsICctbWV0YWxfYmluZGluZycsICctaW1hZScsICc8aW5maWxlLm1hZT4nLCAnLW9tYWUnLCAnPG91dGZpbGUubWFlPic=

> <r_lp_tautomer_probability>
1

> <r_epik_Ionization_Penalty>
0.00347018

> <r_epik_Ionization_Penalty_Charging>
0

> <r_epik_Ionization_Penalty_Neutral>
0.00347018

> <r_epik_State_Penalty>
0.00246037

> <r_epik_Charging_Adjusted_Penalty>
0.00246037

> <i_epik_Tot_Q>
0

> <i_epik_Tot_abs_Q>
0

> <r_epik_Metal_State_Penalty>
-0

> <b_epik_Metal_Only>
0

> <s_lp_Force_Field>
OPLS_2005

> <r_lp_Energy>
11.9442

> <b_lp_Chiralities_Consistent>
1

> <s_lp_Variant>
AV-unprocessed.smi:2075-1

> <Gold.Version>
5.8.1

> <Gold.Id.Protein>
6NUR|6NUR_protein|mol2

> <Gold.PLP.Fitness>
39.1401

> <Gold.PLP.PLP>
-33.9237

> <Gold.PLP.part.hbond>
-1.0000

> <Gold.PLP.part.metal>
0.0000

> <Gold.PLP.part.buried>
-1.6276

> <Gold.PLP.part.nonpolar>
-31.3863

> <Gold.PLP.part.repulsive>
0.4185

> <Gold.PLP.ligand.clash>
0.0000

> <Gold.PLP.ligand.torsion>
0.6281

> <Gold.PLP.Chemscore.Hbond>
1.0000

> <Gold.PLP.Chemscore.CHOScore>
1.0000

> <Gold.PLP.Chemscore.Metal>
0.0000

> <Gold.Chemscore.Hbonds>
donor molecule, donor type, donor heavy atom, donor atom, acceptor molecule, acceptor atom, score
      L1  H     8    24       P1  7948  1.00
      L1  C    21    37       P1  7948  0.25

> <Gold.PLP.Chemscore.Internal.Correction>
0.4727

> <Gold.Rescore>
     Score         DG    S(hbond)    S(metal)    S(lipo)     H(rot)  DE(clash)    DE(int)     intcor
      8.38     -11.64       1.00        0.00      68.15       2.01       0.17       3.09       ----

> <Gold.Chemscore.Fitness>
8.3805

> <Gold.Chemscore.DG>
-11.6429

> <Gold.Chemscore.ZeroCoef>
-5.4800

> <Gold.Chemscore.Hbond>
0.9986

> <Gold.Chemscore.Metal>
0.0000

> <Gold.Chemscore.Lipo>
68.1496

> <Gold.Chemscore.Internal_Hbond>
0.0000

> <Gold.Chemscore.DEClash>
0.1682

> <Gold.Chemscore.DEInternal>
3.0942

> <Gold.Chemscore.Rot>
2.0101

> <Gold.Chemscore.Internal.Correction>
   9.000000E+99

> <Gold.Chemscore.Hbonds>
donor molecule, donor type, donor heavy atom, donor atom, acceptor molecule, acceptor atom, score
      L1  H     8    24       P1  7948  0.99

> <Gold.Chemscore.Hbond.Weighted>
-3.3352

> <Gold.Chemscore.Metal.Weighted>
-0.0000

> <Gold.Chemscore.Lipo.Weighted>
-7.9735

> <Gold.Chemscore.Internal_Hbond.Weighted>
0.0000

> <Gold.Chemscore.DEClash.Weighted>
0.1682

> <Gold.Chemscore.DEInternal.Weighted>
3.0942

> <Gold.Chemscore.Rot.Weighted>
5.1458

> <Gold.Chemscore.Internal.Correction.Weighted>
   9.000000E+99

> <Gold.Protein.RotatedTorsions>
[ 6907 6896 6895 6894 ] final  -85.37 input  -60.11 | X-H torsion
[ 7974 7965 7964 7962 ] final -162.90 input  175.53 | X-H torsion
[ 8008 7997 7996 7995 ] final  -11.40 input   59.86 | X-H torsion
[ 10167 10162 10161 10158 ] final -168.48 input  -65.29 | X-H torsion
[ 10718 10713 10712 10709 ] final   91.59 input   66.30 | X-H torsion
[ 10763 10752 10751 10750 ] final  -97.84 input  -60.55 | X-H torsion
[ 11005 11000 10999 10996 ] final   32.54 input  -57.11 | X-H torsion

> <Gold.Protein.ActiveResidues>
 VAL166  LYS551  ARG553  GLY616  TRP617  ASP618  TYR619  PRO620  LYS621  CYS622 
 ASP623  PHE694  ASN695  SER759  ASP760  ASP761  ALA762  ILE779  LEU786  VAL792 
 PHE793  MET794  SER795  GLU796  ALA797  LYS798  CYS799  TRP800  GLU811  SER814 

> <Gold.Protein.RotatedAtoms>
  150.6871  134.3215  159.4788 H   0  0  0  0  0  0  0  0  0  0  0  0  # atno 6907 bound_to 6896
  152.1089  134.9286  160.0576 H   0  0  0  0  0  0  0  0  0  0  0  0  # atno 6908 bound_to 6896
  152.0536  133.3995  159.4424 H   0  0  0  0  0  0  0  0  0  0  0  0  # atno 6909 bound_to 6896
  144.7342  140.3185  143.6175 H   0  0  0  0  0  0  0  0  0  0  0  0  # atno 7974 bound_to 7965
  154.5468  140.2303  155.8550 H   0  0  0  0  0  0  0  0  0  0  0  0  # atno 8008 bound_to 7997
  156.1910  140.3077  155.9294 H   0  0  0  0  0  0  0  0  0  0  0  0  # atno 8009 bound_to 7997
  155.3148  140.0437  157.3027 H   0  0  0  0  0  0  0  0  0  0  0  0  # atno 8010 bound_to 7997
  139.5982  144.1066  152.1714 H   0  0  0  0  0  0  0  0  0  0  0  0  # atno 10167 bound_to 10162
  157.6960  131.0413  150.3753 H   0  0  0  0  0  0  0  0  0  0  0  0  # atno 10718 bound_to 10713
  154.7362  135.5032  153.9046 H   0  0  0  0  0  0  0  0  0  0  0  0  # atno 10763 bound_to 10752
  153.0998  135.6682  153.9703 H   0  0  0  0  0  0  0  0  0  0  0  0  # atno 10764 bound_to 10752
  153.9492  135.3059  155.3418 H   0  0  0  0  0  0  0  0  0  0  0  0  # atno 10765 bound_to 10752
  140.2724  134.3067  155.7824 H   0  0  0  0  0  0  0  0  0  0  0  0  # atno 11005 bound_to 11000
  145.7593  139.1819  143.2276 LP  0  0  0  0  0  0  0  0  0  0  0  0  # atno 17320 bound_to 7965
  146.0999  140.7556  142.9554 LP  0  0  0  0  0  0  0  0  0  0  0  0  # atno 17321 bound_to 7965
  140.0656  144.5821  150.7230 LP  0  0  0  0  0  0  0  0  0  0  0  0  # atno 17342 bound_to 10162
  140.7229  143.2607  151.4218 LP  0  0  0  0  0  0  0  0  0  0  0  0  # atno 17343 bound_to 10162
  156.4173  130.3946  149.6850 LP  0  0  0  0  0  0  0  0  0  0  0  0  # atno 17370 bound_to 10713
  156.4113  130.7723  151.2736 LP  0  0  0  0  0  0  0  0  0  0  0  0  # atno 17371 bound_to 10713
  141.2175  133.7475  156.9355 LP  0  0  0  0  0  0  0  0  0  0  0  0  # atno 17394 bound_to 11000
  140.1360  134.9324  157.2403 LP  0  0  0  0  0  0  0  0  0  0  0  0  # atno 17395 bound_to 11000

$$$$
