AV-unprocessed.smi:218|AV-procd|sdf|1676|dock6
  -GOLD-   2262020103D 1   1.00000     0.00000
 Structure written by MMmdl.
 54 57  0  0  0  0  0  0  0  0  1 V2000
  152.0630  145.2835  159.9893 C   0  0  0  0  0  0  0  0  0  0  0  0
  152.3044  144.1005  159.0438 C   0  0  0  0  0  0  0  0  0  0  0  0
  151.9073  144.4529  157.5997 C   0  0  0  0  0  0  0  0  0  0  0  0
  151.5093  143.0150  159.5252 O   0  0  0  0  0  0  0  0  0  0  0  0
  151.7308  141.7326  159.0606 C   0  0  0  0  0  0  0  0  0  0  0  0
  151.3626  141.4300  157.7337 C   0  0  0  0  0  0  0  0  0  0  0  0
  151.5862  140.1273  157.2440 C   0  0  0  0  0  0  0  0  0  0  0  0
  151.2131  139.7616  155.8217 C   0  0  0  0  0  0  0  0  0  0  0  0
  150.5391  140.8414  155.1136 N   0  0  0  0  0  0  0  0  0  0  0  0
  149.3609  140.6136  154.4952 C   0  0  0  0  0  0  0  0  0  0  0  0
  148.7255  141.6024  153.8140 N   0  0  0  0  0  0  0  0  0  0  0  0
  147.5603  141.3529  153.2095 C   0  0  0  0  0  0  0  0  0  0  0  0
  146.8731  140.2098  153.1634 N   0  0  0  0  0  0  0  0  0  0  0  0
  147.5067  139.2114  153.8445 C   0  0  0  0  0  0  0  0  0  0  0  0
  148.7452  139.3357  154.5343 C   0  0  0  0  0  0  0  0  0  0  0  0
  149.0847  138.1217  155.1160 N   0  0  0  0  0  0  0  0  0  0  0  0
  148.1020  137.3281  154.7852 C   0  0  0  0  0  0  0  0  0  0  0  0
  147.1082  137.9000  154.0221 N   0  0  0  0  0  0  0  0  0  0  0  0
  145.8707  137.2297  153.5025 C   0  0  2  0  0  0  0  0  0  0  0  0
  145.8539  135.8934  153.9133 O   0  0  0  0  0  0  0  0  0  0  0  0
  145.8287  135.0200  152.7839 C   0  0  1  0  0  0  0  0  0  0  0  0
  145.0433  133.7454  153.1294 C   0  0  0  0  0  0  0  0  0  0  0  0
  143.7251  134.0754  153.5111 O   0  0  0  0  0  0  0  0  0  0  0  0
  145.1598  135.8773  151.7080 C   0  0  2  0  0  0  0  0  0  0  0  0
  145.3905  135.4121  150.3919 O   0  0  0  0  0  0  0  0  0  0  0  0
  145.7633  137.2499  151.9660 C   0  0  2  0  0  0  0  0  0  0  0  0
  147.0100  137.4295  151.3102 O   0  0  0  0  0  0  0  0  0  0  0  0
  152.1632  139.1724  158.1060 C   0  0  0  0  0  0  0  0  0  0  0  0
  152.4931  139.5664  159.4169 C   0  0  0  0  0  0  0  0  0  0  0  0
  152.2856  140.8135  159.8896 N   0  0  0  0  0  0  0  0  0  0  0  0
  145.0479  137.7548  153.9893 H   0  0  0  0  0  0  0  0  0  0  0  0
  146.8487  134.7825  152.4773 H   0  0  0  0  0  0  0  0  0  0  0  0
  144.0842  135.9162  151.8879 H   0  0  0  0  0  0  0  0  0  0  0  0
  145.0935  138.0526  151.6559 H   0  0  0  0  0  0  0  0  0  0  0  0
  152.6515  146.1516  159.6917 H   0  0  0  0  0  0  0  0  0  0  0  0
  152.3432  145.0285  161.0117 H   0  0  0  0  0  0  0  0  0  0  0  0
  151.0129  145.5771  159.9957 H   0  0  0  0  0  0  0  0  0  0  0  0
  153.3679  143.8615  159.0914 H   0  0  0  0  0  0  0  0  0  0  0  0
  152.4771  145.3081  157.2360 H   0  0  0  0  0  0  0  0  0  0  0  0
  150.8488  144.7060  157.5348 H   0  0  0  0  0  0  0  0  0  0  0  0
  152.0908  143.6251  156.9152 H   0  0  0  0  0  0  0  0  0  0  0  0
  150.9213  142.1892  157.1045 H   0  0  0  0  0  0  0  0  0  0  0  0
  152.1246  139.4901  155.2878 H   0  0  0  0  0  0  0  0  0  0  0  0
  150.5699  138.8803  155.8309 H   0  0  0  0  0  0  0  0  0  0  0  0
  150.9855  141.7466  155.1515 H   0  0  0  0  0  0  0  0  0  0  0  0
  147.1146  142.1869  152.6877 H   0  0  0  0  0  0  0  0  0  0  0  0
  148.0743  136.2928  155.0933 H   0  0  0  0  0  0  0  0  0  0  0  0
  145.0341  133.0458  152.2933 H   0  0  0  0  0  0  0  0  0  0  0  0
  145.5082  133.2353  153.9735 H   0  0  0  0  0  0  0  0  0  0  0  0
  143.2655  133.2783  153.7269 H   0  0  0  0  0  0  0  0  0  0  0  0
  145.0426  136.0516  149.7884 H   0  0  0  0  0  0  0  0  0  0  0  0
  147.6173  136.7857  151.6415 H   0  0  0  0  0  0  0  0  0  0  0  0
  152.3481  138.1613  157.7736 H   0  0  0  0  0  0  0  0  0  0  0  0
  152.9359  138.8611  160.1044 H   0  0  0  0  0  0  0  0  0  0  0  0
  1  2  1  0  0  0  0
  1 35  1  0  0  0  0
  1 36  1  0  0  0  0
  1 37  1  0  0  0  0
  2  3  1  0  0  0  0
  2  4  1  0  0  0  0
  2 38  1  0  0  0  0
  3 39  1  0  0  0  0
  3 40  1  0  0  0  0
  3 41  1  0  0  0  0
  4  5  1  0  0  0  0
  5 30  1  0  0  0  0
  5  6  2  0  0  0  0
  6  7  1  0  0  0  0
  6 42  1  0  0  0  0
  7  8  1  0  0  0  0
  7 28  2  0  0  0  0
  8  9  1  0  0  0  0
  8 43  1  0  0  0  0
  8 44  1  0  0  0  0
  9 10  1  0  0  0  0
  9 45  1  0  0  0  0
 10 15  1  0  0  0  0
 10 11  2  0  0  0  0
 11 12  1  0  0  0  0
 12 13  2  0  0  0  0
 12 46  1  0  0  0  0
 13 14  1  0  0  0  0
 14 18  1  0  0  0  0
 14 15  2  0  0  0  0
 15 16  1  0  0  0  0
 16 17  2  0  0  0  0
 17 18  1  0  0  0  0
 17 47  1  0  0  0  0
 18 19  1  0  0  0  0
 19 31  1  0  0  0  0
 19 26  1  0  0  0  0
 19 20  1  0  0  0  0
 20 21  1  0  0  0  0
 21 32  1  0  0  0  0
 21 22  1  0  0  0  0
 21 24  1  0  0  0  0
 22 23  1  0  0  0  0
 22 48  1  0  0  0  0
 22 49  1  0  0  0  0
 23 50  1  0  0  0  0
 24 33  1  0  0  0  0
 24 25  1  0  0  0  0
 24 26  1  0  0  0  0
 25 51  1  0  0  0  0
 26 34  1  0  0  0  0
 26 27  1  0  0  0  0
 27 52  1  0  0  0  0
 28 29  1  0  0  0  0
 28 53  1  0  0  0  0
 29 30  2  0  0  0  0
 29 54  1  0  0  0  0
M  END
> <s_m_source_file>
AV-unprocessed.smi

> <i_m_source_file_index>
218

> <i_lp_mmshare_version>
43012

> <i_f3d_flags>
0

> <s_epik_input>
W0NIM11bQ0hdKFtDSDNdKU9jMVtjSF1jKFtjSF1bY0hdbjEpW0NIMl1bTkhdYyhuW2NIXW4yKWMoYzIzKW5bY0hdbjNbQ0BASF00T1tDQEhdKFtDSDJdW09IXSlbQ0BASF0oW09IXSlbQ0BIXTRbT0hd

> <s_epik_cmdline>
J2VwaWtfcHl0aG9uJywgJy1waCcsICc3LjAnLCAnLXRuJywgJzgnLCAnLW1hJywgJzIwMCcsICctbWV0YWxfYmluZGluZycsICctaW1hZScsICc8aW5maWxlLm1hZT4nLCAnLW9tYWUnLCAnPG91dGZpbGUubWFlPic=

> <r_lp_tautomer_probability>
1

> <r_epik_Ionization_Penalty>
0.00457014

> <r_epik_Ionization_Penalty_Charging>
0

> <r_epik_Ionization_Penalty_Neutral>
0.00457014

> <r_epik_State_Penalty>
-0

> <r_epik_Charging_Adjusted_Penalty>
0

> <i_epik_Tot_Q>
0

> <i_epik_Tot_abs_Q>
0

> <r_epik_Metal_State_Penalty>
-0

> <b_epik_Metal_Only>
0

> <s_epik_Chemistry_Notes>
This compound contains an acetal/aminal-like group ( X-CH(R)-Y where X, Y are N, S, or O) that may be acid/base labile, releasing an aldehyde.

> <s_lp_Force_Field>
OPLS_2005

> <r_lp_Energy>
48.139

> <b_lp_Chiralities_Consistent>
1

> <s_lp_Variant>
AV-unprocessed.smi:218-15

> <Gold.Version>
5.8.1

> <Gold.Id.Protein>
6NUR|6NUR_protein|mol2

> <Gold.PLP.Fitness>
53.6003

> <Gold.PLP.PLP>
-45.5979

> <Gold.PLP.part.hbond>
-4.6577

> <Gold.PLP.part.metal>
0.0000

> <Gold.PLP.part.buried>
-7.5499

> <Gold.PLP.part.nonpolar>
-36.3794

> <Gold.PLP.part.repulsive>
2.7331

> <Gold.PLP.ligand.clash>
0.0000

> <Gold.PLP.ligand.torsion>
0.2557

> <Gold.PLP.Chemscore.Hbond>
2.7830

> <Gold.PLP.Chemscore.CHOScore>
0.0000

> <Gold.PLP.Chemscore.Metal>
0.0000

> <Gold.Chemscore.Hbonds>
donor molecule, donor type, donor heavy atom, donor atom, acceptor molecule, acceptor atom, score
      L1  H    23    50       P1 10957  1.00
      L1  H    27    52       P1  7948  0.75
      P1  H  7954  7966       L1    27  0.55
      P1  H  8011  8017       L1    11  0.66

> <Gold.PLP.Chemscore.Internal.Correction>
0.1650

> <Gold.Rescore>
     Score         DG    S(hbond)    S(metal)    S(lipo)     H(rot)  DE(clash)    DE(int)     intcor
      7.21      -9.77       1.97        0.00      87.79       4.90       0.71       1.85       ----

> <Gold.Chemscore.Fitness>
7.2092

> <Gold.Chemscore.DG>
-9.7720

> <Gold.Chemscore.ZeroCoef>
-5.4800

> <Gold.Chemscore.Hbond>
1.9675

> <Gold.Chemscore.Metal>
0.0000

> <Gold.Chemscore.Lipo>
87.7942

> <Gold.Chemscore.Internal_Hbond>
0.0000

> <Gold.Chemscore.DEClash>
0.7132

> <Gold.Chemscore.DEInternal>
1.8496

> <Gold.Chemscore.Rot>
4.9029

> <Gold.Chemscore.Internal.Correction>
   9.000000E+99

> <Gold.Chemscore.Hbonds>
donor molecule, donor type, donor heavy atom, donor atom, acceptor molecule, acceptor atom, score
      L1  H    23    50       P1 10957  0.98
      L1  H    27    52       P1  7948  0.72
      P1  H  7954  7966       L1    27  0.03
      P1  H  8011  8017       L1    11  0.20

> <Gold.Chemscore.Hbond.Weighted>
-6.5716

> <Gold.Chemscore.Metal.Weighted>
-0.0000

> <Gold.Chemscore.Lipo.Weighted>
-10.2719

> <Gold.Chemscore.Internal_Hbond.Weighted>
0.0000

> <Gold.Chemscore.DEClash.Weighted>
0.7132

> <Gold.Chemscore.DEInternal.Weighted>
1.8496

> <Gold.Chemscore.Rot.Weighted>
12.5515

> <Gold.Chemscore.Internal.Correction.Weighted>
   9.000000E+99

> <Gold.Protein.RotatedTorsions>
[ 6907 6896 6895 6894 ] final   11.53 input  -60.11 | X-H torsion
[ 7974 7965 7964 7962 ] final -108.25 input  175.53 | X-H torsion
[ 8008 7997 7996 7995 ] final -119.40 input   59.86 | X-H torsion
[ 10167 10162 10161 10158 ] final   95.96 input  -65.29 | X-H torsion
[ 10718 10713 10712 10709 ] final -151.33 input   66.30 | X-H torsion
[ 10763 10752 10751 10750 ] final  -69.04 input  -60.55 | X-H torsion
[ 11005 11000 10999 10996 ] final  -24.76 input  -57.11 | X-H torsion

> <Gold.Protein.ActiveResidues>
 VAL166  LYS551  ARG553  GLY616  TRP617  ASP618  TYR619  PRO620  LYS621  CYS622 
 ASP623  PHE694  ASN695  SER759  ASP760  ASP761  ALA762  ILE779  LEU786  VAL792 
 PHE793  MET794  SER795  GLU796  ALA797  LYS798  CYS799  TRP800  GLU811  SER814 

> <Gold.Protein.RotatedAtoms>
  151.7559  135.0822  160.0337 H   0  0  0  0  0  0  0  0  0  0  0  0  # atno 6907 bound_to 6896
  152.3386  133.6036  159.5868 H   0  0  0  0  0  0  0  0  0  0  0  0  # atno 6908 bound_to 6896
  150.7465  133.9674  159.3576 H   0  0  0  0  0  0  0  0  0  0  0  0  # atno 6909 bound_to 6896
  145.1953  140.9032  143.3401 H   0  0  0  0  0  0  0  0  0  0  0  0  # atno 7974 bound_to 7965
  155.1151  140.0398  157.2734 H   0  0  0  0  0  0  0  0  0  0  0  0  # atno 8008 bound_to 7997
  154.6656  140.2601  155.7036 H   0  0  0  0  0  0  0  0  0  0  0  0  # atno 8009 bound_to 7997
  156.2637  140.2808  156.1145 H   0  0  0  0  0  0  0  0  0  0  0  0  # atno 8010 bound_to 7997
  139.7939  144.6841  150.9854 H   0  0  0  0  0  0  0  0  0  0  0  0  # atno 10167 bound_to 10162
  156.4578  130.8199  151.2430 H   0  0  0  0  0  0  0  0  0  0  0  0  # atno 10718 bound_to 10713
  154.3977  135.6038  153.5879 H   0  0  0  0  0  0  0  0  0  0  0  0  # atno 10763 bound_to 10752
  152.9788  135.5899  154.4221 H   0  0  0  0  0  0  0  0  0  0  0  0  # atno 10764 bound_to 10752
  154.4015  135.2843  155.2071 H   0  0  0  0  0  0  0  0  0  0  0  0  # atno 10765 bound_to 10752
  140.8875  133.7611  156.0379 H   0  0  0  0  0  0  0  0  0  0  0  0  # atno 11005 bound_to 11000
  145.0001  139.3606  143.6172 LP  0  0  0  0  0  0  0  0  0  0  0  0  # atno 17320 bound_to 7965
  146.3428  139.9221  142.8765 LP  0  0  0  0  0  0  0  0  0  0  0  0  # atno 17321 bound_to 7965
  140.7820  143.4351  151.0635 LP  0  0  0  0  0  0  0  0  0  0  0  0  # atno 17342 bound_to 10162
  139.8027  143.8062  152.3164 LP  0  0  0  0  0  0  0  0  0  0  0  0  # atno 17343 bound_to 10162
  157.7499  131.0117  150.3355 LP  0  0  0  0  0  0  0  0  0  0  0  0  # atno 17370 bound_to 10713
  156.3748  130.3870  149.7147 LP  0  0  0  0  0  0  0  0  0  0  0  0  # atno 17371 bound_to 10713
  140.8387  134.3092  157.5321 LP  0  0  0  0  0  0  0  0  0  0  0  0  # atno 17394 bound_to 11000
  139.8726  134.9404  156.3768 LP  0  0  0  0  0  0  0  0  0  0  0  0  # atno 17395 bound_to 11000

$$$$
