AV-unprocessed.smi:66|AV-procd|sdf|625|dock4
  -GOLD-   2262016513D 1   1.00000     0.00000
 Structure written by MMmdl.
 27 29  0  0  0  0  0  0  0  0  3 V2000
  152.0794  136.7711  156.5826 O   0  0  0  0  0  0  0  0  0  0  0  0
  152.3060  137.9189  157.0241 C   0  0  0  0  0  0  0  0  0  0  0  0
  153.4260  138.3451  157.3850 O   0  5  0  0  0  0  0  0  0  0  0  0
  151.1071  138.8784  157.1078 C   0  0  2  0  0  0  0  0  0  0  0  0
  150.1154  138.6748  155.9496 C   0  0  0  0  0  0  0  0  0  0  0  0
  150.5242  139.7397  154.9334 C   0  0  1  0  0  0  0  0  0  0  0  0
  149.4667  140.0938  154.0667 O   0  0  0  0  0  0  0  0  0  0  0  0
  150.9798  140.9026  155.8159 C   0  0  0  0  0  0  0  0  0  0  0  0
  151.5296  140.2789  157.0127 N   0  0  0  0  0  0  0  0  0  0  0  0
  151.9321  141.0185  158.1517 C   0  0  0  0  0  0  0  0  0  0  0  0
  152.6655  140.3637  159.0891 N   0  0  0  0  0  0  0  0  0  0  0  0
  153.0609  141.0390  160.1724 C   0  0  0  0  0  0  0  0  0  0  0  0
  152.8115  142.3193  160.4555 N   0  0  0  0  0  0  0  0  0  0  0  0
  152.0854  142.9903  159.5392 C   0  0  0  0  0  0  0  0  0  0  0  0
  151.6642  144.2439  159.4948 N   0  5  0  0  0  0  0  0  0  0  0  0
  150.9714  144.3956  158.3388 C   0  0  0  0  0  0  0  0  0  0  0  0
  150.9125  143.2717  157.5970 N   0  0  0  0  0  0  0  0  0  0  0  0
  151.6190  142.3903  158.3674 C   0  0  0  0  0  0  0  0  0  0  0  0
  150.5836  138.7001  158.0481 H   0  0  0  0  0  0  0  0  0  0  0  0
  150.1269  137.6674  155.5308 H   0  0  0  0  0  0  0  0  0  0  0  0
  149.1038  138.8689  156.3092 H   0  0  0  0  0  0  0  0  0  0  0  0
  151.3656  139.3773  154.3413 H   0  0  0  0  0  0  0  0  0  0  0  0
  149.7603  139.9734  153.1770 H   0  0  0  0  0  0  0  0  0  0  0  0
  151.7202  141.5103  155.2958 H   0  0  0  0  0  0  0  0  0  0  0  0
  150.1375  141.5369  156.0976 H   0  0  0  0  0  0  0  0  0  0  0  0
  153.6419  140.4889  160.8979 H   0  0  0  0  0  0  0  0  0  0  0  0
  150.5329  145.3555  158.0957 H   0  0  0  0  0  0  0  0  0  0  0  0
  1  2  2  0  0  0  0
  2  3  1  0  0  0  0
  2  4  1  0  0  0  0
  4  5  1  0  0  0  0
  4 19  1  0  0  0  0
  4  9  1  0  0  0  0
  5  6  1  0  0  0  0
  5 20  1  0  0  0  0
  5 21  1  0  0  0  0
  6  7  1  0  0  0  0
  6  8  1  0  0  0  0
  6 22  1  0  0  0  0
  7 23  1  0  0  0  0
  8 24  1  0  0  0  0
  8 25  1  0  0  0  0
  8  9  1  0  0  0  0
  9 10  1  0  0  0  0
 10 11  1  0  0  0  0
 10 18  2  0  0  0  0
 11 12  2  0  0  0  0
 12 26  1  0  0  0  0
 12 13  1  0  0  0  0
 13 14  2  0  0  0  0
 14 15  1  0  0  0  0
 14 18  1  0  0  0  0
 15 16  1  0  0  0  0
 16 17  2  0  0  0  0
 16 27  1  0  0  0  0
 17 18  1  0  0  0  0
M  CHG  1   3  -1
M  CHG  1  15  -1
M  END
> <s_m_source_file>
AV-unprocessed.smi

> <i_m_source_file_index>
66

> <i_lp_mmshare_version>
43012

> <i_f3d_flags>
0

> <s_epik_input>
Tz1DKFtPSF0pW0NAQEhdMVtDSDJdW0NAQEhdKFtPSF0pW0NIMl1OMWMobltjSF1uMiljKGMyMylbbkhdW2NIXW4z

> <s_epik_cmdline>
J2VwaWtfcHl0aG9uJywgJy1waCcsICc3LjAnLCAnLXRuJywgJzgnLCAnLW1hJywgJzIwMCcsICctbWV0YWxfYmluZGluZycsICctaW1hZScsICc8aW5maWxlLm1hZT4nLCAnLW9tYWUnLCAnPG91dGZpbGUubWFlPic=

> <r_lp_tautomer_probability>
0.955585

> <r_epik_Ionization_Penalty>
7.65809

> <r_epik_Ionization_Penalty_Charging>
3.4974

> <r_epik_Ionization_Penalty_Neutral>
4.16069

> <r_epik_State_Penalty>
3.51624

> <r_epik_Charging_Adjusted_Penalty>
7.01364

> <i_epik_Tot_Q>
-2

> <i_epik_Tot_abs_Q>
2

> <r_epik_Metal_State_Penalty>
0.522662

> <b_epik_Metal_Only>
1

> <s_lp_Force_Field>
OPLS_2005

> <r_lp_Energy>
43.8287

> <b_lp_Chiralities_Consistent>
1

> <s_lp_Variant>
AV-unprocessed.smi:66-9

> <Gold.Version>
5.8.1

> <Gold.Id.Protein>
6NUR|6NUR_protein|mol2

> <Gold.PLP.Fitness>
42.6010

> <Gold.PLP.PLP>
-26.9143

> <Gold.PLP.part.hbond>
-3.4191

> <Gold.PLP.part.metal>
0.0000

> <Gold.PLP.part.buried>
-4.8066

> <Gold.PLP.part.nonpolar>
-20.2485

> <Gold.PLP.part.repulsive>
0.3035

> <Gold.PLP.ligand.clash>
0.0000

> <Gold.PLP.ligand.torsion>
1.0317

> <Gold.PLP.Chemscore.Hbond>
4.8720

> <Gold.PLP.Chemscore.CHOScore>
0.9929

> <Gold.PLP.Chemscore.Metal>
0.0000

> <Gold.Chemscore.Hbonds>
donor molecule, donor type, donor heavy atom, donor atom, acceptor molecule, acceptor atom, score
      L1  H     7    23       P1  7957  1.00
      P1  H  7997  8010       L1     3  1.85
      P1  H 10752 10765       L1     1  0.85
      L1  C    16    27       P1  8029  0.25

> <Gold.PLP.Chemscore.Internal.Correction>
0.1553

> <Gold.Rescore>
     Score         DG    S(hbond)    S(metal)    S(lipo)     H(rot)  DE(clash)    DE(int)     intcor
     10.59     -14.11       2.82        0.00      32.06       1.78       0.24       3.28       ----

> <Gold.Chemscore.Fitness>
10.5926

> <Gold.Chemscore.DG>
-14.1115

> <Gold.Chemscore.ZeroCoef>
-5.4800

> <Gold.Chemscore.Hbond>
2.8220

> <Gold.Chemscore.Metal>
0.0000

> <Gold.Chemscore.Lipo>
32.0595

> <Gold.Chemscore.Internal_Hbond>
0.0000

> <Gold.Chemscore.DEClash>
0.2386

> <Gold.Chemscore.DEInternal>
3.2803

> <Gold.Chemscore.Rot>
1.7754

> <Gold.Chemscore.Internal.Correction>
   9.000000E+99

> <Gold.Chemscore.Hbonds>
donor molecule, donor type, donor heavy atom, donor atom, acceptor molecule, acceptor atom, score
      L1  H     7    23       P1  7957  0.93
      P1  H  7997  8010       L1     3  0.85
      P1  H 10752 10765       L1     1  0.43

> <Gold.Chemscore.Hbond.Weighted>
-9.4256

> <Gold.Chemscore.Metal.Weighted>
-0.0000

> <Gold.Chemscore.Lipo.Weighted>
-3.7510

> <Gold.Chemscore.Internal_Hbond.Weighted>
0.0000

> <Gold.Chemscore.DEClash.Weighted>
0.2386

> <Gold.Chemscore.DEInternal.Weighted>
3.2803

> <Gold.Chemscore.Rot.Weighted>
4.5451

> <Gold.Chemscore.Internal.Correction.Weighted>
   9.000000E+99

> <Gold.Protein.RotatedTorsions>
[ 6907 6896 6895 6894 ] final  -27.38 input  -60.11 | X-H torsion
[ 7974 7965 7964 7962 ] final  -11.85 input  175.53 | X-H torsion
[ 8008 7997 7996 7995 ] final   47.90 input   59.86 | X-H torsion
[ 10167 10162 10161 10158 ] final  -38.95 input  -65.29 | X-H torsion
[ 10718 10713 10712 10709 ] final   16.56 input   66.30 | X-H torsion
[ 10763 10752 10751 10750 ] final -145.91 input  -60.55 | X-H torsion
[ 11005 11000 10999 10996 ] final -116.52 input  -57.11 | X-H torsion

> <Gold.Protein.ActiveResidues>
 VAL166  LYS551  ARG553  GLY616  TRP617  ASP618  TYR619  PRO620  LYS621  CYS622 
 ASP623  PHE694  ASN695  SER759  ASP760  ASP761  ALA762  ILE779  LEU786  VAL792 
 PHE793  MET794  SER795  GLU796  ALA797  LYS798  CYS799  TRP800  GLU811  SER814 

> <Gold.Protein.RotatedAtoms>
  151.1477  135.0211  159.8653 H   0  0  0  0  0  0  0  0  0  0  0  0  # atno 6907 bound_to 6896
  152.5453  134.1425  159.8495 H   0  0  0  0  0  0  0  0  0  0  0  0  # atno 6908 bound_to 6896
  151.1507  133.4863  159.2628 H   0  0  0  0  0  0  0  0  0  0  0  0  # atno 6909 bound_to 6896
  146.2173  140.2971  142.8372 H   0  0  0  0  0  0  0  0  0  0  0  0  # atno 7974 bound_to 7965
  155.3767  140.3426  155.4245 H   0  0  0  0  0  0  0  0  0  0  0  0  # atno 8008 bound_to 7997
  156.1633  140.1608  156.8609 H   0  0  0  0  0  0  0  0  0  0  0  0  # atno 8009 bound_to 7997
  154.5160  140.0778  156.8064 H   0  0  0  0  0  0  0  0  0  0  0  0  # atno 8010 bound_to 7997
  140.7078  143.3245  151.2713 H   0  0  0  0  0  0  0  0  0  0  0  0  # atno 10167 bound_to 10162
  157.0696  130.6342  149.5803 H   0  0  0  0  0  0  0  0  0  0  0  0  # atno 10718 bound_to 10713
  154.8361  135.3400  154.6579 H   0  0  0  0  0  0  0  0  0  0  0  0  # atno 10763 bound_to 10752
  153.7194  135.6959  153.5021 H   0  0  0  0  0  0  0  0  0  0  0  0  # atno 10764 bound_to 10752
  153.2393  135.4390  155.0633 H   0  0  0  0  0  0  0  0  0  0  0  0  # atno 10765 bound_to 10752
  141.0416  133.9826  157.2984 H   0  0  0  0  0  0  0  0  0  0  0  0  # atno 11005 bound_to 11000
  144.9084  140.7728  143.5823 LP  0  0  0  0  0  0  0  0  0  0  0  0  # atno 17320 bound_to 7965
  145.2900  139.1887  143.4745 LP  0  0  0  0  0  0  0  0  0  0  0  0  # atno 17321 bound_to 7965
  139.6709  144.0022  152.2752 LP  0  0  0  0  0  0  0  0  0  0  0  0  # atno 17342 bound_to 10162
  139.9620  144.6551  150.8070 LP  0  0  0  0  0  0  0  0  0  0  0  0  # atno 17343 bound_to 10162
  155.9954  130.5021  150.7458 LP  0  0  0  0  0  0  0  0  0  0  0  0  # atno 17370 bound_to 10713
  157.4889  131.0909  151.0450 LP  0  0  0  0  0  0  0  0  0  0  0  0  # atno 17371 bound_to 10713
  139.9280  135.0201  156.8303 LP  0  0  0  0  0  0  0  0  0  0  0  0  # atno 17394 bound_to 11000
  140.6223  133.9982  155.7624 LP  0  0  0  0  0  0  0  0  0  0  0  0  # atno 17395 bound_to 11000

$$$$
