AV-unprocessed.smi:2518|AV-procd|sdf|9902|dock10
  -GOLD-   2272013543D 1   1.00000     0.00000
 Structure written by MMmdl.
 41 43  0  0  0  0  0  0  0  0  1 V2000
  151.5237  144.9566  158.7597 C   0  0  0  0  0  0  0  0  0  0  0  0
  151.8588  143.4828  158.8598 C   0  0  0  0  0  0  0  0  0  0  0  0
  151.1028  142.5311  158.1473 C   0  0  0  0  0  0  0  0  0  0  0  0
  151.4171  141.1621  158.2460 C   0  0  0  0  0  0  0  0  0  0  0  0
  152.4855  140.7220  159.0538 C   0  0  0  0  0  0  0  0  0  0  0  0
  152.7226  139.3645  159.0916 O   0  0  0  0  0  0  0  0  0  0  0  0
  153.7237  138.8825  159.9774 C   0  0  0  0  0  0  0  0  0  0  0  0
  153.4755  137.3878  160.2515 C   0  0  1  0  0  0  0  0  0  0  0  0
  153.2370  136.7408  159.0177 O   0  0  0  0  0  0  0  0  0  0  0  0
  154.6665  136.6683  160.9172 C   0  0  0  0  0  0  0  0  0  0  0  0
  154.3569  136.1622  162.2463 N   0  0  0  0  0  0  0  0  0  0  0  0
  153.8101  136.9972  163.1667 N   0  0  0  0  0  0  0  0  0  0  0  0
  153.6376  136.2648  164.2652 C   0  0  0  0  0  0  0  0  0  0  0  0
  154.0735  134.9236  164.0849 C   0  0  0  0  0  0  0  0  0  0  0  0
  154.1215  133.7301  164.9239 C   0  0  0  0  0  0  0  0  0  0  0  0
  154.6056  132.6411  164.4141 N   0  0  0  0  0  0  0  0  0  0  0  0
  155.0741  132.6007  163.0957 N   0  0  0  0  0  0  0  0  0  0  0  0
  155.5977  131.3042  162.6720 C   0  0  0  0  0  0  0  0  0  0  0  0
  155.0802  133.6606  162.2324 C   0  0  0  0  0  0  0  0  0  0  0  0
  155.5173  133.6100  161.0828 O   0  0  0  0  0  0  0  0  0  0  0  0
  154.5177  134.9082  162.8038 C   0  0  0  0  0  0  0  0  0  0  0  0
  153.2414  141.6850  159.7699 C   0  0  0  0  0  0  0  0  0  0  0  0
  152.9273  143.0546  159.6721 C   0  0  0  0  0  0  0  0  0  0  0  0
  150.9570  145.1705  157.8529 H   0  0  0  0  0  0  0  0  0  0  0  0
  152.4336  145.5571  158.7381 H   0  0  0  0  0  0  0  0  0  0  0  0
  150.9273  145.2661  159.6182 H   0  0  0  0  0  0  0  0  0  0  0  0
  150.2794  142.8462  157.5232 H   0  0  0  0  0  0  0  0  0  0  0  0
  150.8308  140.4411  157.6953 H   0  0  0  0  0  0  0  0  0  0  0  0
  154.7269  139.0405  159.5776 H   0  0  0  0  0  0  0  0  0  0  0  0
  153.6404  139.4491  160.9044 H   0  0  0  0  0  0  0  0  0  0  0  0
  152.5941  137.2725  160.8838 H   0  0  0  0  0  0  0  0  0  0  0  0
  153.8821  137.0365  158.3937 H   0  0  0  0  0  0  0  0  0  0  0  0
  154.9790  135.8238  160.3008 H   0  0  0  0  0  0  0  0  0  0  0  0
  155.5312  137.3284  160.9778 H   0  0  0  0  0  0  0  0  0  0  0  0
  153.2091  136.7259  165.1428 H   0  0  0  0  0  0  0  0  0  0  0  0
  153.7581  133.7599  165.9511 H   0  0  0  0  0  0  0  0  0  0  0  0
  155.0703  130.9458  161.7866 H   0  0  0  0  0  0  0  0  0  0  0  0
  155.4896  130.5452  163.4486 H   0  0  0  0  0  0  0  0  0  0  0  0
  156.6587  131.3817  162.4302 H   0  0  0  0  0  0  0  0  0  0  0  0
  154.0677  141.3995  160.4031 H   0  0  0  0  0  0  0  0  0  0  0  0
  153.5110  143.7766  160.2241 H   0  0  0  0  0  0  0  0  0  0  0  0
  1  2  1  0  0  0  0
  1 24  1  0  0  0  0
  1 25  1  0  0  0  0
  1 26  1  0  0  0  0
  2 23  1  0  0  0  0
  2  3  2  0  0  0  0
  3  4  1  0  0  0  0
  3 27  1  0  0  0  0
  4  5  2  0  0  0  0
  4 28  1  0  0  0  0
  5  6  1  0  0  0  0
  5 22  1  0  0  0  0
  6  7  1  0  0  0  0
  7  8  1  0  0  0  0
  7 29  1  0  0  0  0
  7 30  1  0  0  0  0
  8  9  1  0  0  0  0
  8 10  1  0  0  0  0
  8 31  1  0  0  0  0
  9 32  1  0  0  0  0
 10 11  1  0  0  0  0
 10 33  1  0  0  0  0
 10 34  1  0  0  0  0
 11 21  1  0  0  0  0
 11 12  1  0  0  0  0
 12 13  2  0  0  0  0
 13 14  1  0  0  0  0
 13 35  1  0  0  0  0
 14 21  2  0  0  0  0
 14 15  1  0  0  0  0
 15 16  2  0  0  0  0
 15 36  1  0  0  0  0
 16 17  1  0  0  0  0
 17 18  1  0  0  0  0
 17 19  1  0  0  0  0
 18 37  1  0  0  0  0
 18 38  1  0  0  0  0
 18 39  1  0  0  0  0
 19 20  2  0  0  0  0
 19 21  1  0  0  0  0
 22 23  2  0  0  0  0
 22 40  1  0  0  0  0
 23 41  1  0  0  0  0
M  END
> <s_m_source_file>
AV-unprocessed.smi

> <i_m_source_file_index>
2518

> <i_lp_mmshare_version>
43012

> <i_f3d_flags>
0

> <s_epik_input>
W0NIM11jMVtjSF1bY0hdYyhbY0hdW2NIXTEpT1tDSDJdW0NASF0oW09IXSlbQ0gyXW4obltjSF0yKWMoYzIzKWMoPU8pbihbQ0gzXSluW2NIXTM=

> <s_epik_cmdline>
J2VwaWtfcHl0aG9uJywgJy1waCcsICc3LjAnLCAnLXRuJywgJzgnLCAnLW1hJywgJzIwMCcsICctbWV0YWxfYmluZGluZycsICctaW1hZScsICc8aW5maWxlLm1hZT4nLCAnLW9tYWUnLCAnPG91dGZpbGUubWFlPic=

> <r_lp_tautomer_probability>
1

> <r_epik_Ionization_Penalty>
2.246e-06

> <r_epik_Ionization_Penalty_Charging>
1.41975e-10

> <r_epik_Ionization_Penalty_Neutral>
2.24586e-06

> <r_epik_State_Penalty>
-0

> <r_epik_Charging_Adjusted_Penalty>
1.41975e-10

> <i_epik_Tot_Q>
0

> <i_epik_Tot_abs_Q>
0

> <r_epik_Metal_State_Penalty>
-0

> <b_epik_Metal_Only>
0

> <s_lp_Force_Field>
OPLS_2005

> <r_lp_Energy>
31.8709

> <b_lp_Chiralities_Consistent>
1

> <s_lp_Variant>
AV-unprocessed.smi:2518-2

> <Gold.Version>
5.8.1

> <Gold.Id.Protein>
6NUR|6NUR_protein|mol2

> <Gold.PLP.Fitness>
47.3134

> <Gold.PLP.PLP>
-46.3218

> <Gold.PLP.part.hbond>
-1.0000

> <Gold.PLP.part.metal>
0.0000

> <Gold.PLP.part.buried>
-5.8507

> <Gold.PLP.part.nonpolar>
-40.2995

> <Gold.PLP.part.repulsive>
0.0417

> <Gold.PLP.ligand.clash>
0.0000

> <Gold.PLP.ligand.torsion>
1.0221

> <Gold.PLP.Chemscore.Hbond>
1.0000

> <Gold.PLP.Chemscore.CHOScore>
0.0000

> <Gold.PLP.Chemscore.Metal>
0.0000

> <Gold.Chemscore.Hbonds>
donor molecule, donor type, donor heavy atom, donor atom, acceptor molecule, acceptor atom, score
      P1  H  6896  6908       L1     9  0.06

> <Gold.PLP.Chemscore.Internal.Correction>
0.0357

> <Gold.Rescore>
     Score         DG    S(hbond)    S(metal)    S(lipo)     H(rot)  DE(clash)    DE(int)     intcor
     16.64     -18.20       0.93        0.00     133.68       2.35       0.27       1.28       ----

> <Gold.Chemscore.Fitness>
16.6397

> <Gold.Chemscore.DG>
-18.1976

> <Gold.Chemscore.ZeroCoef>
-5.4800

> <Gold.Chemscore.Hbond>
0.9253

> <Gold.Chemscore.Metal>
0.0000

> <Gold.Chemscore.Lipo>
133.6822

> <Gold.Chemscore.Internal_Hbond>
0.0000

> <Gold.Chemscore.DEClash>
0.2738

> <Gold.Chemscore.DEInternal>
1.2841

> <Gold.Chemscore.Rot>
2.3490

> <Gold.Chemscore.Internal.Correction>
   9.000000E+99

> <Gold.Chemscore.Hbonds>
donor molecule, donor type, donor heavy atom, donor atom, acceptor molecule, acceptor atom, score
      P1  H  6896  6908       L1     9  0.01

> <Gold.Chemscore.Hbond.Weighted>
-3.0904

> <Gold.Chemscore.Metal.Weighted>
-0.0000

> <Gold.Chemscore.Lipo.Weighted>
-15.6408

> <Gold.Chemscore.Internal_Hbond.Weighted>
0.0000

> <Gold.Chemscore.DEClash.Weighted>
0.2738

> <Gold.Chemscore.DEInternal.Weighted>
1.2841

> <Gold.Chemscore.Rot.Weighted>
6.0136

> <Gold.Chemscore.Internal.Correction.Weighted>
   9.000000E+99

> <Gold.Protein.RotatedTorsions>
[ 6907 6896 6895 6894 ] final -109.92 input  -60.11 | X-H torsion
[ 7974 7965 7964 7962 ] final    6.58 input  175.53 | X-H torsion
[ 8008 7997 7996 7995 ] final -134.99 input   59.86 | X-H torsion
[ 10167 10162 10161 10158 ] final   19.16 input  -65.29 | X-H torsion
[ 10718 10713 10712 10709 ] final   10.14 input   66.30 | X-H torsion
[ 10763 10752 10751 10750 ] final  -44.35 input  -60.55 | X-H torsion
[ 11005 11000 10999 10996 ] final  137.10 input  -57.11 | X-H torsion

> <Gold.Protein.ActiveResidues>
 VAL166  LYS551  ARG553  GLY616  TRP617  ASP618  TYR619  PRO620  LYS621  CYS622 
 ASP623  PHE694  ASN695  SER759  ASP760  ASP761  ALA762  ILE779  LEU786  VAL792 
 PHE793  MET794  SER795  GLU796  ALA797  LYS798  CYS799  TRP800  GLU811  SER814 

> <Gold.Protein.RotatedAtoms>
  150.7592  133.9457  159.3469 H   0  0  0  0  0  0  0  0  0  0  0  0  # atno 6907 bound_to 6896
  151.7370  135.0860  160.0319 H   0  0  0  0  0  0  0  0  0  0  0  0  # atno 6908 bound_to 6896
  152.3553  133.6192  159.6011 H   0  0  0  0  0  0  0  0  0  0  0  0  # atno 6909 bound_to 6896
  146.2433  140.0212  142.8398 H   0  0  0  0  0  0  0  0  0  0  0  0  # atno 7974 bound_to 7965
  155.3713  140.0488  157.3045 H   0  0  0  0  0  0  0  0  0  0  0  0  # atno 8008 bound_to 7997
  154.5128  140.2198  155.9085 H   0  0  0  0  0  0  0  0  0  0  0  0  # atno 8009 bound_to 7997
  156.1602  140.3118  155.8801 H   0  0  0  0  0  0  0  0  0  0  0  0  # atno 8010 bound_to 7997
  140.5600  143.9355  150.6636 H   0  0  0  0  0  0  0  0  0  0  0  0  # atno 10167 bound_to 10162
  156.9766  130.5989  149.5673 H   0  0  0  0  0  0  0  0  0  0  0  0  # atno 10718 bound_to 10713
  154.0107  135.6682  153.4765 H   0  0  0  0  0  0  0  0  0  0  0  0  # atno 10763 bound_to 10752
  153.0622  135.5021  154.8116 H   0  0  0  0  0  0  0  0  0  0  0  0  # atno 10764 bound_to 10752
  154.6997  135.3076  154.9322 H   0  0  0  0  0  0  0  0  0  0  0  0  # atno 10765 bound_to 10752
  140.0091  134.9447  157.0239 H   0  0  0  0  0  0  0  0  0  0  0  0  # atno 11005 bound_to 11000
  145.1240  140.9479  143.4584 LP  0  0  0  0  0  0  0  0  0  0  0  0  # atno 17320 bound_to 7965
  145.0453  139.3226  143.5956 LP  0  0  0  0  0  0  0  0  0  0  0  0  # atno 17321 bound_to 7965
  140.2803  143.3394  152.1157 LP  0  0  0  0  0  0  0  0  0  0  0  0  # atno 17342 bound_to 10162
  139.5065  144.6816  151.5995 LP  0  0  0  0  0  0  0  0  0  0  0  0  # atno 17343 bound_to 10162
  156.0261  130.5355  150.8410 LP  0  0  0  0  0  0  0  0  0  0  0  0  # atno 17370 bound_to 10713
  157.5555  131.0945  150.9634 LP  0  0  0  0  0  0  0  0  0  0  0  0  # atno 17371 bound_to 10713
  140.4587  134.1506  155.7189 LP  0  0  0  0  0  0  0  0  0  0  0  0  # atno 17394 bound_to 11000
  141.1698  133.8631  157.1605 LP  0  0  0  0  0  0  0  0  0  0  0  0  # atno 17395 bound_to 11000

$$$$
