AV-unprocessed.smi:2816|AV-procd|sdf|10845|dock8
  -GOLD-   2272015283D 1   1.00000     0.00000
 Structure written by MMmdl.
 43 45  0  0  0  0  0  0  0  0  1 V2000
  148.9236  136.6736  155.3547 C   0  0  0  0  0  0  0  0  0  0  0  0
  150.1094  136.1650  156.1931 C   0  0  0  0  0  0  0  0  0  0  0  0
  149.7964  136.3449  157.6896 C   0  0  0  0  0  0  0  0  0  0  0  0
  150.3634  134.6806  155.8719 C   0  0  0  0  0  0  0  0  0  0  0  0
  151.6025  137.1812  155.7412 S   0  0  0  0  0  0  0  0  0  0  0  0
  152.7250  136.7620  156.5955 O   0  0  0  0  0  0  0  0  0  0  0  0
  151.7567  137.1279  154.2785 O   0  0  0  0  0  0  0  0  0  0  0  0
  151.1963  138.8735  156.1778 C   0  0  0  0  0  0  0  0  0  0  0  0
  150.7896  139.7807  155.1786 C   0  0  0  0  0  0  0  0  0  0  0  0
  150.4349  141.0850  155.5706 C   0  0  0  0  0  0  0  0  0  0  0  0
  150.4904  141.4293  156.9423 C   0  0  0  0  0  0  0  0  0  0  0  0
  150.1490  142.6976  157.4348 N   0  0  0  0  0  0  0  0  0  0  0  0
  150.7727  143.2388  158.6367 C   0  0  1  0  0  0  0  0  0  0  0  0
  152.2674  143.5396  158.4586 C   0  0  0  0  0  0  0  0  0  0  0  0
  152.3403  145.0243  158.8349 C   0  0  2  0  0  0  0  0  0  0  0  0
  152.0868  145.2587  160.3303 C   0  0  0  0  0  0  0  0  0  0  0  0
  150.5814  145.0151  160.4329 C   0  0  0  0  0  0  0  0  0  0  0  0
  150.2232  144.6318  158.9904 C   0  0  1  0  0  0  0  0  0  0  0  0
  151.1166  145.4782  158.2850 O   0  0  0  0  0  0  0  0  0  0  0  0
  150.9081  140.4351  157.8537 C   0  0  0  0  0  0  0  0  0  0  0  0
  151.2490  139.1806  157.4914 N   0  0  0  0  0  0  0  0  0  0  0  0
  148.0127  136.1157  155.5745 H   0  0  0  0  0  0  0  0  0  0  0  0
  149.1215  136.5738  154.2869 H   0  0  0  0  0  0  0  0  0  0  0  0
  148.7199  137.7263  155.5534 H   0  0  0  0  0  0  0  0  0  0  0  0
  149.6456  137.3949  157.9417 H   0  0  0  0  0  0  0  0  0  0  0  0
  150.6035  135.9669  158.3172 H   0  0  0  0  0  0  0  0  0  0  0  0
  148.8899  135.8073  157.9696 H   0  0  0  0  0  0  0  0  0  0  0  0
  149.4703  134.0814  156.0517 H   0  0  0  0  0  0  0  0  0  0  0  0
  151.1575  134.2635  156.4899 H   0  0  0  0  0  0  0  0  0  0  0  0
  150.6465  134.5408  154.8284 H   0  0  0  0  0  0  0  0  0  0  0  0
  150.7452  139.4877  154.1402 H   0  0  0  0  0  0  0  0  0  0  0  0
  150.1237  141.7939  154.8185 H   0  0  0  0  0  0  0  0  0  0  0  0
  149.6502  143.3374  156.8328 H   0  0  0  0  0  0  0  0  0  0  0  0
  150.5947  142.5562  159.4685 H   0  0  0  0  0  0  0  0  0  0  0  0
  152.8995  142.9180  159.0929 H   0  0  0  0  0  0  0  0  0  0  0  0
  152.5871  143.4007  157.4246 H   0  0  0  0  0  0  0  0  0  0  0  0
  153.2230  145.5351  158.4490 H   0  0  0  0  0  0  0  0  0  0  0  0
  152.6700  144.5851  160.9589 H   0  0  0  0  0  0  0  0  0  0  0  0
  152.3283  146.2844  160.6113 H   0  0  0  0  0  0  0  0  0  0  0  0
  150.3250  144.2344  161.1495 H   0  0  0  0  0  0  0  0  0  0  0  0
  150.0668  145.9305  160.7274 H   0  0  0  0  0  0  0  0  0  0  0  0
  149.1697  144.7798  158.7495 H   0  0  0  0  0  0  0  0  0  0  0  0
  150.9635  140.6501  158.9111 H   0  0  0  0  0  0  0  0  0  0  0  0
  1  2  1  0  0  0  0
  1 22  1  0  0  0  0
  1 23  1  0  0  0  0
  1 24  1  0  0  0  0
  2  3  1  0  0  0  0
  2  4  1  0  0  0  0
  2  5  1  0  0  0  0
  3 25  1  0  0  0  0
  3 26  1  0  0  0  0
  3 27  1  0  0  0  0
  4 28  1  0  0  0  0
  4 29  1  0  0  0  0
  4 30  1  0  0  0  0
  5  6  2  0  0  0  0
  5  7  2  0  0  0  0
  5  8  1  0  0  0  0
  8 21  1  0  0  0  0
  8  9  2  0  0  0  0
  9 10  1  0  0  0  0
  9 31  1  0  0  0  0
 10 11  2  0  0  0  0
 10 32  1  0  0  0  0
 11 12  1  0  0  0  0
 11 20  1  0  0  0  0
 12 13  1  0  0  0  0
 12 33  1  0  0  0  0
 13 18  1  0  0  0  0
 13 14  1  0  0  0  0
 13 34  1  0  0  0  0
 14 15  1  0  0  0  0
 14 35  1  0  0  0  0
 14 36  1  0  0  0  0
 15 19  1  0  0  0  0
 15 16  1  0  0  0  0
 15 37  1  0  0  0  0
 16 17  1  0  0  0  0
 16 38  1  0  0  0  0
 16 39  1  0  0  0  0
 17 18  1  0  0  0  0
 17 40  1  0  0  0  0
 17 41  1  0  0  0  0
 18 19  1  0  0  0  0
 18 42  1  0  0  0  0
 20 21  2  0  0  0  0
 20 43  1  0  0  0  0
M  END
> <s_m_source_file>
AV-unprocessed.smi

> <i_m_source_file_index>
2816

> <i_lp_mmshare_version>
43012

> <i_f3d_flags>
0

> <s_epik_input>
W0NIM11DKFtDSDNdKShbQ0gzXSlTKD1PKSg9TyljMVtjSF1bY0hdYyhbY0hdbjEpW05IXVtDQEhdKFtDSDJdW0NAQEhdMjMpW0NAQEhdKE8zKVtDSDJdW0NIMl0y

> <s_epik_cmdline>
J2VwaWtfcHl0aG9uJywgJy1waCcsICc3LjAnLCAnLXRuJywgJzgnLCAnLW1hJywgJzIwMCcsICctbWV0YWxfYmluZGluZycsICctaW1hZScsICc8aW5maWxlLm1hZT4nLCAnLW9tYWUnLCAnPG91dGZpbGUubWFlPic=

> <r_lp_tautomer_probability>
1

> <r_epik_Ionization_Penalty>
1.94439e-07

> <r_epik_Ionization_Penalty_Charging>
0

> <r_epik_Ionization_Penalty_Neutral>
1.94439e-07

> <r_epik_State_Penalty>
-0

> <r_epik_Charging_Adjusted_Penalty>
0

> <i_epik_Tot_Q>
0

> <i_epik_Tot_abs_Q>
0

> <r_epik_Metal_State_Penalty>
-0

> <b_epik_Metal_Only>
0

> <s_lp_Force_Field>
OPLS_2005

> <r_lp_Energy>
42.0373

> <b_lp_Chiralities_Consistent>
1

> <s_lp_Variant>
AV-unprocessed.smi:2816-4

> <Gold.Version>
5.8.1

> <Gold.Id.Protein>
6NUR|6NUR_protein|mol2

> <Gold.PLP.Fitness>
42.5819

> <Gold.PLP.PLP>
-35.7186

> <Gold.PLP.part.hbond>
-3.9592

> <Gold.PLP.part.metal>
0.0000

> <Gold.PLP.part.buried>
-1.3126

> <Gold.PLP.part.nonpolar>
-31.6797

> <Gold.PLP.part.repulsive>
0.9777

> <Gold.PLP.ligand.clash>
0.0000

> <Gold.PLP.ligand.torsion>
1.3371

> <Gold.PLP.Chemscore.Hbond>
2.4345

> <Gold.PLP.Chemscore.CHOScore>
0.0000

> <Gold.PLP.Chemscore.Metal>
0.0000

> <Gold.Chemscore.Hbonds>
donor molecule, donor type, donor heavy atom, donor atom, acceptor molecule, acceptor atom, score
      L1  H    12    33       P1  8028  1.00
      P1  H 10752 10763       L1     6  0.50
      P1  H 10752 10765       L1     7  0.78

> <Gold.PLP.Chemscore.Internal.Correction>
2.2340

> <Gold.Rescore>
     Score         DG    S(hbond)    S(metal)    S(lipo)     H(rot)  DE(clash)    DE(int)     intcor
     18.06     -19.90       1.69        0.00     100.23       1.15       0.56       1.28       ----

> <Gold.Chemscore.Fitness>
18.0569

> <Gold.Chemscore.DG>
-19.8987

> <Gold.Chemscore.ZeroCoef>
-5.4800

> <Gold.Chemscore.Hbond>
1.6853

> <Gold.Chemscore.Metal>
0.0000

> <Gold.Chemscore.Lipo>
100.2260

> <Gold.Chemscore.Internal_Hbond>
0.0000

> <Gold.Chemscore.DEClash>
0.5593

> <Gold.Chemscore.DEInternal>
1.2824

> <Gold.Chemscore.Rot>
1.1471

> <Gold.Chemscore.Internal.Correction>
   9.000000E+99

> <Gold.Chemscore.Hbonds>
donor molecule, donor type, donor heavy atom, donor atom, acceptor molecule, acceptor atom, score
      L1  H    12    33       P1  8028  0.98
      P1  H 10752 10763       L1     6  0.20
      P1  H 10752 10765       L1     7  0.45

> <Gold.Chemscore.Hbond.Weighted>
-5.6288

> <Gold.Chemscore.Metal.Weighted>
-0.0000

> <Gold.Chemscore.Lipo.Weighted>
-11.7264

> <Gold.Chemscore.Internal_Hbond.Weighted>
0.0000

> <Gold.Chemscore.DEClash.Weighted>
0.5593

> <Gold.Chemscore.DEInternal.Weighted>
1.2824

> <Gold.Chemscore.Rot.Weighted>
2.9366

> <Gold.Chemscore.Internal.Correction.Weighted>
   9.000000E+99

> <Gold.Protein.RotatedTorsions>
[ 6907 6896 6895 6894 ] final   47.62 input  -60.11 | X-H torsion
[ 7974 7965 7964 7962 ] final    8.60 input  175.53 | X-H torsion
[ 8008 7997 7996 7995 ] final  -99.97 input   59.86 | X-H torsion
[ 10167 10162 10161 10158 ] final   -1.18 input  -65.29 | X-H torsion
[ 10718 10713 10712 10709 ] final  -12.52 input   66.30 | X-H torsion
[ 10763 10752 10751 10750 ] final  133.77 input  -60.55 | X-H torsion
[ 11005 11000 10999 10996 ] final -164.48 input  -57.11 | X-H torsion

> <Gold.Protein.ActiveResidues>
 VAL166  LYS551  ARG553  GLY616  TRP617  ASP618  TYR619  PRO620  LYS621  CYS622 
 ASP623  PHE694  ASN695  SER759  ASP760  ASP761  ALA762  ILE779  LEU786  VAL792 
 PHE793  MET794  SER795  GLU796  ALA797  LYS798  CYS799  TRP800  GLU811  SER814 

> <Gold.Protein.RotatedAtoms>
  152.2702  134.7941  160.0415 H   0  0  0  0  0  0  0  0  0  0  0  0  # atno 6907 bound_to 6896
  151.8557  133.3442  159.3695 H   0  0  0  0  0  0  0  0  0  0  0  0  # atno 6908 bound_to 6896
  150.7149  134.5183  159.5685 H   0  0  0  0  0  0  0  0  0  0  0  0  # atno 6909 bound_to 6896
  146.2414  139.9909  142.8426 H   0  0  0  0  0  0  0  0  0  0  0  0  # atno 7974 bound_to 7965
  154.8222  140.0444  157.1418 H   0  0  0  0  0  0  0  0  0  0  0  0  # atno 8008 bound_to 7997
  154.9247  140.3031  155.5178 H   0  0  0  0  0  0  0  0  0  0  0  0  # atno 8009 bound_to 7997
  156.2981  140.2334  156.4300 H   0  0  0  0  0  0  0  0  0  0  0  0  # atno 8010 bound_to 7997
  140.6799  143.6806  150.8109 H   0  0  0  0  0  0  0  0  0  0  0  0  # atno 10167 bound_to 10162
  156.6435  130.4934  149.6087 H   0  0  0  0  0  0  0  0  0  0  0  0  # atno 10718 bound_to 10713
  153.8126  135.3127  155.3402 H   0  0  0  0  0  0  0  0  0  0  0  0  # atno 10763 bound_to 10752
  154.8045  135.4706  154.0361 H   0  0  0  0  0  0  0  0  0  0  0  0  # atno 10764 bound_to 10752
  153.1744  135.6883  153.8652 H   0  0  0  0  0  0  0  0  0  0  0  0  # atno 10765 bound_to 10752
  140.5864  134.5089  157.5186 H   0  0  0  0  0  0  0  0  0  0  0  0  # atno 11005 bound_to 11000
  145.1504  140.9620  143.4436 LP  0  0  0  0  0  0  0  0  0  0  0  0  # atno 17320 bound_to 7965
  145.0211  139.3424  143.6072 LP  0  0  0  0  0  0  0  0  0  0  0  0  # atno 17321 bound_to 7965
  140.0504  143.5255  152.2676 LP  0  0  0  0  0  0  0  0  0  0  0  0  # atno 17342 bound_to 10162
  139.6115  144.7610  151.2941 LP  0  0  0  0  0  0  0  0  0  0  0  0  # atno 17343 bound_to 10162
  156.2140  130.6696  151.1300 LP  0  0  0  0  0  0  0  0  0  0  0  0  # atno 17370 bound_to 10713
  157.7164  131.0707  150.6311 LP  0  0  0  0  0  0  0  0  0  0  0  0  # atno 17371 bound_to 10713
  139.9294  134.7993  156.0975 LP  0  0  0  0  0  0  0  0  0  0  0  0  # atno 17394 bound_to 11000
  141.0963  133.6694  156.2653 LP  0  0  0  0  0  0  0  0  0  0  0  0  # atno 17395 bound_to 11000

$$$$
