AV-unprocessed.smi:765|AV-procd|sdf|3643|dock3
  -GOLD-   22720 1 43D 1   1.00000     0.00000
 Structure written by MMmdl.
 39 40  0  0  0  0  0  0  0  0  1 V2000
  148.4100  141.6173  156.8976 C   0  0  0  0  0  0  0  0  0  0  0  0
  149.8456  141.1054  157.0812 C   0  0  2  0  0  0  0  0  0  0  0  0
  150.4914  140.7494  155.7300 C   0  0  0  0  0  0  0  0  0  0  0  0
  151.9205  140.2178  155.9093 C   0  0  0  0  0  0  0  0  0  0  0  0
  151.9441  139.0115  156.8626 C   0  0  0  0  0  0  0  0  0  0  0  0
  151.3191  139.3328  158.2430 C   0  0  1  0  0  0  0  0  0  0  0  0
  151.2199  138.0978  159.0442 C   0  0  0  0  0  0  0  0  0  0  0  0
  151.1407  137.1294  159.6727 N   0  0  0  0  0  0  0  0  0  0  0  0
  152.1088  140.3418  158.9566 N   0  0  0  0  0  0  0  0  0  0  0  0
  153.4163  140.2860  159.2610 C   0  0  0  0  0  0  0  0  0  0  0  0
  154.1423  139.3390  158.9573 O   0  0  0  0  0  0  0  0  0  0  0  0
  153.9773  141.4928  160.0282 C   0  0  2  0  0  0  0  0  0  0  0  0
  154.3259  141.1664  161.4926 C   0  0  0  0  0  0  0  0  0  0  0  0
  153.0517  142.6152  159.9455 N   0  0  0  0  0  0  0  0  0  0  0  0
  152.4805  143.3443  160.9708 C   0  0  0  0  0  0  0  0  0  0  0  0
  151.6717  144.2856  160.4017 C   0  0  0  0  0  0  0  0  0  0  0  0
  151.8110  144.0509  159.0054 C   0  0  0  0  0  0  0  0  0  0  0  0
  152.6346  143.0509  158.7358 N   0  0  0  0  0  0  0  0  0  0  0  0
  149.8929  139.8930  158.0364 C   0  0  0  0  0  0  0  0  0  0  0  0
  147.7702  140.8550  156.4518 H   0  0  0  0  0  0  0  0  0  0  0  0
  148.3855  142.4933  156.2488 H   0  0  0  0  0  0  0  0  0  0  0  0
  147.9702  141.9040  157.8533 H   0  0  0  0  0  0  0  0  0  0  0  0
  150.4224  141.9172  157.5259 H   0  0  0  0  0  0  0  0  0  0  0  0
  149.8879  139.9980  155.2187 H   0  0  0  0  0  0  0  0  0  0  0  0
  150.5069  141.6257  155.0810 H   0  0  0  0  0  0  0  0  0  0  0  0
  152.3324  139.9319  154.9411 H   0  0  0  0  0  0  0  0  0  0  0  0
  152.5636  141.0100  156.2943 H   0  0  0  0  0  0  0  0  0  0  0  0
  151.3907  138.1914  156.4029 H   0  0  0  0  0  0  0  0  0  0  0  0
  152.9663  138.6490  156.9724 H   0  0  0  0  0  0  0  0  0  0  0  0
  151.6045  141.1629  159.2585 H   0  0  0  0  0  0  0  0  0  0  0  0
  154.9060  141.7820  159.5319 H   0  0  0  0  0  0  0  0  0  0  0  0
  155.0353  140.3402  161.5549 H   0  0  0  0  0  0  0  0  0  0  0  0
  153.4424  140.8900  162.0695 H   0  0  0  0  0  0  0  0  0  0  0  0
  154.7832  142.0263  161.9825 H   0  0  0  0  0  0  0  0  0  0  0  0
  152.6941  143.1325  162.0085 H   0  0  0  0  0  0  0  0  0  0  0  0
  151.0703  145.0274  160.9060 H   0  0  0  0  0  0  0  0  0  0  0  0
  151.3402  144.5729  158.1854 H   0  0  0  0  0  0  0  0  0  0  0  0
  149.4616  140.1658  159.0011 H   0  0  0  0  0  0  0  0  0  0  0  0
  149.2545  139.1029  157.6375 H   0  0  0  0  0  0  0  0  0  0  0  0
  1  2  1  0  0  0  0
  1 20  1  0  0  0  0
  1 21  1  0  0  0  0
  1 22  1  0  0  0  0
  2 19  1  0  0  0  0
  2  3  1  0  0  0  0
  2 23  1  0  0  0  0
  3  4  1  0  0  0  0
  3 24  1  0  0  0  0
  3 25  1  0  0  0  0
  4  5  1  0  0  0  0
  4 26  1  0  0  0  0
  4 27  1  0  0  0  0
  5  6  1  0  0  0  0
  5 28  1  0  0  0  0
  5 29  1  0  0  0  0
  6  7  1  0  0  0  0
  6  9  1  0  0  0  0
  6 19  1  0  0  0  0
  7  8  3  0  0  0  0
  9 10  1  0  0  0  0
  9 30  1  0  0  0  0
 10 11  2  0  0  0  0
 10 12  1  0  0  0  0
 12 13  1  0  0  0  0
 12 14  1  0  0  0  0
 12 31  1  0  0  0  0
 13 32  1  0  0  0  0
 13 33  1  0  0  0  0
 13 34  1  0  0  0  0
 14 18  1  0  0  0  0
 14 15  1  0  0  0  0
 15 16  2  0  0  0  0
 15 35  1  0  0  0  0
 16 17  1  0  0  0  0
 16 36  1  0  0  0  0
 17 18  2  0  0  0  0
 17 37  1  0  0  0  0
 19 38  1  0  0  0  0
 19 39  1  0  0  0  0
M  END
> <s_m_source_file>
AV-unprocessed.smi

> <i_m_source_file_index>
765

> <i_lp_mmshare_version>
43012

> <i_f3d_flags>
0

> <s_epik_input>
W0NIM11bQ0BASF0oW0NIMl0xKVtDSDJdW0NIMl1bQ0gyXVtDQEBdMShDI04pW05IXUMoPU8pW0NASF0oW0NIM10pbjJbY0hdW2NIXVtjSF1uMg==

> <s_epik_cmdline>
J2VwaWtfcHl0aG9uJywgJy1waCcsICc3LjAnLCAnLXRuJywgJzgnLCAnLW1hJywgJzIwMCcsICctbWV0YWxfYmluZGluZycsICctaW1hZScsICc8aW5maWxlLm1hZT4nLCAnLW9tYWUnLCAnPG91dGZpbGUubWFlPic=

> <r_lp_tautomer_probability>
1

> <r_epik_Ionization_Penalty>
2.71142e-05

> <r_epik_Ionization_Penalty_Charging>
0

> <r_epik_Ionization_Penalty_Neutral>
2.71142e-05

> <r_epik_State_Penalty>
-0

> <r_epik_Charging_Adjusted_Penalty>
0

> <i_epik_Tot_Q>
0

> <i_epik_Tot_abs_Q>
0

> <r_epik_Metal_State_Penalty>
-0

> <b_epik_Metal_Only>
0

> <s_lp_Force_Field>
OPLS_2005

> <r_lp_Energy>
11.1831

> <b_lp_Chiralities_Consistent>
1

> <s_lp_Variant>
AV-unprocessed.smi:765-1

> <Gold.Version>
5.8.1

> <Gold.Id.Protein>
6NUR|6NUR_protein|mol2

> <Gold.PLP.Fitness>
44.7206

> <Gold.PLP.PLP>
-39.4010

> <Gold.PLP.part.hbond>
-2.0000

> <Gold.PLP.part.metal>
0.0000

> <Gold.PLP.part.buried>
-5.4610

> <Gold.PLP.part.nonpolar>
-32.7239

> <Gold.PLP.part.repulsive>
0.1333

> <Gold.PLP.ligand.clash>
0.0000

> <Gold.PLP.ligand.torsion>
0.3738

> <Gold.PLP.Chemscore.Hbond>
2.0000

> <Gold.PLP.Chemscore.CHOScore>
0.0000

> <Gold.PLP.Chemscore.Metal>
0.0000

> <Gold.Chemscore.Hbonds>
donor molecule, donor type, donor heavy atom, donor atom, acceptor molecule, acceptor atom, score
      P1  H  6896  6909       L1     8  1.00
      P1  H  7997  8008       L1    11  1.00

> <Gold.PLP.Chemscore.Internal.Correction>
0.0673

> <Gold.Rescore>
     Score         DG    S(hbond)    S(metal)    S(lipo)     H(rot)  DE(clash)    DE(int)     intcor
     15.94     -17.61       1.76        0.00      84.44       1.42       0.01       1.66       ----

> <Gold.Chemscore.Fitness>
15.9402

> <Gold.Chemscore.DG>
-17.6135

> <Gold.Chemscore.ZeroCoef>
-5.4800

> <Gold.Chemscore.Hbond>
1.7620

> <Gold.Chemscore.Metal>
0.0000

> <Gold.Chemscore.Lipo>
84.4390

> <Gold.Chemscore.Internal_Hbond>
0.0000

> <Gold.Chemscore.DEClash>
0.0149

> <Gold.Chemscore.DEInternal>
1.6585

> <Gold.Chemscore.Rot>
1.4183

> <Gold.Chemscore.Internal.Correction>
   9.000000E+99

> <Gold.Chemscore.Hbonds>
donor molecule, donor type, donor heavy atom, donor atom, acceptor molecule, acceptor atom, score
      P1  H  6896  6909       L1     8  0.95
      P1  H  7997  8008       L1    11  0.34

> <Gold.Chemscore.Hbond.Weighted>
-5.8851

> <Gold.Chemscore.Metal.Weighted>
-0.0000

> <Gold.Chemscore.Lipo.Weighted>
-9.8794

> <Gold.Chemscore.Internal_Hbond.Weighted>
0.0000

> <Gold.Chemscore.DEClash.Weighted>
0.0149

> <Gold.Chemscore.DEInternal.Weighted>
1.6585

> <Gold.Chemscore.Rot.Weighted>
3.6309

> <Gold.Chemscore.Internal.Correction.Weighted>
   9.000000E+99

> <Gold.Protein.RotatedTorsions>
[ 6907 6896 6895 6894 ] final  100.13 input  -60.11 | X-H torsion
[ 7974 7965 7964 7962 ] final -137.40 input  175.53 | X-H torsion
[ 8008 7997 7996 7995 ] final -118.16 input   59.86 | X-H torsion
[ 10167 10162 10161 10158 ] final  112.42 input  -65.29 | X-H torsion
[ 10718 10713 10712 10709 ] final    8.53 input   66.30 | X-H torsion
[ 10763 10752 10751 10750 ] final  -69.71 input  -60.55 | X-H torsion
[ 11005 11000 10999 10996 ] final   32.86 input  -57.11 | X-H torsion

> <Gold.Protein.ActiveResidues>
 VAL166  LYS551  ARG553  GLY616  TRP617  ASP618  TYR619  PRO620  LYS621  CYS622 
 ASP623  PHE694  ASN695  SER759  ASP760  ASP761  ALA762  ILE779  LEU786  VAL792 
 PHE793  MET794  SER795  GLU796  ALA797  LYS798  CYS799  TRP800  GLU811  SER814 

> <Gold.Protein.RotatedAtoms>
  152.5378  134.0323  159.8029 H   0  0  0  0  0  0  0  0  0  0  0  0  # atno 6907 bound_to 6896
  151.0492  133.5631  159.2651 H   0  0  0  0  0  0  0  0  0  0  0  0  # atno 6908 bound_to 6896
  151.2572  135.0649  159.9138 H   0  0  0  0  0  0  0  0  0  0  0  0  # atno 6909 bound_to 6896
  144.8845  140.6555  143.5184 H   0  0  0  0  0  0  0  0  0  0  0  0  # atno 7974 bound_to 7965
  155.0952  140.0395  157.2680 H   0  0  0  0  0  0  0  0  0  0  0  0  # atno 8008 bound_to 7997
  154.6801  140.2631  155.6892 H   0  0  0  0  0  0  0  0  0  0  0  0  # atno 8009 bound_to 7997
  156.2691  140.2780  156.1342 H   0  0  0  0  0  0  0  0  0  0  0  0  # atno 8010 bound_to 7997
  139.6537  144.7129  151.1999 H   0  0  0  0  0  0  0  0  0  0  0  0  # atno 10167 bound_to 10162
  156.9531  130.5904  149.5658 H   0  0  0  0  0  0  0  0  0  0  0  0  # atno 10718 bound_to 10713
  154.4073  135.6017  153.5932 H   0  0  0  0  0  0  0  0  0  0  0  0  # atno 10763 bound_to 10752
  152.9789  135.5921  154.4113 H   0  0  0  0  0  0  0  0  0  0  0  0  # atno 10764 bound_to 10752
  154.3920  135.2842  155.2127 H   0  0  0  0  0  0  0  0  0  0  0  0  # atno 10765 bound_to 10752
  140.2691  134.3103  155.7833 H   0  0  0  0  0  0  0  0  0  0  0  0  # atno 11005 bound_to 11000
  145.3893  139.1620  143.4237 LP  0  0  0  0  0  0  0  0  0  0  0  0  # atno 17320 bound_to 7965
  146.3016  140.3981  142.8702 LP  0  0  0  0  0  0  0  0  0  0  0  0  # atno 17321 bound_to 7965
  140.7549  143.6108  150.8607 LP  0  0  0  0  0  0  0  0  0  0  0  0  # atno 17342 bound_to 10162
  139.9759  143.6005  152.2959 LP  0  0  0  0  0  0  0  0  0  0  0  0  # atno 17343 bound_to 10162
  156.0354  130.5442  150.8641 LP  0  0  0  0  0  0  0  0  0  0  0  0  # atno 17370 bound_to 10713
  157.5709  131.0946  150.9419 LP  0  0  0  0  0  0  0  0  0  0  0  0  # atno 17371 bound_to 10713
  141.2180  133.7456  156.9306 LP  0  0  0  0  0  0  0  0  0  0  0  0  # atno 17394 bound_to 11000
  140.1391  134.9306  157.2442 LP  0  0  0  0  0  0  0  0  0  0  0  0  # atno 17395 bound_to 11000

$$$$
