AV-unprocessed.smi:241|AV-procd|sdf|1842|dock10
  -GOLD-   2262020463D 1   1.00000     0.00000
 Structure written by MMmdl.
 54 57  0  0  0  0  0  0  0  0  1 V2000
  146.6576  142.2655  154.4517 C   0  0  0  0  0  0  0  0  0  0  0  0
  147.3884  141.7755  155.5641 O   0  0  0  0  0  0  0  0  0  0  0  0
  148.7843  141.6562  155.3295 C   0  0  0  0  0  0  0  0  0  0  0  0
  149.5160  141.1760  156.5979 C   0  0  2  0  0  0  0  0  0  0  0  0
  149.5697  142.1927  157.7375 C   0  0  0  0  0  0  0  0  0  0  0  0
  150.6969  141.6374  158.6028 C   0  0  2  0  0  0  0  0  0  0  0  0
  151.2673  142.6580  159.4087 O   0  0  0  0  0  0  0  0  0  0  0  0
  151.8917  143.6860  158.6570 C   0  0  0  0  0  0  0  0  0  0  0  0
  151.6761  141.0565  157.5713 C   0  0  0  0  0  0  0  0  0  0  0  0
  150.9168  140.8545  156.3408 N   0  0  0  0  0  0  0  0  0  0  0  0
  151.1529  139.6782  155.7194 C   0  0  0  0  0  0  0  0  0  0  0  0
  152.1963  139.5570  154.8567 N   0  0  0  0  0  0  0  0  0  0  0  0
  152.4237  138.3894  154.2470 C   0  0  0  0  0  0  0  0  0  0  0  0
  151.7422  137.2460  154.3513 N   0  0  0  0  0  0  0  0  0  0  0  0
  150.6918  137.3704  155.2131 C   0  0  0  0  0  0  0  0  0  0  0  0
  150.3330  138.5411  155.9370 C   0  0  0  0  0  0  0  0  0  0  0  0
  149.2210  138.2918  156.7302 N   0  0  0  0  0  0  0  0  0  0  0  0
  148.9402  137.0392  156.4928 C   0  0  0  0  0  0  0  0  0  0  0  0
  149.7551  136.4175  155.5722 N   0  0  0  0  0  0  0  0  0  0  0  0
  149.6960  135.0476  155.1544 C   0  0  0  0  0  0  0  0  0  0  0  0
  148.7046  134.0722  155.7909 C   0  0  0  0  0  0  0  0  0  0  0  0
  149.7143  132.9205  155.5774 C   0  0  0  0  0  0  0  0  0  0  0  0
  149.8666  131.9220  156.7381 C   0  0  0  0  0  0  0  0  0  0  0  0
  150.0365  132.5722  157.9810 O   0  0  0  0  0  0  0  0  0  0  0  0
  149.6023  132.1420  154.2496 C   0  0  0  0  0  0  0  0  0  0  0  0
  148.4455  131.3325  154.2058 O   0  0  0  0  0  0  0  0  0  0  0  0
  150.7774  134.0419  155.5582 C   0  0  0  0  0  0  0  0  0  0  0  0
  149.0114  140.2817  156.9670 H   0  0  0  0  0  0  0  0  0  0  0  0
  150.2936  140.8349  159.2236 H   0  0  0  0  0  0  0  0  0  0  0  0
  145.6027  142.3440  154.7144 H   0  0  0  0  0  0  0  0  0  0  0  0
  146.7398  141.5870  153.6017 H   0  0  0  0  0  0  0  0  0  0  0  0
  147.0005  143.2525  154.1434 H   0  0  0  0  0  0  0  0  0  0  0  0
  148.9030  140.9095  154.5438 H   0  0  0  0  0  0  0  0  0  0  0  0
  149.2221  142.5773  154.9402 H   0  0  0  0  0  0  0  0  0  0  0  0
  149.8395  143.1783  157.3546 H   0  0  0  0  0  0  0  0  0  0  0  0
  148.6270  142.2794  158.2783 H   0  0  0  0  0  0  0  0  0  0  0  0
  152.3183  144.4252  159.3345 H   0  0  0  0  0  0  0  0  0  0  0  0
  151.1797  144.1992  158.0098 H   0  0  0  0  0  0  0  0  0  0  0  0
  152.7001  143.2891  158.0420 H   0  0  0  0  0  0  0  0  0  0  0  0
  152.4675  141.7746  157.3542 H   0  0  0  0  0  0  0  0  0  0  0  0
  152.1514  140.1472  157.9424 H   0  0  0  0  0  0  0  0  0  0  0  0
  153.2717  138.3687  153.5783 H   0  0  0  0  0  0  0  0  0  0  0  0
  148.1204  136.5344  156.9828 H   0  0  0  0  0  0  0  0  0  0  0  0
  149.5712  135.0692  154.0705 H   0  0  0  0  0  0  0  0  0  0  0  0
  148.5251  134.2893  156.8457 H   0  0  0  0  0  0  0  0  0  0  0  0
  147.7628  133.9727  155.2508 H   0  0  0  0  0  0  0  0  0  0  0  0
  149.0046  131.2570  156.8022 H   0  0  0  0  0  0  0  0  0  0  0  0
  150.7357  131.2815  156.5847 H   0  0  0  0  0  0  0  0  0  0  0  0
  149.3974  132.2317  158.5883 H   0  0  0  0  0  0  0  0  0  0  0  0
  149.5603  132.8188  153.3959 H   0  0  0  0  0  0  0  0  0  0  0  0
  150.4764  131.5101  154.0902 H   0  0  0  0  0  0  0  0  0  0  0  0
  148.4897  130.7930  153.4304 H   0  0  0  0  0  0  0  0  0  0  0  0
  151.5706  133.9127  154.8210 H   0  0  0  0  0  0  0  0  0  0  0  0
  151.1948  134.2531  156.5445 H   0  0  0  0  0  0  0  0  0  0  0  0
  1  2  1  0  0  0  0
  1 30  1  0  0  0  0
  1 31  1  0  0  0  0
  1 32  1  0  0  0  0
  2  3  1  0  0  0  0
  3  4  1  0  0  0  0
  3 33  1  0  0  0  0
  3 34  1  0  0  0  0
  4 28  1  0  0  0  0
  4 10  1  0  0  0  0
  4  5  1  0  0  0  0
  5  6  1  0  0  0  0
  5 35  1  0  0  0  0
  5 36  1  0  0  0  0
  6 29  1  0  0  0  0
  6  7  1  0  0  0  0
  6  9  1  0  0  0  0
  7  8  1  0  0  0  0
  8 37  1  0  0  0  0
  8 38  1  0  0  0  0
  8 39  1  0  0  0  0
  9 10  1  0  0  0  0
  9 40  1  0  0  0  0
  9 41  1  0  0  0  0
 10 11  1  0  0  0  0
 11 16  1  0  0  0  0
 11 12  2  0  0  0  0
 12 13  1  0  0  0  0
 13 14  2  0  0  0  0
 13 42  1  0  0  0  0
 14 15  1  0  0  0  0
 15 19  1  0  0  0  0
 15 16  2  0  0  0  0
 16 17  1  0  0  0  0
 17 18  2  0  0  0  0
 18 19  1  0  0  0  0
 18 43  1  0  0  0  0
 19 20  1  0  0  0  0
 20 27  1  0  0  0  0
 20 21  1  0  0  0  0
 20 44  1  0  0  0  0
 21 22  1  0  0  0  0
 21 45  1  0  0  0  0
 21 46  1  0  0  0  0
 22 23  1  0  0  0  0
 22 25  1  0  0  0  0
 22 27  1  0  0  0  0
 23 24  1  0  0  0  0
 23 47  1  0  0  0  0
 23 48  1  0  0  0  0
 24 49  1  0  0  0  0
 25 26  1  0  0  0  0
 25 50  1  0  0  0  0
 25 51  1  0  0  0  0
 26 52  1  0  0  0  0
 27 53  1  0  0  0  0
 27 54  1  0  0  0  0
M  END
> <s_m_source_file>
AV-unprocessed.smi

> <i_m_source_file_index>
241

> <i_lp_mmshare_version>
43012

> <i_f3d_flags>
0

> <s_epik_input>
W0NIM11PW0NIMl1bQ0BASF0xW0NIMl1bQ0BASF0oT1tDSDNdKVtDSDJdTjFjKG5bY0hdbjIpYyhjMjMpbltjSF1uM1tDSF0oW0NIMl00KVtDSDJdQzQoW0NIMl1bT0hdKVtDSDJdW09IXQ==

> <s_epik_cmdline>
J2VwaWtfcHl0aG9uJywgJy1waCcsICc3LjAnLCAnLXRuJywgJzgnLCAnLW1hJywgJzIwMCcsICctbWV0YWxfYmluZGluZycsICctaW1hZScsICc8aW5maWxlLm1hZT4nLCAnLW9tYWUnLCAnPG91dGZpbGUubWFlPic=

> <r_lp_tautomer_probability>
1

> <r_epik_Ionization_Penalty>
0.00568677

> <r_epik_Ionization_Penalty_Charging>
0

> <r_epik_Ionization_Penalty_Neutral>
0.00568677

> <r_epik_State_Penalty>
0.00400877

> <r_epik_Charging_Adjusted_Penalty>
0.00400877

> <i_epik_Tot_Q>
0

> <i_epik_Tot_abs_Q>
0

> <r_epik_Metal_State_Penalty>
-0

> <b_epik_Metal_Only>
0

> <s_lp_Force_Field>
OPLS_2005

> <r_lp_Energy>
58.6567

> <b_lp_Chiralities_Consistent>
1

> <s_lp_Variant>
AV-unprocessed.smi:241-3

> <Gold.Version>
5.8.1

> <Gold.Id.Protein>
6NUR|6NUR_protein|mol2

> <Gold.PLP.Fitness>
44.7021

> <Gold.PLP.PLP>
-37.9103

> <Gold.PLP.part.hbond>
-3.2683

> <Gold.PLP.part.metal>
0.0000

> <Gold.PLP.part.buried>
-7.2148

> <Gold.PLP.part.nonpolar>
-28.8786

> <Gold.PLP.part.repulsive>
0.3463

> <Gold.PLP.ligand.clash>
0.0000

> <Gold.PLP.ligand.torsion>
1.0326

> <Gold.PLP.Chemscore.Hbond>
2.7200

> <Gold.PLP.Chemscore.CHOScore>
0.0000

> <Gold.PLP.Chemscore.Metal>
0.0000

> <Gold.Chemscore.Hbonds>
donor molecule, donor type, donor heavy atom, donor atom, acceptor molecule, acceptor atom, score
      P1  H  6896  6908       L1    24  0.80
      P1  H  7989  7998       L1    12  0.82
      P1  H 10752 10765       L1    14  1.00

> <Gold.PLP.Chemscore.Internal.Correction>
0.6970

> <Gold.Rescore>
     Score         DG    S(hbond)    S(metal)    S(lipo)     H(rot)  DE(clash)    DE(int)     intcor
      8.43     -10.87       1.81        0.00      81.15       3.97       0.03       2.40       ----

> <Gold.Chemscore.Fitness>
8.4334

> <Gold.Chemscore.DG>
-10.8661

> <Gold.Chemscore.ZeroCoef>
-5.4800

> <Gold.Chemscore.Hbond>
1.8147

> <Gold.Chemscore.Metal>
0.0000

> <Gold.Chemscore.Lipo>
81.1548

> <Gold.Chemscore.Internal_Hbond>
0.0000

> <Gold.Chemscore.DEClash>
0.0327

> <Gold.Chemscore.DEInternal>
2.4000

> <Gold.Chemscore.Rot>
3.9727

> <Gold.Chemscore.Internal.Correction>
   9.000000E+99

> <Gold.Chemscore.Hbonds>
donor molecule, donor type, donor heavy atom, donor atom, acceptor molecule, acceptor atom, score
      P1  H  6896  6908       L1    24  0.12
      P1  H  7989  7998       L1    12  0.13
      P1  H 10752 10765       L1    14  0.77

> <Gold.Chemscore.Hbond.Weighted>
-6.0612

> <Gold.Chemscore.Metal.Weighted>
-0.0000

> <Gold.Chemscore.Lipo.Weighted>
-9.4951

> <Gold.Chemscore.Internal_Hbond.Weighted>
0.0000

> <Gold.Chemscore.DEClash.Weighted>
0.0327

> <Gold.Chemscore.DEInternal.Weighted>
2.4000

> <Gold.Chemscore.Rot.Weighted>
10.1702

> <Gold.Chemscore.Internal.Correction.Weighted>
   9.000000E+99

> <Gold.Protein.RotatedTorsions>
[ 6907 6896 6895 6894 ] final  102.03 input  -60.11 | X-H torsion
[ 7974 7965 7964 7962 ] final -111.32 input  175.53 | X-H torsion
[ 8008 7997 7996 7995 ] final   43.70 input   59.86 | X-H torsion
[ 10167 10162 10161 10158 ] final -147.40 input  -65.29 | X-H torsion
[ 10718 10713 10712 10709 ] final  126.45 input   66.30 | X-H torsion
[ 10763 10752 10751 10750 ] final  164.43 input  -60.55 | X-H torsion
[ 11005 11000 10999 10996 ] final  -95.53 input  -57.11 | X-H torsion

> <Gold.Protein.ActiveResidues>
 VAL166  LYS551  ARG553  GLY616  TRP617  ASP618  TYR619  PRO620  LYS621  CYS622 
 ASP623  PHE694  ASN695  SER759  ASP760  ASP761  ALA762  ILE779  LEU786  VAL792 
 PHE793  MET794  SER795  GLU796  ALA797  LYS798  CYS799  TRP800  GLU811  SER814 

> <Gold.Protein.RotatedAtoms>
  152.5334  134.0037  159.7906 H   0  0  0  0  0  0  0  0  0  0  0  0  # atno 6907 bound_to 6896
  151.0251  133.5833  159.2674 H   0  0  0  0  0  0  0  0  0  0  0  0  # atno 6908 bound_to 6896
  151.2858  135.0734  159.9239 H   0  0  0  0  0  0  0  0  0  0  0  0  # atno 6909 bound_to 6896
  145.1575  140.8861  143.3610 H   0  0  0  0  0  0  0  0  0  0  0  0  # atno 7974 bound_to 7965
  155.3071  140.3388  155.4245 H   0  0  0  0  0  0  0  0  0  0  0  0  # atno 8008 bound_to 7997
  156.1973  140.1720  156.8009 H   0  0  0  0  0  0  0  0  0  0  0  0  # atno 8009 bound_to 7997
  154.5515  140.0704  156.8659 H   0  0  0  0  0  0  0  0  0  0  0  0  # atno 8010 bound_to 7997
  139.7625  143.8356  152.2610 H   0  0  0  0  0  0  0  0  0  0  0  0  # atno 10167 bound_to 10162
  157.5418  131.1096  150.8846 H   0  0  0  0  0  0  0  0  0  0  0  0  # atno 10718 bound_to 10713
  154.3087  135.2757  155.2576 H   0  0  0  0  0  0  0  0  0  0  0  0  # atno 10763 bound_to 10752
  154.4981  135.5815  153.6513 H   0  0  0  0  0  0  0  0  0  0  0  0  # atno 10764 bound_to 10752
  152.9891  135.6151  154.3263 H   0  0  0  0  0  0  0  0  0  0  0  0  # atno 10765 bound_to 10752
  141.1439  133.8032  157.0447 H   0  0  0  0  0  0  0  0  0  0  0  0  # atno 11005 bound_to 11000
  145.0365  139.3296  143.5998 LP  0  0  0  0  0  0  0  0  0  0  0  0  # atno 17320 bound_to 7965
  146.3487  139.9723  142.8705 LP  0  0  0  0  0  0  0  0  0  0  0  0  # atno 17321 bound_to 7965
  139.8366  144.7229  150.9383 LP  0  0  0  0  0  0  0  0  0  0  0  0  # atno 17342 bound_to 10162
  140.7808  143.4021  151.1132 LP  0  0  0  0  0  0  0  0  0  0  0  0  # atno 17343 bound_to 10162
  156.9397  130.5380  149.5280 LP  0  0  0  0  0  0  0  0  0  0  0  0  # atno 17370 bound_to 10713
  156.0503  130.5573  150.8974 LP  0  0  0  0  0  0  0  0  0  0  0  0  # atno 17371 bound_to 10713
  140.0670  134.9723  157.1403 LP  0  0  0  0  0  0  0  0  0  0  0  0  # atno 17394 bound_to 11000
  140.3765  134.2333  155.7174 LP  0  0  0  0  0  0  0  0  0  0  0  0  # atno 17395 bound_to 11000

$$$$
