AV-unprocessed.smi:1882|AV-procd|sdf|7641|dock6
  -GOLD-   22720 9373D 1   1.00000     0.00000
 Structure written by MMmdl.
 25 26  0  0  0  0  0  0  0  0  1 V2000
  153.6313  141.6183  161.6197 C   0  0  0  0  0  0  0  0  0  0  0  0
  152.8774  142.6523  160.8559 C   0  0  0  0  0  0  0  0  0  0  0  0
  152.6530  142.5822  159.5414 N   0  0  0  0  0  0  0  0  0  0  0  0
  151.9241  143.6741  159.0584 C   0  0  0  0  0  0  0  0  0  0  0  0
  151.5793  143.7568  157.5996 C   0  0  0  0  0  0  0  0  0  0  0  0
  150.9767  142.4345  157.1223 C   0  0  0  0  0  0  0  0  0  0  0  0
  151.5459  141.3724  157.3748 O   0  0  0  0  0  0  0  0  0  0  0  0
  149.8272  142.5162  156.4351 N   0  0  0  0  0  0  0  0  0  0  0  0
  149.1035  141.4115  155.8945 C   0  0  0  0  0  0  0  0  0  0  0  0
  149.8604  140.4401  155.0145 C   0  0  0  0  0  0  0  0  0  0  0  0
  148.8688  141.3887  154.3995 C   0  0  0  0  0  0  0  0  0  0  0  0
  151.5903  144.5754  160.0399 C   0  0  0  0  0  0  0  0  0  0  0  0
  152.1908  144.0899  161.6015 S   0  0  0  0  0  0  0  0  0  0  0  0
  153.9786  140.8265  160.9551 H   0  0  0  0  0  0  0  0  0  0  0  0
  152.9899  141.1778  162.3830 H   0  0  0  0  0  0  0  0  0  0  0  0
  154.4958  142.0708  162.1056 H   0  0  0  0  0  0  0  0  0  0  0  0
  150.8634  144.5588  157.4132 H   0  0  0  0  0  0  0  0  0  0  0  0
  152.4649  143.9952  157.0091 H   0  0  0  0  0  0  0  0  0  0  0  0
  149.4358  143.4337  156.2793 H   0  0  0  0  0  0  0  0  0  0  0  0
  148.3136  140.9817  156.5093 H   0  0  0  0  0  0  0  0  0  0  0  0
  150.9166  140.6314  154.8339 H   0  0  0  0  0  0  0  0  0  0  0  0
  149.5816  139.3898  155.0712 H   0  0  0  0  0  0  0  0  0  0  0  0
  147.9270  140.9727  154.0467 H   0  0  0  0  0  0  0  0  0  0  0  0
  149.2635  142.2129  153.8084 H   0  0  0  0  0  0  0  0  0  0  0  0
  151.0333  145.4949  159.9383 H   0  0  0  0  0  0  0  0  0  0  0  0
  1  2  1  0  0  0  0
  1 14  1  0  0  0  0
  1 15  1  0  0  0  0
  1 16  1  0  0  0  0
  2 13  1  0  0  0  0
  2  3  2  0  0  0  0
  3  4  1  0  0  0  0
  4  5  1  0  0  0  0
  4 12  2  0  0  0  0
  5  6  1  0  0  0  0
  5 17  1  0  0  0  0
  5 18  1  0  0  0  0
  6  7  2  0  0  0  0
  6  8  1  0  0  0  0
  8  9  1  0  0  0  0
  8 19  1  0  0  0  0
  9 11  1  0  0  0  0
  9 10  1  0  0  0  0
  9 20  1  0  0  0  0
 10 11  1  0  0  0  0
 10 21  1  0  0  0  0
 10 22  1  0  0  0  0
 11 23  1  0  0  0  0
 11 24  1  0  0  0  0
 12 13  1  0  0  0  0
 12 25  1  0  0  0  0
M  END
> <s_m_source_file>
AV-unprocessed.smi

> <i_m_source_file_index>
1882

> <i_lp_mmshare_version>
43012

> <i_f3d_flags>
0

> <s_epik_input>
W0NIM11jMW5jKFtjSF1zMSlbQ0gyXUMoPU8pW05IXVtDSF0yW0NIMl1bQ0gyXTI=

> <s_epik_cmdline>
J2VwaWtfcHl0aG9uJywgJy1waCcsICc3LjAnLCAnLXRuJywgJzgnLCAnLW1hJywgJzIwMCcsICctbWV0YWxfYmluZGluZycsICctaW1hZScsICc8aW5maWxlLm1hZT4nLCAnLW9tYWUnLCAnPG91dGZpbGUubWFlPic=

> <r_lp_tautomer_probability>
1

> <r_epik_Ionization_Penalty>
5.52242e-05

> <r_epik_Ionization_Penalty_Charging>
0

> <r_epik_Ionization_Penalty_Neutral>
5.52242e-05

> <r_epik_State_Penalty>
-0

> <r_epik_Charging_Adjusted_Penalty>
0

> <i_epik_Tot_Q>
0

> <i_epik_Tot_abs_Q>
0

> <r_epik_Metal_State_Penalty>
-0

> <b_epik_Metal_Only>
0

> <s_lp_Force_Field>
OPLS_2005

> <r_lp_Energy>
14.0294

> <b_lp_Chiralities_Consistent>
1

> <s_lp_Variant>
AV-unprocessed.smi:1882-1

> <Gold.Version>
5.8.1

> <Gold.Id.Protein>
6NUR|6NUR_protein|mol2

> <Gold.PLP.Fitness>
38.3173

> <Gold.PLP.PLP>
-35.7471

> <Gold.PLP.part.hbond>
-0.9578

> <Gold.PLP.part.metal>
0.0000

> <Gold.PLP.part.buried>
-3.4071

> <Gold.PLP.part.nonpolar>
-31.1099

> <Gold.PLP.part.repulsive>
0.0920

> <Gold.PLP.ligand.clash>
0.0000

> <Gold.PLP.ligand.torsion>
0.2323

> <Gold.PLP.Chemscore.Hbond>
1.0000

> <Gold.PLP.Chemscore.CHOScore>
0.0000

> <Gold.PLP.Chemscore.Metal>
0.0000

> <Gold.Chemscore.Hbonds>
donor molecule, donor type, donor heavy atom, donor atom, acceptor molecule, acceptor atom, score
      L1  H     8    19       P1  8028  0.99

> <Gold.PLP.Chemscore.Internal.Correction>
0.0349

> <Gold.Rescore>
     Score         DG    S(hbond)    S(metal)    S(lipo)     H(rot)  DE(clash)    DE(int)     intcor
     14.28     -16.28       1.00        0.00      93.46       1.36       0.09       1.91       ----

> <Gold.Chemscore.Fitness>
14.2785

> <Gold.Chemscore.DG>
-16.2808

> <Gold.Chemscore.ZeroCoef>
-5.4800

> <Gold.Chemscore.Hbond>
1.0000

> <Gold.Chemscore.Metal>
0.0000

> <Gold.Chemscore.Lipo>
93.4591

> <Gold.Chemscore.Internal_Hbond>
0.0000

> <Gold.Chemscore.DEClash>
0.0929

> <Gold.Chemscore.DEInternal>
1.9094

> <Gold.Chemscore.Rot>
1.3570

> <Gold.Chemscore.Internal.Correction>
   9.000000E+99

> <Gold.Chemscore.Hbonds>
donor molecule, donor type, donor heavy atom, donor atom, acceptor molecule, acceptor atom, score
      L1  H     8    19       P1  8028  0.92

> <Gold.Chemscore.Hbond.Weighted>
-3.3400

> <Gold.Chemscore.Metal.Weighted>
-0.0000

> <Gold.Chemscore.Lipo.Weighted>
-10.9347

> <Gold.Chemscore.Internal_Hbond.Weighted>
0.0000

> <Gold.Chemscore.DEClash.Weighted>
0.0929

> <Gold.Chemscore.DEInternal.Weighted>
1.9094

> <Gold.Chemscore.Rot.Weighted>
3.4740

> <Gold.Chemscore.Internal.Correction.Weighted>
   9.000000E+99

> <Gold.Protein.RotatedTorsions>
[ 6907 6896 6895 6894 ] final  100.02 input  -60.11 | X-H torsion
[ 7974 7965 7964 7962 ] final  168.52 input  175.53 | X-H torsion
[ 8008 7997 7996 7995 ] final   -6.40 input   59.86 | X-H torsion
[ 10167 10162 10161 10158 ] final  -81.76 input  -65.29 | X-H torsion
[ 10718 10713 10712 10709 ] final -171.81 input   66.30 | X-H torsion
[ 10763 10752 10751 10750 ] final   56.88 input  -60.55 | X-H torsion
[ 11005 11000 10999 10996 ] final   66.80 input  -57.11 | X-H torsion

> <Gold.Protein.ActiveResidues>
 VAL166  LYS551  ARG553  GLY616  TRP617  ASP618  TYR619  PRO620  LYS621  CYS622 
 ASP623  PHE694  ASN695  SER759  ASP760  ASP761  ALA762  ILE779  LEU786  VAL792 
 PHE793  MET794  SER795  GLU796  ALA797  LYS798  CYS799  TRP800  GLU811  SER814 

> <Gold.Protein.RotatedAtoms>
  152.5380  134.0340  159.8037 H   0  0  0  0  0  0  0  0  0  0  0  0  # atno 6907 bound_to 6896
  151.0506  133.5620  159.2650 H   0  0  0  0  0  0  0  0  0  0  0  0  # atno 6908 bound_to 6896
  151.2555  135.0644  159.9132 H   0  0  0  0  0  0  0  0  0  0  0  0  # atno 6909 bound_to 6896
  144.7386  139.8919  143.6403 H   0  0  0  0  0  0  0  0  0  0  0  0  # atno 7974 bound_to 7965
  154.5942  140.2434  155.7880 H   0  0  0  0  0  0  0  0  0  0  0  0  # atno 8008 bound_to 7997
  156.2268  140.2980  156.0040 H   0  0  0  0  0  0  0  0  0  0  0  0  # atno 8009 bound_to 7997
  155.2322  140.0404  157.2954 H   0  0  0  0  0  0  0  0  0  0  0  0  # atno 8010 bound_to 7997
  140.4382  143.2524  151.8663 H   0  0  0  0  0  0  0  0  0  0  0  0  # atno 10167 bound_to 10162
  156.7464  130.9361  151.3112 H   0  0  0  0  0  0  0  0  0  0  0  0  # atno 10718 bound_to 10713
  152.9839  135.5661  154.5300 H   0  0  0  0  0  0  0  0  0  0  0  0  # atno 10763 bound_to 10752
  154.4773  135.2787  155.1599 H   0  0  0  0  0  0  0  0  0  0  0  0  # atno 10764 bound_to 10752
  154.3122  135.6286  153.5524 H   0  0  0  0  0  0  0  0  0  0  0  0  # atno 10765 bound_to 10752
  139.9810  134.6745  156.0263 H   0  0  0  0  0  0  0  0  0  0  0  0  # atno 11005 bound_to 11000
  146.1135  139.4143  143.0273 LP  0  0  0  0  0  0  0  0  0  0  0  0  # atno 17320 bound_to 7965
  145.7408  141.0009  143.1302 LP  0  0  0  0  0  0  0  0  0  0  0  0  # atno 17321 bound_to 7965
  139.4788  144.5259  151.8736 LP  0  0  0  0  0  0  0  0  0  0  0  0  # atno 17342 bound_to 10162
  140.4349  144.2065  150.5889 LP  0  0  0  0  0  0  0  0  0  0  0  0  # atno 17343 bound_to 10162
  157.6796  130.9127  150.0235 LP  0  0  0  0  0  0  0  0  0  0  0  0  # atno 17370 bound_to 10713
  156.1430  130.3642  149.9553 LP  0  0  0  0  0  0  0  0  0  0  0  0  # atno 17371 bound_to 10713
  141.1481  133.6552  156.3930 LP  0  0  0  0  0  0  0  0  0  0  0  0  # atno 17394 bound_to 11000
  140.5097  134.6406  157.5280 LP  0  0  0  0  0  0  0  0  0  0  0  0  # atno 17395 bound_to 11000

$$$$
