AV-unprocessed.smi:2514|AV-procd|sdf|9893|dock8
  -GOLD-   2272013533D 1   1.00000     0.00000
 Structure written by MMmdl.
 25 26  0  0  0  0  0  0  0  0  2 V2000
  153.1486  138.6772  154.8096 C   0  0  0  0  0  0  0  0  0  0  0  0
  151.8211  137.9100  154.7892 C   0  0  2  0  0  0  0  0  0  0  0  0
  151.8578  136.9335  153.7677 O   0  0  0  0  0  0  0  0  0  0  0  0
  150.6453  138.8052  154.5105 C   0  0  0  0  0  0  0  0  0  0  0  0
  149.3582  138.4928  154.1671 C   0  0  0  0  0  0  0  0  0  0  0  0
  148.7594  139.7249  154.0135 N   0  0  0  0  0  0  0  0  0  0  0  0
  147.3832  139.9993  153.7262 C   0  0  0  0  0  0  0  0  0  0  0  0
  146.4775  140.6300  154.7819 C   0  0  0  0  0  0  0  0  0  0  0  0
  145.3812  139.8502  154.2210 N   0  3  0  0  0  0  0  0  0  0  0  0
  146.3370  138.8847  153.6935 C   0  0  0  0  0  0  0  0  0  0  0  0
  149.6168  140.7343  154.2912 N   0  0  0  0  0  0  0  0  0  0  0  0
  150.7624  140.1946  154.5658 N   0  0  0  0  0  0  0  0  0  0  0  0
  153.1478  139.4387  155.5899 H   0  0  0  0  0  0  0  0  0  0  0  0
  153.3336  139.1763  153.8579 H   0  0  0  0  0  0  0  0  0  0  0  0
  153.9860  138.0062  155.0036 H   0  0  0  0  0  0  0  0  0  0  0  0
  151.6867  137.3955  155.7415 H   0  0  0  0  0  0  0  0  0  0  0  0
  151.4461  137.2928  152.9967 H   0  0  0  0  0  0  0  0  0  0  0  0
  148.8490  137.5511  154.0237 H   0  0  0  0  0  0  0  0  0  0  0  0
  147.3680  140.5784  152.8002 H   0  0  0  0  0  0  0  0  0  0  0  0
  146.7187  140.3264  155.8025 H   0  0  0  0  0  0  0  0  0  0  0  0
  146.3477  141.7091  154.6924 H   0  0  0  0  0  0  0  0  0  0  0  0
  144.7502  139.4698  154.9122 H   0  0  0  0  0  0  0  0  0  0  0  0
  146.0906  138.5125  152.6987 H   0  0  0  0  0  0  0  0  0  0  0  0
  146.5339  138.0753  154.3995 H   0  0  0  0  0  0  0  0  0  0  0  0
  144.9132  140.3511  153.4789 H   0  0  0  0  0  0  0  0  0  0  0  0
  1  2  1  0  0  0  0
  1 13  1  0  0  0  0
  1 14  1  0  0  0  0
  1 15  1  0  0  0  0
  2  3  1  0  0  0  0
  2  4  1  0  0  0  0
  2 16  1  0  0  0  0
  3 17  1  0  0  0  0
  4 12  1  0  0  0  0
  4  5  2  0  0  0  0
  5  6  1  0  0  0  0
  5 18  1  0  0  0  0
  6  7  1  0  0  0  0
  6 11  1  0  0  0  0
  7 10  1  0  0  0  0
  7  8  1  0  0  0  0
  7 19  1  0  0  0  0
  8  9  1  0  0  0  0
  8 20  1  0  0  0  0
  8 21  1  0  0  0  0
  9 10  1  0  0  0  0
  9 22  1  0  0  0  0
  9 25  1  0  0  0  0
 10 23  1  0  0  0  0
 10 24  1  0  0  0  0
 11 12  2  0  0  0  0
M  CHG  1   9   1
M  END
> <s_m_source_file>
AV-unprocessed.smi

> <i_m_source_file_index>
2514

> <i_lp_mmshare_version>
43012

> <i_f3d_flags>
0

> <s_epik_input>
W0NIM11bQ0BIXShbT0hdKWMxW2NIXW4obm4xKVtDSF0yW0NIMl1bTkhdW0NIMl0y

> <s_epik_cmdline>
J2VwaWtfcHl0aG9uJywgJy1waCcsICc3LjAnLCAnLXRuJywgJzgnLCAnLW1hJywgJzIwMCcsICctbWV0YWxfYmluZGluZycsICctaW1hZScsICc8aW5maWxlLm1hZT4nLCAnLW9tYWUnLCAnPG91dGZpbGUubWFlPic=

> <r_lp_tautomer_probability>
1

> <r_epik_Ionization_Penalty>
0.215039

> <r_epik_Ionization_Penalty_Charging>
0.215038

> <r_epik_Ionization_Penalty_Neutral>
9.39085e-07

> <r_epik_State_Penalty>
0.20523

> <r_epik_Charging_Adjusted_Penalty>
0.420268

> <i_epik_Tot_Q>
1

> <i_epik_Tot_abs_Q>
1

> <r_epik_Metal_State_Penalty>
0.205259

> <b_epik_Metal_Only>
0

> <s_lp_Force_Field>
OPLS_2005

> <r_lp_Energy>
12.5086

> <b_lp_Chiralities_Consistent>
1

> <s_lp_Variant>
AV-unprocessed.smi:2514-1

> <Gold.Version>
5.8.1

> <Gold.Id.Protein>
6NUR|6NUR_protein|mol2

> <Gold.PLP.Fitness>
36.7054

> <Gold.PLP.PLP>
-21.7932

> <Gold.PLP.part.hbond>
-4.8638

> <Gold.PLP.part.metal>
0.0000

> <Gold.PLP.part.buried>
-1.9540

> <Gold.PLP.part.nonpolar>
-16.7048

> <Gold.PLP.part.repulsive>
0.2243

> <Gold.PLP.ligand.clash>
0.0000

> <Gold.PLP.ligand.torsion>
0.4546

> <Gold.PLP.Chemscore.Hbond>
4.3360

> <Gold.PLP.Chemscore.CHOScore>
0.8452

> <Gold.PLP.Chemscore.Metal>
0.0000

> <Gold.Chemscore.Hbonds>
donor molecule, donor type, donor heavy atom, donor atom, acceptor molecule, acceptor atom, score
      L1  H     3    17       P1  7949  0.30
      L1  H     9    25       P1 10175  1.98
      P1  H  7989  7998       L1    12  1.00
      P1  H 10752 10763       L1     3  1.00
      L1  C     5    18       P1  7948  0.85

> <Gold.PLP.Chemscore.Internal.Correction>
0.2777

> <Gold.Rescore>
     Score         DG    S(hbond)    S(metal)    S(lipo)     H(rot)  DE(clash)    DE(int)     intcor
     15.99     -16.72       3.36        0.00      40.13       1.83       0.21       0.51       ----

> <Gold.Chemscore.Fitness>
15.9935

> <Gold.Chemscore.DG>
-16.7183

> <Gold.Chemscore.ZeroCoef>
-5.4800

> <Gold.Chemscore.Hbond>
3.3625

> <Gold.Chemscore.Metal>
0.0000

> <Gold.Chemscore.Lipo>
40.1323

> <Gold.Chemscore.Internal_Hbond>
0.0000

> <Gold.Chemscore.DEClash>
0.2135

> <Gold.Chemscore.DEInternal>
0.5112

> <Gold.Chemscore.Rot>
1.8312

> <Gold.Chemscore.Internal.Correction>
   9.000000E+99

> <Gold.Chemscore.Hbonds>
donor molecule, donor type, donor heavy atom, donor atom, acceptor molecule, acceptor atom, score
      L1  H     3    17       P1  7949  0.24
      L1  H     9    25       P1 10175  0.93
      P1  H  7989  7998       L1    12  0.23
      P1  H 10752 10763       L1     3  0.78

> <Gold.Chemscore.Hbond.Weighted>
-11.2307

> <Gold.Chemscore.Metal.Weighted>
-0.0000

> <Gold.Chemscore.Lipo.Weighted>
-4.6955

> <Gold.Chemscore.Internal_Hbond.Weighted>
0.0000

> <Gold.Chemscore.DEClash.Weighted>
0.2135

> <Gold.Chemscore.DEInternal.Weighted>
0.5112

> <Gold.Chemscore.Rot.Weighted>
4.6879

> <Gold.Chemscore.Internal.Correction.Weighted>
   9.000000E+99

> <Gold.Protein.RotatedTorsions>
[ 6907 6896 6895 6894 ] final   -2.53 input  -60.11 | X-H torsion
[ 7974 7965 7964 7962 ] final -138.63 input  175.53 | X-H torsion
[ 8008 7997 7996 7995 ] final  123.58 input   59.86 | X-H torsion
[ 10167 10162 10161 10158 ] final   39.24 input  -65.29 | X-H torsion
[ 10718 10713 10712 10709 ] final -176.92 input   66.30 | X-H torsion
[ 10763 10752 10751 10750 ] final   32.90 input  -60.55 | X-H torsion
[ 11005 11000 10999 10996 ] final   80.83 input  -57.11 | X-H torsion

> <Gold.Protein.ActiveResidues>
 VAL166  LYS551  ARG553  GLY616  TRP617  ASP618  TYR619  PRO620  LYS621  CYS622 
 ASP623  PHE694  ASN695  SER759  ASP760  ASP761  ALA762  ILE779  LEU786  VAL792 
 PHE793  MET794  SER795  GLU796  ALA797  LYS798  CYS799  TRP800  GLU811  SER814 

> <Gold.Protein.RotatedAtoms>
  151.5285  135.1068  159.9896 H   0  0  0  0  0  0  0  0  0  0  0  0  # atno 6907 bound_to 6896
  152.4589  133.7776  159.6844 H   0  0  0  0  0  0  0  0  0  0  0  0  # atno 6908 bound_to 6896
  150.8543  133.7674  159.3039 H   0  0  0  0  0  0  0  0  0  0  0  0  # atno 6909 bound_to 6896
  144.8743  140.6413  143.5247 H   0  0  0  0  0  0  0  0  0  0  0  0  # atno 7974 bound_to 7965
  156.2771  140.2759  156.1650 H   0  0  0  0  0  0  0  0  0  0  0  0  # atno 8008 bound_to 7997
  155.0714  140.0387  157.2627 H   0  0  0  0  0  0  0  0  0  0  0  0  # atno 8009 bound_to 7997
  154.7037  140.2654  155.6700 H   0  0  0  0  0  0  0  0  0  0  0  0  # atno 8010 bound_to 7997
  140.3859  144.1917  150.6130 H   0  0  0  0  0  0  0  0  0  0  0  0  # atno 10167 bound_to 10162
  156.8218  130.9622  151.3111 H   0  0  0  0  0  0  0  0  0  0  0  0  # atno 10718 bound_to 10713
  153.0239  135.6401  154.1427 H   0  0  0  0  0  0  0  0  0  0  0  0  # atno 10763 bound_to 10752
  154.1158  135.2850  155.3221 H   0  0  0  0  0  0  0  0  0  0  0  0  # atno 10764 bound_to 10752
  154.6299  135.5496  153.7731 H   0  0  0  0  0  0  0  0  0  0  0  0  # atno 10765 bound_to 10752
  139.9120  134.7950  156.1960 H   0  0  0  0  0  0  0  0  0  0  0  0  # atno 11005 bound_to 11000
  145.4073  139.1586  143.4145 LP  0  0  0  0  0  0  0  0  0  0  0  0  # atno 17320 bound_to 7965
  146.2951  140.4174  142.8724 LP  0  0  0  0  0  0  0  0  0  0  0  0  # atno 17321 bound_to 7965
  140.4890  143.2354  151.8846 LP  0  0  0  0  0  0  0  0  0  0  0  0  # atno 17342 bound_to 10162
  139.4792  144.5187  151.8832 LP  0  0  0  0  0  0  0  0  0  0  0  0  # atno 17343 bound_to 10162
  157.6453  130.8839  149.9526 LP  0  0  0  0  0  0  0  0  0  0  0  0  # atno 17370 bound_to 10713
  156.0984  130.3657  150.0263 LP  0  0  0  0  0  0  0  0  0  0  0  0  # atno 17371 bound_to 10713
  141.0554  133.6868  156.1850 LP  0  0  0  0  0  0  0  0  0  0  0  0  # atno 17394 bound_to 11000
  140.6745  134.4833  157.5588 LP  0  0  0  0  0  0  0  0  0  0  0  0  # atno 17395 bound_to 11000

$$$$
