AV-unprocessed.smi:1834|AV-procd|sdf|7471|dock6
  -GOLD-   22720 9163D 1   1.00000     0.00000
 Structure written by MMmdl.
 46 47  0  0  0  0  0  0  0  0  2 V2000
  148.3746  133.0280  152.9598 C   0  0  0  0  0  0  0  0  0  0  0  0
  147.4699  134.0153  153.7108 C   0  0  0  0  0  0  0  0  0  0  0  0
  146.6109  134.8145  152.7997 N   0  3  1  0  0  0  0  0  0  0  0  0
  145.9121  133.9605  151.8040 C   0  0  0  0  0  0  0  0  0  0  0  0
  145.1165  134.8047  150.7949 C   0  0  0  0  0  0  0  0  0  0  0  0
  144.1402  135.7515  151.5091 C   0  0  0  0  0  0  0  0  0  0  0  0
  144.8662  136.6117  152.5604 C   0  0  2  0  0  0  0  0  0  0  0  0
  145.7122  137.7308  151.9063 C   0  0  0  0  0  0  0  0  0  0  0  0
  147.0641  137.8071  152.4533 N   0  0  0  0  0  0  0  0  0  0  0  0
  147.5076  138.7644  153.2811 C   0  0  0  0  0  0  0  0  0  0  0  0
  146.8016  139.6901  153.6814 O   0  0  0  0  0  0  0  0  0  0  0  0
  148.8012  138.5789  153.5948 N   0  0  0  0  0  0  0  0  0  0  0  0
  149.6135  139.3737  154.3413 C   0  0  0  0  0  0  0  0  0  0  0  0
  149.3451  140.5928  154.9014 C   0  0  0  0  0  0  0  0  0  0  0  0
  150.5760  140.9220  155.5402 C   0  0  0  0  0  0  0  0  0  0  0  0
  150.9056  142.1522  156.3332 C   0  0  0  0  0  0  0  0  0  0  0  0
  151.5046  139.9867  155.3758 N   0  0  0  0  0  0  0  0  0  0  0  0
  150.9139  139.0266  154.6320 N   0  0  0  0  0  0  0  0  0  0  0  0
  151.6562  137.8387  154.2569 C   0  0  0  0  0  0  0  0  0  0  0  0
  145.6543  135.6938  153.5252 C   0  0  0  0  0  0  0  0  0  0  0  0
  148.9606  132.4362  153.6632 H   0  0  0  0  0  0  0  0  0  0  0  0
  149.0780  133.5315  152.2974 H   0  0  0  0  0  0  0  0  0  0  0  0
  147.7855  132.3329  152.3615 H   0  0  0  0  0  0  0  0  0  0  0  0
  146.8393  133.4341  154.3849 H   0  0  0  0  0  0  0  0  0  0  0  0
  148.0638  134.6781  154.3415 H   0  0  0  0  0  0  0  0  0  0  0  0
  146.6385  133.3520  151.2640 H   0  0  0  0  0  0  0  0  0  0  0  0
  145.2445  133.2707  152.3230 H   0  0  0  0  0  0  0  0  0  0  0  0
  145.8038  135.3748  150.1693 H   0  0  0  0  0  0  0  0  0  0  0  0
  144.5663  134.1498  150.1186 H   0  0  0  0  0  0  0  0  0  0  0  0
  143.6256  136.3830  150.7841 H   0  0  0  0  0  0  0  0  0  0  0  0
  143.3663  135.1600  152.0005 H   0  0  0  0  0  0  0  0  0  0  0  0
  144.0973  137.1120  153.1509 H   0  0  0  0  0  0  0  0  0  0  0  0
  145.7430  137.6144  150.8224 H   0  0  0  0  0  0  0  0  0  0  0  0
  145.2368  138.6956  152.0862 H   0  0  0  0  0  0  0  0  0  0  0  0
  147.7078  137.0790  152.1787 H   0  0  0  0  0  0  0  0  0  0  0  0
  149.2388  137.7509  153.2181 H   0  0  0  0  0  0  0  0  0  0  0  0
  148.4334  141.1698  154.8714 H   0  0  0  0  0  0  0  0  0  0  0  0
  150.0663  142.8477  156.3490 H   0  0  0  0  0  0  0  0  0  0  0  0
  151.7621  142.6764  155.9085 H   0  0  0  0  0  0  0  0  0  0  0  0
  151.1462  141.9002  157.3662 H   0  0  0  0  0  0  0  0  0  0  0  0
  151.6793  137.7492  153.1704 H   0  0  0  0  0  0  0  0  0  0  0  0
  151.1726  136.9568  154.6778 H   0  0  0  0  0  0  0  0  0  0  0  0
  152.6805  137.8919  154.6286 H   0  0  0  0  0  0  0  0  0  0  0  0
  144.9542  135.0657  154.0783 H   0  0  0  0  0  0  0  0  0  0  0  0
  146.1696  136.2903  154.2758 H   0  0  0  0  0  0  0  0  0  0  0  0
  147.2302  135.4172  152.2760 H   0  0  0  0  0  0  0  0  0  0  0  0
  1  2  1  0  0  0  0
  1 21  1  0  0  0  0
  1 22  1  0  0  0  0
  1 23  1  0  0  0  0
  2  3  1  0  0  0  0
  2 24  1  0  0  0  0
  2 25  1  0  0  0  0
  3 20  1  0  0  0  0
  3  4  1  0  0  0  0
  3 46  1  0  0  0  0
  4  5  1  0  0  0  0
  4 26  1  0  0  0  0
  4 27  1  0  0  0  0
  5  6  1  0  0  0  0
  5 28  1  0  0  0  0
  5 29  1  0  0  0  0
  6  7  1  0  0  0  0
  6 30  1  0  0  0  0
  6 31  1  0  0  0  0
  7  8  1  0  0  0  0
  7 20  1  0  0  0  0
  7 32  1  0  0  0  0
  8  9  1  0  0  0  0
  8 33  1  0  0  0  0
  8 34  1  0  0  0  0
  9 10  1  0  0  0  0
  9 35  1  0  0  0  0
 10 11  2  0  0  0  0
 10 12  1  0  0  0  0
 12 13  1  0  0  0  0
 12 36  1  0  0  0  0
 13 18  1  0  0  0  0
 13 14  2  0  0  0  0
 14 15  1  0  0  0  0
 14 37  1  0  0  0  0
 15 16  1  0  0  0  0
 15 17  2  0  0  0  0
 16 38  1  0  0  0  0
 16 39  1  0  0  0  0
 16 40  1  0  0  0  0
 17 18  1  0  0  0  0
 18 19  1  0  0  0  0
 19 41  1  0  0  0  0
 19 42  1  0  0  0  0
 19 43  1  0  0  0  0
 20 44  1  0  0  0  0
 20 45  1  0  0  0  0
M  CHG  1   3   1
M  END
> <s_m_source_file>
AV-unprocessed.smi

> <i_m_source_file_index>
1834

> <i_lp_mmshare_version>
43012

> <i_f3d_flags>
0

> <s_epik_input>
W0NIM11bQ0gyXU4xW0NIMl1bQ0gyXVtDSDJdW0NASF0oW0NIMl0xKVtDSDJdW05IXUMoPU8pW05IXWMyW2NIXWMoW0NIM10pbm4yW0NIM10=

> <s_epik_cmdline>
J2VwaWtfcHl0aG9uJywgJy1waCcsICc3LjAnLCAnLXRuJywgJzgnLCAnLW1hJywgJzIwMCcsICctbWV0YWxfYmluZGluZycsICctaW1hZScsICc8aW5maWxlLm1hZT4nLCAnLW9tYWUnLCAnPG91dGZpbGUubWFlPic=

> <r_lp_tautomer_probability>
1

> <r_epik_Ionization_Penalty>
0.000466842

> <r_epik_Ionization_Penalty_Charging>
0.000378984

> <r_epik_Ionization_Penalty_Neutral>
8.78572e-05

> <r_epik_State_Penalty>
0.000231434

> <r_epik_Charging_Adjusted_Penalty>
0.000610418

> <i_epik_Tot_Q>
1

> <i_epik_Tot_abs_Q>
1

> <r_epik_Metal_State_Penalty>
-0

> <b_epik_Metal_Only>
0

> <s_lp_Force_Field>
OPLS_2005

> <r_lp_Energy>
21.0152

> <b_lp_Chiralities_Consistent>
1

> <s_lp_Variant>
AV-unprocessed.smi:1834-3

> <Gold.Version>
5.8.1

> <Gold.Id.Protein>
6NUR|6NUR_protein|mol2

> <Gold.PLP.Fitness>
46.8351

> <Gold.PLP.PLP>
-36.7833

> <Gold.PLP.part.hbond>
-4.9268

> <Gold.PLP.part.metal>
0.0000

> <Gold.PLP.part.buried>
-2.3661

> <Gold.PLP.part.nonpolar>
-31.9279

> <Gold.PLP.part.repulsive>
0.2959

> <Gold.PLP.ligand.clash>
0.0000

> <Gold.PLP.ligand.torsion>
0.8179

> <Gold.PLP.Chemscore.Hbond>
3.8859

> <Gold.PLP.Chemscore.CHOScore>
0.0000

> <Gold.PLP.Chemscore.Metal>
0.0000

> <Gold.Chemscore.Hbonds>
donor molecule, donor type, donor heavy atom, donor atom, acceptor molecule, acceptor atom, score
      L1  H     3    46       P1  7948  2.00
      L1  H     9    35       P1  7948  0.99
      L1  H    12    36       P1  7948  0.86

> <Gold.PLP.Chemscore.Internal.Correction>
0.0299

> <Gold.Rescore>
     Score         DG    S(hbond)    S(metal)    S(lipo)     H(rot)  DE(clash)    DE(int)     intcor
     16.32     -19.09       2.66        0.00      71.75       1.43       0.28       2.48       ----

> <Gold.Chemscore.Fitness>
16.3242

> <Gold.Chemscore.DG>
-19.0894

> <Gold.Chemscore.ZeroCoef>
-5.4800

> <Gold.Chemscore.Hbond>
2.6565

> <Gold.Chemscore.Metal>
0.0000

> <Gold.Chemscore.Lipo>
71.7538

> <Gold.Chemscore.Internal_Hbond>
0.0000

> <Gold.Chemscore.DEClash>
0.2821

> <Gold.Chemscore.DEInternal>
2.4832

> <Gold.Chemscore.Rot>
1.4291

> <Gold.Chemscore.Internal.Correction>
   9.000000E+99

> <Gold.Chemscore.Hbonds>
donor molecule, donor type, donor heavy atom, donor atom, acceptor molecule, acceptor atom, score
      L1  H     3    46       P1  7948  0.98
      L1  H     9    35       P1  7948  0.92
      L1  H    12    36       P1  7948  0.78

> <Gold.Chemscore.Hbond.Weighted>
-8.8726

> <Gold.Chemscore.Metal.Weighted>
-0.0000

> <Gold.Chemscore.Lipo.Weighted>
-8.3952

> <Gold.Chemscore.Internal_Hbond.Weighted>
0.0000

> <Gold.Chemscore.DEClash.Weighted>
0.2821

> <Gold.Chemscore.DEInternal.Weighted>
2.4832

> <Gold.Chemscore.Rot.Weighted>
3.6584

> <Gold.Chemscore.Internal.Correction.Weighted>
   9.000000E+99

> <Gold.Protein.RotatedTorsions>
[ 6907 6896 6895 6894 ] final  151.56 input  -60.11 | X-H torsion
[ 7974 7965 7964 7962 ] final  -61.99 input  175.53 | X-H torsion
[ 8008 7997 7996 7995 ] final   12.75 input   59.86 | X-H torsion
[ 10167 10162 10161 10158 ] final   66.71 input  -65.29 | X-H torsion
[ 10718 10713 10712 10709 ] final -155.23 input   66.30 | X-H torsion
[ 10763 10752 10751 10750 ] final   32.89 input  -60.55 | X-H torsion
[ 11005 11000 10999 10996 ] final  -73.69 input  -57.11 | X-H torsion

> <Gold.Protein.ActiveResidues>
 VAL166  LYS551  ARG553  GLY616  TRP617  ASP618  TYR619  PRO620  LYS621  CYS622 
 ASP623  PHE694  ASN695  SER759  ASP760  ASP761  ALA762  ILE779  LEU786  VAL792 
 PHE793  MET794  SER795  GLU796  ALA797  LYS798  CYS799  TRP800  GLU811  SER814 

> <Gold.Protein.RotatedAtoms>
  152.0989  133.4239  159.4577 H   0  0  0  0  0  0  0  0  0  0  0  0  # atno 6907 bound_to 6896
  150.6863  134.2784  159.4626 H   0  0  0  0  0  0  0  0  0  0  0  0  # atno 6908 bound_to 6896
  152.0642  134.9574  160.0625 H   0  0  0  0  0  0  0  0  0  0  0  0  # atno 6909 bound_to 6896
  145.7968  140.8678  143.0252 H   0  0  0  0  0  0  0  0  0  0  0  0  # atno 7974 bound_to 7965
  154.8250  140.2890  155.5761 H   0  0  0  0  0  0  0  0  0  0  0  0  # atno 8008 bound_to 7997
  156.3001  140.2543  156.3095 H   0  0  0  0  0  0  0  0  0  0  0  0  # atno 8009 bound_to 7997
  154.9296  140.0384  157.2030 H   0  0  0  0  0  0  0  0  0  0  0  0  # atno 8010 bound_to 7997
  140.0975  144.4933  150.7059 H   0  0  0  0  0  0  0  0  0  0  0  0  # atno 10167 bound_to 10162
  156.5101  130.8431  151.2643 H   0  0  0  0  0  0  0  0  0  0  0  0  # atno 10718 bound_to 10713
  153.0239  135.6401  154.1426 H   0  0  0  0  0  0  0  0  0  0  0  0  # atno 10763 bound_to 10752
  154.1158  135.2850  155.3222 H   0  0  0  0  0  0  0  0  0  0  0  0  # atno 10764 bound_to 10752
  154.6299  135.5496  153.7731 H   0  0  0  0  0  0  0  0  0  0  0  0  # atno 10765 bound_to 10752
  141.1626  133.6886  156.7250 H   0  0  0  0  0  0  0  0  0  0  0  0  # atno 11005 bound_to 11000
  144.6774  140.0202  143.7484 LP  0  0  0  0  0  0  0  0  0  0  0  0  # atno 17320 bound_to 7965
  145.9920  139.3022  143.0979 LP  0  0  0  0  0  0  0  0  0  0  0  0  # atno 17321 bound_to 7965
  140.6996  143.2426  151.4903 LP  0  0  0  0  0  0  0  0  0  0  0  0  # atno 17342 bound_to 10162
  139.5690  144.1974  152.1808 LP  0  0  0  0  0  0  0  0  0  0  0  0  # atno 17343 bound_to 10162
  157.7452  130.9952  150.2737 LP  0  0  0  0  0  0  0  0  0  0  0  0  # atno 17370 bound_to 10713
  156.3249  130.3791  149.7542 LP  0  0  0  0  0  0  0  0  0  0  0  0  # atno 17371 bound_to 10713
  140.2788  134.8334  157.3914 LP  0  0  0  0  0  0  0  0  0  0  0  0  # atno 17394 bound_to 11000
  140.1453  134.4919  155.8001 LP  0  0  0  0  0  0  0  0  0  0  0  0  # atno 17395 bound_to 11000

$$$$
