AV-unprocessed.smi:249|AV-procd|sdf|1922|dock10
  -GOLD-   2262021 33D 1   1.00000     0.00000
 Structure written by MMmdl.
 64 67  0  0  0  0  0  0  0  0  2 V2000
  146.0570  132.3055  152.2960 C   0  0  0  0  0  0  0  0  0  0  0  0
  146.4739  133.7559  152.0139 C   0  0  0  0  0  0  0  0  0  0  0  0
  147.5284  134.2318  152.9461 N   0  3  2  0  0  0  0  0  0  0  0  0
  148.5201  133.1840  153.3111 C   0  0  0  0  0  0  0  0  0  0  0  0
  149.6944  133.7823  154.1020 C   0  0  0  0  0  0  0  0  0  0  0  0
  149.2019  134.5262  155.3607 C   0  0  1  0  0  0  0  0  0  0  0  0
  150.2948  135.0678  156.1814 N   0  0  0  0  0  0  0  0  0  0  0  0
  151.2990  134.1238  156.6595 C   0  0  0  0  0  0  0  0  0  0  0  0
  150.8052  136.2693  155.8183 C   0  0  0  0  0  0  0  0  0  0  0  0
  151.2414  136.4632  154.5455 N   0  0  0  0  0  0  0  0  0  0  0  0
  151.7171  137.6563  154.1758 C   0  0  0  0  0  0  0  0  0  0  0  0
  151.8350  138.7693  154.9028 N   0  0  0  0  0  0  0  0  0  0  0  0
  151.4080  138.5729  156.1830 C   0  0  0  0  0  0  0  0  0  0  0  0
  150.8968  137.3605  156.7230 C   0  0  0  0  0  0  0  0  0  0  0  0
  150.5799  137.5317  158.0647 N   0  0  0  0  0  0  0  0  0  0  0  0
  150.8686  138.7822  158.3007 C   0  0  0  0  0  0  0  0  0  0  0  0
  151.3401  139.4896  157.2172 N   0  0  0  0  0  0  0  0  0  0  0  0
  151.7118  140.8923  157.1932 C   0  0  0  0  0  0  0  0  0  0  0  0
  151.1989  141.7245  158.4029 C   0  0  2  0  0  0  0  0  0  0  0  0
  150.3478  142.9058  157.8763 C   0  0  0  0  0  0  0  0  0  0  0  0
  151.0939  143.7315  157.0058 O   0  0  0  0  0  0  0  0  0  0  0  0
  152.3404  142.2160  159.3459 C   0  0  1  0  0  0  0  0  0  0  0  0
  151.8783  143.0048  160.5629 C   0  0  0  0  0  0  0  0  0  0  0  0
  153.0894  142.9305  161.4802 C   0  0  0  0  0  0  0  0  0  0  0  0
  153.5850  141.6137  161.3017 O   0  0  0  0  0  0  0  0  0  0  0  0
  153.1651  141.1130  160.0360 C   0  0  0  0  0  0  0  0  0  0  0  0
  148.1510  135.5803  154.9450 C   0  0  0  0  0  0  0  0  0  0  0  0
  146.9944  134.9643  154.1325 C   0  0  2  0  0  0  0  0  0  0  0  0
  146.0458  134.1148  155.0067 C   0  0  0  0  0  0  0  0  0  0  0  0
  145.3419  131.9611  151.5485 H   0  0  0  0  0  0  0  0  0  0  0  0
  145.5822  132.1967  153.2706 H   0  0  0  0  0  0  0  0  0  0  0  0
  146.9165  131.6354  152.2628 H   0  0  0  0  0  0  0  0  0  0  0  0
  146.8508  133.7986  150.9910 H   0  0  0  0  0  0  0  0  0  0  0  0
  145.6078  134.4180  152.0540 H   0  0  0  0  0  0  0  0  0  0  0  0
  148.0383  132.3925  153.8857 H   0  0  0  0  0  0  0  0  0  0  0  0
  148.9145  132.7123  152.4117 H   0  0  0  0  0  0  0  0  0  0  0  0
  150.3850  132.9840  154.3748 H   0  0  0  0  0  0  0  0  0  0  0  0
  150.2472  134.4618  153.4526 H   0  0  0  0  0  0  0  0  0  0  0  0
  148.6978  133.7976  155.9961 H   0  0  0  0  0  0  0  0  0  0  0  0
  151.9367  134.5893  157.4121 H   0  0  0  0  0  0  0  0  0  0  0  0
  151.9328  133.7686  155.8466 H   0  0  0  0  0  0  0  0  0  0  0  0
  150.8195  133.2594  157.1190 H   0  0  0  0  0  0  0  0  0  0  0  0
  152.0426  137.7326  153.1488 H   0  0  0  0  0  0  0  0  0  0  0  0
  150.7232  139.2313  159.2726 H   0  0  0  0  0  0  0  0  0  0  0  0
  152.7992  140.9584  157.1355 H   0  0  0  0  0  0  0  0  0  0  0  0
  151.3327  141.3029  156.2569 H   0  0  0  0  0  0  0  0  0  0  0  0
  150.5334  141.0963  158.9964 H   0  0  0  0  0  0  0  0  0  0  0  0
  149.4881  142.5575  157.3055 H   0  0  0  0  0  0  0  0  0  0  0  0
  149.9633  143.5051  158.7021 H   0  0  0  0  0  0  0  0  0  0  0  0
  150.5104  144.0842  156.3513 H   0  0  0  0  0  0  0  0  0  0  0  0
  153.0202  142.8535  158.7782 H   0  0  0  0  0  0  0  0  0  0  0  0
  151.6041  144.0344  160.3317 H   0  0  0  0  0  0  0  0  0  0  0  0
  151.0234  142.5172  161.0345 H   0  0  0  0  0  0  0  0  0  0  0  0
  153.8521  143.6439  161.1649 H   0  0  0  0  0  0  0  0  0  0  0  0
  152.8427  143.1297  162.5231 H   0  0  0  0  0  0  0  0  0  0  0  0
  152.5648  140.2206  160.2144 H   0  0  0  0  0  0  0  0  0  0  0  0
  154.0368  140.8232  159.4509 H   0  0  0  0  0  0  0  0  0  0  0  0
  147.7536  136.0833  155.8273 H   0  0  0  0  0  0  0  0  0  0  0  0
  148.6183  136.3540  154.3341 H   0  0  0  0  0  0  0  0  0  0  0  0
  146.4064  135.8000  153.7500 H   0  0  0  0  0  0  0  0  0  0  0  0
  145.6733  134.6996  155.8482 H   0  0  0  0  0  0  0  0  0  0  0  0
  146.5346  133.2328  155.4188 H   0  0  0  0  0  0  0  0  0  0  0  0
  145.1740  133.7775  154.4464 H   0  0  0  0  0  0  0  0  0  0  0  0
  148.0456  134.9270  152.4269 H   0  0  0  0  0  0  0  0  0  0  0  0
  1  2  1  0  0  0  0
  1 30  1  0  0  0  0
  1 31  1  0  0  0  0
  1 32  1  0  0  0  0
  2  3  1  0  0  0  0
  2 33  1  0  0  0  0
  2 34  1  0  0  0  0
  3 28  1  0  0  0  0
  3  4  1  0  0  0  0
  3 64  1  0  0  0  0
  4  5  1  0  0  0  0
  4 35  1  0  0  0  0
  4 36  1  0  0  0  0
  5  6  1  0  0  0  0
  5 37  1  0  0  0  0
  5 38  1  0  0  0  0
  6  7  1  0  0  0  0
  6 27  1  0  0  0  0
  6 39  1  0  0  0  0
  7  8  1  0  0  0  0
  7  9  1  0  0  0  0
  8 40  1  0  0  0  0
  8 41  1  0  0  0  0
  8 42  1  0  0  0  0
  9 14  1  0  0  0  0
  9 10  2  0  0  0  0
 10 11  1  0  0  0  0
 11 12  2  0  0  0  0
 11 43  1  0  0  0  0
 12 13  1  0  0  0  0
 13 17  1  0  0  0  0
 13 14  2  0  0  0  0
 14 15  1  0  0  0  0
 15 16  2  0  0  0  0
 16 17  1  0  0  0  0
 16 44  1  0  0  0  0
 17 18  1  0  0  0  0
 18 19  1  0  0  0  0
 18 45  1  0  0  0  0
 18 46  1  0  0  0  0
 19 20  1  0  0  0  0
 19 22  1  0  0  0  0
 19 47  1  0  0  0  0
 20 21  1  0  0  0  0
 20 48  1  0  0  0  0
 20 49  1  0  0  0  0
 21 50  1  0  0  0  0
 22 26  1  0  0  0  0
 22 23  1  0  0  0  0
 22 51  1  0  0  0  0
 23 24  1  0  0  0  0
 23 52  1  0  0  0  0
 23 53  1  0  0  0  0
 24 25  1  0  0  0  0
 24 54  1  0  0  0  0
 24 55  1  0  0  0  0
 25 26  1  0  0  0  0
 26 56  1  0  0  0  0
 26 57  1  0  0  0  0
 27 28  1  0  0  0  0
 27 58  1  0  0  0  0
 27 59  1  0  0  0  0
 28 29  1  0  0  0  0
 28 60  1  0  0  0  0
 29 61  1  0  0  0  0
 29 62  1  0  0  0  0
 29 63  1  0  0  0  0
M  CHG  1   3   1
M  END
> <s_m_source_file>
AV-unprocessed.smi

> <i_m_source_file_index>
249

> <i_lp_mmshare_version>
43012

> <i_f3d_flags>
0

> <s_epik_input>
W0NIM11bQ0gyXU4xW0NIMl1bQ0gyXVtDQEhdKFtDSDJdW0NASF0xW0NIM10pTihbQ0gzXSljKG5bY0hdbjIpYyhjMjMpbltjSF1uM1tDSDJdW0NASF0oW0NIMl1bT0hdKVtDQEBIXTRbQ0gyXVtDSDJdT1tDSDJdNA==

> <s_epik_cmdline>
J2VwaWtfcHl0aG9uJywgJy1waCcsICc3LjAnLCAnLXRuJywgJzgnLCAnLW1hJywgJzIwMCcsICctbWV0YWxfYmluZGluZycsICctaW1hZScsICc8aW5maWxlLm1hZT4nLCAnLW9tYWUnLCAnPG91dGZpbGUubWFlPic=

> <r_lp_tautomer_probability>
1

> <r_epik_Ionization_Penalty>
0.00294688

> <r_epik_Ionization_Penalty_Charging>
0.00169971

> <r_epik_Ionization_Penalty_Neutral>
0.00124717

> <r_epik_State_Penalty>
-0

> <r_epik_Charging_Adjusted_Penalty>
0.00169971

> <i_epik_Tot_Q>
1

> <i_epik_Tot_abs_Q>
1

> <r_epik_Metal_State_Penalty>
-0

> <b_epik_Metal_Only>
0

> <s_lp_Force_Field>
OPLS_2005

> <r_lp_Energy>
54.0807

> <b_lp_Chiralities_Consistent>
1

> <s_lp_Variant>
AV-unprocessed.smi:249-25

> <Gold.Version>
5.8.1

> <Gold.Id.Protein>
6NUR|6NUR_protein|mol2

> <Gold.PLP.Fitness>
53.7563

> <Gold.PLP.PLP>
-42.6903

> <Gold.PLP.part.hbond>
-3.0458

> <Gold.PLP.part.metal>
0.0000

> <Gold.PLP.part.buried>
-7.4594

> <Gold.PLP.part.nonpolar>
-31.2441

> <Gold.PLP.part.repulsive>
0.9449

> <Gold.PLP.ligand.clash>
0.0000

> <Gold.PLP.ligand.torsion>
1.9199

> <Gold.PLP.Chemscore.Hbond>
4.0137

> <Gold.PLP.Chemscore.CHOScore>
0.6854

> <Gold.PLP.Chemscore.Metal>
0.0000

> <Gold.Chemscore.Hbonds>
donor molecule, donor type, donor heavy atom, donor atom, acceptor molecule, acceptor atom, score
      L1  H     3    64       P1  7948  2.00
      L1  H    21    50       P1  8028  1.00
      P1  H 10752 10765       L1    10  0.65
      L1  C    11    43       P1  7949  0.72

> <Gold.PLP.Chemscore.Internal.Correction>
0.8082

> <Gold.Rescore>
     Score         DG    S(hbond)    S(metal)    S(lipo)     H(rot)  DE(clash)    DE(int)     intcor
     15.18     -17.38       2.21        0.00     101.94       2.90       0.19       2.00       ----

> <Gold.Chemscore.Fitness>
15.1783

> <Gold.Chemscore.DG>
-17.3755

> <Gold.Chemscore.ZeroCoef>
-5.4800

> <Gold.Chemscore.Hbond>
2.2139

> <Gold.Chemscore.Metal>
0.0000

> <Gold.Chemscore.Lipo>
101.9383

> <Gold.Chemscore.Internal_Hbond>
0.0000

> <Gold.Chemscore.DEClash>
0.1931

> <Gold.Chemscore.DEInternal>
2.0041

> <Gold.Chemscore.Rot>
2.9006

> <Gold.Chemscore.Internal.Correction>
   9.000000E+99

> <Gold.Chemscore.Hbonds>
donor molecule, donor type, donor heavy atom, donor atom, acceptor molecule, acceptor atom, score
      L1  H     3    64       P1  7948  0.74
      L1  H    21    50       P1  8028  0.99
      P1  H  7989  7998       L1    12  0.01
      P1  H 10752 10765       L1    10  0.03

> <Gold.Chemscore.Hbond.Weighted>
-7.3943

> <Gold.Chemscore.Metal.Weighted>
-0.0000

> <Gold.Chemscore.Lipo.Weighted>
-11.9268

> <Gold.Chemscore.Internal_Hbond.Weighted>
0.0000

> <Gold.Chemscore.DEClash.Weighted>
0.1931

> <Gold.Chemscore.DEInternal.Weighted>
2.0041

> <Gold.Chemscore.Rot.Weighted>
7.4256

> <Gold.Chemscore.Internal.Correction.Weighted>
   9.000000E+99

> <Gold.Protein.RotatedTorsions>
[ 6907 6896 6895 6894 ] final  -10.42 input  -60.11 | X-H torsion
[ 7974 7965 7964 7962 ] final  -60.49 input  175.53 | X-H torsion
[ 8008 7997 7996 7995 ] final  158.10 input   59.86 | X-H torsion
[ 10167 10162 10161 10158 ] final  119.15 input  -65.29 | X-H torsion
[ 10718 10713 10712 10709 ] final -130.66 input   66.30 | X-H torsion
[ 10763 10752 10751 10750 ] final  169.35 input  -60.55 | X-H torsion
[ 11005 11000 10999 10996 ] final  -77.55 input  -57.11 | X-H torsion

> <Gold.Protein.ActiveResidues>
 VAL166  LYS551  ARG553  GLY616  TRP617  ASP618  TYR619  PRO620  LYS621  CYS622 
 ASP623  PHE694  ASN695  SER759  ASP760  ASP761  ALA762  ILE779  LEU786  VAL792 
 PHE793  MET794  SER795  GLU796  ALA797  LYS798  CYS799  TRP800  GLU811  SER814 

> <Gold.Protein.RotatedAtoms>
  151.4022  135.0973  159.9559 H   0  0  0  0  0  0  0  0  0  0  0  0  # atno 6907 bound_to 6896
  152.5046  133.8877  159.7388 H   0  0  0  0  0  0  0  0  0  0  0  0  # atno 6908 bound_to 6896
  150.9353  133.6662  159.2830 H   0  0  0  0  0  0  0  0  0  0  0  0  # atno 6909 bound_to 6896
  145.8149  140.8576  143.0162 H   0  0  0  0  0  0  0  0  0  0  0  0  # atno 7974 bound_to 7965
  156.2323  140.1867  156.7210 H   0  0  0  0  0  0  0  0  0  0  0  0  # atno 8008 bound_to 7997
  154.6044  140.0631  156.9439 H   0  0  0  0  0  0  0  0  0  0  0  0  # atno 8009 bound_to 7997
  155.2119  140.3300  155.4330 H   0  0  0  0  0  0  0  0  0  0  0  0  # atno 8010 bound_to 7997
  139.6065  144.7071  151.2942 H   0  0  0  0  0  0  0  0  0  0  0  0  # atno 10167 bound_to 10162
  156.2166  130.6952  151.0709 H   0  0  0  0  0  0  0  0  0  0  0  0  # atno 10718 bound_to 10713
  154.3818  135.2753  155.2207 H   0  0  0  0  0  0  0  0  0  0  0  0  # atno 10763 bound_to 10752
  154.4310  135.5977  153.6072 H   0  0  0  0  0  0  0  0  0  0  0  0  # atno 10764 bound_to 10752
  152.9834  135.5995  154.4062 H   0  0  0  0  0  0  0  0  0  0  0  0  # atno 10765 bound_to 10752
  141.1661  133.7027  156.7837 H   0  0  0  0  0  0  0  0  0  0  0  0  # atno 11005 bound_to 11000
  144.6753  140.0449  143.7480 LP  0  0  0  0  0  0  0  0  0  0  0  0  # atno 17320 bound_to 7965
  145.9737  139.2889  143.1083 LP  0  0  0  0  0  0  0  0  0  0  0  0  # atno 17321 bound_to 7965
  140.7288  143.6925  150.7911 LP  0  0  0  0  0  0  0  0  0  0  0  0  # atno 17342 bound_to 10162
  140.0511  143.5249  152.2673 LP  0  0  0  0  0  0  0  0  0  0  0  0  # atno 17343 bound_to 10162
  157.7066  131.0753  150.6645 LP  0  0  0  0  0  0  0  0  0  0  0  0  # atno 17370 bound_to 10713
  156.6706  130.4538  149.5658 LP  0  0  0  0  0  0  0  0  0  0  0  0  # atno 17371 bound_to 10713
  140.2376  134.8638  157.3540 LP  0  0  0  0  0  0  0  0  0  0  0  0  # atno 17394 bound_to 11000
  140.1828  134.4468  155.7761 LP  0  0  0  0  0  0  0  0  0  0  0  0  # atno 17395 bound_to 11000

$$$$
