AV-unprocessed.smi:2822|AV-procd|sdf|10868|dock6
  -GOLD-   2272015313D 1   1.00000     0.00000
 Structure written by MMmdl.
 40 42  0  0  0  0  0  0  0  0  2 V2000
  153.1961  141.2238  160.0094 Cl  0  0  0  0  0  0  0  0  0  0  0  0
  152.5551  142.7529  159.5171 C   0  0  0  0  0  0  0  0  0  0  0  0
  152.6963  143.8742  160.3599 C   0  0  0  0  0  0  0  0  0  0  0  0
  152.2244  145.1003  160.0516 N   0  0  0  0  0  0  0  0  0  0  0  0
  151.5862  145.2494  158.8725 C   0  0  0  0  0  0  0  0  0  0  0  0
  151.3904  144.1961  157.9569 C   0  0  0  0  0  0  0  0  0  0  0  0
  151.8857  142.9111  158.2817 C   0  0  0  0  0  0  0  0  0  0  0  0
  151.7389  141.8060  157.4294 N   0  0  0  0  0  0  0  0  0  0  0  0
  150.7554  141.8102  156.3574 C   0  0  0  0  0  0  0  0  0  0  0  0
  150.3995  140.3834  155.9167 C   0  0  2  0  0  0  0  0  0  0  0  0
  150.4604  139.3903  157.0917 C   0  0  0  0  0  0  0  0  0  0  0  0
  150.1796  138.0128  156.6246 N   0  3  2  0  0  0  0  0  0  0  0  0
  150.1875  137.0251  157.7335 C   0  0  0  0  0  0  0  0  0  0  0  0
  149.7996  135.6252  157.2303 C   0  0  0  0  0  0  0  0  0  0  0  0
  150.7219  135.1802  156.0880 C   0  0  0  0  0  0  0  0  0  0  0  0
  150.7175  136.2307  154.9692 C   0  0  0  0  0  0  0  0  0  0  0  0
  151.0876  137.6260  155.5106 C   0  0  1  0  0  0  0  0  0  0  0  0
  151.0376  138.6902  154.3970 C   0  0  0  0  0  0  0  0  0  0  0  0
  151.3447  139.9696  154.9358 O   0  0  0  0  0  0  0  0  0  0  0  0
  153.2025  143.7840  161.3098 H   0  0  0  0  0  0  0  0  0  0  0  0
  151.2196  146.2407  158.6502 H   0  0  0  0  0  0  0  0  0  0  0  0
  150.8705  144.3925  157.0316 H   0  0  0  0  0  0  0  0  0  0  0  0
  152.1610  140.9272  157.6946 H   0  0  0  0  0  0  0  0  0  0  0  0
  149.8587  142.3410  156.6795 H   0  0  0  0  0  0  0  0  0  0  0  0
  151.1713  142.3568  155.5102 H   0  0  0  0  0  0  0  0  0  0  0  0
  149.3945  140.3799  155.4893 H   0  0  0  0  0  0  0  0  0  0  0  0
  151.4445  139.4232  157.5624 H   0  0  0  0  0  0  0  0  0  0  0  0
  149.7316  139.6711  157.8533 H   0  0  0  0  0  0  0  0  0  0  0  0
  151.1775  136.9970  158.1912 H   0  0  0  0  0  0  0  0  0  0  0  0
  149.4880  137.3404  158.5088 H   0  0  0  0  0  0  0  0  0  0  0  0
  149.8485  134.9071  158.0496 H   0  0  0  0  0  0  0  0  0  0  0  0
  148.7648  135.6320  156.8855 H   0  0  0  0  0  0  0  0  0  0  0  0
  151.7369  135.0450  156.4640 H   0  0  0  0  0  0  0  0  0  0  0  0
  150.4014  134.2133  155.6986 H   0  0  0  0  0  0  0  0  0  0  0  0
  151.4166  135.9353  154.1858 H   0  0  0  0  0  0  0  0  0  0  0  0
  149.7303  136.2631  154.5058 H   0  0  0  0  0  0  0  0  0  0  0  0
  152.1056  137.5891  155.9027 H   0  0  0  0  0  0  0  0  0  0  0  0
  151.7661  138.4563  153.6203 H   0  0  0  0  0  0  0  0  0  0  0  0
  150.0581  138.7135  153.9162 H   0  0  0  0  0  0  0  0  0  0  0  0
  149.2427  138.0185  156.2469 H   0  0  0  0  0  0  0  0  0  0  0  0
  1  2  1  0  0  0  0
  2  7  1  0  0  0  0
  2  3  2  0  0  0  0
  3  4  1  0  0  0  0
  3 20  1  0  0  0  0
  4  5  2  0  0  0  0
  5  6  1  0  0  0  0
  5 21  1  0  0  0  0
  6  7  2  0  0  0  0
  6 22  1  0  0  0  0
  7  8  1  0  0  0  0
  8  9  1  0  0  0  0
  8 23  1  0  0  0  0
  9 10  1  0  0  0  0
  9 24  1  0  0  0  0
  9 25  1  0  0  0  0
 10 19  1  0  0  0  0
 10 11  1  0  0  0  0
 10 26  1  0  0  0  0
 11 12  1  0  0  0  0
 11 27  1  0  0  0  0
 11 28  1  0  0  0  0
 12 17  1  0  0  0  0
 12 13  1  0  0  0  0
 12 40  1  0  0  0  0
 13 14  1  0  0  0  0
 13 29  1  0  0  0  0
 13 30  1  0  0  0  0
 14 15  1  0  0  0  0
 14 31  1  0  0  0  0
 14 32  1  0  0  0  0
 15 16  1  0  0  0  0
 15 33  1  0  0  0  0
 15 34  1  0  0  0  0
 16 17  1  0  0  0  0
 16 35  1  0  0  0  0
 16 36  1  0  0  0  0
 17 18  1  0  0  0  0
 17 37  1  0  0  0  0
 18 19  1  0  0  0  0
 18 38  1  0  0  0  0
 18 39  1  0  0  0  0
M  CHG  1  12   1
M  END
> <s_m_source_file>
AV-unprocessed.smi

> <i_m_source_file_index>
2822

> <i_lp_mmshare_version>
43012

> <i_f3d_flags>
0

> <s_epik_input>
Q2xjMVtjSF1uW2NIXVtjSF1jMVtOSF1bQ0gyXVtDQEhdKFtDSDJdMilPW0NIMl1bQ0BASF0oTjIzKVtDSDJdW0NIMl1bQ0gyXVtDSDJdMw==

> <s_epik_cmdline>
J2VwaWtfcHl0aG9uJywgJy1waCcsICc3LjAnLCAnLXRuJywgJzgnLCAnLW1hJywgJzIwMCcsICctbWV0YWxfYmluZGluZycsICctaW1hZScsICc8aW5maWxlLm1hZT4nLCAnLW9tYWUnLCAnPG91dGZpbGUubWFlPic=

> <r_lp_tautomer_probability>
0.999999

> <r_epik_Ionization_Penalty>
0.88937

> <r_epik_Ionization_Penalty_Charging>
0.0803403

> <r_epik_Ionization_Penalty_Neutral>
0.80903

> <r_epik_State_Penalty>
0.931884

> <r_epik_Charging_Adjusted_Penalty>
1.01222

> <i_epik_Tot_Q>
1

> <i_epik_Tot_abs_Q>
1

> <r_epik_Metal_State_Penalty>
0.0782275

> <b_epik_Metal_Only>
0

> <s_lp_Force_Field>
OPLS_2005

> <r_lp_Energy>
28.742

> <b_lp_Chiralities_Consistent>
1

> <s_lp_Variant>
AV-unprocessed.smi:2822-9

> <Gold.Version>
5.8.1

> <Gold.Id.Protein>
6NUR|6NUR_protein|mol2

> <Gold.PLP.Fitness>
38.4796

> <Gold.PLP.PLP>
-36.5450

> <Gold.PLP.part.hbond>
-1.0000

> <Gold.PLP.part.metal>
0.0000

> <Gold.PLP.part.buried>
-5.1853

> <Gold.PLP.part.nonpolar>
-30.7731

> <Gold.PLP.part.repulsive>
0.2294

> <Gold.PLP.ligand.clash>
0.0000

> <Gold.PLP.ligand.torsion>
0.5328

> <Gold.PLP.Chemscore.Hbond>
1.0000

> <Gold.PLP.Chemscore.CHOScore>
0.0000

> <Gold.PLP.Chemscore.Metal>
0.0000

> <Gold.Chemscore.Hbonds>
donor molecule, donor type, donor heavy atom, donor atom, acceptor molecule, acceptor atom, score
      P1  H  7989  7998       L1    19  1.00

> <Gold.PLP.Chemscore.Internal.Correction>
0.0003

> <Gold.Rescore>
     Score         DG    S(hbond)    S(metal)    S(lipo)     H(rot)  DE(clash)    DE(int)     intcor
     18.28     -18.86       0.95        0.00     112.92       1.17       0.07       0.51       ----

> <Gold.Chemscore.Fitness>
18.2813

> <Gold.Chemscore.DG>
-18.8621

> <Gold.Chemscore.ZeroCoef>
-5.4800

> <Gold.Chemscore.Hbond>
0.9472

> <Gold.Chemscore.Metal>
0.0000

> <Gold.Chemscore.Lipo>
112.9201

> <Gold.Chemscore.Internal_Hbond>
0.0000

> <Gold.Chemscore.DEClash>
0.0661

> <Gold.Chemscore.DEInternal>
0.5146

> <Gold.Chemscore.Rot>
1.1693

> <Gold.Chemscore.Internal.Correction>
   9.000000E+99

> <Gold.Chemscore.Hbonds>
donor molecule, donor type, donor heavy atom, donor atom, acceptor molecule, acceptor atom, score
      P1  H  7989  7998       L1    19  0.30

> <Gold.Chemscore.Hbond.Weighted>
-3.1638

> <Gold.Chemscore.Metal.Weighted>
-0.0000

> <Gold.Chemscore.Lipo.Weighted>
-13.2116

> <Gold.Chemscore.Internal_Hbond.Weighted>
0.0000

> <Gold.Chemscore.DEClash.Weighted>
0.0661

> <Gold.Chemscore.DEInternal.Weighted>
0.5146

> <Gold.Chemscore.Rot.Weighted>
2.9934

> <Gold.Chemscore.Internal.Correction.Weighted>
   9.000000E+99

> <Gold.Protein.RotatedTorsions>
[ 6907 6896 6895 6894 ] final -109.59 input  -60.11 | X-H torsion
[ 7974 7965 7964 7962 ] final  169.97 input  175.53 | X-H torsion
[ 8008 7997 7996 7995 ] final   71.88 input   59.86 | X-H torsion
[ 10167 10162 10161 10158 ] final  139.01 input  -65.29 | X-H torsion
[ 10718 10713 10712 10709 ] final  -53.03 input   66.30 | X-H torsion
[ 10763 10752 10751 10750 ] final -136.49 input  -60.55 | X-H torsion
[ 11005 11000 10999 10996 ] final   55.32 input  -57.11 | X-H torsion

> <Gold.Protein.ActiveResidues>
 VAL166  LYS551  ARG553  GLY616  TRP617  ASP618  TYR619  PRO620  LYS621  CYS622 
 ASP623  PHE694  ASN695  SER759  ASP760  ASP761  ALA762  ILE779  LEU786  VAL792 
 PHE793  MET794  SER795  GLU796  ALA797  LYS798  CYS799  TRP800  GLU811  SER814 

> <Gold.Protein.RotatedAtoms>
  150.7571  133.9507  159.3484 H   0  0  0  0  0  0  0  0  0  0  0  0  # atno 6907 bound_to 6896
  151.7424  135.0849  160.0327 H   0  0  0  0  0  0  0  0  0  0  0  0  # atno 6908 bound_to 6896
  152.3520  133.6153  159.5987 H   0  0  0  0  0  0  0  0  0  0  0  0  # atno 6909 bound_to 6896
  144.7338  139.9132  143.6416 H   0  0  0  0  0  0  0  0  0  0  0  0  # atno 7974 bound_to 7965
  155.7605  140.3486  155.5195 H   0  0  0  0  0  0  0  0  0  0  0  0  # atno 8008 bound_to 7997
  155.8918  140.1019  157.1434 H   0  0  0  0  0  0  0  0  0  0  0  0  # atno 8009 bound_to 7997
  154.4034  140.1303  156.4313 H   0  0  0  0  0  0  0  0  0  0  0  0  # atno 8010 bound_to 7997
  139.5092  144.6320  151.5794 H   0  0  0  0  0  0  0  0  0  0  0  0  # atno 10167 bound_to 10162
  156.1570  130.4150  149.9854 H   0  0  0  0  0  0  0  0  0  0  0  0  # atno 10718 bound_to 10713
  154.8682  135.3671  154.5069 H   0  0  0  0  0  0  0  0  0  0  0  0  # atno 10763 bound_to 10752
  153.5706  135.7021  153.5511 H   0  0  0  0  0  0  0  0  0  0  0  0  # atno 10764 bound_to 10752
  153.3545  135.4063  155.1635 H   0  0  0  0  0  0  0  0  0  0  0  0  # atno 10765 bound_to 10752
  140.0616  134.5594  155.9146 H   0  0  0  0  0  0  0  0  0  0  0  0  # atno 11005 bound_to 11000
  146.0985  139.3979  143.0361 LP  0  0  0  0  0  0  0  0  0  0  0  0  # atno 17320 bound_to 7965
  145.7612  140.9934  143.1199 LP  0  0  0  0  0  0  0  0  0  0  0  0  # atno 17321 bound_to 7965
  140.6055  143.9531  150.6416 LP  0  0  0  0  0  0  0  0  0  0  0  0  # atno 17342 bound_to 10162
  140.2757  143.3424  152.1197 LP  0  0  0  0  0  0  0  0  0  0  0  0  # atno 17343 bound_to 10162
  156.7694  130.9181  151.3644 LP  0  0  0  0  0  0  0  0  0  0  0  0  # atno 17370 bound_to 10713
  157.6702  130.9044  150.0024 LP  0  0  0  0  0  0  0  0  0  0  0  0  # atno 17371 bound_to 10713
  141.1975  133.6597  156.5747 LP  0  0  0  0  0  0  0  0  0  0  0  0  # atno 17394 bound_to 11000
  140.3761  134.7563  157.4631 LP  0  0  0  0  0  0  0  0  0  0  0  0  # atno 17395 bound_to 11000

$$$$
