AV-unprocessed.smi:758|AV-procd|sdf|3617|dock1
  -GOLD-   22720 1 13D 1   1.00000     0.00000
 Structure written by MMmdl.
 47 48  0  0  0  0  0  0  0  0  1 V2000
  152.7788  143.4644  160.7660 C   0  0  0  0  0  0  0  0  0  0  0  0
  151.8794  143.6855  159.5303 C   0  0  0  0  0  0  0  0  0  0  0  0
  150.6729  144.5527  159.9544 C   0  0  0  0  0  0  0  0  0  0  0  0
  152.6725  144.5067  158.4888 C   0  0  0  0  0  0  0  0  0  0  0  0
  151.3869  142.3346  158.9023 C   0  0  2  0  0  0  0  0  0  0  0  0
  152.5167  141.4639  158.2983 C   0  0  0  0  0  0  0  0  0  0  0  0
  151.9985  140.1024  157.8028 C   0  0  0  0  0  0  0  0  0  0  0  0
  150.8499  140.2234  156.7783 C   0  0  1  0  0  0  0  0  0  0  0  0
  151.3882  140.8021  155.6023 O   0  0  0  0  0  0  0  0  0  0  0  0
  150.3363  138.8102  156.4047 C   0  0  0  0  0  0  0  0  0  0  0  0
  150.2079  137.9226  157.5575 N   0  0  0  0  0  0  0  0  0  0  0  0
  149.1746  137.9129  158.4132 C   0  0  0  0  0  0  0  0  0  0  0  0
  148.1816  138.6296  158.2886 O   0  0  0  0  0  0  0  0  0  0  0  0
  149.2868  136.9631  159.6065 C   0  0  0  0  0  0  0  0  0  0  0  0
  147.9764  136.6546  160.1522 N   0  0  0  0  0  0  0  0  0  0  0  0
  146.9743  135.9261  159.6542 C   0  0  0  0  0  0  0  0  0  0  0  0
  145.9072  135.8746  160.4393 N   0  0  0  0  0  0  0  0  0  0  0  0
  146.3485  136.6497  161.4744 C   0  0  0  0  0  0  0  0  0  0  0  0
  147.5789  137.1470  161.3492 N   0  0  0  0  0  0  0  0  0  0  0  0
  149.7374  141.1391  157.3406 C   0  0  0  0  0  0  0  0  0  0  0  0
  150.2664  142.4940  157.8445 C   0  0  0  0  0  0  0  0  0  0  0  0
  153.1072  144.4166  161.1840 H   0  0  0  0  0  0  0  0  0  0  0  0
  153.6778  142.8990  160.5222 H   0  0  0  0  0  0  0  0  0  0  0  0
  152.2572  142.9330  161.5614 H   0  0  0  0  0  0  0  0  0  0  0  0
  150.1328  144.1243  160.7982 H   0  0  0  0  0  0  0  0  0  0  0  0
  149.9657  144.6809  159.1343 H   0  0  0  0  0  0  0  0  0  0  0  0
  150.9899  145.5482  160.2677 H   0  0  0  0  0  0  0  0  0  0  0  0
  152.9085  145.5031  158.8649 H   0  0  0  0  0  0  0  0  0  0  0  0
  152.1055  144.6350  157.5660 H   0  0  0  0  0  0  0  0  0  0  0  0
  153.6248  144.0423  158.2346 H   0  0  0  0  0  0  0  0  0  0  0  0
  150.9565  141.7556  159.7214 H   0  0  0  0  0  0  0  0  0  0  0  0
  152.9979  141.9865  157.4717 H   0  0  0  0  0  0  0  0  0  0  0  0
  153.2961  141.2709  159.0334 H   0  0  0  0  0  0  0  0  0  0  0  0
  152.8244  139.5303  157.3773 H   0  0  0  0  0  0  0  0  0  0  0  0
  151.6532  139.5312  158.6656 H   0  0  0  0  0  0  0  0  0  0  0  0
  151.8569  141.5875  155.8401 H   0  0  0  0  0  0  0  0  0  0  0  0
  149.4006  138.8705  155.8452 H   0  0  0  0  0  0  0  0  0  0  0  0
  151.0511  138.3347  155.7322 H   0  0  0  0  0  0  0  0  0  0  0  0
  150.9793  137.2968  157.7380 H   0  0  0  0  0  0  0  0  0  0  0  0
  149.7791  136.0418  159.2911 H   0  0  0  0  0  0  0  0  0  0  0  0
  149.8981  137.4018  160.3967 H   0  0  0  0  0  0  0  0  0  0  0  0
  147.0270  135.4223  158.7003 H   0  0  0  0  0  0  0  0  0  0  0  0
  145.7430  136.8573  162.3442 H   0  0  0  0  0  0  0  0  0  0  0  0
  148.9702  141.3189  156.5870 H   0  0  0  0  0  0  0  0  0  0  0  0
  149.2382  140.6296  158.1657 H   0  0  0  0  0  0  0  0  0  0  0  0
  149.4215  143.0463  158.2523 H   0  0  0  0  0  0  0  0  0  0  0  0
  150.6286  143.0718  156.9942 H   0  0  0  0  0  0  0  0  0  0  0  0
  1  2  1  0  0  0  0
  1 22  1  0  0  0  0
  1 23  1  0  0  0  0
  1 24  1  0  0  0  0
  2  3  1  0  0  0  0
  2  4  1  0  0  0  0
  2  5  1  0  0  0  0
  3 25  1  0  0  0  0
  3 26  1  0  0  0  0
  3 27  1  0  0  0  0
  4 28  1  0  0  0  0
  4 29  1  0  0  0  0
  4 30  1  0  0  0  0
  5 21  1  0  0  0  0
  5  6  1  0  0  0  0
  5 31  1  0  0  0  0
  6  7  1  0  0  0  0
  6 32  1  0  0  0  0
  6 33  1  0  0  0  0
  7  8  1  0  0  0  0
  7 34  1  0  0  0  0
  7 35  1  0  0  0  0
  8  9  1  0  0  0  0
  8 10  1  0  0  0  0
  8 20  1  0  0  0  0
  9 36  1  0  0  0  0
 10 11  1  0  0  0  0
 10 37  1  0  0  0  0
 10 38  1  0  0  0  0
 11 12  1  0  0  0  0
 11 39  1  0  0  0  0
 12 13  2  0  0  0  0
 12 14  1  0  0  0  0
 14 15  1  0  0  0  0
 14 40  1  0  0  0  0
 14 41  1  0  0  0  0
 15 19  1  0  0  0  0
 15 16  1  0  0  0  0
 16 17  2  0  0  0  0
 16 42  1  0  0  0  0
 17 18  1  0  0  0  0
 18 19  2  0  0  0  0
 18 43  1  0  0  0  0
 20 21  1  0  0  0  0
 20 44  1  0  0  0  0
 20 45  1  0  0  0  0
 21 46  1  0  0  0  0
 21 47  1  0  0  0  0
M  END
> <s_m_source_file>
AV-unprocessed.smi

> <i_m_source_file_index>
758

> <i_lp_mmshare_version>
43012

> <i_f3d_flags>
0

> <s_epik_input>
W0NIM11DKFtDSDNdKShbQ0gzXSlbQ0BASF0oW0NIMl1bQ0gyXTEpW0NIMl1bQ0gyXVtDQEBdMShbT0hdKVtDSDJdW05IXUMoPU8pW0NIMl1uMltjSF1uW2NIXW4y

> <s_epik_cmdline>
J2VwaWtfcHl0aG9uJywgJy1waCcsICc3LjAnLCAnLXRuJywgJzgnLCAnLW1hJywgJzIwMCcsICctbWV0YWxfYmluZGluZycsICctaW1hZScsICc8aW5maWxlLm1hZT4nLCAnLW9tYWUnLCAnPG91dGZpbGUubWFlPic=

> <r_lp_tautomer_probability>
1

> <r_epik_Ionization_Penalty>
1.04836e-05

> <r_epik_Ionization_Penalty_Charging>
0

> <r_epik_Ionization_Penalty_Neutral>
1.04836e-05

> <r_epik_State_Penalty>
-0

> <r_epik_Charging_Adjusted_Penalty>
0

> <i_epik_Tot_Q>
0

> <i_epik_Tot_abs_Q>
0

> <r_epik_Metal_State_Penalty>
-0

> <b_epik_Metal_Only>
0

> <s_lp_Force_Field>
OPLS_2005

> <r_lp_Energy>
23.8221

> <b_lp_Chiralities_Consistent>
1

> <s_lp_Variant>
AV-unprocessed.smi:758-1

> <Gold.Version>
5.8.1

> <Gold.Id.Protein>
6NUR|6NUR_protein|mol2

> <Gold.PLP.Fitness>
40.2024

> <Gold.PLP.PLP>
-34.7716

> <Gold.PLP.part.hbond>
-3.6734

> <Gold.PLP.part.metal>
0.0000

> <Gold.PLP.part.buried>
-4.3644

> <Gold.PLP.part.nonpolar>
-24.7009

> <Gold.PLP.part.repulsive>
0.0356

> <Gold.PLP.ligand.clash>
0.0000

> <Gold.PLP.ligand.torsion>
0.9640

> <Gold.PLP.Chemscore.Hbond>
2.4023

> <Gold.PLP.Chemscore.CHOScore>
0.0000

> <Gold.PLP.Chemscore.Metal>
0.0000

> <Gold.Chemscore.Hbonds>
donor molecule, donor type, donor heavy atom, donor atom, acceptor molecule, acceptor atom, score
      P1  H  6931  6943       L1    19  0.96
      P1  H  6934  6947       L1    19  0.88
      P1  H  7989  7998       L1     9  0.51

> <Gold.PLP.Chemscore.Internal.Correction>
0.1520

> <Gold.Rescore>
     Score         DG    S(hbond)    S(metal)    S(lipo)     H(rot)  DE(clash)    DE(int)     intcor
     11.54     -13.09       1.45        0.00      92.83       3.17       0.35       1.20       ----

> <Gold.Chemscore.Fitness>
11.5431

> <Gold.Chemscore.DG>
-13.0908

> <Gold.Chemscore.ZeroCoef>
-5.4800

> <Gold.Chemscore.Hbond>
1.4536

> <Gold.Chemscore.Metal>
0.0000

> <Gold.Chemscore.Lipo>
92.8329

> <Gold.Chemscore.Internal_Hbond>
0.0000

> <Gold.Chemscore.DEClash>
0.3524

> <Gold.Chemscore.DEInternal>
1.1953

> <Gold.Chemscore.Rot>
3.1663

> <Gold.Chemscore.Internal.Correction>
   9.000000E+99

> <Gold.Chemscore.Hbonds>
donor molecule, donor type, donor heavy atom, donor atom, acceptor molecule, acceptor atom, score
      P1  H  6931  6943       L1    19  0.41
      P1  H  6934  6947       L1    19  0.10
      P1  H  7989  7998       L1     9  0.10

> <Gold.Chemscore.Hbond.Weighted>
-4.8549

> <Gold.Chemscore.Metal.Weighted>
-0.0000

> <Gold.Chemscore.Lipo.Weighted>
-10.8615

> <Gold.Chemscore.Internal_Hbond.Weighted>
0.0000

> <Gold.Chemscore.DEClash.Weighted>
0.3524

> <Gold.Chemscore.DEInternal.Weighted>
1.1953

> <Gold.Chemscore.Rot.Weighted>
8.1056

> <Gold.Chemscore.Internal.Correction.Weighted>
   9.000000E+99

> <Gold.Protein.RotatedTorsions>
[ 6907 6896 6895 6894 ] final  -53.48 input  -60.11 | X-H torsion
[ 7974 7965 7964 7962 ] final  -98.19 input  175.53 | X-H torsion
[ 8008 7997 7996 7995 ] final  -50.69 input   59.86 | X-H torsion
[ 10167 10162 10161 10158 ] final  -95.89 input  -65.29 | X-H torsion
[ 10718 10713 10712 10709 ] final  114.83 input   66.30 | X-H torsion
[ 10763 10752 10751 10750 ] final  179.49 input  -60.55 | X-H torsion
[ 11005 11000 10999 10996 ] final  -44.66 input  -57.11 | X-H torsion

> <Gold.Protein.ActiveResidues>
 VAL166  LYS551  ARG553  GLY616  TRP617  ASP618  TYR619  PRO620  LYS621  CYS622 
 ASP623  PHE694  ASN695  SER759  ASP760  ASP761  ALA762  ILE779  LEU786  VAL792 
 PHE793  MET794  SER795  GLU796  ALA797  LYS798  CYS799  TRP800  GLU811  SER814 

> <Gold.Protein.RotatedAtoms>
  150.8423  134.7719  159.6942 H   0  0  0  0  0  0  0  0  0  0  0  0  # atno 6907 bound_to 6896
  152.4508  134.5395  159.9844 H   0  0  0  0  0  0  0  0  0  0  0  0  # atno 6908 bound_to 6896
  151.5532  133.3376  159.2993 H   0  0  0  0  0  0  0  0  0  0  0  0  # atno 6909 bound_to 6896
  145.3239  140.9427  143.2700 H   0  0  0  0  0  0  0  0  0  0  0  0  # atno 7974 bound_to 7965
  154.4067  140.1266  156.4707 H   0  0  0  0  0  0  0  0  0  0  0  0  # atno 8008 bound_to 7997
  155.7182  140.3493  155.4984 H   0  0  0  0  0  0  0  0  0  0  0  0  # atno 8009 bound_to 7997
  155.9239  140.1057  157.1175 H   0  0  0  0  0  0  0  0  0  0  0  0  # atno 8010 bound_to 7997
  140.2994  143.3171  152.0264 H   0  0  0  0  0  0  0  0  0  0  0  0  # atno 10167 bound_to 10162
  157.6258  131.1004  150.7242 H   0  0  0  0  0  0  0  0  0  0  0  0  # atno 10718 bound_to 10713
  154.5214  135.2794  155.1259 H   0  0  0  0  0  0  0  0  0  0  0  0  # atno 10763 bound_to 10752
  154.2816  135.6284  153.5353 H   0  0  0  0  0  0  0  0  0  0  0  0  # atno 10764 bound_to 10752
  152.9937  135.5652  154.5703 H   0  0  0  0  0  0  0  0  0  0  0  0  # atno 10765 bound_to 10752
  141.0465  133.6759  156.2904 H   0  0  0  0  0  0  0  0  0  0  0  0  # atno 11005 bound_to 11000
  144.8918  139.4765  143.6674 LP  0  0  0  0  0  0  0  0  0  0  0  0  # atno 17320 bound_to 7965
  146.3072  139.7620  142.9047 LP  0  0  0  0  0  0  0  0  0  0  0  0  # atno 17321 bound_to 7965
  139.4918  144.6467  151.6764 LP  0  0  0  0  0  0  0  0  0  0  0  0  # atno 17342 bound_to 10162
  140.5664  144.0183  150.6194 LP  0  0  0  0  0  0  0  0  0  0  0  0  # atno 17343 bound_to 10162
  156.7591  130.4793  149.5440 LP  0  0  0  0  0  0  0  0  0  0  0  0  # atno 17370 bound_to 10713
  156.1429  130.6257  151.0492 LP  0  0  0  0  0  0  0  0  0  0  0  0  # atno 17371 bound_to 10713
  140.6136  134.5433  157.5537 LP  0  0  0  0  0  0  0  0  0  0  0  0  # atno 17394 bound_to 11000
  139.9316  134.7953  156.0915 LP  0  0  0  0  0  0  0  0  0  0  0  0  # atno 17395 bound_to 11000

$$$$
