AV-unprocessed.smi:1836|AV-procd|sdf|7477|dock7
  -GOLD-   22720 9173D 1   1.00000     0.00000
 Structure written by MMmdl.
 33 34  0  0  0  0  0  0  0  0  1 V2000
  151.5634  145.6344  160.0452 C   0  0  0  0  0  0  0  0  0  0  0  0
  150.8512  144.4693  159.3438 C   0  0  2  0  0  0  0  0  0  0  0  0
  151.4643  144.1998  157.9518 C   0  0  0  0  0  0  0  0  0  0  0  0
  151.4186  142.7829  157.5935 N   0  0  0  0  0  0  0  0  0  0  0  0
  150.7639  142.3501  156.3703 C   0  0  0  0  0  0  0  0  0  0  0  0
  151.1078  140.8596  156.2422 C   0  0  0  0  0  0  0  0  0  0  0  0
  151.6348  140.4356  157.6174 C   0  0  0  0  0  0  0  0  0  0  0  0
  151.8744  141.7584  158.3248 C   0  0  0  0  0  0  0  0  0  0  0  0
  152.4213  141.8369  159.4238 O   0  0  0  0  0  0  0  0  0  0  0  0
  149.4345  144.8088  159.2258 N   0  0  0  0  0  0  0  0  0  0  0  0
  148.4716  144.4509  160.0883 C   0  0  0  0  0  0  0  0  0  0  0  0
  148.6807  143.7920  161.1070 O   0  0  0  0  0  0  0  0  0  0  0  0
  147.2712  144.8969  159.6854 N   0  0  0  0  0  0  0  0  0  0  0  0
  146.0113  144.6799  160.2964 C   0  0  0  0  0  0  0  0  0  0  0  0
  144.9349  145.2416  159.7335 N   0  0  0  0  0  0  0  0  0  0  0  0
  143.7696  144.9482  160.4312 N   0  0  0  0  0  0  0  0  0  0  0  0
  144.0128  144.1731  161.4924 C   0  0  0  0  0  0  0  0  0  0  0  0
  145.6897  143.7222  161.7452 S   0  0  0  0  0  0  0  0  0  0  0  0
  152.6227  145.4183  160.1874 H   0  0  0  0  0  0  0  0  0  0  0  0
  151.1340  145.8225  161.0300 H   0  0  0  0  0  0  0  0  0  0  0  0
  151.4865  146.5556  159.4663 H   0  0  0  0  0  0  0  0  0  0  0  0
  150.9852  143.5872  159.9727 H   0  0  0  0  0  0  0  0  0  0  0  0
  150.9788  144.8089  157.1869 H   0  0  0  0  0  0  0  0  0  0  0  0
  152.5124  144.5026  157.9496 H   0  0  0  0  0  0  0  0  0  0  0  0
  149.6871  142.4965  156.4671 H   0  0  0  0  0  0  0  0  0  0  0  0
  151.1112  142.9211  155.5085 H   0  0  0  0  0  0  0  0  0  0  0  0
  150.2430  140.2706  155.9349 H   0  0  0  0  0  0  0  0  0  0  0  0
  151.8848  140.7188  155.4897 H   0  0  0  0  0  0  0  0  0  0  0  0
  150.8927  139.8571  158.1683 H   0  0  0  0  0  0  0  0  0  0  0  0
  152.5529  139.8518  157.5439 H   0  0  0  0  0  0  0  0  0  0  0  0
  149.1653  145.3453  158.4140 H   0  0  0  0  0  0  0  0  0  0  0  0
  147.2529  145.4422  158.8363 H   0  0  0  0  0  0  0  0  0  0  0  0
  143.1979  143.8638  162.1300 H   0  0  0  0  0  0  0  0  0  0  0  0
  1  2  1  0  0  0  0
  1 19  1  0  0  0  0
  1 20  1  0  0  0  0
  1 21  1  0  0  0  0
  2  3  1  0  0  0  0
  2 10  1  0  0  0  0
  2 22  1  0  0  0  0
  3  4  1  0  0  0  0
  3 23  1  0  0  0  0
  3 24  1  0  0  0  0
  4  8  1  0  0  0  0
  4  5  1  0  0  0  0
  5  6  1  0  0  0  0
  5 25  1  0  0  0  0
  5 26  1  0  0  0  0
  6  7  1  0  0  0  0
  6 27  1  0  0  0  0
  6 28  1  0  0  0  0
  7  8  1  0  0  0  0
  7 29  1  0  0  0  0
  7 30  1  0  0  0  0
  8  9  2  0  0  0  0
 10 11  1  0  0  0  0
 10 31  1  0  0  0  0
 11 12  2  0  0  0  0
 11 13  1  0  0  0  0
 13 14  1  0  0  0  0
 13 32  1  0  0  0  0
 14 18  1  0  0  0  0
 14 15  2  0  0  0  0
 15 16  1  0  0  0  0
 16 17  2  0  0  0  0
 17 18  1  0  0  0  0
 17 33  1  0  0  0  0
M  END
> <s_m_source_file>
AV-unprocessed.smi

> <i_m_source_file_index>
1836

> <i_lp_mmshare_version>
43012

> <i_f3d_flags>
0

> <s_epik_input>
Tz1DMVtDSDJdW0NIMl1bQ0gyXU4xW0NIMl1bQ0BASF0oW0NIM10pW05IXUMoPU8pW05IXWMybm5bY0hdczI=

> <s_epik_cmdline>
J2VwaWtfcHl0aG9uJywgJy1waCcsICc3LjAnLCAnLXRuJywgJzgnLCAnLW1hJywgJzIwMCcsICctbWV0YWxfYmluZGluZycsICctaW1hZScsICc8aW5maWxlLm1hZT4nLCAnLW9tYWUnLCAnPG91dGZpbGUubWFlPic=

> <r_lp_tautomer_probability>
1

> <r_epik_Ionization_Penalty>
0.00192022

> <r_epik_Ionization_Penalty_Charging>
0

> <r_epik_Ionization_Penalty_Neutral>
0.00192022

> <r_epik_State_Penalty>
-0

> <r_epik_Charging_Adjusted_Penalty>
0

> <i_epik_Tot_Q>
0

> <i_epik_Tot_abs_Q>
0

> <r_epik_Metal_State_Penalty>
0.336618

> <b_epik_Metal_Only>
0

> <s_lp_Force_Field>
OPLS_2005

> <r_lp_Energy>
16.7835

> <b_lp_Chiralities_Consistent>
1

> <s_lp_Variant>
AV-unprocessed.smi:1836-1

> <Gold.Version>
5.8.1

> <Gold.Id.Protein>
6NUR|6NUR_protein|mol2

> <Gold.PLP.Fitness>
41.4852

> <Gold.PLP.PLP>
-34.8641

> <Gold.PLP.part.hbond>
-2.4470

> <Gold.PLP.part.metal>
0.0000

> <Gold.PLP.part.buried>
-5.8713

> <Gold.PLP.part.nonpolar>
-27.5890

> <Gold.PLP.part.repulsive>
0.6967

> <Gold.PLP.ligand.clash>
0.0000

> <Gold.PLP.ligand.torsion>
0.8058

> <Gold.PLP.Chemscore.Hbond>
2.7360

> <Gold.PLP.Chemscore.CHOScore>
0.0000

> <Gold.PLP.Chemscore.Metal>
0.0000

> <Gold.Chemscore.Hbonds>
donor molecule, donor type, donor heavy atom, donor atom, acceptor molecule, acceptor atom, score
      L1  H    10    31       P1  8029  1.00
      L1  H    13    32       P1  8029  1.00
      P1  H  6933  6944       L1    12  0.66

> <Gold.PLP.Chemscore.Internal.Correction>
0.0246

> <Gold.Rescore>
     Score         DG    S(hbond)    S(metal)    S(lipo)     H(rot)  DE(clash)    DE(int)     intcor
     16.43     -17.87       2.66        0.00      68.53       1.76       0.06       1.38       ----

> <Gold.Chemscore.Fitness>
16.4342

> <Gold.Chemscore.DG>
-17.8714

> <Gold.Chemscore.ZeroCoef>
-5.4800

> <Gold.Chemscore.Hbond>
2.6562

> <Gold.Chemscore.Metal>
0.0000

> <Gold.Chemscore.Lipo>
68.5298

> <Gold.Chemscore.Internal_Hbond>
0.0000

> <Gold.Chemscore.DEClash>
0.0575

> <Gold.Chemscore.DEInternal>
1.3797

> <Gold.Chemscore.Rot>
1.7571

> <Gold.Chemscore.Internal.Correction>
   9.000000E+99

> <Gold.Chemscore.Hbonds>
donor molecule, donor type, donor heavy atom, donor atom, acceptor molecule, acceptor atom, score
      L1  H    10    31       P1  8029  0.86
      L1  H    13    32       P1  8029  0.98
      P1  H  6933  6944       L1    12  0.64

> <Gold.Chemscore.Hbond.Weighted>
-8.8717

> <Gold.Chemscore.Metal.Weighted>
-0.0000

> <Gold.Chemscore.Lipo.Weighted>
-8.0180

> <Gold.Chemscore.Internal_Hbond.Weighted>
0.0000

> <Gold.Chemscore.DEClash.Weighted>
0.0575

> <Gold.Chemscore.DEInternal.Weighted>
1.3797

> <Gold.Chemscore.Rot.Weighted>
4.4983

> <Gold.Chemscore.Internal.Correction.Weighted>
   9.000000E+99

> <Gold.Protein.RotatedTorsions>
[ 6907 6896 6895 6894 ] final   64.77 input  -60.11 | X-H torsion
[ 7974 7965 7964 7962 ] final  -77.94 input  175.53 | X-H torsion
[ 8008 7997 7996 7995 ] final -111.72 input   59.86 | X-H torsion
[ 10167 10162 10161 10158 ] final -122.00 input  -65.29 | X-H torsion
[ 10718 10713 10712 10709 ] final   58.90 input   66.30 | X-H torsion
[ 10763 10752 10751 10750 ] final -115.57 input  -60.55 | X-H torsion
[ 11005 11000 10999 10996 ] final   99.79 input  -57.11 | X-H torsion

> <Gold.Protein.ActiveResidues>
 VAL166  LYS551  ARG553  GLY616  TRP617  ASP618  TYR619  PRO620  LYS621  CYS622 
 ASP623  PHE694  ASN695  SER759  ASP760  ASP761  ALA762  ILE779  LEU786  VAL792 
 PHE793  MET794  SER795  GLU796  ALA797  LYS798  CYS799  TRP800  GLU811  SER814 

> <Gold.Protein.RotatedAtoms>
  152.4357  134.5691  159.9915 H   0  0  0  0  0  0  0  0  0  0  0  0  # atno 6907 bound_to 6896
  151.5801  133.3373  159.3015 H   0  0  0  0  0  0  0  0  0  0  0  0  # atno 6908 bound_to 6896
  150.8255  134.7519  159.6874 H   0  0  0  0  0  0  0  0  0  0  0  0  # atno 6909 bound_to 6896
  145.5930  140.9425  143.1282 H   0  0  0  0  0  0  0  0  0  0  0  0  # atno 7974 bound_to 7965
  154.9942  140.0395  157.2332 H   0  0  0  0  0  0  0  0  0  0  0  0  # atno 8008 bound_to 7997
  154.7601  140.2783  155.6198 H   0  0  0  0  0  0  0  0  0  0  0  0  # atno 8009 bound_to 7997
  156.2902  140.2630  156.2378 H   0  0  0  0  0  0  0  0  0  0  0  0  # atno 8010 bound_to 7997
  140.0190  143.5364  152.2229 H   0  0  0  0  0  0  0  0  0  0  0  0  # atno 10167 bound_to 10162
  157.5633  130.8852  149.9147 H   0  0  0  0  0  0  0  0  0  0  0  0  # atno 10718 bound_to 10713
  154.8486  135.4377  154.1685 H   0  0  0  0  0  0  0  0  0  0  0  0  # atno 10763 bound_to 10752
  153.2804  135.6953  153.7397 H   0  0  0  0  0  0  0  0  0  0  0  0  # atno 10764 bound_to 10752
  153.6603  135.3436  155.3100 H   0  0  0  0  0  0  0  0  0  0  0  0  # atno 10765 bound_to 10752
  139.8770  134.9111  156.4659 H   0  0  0  0  0  0  0  0  0  0  0  0  # atno 11005 bound_to 11000
  144.7343  139.7633  143.7335 LP  0  0  0  0  0  0  0  0  0  0  0  0  # atno 17320 bound_to 7965
  146.1633  139.4754  142.9974 LP  0  0  0  0  0  0  0  0  0  0  0  0  # atno 17321 bound_to 7965
  139.6153  144.7618  151.2860 LP  0  0  0  0  0  0  0  0  0  0  0  0  # atno 17342 bound_to 10162
  140.7350  143.6748  150.8050 LP  0  0  0  0  0  0  0  0  0  0  0  0  # atno 17343 bound_to 10162
  156.0684  130.3689  150.0829 LP  0  0  0  0  0  0  0  0  0  0  0  0  # atno 17370 bound_to 10713
  156.8990  130.9614  151.3579 LP  0  0  0  0  0  0  0  0  0  0  0  0  # atno 17371 bound_to 10713
  140.8831  133.7903  155.9488 LP  0  0  0  0  0  0  0  0  0  0  0  0  # atno 17394 bound_to 11000
  140.8833  134.2584  157.5133 LP  0  0  0  0  0  0  0  0  0  0  0  0  # atno 17395 bound_to 11000

$$$$
