AV-unprocessed.smi:2043|AV-procd|sdf|8296|dock8
  -GOLD-   2272010563D 1   1.00000     0.00000
 Structure written by MMmdl.
 29 30  0  0  0  0  0  0  0  0  1 V2000
  147.0353  138.7300  153.2252 C   0  0  0  0  0  0  0  0  0  0  0  0
  148.0664  139.5728  153.8945 C   0  0  0  0  0  0  0  0  0  0  0  0
  149.3451  139.1950  154.0132 N   0  0  0  0  0  0  0  0  0  0  0  0
  150.1140  140.1414  154.6763 N   0  0  0  0  0  0  0  0  0  0  0  0
  149.3889  141.2078  155.0411 C   0  0  0  0  0  0  0  0  0  0  0  0
  149.9218  142.3249  155.7367 N   0  0  0  0  0  0  0  0  0  0  0  0
  150.9512  142.3552  156.6014 C   0  0  0  0  0  0  0  0  0  0  0  0
  151.6303  141.3835  156.9339 O   0  0  0  0  0  0  0  0  0  0  0  0
  151.1551  143.5961  157.0673 N   0  0  0  0  0  0  0  0  0  0  0  0
  152.1932  143.9811  158.0168 C   0  0  0  0  0  0  0  0  0  0  0  0
  151.7304  143.7851  159.4584 C   0  0  0  0  0  0  0  0  0  0  0  0
  151.8599  144.9300  160.4760 C   0  0  0  0  0  0  0  0  0  0  0  0
  152.1560  143.8805  161.5504 C   0  0  0  0  0  0  0  0  0  0  0  0
  152.5861  142.9445  160.4179 C   0  0  0  0  0  0  0  0  0  0  0  0
  147.6916  141.1411  154.5983 S   0  0  0  0  0  0  0  0  0  0  0  0
  147.5059  138.0027  152.5629 H   0  0  0  0  0  0  0  0  0  0  0  0
  146.3655  139.3553  152.6347 H   0  0  0  0  0  0  0  0  0  0  0  0
  146.4493  138.1962  153.9733 H   0  0  0  0  0  0  0  0  0  0  0  0
  149.4614  143.2049  155.5581 H   0  0  0  0  0  0  0  0  0  0  0  0
  150.5482  144.3327  156.7384 H   0  0  0  0  0  0  0  0  0  0  0  0
  153.0698  143.3638  157.8202 H   0  0  0  0  0  0  0  0  0  0  0  0
  152.5072  145.0120  157.8447 H   0  0  0  0  0  0  0  0  0  0  0  0
  150.7069  143.4045  159.4869 H   0  0  0  0  0  0  0  0  0  0  0  0
  152.7141  145.5798  160.2777 H   0  0  0  0  0  0  0  0  0  0  0  0
  150.9471  145.5050  160.6347 H   0  0  0  0  0  0  0  0  0  0  0  0
  152.9498  144.1500  162.2476 H   0  0  0  0  0  0  0  0  0  0  0  0
  151.2583  143.5370  162.0667 H   0  0  0  0  0  0  0  0  0  0  0  0
  152.2616  141.9098  160.5319 H   0  0  0  0  0  0  0  0  0  0  0  0
  153.6541  143.0096  160.2023 H   0  0  0  0  0  0  0  0  0  0  0  0
  1  2  1  0  0  0  0
  1 16  1  0  0  0  0
  1 17  1  0  0  0  0
  1 18  1  0  0  0  0
  2 15  1  0  0  0  0
  2  3  2  0  0  0  0
  3  4  1  0  0  0  0
  4  5  2  0  0  0  0
  5  6  1  0  0  0  0
  5 15  1  0  0  0  0
  6  7  1  0  0  0  0
  6 19  1  0  0  0  0
  7  8  2  0  0  0  0
  7  9  1  0  0  0  0
  9 10  1  0  0  0  0
  9 20  1  0  0  0  0
 10 11  1  0  0  0  0
 10 21  1  0  0  0  0
 10 22  1  0  0  0  0
 11 14  1  0  0  0  0
 11 12  1  0  0  0  0
 11 23  1  0  0  0  0
 12 13  1  0  0  0  0
 12 24  1  0  0  0  0
 12 25  1  0  0  0  0
 13 14  1  0  0  0  0
 13 26  1  0  0  0  0
 13 27  1  0  0  0  0
 14 28  1  0  0  0  0
 14 29  1  0  0  0  0
M  END
> <s_m_source_file>
AV-unprocessed.smi

> <i_m_source_file_index>
2043

> <i_lp_mmshare_version>
43012

> <i_f3d_flags>
0

> <s_epik_input>
W0NIM11jMW5uYyhzMSlbTkhdQyg9TylbTkhdW0NIMl1bQ0hdMltDSDJdW0NIMl1bQ0gyXTI=

> <s_epik_cmdline>
J2VwaWtfcHl0aG9uJywgJy1waCcsICc3LjAnLCAnLXRuJywgJzgnLCAnLW1hJywgJzIwMCcsICctbWV0YWxfYmluZGluZycsICctaW1hZScsICc8aW5maWxlLm1hZT4nLCAnLW9tYWUnLCAnPG91dGZpbGUubWFlPic=

> <r_lp_tautomer_probability>
1

> <r_epik_Ionization_Penalty>
0.000387707

> <r_epik_Ionization_Penalty_Charging>
0

> <r_epik_Ionization_Penalty_Neutral>
0.000387707

> <r_epik_State_Penalty>
-0

> <r_epik_Charging_Adjusted_Penalty>
0

> <i_epik_Tot_Q>
0

> <i_epik_Tot_abs_Q>
0

> <r_epik_Metal_State_Penalty>
0.190371

> <b_epik_Metal_Only>
0

> <s_lp_Force_Field>
OPLS_2005

> <r_lp_Energy>
11.3872

> <b_lp_Chiralities_Consistent>
1

> <s_lp_Variant>
AV-unprocessed.smi:2043-1

> <Gold.Version>
5.8.1

> <Gold.Id.Protein>
6NUR|6NUR_protein|mol2

> <Gold.PLP.Fitness>
40.8026

> <Gold.PLP.PLP>
-34.1326

> <Gold.PLP.part.hbond>
-3.0000

> <Gold.PLP.part.metal>
0.0000

> <Gold.PLP.part.buried>
-4.3946

> <Gold.PLP.part.nonpolar>
-28.4089

> <Gold.PLP.part.repulsive>
1.7588

> <Gold.PLP.ligand.clash>
0.0000

> <Gold.PLP.ligand.torsion>
1.0860

> <Gold.PLP.Chemscore.Hbond>
2.9280

> <Gold.PLP.Chemscore.CHOScore>
0.0000

> <Gold.PLP.Chemscore.Metal>
0.0000

> <Gold.Chemscore.Hbonds>
donor molecule, donor type, donor heavy atom, donor atom, acceptor molecule, acceptor atom, score
      L1  H     6    19       P1  8028  1.00
      L1  H     9    20       P1  8028  0.91
      P1  H  7989  7998       L1     4  0.94

> <Gold.PLP.Chemscore.Internal.Correction>
0.0579

> <Gold.Rescore>
     Score         DG    S(hbond)    S(metal)    S(lipo)     H(rot)  DE(clash)    DE(int)     intcor
     18.42     -19.99       2.75        0.00      73.29       1.27       0.30       1.27       ----

> <Gold.Chemscore.Fitness>
18.4248

> <Gold.Chemscore.DG>
-19.9887

> <Gold.Chemscore.ZeroCoef>
-5.4800

> <Gold.Chemscore.Hbond>
2.7539

> <Gold.Chemscore.Metal>
0.0000

> <Gold.Chemscore.Lipo>
73.2891

> <Gold.Chemscore.Internal_Hbond>
0.0000

> <Gold.Chemscore.DEClash>
0.2967

> <Gold.Chemscore.DEInternal>
1.2672

> <Gold.Chemscore.Rot>
1.2750

> <Gold.Chemscore.Internal.Correction>
   9.000000E+99

> <Gold.Chemscore.Hbonds>
donor molecule, donor type, donor heavy atom, donor atom, acceptor molecule, acceptor atom, score
      L1  H     6    19       P1  8028  0.99
      L1  H     9    20       P1  8028  0.85
      P1  H  7989  7998       L1     4  0.36

> <Gold.Chemscore.Hbond.Weighted>
-9.1979

> <Gold.Chemscore.Metal.Weighted>
-0.0000

> <Gold.Chemscore.Lipo.Weighted>
-8.5748

> <Gold.Chemscore.Internal_Hbond.Weighted>
0.0000

> <Gold.Chemscore.DEClash.Weighted>
0.2967

> <Gold.Chemscore.DEInternal.Weighted>
1.2672

> <Gold.Chemscore.Rot.Weighted>
3.2640

> <Gold.Chemscore.Internal.Correction.Weighted>
   9.000000E+99

> <Gold.Protein.RotatedTorsions>
[ 6907 6896 6895 6894 ] final   76.81 input  -60.11 | X-H torsion
[ 7974 7965 7964 7962 ] final  104.69 input  175.53 | X-H torsion
[ 8008 7997 7996 7995 ] final  -93.18 input   59.86 | X-H torsion
[ 10167 10162 10161 10158 ] final   43.75 input  -65.29 | X-H torsion
[ 10718 10713 10712 10709 ] final   78.28 input   66.30 | X-H torsion
[ 10763 10752 10751 10750 ] final  -32.84 input  -60.55 | X-H torsion
[ 11005 11000 10999 10996 ] final -179.99 input  -57.11 | X-H torsion

> <Gold.Protein.ActiveResidues>
 VAL166  LYS551  ARG553  GLY616  TRP617  ASP618  TYR619  PRO620  LYS621  CYS622 
 ASP623  PHE694  ASN695  SER759  ASP760  ASP761  ALA762  ILE779  LEU786  VAL792 
 PHE793  MET794  SER795  GLU796  ALA797  LYS798  CYS799  TRP800  GLU811  SER814 

> <Gold.Protein.RotatedAtoms>
  152.5090  134.3912  159.9384 H   0  0  0  0  0  0  0  0  0  0  0  0  # atno 6907 bound_to 6896
  151.3872  133.3795  159.2724 H   0  0  0  0  0  0  0  0  0  0  0  0  # atno 6908 bound_to 6896
  150.9460  134.8885  159.7701 H   0  0  0  0  0  0  0  0  0  0  0  0  # atno 6909 bound_to 6896
  145.3295  139.2490  143.3668 H   0  0  0  0  0  0  0  0  0  0  0  0  # atno 7974 bound_to 7965
  154.7325  140.0501  157.0739 H   0  0  0  0  0  0  0  0  0  0  0  0  # atno 8008 bound_to 7997
  155.0284  140.3155  155.4748 H   0  0  0  0  0  0  0  0  0  0  0  0  # atno 8009 bound_to 7997
  156.2845  140.2154  156.5404 H   0  0  0  0  0  0  0  0  0  0  0  0  # atno 8010 bound_to 7997
  140.3412  144.2468  150.6155 H   0  0  0  0  0  0  0  0  0  0  0  0  # atno 10167 bound_to 10162
  157.6739  130.9861  150.1764 H   0  0  0  0  0  0  0  0  0  0  0  0  # atno 10718 bound_to 10713
  153.8204  135.6875  153.4828 H   0  0  0  0  0  0  0  0  0  0  0  0  # atno 10763 bound_to 10752
  153.1573  135.4594  154.9720 H   0  0  0  0  0  0  0  0  0  0  0  0  # atno 10764 bound_to 10752
  154.7930  135.3308  154.7676 H   0  0  0  0  0  0  0  0  0  0  0  0  # atno 10765 bound_to 10752
  140.4125  134.6679  157.4621 H   0  0  0  0  0  0  0  0  0  0  0  0  # atno 11005 bound_to 11000
  146.3051  140.3869  142.8690 LP  0  0  0  0  0  0  0  0  0  0  0  0  # atno 17320 bound_to 7965
  144.8876  140.7481  143.5947 LP  0  0  0  0  0  0  0  0  0  0  0  0  # atno 17321 bound_to 7965
  140.5307  143.2244  151.8243 LP  0  0  0  0  0  0  0  0  0  0  0  0  # atno 17342 bound_to 10162
  139.4840  144.4724  151.9409 LP  0  0  0  0  0  0  0  0  0  0  0  0  # atno 17343 bound_to 10162
  156.2506  130.3700  149.8236 LP  0  0  0  0  0  0  0  0  0  0  0  0  # atno 17370 bound_to 10713
  156.6010  130.8546  151.3432 LP  0  0  0  0  0  0  0  0  0  0  0  0  # atno 17371 bound_to 10713
  140.0257  134.6480  155.9176 LP  0  0  0  0  0  0  0  0  0  0  0  0  # atno 17394 bound_to 11000
  141.1815  133.6547  156.5041 LP  0  0  0  0  0  0  0  0  0  0  0  0  # atno 17395 bound_to 11000

$$$$
