AV-unprocessed.smi:2061|AV-procd|sdf|8383|dock2
  -GOLD-   2272011 63D 1   1.00000     0.00000
 Structure written by MMmdl.
 45 46  0  0  0  0  0  0  0  0  3 V2000
  144.2029  144.1345  163.2379 C   0  0  0  0  0  0  0  0  0  0  0  0
  145.0017  143.8272  162.0180 C   0  0  0  0  0  0  0  0  0  0  0  0
  145.3565  144.5701  160.9277 C   0  0  0  0  0  0  0  0  0  0  0  0
  146.1160  143.6572  160.1459 C   0  0  0  0  0  0  0  0  0  0  0  0
  146.7022  143.9242  158.9686 N   0  5  0  0  0  0  0  0  0  0  0  0
  147.1455  142.9160  158.1842 C   0  0  0  0  0  0  0  0  0  0  0  0
  147.8309  141.9552  158.5421 O   0  0  0  0  0  0  0  0  0  0  0  0
  146.7653  143.0233  156.9031 N   0  0  0  0  0  0  0  0  0  0  0  0
  147.0815  142.0729  155.8415 C   0  0  0  0  0  0  0  0  0  0  0  0
  145.9644  141.9697  154.7711 C   0  0  1  0  0  0  0  0  0  0  0  0
  146.1161  143.1044  153.7293 C   0  0  0  0  0  0  0  0  0  0  0  0
  145.9609  140.5948  154.1744 N   0  3  1  0  0  0  0  0  0  0  0  0
  147.2508  140.2669  153.5098 C   0  0  0  0  0  0  0  0  0  0  0  0
  147.1904  138.9086  152.7869 C   0  0  2  0  0  0  0  0  0  0  0  0
  146.3494  138.9326  151.4978 C   0  0  0  0  0  0  0  0  0  0  0  0
  146.7715  137.8918  153.6941 O   0  0  0  0  0  0  0  0  0  0  0  0
  145.5235  138.1441  154.3307 C   0  0  1  0  0  0  0  0  0  0  0  0
  145.2301  136.9676  155.2684 C   0  0  0  0  0  0  0  0  0  0  0  0
  145.5812  139.4840  155.0880 C   0  0  0  0  0  0  0  0  0  0  0  0
  146.2257  142.4702  160.7189 N   0  0  0  0  0  0  0  0  0  0  0  0
  145.5091  142.5694  161.9175 O   0  0  0  0  0  0  0  0  0  0  0  0
  144.8561  144.3994  164.0694 H   0  0  0  0  0  0  0  0  0  0  0  0
  143.6037  143.2743  163.5377 H   0  0  0  0  0  0  0  0  0  0  0  0
  143.5266  144.9705  163.0583 H   0  0  0  0  0  0  0  0  0  0  0  0
  145.1105  145.6006  160.7202 H   0  0  0  0  0  0  0  0  0  0  0  0
  146.2082  143.8266  156.6508 H   0  0  0  0  0  0  0  0  0  0  0  0
  148.0107  142.3971  155.3717 H   0  0  0  0  0  0  0  0  0  0  0  0
  147.3004  141.1090  156.3001 H   0  0  0  0  0  0  0  0  0  0  0  0
  144.9968  142.1199  155.2528 H   0  0  0  0  0  0  0  0  0  0  0  0
  146.1302  144.0854  154.2039 H   0  0  0  0  0  0  0  0  0  0  0  0
  145.2825  143.1294  153.0274 H   0  0  0  0  0  0  0  0  0  0  0  0
  147.0416  143.0050  153.1614 H   0  0  0  0  0  0  0  0  0  0  0  0
  147.5401  141.0376  152.7969 H   0  0  0  0  0  0  0  0  0  0  0  0
  148.0382  140.2378  154.2650 H   0  0  0  0  0  0  0  0  0  0  0  0
  148.2070  138.6459  152.4925 H   0  0  0  0  0  0  0  0  0  0  0  0
  146.7755  139.6264  150.7725 H   0  0  0  0  0  0  0  0  0  0  0  0
  145.3217  139.2466  151.6780 H   0  0  0  0  0  0  0  0  0  0  0  0
  146.3226  137.9468  151.0331 H   0  0  0  0  0  0  0  0  0  0  0  0
  144.7314  138.1820  153.5827 H   0  0  0  0  0  0  0  0  0  0  0  0
  144.2761  137.0997  155.7796 H   0  0  0  0  0  0  0  0  0  0  0  0
  146.0056  136.8646  156.0280 H   0  0  0  0  0  0  0  0  0  0  0  0
  145.1816  136.0304  154.7134 H   0  0  0  0  0  0  0  0  0  0  0  0
  146.2947  139.4285  155.9120 H   0  0  0  0  0  0  0  0  0  0  0  0
  144.5950  139.6556  155.5180 H   0  0  0  0  0  0  0  0  0  0  0  0
  145.2534  140.6093  153.4539 H   0  0  0  0  0  0  0  0  0  0  0  0
  1  2  1  0  0  0  0
  1 22  1  0  0  0  0
  1 23  1  0  0  0  0
  1 24  1  0  0  0  0
  2 21  1  0  0  0  0
  2  3  2  0  0  0  0
  3  4  1  0  0  0  0
  3 25  1  0  0  0  0
  4  5  1  0  0  0  0
  4 20  2  0  0  0  0
  5  6  1  0  0  0  0
  6  7  2  0  0  0  0
  6  8  1  0  0  0  0
  8  9  1  0  0  0  0
  8 26  1  0  0  0  0
  9 10  1  0  0  0  0
  9 27  1  0  0  0  0
  9 28  1  0  0  0  0
 10 11  1  0  0  0  0
 10 12  1  0  0  0  0
 10 29  1  0  0  0  0
 11 30  1  0  0  0  0
 11 31  1  0  0  0  0
 11 32  1  0  0  0  0
 12 19  1  0  0  0  0
 12 13  1  0  0  0  0
 12 45  1  0  0  0  0
 13 14  1  0  0  0  0
 13 33  1  0  0  0  0
 13 34  1  0  0  0  0
 14 15  1  0  0  0  0
 14 16  1  0  0  0  0
 14 35  1  0  0  0  0
 15 36  1  0  0  0  0
 15 37  1  0  0  0  0
 15 38  1  0  0  0  0
 16 17  1  0  0  0  0
 17 18  1  0  0  0  0
 17 19  1  0  0  0  0
 17 39  1  0  0  0  0
 18 40  1  0  0  0  0
 18 41  1  0  0  0  0
 18 42  1  0  0  0  0
 19 43  1  0  0  0  0
 19 44  1  0  0  0  0
 20 21  1  0  0  0  0
M  CHG  1   5  -1
M  CHG  1  12   1
M  END
> <s_m_source_file>
AV-unprocessed.smi

> <i_m_source_file_index>
2061

> <i_lp_mmshare_version>
43012

> <i_f3d_flags>
0

> <s_epik_input>
W0NIM11jMVtjSF1jKG5vMSlbTkhdQyg9TylbTkhdW0NIMl1bQ0BIXShbQ0gzXSlOMltDSDJdW0NAQEhdKFtDSDNdKU9bQ0BASF0oW0NIM10pW0NIMl0y

> <s_epik_cmdline>
J2VwaWtfcHl0aG9uJywgJy1waCcsICc3LjAnLCAnLXRuJywgJzgnLCAnLW1hJywgJzIwMCcsICctbWV0YWxfYmluZGluZycsICctaW1hZScsICc8aW5maWxlLm1hZT4nLCAnLW9tYWUnLCAnPG91dGZpbGUubWFlPic=

> <r_epik_Ionization_Penalty>
6.73511

> <r_epik_Ionization_Penalty_Charging>
6.73502

> <r_epik_Ionization_Penalty_Neutral>
9.50841e-05

> <r_epik_State_Penalty>
6.93549

> <r_epik_Charging_Adjusted_Penalty>
13.6705

> <i_epik_Tot_Q>
0

> <i_epik_Tot_abs_Q>
2

> <r_epik_Metal_State_Penalty>
2.87211

> <b_epik_Metal_Only>
1

> <s_lp_Force_Field>
OPLS_2005

> <r_lp_Energy>
11.2328

> <b_lp_Chiralities_Consistent>
1

> <s_lp_Variant>
AV-unprocessed.smi:2061-24

> <Gold.Version>
5.8.1

> <Gold.Id.Protein>
6NUR|6NUR_protein|mol2

> <Gold.PLP.Fitness>
38.6379

> <Gold.PLP.PLP>
-31.5337

> <Gold.PLP.part.hbond>
-5.3918

> <Gold.PLP.part.metal>
0.0000

> <Gold.PLP.part.buried>
-0.1824

> <Gold.PLP.part.nonpolar>
-26.8585

> <Gold.PLP.part.repulsive>
0.4367

> <Gold.PLP.ligand.clash>
0.0000

> <Gold.PLP.ligand.torsion>
0.9963

> <Gold.PLP.Chemscore.Hbond>
3.0000

> <Gold.PLP.Chemscore.CHOScore>
0.0000

> <Gold.PLP.Chemscore.Metal>
0.0000

> <Gold.Chemscore.Hbonds>
donor molecule, donor type, donor heavy atom, donor atom, acceptor molecule, acceptor atom, score
      L1  H    12    45       P1 10175  2.00
      P1  H  6933  6944       L1    20  0.11
      P1  H  6934  6946       L1    20  1.00

> <Gold.PLP.Chemscore.Internal.Correction>
0.0969

> <Gold.Rescore>
     Score         DG    S(hbond)    S(metal)    S(lipo)     H(rot)  DE(clash)    DE(int)     intcor
     12.91     -15.58       1.84        0.00      67.88       1.56       0.26       2.40       ----

> <Gold.Chemscore.Fitness>
12.9131

> <Gold.Chemscore.DG>
-15.5800

> <Gold.Chemscore.ZeroCoef>
-5.4800

> <Gold.Chemscore.Hbond>
1.8379

> <Gold.Chemscore.Metal>
0.0000

> <Gold.Chemscore.Lipo>
67.8817

> <Gold.Chemscore.Internal_Hbond>
0.0000

> <Gold.Chemscore.DEClash>
0.2641

> <Gold.Chemscore.DEInternal>
2.4028

> <Gold.Chemscore.Rot>
1.5550

> <Gold.Chemscore.Internal.Correction>
   9.000000E+99

> <Gold.Chemscore.Hbonds>
donor molecule, donor type, donor heavy atom, donor atom, acceptor molecule, acceptor atom, score
      L1  H    12    45       P1 10175  0.96
      P1  H  6933  6944       L1    20  0.03
      P1  H  6934  6946       L1    20  0.50

> <Gold.Chemscore.Hbond.Weighted>
-6.1387

> <Gold.Chemscore.Metal.Weighted>
-0.0000

> <Gold.Chemscore.Lipo.Weighted>
-7.9422

> <Gold.Chemscore.Internal_Hbond.Weighted>
0.0000

> <Gold.Chemscore.DEClash.Weighted>
0.2641

> <Gold.Chemscore.DEInternal.Weighted>
2.4028

> <Gold.Chemscore.Rot.Weighted>
3.9809

> <Gold.Chemscore.Internal.Correction.Weighted>
   9.000000E+99

> <Gold.Protein.RotatedTorsions>
[ 6907 6896 6895 6894 ] final   23.90 input  -60.11 | X-H torsion
[ 7974 7965 7964 7962 ] final  -31.07 input  175.53 | X-H torsion
[ 8008 7997 7996 7995 ] final   47.27 input   59.86 | X-H torsion
[ 10167 10162 10161 10158 ] final   -0.82 input  -65.29 | X-H torsion
[ 10718 10713 10712 10709 ] final -153.74 input   66.30 | X-H torsion
[ 10763 10752 10751 10750 ] final -124.07 input  -60.55 | X-H torsion
[ 11005 11000 10999 10996 ] final   26.72 input  -57.11 | X-H torsion

> <Gold.Protein.ActiveResidues>
 VAL166  LYS551  ARG553  GLY616  TRP617  ASP618  TYR619  PRO620  LYS621  CYS622 
 ASP623  PHE694  ASN695  SER759  ASP760  ASP761  ALA762  ILE779  LEU786  VAL792 
 PHE793  MET794  SER795  GLU796  ALA797  LYS798  CYS799  TRP800  GLU811  SER814 

> <Gold.Protein.RotatedAtoms>
  151.9493  135.0176  160.0540 H   0  0  0  0  0  0  0  0  0  0  0  0  # atno 6907 bound_to 6896
  152.1967  133.4807  159.5045 H   0  0  0  0  0  0  0  0  0  0  0  0  # atno 6908 bound_to 6896
  150.6946  134.1560  159.4201 H   0  0  0  0  0  0  0  0  0  0  0  0  # atno 6909 bound_to 6896
  146.1095  140.5621  142.8784 H   0  0  0  0  0  0  0  0  0  0  0  0  # atno 7974 bound_to 7965
  155.3662  140.3421  155.4242 H   0  0  0  0  0  0  0  0  0  0  0  0  # atno 8008 bound_to 7997
  156.1687  140.1624  156.8520 H   0  0  0  0  0  0  0  0  0  0  0  0  # atno 8009 bound_to 7997
  154.5211  140.0767  156.8155 H   0  0  0  0  0  0  0  0  0  0  0  0  # atno 8010 bound_to 7997
  140.6784  143.6849  150.8075 H   0  0  0  0  0  0  0  0  0  0  0  0  # atno 10167 bound_to 10162
  156.4899  130.8342  151.2566 H   0  0  0  0  0  0  0  0  0  0  0  0  # atno 10718 bound_to 10713
  154.8718  135.4076  154.3046 H   0  0  0  0  0  0  0  0  0  0  0  0  # atno 10763 bound_to 10752
  153.3900  135.7014  153.6507 H   0  0  0  0  0  0  0  0  0  0  0  0  # atno 10764 bound_to 10752
  153.5294  135.3670  155.2640 H   0  0  0  0  0  0  0  0  0  0  0  0  # atno 10765 bound_to 10752
  140.3340  134.2407  155.7698 H   0  0  0  0  0  0  0  0  0  0  0  0  # atno 11005 bound_to 11000
  144.7499  140.5165  143.6809 LP  0  0  0  0  0  0  0  0  0  0  0  0  # atno 17320 bound_to 7965
  145.5693  139.1482  143.3297 LP  0  0  0  0  0  0  0  0  0  0  0  0  # atno 17321 bound_to 7965
  140.0546  143.5216  152.2657 LP  0  0  0  0  0  0  0  0  0  0  0  0  # atno 17342 bound_to 10162
  139.6090  144.7604  151.2996 LP  0  0  0  0  0  0  0  0  0  0  0  0  # atno 17343 bound_to 10162
  157.7475  131.0017  150.2973 LP  0  0  0  0  0  0  0  0  0  0  0  0  # atno 17370 bound_to 10713
  156.3437  130.3819  149.7387 LP  0  0  0  0  0  0  0  0  0  0  0  0  # atno 17371 bound_to 10713
  141.2056  133.7855  157.0223 LP  0  0  0  0  0  0  0  0  0  0  0  0  # atno 17394 bound_to 11000
  140.0837  134.9633  157.1665 LP  0  0  0  0  0  0  0  0  0  0  0  0  # atno 17395 bound_to 11000

$$$$
