AV-unprocessed.smi:1060|AV-procd|sdf|4659|dock2
  -GOLD-   22720 3173D 1   1.00000     0.00000
 Structure written by MMmdl.
 36 37  0  0  0  0  0  0  0  0  2 V2000
  149.5860  138.9651  158.8215 O   0  0  0  0  0  0  0  0  0  0  0  0
  150.5994  138.2717  158.7430 C   0  0  0  0  0  0  0  0  0  0  0  0
  150.4629  136.7913  158.3949 C   0  0  0  0  0  0  0  0  0  0  0  0
  149.4623  136.2162  159.2196 O   0  0  0  0  0  0  0  0  0  0  0  0
  148.1661  136.3224  158.6550 C   0  0  0  0  0  0  0  0  0  0  0  0
  147.1328  136.4318  159.7832 C   0  0  1  0  0  0  0  0  0  0  0  0
  147.0277  135.1756  160.6422 C   0  0  0  0  0  0  0  0  0  0  0  0
  146.3964  135.7025  161.9165 C   0  0  0  0  0  0  0  0  0  0  0  0
  146.8281  137.1719  161.9525 C   0  0  0  0  0  0  0  0  0  0  0  0
  147.5302  137.4066  160.7359 O   0  0  0  0  0  0  0  0  0  0  0  0
  151.8580  138.6953  158.9725 N   0  0  0  0  0  0  0  0  0  0  0  0
  152.3211  139.9752  159.3237 C   0  0  0  0  0  0  0  0  0  0  0  0
  152.0052  141.1247  158.6651 C   0  0  0  0  0  0  0  0  0  0  0  0
  152.5200  142.4254  159.0741 C   0  0  0  0  0  0  0  0  0  0  0  0
  152.2470  143.7140  158.3183 C   0  0  0  0  0  0  0  0  0  0  0  0
  153.3677  144.2118  157.7952 F   0  0  0  0  0  0  0  0  0  0  0  0
  151.3757  143.5118  157.3297 F   0  0  0  0  0  0  0  0  0  0  0  0
  151.7335  144.6243  159.1442 F   0  0  0  0  0  0  0  0  0  0  0  0
  153.3678  142.3354  160.1613 C   0  0  0  0  0  0  0  0  0  0  0  0
  153.7277  141.2439  160.8712 N   0  5  0  0  0  0  0  0  0  0  0  0
  153.2340  140.0336  160.4844 C   0  0  0  0  0  0  0  0  0  0  0  0
  153.5308  138.9973  161.0799 O   0  0  0  0  0  0  0  0  0  0  0  0
  150.1976  136.6928  157.3409 H   0  0  0  0  0  0  0  0  0  0  0  0
  151.4176  136.2845  158.5468 H   0  0  0  0  0  0  0  0  0  0  0  0
  148.1252  137.2178  158.0325 H   0  0  0  0  0  0  0  0  0  0  0  0
  147.9448  135.4666  158.0150 H   0  0  0  0  0  0  0  0  0  0  0  0
  146.1495  136.6876  159.3840 H   0  0  0  0  0  0  0  0  0  0  0  0
  146.4421  134.3852  160.1716 H   0  0  0  0  0  0  0  0  0  0  0  0
  148.0218  134.7808  160.8579 H   0  0  0  0  0  0  0  0  0  0  0  0
  145.3094  135.6346  161.8565 H   0  0  0  0  0  0  0  0  0  0  0  0
  146.7214  135.1477  162.7973 H   0  0  0  0  0  0  0  0  0  0  0  0
  145.9602  137.8296  162.0130 H   0  0  0  0  0  0  0  0  0  0  0  0
  147.4767  137.3871  162.8020 H   0  0  0  0  0  0  0  0  0  0  0  0
  152.5790  137.9893  158.9332 H   0  0  0  0  0  0  0  0  0  0  0  0
  151.3647  141.1078  157.7989 H   0  0  0  0  0  0  0  0  0  0  0  0
  153.8302  143.2832  160.5106 H   0  0  0  0  0  0  0  0  0  0  0  0
  1  2  2  0  0  0  0
  2  3  1  0  0  0  0
  2 11  1  0  0  0  0
  3  4  1  0  0  0  0
  3 23  1  0  0  0  0
  3 24  1  0  0  0  0
  4  5  1  0  0  0  0
  5  6  1  0  0  0  0
  5 25  1  0  0  0  0
  5 26  1  0  0  0  0
  6 10  1  0  0  0  0
  6  7  1  0  0  0  0
  6 27  1  0  0  0  0
  7  8  1  0  0  0  0
  7 28  1  0  0  0  0
  7 29  1  0  0  0  0
  8  9  1  0  0  0  0
  8 30  1  0  0  0  0
  8 31  1  0  0  0  0
  9 10  1  0  0  0  0
  9 32  1  0  0  0  0
  9 33  1  0  0  0  0
 11 12  1  0  0  0  0
 11 34  1  0  0  0  0
 12 21  1  0  0  0  0
 12 13  2  0  0  0  0
 13 14  1  0  0  0  0
 13 35  1  0  0  0  0
 14 15  1  0  0  0  0
 14 19  2  0  0  0  0
 15 16  1  0  0  0  0
 15 17  1  0  0  0  0
 15 18  1  0  0  0  0
 19 20  1  0  0  0  0
 19 36  1  0  0  0  0
 20 21  1  0  0  0  0
 21 22  2  0  0  0  0
M  CHG  1  20  -1
M  END
> <s_m_source_file>
AV-unprocessed.smi

> <i_m_source_file_index>
1060

> <i_lp_mmshare_version>
43012

> <i_f3d_flags>
0

> <s_epik_input>
Tz1jMVtuSF1bY0hdYyhDKEYpKEYpRilbY0hdYzFbTkhdQyg9TylbQ0gyXU9bQ0gyXVtDQEBIXTJbQ0gyXVtDSDJdW0NIMl1PMg==

> <s_epik_cmdline>
J2VwaWtfcHl0aG9uJywgJy1waCcsICc3LjAnLCAnLXRuJywgJzgnLCAnLW1hJywgJzIwMCcsICctbWV0YWxfYmluZGluZycsICctaW1hZScsICc8aW5maWxlLm1hZT4nLCAnLW9tYWUnLCAnPG91dGZpbGUubWFlPic=

> <r_epik_Ionization_Penalty>
2.50578

> <r_epik_Ionization_Penalty_Charging>
0.0523173

> <r_epik_Ionization_Penalty_Neutral>
2.45346

> <r_epik_State_Penalty>
2.61512

> <r_epik_Charging_Adjusted_Penalty>
2.66744

> <i_epik_Tot_Q>
-1

> <i_epik_Tot_abs_Q>
1

> <r_epik_Metal_State_Penalty>
0.513209

> <b_epik_Metal_Only>
0

> <s_lp_Force_Field>
OPLS_2005

> <r_lp_Energy>
36.6163

> <b_lp_Chiralities_Consistent>
1

> <s_lp_Variant>
AV-unprocessed.smi:1060-4

> <Gold.Version>
5.8.1

> <Gold.Id.Protein>
6NUR|6NUR_protein|mol2

> <Gold.PLP.Fitness>
51.1772

> <Gold.PLP.PLP>
-46.2410

> <Gold.PLP.part.hbond>
-5.0000

> <Gold.PLP.part.metal>
0.0000

> <Gold.PLP.part.buried>
-1.7409

> <Gold.PLP.part.nonpolar>
-40.5805

> <Gold.PLP.part.repulsive>
0.0997

> <Gold.PLP.ligand.clash>
0.0000

> <Gold.PLP.ligand.torsion>
1.0187

> <Gold.PLP.Chemscore.Hbond>
2.2540

> <Gold.PLP.Chemscore.CHOScore>
0.0000

> <Gold.PLP.Chemscore.Metal>
0.0000

> <Gold.Chemscore.Hbonds>
donor molecule, donor type, donor heavy atom, donor atom, acceptor molecule, acceptor atom, score
      P1  H  6896  6908       L1     4  0.40
      P1  H  6931  6943       L1    10  0.22
      P1  H  6934  6947       L1    10  0.40

> <Gold.PLP.Chemscore.Internal.Correction>
0.2115

> <Gold.Rescore>
     Score         DG    S(hbond)    S(metal)    S(lipo)     H(rot)  DE(clash)    DE(int)     intcor
     11.58     -13.83       0.98        0.00      85.38       1.92       0.62       1.63       ----

> <Gold.Chemscore.Fitness>
11.5764

> <Gold.Chemscore.DG>
-13.8334

> <Gold.Chemscore.ZeroCoef>
-5.4800

> <Gold.Chemscore.Hbond>
0.9811

> <Gold.Chemscore.Metal>
0.0000

> <Gold.Chemscore.Lipo>
85.3775

> <Gold.Chemscore.Internal_Hbond>
0.0000

> <Gold.Chemscore.DEClash>
0.6229

> <Gold.Chemscore.DEInternal>
1.6340

> <Gold.Chemscore.Rot>
1.9190

> <Gold.Chemscore.Internal.Correction>
   9.000000E+99

> <Gold.Chemscore.Hbonds>
donor molecule, donor type, donor heavy atom, donor atom, acceptor molecule, acceptor atom, score
      P1  H  6896  6908       L1     4  0.01
      P1  H  6934  6947       L1    10  0.01

> <Gold.Chemscore.Hbond.Weighted>
-3.2768

> <Gold.Chemscore.Metal.Weighted>
-0.0000

> <Gold.Chemscore.Lipo.Weighted>
-9.9892

> <Gold.Chemscore.Internal_Hbond.Weighted>
0.0000

> <Gold.Chemscore.DEClash.Weighted>
0.6229

> <Gold.Chemscore.DEInternal.Weighted>
1.6340

> <Gold.Chemscore.Rot.Weighted>
4.9126

> <Gold.Chemscore.Internal.Correction.Weighted>
   9.000000E+99

> <Gold.Protein.RotatedTorsions>
[ 6907 6896 6895 6894 ] final -178.65 input  -60.11 | X-H torsion
[ 7974 7965 7964 7962 ] final  157.06 input  175.53 | X-H torsion
[ 8008 7997 7996 7995 ] final   16.03 input   59.86 | X-H torsion
[ 10167 10162 10161 10158 ] final   -5.78 input  -65.29 | X-H torsion
[ 10718 10713 10712 10709 ] final -124.77 input   66.30 | X-H torsion
[ 10763 10752 10751 10750 ] final  124.41 input  -60.55 | X-H torsion
[ 11005 11000 10999 10996 ] final   86.07 input  -57.11 | X-H torsion

> <Gold.Protein.ActiveResidues>
 VAL166  LYS551  ARG553  GLY616  TRP617  ASP618  TYR619  PRO620  LYS621  CYS622 
 ASP623  PHE694  ASN695  SER759  ASP760  ASP761  ALA762  ILE779  LEU786  VAL792 
 PHE793  MET794  SER795  GLU796  ALA797  LYS798  CYS799  TRP800  GLU811  SER814 

> <Gold.Protein.RotatedAtoms>
  151.6407  133.3326  159.3129 H   0  0  0  0  0  0  0  0  0  0  0  0  # atno 6907 bound_to 6896
  150.8009  134.7106  159.6611 H   0  0  0  0  0  0  0  0  0  0  0  0  # atno 6908 bound_to 6896
  152.4101  134.6143  160.0085 H   0  0  0  0  0  0  0  0  0  0  0  0  # atno 6909 bound_to 6896
  144.7926  139.7288  143.6215 H   0  0  0  0  0  0  0  0  0  0  0  0  # atno 7974 bound_to 7965
  154.8711  140.2959  155.5481 H   0  0  0  0  0  0  0  0  0  0  0  0  # atno 8008 bound_to 7997
  156.3021  140.2460  156.3633 H   0  0  0  0  0  0  0  0  0  0  0  0  # atno 8009 bound_to 7997
  154.8816  140.0397  157.1775 H   0  0  0  0  0  0  0  0  0  0  0  0  # atno 8010 bound_to 7997
  140.6975  143.6269  150.8559 H   0  0  0  0  0  0  0  0  0  0  0  0  # atno 10167 bound_to 10162
  156.1616  130.6606  151.0058 H   0  0  0  0  0  0  0  0  0  0  0  0  # atno 10718 bound_to 10713
  153.6610  135.3346  155.3127 H   0  0  0  0  0  0  0  0  0  0  0  0  # atno 10763 bound_to 10752
  154.8515  135.4363  154.1804 H   0  0  0  0  0  0  0  0  0  0  0  0  # atno 10764 bound_to 10752
  153.2771  135.7005  153.7497 H   0  0  0  0  0  0  0  0  0  0  0  0  # atno 10765 bound_to 10752
  139.8954  134.8330  156.2669 H   0  0  0  0  0  0  0  0  0  0  0  0  # atno 11005 bound_to 11000
  146.2183  139.5589  142.9635 LP  0  0  0  0  0  0  0  0  0  0  0  0  # atno 17320 bound_to 7965
  145.5756  141.0389  143.2150 LP  0  0  0  0  0  0  0  0  0  0  0  0  # atno 17321 bound_to 7965
  139.9989  143.5766  152.2883 LP  0  0  0  0  0  0  0  0  0  0  0  0  # atno 17342 bound_to 10162
  139.6448  144.7657  151.2266 LP  0  0  0  0  0  0  0  0  0  0  0  0  # atno 17343 bound_to 10162
  157.6737  131.0855  150.7549 LP  0  0  0  0  0  0  0  0  0  0  0  0  # atno 17370 bound_to 10713
  156.7611  130.4799  149.5437 LP  0  0  0  0  0  0  0  0  0  0  0  0  # atno 17371 bound_to 10713
  141.0126  133.7087  156.1136 LP  0  0  0  0  0  0  0  0  0  0  0  0  # atno 17394 bound_to 11000
  140.7346  134.4217  157.5562 LP  0  0  0  0  0  0  0  0  0  0  0  0  # atno 17395 bound_to 11000

$$$$
