AV-unprocessed.smi:3252|AV-procd|sdf|12440|dock1
  -GOLD-   2272018333D 1   1.00000     0.00000
 Structure written by MMmdl.
 37 38  0  0  0  0  0  0  0  0  2 V2000
  143.9340  132.0950  150.5401 C   0  0  0  0  0  0  0  0  0  0  0  0
  143.7389  133.0889  151.6933 C   0  0  0  0  0  0  0  0  0  0  0  0
  143.4751  134.4709  151.2118 N   0  3  2  0  0  0  0  0  0  0  0  0
  144.4875  134.9650  150.2475 C   0  0  0  0  0  0  0  0  0  0  0  0
  145.7699  135.4112  150.9705 C   0  0  0  0  0  0  0  0  0  0  0  0
  145.4408  136.4032  151.9336 O   0  0  0  0  0  0  0  0  0  0  0  0
  144.5695  135.9173  152.9500 C   0  0  1  0  0  0  0  0  0  0  0  0
  144.3290  137.0360  153.9792 C   0  0  0  0  0  0  0  0  0  0  0  0
  144.9063  138.3104  153.5664 N   0  0  0  0  0  0  0  0  0  0  0  0
  146.2424  138.6399  153.8385 C   0  0  0  0  0  0  0  0  0  0  0  0
  146.9892  137.7842  154.6755 C   0  0  0  0  0  0  0  0  0  0  0  0
  148.3318  138.1069  154.9549 C   0  0  0  0  0  0  0  0  0  0  0  0
  148.8805  139.2740  154.3878 C   0  0  0  0  0  0  0  0  0  0  0  0
  150.2604  139.6493  154.6436 C   0  0  0  0  0  0  0  0  0  0  0  0
  151.3594  139.9482  154.8470 N   0  0  0  0  0  0  0  0  0  0  0  0
  148.0564  140.0687  153.5659 C   0  0  0  0  0  0  0  0  0  0  0  0
  146.7686  139.7642  153.2964 N   0  0  0  0  0  0  0  0  0  0  0  0
  143.2471  135.4739  152.2846 C   0  0  0  0  0  0  0  0  0  0  0  0
  144.2229  131.1160  150.9235 H   0  0  0  0  0  0  0  0  0  0  0  0
  144.7205  132.4278  149.8619 H   0  0  0  0  0  0  0  0  0  0  0  0
  143.0230  131.9570  149.9586 H   0  0  0  0  0  0  0  0  0  0  0  0
  142.9471  132.7481  152.3600 H   0  0  0  0  0  0  0  0  0  0  0  0
  144.6553  133.0888  152.2846 H   0  0  0  0  0  0  0  0  0  0  0  0
  144.7082  134.2082  149.4941 H   0  0  0  0  0  0  0  0  0  0  0  0
  144.0638  135.8151  149.7114 H   0  0  0  0  0  0  0  0  0  0  0  0
  146.2734  134.5694  151.4479 H   0  0  0  0  0  0  0  0  0  0  0  0
  146.4738  135.8369  150.2552 H   0  0  0  0  0  0  0  0  0  0  0  0
  145.0336  135.0700  153.4574 H   0  0  0  0  0  0  0  0  0  0  0  0
  143.2674  137.1364  154.2068 H   0  0  0  0  0  0  0  0  0  0  0  0
  144.8117  136.7652  154.9185 H   0  0  0  0  0  0  0  0  0  0  0  0
  144.2893  139.0216  153.2011 H   0  0  0  0  0  0  0  0  0  0  0  0
  146.5458  136.8942  155.0979 H   0  0  0  0  0  0  0  0  0  0  0  0
  148.9243  137.4666  155.5926 H   0  0  0  0  0  0  0  0  0  0  0  0
  148.4342  140.9726  153.1098 H   0  0  0  0  0  0  0  0  0  0  0  0
  142.7643  136.3421  151.8333 H   0  0  0  0  0  0  0  0  0  0  0  0
  142.5482  135.0963  153.0299 H   0  0  0  0  0  0  0  0  0  0  0  0
  142.6116  134.4054  150.6919 H   0  0  0  0  0  0  0  0  0  0  0  0
  1  2  1  0  0  0  0
  1 19  1  0  0  0  0
  1 20  1  0  0  0  0
  1 21  1  0  0  0  0
  2  3  1  0  0  0  0
  2 22  1  0  0  0  0
  2 23  1  0  0  0  0
  3 18  1  0  0  0  0
  3  4  1  0  0  0  0
  3 37  1  0  0  0  0
  4  5  1  0  0  0  0
  4 24  1  0  0  0  0
  4 25  1  0  0  0  0
  5  6  1  0  0  0  0
  5 26  1  0  0  0  0
  5 27  1  0  0  0  0
  6  7  1  0  0  0  0
  7  8  1  0  0  0  0
  7 18  1  0  0  0  0
  7 28  1  0  0  0  0
  8  9  1  0  0  0  0
  8 29  1  0  0  0  0
  8 30  1  0  0  0  0
  9 10  1  0  0  0  0
  9 31  1  0  0  0  0
 10 17  1  0  0  0  0
 10 11  2  0  0  0  0
 11 12  1  0  0  0  0
 11 32  1  0  0  0  0
 12 13  2  0  0  0  0
 12 33  1  0  0  0  0
 13 14  1  0  0  0  0
 13 16  1  0  0  0  0
 14 15  3  0  0  0  0
 16 17  2  0  0  0  0
 16 34  1  0  0  0  0
 18 35  1  0  0  0  0
 18 36  1  0  0  0  0
M  CHG  1   3   1
M  END
> <s_m_source_file>
AV-unprocessed.smi

> <i_m_source_file_index>
3252

> <i_lp_mmshare_version>
43012

> <i_f3d_flags>
0

> <s_epik_input>
W0NIM11bQ0gyXU4xW0NIMl1bQ0gyXU9bQ0BIXShbQ0gyXTEpW0NIMl1bTkhdYzJbY0hdW2NIXWMoQyNOKVtjSF1uMg==

> <s_epik_cmdline>
J2VwaWtfcHl0aG9uJywgJy1waCcsICc3LjAnLCAnLXRuJywgJzgnLCAnLW1hJywgJzIwMCcsICctbWV0YWxfYmluZGluZycsICctaW1hZScsICc8aW5maWxlLm1hZT4nLCAnLW9tYWUnLCAnPG91dGZpbGUubWFlPic=

> <r_epik_Ionization_Penalty>
0.178512

> <r_epik_Ionization_Penalty_Charging>
0.178504

> <r_epik_Ionization_Penalty_Neutral>
8.15545e-06

> <r_epik_State_Penalty>
0.167974

> <r_epik_Charging_Adjusted_Penalty>
0.346478

> <i_epik_Tot_Q>
1

> <i_epik_Tot_abs_Q>
1

> <r_epik_Metal_State_Penalty>
0.167974

> <b_epik_Metal_Only>
0

> <s_lp_Force_Field>
OPLS_2005

> <r_lp_Energy>
19.5584

> <b_lp_Chiralities_Consistent>
1

> <s_lp_Variant>
AV-unprocessed.smi:3252-2

> <Gold.Version>
5.8.1

> <Gold.Id.Protein>
6NUR|6NUR_protein|mol2

> <Gold.PLP.Fitness>
37.4650

> <Gold.PLP.PLP>
-25.9815

> <Gold.PLP.part.hbond>
-3.0000

> <Gold.PLP.part.metal>
0.0000

> <Gold.PLP.part.buried>
-2.5077

> <Gold.PLP.part.nonpolar>
-20.7862

> <Gold.PLP.part.repulsive>
0.4818

> <Gold.PLP.ligand.clash>
0.0000

> <Gold.PLP.ligand.torsion>
0.9322

> <Gold.PLP.Chemscore.Hbond>
4.0000

> <Gold.PLP.Chemscore.CHOScore>
0.4411

> <Gold.PLP.Chemscore.Metal>
0.0000

> <Gold.Chemscore.Hbonds>
donor molecule, donor type, donor heavy atom, donor atom, acceptor molecule, acceptor atom, score
      L1  H     3    37       P1 10186  2.00
      L1  H     9    31       P1 10175  1.00
      P1  H  7989  7998       L1    15  1.00
      L1  C    16    34       P1  7957  0.42

> <Gold.PLP.Chemscore.Internal.Correction>
0.0244

> <Gold.Rescore>
     Score         DG    S(hbond)    S(metal)    S(lipo)     H(rot)  DE(clash)    DE(int)     intcor
     14.15     -16.35       2.45        0.00      54.98       1.47       0.60       1.59       ----

> <Gold.Chemscore.Fitness>
14.1547

> <Gold.Chemscore.DG>
-16.3476

> <Gold.Chemscore.ZeroCoef>
-5.4800

> <Gold.Chemscore.Hbond>
2.4530

> <Gold.Chemscore.Metal>
0.0000

> <Gold.Chemscore.Lipo>
54.9828

> <Gold.Chemscore.Internal_Hbond>
0.0000

> <Gold.Chemscore.DEClash>
0.5989

> <Gold.Chemscore.DEInternal>
1.5940

> <Gold.Chemscore.Rot>
1.4681

> <Gold.Chemscore.Internal.Correction>
   9.000000E+99

> <Gold.Chemscore.Hbonds>
donor molecule, donor type, donor heavy atom, donor atom, acceptor molecule, acceptor atom, score
      L1  H     3    37       P1 10186  0.34
      L1  H     9    31       P1 10175  1.00
      P1  H  7989  7998       L1    15  0.25

> <Gold.Chemscore.Hbond.Weighted>
-8.1930

> <Gold.Chemscore.Metal.Weighted>
-0.0000

> <Gold.Chemscore.Lipo.Weighted>
-6.4330

> <Gold.Chemscore.Internal_Hbond.Weighted>
0.0000

> <Gold.Chemscore.DEClash.Weighted>
0.5989

> <Gold.Chemscore.DEInternal.Weighted>
1.5940

> <Gold.Chemscore.Rot.Weighted>
3.7584

> <Gold.Chemscore.Internal.Correction.Weighted>
   9.000000E+99

> <Gold.Protein.RotatedTorsions>
[ 6907 6896 6895 6894 ] final -134.55 input  -60.11 | X-H torsion
[ 7974 7965 7964 7962 ] final  -60.72 input  175.53 | X-H torsion
[ 8008 7997 7996 7995 ] final  -18.55 input   59.86 | X-H torsion
[ 10167 10162 10161 10158 ] final  161.76 input  -65.29 | X-H torsion
[ 10718 10713 10712 10709 ] final  -36.81 input   66.30 | X-H torsion
[ 10763 10752 10751 10750 ] final  134.35 input  -60.55 | X-H torsion
[ 11005 11000 10999 10996 ] final  -60.75 input  -57.11 | X-H torsion

> <Gold.Protein.ActiveResidues>
 VAL166  LYS551  ARG553  GLY616  TRP617  ASP618  TYR619  PRO620  LYS621  CYS622 
 ASP623  PHE694  ASN695  SER759  ASP760  ASP761  ALA762  ILE779  LEU786  VAL792 
 PHE793  MET794  SER795  GLU796  ALA797  LYS798  CYS799  TRP800  GLU811  SER814 

> <Gold.Protein.RotatedAtoms>
  150.9872  133.6186  159.2713 H   0  0  0  0  0  0  0  0  0  0  0  0  # atno 6907 bound_to 6896
  151.3420  135.0864  159.9384 H   0  0  0  0  0  0  0  0  0  0  0  0  # atno 6908 bound_to 6896
  152.5234  133.9481  159.7713 H   0  0  0  0  0  0  0  0  0  0  0  0  # atno 6909 bound_to 6896
  145.8121  140.8592  143.0176 H   0  0  0  0  0  0  0  0  0  0  0  0  # atno 7974 bound_to 7965
  154.4898  140.2112  155.9574 H   0  0  0  0  0  0  0  0  0  0  0  0  # atno 8008 bound_to 7997
  156.1289  140.3200  155.8287 H   0  0  0  0  0  0  0  0  0  0  0  0  # atno 8009 bound_to 7997
  155.4333  140.0505  157.3007 H   0  0  0  0  0  0  0  0  0  0  0  0  # atno 8010 bound_to 7997
  139.4853  144.4504  151.8837 H   0  0  0  0  0  0  0  0  0  0  0  0  # atno 10167 bound_to 10162
  156.3225  130.4267  149.7947 H   0  0  0  0  0  0  0  0  0  0  0  0  # atno 10718 bound_to 10713
  153.8221  135.3115  155.3411 H   0  0  0  0  0  0  0  0  0  0  0  0  # atno 10763 bound_to 10752
  154.8008  135.4728  154.0274 H   0  0  0  0  0  0  0  0  0  0  0  0  # atno 10764 bound_to 10752
  153.1687  135.6874  153.8729 H   0  0  0  0  0  0  0  0  0  0  0  0  # atno 10765 bound_to 10752
  141.1299  133.6624  156.5270 H   0  0  0  0  0  0  0  0  0  0  0  0  # atno 11005 bound_to 11000
  144.6756  140.0410  143.7481 LP  0  0  0  0  0  0  0  0  0  0  0  0  # atno 17320 bound_to 7965
  145.9766  139.2909  143.1067 LP  0  0  0  0  0  0  0  0  0  0  0  0  # atno 17321 bound_to 7965
  140.3961  144.2554  150.5896 LP  0  0  0  0  0  0  0  0  0  0  0  0  # atno 17342 bound_to 10162
  140.5101  143.2293  151.8548 LP  0  0  0  0  0  0  0  0  0  0  0  0  # atno 17343 bound_to 10162
  156.5250  130.8232  151.3217 LP  0  0  0  0  0  0  0  0  0  0  0  0  # atno 17370 bound_to 10713
  157.7414  130.9870  150.2446 LP  0  0  0  0  0  0  0  0  0  0  0  0  # atno 17371 bound_to 10713
  140.4246  134.7157  157.4909 LP  0  0  0  0  0  0  0  0  0  0  0  0  # atno 17394 bound_to 11000
  140.0336  134.6370  155.9073 LP  0  0  0  0  0  0  0  0  0  0  0  0  # atno 17395 bound_to 11000

$$$$
