AV-unprocessed.smi:283|AV-procd|sdf|2135|dock5
  -GOLD-   2262021453D 1   1.00000     0.00000
 Structure written by MMmdl.
 48 51  0  0  0  0  0  0  0  0  1 V2000
  148.1821  132.8069  158.7916 C   0  0  0  0  0  0  0  0  0  0  0  0
  147.5143  134.1876  158.7454 C   0  0  2  0  0  0  0  0  0  0  0  0
  148.2587  135.0736  157.8519 N   0  0  0  0  0  0  0  0  0  0  0  0
  148.5386  134.6996  156.5834 C   0  0  0  0  0  0  0  0  0  0  0  0
  149.7373  134.9899  156.0137 N   0  0  0  0  0  0  0  0  0  0  0  0
  149.9904  134.6067  154.7595 C   0  0  0  0  0  0  0  0  0  0  0  0
  149.1986  133.9422  153.9158 N   0  0  0  0  0  0  0  0  0  0  0  0
  147.9900  133.6516  154.4788 C   0  0  0  0  0  0  0  0  0  0  0  0
  147.5882  133.9955  155.8002 C   0  0  0  0  0  0  0  0  0  0  0  0
  146.2989  133.5381  156.0358 N   0  0  0  0  0  0  0  0  0  0  0  0
  145.9614  132.9585  154.9157 C   0  0  0  0  0  0  0  0  0  0  0  0
  146.9182  132.9770  153.9250 N   0  0  0  0  0  0  0  0  0  0  0  0
  146.8018  132.3869  152.5506 C   0  0  1  0  0  0  0  0  0  0  0  0
  145.5469  131.7916  152.3970 O   0  0  0  0  0  0  0  0  0  0  0  0
  144.8135  132.4294  151.3521 C   0  0  2  0  0  0  0  0  0  0  0  0
  143.8295  131.4502  150.6891 C   0  0  0  0  0  0  0  0  0  0  0  0
  143.0940  132.1136  149.6834 O   0  0  0  0  0  0  0  0  0  0  0  0
  145.9031  132.9991  150.4344 C   0  0  2  0  0  0  0  0  0  0  0  0
  146.4008  132.0079  149.5536 O   0  0  0  0  0  0  0  0  0  0  0  0
  146.9774  133.4246  151.4230 C   0  0  1  0  0  0  0  0  0  0  0  0
  146.7705  134.7638  151.8366 O   0  0  0  0  0  0  0  0  0  0  0  0
  147.3279  134.7402  160.1603 C   0  0  0  0  0  0  0  0  0  0  0  0
  146.6388  133.9696  161.1253 C   0  0  0  0  0  0  0  0  0  0  0  0
  146.4558  134.4539  162.4340 C   0  0  0  0  0  0  0  0  0  0  0  0
  146.9564  135.7187  162.7911 C   0  0  0  0  0  0  0  0  0  0  0  0
  147.6348  136.4985  161.8364 C   0  0  0  0  0  0  0  0  0  0  0  0
  147.8204  136.0191  160.5239 C   0  0  0  0  0  0  0  0  0  0  0  0
  148.6523  137.0263  159.3911 Cl  0  0  0  0  0  0  0  0  0  0  0  0
  147.5628  131.6060  152.5242 H   0  0  0  0  0  0  0  0  0  0  0  0
  144.2646  133.2739  151.7705 H   0  0  0  0  0  0  0  0  0  0  0  0
  145.5354  133.8311  149.8321 H   0  0  0  0  0  0  0  0  0  0  0  0
  147.9833  133.3509  151.0075 H   0  0  0  0  0  0  0  0  0  0  0  0
  147.5960  132.1091  159.3904 H   0  0  0  0  0  0  0  0  0  0  0  0
  149.1807  132.8617  159.2266 H   0  0  0  0  0  0  0  0  0  0  0  0
  148.2767  132.3822  157.7917 H   0  0  0  0  0  0  0  0  0  0  0  0
  146.5366  134.0525  158.2847 H   0  0  0  0  0  0  0  0  0  0  0  0
  148.3812  136.0209  158.1795 H   0  0  0  0  0  0  0  0  0  0  0  0
  150.9658  134.8699  154.3778 H   0  0  0  0  0  0  0  0  0  0  0  0
  144.9955  132.4939  154.7804 H   0  0  0  0  0  0  0  0  0  0  0  0
  144.3740  130.6353  150.2113 H   0  0  0  0  0  0  0  0  0  0  0  0
  143.1535  131.0071  151.4208 H   0  0  0  0  0  0  0  0  0  0  0  0
  142.2013  131.8045  149.7134 H   0  0  0  0  0  0  0  0  0  0  0  0
  147.3041  131.8377  149.7729 H   0  0  0  0  0  0  0  0  0  0  0  0
  147.5726  135.2456  151.7044 H   0  0  0  0  0  0  0  0  0  0  0  0
  146.2464  132.9973  160.8656 H   0  0  0  0  0  0  0  0  0  0  0  0
  145.9310  133.8547  163.1634 H   0  0  0  0  0  0  0  0  0  0  0  0
  146.8179  136.0914  163.7952 H   0  0  0  0  0  0  0  0  0  0  0  0
  148.0143  137.4712  162.1129 H   0  0  0  0  0  0  0  0  0  0  0  0
  1  2  1  0  0  0  0
  1 33  1  0  0  0  0
  1 34  1  0  0  0  0
  1 35  1  0  0  0  0
  2  3  1  0  0  0  0
  2 22  1  0  0  0  0
  2 36  1  0  0  0  0
  3  4  1  0  0  0  0
  3 37  1  0  0  0  0
  4  9  1  0  0  0  0
  4  5  2  0  0  0  0
  5  6  1  0  0  0  0
  6  7  2  0  0  0  0
  6 38  1  0  0  0  0
  7  8  1  0  0  0  0
  8 12  1  0  0  0  0
  8  9  2  0  0  0  0
  9 10  1  0  0  0  0
 10 11  2  0  0  0  0
 11 12  1  0  0  0  0
 11 39  1  0  0  0  0
 12 13  1  0  0  0  0
 13 29  1  0  0  0  0
 13 20  1  0  0  0  0
 13 14  1  0  0  0  0
 14 15  1  0  0  0  0
 15 30  1  0  0  0  0
 15 16  1  0  0  0  0
 15 18  1  0  0  0  0
 16 17  1  0  0  0  0
 16 40  1  0  0  0  0
 16 41  1  0  0  0  0
 17 42  1  0  0  0  0
 18 31  1  0  0  0  0
 18 19  1  0  0  0  0
 18 20  1  0  0  0  0
 19 43  1  0  0  0  0
 20 32  1  0  0  0  0
 20 21  1  0  0  0  0
 21 44  1  0  0  0  0
 22 27  1  0  0  0  0
 22 23  2  0  0  0  0
 23 24  1  0  0  0  0
 23 45  1  0  0  0  0
 24 25  2  0  0  0  0
 24 46  1  0  0  0  0
 25 26  1  0  0  0  0
 25 47  1  0  0  0  0
 26 27  2  0  0  0  0
 26 48  1  0  0  0  0
 27 28  1  0  0  0  0
M  END
> <s_m_source_file>
AV-unprocessed.smi

> <i_m_source_file_index>
283

> <i_lp_mmshare_version>
43012

> <i_f3d_flags>
0

> <s_epik_input>
Q2xjMVtjSF1bY0hdW2NIXVtjSF1jMVtDQEhdKFtDSDNdKVtOSF1jKG5bY0hdbjIpYyhjMjMpbltjSF1uM1tDQEBIXTRPW0NASF0oW0NIMl1bT0hdKVtDQEBIXShbT0hdKVtDQEhdNFtPSF0=

> <s_epik_cmdline>
J2VwaWtfcHl0aG9uJywgJy1waCcsICc3LjAnLCAnLXRuJywgJzgnLCAnLW1hJywgJzIwMCcsICctbWV0YWxfYmluZGluZycsICctaW1hZScsICc8aW5maWxlLm1hZT4nLCAnLW9tYWUnLCAnPG91dGZpbGUubWFlPic=

> <r_lp_tautomer_probability>
1

> <r_epik_Ionization_Penalty>
0.000266407

> <r_epik_Ionization_Penalty_Charging>
0

> <r_epik_Ionization_Penalty_Neutral>
0.000266407

> <r_epik_State_Penalty>
-0

> <r_epik_Charging_Adjusted_Penalty>
0

> <i_epik_Tot_Q>
0

> <i_epik_Tot_abs_Q>
0

> <r_epik_Metal_State_Penalty>
-0

> <b_epik_Metal_Only>
0

> <s_epik_Chemistry_Notes>
This compound contains an acetal/aminal-like group ( X-CH(R)-Y where X, Y are N, S, or O) that may be acid/base labile, releasing an aldehyde.

> <s_lp_Force_Field>
OPLS_2005

> <r_lp_Energy>
46.2986

> <b_lp_Chiralities_Consistent>
1

> <s_lp_Variant>
AV-unprocessed.smi:283-11

> <Gold.Version>
5.8.1

> <Gold.Id.Protein>
6NUR|6NUR_protein|mol2

> <Gold.PLP.Fitness>
55.3572

> <Gold.PLP.PLP>
-44.0662

> <Gold.PLP.part.hbond>
-4.0938

> <Gold.PLP.part.metal>
0.0000

> <Gold.PLP.part.buried>
-7.6645

> <Gold.PLP.part.nonpolar>
-33.8084

> <Gold.PLP.part.repulsive>
0.9547

> <Gold.PLP.ligand.clash>
0.0000

> <Gold.PLP.ligand.torsion>
0.3638

> <Gold.PLP.Chemscore.Hbond>
2.9913

> <Gold.PLP.Chemscore.CHOScore>
0.9992

> <Gold.PLP.Chemscore.Metal>
0.0000

> <Gold.Chemscore.Hbonds>
donor molecule, donor type, donor heavy atom, donor atom, acceptor molecule, acceptor atom, score
      L1  H    17    42       P1 10952  1.00
      L1  H    19    43       P1 10747  1.00
      L1  H    21    44       P1  7948  1.00
      L1  C    11    39       P1 10957  1.00

> <Gold.PLP.Chemscore.Internal.Correction>
0.0473

> <Gold.Rescore>
     Score         DG    S(hbond)    S(metal)    S(lipo)     H(rot)  DE(clash)    DE(int)     intcor
     12.60     -15.54       2.91        0.00      92.49       4.10       0.03       2.91       ----

> <Gold.Chemscore.Fitness>
12.6018

> <Gold.Chemscore.DG>
-15.5361

> <Gold.Chemscore.ZeroCoef>
-5.4800

> <Gold.Chemscore.Hbond>
2.9111

> <Gold.Chemscore.Metal>
0.0000

> <Gold.Chemscore.Lipo>
92.4863

> <Gold.Chemscore.Internal_Hbond>
0.0000

> <Gold.Chemscore.DEClash>
0.0259

> <Gold.Chemscore.DEInternal>
2.9084

> <Gold.Chemscore.Rot>
4.0968

> <Gold.Chemscore.Internal.Correction>
   9.000000E+99

> <Gold.Chemscore.Hbonds>
donor molecule, donor type, donor heavy atom, donor atom, acceptor molecule, acceptor atom, score
      L1  H    17    42       P1 10952  0.92
      L1  H    19    43       P1 10747  0.97
      L1  H    21    44       P1  7948  0.88

> <Gold.Chemscore.Hbond.Weighted>
-9.7231

> <Gold.Chemscore.Metal.Weighted>
-0.0000

> <Gold.Chemscore.Lipo.Weighted>
-10.8209

> <Gold.Chemscore.Internal_Hbond.Weighted>
0.0000

> <Gold.Chemscore.DEClash.Weighted>
0.0259

> <Gold.Chemscore.DEInternal.Weighted>
2.9084

> <Gold.Chemscore.Rot.Weighted>
10.4879

> <Gold.Chemscore.Internal.Correction.Weighted>
   9.000000E+99

> <Gold.Protein.RotatedTorsions>
[ 6907 6896 6895 6894 ] final   33.81 input  -60.11 | X-H torsion
[ 7974 7965 7964 7962 ] final -126.44 input  175.53 | X-H torsion
[ 8008 7997 7996 7995 ] final  101.87 input   59.86 | X-H torsion
[ 10167 10162 10161 10158 ] final  145.86 input  -65.29 | X-H torsion
[ 10718 10713 10712 10709 ] final  -63.89 input   66.30 | X-H torsion
[ 10763 10752 10751 10750 ] final -111.57 input  -60.55 | X-H torsion
[ 11005 11000 10999 10996 ] final  -98.97 input  -57.11 | X-H torsion

> <Gold.Protein.ActiveResidues>
 VAL166  LYS551  ARG553  GLY616  TRP617  ASP618  TYR619  PRO620  LYS621  CYS622 
 ASP623  PHE694  ASN695  SER759  ASP760  ASP761  ALA762  ILE779  LEU786  VAL792 
 PHE793  MET794  SER795  GLU796  ALA797  LYS798  CYS799  TRP800  GLU811  SER814 

> <Gold.Protein.RotatedAtoms>
  152.0937  134.9389  160.0571 H   0  0  0  0  0  0  0  0  0  0  0  0  # atno 6907 bound_to 6896
  152.0630  133.4066  159.4434 H   0  0  0  0  0  0  0  0  0  0  0  0  # atno 6908 bound_to 6896
  150.6837  134.3098  159.4785 H   0  0  0  0  0  0  0  0  0  0  0  0  # atno 6909 bound_to 6896
  144.9872  140.7697  143.4576 H   0  0  0  0  0  0  0  0  0  0  0  0  # atno 7974 bound_to 7965
  156.1340  140.3190  155.8392 H   0  0  0  0  0  0  0  0  0  0  0  0  # atno 8008 bound_to 7997
  155.4279  140.0517  157.3038 H   0  0  0  0  0  0  0  0  0  0  0  0  # atno 8009 bound_to 7997
  154.4922  140.2096  155.9537 H   0  0  0  0  0  0  0  0  0  0  0  0  # atno 8010 bound_to 7997
  139.4918  144.5871  151.6756 H   0  0  0  0  0  0  0  0  0  0  0  0  # atno 10167 bound_to 10162
  156.0762  130.4226  150.1342 H   0  0  0  0  0  0  0  0  0  0  0  0  # atno 10718 bound_to 10713
  154.8306  135.4522  154.1059 H   0  0  0  0  0  0  0  0  0  0  0  0  # atno 10763 bound_to 10752
  153.2335  135.6908  153.7869 H   0  0  0  0  0  0  0  0  0  0  0  0  # atno 10764 bound_to 10752
  153.7243  135.3337  155.3249 H   0  0  0  0  0  0  0  0  0  0  0  0  # atno 10765 bound_to 10752
  141.1325  133.8286  157.0910 H   0  0  0  0  0  0  0  0  0  0  0  0  # atno 11005 bound_to 11000
  145.2337  139.2103  143.5029 LP  0  0  0  0  0  0  0  0  0  0  0  0  # atno 17320 bound_to 7965
  146.3423  140.2219  142.8591 LP  0  0  0  0  0  0  0  0  0  0  0  0  # atno 17321 bound_to 7965
  140.5490  144.0457  150.6119 LP  0  0  0  0  0  0  0  0  0  0  0  0  # atno 17342 bound_to 10162
  140.3504  143.2966  152.0493 LP  0  0  0  0  0  0  0  0  0  0  0  0  # atno 17343 bound_to 10162
  156.9383  130.9736  151.3521 LP  0  0  0  0  0  0  0  0  0  0  0  0  # atno 17370 bound_to 10713
  157.5859  130.8409  149.8589 LP  0  0  0  0  0  0  0  0  0  0  0  0  # atno 17371 bound_to 10713
  140.0392  134.9863  157.0929 LP  0  0  0  0  0  0  0  0  0  0  0  0  # atno 17394 bound_to 11000
  140.4162  134.1929  155.7163 LP  0  0  0  0  0  0  0  0  0  0  0  0  # atno 17395 bound_to 11000

$$$$
