AV-unprocessed.smi:681|AV-procd|sdf|3325|dock1
  -GOLD-   22720 0293D 1   1.00000     0.00000
 Structure written by MMmdl.
 41 42  0  0  0  0  0  0  0  0  1 V2000
  154.5314  132.1812  163.6246 C   0  0  0  0  0  0  0  0  0  0  0  0
  154.7201  133.6417  163.3961 C   0  0  0  0  0  0  0  0  0  0  0  0
  154.2987  134.5919  164.2805 N   0  0  0  0  0  0  0  0  0  0  0  0
  154.6798  135.6933  163.6424 C   0  0  0  0  0  0  0  0  0  0  0  0
  154.4673  137.0800  164.1556 C   0  0  0  0  0  0  0  0  0  0  0  0
  155.2808  135.4352  162.4716 N   0  0  0  0  0  0  0  0  0  0  0  0
  155.8328  136.3261  161.4633 C   0  0  0  0  0  0  0  0  0  0  0  0
  154.7478  137.2231  160.8663 C   0  0  0  0  0  0  0  0  0  0  0  0
  153.7643  136.7205  160.3232 O   0  0  0  0  0  0  0  0  0  0  0  0
  154.9414  138.5470  160.9704 N   0  0  0  0  0  0  0  0  0  0  0  0
  154.0416  139.5685  160.4500 C   0  0  0  0  0  0  0  0  0  0  0  0
  153.7692  140.6605  161.4988 C   0  0  0  0  0  0  0  0  0  0  0  0
  153.0796  141.8808  160.9117 C   0  0  0  0  0  0  0  0  0  0  0  0
  152.5240  142.8292  161.6911 C   0  0  0  0  0  0  0  0  0  0  0  0
  151.8382  144.0761  161.1608 C   0  0  0  0  0  0  0  0  0  0  0  0
  152.1387  144.3219  159.6729 C   0  0  0  0  0  0  0  0  0  0  0  0
  152.0532  143.0191  158.8681 C   0  0  0  0  0  0  0  0  0  0  0  0
  153.0536  141.9720  159.3897 C   0  0  0  0  0  0  0  0  0  0  0  0
  155.3167  134.0925  162.2954 N   0  0  0  0  0  0  0  0  0  0  0  0
  154.0836  131.9974  164.6017 H   0  0  0  0  0  0  0  0  0  0  0  0
  155.4905  131.6645  163.5826 H   0  0  0  0  0  0  0  0  0  0  0  0
  153.8759  131.7626  162.8608 H   0  0  0  0  0  0  0  0  0  0  0  0
  154.0295  137.0541  165.1540 H   0  0  0  0  0  0  0  0  0  0  0  0
  153.7925  137.6249  163.4955 H   0  0  0  0  0  0  0  0  0  0  0  0
  155.4166  137.6130  164.2091 H   0  0  0  0  0  0  0  0  0  0  0  0
  156.6158  136.9361  161.9149 H   0  0  0  0  0  0  0  0  0  0  0  0
  156.3055  135.7364  160.6760 H   0  0  0  0  0  0  0  0  0  0  0  0
  155.7822  138.8687  161.4285 H   0  0  0  0  0  0  0  0  0  0  0  0
  154.4550  140.0065  159.5395 H   0  0  0  0  0  0  0  0  0  0  0  0
  153.1119  139.0768  160.1636 H   0  0  0  0  0  0  0  0  0  0  0  0
  153.1508  140.2619  162.3038 H   0  0  0  0  0  0  0  0  0  0  0  0
  154.7091  140.9681  161.9596 H   0  0  0  0  0  0  0  0  0  0  0  0
  152.5442  142.7214  162.7658 H   0  0  0  0  0  0  0  0  0  0  0  0
  150.7649  143.9611  161.3145 H   0  0  0  0  0  0  0  0  0  0  0  0
  152.1532  144.9379  161.7499 H   0  0  0  0  0  0  0  0  0  0  0  0
  151.4491  145.0647  159.2708 H   0  0  0  0  0  0  0  0  0  0  0  0
  153.1403  144.7412  159.5682 H   0  0  0  0  0  0  0  0  0  0  0  0
  151.0399  142.6214  158.9381 H   0  0  0  0  0  0  0  0  0  0  0  0
  152.2357  143.2134  157.8107 H   0  0  0  0  0  0  0  0  0  0  0  0
  154.0576  142.2223  159.0461 H   0  0  0  0  0  0  0  0  0  0  0  0
  152.8098  140.9958  158.9692 H   0  0  0  0  0  0  0  0  0  0  0  0
  1  2  1  0  0  0  0
  1 20  1  0  0  0  0
  1 21  1  0  0  0  0
  1 22  1  0  0  0  0
  2 19  2  0  0  0  0
  2  3  1  0  0  0  0
  3  4  2  0  0  0  0
  4  5  1  0  0  0  0
  4  6  1  0  0  0  0
  5 23  1  0  0  0  0
  5 24  1  0  0  0  0
  5 25  1  0  0  0  0
  6  7  1  0  0  0  0
  6 19  1  0  0  0  0
  7  8  1  0  0  0  0
  7 26  1  0  0  0  0
  7 27  1  0  0  0  0
  8  9  2  0  0  0  0
  8 10  1  0  0  0  0
 10 11  1  0  0  0  0
 10 28  1  0  0  0  0
 11 12  1  0  0  0  0
 11 29  1  0  0  0  0
 11 30  1  0  0  0  0
 12 13  1  0  0  0  0
 12 31  1  0  0  0  0
 12 32  1  0  0  0  0
 13 18  1  0  0  0  0
 13 14  2  0  0  0  0
 14 15  1  0  0  0  0
 14 33  1  0  0  0  0
 15 16  1  0  0  0  0
 15 34  1  0  0  0  0
 15 35  1  0  0  0  0
 16 17  1  0  0  0  0
 16 36  1  0  0  0  0
 16 37  1  0  0  0  0
 17 18  1  0  0  0  0
 17 38  1  0  0  0  0
 17 39  1  0  0  0  0
 18 40  1  0  0  0  0
 18 41  1  0  0  0  0
M  END
> <s_m_source_file>
AV-unprocessed.smi

> <i_m_source_file_index>
681

> <i_lp_mmshare_version>
43012

> <i_f3d_flags>
0

> <s_epik_input>
W0NIM11jMW5jKFtDSDNdKW4objEpW0NIMl1DKD1PKVtOSF1bQ0gyXVtDSDJdQzI9W0NIXVtDSDJdW0NIMl1bQ0gyXVtDSDJdMg==

> <s_epik_cmdline>
J2VwaWtfcHl0aG9uJywgJy1waCcsICc3LjAnLCAnLXRuJywgJzgnLCAnLW1hJywgJzIwMCcsICctbWV0YWxfYmluZGluZycsICctaW1hZScsICc8aW5maWxlLm1hZT4nLCAnLW9tYWUnLCAnPG91dGZpbGUubWFlPic=

> <r_lp_tautomer_probability>
1

> <r_epik_Ionization_Penalty>
0.000426663

> <r_epik_Ionization_Penalty_Charging>
0

> <r_epik_Ionization_Penalty_Neutral>
0.000426663

> <r_epik_State_Penalty>
0.000262586

> <r_epik_Charging_Adjusted_Penalty>
0.000262586

> <i_epik_Tot_Q>
0

> <i_epik_Tot_abs_Q>
0

> <r_epik_Metal_State_Penalty>
-0

> <b_epik_Metal_Only>
0

> <s_lp_Force_Field>
OPLS_2005

> <r_lp_Energy>
6.45034

> <b_lp_Chiralities_Consistent>
1

> <s_lp_Variant>
AV-unprocessed.smi:681-1

> <Gold.Version>
5.8.1

> <Gold.Id.Protein>
6NUR|6NUR_protein|mol2

> <Gold.PLP.Fitness>
44.6120

> <Gold.PLP.PLP>
-43.3266

> <Gold.PLP.part.hbond>
-0.4442

> <Gold.PLP.part.metal>
0.0000

> <Gold.PLP.part.buried>
-5.6513

> <Gold.PLP.part.nonpolar>
-36.8558

> <Gold.PLP.part.repulsive>
0.0928

> <Gold.PLP.ligand.clash>
0.0000

> <Gold.PLP.ligand.torsion>
0.2704

> <Gold.PLP.Chemscore.Hbond>
0.6012

> <Gold.PLP.Chemscore.CHOScore>
0.0000

> <Gold.PLP.Chemscore.Metal>
0.0000

> <Gold.Chemscore.Hbonds>
donor molecule, donor type, donor heavy atom, donor atom, acceptor molecule, acceptor atom, score
      P1  H  6896  6908       L1     9  0.11

> <Gold.PLP.Chemscore.Internal.Correction>
0.0224

> <Gold.Rescore>
     Score         DG    S(hbond)    S(metal)    S(lipo)     H(rot)  DE(clash)    DE(int)     intcor
     16.06     -16.31       1.00        0.00     105.11       1.87       0.02       0.23       ----

> <Gold.Chemscore.Fitness>
16.0606

> <Gold.Chemscore.DG>
-16.3124

> <Gold.Chemscore.ZeroCoef>
-5.4800

> <Gold.Chemscore.Hbond>
0.9983

> <Gold.Chemscore.Metal>
0.0000

> <Gold.Chemscore.Lipo>
105.1120

> <Gold.Chemscore.Internal_Hbond>
0.0000

> <Gold.Chemscore.DEClash>
0.0237

> <Gold.Chemscore.DEInternal>
0.2280

> <Gold.Chemscore.Rot>
1.8750

> <Gold.Chemscore.Internal.Correction>
   9.000000E+99

> <Gold.Chemscore.Hbonds>
donor molecule, donor type, donor heavy atom, donor atom, acceptor molecule, acceptor atom, score
      P1  H  6896  6908       L1     9  0.14

> <Gold.Chemscore.Hbond.Weighted>
-3.3342

> <Gold.Chemscore.Metal.Weighted>
-0.0000

> <Gold.Chemscore.Lipo.Weighted>
-12.2981

> <Gold.Chemscore.Internal_Hbond.Weighted>
0.0000

> <Gold.Chemscore.DEClash.Weighted>
0.0237

> <Gold.Chemscore.DEInternal.Weighted>
0.2280

> <Gold.Chemscore.Rot.Weighted>
4.7999

> <Gold.Chemscore.Internal.Correction.Weighted>
   9.000000E+99

> <Gold.Protein.RotatedTorsions>
[ 6907 6896 6895 6894 ] final  -84.44 input  -60.11 | X-H torsion
[ 7974 7965 7964 7962 ] final -144.30 input  175.53 | X-H torsion
[ 8008 7997 7996 7995 ] final  -30.82 input   59.86 | X-H torsion
[ 10167 10162 10161 10158 ] final    6.86 input  -65.29 | X-H torsion
[ 10718 10713 10712 10709 ] final   -8.31 input   66.30 | X-H torsion
[ 10763 10752 10751 10750 ] final    6.10 input  -60.55 | X-H torsion
[ 11005 11000 10999 10996 ] final -144.64 input  -57.11 | X-H torsion

> <Gold.Protein.ActiveResidues>
 VAL166  LYS551  ARG553  GLY616  TRP617  ASP618  TYR619  PRO620  LYS621  CYS622 
 ASP623  PHE694  ASN695  SER759  ASP760  ASP761  ALA762  ILE779  LEU786  VAL792 
 PHE793  MET794  SER795  GLU796  ALA797  LYS798  CYS799  TRP800  GLU811  SER814 

> <Gold.Protein.RotatedAtoms>
  150.6876  134.3357  159.4846 H   0  0  0  0  0  0  0  0  0  0  0  0  # atno 6907 bound_to 6896
  152.1217  134.9198  160.0572 H   0  0  0  0  0  0  0  0  0  0  0  0  # atno 6908 bound_to 6896
  152.0402  133.3939  159.4370 H   0  0  0  0  0  0  0  0  0  0  0  0  # atno 6909 bound_to 6896
  144.8307  140.5727  143.5517 H   0  0  0  0  0  0  0  0  0  0  0  0  # atno 7974 bound_to 7965
  154.4236  140.1781  156.1468 H   0  0  0  0  0  0  0  0  0  0  0  0  # atno 8008 bound_to 7997
  155.9947  140.3365  155.6762 H   0  0  0  0  0  0  0  0  0  0  0  0  # atno 8009 bound_to 7997
  155.6324  140.0671  157.2635 H   0  0  0  0  0  0  0  0  0  0  0  0  # atno 8010 bound_to 7997
  140.6404  143.7787  150.7420 H   0  0  0  0  0  0  0  0  0  0  0  0  # atno 10167 bound_to 10162
  156.7044  130.5103  149.5908 H   0  0  0  0  0  0  0  0  0  0  0  0  # atno 10718 bound_to 10713
  153.2516  135.6914  153.7673 H   0  0  0  0  0  0  0  0  0  0  0  0  # atno 10763 bound_to 10752
  153.6765  135.3335  155.3168 H   0  0  0  0  0  0  0  0  0  0  0  0  # atno 10764 bound_to 10752
  154.8396  135.4512  154.1475 H   0  0  0  0  0  0  0  0  0  0  0  0  # atno 10765 bound_to 10752
  140.8004  134.2864  157.4981 H   0  0  0  0  0  0  0  0  0  0  0  0  # atno 11005 bound_to 11000
  145.4902  139.1489  143.3714 LP  0  0  0  0  0  0  0  0  0  0  0  0  # atno 17320 bound_to 7965
  146.2610  140.5040  142.8853 LP  0  0  0  0  0  0  0  0  0  0  0  0  # atno 17321 bound_to 7965
  140.1417  143.4435  152.2189 LP  0  0  0  0  0  0  0  0  0  0  0  0  # atno 17342 bound_to 10162
  139.5614  144.7408  151.4146 LP  0  0  0  0  0  0  0  0  0  0  0  0  # atno 17343 bound_to 10162
  156.1705  130.6434  151.0832 LP  0  0  0  0  0  0  0  0  0  0  0  0  # atno 17370 bound_to 10713
  157.6960  131.0793  150.6966 LP  0  0  0  0  0  0  0  0  0  0  0  0  # atno 17371 bound_to 10713
  139.8722  134.9426  156.3829 LP  0  0  0  0  0  0  0  0  0  0  0  0  # atno 17394 bound_to 11000
  140.9300  133.7585  156.0013 LP  0  0  0  0  0  0  0  0  0  0  0  0  # atno 17395 bound_to 11000

$$$$
