AV-unprocessed.smi:12|AV-procd|sdf|64|dock2
  -GOLD-   2262015183D 1   1.00000     0.00000
 Structure written by MMmdl.
 41 44  0  0  0  0  0  0  0  0  1 V2000
  144.4216  138.8919  158.7522 C   0  0  0  0  0  0  0  0  0  0  0  0
  145.0889  139.3516  157.4683 C   0  0  0  0  0  0  0  0  0  0  0  0
  145.9746  140.3756  157.4535 C   0  0  0  0  0  0  0  0  0  0  0  0
  146.5518  140.7465  156.2715 N   0  0  0  0  0  0  0  0  0  0  0  0
  146.2014  140.0738  155.0788 C   0  0  0  0  0  0  0  0  0  0  0  0
  145.3623  139.0874  155.0112 N   0  0  0  0  0  0  0  0  0  0  0  0
  144.7536  138.6506  156.2033 C   0  0  0  0  0  0  0  0  0  0  0  0
  143.9601  137.7105  156.1903 O   0  0  0  0  0  0  0  0  0  0  0  0
  146.8727  140.6386  154.0362 O   0  0  0  0  0  0  0  0  0  0  0  0
  147.7145  141.6928  154.5250 C   0  0  2  0  0  0  0  0  0  0  0  0
  149.2099  141.3917  154.3895 C   0  0  2  0  0  0  0  0  0  0  0  0
  149.4604  140.0174  154.1503 O   0  0  0  0  0  0  0  0  0  0  0  0
  149.7650  141.8137  155.7581 C   0  0  2  0  0  0  0  0  0  0  0  0
  151.0842  141.1642  156.2044 C   0  0  0  0  0  0  0  0  0  0  0  0
  151.4667  141.6844  157.4677 O   0  0  0  0  0  0  0  0  0  0  0  0
  152.3183  140.9920  158.2501 C   0  0  0  0  0  0  0  0  0  0  0  0
  152.8198  139.9141  157.9248 O   0  0  0  0  0  0  0  0  0  0  0  0
  152.5890  141.6642  159.5539 C   0  0  0  0  0  0  0  0  0  0  0  0
  153.4323  141.0316  160.4972 C   0  0  0  0  0  0  0  0  0  0  0  0
  153.7018  141.6379  161.7395 C   0  0  0  0  0  0  0  0  0  0  0  0
  153.1318  142.8854  162.0536 C   0  0  0  0  0  0  0  0  0  0  0  0
  152.2928  143.5261  161.1232 C   0  0  0  0  0  0  0  0  0  0  0  0
  152.0222  142.9211  159.8801 C   0  0  0  0  0  0  0  0  0  0  0  0
  148.7132  141.5006  156.6592 O   0  0  0  0  0  0  0  0  0  0  0  0
  147.5090  141.8290  156.0447 C   0  0  2  0  0  0  0  0  0  0  0  0
  144.7497  139.4880  159.6044 H   0  0  0  0  0  0  0  0  0  0  0  0
  144.6655  137.8490  158.9567 H   0  0  0  0  0  0  0  0  0  0  0  0
  143.3378  138.9838  158.6733 H   0  0  0  0  0  0  0  0  0  0  0  0
  146.2357  140.8996  158.3613 H   0  0  0  0  0  0  0  0  0  0  0  0
  147.4562  142.6415  154.0530 H   0  0  0  0  0  0  0  0  0  0  0  0
  149.6636  141.9647  153.5804 H   0  0  0  0  0  0  0  0  0  0  0  0
  149.6584  139.9023  153.2336 H   0  0  0  0  0  0  0  0  0  0  0  0
  149.8829  142.8992  155.7707 H   0  0  0  0  0  0  0  0  0  0  0  0
  150.9475  140.0854  156.2907 H   0  0  0  0  0  0  0  0  0  0  0  0
  151.8713  141.3304  155.4676 H   0  0  0  0  0  0  0  0  0  0  0  0
  153.8807  140.0729  160.2792 H   0  0  0  0  0  0  0  0  0  0  0  0
  154.3462  141.1441  162.4518 H   0  0  0  0  0  0  0  0  0  0  0  0
  153.3378  143.3496  163.0069 H   0  0  0  0  0  0  0  0  0  0  0  0
  151.8547  144.4838  161.3632 H   0  0  0  0  0  0  0  0  0  0  0  0
  151.3735  143.4397  159.1894 H   0  0  0  0  0  0  0  0  0  0  0  0
  147.0348  142.7502  156.3851 H   0  0  0  0  0  0  0  0  0  0  0  0
  1  2  1  0  0  0  0
  1 26  1  0  0  0  0
  1 27  1  0  0  0  0
  1 28  1  0  0  0  0
  2  7  1  0  0  0  0
  2  3  2  0  0  0  0
  3  4  1  0  0  0  0
  3 29  1  0  0  0  0
  4 25  1  0  0  0  0
  4  5  1  0  0  0  0
  5  6  2  0  0  0  0
  5  9  1  0  0  0  0
  6  7  1  0  0  0  0
  7  8  2  0  0  0  0
  9 10  1  0  0  0  0
 10 25  1  0  0  0  0
 10 11  1  0  0  0  0
 10 30  1  0  0  0  0
 11 12  1  0  0  0  0
 11 13  1  0  0  0  0
 11 31  1  0  0  0  0
 12 32  1  0  0  0  0
 13 14  1  0  0  0  0
 13 24  1  0  0  0  0
 13 33  1  0  0  0  0
 14 15  1  0  0  0  0
 14 34  1  0  0  0  0
 14 35  1  0  0  0  0
 15 16  1  0  0  0  0
 16 17  2  0  0  0  0
 16 18  1  0  0  0  0
 18 23  1  0  0  0  0
 18 19  2  0  0  0  0
 19 20  1  0  0  0  0
 19 36  1  0  0  0  0
 20 21  2  0  0  0  0
 20 37  1  0  0  0  0
 21 22  1  0  0  0  0
 21 38  1  0  0  0  0
 22 23  2  0  0  0  0
 22 39  1  0  0  0  0
 23 40  1  0  0  0  0
 24 25  1  0  0  0  0
 25 41  1  0  0  0  0
M  END
> <s_m_source_file>
AV-unprocessed.smi

> <i_m_source_file_index>
12

> <i_lp_mmshare_version>
43012

> <i_f3d_flags>
0

> <s_epik_input>
W0NIM11jKFtjSF0xKWMoPU8pbmMobjEyKU9bQ0BIXTNbQ0BASF0yT1tDQEBIXShbQ0BASF0zW09IXSlbQ0gyXU9DKD1PKWM0W2NIXVtjSF1bY0hdW2NIXVtjSF00

> <s_epik_cmdline>
J2VwaWtfcHl0aG9uJywgJy1waCcsICc3LjAnLCAnLXRuJywgJzgnLCAnLW1hJywgJzIwMCcsICctbWV0YWxfYmluZGluZycsICctaW1hZScsICc8aW5maWxlLm1hZT4nLCAnLW9tYWUnLCAnPG91dGZpbGUubWFlPic=

> <r_lp_tautomer_probability>
0.933681

> <r_epik_Ionization_Penalty>
0.00399549

> <r_epik_Ionization_Penalty_Charging>
3.09373e-09

> <r_epik_Ionization_Penalty_Neutral>
0.00399549

> <r_epik_State_Penalty>
0.00284953

> <r_epik_Charging_Adjusted_Penalty>
0.00284953

> <i_epik_Tot_Q>
0

> <i_epik_Tot_abs_Q>
0

> <r_epik_Metal_State_Penalty>
-0

> <b_epik_Metal_Only>
0

> <s_epik_Chemistry_Notes>
This compound has an ester and may undergo hydrolysis at high or low pH. This compound contains an acetal/aminal-like group ( X-CH(R)-Y where X, Y are N, S, or O) that may be acid/base labile, releasing an aldehyde.

> <s_lp_Force_Field>
OPLS_2005

> <r_lp_Energy>
52.4355

> <b_lp_Chiralities_Consistent>
1

> <s_lp_Variant>
AV-unprocessed.smi:12-4

> <Gold.Version>
5.8.1

> <Gold.Id.Protein>
6NUR|6NUR_protein|mol2

> <Gold.PLP.Fitness>
44.2777

> <Gold.PLP.PLP>
-38.4918

> <Gold.PLP.part.hbond>
-2.3851

> <Gold.PLP.part.metal>
0.0000

> <Gold.PLP.part.buried>
-3.0719

> <Gold.PLP.part.nonpolar>
-31.8596

> <Gold.PLP.part.repulsive>
0.3588

> <Gold.PLP.ligand.clash>
0.0000

> <Gold.PLP.ligand.torsion>
0.1105

> <Gold.PLP.Chemscore.Hbond>
2.0000

> <Gold.PLP.Chemscore.CHOScore>
0.0000

> <Gold.PLP.Chemscore.Metal>
0.0000

> <Gold.Chemscore.Hbonds>
donor molecule, donor type, donor heavy atom, donor atom, acceptor molecule, acceptor atom, score
      L1  H    12    32       P1  7957  0.88
      P1  H  7997  8010       L1    17  1.00

> <Gold.PLP.Chemscore.Internal.Correction>
0.0069

> <Gold.Rescore>
     Score         DG    S(hbond)    S(metal)    S(lipo)     H(rot)  DE(clash)    DE(int)     intcor
     16.52     -17.34       1.96        0.00      93.23       2.18       0.69       0.14       ----

> <Gold.Chemscore.Fitness>
16.5206

> <Gold.Chemscore.DG>
-17.3424

> <Gold.Chemscore.ZeroCoef>
-5.4800

> <Gold.Chemscore.Hbond>
1.9566

> <Gold.Chemscore.Metal>
0.0000

> <Gold.Chemscore.Lipo>
93.2312

> <Gold.Chemscore.Internal_Hbond>
0.0000

> <Gold.Chemscore.DEClash>
0.6854

> <Gold.Chemscore.DEInternal>
0.1364

> <Gold.Chemscore.Rot>
2.1800

> <Gold.Chemscore.Internal.Correction>
   9.000000E+99

> <Gold.Chemscore.Hbonds>
donor molecule, donor type, donor heavy atom, donor atom, acceptor molecule, acceptor atom, score
      L1  H    12    32       P1  7957  0.85
      P1  H  7997  8010       L1    17  0.86

> <Gold.Chemscore.Hbond.Weighted>
-6.5351

> <Gold.Chemscore.Metal.Weighted>
-0.0000

> <Gold.Chemscore.Lipo.Weighted>
-10.9081

> <Gold.Chemscore.Internal_Hbond.Weighted>
0.0000

> <Gold.Chemscore.DEClash.Weighted>
0.6854

> <Gold.Chemscore.DEInternal.Weighted>
0.1364

> <Gold.Chemscore.Rot.Weighted>
5.5807

> <Gold.Chemscore.Internal.Correction.Weighted>
   9.000000E+99

> <Gold.Protein.RotatedTorsions>
[ 6907 6896 6895 6894 ] final -138.82 input  -60.11 | X-H torsion
[ 7974 7965 7964 7962 ] final  -62.67 input  175.53 | X-H torsion
[ 8008 7997 7996 7995 ] final   47.70 input   59.86 | X-H torsion
[ 10167 10162 10161 10158 ] final -167.22 input  -65.29 | X-H torsion
[ 10718 10713 10712 10709 ] final  163.86 input   66.30 | X-H torsion
[ 10763 10752 10751 10750 ] final -155.96 input  -60.55 | X-H torsion
[ 11005 11000 10999 10996 ] final  -23.60 input  -57.11 | X-H torsion

> <Gold.Protein.ActiveResidues>
 VAL166  LYS551  ARG553  GLY616  TRP617  ASP618  TYR619  PRO620  LYS621  CYS622 
 ASP623  PHE694  ASN695  SER759  ASP760  ASP761  ALA762  ILE779  LEU786  VAL792 
 PHE793  MET794  SER795  GLU796  ALA797  LYS798  CYS799  TRP800  GLU811  SER814 

> <Gold.Protein.RotatedAtoms>
  151.0399  133.5716  159.2651 H   0  0  0  0  0  0  0  0  0  0  0  0  # atno 6907 bound_to 6896
  151.2766  135.0700  159.9164 H   0  0  0  0  0  0  0  0  0  0  0  0  # atno 6908 bound_to 6896
  152.5362  134.0120  159.7996 H   0  0  0  0  0  0  0  0  0  0  0  0  # atno 6909 bound_to 6896
  145.7885  140.8723  143.0293 H   0  0  0  0  0  0  0  0  0  0  0  0  # atno 7974 bound_to 7965
  155.3734  140.3425  155.4244 H   0  0  0  0  0  0  0  0  0  0  0  0  # atno 8008 bound_to 7997
  156.1650  140.1613  156.8581 H   0  0  0  0  0  0  0  0  0  0  0  0  # atno 8009 bound_to 7997
  154.5176  140.0774  156.8093 H   0  0  0  0  0  0  0  0  0  0  0  0  # atno 8010 bound_to 7997
  139.6064  144.0905  152.1797 H   0  0  0  0  0  0  0  0  0  0  0  0  # atno 10167 bound_to 10162
  157.1025  131.0447  151.2492 H   0  0  0  0  0  0  0  0  0  0  0  0  # atno 10718 bound_to 10713
  154.7748  135.3156  154.8115 H   0  0  0  0  0  0  0  0  0  0  0  0  # atno 10763 bound_to 10752
  153.8841  135.6832  153.4769 H   0  0  0  0  0  0  0  0  0  0  0  0  # atno 10764 bound_to 10752
  153.1369  135.4756  154.9372 H   0  0  0  0  0  0  0  0  0  0  0  0  # atno 10765 bound_to 10752
  140.8767  133.7682  156.0252 H   0  0  0  0  0  0  0  0  0  0  0  0  # atno 11005 bound_to 11000
  144.6785  140.0089  143.7484 LP  0  0  0  0  0  0  0  0  0  0  0  0  # atno 17320 bound_to 7965
  146.0001  139.3084  143.0933 LP  0  0  0  0  0  0  0  0  0  0  0  0  # atno 17321 bound_to 7965
  140.0513  144.5930  150.7334 LP  0  0  0  0  0  0  0  0  0  0  0  0  # atno 17342 bound_to 10162
  140.7287  143.2665  151.4028 LP  0  0  0  0  0  0  0  0  0  0  0  0  # atno 17343 bound_to 10162
  157.4628  130.7663  149.7252 LP  0  0  0  0  0  0  0  0  0  0  0  0  # atno 17370 bound_to 10713
  155.9870  130.3970  150.3186 LP  0  0  0  0  0  0  0  0  0  0  0  0  # atno 17371 bound_to 10713
  140.8510  134.2954  157.5275 LP  0  0  0  0  0  0  0  0  0  0  0  0  # atno 17394 bound_to 11000
  139.8716  134.9467  156.3947 LP  0  0  0  0  0  0  0  0  0  0  0  0  # atno 17395 bound_to 11000

$$$$
