AV-unprocessed.smi:3292|AV-procd|sdf|12626|dock1
  -GOLD-   2272018563D 1   1.00000     0.00000
 Structure written by MMmdl.
 38 39  0  0  0  0  0  0  0  0  1 V2000
  144.6664  135.6671  150.6720 C   0  0  0  0  0  0  0  0  0  0  0  0
  145.0076  135.2452  152.1109 C   0  0  1  0  0  0  0  0  0  0  0  0
  145.1523  133.7164  152.2775 C   0  0  0  0  0  0  0  0  0  0  0  0
  144.9705  132.9972  151.0309 N   0  0  0  0  0  0  0  0  0  0  0  0
  145.9560  132.3821  150.2701 C   0  0  0  0  0  0  0  0  0  0  0  0
  145.3235  131.8323  149.1781 C   0  0  0  0  0  0  0  0  0  0  0  0
  143.9581  132.0998  149.2430 N   0  0  0  0  0  0  0  0  0  0  0  0
  143.8251  132.7960  150.3648 C   0  0  0  0  0  0  0  0  0  0  0  0
  146.2351  135.9175  152.5278 N   0  0  0  0  0  0  0  0  0  0  0  0
  146.3149  136.8663  153.4714 C   0  0  0  0  0  0  0  0  0  0  0  0
  145.3514  137.2801  154.1167 O   0  0  0  0  0  0  0  0  0  0  0  0
  147.5700  137.3118  153.6235 N   0  0  0  0  0  0  0  0  0  0  0  0
  147.9909  138.3485  154.5608 C   0  0  0  0  0  0  0  0  0  0  0  0
  149.4199  138.8425  154.2667 C   0  0  2  0  0  0  0  0  0  0  0  0
  150.5040  137.8950  154.7377 C   0  0  0  0  0  0  0  0  0  0  0  0
  151.7343  138.7983  154.7551 C   0  0  0  0  0  0  0  0  0  0  0  0
  151.2529  140.1134  155.0188 O   0  0  0  0  0  0  0  0  0  0  0  0
  149.8294  140.1261  154.9909 C   0  0  0  0  0  0  0  0  0  0  0  0
  143.7060  135.2616  150.3531 H   0  0  0  0  0  0  0  0  0  0  0  0
  145.4239  135.3223  149.9677 H   0  0  0  0  0  0  0  0  0  0  0  0
  144.6016  136.7523  150.5873 H   0  0  0  0  0  0  0  0  0  0  0  0
  144.1927  135.5888  152.7512 H   0  0  0  0  0  0  0  0  0  0  0  0
  146.1361  133.4708  152.6803 H   0  0  0  0  0  0  0  0  0  0  0  0
  144.4199  133.3378  152.9914 H   0  0  0  0  0  0  0  0  0  0  0  0
  146.9958  132.3854  150.5625 H   0  0  0  0  0  0  0  0  0  0  0  0
  145.7429  131.2708  148.3563 H   0  0  0  0  0  0  0  0  0  0  0  0
  142.8708  133.1642  150.7120 H   0  0  0  0  0  0  0  0  0  0  0  0
  147.0843  135.6465  152.0540 H   0  0  0  0  0  0  0  0  0  0  0  0
  148.2903  136.9066  153.0437 H   0  0  0  0  0  0  0  0  0  0  0  0
  147.2864  139.1822  154.5613 H   0  0  0  0  0  0  0  0  0  0  0  0
  147.9549  137.9205  155.5628 H   0  0  0  0  0  0  0  0  0  0  0  0
  149.5374  138.9935  153.1921 H   0  0  0  0  0  0  0  0  0  0  0  0
  150.2877  137.5410  155.7468 H   0  0  0  0  0  0  0  0  0  0  0  0
  150.6260  137.0263  154.0905 H   0  0  0  0  0  0  0  0  0  0  0  0
  152.4674  138.4854  155.4988 H   0  0  0  0  0  0  0  0  0  0  0  0
  152.2209  138.7982  153.7792 H   0  0  0  0  0  0  0  0  0  0  0  0
  149.4501  141.0237  154.5022 H   0  0  0  0  0  0  0  0  0  0  0  0
  149.4662  140.1217  156.0195 H   0  0  0  0  0  0  0  0  0  0  0  0
  1  2  1  0  0  0  0
  1 19  1  0  0  0  0
  1 20  1  0  0  0  0
  1 21  1  0  0  0  0
  2  3  1  0  0  0  0
  2  9  1  0  0  0  0
  2 22  1  0  0  0  0
  3  4  1  0  0  0  0
  3 23  1  0  0  0  0
  3 24  1  0  0  0  0
  4  8  1  0  0  0  0
  4  5  1  0  0  0  0
  5  6  2  0  0  0  0
  5 25  1  0  0  0  0
  6  7  1  0  0  0  0
  6 26  1  0  0  0  0
  7  8  2  0  0  0  0
  8 27  1  0  0  0  0
  9 10  1  0  0  0  0
  9 28  1  0  0  0  0
 10 11  2  0  0  0  0
 10 12  1  0  0  0  0
 12 13  1  0  0  0  0
 12 29  1  0  0  0  0
 13 14  1  0  0  0  0
 13 30  1  0  0  0  0
 13 31  1  0  0  0  0
 14 18  1  0  0  0  0
 14 15  1  0  0  0  0
 14 32  1  0  0  0  0
 15 16  1  0  0  0  0
 15 33  1  0  0  0  0
 15 34  1  0  0  0  0
 16 17  1  0  0  0  0
 16 35  1  0  0  0  0
 16 36  1  0  0  0  0
 17 18  1  0  0  0  0
 18 37  1  0  0  0  0
 18 38  1  0  0  0  0
M  END
> <s_m_source_file>
AV-unprocessed.smi

> <i_m_source_file_index>
3292

> <i_lp_mmshare_version>
43012

> <i_f3d_flags>
0

> <s_epik_input>
W2NIXTFuW2NIXVtjSF1uMVtDSDJdW0NAQEhdKFtDSDNdKVtOSF1DKD1PKVtOSF1bQ0gyXVtDQEBIXTJbQ0gyXVtDSDJdT1tDSDJdMg==

> <s_epik_cmdline>
J2VwaWtfcHl0aG9uJywgJy1waCcsICc3LjAnLCAnLXRuJywgJzgnLCAnLW1hJywgJzIwMCcsICctbWV0YWxfYmluZGluZycsICctaW1hZScsICc8aW5maWxlLm1hZT4nLCAnLW9tYWUnLCAnPG91dGZpbGUubWFlPic=

> <r_lp_tautomer_probability>
1

> <r_epik_Ionization_Penalty>
0.621291

> <r_epik_Ionization_Penalty_Charging>
0.621234

> <r_epik_Ionization_Penalty_Neutral>
5.72199e-05

> <r_epik_State_Penalty>
0.637278

> <r_epik_Charging_Adjusted_Penalty>
1.25851

> <i_epik_Tot_Q>
0

> <i_epik_Tot_abs_Q>
0

> <r_epik_Metal_State_Penalty>
0.306757

> <b_epik_Metal_Only>
0

> <s_lp_Force_Field>
OPLS_2005

> <r_lp_Energy>
18.3972

> <b_lp_Chiralities_Consistent>
1

> <s_lp_Variant>
AV-unprocessed.smi:3292-6

> <Gold.Version>
5.8.1

> <Gold.Id.Protein>
6NUR|6NUR_protein|mol2

> <Gold.PLP.Fitness>
45.5928

> <Gold.PLP.PLP>
-31.8302

> <Gold.PLP.part.hbond>
-3.8476

> <Gold.PLP.part.metal>
0.0000

> <Gold.PLP.part.buried>
-5.1375

> <Gold.PLP.part.nonpolar>
-25.4795

> <Gold.PLP.part.repulsive>
0.3949

> <Gold.PLP.ligand.clash>
0.0000

> <Gold.PLP.ligand.torsion>
1.1157

> <Gold.PLP.Chemscore.Hbond>
3.2899

> <Gold.PLP.Chemscore.CHOScore>
2.0000

> <Gold.PLP.Chemscore.Metal>
0.0000

> <Gold.Chemscore.Hbonds>
donor molecule, donor type, donor heavy atom, donor atom, acceptor molecule, acceptor atom, score
      L1  H     9    28       P1  7948  0.83
      L1  H    12    29       P1  7948  0.96
      P1  H  7989  7998       L1    17  1.00
      P1  H 10785 10796       L1     7  0.49
      L1  C     5    25       P1 10747  1.00
      L1  C     8    27       P1 10186  1.00

> <Gold.PLP.Chemscore.Internal.Correction>
0.1242

> <Gold.Rescore>
     Score         DG    S(hbond)    S(metal)    S(lipo)     H(rot)  DE(clash)    DE(int)     intcor
     13.02     -15.13       2.17        0.00      67.80       2.16       0.02       2.09       ----

> <Gold.Chemscore.Fitness>
13.0189

> <Gold.Chemscore.DG>
-15.1316

> <Gold.Chemscore.ZeroCoef>
-5.4800

> <Gold.Chemscore.Hbond>
2.1685

> <Gold.Chemscore.Metal>
0.0000

> <Gold.Chemscore.Lipo>
67.7986

> <Gold.Chemscore.Internal_Hbond>
0.0000

> <Gold.Chemscore.DEClash>
0.0224

> <Gold.Chemscore.DEInternal>
2.0904

> <Gold.Chemscore.Rot>
2.1577

> <Gold.Chemscore.Internal.Correction>
   9.000000E+99

> <Gold.Chemscore.Hbonds>
donor molecule, donor type, donor heavy atom, donor atom, acceptor molecule, acceptor atom, score
      L1  H     9    28       P1  7948  0.81
      L1  H    12    29       P1  7948  0.90
      P1  H  7989  7998       L1    17  0.09
      P1  H 10785 10796       L1     7  0.11

> <Gold.Chemscore.Hbond.Weighted>
-7.2429

> <Gold.Chemscore.Metal.Weighted>
-0.0000

> <Gold.Chemscore.Lipo.Weighted>
-7.9324

> <Gold.Chemscore.Internal_Hbond.Weighted>
0.0000

> <Gold.Chemscore.DEClash.Weighted>
0.0224

> <Gold.Chemscore.DEInternal.Weighted>
2.0904

> <Gold.Chemscore.Rot.Weighted>
5.5237

> <Gold.Chemscore.Internal.Correction.Weighted>
   9.000000E+99

> <Gold.Protein.RotatedTorsions>
[ 6907 6896 6895 6894 ] final   85.50 input  -60.11 | X-H torsion
[ 7974 7965 7964 7962 ] final   88.76 input  175.53 | X-H torsion
[ 8008 7997 7996 7995 ] final  -52.23 input   59.86 | X-H torsion
[ 10167 10162 10161 10158 ] final   67.18 input  -65.29 | X-H torsion
[ 10718 10713 10712 10709 ] final   24.17 input   66.30 | X-H torsion
[ 10763 10752 10751 10750 ] final   96.58 input  -60.55 | X-H torsion
[ 11005 11000 10999 10996 ] final  162.80 input  -57.11 | X-H torsion

> <Gold.Protein.ActiveResidues>
 VAL166  LYS551  ARG553  GLY616  TRP617  ASP618  TYR619  PRO620  LYS621  CYS622 
 ASP623  PHE694  ASN695  SER759  ASP760  ASP761  ALA762  ILE779  LEU786  VAL792 
 PHE793  MET794  SER795  GLU796  ALA797  LYS798  CYS799  TRP800  GLU811  SER814 

> <Gold.Protein.RotatedAtoms>
  152.5376  134.2576  159.8922 H   0  0  0  0  0  0  0  0  0  0  0  0  # atno 6907 bound_to 6896
  151.2537  133.4330  159.2620 H   0  0  0  0  0  0  0  0  0  0  0  0  # atno 6908 bound_to 6896
  151.0516  134.9691  159.8270 H   0  0  0  0  0  0  0  0  0  0  0  0  # atno 6909 bound_to 6896
  145.5413  139.2289  143.2564 H   0  0  0  0  0  0  0  0  0  0  0  0  # atno 7974 bound_to 7965
  154.4101  140.1229  156.4957 H   0  0  0  0  0  0  0  0  0  0  0  0  # atno 8008 bound_to 7997
  155.6945  140.3495  155.4888 H   0  0  0  0  0  0  0  0  0  0  0  0  # atno 8009 bound_to 7997
  155.9439  140.1092  157.1023 H   0  0  0  0  0  0  0  0  0  0  0  0  # atno 8010 bound_to 7997
  140.0924  144.4976  150.7090 H   0  0  0  0  0  0  0  0  0  0  0  0  # atno 10167 bound_to 10162
  157.1761  130.6781  149.6095 H   0  0  0  0  0  0  0  0  0  0  0  0  # atno 10718 bound_to 10713
  153.2666  135.4213  155.0947 H   0  0  0  0  0  0  0  0  0  0  0  0  # atno 10763 bound_to 10752
  154.8440  135.3462  154.6302 H   0  0  0  0  0  0  0  0  0  0  0  0  # atno 10764 bound_to 10752
  153.6722  135.7043  153.5201 H   0  0  0  0  0  0  0  0  0  0  0  0  # atno 10765 bound_to 10752
  140.2294  134.8135  157.3301 H   0  0  0  0  0  0  0  0  0  0  0  0  # atno 11005 bound_to 11000
  146.1979  140.6233  142.9116 LP  0  0  0  0  0  0  0  0  0  0  0  0  # atno 17320 bound_to 7965
  144.7575  140.5343  143.6758 LP  0  0  0  0  0  0  0  0  0  0  0  0  # atno 17321 bound_to 7965
  140.7021  143.2442  151.4833 LP  0  0  0  0  0  0  0  0  0  0  0  0  # atno 17342 bound_to 10162
  139.5717  144.1913  152.1846 LP  0  0  0  0  0  0  0  0  0  0  0  0  # atno 17343 bound_to 10162
  155.9731  130.4662  150.6282 LP  0  0  0  0  0  0  0  0  0  0  0  0  # atno 17370 bound_to 10713
  157.3997  131.0808  151.1319 LP  0  0  0  0  0  0  0  0  0  0  0  0  # atno 17371 bound_to 10713
  140.1766  134.4541  155.7798 LP  0  0  0  0  0  0  0  0  0  0  0  0  # atno 17394 bound_to 11000
  141.2218  133.6965  156.7798 LP  0  0  0  0  0  0  0  0  0  0  0  0  # atno 17395 bound_to 11000

$$$$
