AV-unprocessed.smi:1444|AV-procd|sdf|5884|dock2
  -GOLD-   22720 5563D 1   1.00000     0.00000
 Structure written by MMmdl.
 44 45  0  0  0  0  0  0  0  0  2 V2000
  151.7365  138.3407  154.4184 C   0  0  0  0  0  0  0  0  0  0  0  0
  150.3491  138.2393  154.1170 O   0  0  0  0  0  0  0  0  0  0  0  0
  149.5646  139.3723  154.2235 C   0  0  0  0  0  0  0  0  0  0  0  0
  150.1328  140.5054  154.7066 N   0  0  0  0  0  0  0  0  0  0  0  0
  149.3704  141.6123  154.8118 C   0  0  0  0  0  0  0  0  0  0  0  0
  148.0127  141.6484  154.4461 C   0  0  0  0  0  0  0  0  0  0  0  0
  147.4204  140.4746  153.9444 C   0  0  0  0  0  0  0  0  0  0  0  0
  148.2081  139.3023  153.8260 C   0  0  0  0  0  0  0  0  0  0  0  0
  147.7325  138.0530  153.3342 N   0  0  0  0  0  0  0  0  0  0  0  0
  146.5256  137.4767  153.4630 C   0  0  0  0  0  0  0  0  0  0  0  0
  145.5687  137.9392  154.0821 O   0  0  0  0  0  0  0  0  0  0  0  0
  146.4904  136.2952  152.8291 N   0  0  0  0  0  0  0  0  0  0  0  0
  145.3326  135.4069  152.7198 C   0  0  1  0  0  0  0  0  0  0  0  0
  144.1551  136.1959  152.1313 C   0  0  0  0  0  0  0  0  0  0  0  0
  145.6539  134.1610  151.8624 C   0  0  0  0  0  0  0  0  0  0  0  0
  146.3812  133.1067  152.6135 N   0  3  0  0  0  0  0  0  0  0  0  0
  146.0420  131.7298  152.1786 C   0  0  0  0  0  0  0  0  0  0  0  0
  146.7780  130.6999  153.0514 C   0  0  0  0  0  0  0  0  0  0  0  0
  148.1798  130.9323  152.9827 O   0  0  0  0  0  0  0  0  0  0  0  0
  148.5308  132.2219  153.4696 C   0  0  0  0  0  0  0  0  0  0  0  0
  147.8497  133.3022  152.6122 C   0  0  0  0  0  0  0  0  0  0  0  0
  152.2062  137.3664  154.2852 H   0  0  0  0  0  0  0  0  0  0  0  0
  151.8993  138.6472  155.4527 H   0  0  0  0  0  0  0  0  0  0  0  0
  152.2393  139.0436  153.7527 H   0  0  0  0  0  0  0  0  0  0  0  0
  149.8571  142.4953  155.1994 H   0  0  0  0  0  0  0  0  0  0  0  0
  147.4387  142.5577  154.5474 H   0  0  0  0  0  0  0  0  0  0  0  0
  146.3800  140.5098  153.6662 H   0  0  0  0  0  0  0  0  0  0  0  0
  148.4083  137.5324  152.7937 H   0  0  0  0  0  0  0  0  0  0  0  0
  147.3286  135.9977  152.3508 H   0  0  0  0  0  0  0  0  0  0  0  0
  145.0300  135.0906  153.7188 H   0  0  0  0  0  0  0  0  0  0  0  0
  143.2600  135.5765  152.0686 H   0  0  0  0  0  0  0  0  0  0  0  0
  144.3790  136.5581  151.1272 H   0  0  0  0  0  0  0  0  0  0  0  0
  143.9119  137.0601  152.7505 H   0  0  0  0  0  0  0  0  0  0  0  0
  144.7422  133.7400  151.4355 H   0  0  0  0  0  0  0  0  0  0  0  0
  146.2632  134.4815  151.0158 H   0  0  0  0  0  0  0  0  0  0  0  0
  144.9679  131.5611  152.2501 H   0  0  0  0  0  0  0  0  0  0  0  0
  146.3175  131.5960  151.1314 H   0  0  0  0  0  0  0  0  0  0  0  0
  146.4368  130.7520  154.0868 H   0  0  0  0  0  0  0  0  0  0  0  0
  146.5696  129.6899  152.6976 H   0  0  0  0  0  0  0  0  0  0  0  0
  148.2435  132.3183  154.5178 H   0  0  0  0  0  0  0  0  0  0  0  0
  149.6144  132.3340  153.4246 H   0  0  0  0  0  0  0  0  0  0  0  0
  148.2248  133.2625  151.5883 H   0  0  0  0  0  0  0  0  0  0  0  0
  148.0936  134.2892  153.0071 H   0  0  0  0  0  0  0  0  0  0  0  0
  146.0867  133.1900  153.5764 H   0  0  0  0  0  0  0  0  0  0  0  0
  1  2  1  0  0  0  0
  1 22  1  0  0  0  0
  1 23  1  0  0  0  0
  1 24  1  0  0  0  0
  2  3  1  0  0  0  0
  3  8  1  0  0  0  0
  3  4  2  0  0  0  0
  4  5  1  0  0  0  0
  5  6  2  0  0  0  0
  5 25  1  0  0  0  0
  6  7  1  0  0  0  0
  6 26  1  0  0  0  0
  7  8  2  0  0  0  0
  7 27  1  0  0  0  0
  8  9  1  0  0  0  0
  9 10  1  0  0  0  0
  9 28  1  0  0  0  0
 10 11  2  0  0  0  0
 10 12  1  0  0  0  0
 12 13  1  0  0  0  0
 12 29  1  0  0  0  0
 13 14  1  0  0  0  0
 13 15  1  0  0  0  0
 13 30  1  0  0  0  0
 14 31  1  0  0  0  0
 14 32  1  0  0  0  0
 14 33  1  0  0  0  0
 15 16  1  0  0  0  0
 15 34  1  0  0  0  0
 15 35  1  0  0  0  0
 16 21  1  0  0  0  0
 16 17  1  0  0  0  0
 16 44  1  0  0  0  0
 17 18  1  0  0  0  0
 17 36  1  0  0  0  0
 17 37  1  0  0  0  0
 18 19  1  0  0  0  0
 18 38  1  0  0  0  0
 18 39  1  0  0  0  0
 19 20  1  0  0  0  0
 20 21  1  0  0  0  0
 20 40  1  0  0  0  0
 20 41  1  0  0  0  0
 21 42  1  0  0  0  0
 21 43  1  0  0  0  0
M  CHG  1  16   1
M  END
> <s_m_source_file>
AV-unprocessed.smi

> <i_m_source_file_index>
1444

> <i_lp_mmshare_version>
43012

> <i_f3d_flags>
0

> <s_epik_input>
W0NIM11PYzFuW2NIXVtjSF1bY0hdYzFbTkhdQyg9TylbTkhdW0NASF0oW0NIM10pW0NIMl1OMltDSDJdW0NIMl1PW0NIMl1bQ0gyXTI=

> <s_epik_cmdline>
J2VwaWtfcHl0aG9uJywgJy1waCcsICc3LjAnLCAnLXRuJywgJzgnLCAnLW1hJywgJzIwMCcsICctbWV0YWxfYmluZGluZycsICctaW1hZScsICc8aW5maWxlLm1hZT4nLCAnLW9tYWUnLCAnPG91dGZpbGUubWFlPic=

> <r_lp_tautomer_probability>
1

> <r_epik_Ionization_Penalty>
0.602604

> <r_epik_Ionization_Penalty_Charging>
0.602531

> <r_epik_Ionization_Penalty_Neutral>
7.37688e-05

> <r_epik_State_Penalty>
0.617039

> <r_epik_Charging_Adjusted_Penalty>
1.21957

> <i_epik_Tot_Q>
1

> <i_epik_Tot_abs_Q>
1

> <r_epik_Metal_State_Penalty>
0.617045

> <b_epik_Metal_Only>
0

> <s_lp_Force_Field>
OPLS_2005

> <r_lp_Energy>
24.8141

> <b_lp_Chiralities_Consistent>
1

> <s_lp_Variant>
AV-unprocessed.smi:1444-4

> <Gold.Version>
5.8.1

> <Gold.Id.Protein>
6NUR|6NUR_protein|mol2

> <Gold.PLP.Fitness>
43.0199

> <Gold.PLP.PLP>
-32.9273

> <Gold.PLP.part.hbond>
-3.0000

> <Gold.PLP.part.metal>
0.0000

> <Gold.PLP.part.buried>
-1.0594

> <Gold.PLP.part.nonpolar>
-28.1848

> <Gold.PLP.part.repulsive>
1.1509

> <Gold.PLP.ligand.clash>
0.0000

> <Gold.PLP.ligand.torsion>
0.8673

> <Gold.PLP.Chemscore.Hbond>
2.8960

> <Gold.PLP.Chemscore.CHOScore>
1.0000

> <Gold.PLP.Chemscore.Metal>
0.0000

> <Gold.Chemscore.Hbonds>
donor molecule, donor type, donor heavy atom, donor atom, acceptor molecule, acceptor atom, score
      L1  H     9    28       P1  7948  1.00
      L1  H    12    29       P1  7948  1.00
      P1  H  7989  7998       L1     4  0.93
      L1  C     5    25       P1  8028  0.97

> <Gold.PLP.Chemscore.Internal.Correction>
0.1392

> <Gold.Rescore>
     Score         DG    S(hbond)    S(metal)    S(lipo)     H(rot)  DE(clash)    DE(int)     intcor
     15.52     -16.57       2.34        0.00      66.97       1.78       0.20       0.85       ----

> <Gold.Chemscore.Fitness>
15.5220

> <Gold.Chemscore.DG>
-16.5670

> <Gold.Chemscore.ZeroCoef>
-5.4800

> <Gold.Chemscore.Hbond>
2.3379

> <Gold.Chemscore.Metal>
0.0000

> <Gold.Chemscore.Lipo>
66.9705

> <Gold.Chemscore.Internal_Hbond>
0.0000

> <Gold.Chemscore.DEClash>
0.1974

> <Gold.Chemscore.DEInternal>
0.8476

> <Gold.Chemscore.Rot>
1.7801

> <Gold.Chemscore.Internal.Correction>
   9.000000E+99

> <Gold.Chemscore.Hbonds>
donor molecule, donor type, donor heavy atom, donor atom, acceptor molecule, acceptor atom, score
      L1  H     9    28       P1  7948  0.98
      L1  H    12    29       P1  7948  0.97
      P1  H  7989  7998       L1     4  0.29

> <Gold.Chemscore.Hbond.Weighted>
-7.8084

> <Gold.Chemscore.Metal.Weighted>
-0.0000

> <Gold.Chemscore.Lipo.Weighted>
-7.8356

> <Gold.Chemscore.Internal_Hbond.Weighted>
0.0000

> <Gold.Chemscore.DEClash.Weighted>
0.1974

> <Gold.Chemscore.DEInternal.Weighted>
0.8476

> <Gold.Chemscore.Rot.Weighted>
4.5570

> <Gold.Chemscore.Internal.Correction.Weighted>
   9.000000E+99

> <Gold.Protein.RotatedTorsions>
[ 6907 6896 6895 6894 ] final  -58.37 input  -60.11 | X-H torsion
[ 7974 7965 7964 7962 ] final  179.52 input  175.53 | X-H torsion
[ 8008 7997 7996 7995 ] final   87.44 input   59.86 | X-H torsion
[ 10167 10162 10161 10158 ] final -162.01 input  -65.29 | X-H torsion
[ 10718 10713 10712 10709 ] final  -61.96 input   66.30 | X-H torsion
[ 10763 10752 10751 10750 ] final  149.08 input  -60.55 | X-H torsion
[ 11005 11000 10999 10996 ] final  148.45 input  -57.11 | X-H torsion

> <Gold.Protein.ActiveResidues>
 VAL166  LYS551  ARG553  GLY616  TRP617  ASP618  TYR619  PRO620  LYS621  CYS622 
 ASP623  PHE694  ASN695  SER759  ASP760  ASP761  ALA762  ILE779  LEU786  VAL792 
 PHE793  MET794  SER795  GLU796  ALA797  LYS798  CYS799  TRP800  GLU811  SER814 

> <Gold.Protein.RotatedAtoms>
  150.8012  134.7107  159.6601 H   0  0  0  0  0  0  0  0  0  0  0  0  # atno 6907 bound_to 6896
  152.4129  134.6090  160.0030 H   0  0  0  0  0  0  0  0  0  0  0  0  # atno 6908 bound_to 6896
  151.6327  133.3294  159.3148 H   0  0  0  0  0  0  0  0  0  0  0  0  # atno 6909 bound_to 6896
  144.7145  140.0560  143.6434 H   0  0  0  0  0  0  0  0  0  0  0  0  # atno 7974 bound_to 7965
  155.9754  140.3382  155.6614 H   0  0  0  0  0  0  0  0  0  0  0  0  # atno 8008 bound_to 7997
  155.6619  140.0717  157.2569 H   0  0  0  0  0  0  0  0  0  0  0  0  # atno 8009 bound_to 7997
  154.4177  140.1707  156.1773 H   0  0  0  0  0  0  0  0  0  0  0  0  # atno 8010 bound_to 7997
  139.6423  144.0236  152.2101 H   0  0  0  0  0  0  0  0  0  0  0  0  # atno 10167 bound_to 10162
  156.0887  130.4204  150.1067 H   0  0  0  0  0  0  0  0  0  0  0  0  # atno 10718 bound_to 10713
  154.0653  135.2871  155.3317 H   0  0  0  0  0  0  0  0  0  0  0  0  # atno 10763 bound_to 10752
  154.6781  135.5274  153.8230 H   0  0  0  0  0  0  0  0  0  0  0  0  # atno 10764 bound_to 10752
  153.0506  135.6574  154.0839 H   0  0  0  0  0  0  0  0  0  0  0  0  # atno 10765 bound_to 10752
  140.0961  134.9012  157.1725 H   0  0  0  0  0  0  0  0  0  0  0  0  # atno 11005 bound_to 11000
  145.9904  139.3010  143.0988 LP  0  0  0  0  0  0  0  0  0  0  0  0  # atno 17320 bound_to 7965
  145.8909  140.9304  143.0552 LP  0  0  0  0  0  0  0  0  0  0  0  0  # atno 17321 bound_to 7965
  139.9929  144.6349  150.7798 LP  0  0  0  0  0  0  0  0  0  0  0  0  # atno 17342 bound_to 10162
  140.7497  143.2943  151.3246 LP  0  0  0  0  0  0  0  0  0  0  0  0  # atno 17343 bound_to 10162
  156.9082  130.9643  151.3567 LP  0  0  0  0  0  0  0  0  0  0  0  0  # atno 17370 bound_to 10713
  157.6029  130.8526  149.8830 LP  0  0  0  0  0  0  0  0  0  0  0  0  # atno 17371 bound_to 10713
  140.3284  134.2837  155.7232 LP  0  0  0  0  0  0  0  0  0  0  0  0  # atno 17394 bound_to 11000
  141.2092  133.7755  157.0010 LP  0  0  0  0  0  0  0  0  0  0  0  0  # atno 17395 bound_to 11000

$$$$
