AV-unprocessed.smi:2772|AV-procd|sdf|10671|dock9
  -GOLD-   2272015123D 1   1.00000     0.00000
 Structure written by MMmdl.
 54 56  0  0  0  0  0  0  0  0  2 V2000
  144.3025  132.5965  149.2663 C   0  0  0  0  0  0  0  0  0  0  0  0
  144.8479  133.5254  150.3305 C   0  0  0  0  0  0  0  0  0  0  0  0
  145.6949  133.0419  151.3487 C   0  0  0  0  0  0  0  0  0  0  0  0
  146.1786  133.9502  152.3098 C   0  0  0  0  0  0  0  0  0  0  0  0
  145.8018  135.3117  152.2152 C   0  0  0  0  0  0  0  0  0  0  0  0
  146.2045  136.3171  153.1352 N   0  0  0  0  0  0  0  0  0  0  0  0
  146.3356  137.6379  152.9232 C   0  0  0  0  0  0  0  0  0  0  0  0
  146.0756  138.2176  151.8694 O   0  0  0  0  0  0  0  0  0  0  0  0
  146.7723  138.2632  154.0262 N   0  0  0  0  0  0  0  0  0  0  0  0
  147.0177  139.6977  154.1535 C   0  0  2  0  0  0  0  0  0  0  0  0
  148.4900  140.0075  153.8260 C   0  0  0  0  0  0  0  0  0  0  0  0
  148.8254  141.4826  154.1175 C   0  0  0  0  0  0  0  0  0  0  0  0
  148.5313  141.8472  155.5330 N   0  3  2  0  0  0  0  0  0  0  0  0
  149.4638  141.2619  156.5556 C   0  0  0  0  0  0  0  0  0  0  0  0
  149.6440  142.1920  157.7794 C   0  0  0  0  0  0  0  0  0  0  0  0
  150.6936  141.6588  158.7688 C   0  0  0  0  0  0  0  0  0  0  0  0
  151.9812  141.5025  158.0991 N   0  0  0  0  0  0  0  0  0  0  0  0
  152.9775  141.0660  159.0674 C   0  0  0  0  0  0  0  0  0  0  0  0
  151.8610  140.4989  157.0457 C   0  0  0  0  0  0  0  0  0  0  0  0
  150.8685  140.9758  155.9720 C   0  0  0  0  0  0  0  0  0  0  0  0
  147.0797  141.6347  155.7997 C   0  0  0  0  0  0  0  0  0  0  0  0
  146.6642  140.1675  155.5772 C   0  0  0  0  0  0  0  0  0  0  0  0
  144.9364  135.6826  151.1643 C   0  0  0  0  0  0  0  0  0  0  0  0
  144.4705  134.8187  150.2373 N   0  0  0  0  0  0  0  0  0  0  0  0
  144.6614  131.5768  149.4098 H   0  0  0  0  0  0  0  0  0  0  0  0
  144.6147  132.9300  148.2760 H   0  0  0  0  0  0  0  0  0  0  0  0
  143.2128  132.5809  149.2976 H   0  0  0  0  0  0  0  0  0  0  0  0
  145.9680  131.9980  151.3982 H   0  0  0  0  0  0  0  0  0  0  0  0
  146.8121  133.5829  153.1022 H   0  0  0  0  0  0  0  0  0  0  0  0
  146.3666  135.9982  154.0793 H   0  0  0  0  0  0  0  0  0  0  0  0
  146.9511  137.6996  154.8446 H   0  0  0  0  0  0  0  0  0  0  0  0
  146.3962  140.2567  153.4515 H   0  0  0  0  0  0  0  0  0  0  0  0
  149.1509  139.3560  154.3986 H   0  0  0  0  0  0  0  0  0  0  0  0
  148.6863  139.7891  152.7756 H   0  0  0  0  0  0  0  0  0  0  0  0
  149.8510  141.7134  153.8377 H   0  0  0  0  0  0  0  0  0  0  0  0
  148.2162  142.1165  153.4713 H   0  0  0  0  0  0  0  0  0  0  0  0
  149.0534  140.3169  156.9116 H   0  0  0  0  0  0  0  0  0  0  0  0
  149.9285  143.1924  157.4496 H   0  0  0  0  0  0  0  0  0  0  0  0
  148.7108  142.2957  158.3307 H   0  0  0  0  0  0  0  0  0  0  0  0
  150.7982  142.3600  159.5980 H   0  0  0  0  0  0  0  0  0  0  0  0
  150.3679  140.7076  159.1931 H   0  0  0  0  0  0  0  0  0  0  0  0
  153.9504  140.9487  158.5890 H   0  0  0  0  0  0  0  0  0  0  0  0
  152.7025  140.1128  159.5215 H   0  0  0  0  0  0  0  0  0  0  0  0
  153.0876  141.8043  159.8624 H   0  0  0  0  0  0  0  0  0  0  0  0
  152.8373  140.3335  156.5881 H   0  0  0  0  0  0  0  0  0  0  0  0
  151.5380  139.5445  157.4652 H   0  0  0  0  0  0  0  0  0  0  0  0
  150.8232  140.1964  155.2128 H   0  0  0  0  0  0  0  0  0  0  0  0
  151.2603  141.8698  155.4846 H   0  0  0  0  0  0  0  0  0  0  0  0
  146.7893  141.9761  156.7910 H   0  0  0  0  0  0  0  0  0  0  0  0
  146.5139  142.2683  155.1150 H   0  0  0  0  0  0  0  0  0  0  0  0
  145.5912  140.0631  155.7427 H   0  0  0  0  0  0  0  0  0  0  0  0
  147.1466  139.5286  156.3176 H   0  0  0  0  0  0  0  0  0  0  0  0
  144.6094  136.7070  151.0594 H   0  0  0  0  0  0  0  0  0  0  0  0
  148.6768  142.8453  155.5927 H   0  0  0  0  0  0  0  0  0  0  0  0
  1  2  1  0  0  0  0
  1 25  1  0  0  0  0
  1 26  1  0  0  0  0
  1 27  1  0  0  0  0
  2 24  1  0  0  0  0
  2  3  2  0  0  0  0
  3  4  1  0  0  0  0
  3 28  1  0  0  0  0
  4  5  2  0  0  0  0
  4 29  1  0  0  0  0
  5  6  1  0  0  0  0
  5 23  1  0  0  0  0
  6  7  1  0  0  0  0
  6 30  1  0  0  0  0
  7  8  2  0  0  0  0
  7  9  1  0  0  0  0
  9 10  1  0  0  0  0
  9 31  1  0  0  0  0
 10 22  1  0  0  0  0
 10 11  1  0  0  0  0
 10 32  1  0  0  0  0
 11 12  1  0  0  0  0
 11 33  1  0  0  0  0
 11 34  1  0  0  0  0
 12 13  1  0  0  0  0
 12 35  1  0  0  0  0
 12 36  1  0  0  0  0
 13 14  1  0  0  0  0
 13 21  1  0  0  0  0
 13 54  1  0  0  0  0
 14 20  1  0  0  0  0
 14 15  1  0  0  0  0
 14 37  1  0  0  0  0
 15 16  1  0  0  0  0
 15 38  1  0  0  0  0
 15 39  1  0  0  0  0
 16 17  1  0  0  0  0
 16 40  1  0  0  0  0
 16 41  1  0  0  0  0
 17 18  1  0  0  0  0
 17 19  1  0  0  0  0
 18 42  1  0  0  0  0
 18 43  1  0  0  0  0
 18 44  1  0  0  0  0
 19 20  1  0  0  0  0
 19 45  1  0  0  0  0
 19 46  1  0  0  0  0
 20 47  1  0  0  0  0
 20 48  1  0  0  0  0
 21 22  1  0  0  0  0
 21 49  1  0  0  0  0
 21 50  1  0  0  0  0
 22 51  1  0  0  0  0
 22 52  1  0  0  0  0
 23 24  2  0  0  0  0
 23 53  1  0  0  0  0
M  CHG  1  13   1
M  END
> <s_m_source_file>
AV-unprocessed.smi

> <i_m_source_file_index>
2772

> <i_lp_mmshare_version>
43012

> <i_f3d_flags>
0

> <s_epik_input>
W0NIM11jMVtjSF1bY0hdYyhbY0hdbjEpW05IXUMoPU8pW05IXVtDSF0yW0NIMl1bQ0gyXU4oW0NIMl1bQ0gyXTIpW0NIXTNbQ0gyXVtDSDJdTihbQ0gzXSlbQ0gyXVtDSDJdMw==

> <s_epik_cmdline>
J2VwaWtfcHl0aG9uJywgJy1waCcsICc3LjAnLCAnLXRuJywgJzgnLCAnLW1hJywgJzIwMCcsICctbWV0YWxfYmluZGluZycsICctaW1hZScsICc8aW5maWxlLm1hZT4nLCAnLW9tYWUnLCAnPG91dGZpbGUubWFlPic=

> <r_epik_Ionization_Penalty>
1.38854

> <r_epik_Ionization_Penalty_Charging>
0.00081195

> <r_epik_Ionization_Penalty_Neutral>
1.38772

> <r_epik_State_Penalty>
1.56122

> <r_epik_Charging_Adjusted_Penalty>
1.56203

> <i_epik_Tot_Q>
1

> <i_epik_Tot_abs_Q>
1

> <r_epik_Metal_State_Penalty>
1.5614

> <b_epik_Metal_Only>
0

> <s_lp_Force_Field>
OPLS_2005

> <r_lp_Energy>
35.2305

> <b_lp_Chiralities_Consistent>
1

> <s_lp_Variant>
AV-unprocessed.smi:2772-8

> <Gold.Version>
5.8.1

> <Gold.Id.Protein>
6NUR|6NUR_protein|mol2

> <Gold.PLP.Fitness>
40.2435

> <Gold.PLP.PLP>
-33.5855

> <Gold.PLP.part.hbond>
-1.9489

> <Gold.PLP.part.metal>
0.0000

> <Gold.PLP.part.buried>
-2.6796

> <Gold.PLP.part.nonpolar>
-30.6503

> <Gold.PLP.part.repulsive>
1.4328

> <Gold.PLP.ligand.clash>
0.0000

> <Gold.PLP.ligand.torsion>
1.1925

> <Gold.PLP.Chemscore.Hbond>
2.0000

> <Gold.PLP.Chemscore.CHOScore>
1.0000

> <Gold.PLP.Chemscore.Metal>
0.0000

> <Gold.Chemscore.Hbonds>
donor molecule, donor type, donor heavy atom, donor atom, acceptor molecule, acceptor atom, score
      L1  H    13    54       P1  8028  2.00
      L1  C    23    53       P1 10171  1.00

> <Gold.PLP.Chemscore.Internal.Correction>
0.0430

> <Gold.Rescore>
     Score         DG    S(hbond)    S(metal)    S(lipo)     H(rot)  DE(clash)    DE(int)     intcor
     14.60     -16.87       1.00        0.00      94.89       1.19       0.01       2.25       ----

> <Gold.Chemscore.Fitness>
14.6008

> <Gold.Chemscore.DG>
-16.8668

> <Gold.Chemscore.ZeroCoef>
-5.4800

> <Gold.Chemscore.Hbond>
0.9981

> <Gold.Chemscore.Metal>
0.0000

> <Gold.Chemscore.Lipo>
94.8896

> <Gold.Chemscore.Internal_Hbond>
0.0000

> <Gold.Chemscore.DEClash>
0.0147

> <Gold.Chemscore.DEInternal>
2.2513

> <Gold.Chemscore.Rot>
1.1910

> <Gold.Chemscore.Internal.Correction>
   9.000000E+99

> <Gold.Chemscore.Hbonds>
donor molecule, donor type, donor heavy atom, donor atom, acceptor molecule, acceptor atom, score
      L1  H    13    54       P1  8028  1.00

> <Gold.Chemscore.Hbond.Weighted>
-3.3336

> <Gold.Chemscore.Metal.Weighted>
-0.0000

> <Gold.Chemscore.Lipo.Weighted>
-11.1021

> <Gold.Chemscore.Internal_Hbond.Weighted>
0.0000

> <Gold.Chemscore.DEClash.Weighted>
0.0147

> <Gold.Chemscore.DEInternal.Weighted>
2.2513

> <Gold.Chemscore.Rot.Weighted>
3.0489

> <Gold.Chemscore.Internal.Correction.Weighted>
   9.000000E+99

> <Gold.Protein.RotatedTorsions>
[ 6907 6896 6895 6894 ] final  -13.78 input  -60.11 | X-H torsion
[ 7974 7965 7964 7962 ] final  151.70 input  175.53 | X-H torsion
[ 8008 7997 7996 7995 ] final  162.08 input   59.86 | X-H torsion
[ 10167 10162 10161 10158 ] final  -71.00 input  -65.29 | X-H torsion
[ 10718 10713 10712 10709 ] final -105.70 input   66.30 | X-H torsion
[ 10763 10752 10751 10750 ] final   66.80 input  -60.55 | X-H torsion
[ 11005 11000 10999 10996 ] final  -50.47 input  -57.11 | X-H torsion

> <Gold.Protein.ActiveResidues>
 VAL166  LYS551  ARG553  GLY616  TRP617  ASP618  TYR619  PRO620  LYS621  CYS622 
 ASP623  PHE694  ASN695  SER759  ASP760  ASP761  ALA762  ILE779  LEU786  VAL792 
 PHE793  MET794  SER795  GLU796  ALA797  LYS798  CYS799  TRP800  GLU811  SER814 

> <Gold.Protein.RotatedAtoms>
  151.3496  135.0881  159.9398 H   0  0  0  0  0  0  0  0  0  0  0  0  # atno 6907 bound_to 6896
  152.5190  133.9366  159.7616 H   0  0  0  0  0  0  0  0  0  0  0  0  # atno 6908 bound_to 6896
  150.9738  133.6262  159.2763 H   0  0  0  0  0  0  0  0  0  0  0  0  # atno 6909 bound_to 6896
  144.8274  139.6572  143.6074 H   0  0  0  0  0  0  0  0  0  0  0  0  # atno 7974 bound_to 7965
  156.2057  140.1760  156.7804 H   0  0  0  0  0  0  0  0  0  0  0  0  # atno 8008 bound_to 7997
  154.5652  140.0692  156.8911 H   0  0  0  0  0  0  0  0  0  0  0  0  # atno 8009 bound_to 7997
  155.2774  140.3346  155.4263 H   0  0  0  0  0  0  0  0  0  0  0  0  # atno 8010 bound_to 7997
  140.5308  143.2322  151.7266 H   0  0  0  0  0  0  0  0  0  0  0  0  # atno 10167 bound_to 10162
  156.0357  130.5576  150.7576 H   0  0  0  0  0  0  0  0  0  0  0  0  # atno 10718 bound_to 10713
  153.0156  135.5307  154.6880 H   0  0  0  0  0  0  0  0  0  0  0  0  # atno 10763 bound_to 10752
  154.6023  135.2869  155.0525 H   0  0  0  0  0  0  0  0  0  0  0  0  # atno 10764 bound_to 10752
  154.1577  135.6552  153.5031 H   0  0  0  0  0  0  0  0  0  0  0  0  # atno 10765 bound_to 10752
  141.0818  133.6651  156.3736 H   0  0  0  0  0  0  0  0  0  0  0  0  # atno 11005 bound_to 11000
  146.2579  139.6343  142.9382 LP  0  0  0  0  0  0  0  0  0  0  0  0  # atno 17320 bound_to 7965
  145.4970  141.0438  143.2561 LP  0  0  0  0  0  0  0  0  0  0  0  0  # atno 17321 bound_to 7965
  139.4953  144.4117  152.0073 LP  0  0  0  0  0  0  0  0  0  0  0  0  # atno 17342 bound_to 10162
  140.3219  144.3418  150.6007 LP  0  0  0  0  0  0  0  0  0  0  0  0  # atno 17343 bound_to 10162
  157.5104  131.0925  151.0205 LP  0  0  0  0  0  0  0  0  0  0  0  0  # atno 17370 bound_to 10713
  157.0562  130.5807  149.5378 LP  0  0  0  0  0  0  0  0  0  0  0  0  # atno 17371 bound_to 10713
  140.5452  134.6081  157.5392 LP  0  0  0  0  0  0  0  0  0  0  0  0  # atno 17394 bound_to 11000
  139.9632  134.7417  156.0193 LP  0  0  0  0  0  0  0  0  0  0  0  0  # atno 17395 bound_to 11000

$$$$
