AV-unprocessed.smi:2855|AV-procd|sdf|10987|dock10
  -GOLD-   2272015443D 1   1.00000     0.00000
 Structure written by MMmdl.
 46 47  0  0  0  0  0  0  0  0  2 V2000
  152.0453  144.0640  161.0633 C   0  0  0  0  0  0  0  0  0  0  0  0
  153.0410  143.5051  160.0311 C   0  0  2  0  0  0  0  0  0  0  0  0
  152.8174  144.0779  158.6193 C   0  0  0  0  0  0  0  0  0  0  0  0
  151.5640  143.5005  157.9402 C   0  0  0  0  0  0  0  0  0  0  0  0
  151.5966  141.9547  157.8831 C   0  0  2  0  0  0  0  0  0  0  0  0
  150.3869  141.3383  157.1172 C   0  0  0  0  0  0  0  0  0  0  0  0
  150.3962  141.6899  155.6196 C   0  0  0  0  0  0  0  0  0  0  0  0
  149.0162  141.6565  157.7427 C   0  0  0  0  0  0  0  0  0  0  0  0
  151.7968  141.3766  159.3109 C   0  0  1  0  0  0  0  0  0  0  0  0
  151.9171  139.9210  159.2669 N   0  0  0  0  0  0  0  0  0  0  0  0
  153.0400  139.2345  159.0073 C   0  0  0  0  0  0  0  0  0  0  0  0
  154.1078  139.7651  158.6995 O   0  0  0  0  0  0  0  0  0  0  0  0
  152.9328  137.7075  159.0942 C   0  0  0  0  0  0  0  0  0  0  0  0
  152.0785  137.1515  158.0335 N   0  0  0  0  0  0  0  0  0  0  0  0
  150.6914  137.3583  158.1317 C   0  0  0  0  0  0  0  0  0  0  0  0
  149.8361  136.8906  157.2027 C   0  0  0  0  0  0  0  0  0  0  0  0
  150.3822  136.1524  156.0707 C   0  0  0  0  0  0  0  0  0  0  0  0
  149.6156  135.7142  155.2152 O   0  0  0  0  0  0  0  0  0  0  0  0
  151.7356  135.9823  156.0174 N   0  5  0  0  0  0  0  0  0  0  0  0
  152.5938  136.4646  156.9690 C   0  0  0  0  0  0  0  0  0  0  0  0
  153.8127  136.3003  156.9010 O   0  0  0  0  0  0  0  0  0  0  0  0
  153.0510  141.9651  159.9889 C   0  0  0  0  0  0  0  0  0  0  0  0
  151.0147  143.8005  160.8270 H   0  0  0  0  0  0  0  0  0  0  0  0
  152.1035  145.1516  161.1119 H   0  0  0  0  0  0  0  0  0  0  0  0
  152.2618  143.6807  162.0607 H   0  0  0  0  0  0  0  0  0  0  0  0
  154.0306  143.8263  160.3584 H   0  0  0  0  0  0  0  0  0  0  0  0
  152.7513  145.1656  158.6605 H   0  0  0  0  0  0  0  0  0  0  0  0
  153.6876  143.8526  158.0014 H   0  0  0  0  0  0  0  0  0  0  0  0
  150.6755  143.8403  158.4719 H   0  0  0  0  0  0  0  0  0  0  0  0
  151.4952  143.9181  156.9365 H   0  0  0  0  0  0  0  0  0  0  0  0
  152.4872  141.6835  157.3131 H   0  0  0  0  0  0  0  0  0  0  0  0
  150.4958  140.2541  157.1517 H   0  0  0  0  0  0  0  0  0  0  0  0
  150.1818  142.7443  155.4469 H   0  0  0  0  0  0  0  0  0  0  0  0
  149.6416  141.1143  155.0827 H   0  0  0  0  0  0  0  0  0  0  0  0
  151.3612  141.4634  155.1659 H   0  0  0  0  0  0  0  0  0  0  0  0
  148.8007  142.7245  157.7282 H   0  0  0  0  0  0  0  0  0  0  0  0
  148.9524  141.3126  158.7746 H   0  0  0  0  0  0  0  0  0  0  0  0
  148.2174  141.1566  157.1942 H   0  0  0  0  0  0  0  0  0  0  0  0
  150.9314  141.6534  159.9133 H   0  0  0  0  0  0  0  0  0  0  0  0
  151.0912  139.3918  159.5060 H   0  0  0  0  0  0  0  0  0  0  0  0
  153.9249  137.2538  159.0519 H   0  0  0  0  0  0  0  0  0  0  0  0
  152.5414  137.4498  160.0789 H   0  0  0  0  0  0  0  0  0  0  0  0
  150.3695  137.9201  158.9962 H   0  0  0  0  0  0  0  0  0  0  0  0
  148.7733  137.0605  157.2915 H   0  0  0  0  0  0  0  0  0  0  0  0
  153.9384  141.6348  159.4465 H   0  0  0  0  0  0  0  0  0  0  0  0
  153.1525  141.5679  160.9998 H   0  0  0  0  0  0  0  0  0  0  0  0
  1  2  1  0  0  0  0
  1 23  1  0  0  0  0
  1 24  1  0  0  0  0
  1 25  1  0  0  0  0
  2 22  1  0  0  0  0
  2  3  1  0  0  0  0
  2 26  1  0  0  0  0
  3  4  1  0  0  0  0
  3 27  1  0  0  0  0
  3 28  1  0  0  0  0
  4  5  1  0  0  0  0
  4 29  1  0  0  0  0
  4 30  1  0  0  0  0
  5  6  1  0  0  0  0
  5  9  1  0  0  0  0
  5 31  1  0  0  0  0
  6  7  1  0  0  0  0
  6  8  1  0  0  0  0
  6 32  1  0  0  0  0
  7 33  1  0  0  0  0
  7 34  1  0  0  0  0
  7 35  1  0  0  0  0
  8 36  1  0  0  0  0
  8 37  1  0  0  0  0
  8 38  1  0  0  0  0
  9 10  1  0  0  0  0
  9 22  1  0  0  0  0
  9 39  1  0  0  0  0
 10 11  1  0  0  0  0
 10 40  1  0  0  0  0
 11 12  2  0  0  0  0
 11 13  1  0  0  0  0
 13 14  1  0  0  0  0
 13 41  1  0  0  0  0
 13 42  1  0  0  0  0
 14 20  1  0  0  0  0
 14 15  1  0  0  0  0
 15 16  2  0  0  0  0
 15 43  1  0  0  0  0
 16 17  1  0  0  0  0
 16 44  1  0  0  0  0
 17 18  2  0  0  0  0
 17 19  1  0  0  0  0
 19 20  1  0  0  0  0
 20 21  2  0  0  0  0
 22 45  1  0  0  0  0
 22 46  1  0  0  0  0
M  CHG  1  19  -1
M  END
> <s_m_source_file>
AV-unprocessed.smi

> <i_m_source_file_index>
2855

> <i_lp_mmshare_version>
43012

> <i_f3d_flags>
0

> <s_epik_input>
W0NIM11bQ0BASF0xW0NIMl1bQ0gyXVtDQEBIXShbQ0hdKFtDSDNdKVtDSDNdKVtDQEhdKFtDSDJdMSlbTkhdQyg9TylbQ0gyXW4yW2NIXVtjSF1jKD1PKVtuSF1jMj1P

> <s_epik_cmdline>
J2VwaWtfcHl0aG9uJywgJy1waCcsICc3LjAnLCAnLXRuJywgJzgnLCAnLW1hJywgJzIwMCcsICctbWV0YWxfYmluZGluZycsICctaW1hZScsICc8aW5maWxlLm1hZT4nLCAnLW9tYWUnLCAnPG91dGZpbGUubWFlPic=

> <r_lp_tautomer_probability>
0.999537

> <r_epik_Ionization_Penalty>
3.12102

> <r_epik_Ionization_Penalty_Charging>
2.9581e-08

> <r_epik_Ionization_Penalty_Neutral>
3.12102

> <r_epik_State_Penalty>
3.12011

> <r_epik_Charging_Adjusted_Penalty>
3.12011

> <i_epik_Tot_Q>
-1

> <i_epik_Tot_abs_Q>
1

> <r_epik_Metal_State_Penalty>
0.463583

> <b_epik_Metal_Only>
1

> <s_lp_Force_Field>
OPLS_2005

> <r_lp_Energy>
25.3875

> <b_lp_Chiralities_Consistent>
1

> <s_lp_Variant>
AV-unprocessed.smi:2855-11

> <Gold.Version>
5.8.1

> <Gold.Id.Protein>
6NUR|6NUR_protein|mol2

> <Gold.PLP.Fitness>
46.0785

> <Gold.PLP.PLP>
-37.5046

> <Gold.PLP.part.hbond>
-3.0000

> <Gold.PLP.part.metal>
0.0000

> <Gold.PLP.part.buried>
-3.4983

> <Gold.PLP.part.nonpolar>
-29.3786

> <Gold.PLP.part.repulsive>
0.3141

> <Gold.PLP.ligand.clash>
0.0000

> <Gold.PLP.ligand.torsion>
0.5679

> <Gold.PLP.Chemscore.Hbond>
3.2174

> <Gold.PLP.Chemscore.CHOScore>
0.0000

> <Gold.PLP.Chemscore.Metal>
0.0000

> <Gold.Chemscore.Hbonds>
donor molecule, donor type, donor heavy atom, donor atom, acceptor molecule, acceptor atom, score
      P1  H  7997  8009       L1    12  1.00
      P1  H 10752 10764       L1    19  2.00
      P1  H 10752 10765       L1    21  0.22

> <Gold.PLP.Chemscore.Internal.Correction>
0.0576

> <Gold.Rescore>
     Score         DG    S(hbond)    S(metal)    S(lipo)     H(rot)  DE(clash)    DE(int)     intcor
     16.92     -19.25       1.86        0.00     104.28       1.81       0.14       2.20       ----

> <Gold.Chemscore.Fitness>
16.9174

> <Gold.Chemscore.DG>
-19.2524

> <Gold.Chemscore.ZeroCoef>
-5.4800

> <Gold.Chemscore.Hbond>
1.8580

> <Gold.Chemscore.Metal>
0.0000

> <Gold.Chemscore.Lipo>
104.2763

> <Gold.Chemscore.Internal_Hbond>
0.0000

> <Gold.Chemscore.DEClash>
0.1375

> <Gold.Chemscore.DEInternal>
2.1975

> <Gold.Chemscore.Rot>
1.8100

> <Gold.Chemscore.Internal.Correction>
   9.000000E+99

> <Gold.Chemscore.Hbonds>
donor molecule, donor type, donor heavy atom, donor atom, acceptor molecule, acceptor atom, score
      P1  H  7997  8009       L1    12  0.99
      P1  H 10752 10764       L1    19  0.24
      P1  H 10752 10765       L1    21  0.20

> <Gold.Chemscore.Hbond.Weighted>
-6.2056

> <Gold.Chemscore.Metal.Weighted>
-0.0000

> <Gold.Chemscore.Lipo.Weighted>
-12.2003

> <Gold.Chemscore.Internal_Hbond.Weighted>
0.0000

> <Gold.Chemscore.DEClash.Weighted>
0.1375

> <Gold.Chemscore.DEInternal.Weighted>
2.1975

> <Gold.Chemscore.Rot.Weighted>
4.6335

> <Gold.Chemscore.Internal.Correction.Weighted>
   9.000000E+99

> <Gold.Protein.RotatedTorsions>
[ 6907 6896 6895 6894 ] final   14.47 input  -60.11 | X-H torsion
[ 7974 7965 7964 7962 ] final   11.79 input  175.53 | X-H torsion
[ 8008 7997 7996 7995 ] final  130.47 input   59.86 | X-H torsion
[ 10167 10162 10161 10158 ] final   25.80 input  -65.29 | X-H torsion
[ 10718 10713 10712 10709 ] final  -67.10 input   66.30 | X-H torsion
[ 10763 10752 10751 10750 ] final  -56.24 input  -60.55 | X-H torsion
[ 11005 11000 10999 10996 ] final   16.36 input  -57.11 | X-H torsion

> <Gold.Protein.ActiveResidues>
 VAL166  LYS551  ARG553  GLY616  TRP617  ASP618  TYR619  PRO620  LYS621  CYS622 
 ASP623  PHE694  ASN695  SER759  ASP760  ASP761  ALA762  ILE779  LEU786  VAL792 
 PHE793  MET794  SER795  GLU796  ALA797  LYS798  CYS799  TRP800  GLU811  SER814 

> <Gold.Protein.RotatedAtoms>
  151.8027  135.0704  160.0402 H   0  0  0  0  0  0  0  0  0  0  0  0  # atno 6907 bound_to 6896
  152.3077  133.5716  159.5668 H   0  0  0  0  0  0  0  0  0  0  0  0  # atno 6908 bound_to 6896
  150.7304  134.0114  159.3713 H   0  0  0  0  0  0  0  0  0  0  0  0  # atno 6909 bound_to 6896
  146.2364  139.9433  142.8480 H   0  0  0  0  0  0  0  0  0  0  0  0  # atno 7974 bound_to 7965
  156.2955  140.2595  156.2768 H   0  0  0  0  0  0  0  0  0  0  0  0  # atno 8008 bound_to 7997
  154.9641  140.0392  157.2222 H   0  0  0  0  0  0  0  0  0  0  0  0  # atno 8009 bound_to 7997
  154.7919  140.2813  155.5990 H   0  0  0  0  0  0  0  0  0  0  0  0  # atno 8010 bound_to 7997
  140.5076  144.0213  150.6359 H   0  0  0  0  0  0  0  0  0  0  0  0  # atno 10167 bound_to 10162
  156.0576  130.4272  150.1805 H   0  0  0  0  0  0  0  0  0  0  0  0  # atno 10718 bound_to 10713
  154.2034  135.6407  153.5094 H   0  0  0  0  0  0  0  0  0  0  0  0  # atno 10763 bound_to 10752
  153.0006  135.5457  154.6291 H   0  0  0  0  0  0  0  0  0  0  0  0  # atno 10764 bound_to 10752
  154.5710  135.2917  155.0801 H   0  0  0  0  0  0  0  0  0  0  0  0  # atno 10765 bound_to 10752
  140.4480  134.1254  155.7698 H   0  0  0  0  0  0  0  0  0  0  0  0  # atno 11005 bound_to 11000
  145.1932  140.9821  143.4199 LP  0  0  0  0  0  0  0  0  0  0  0  0  # atno 17320 bound_to 7965
  144.9839  139.3756  143.6248 LP  0  0  0  0  0  0  0  0  0  0  0  0  # atno 17321 bound_to 7965
  140.3526  143.2954  152.0470 LP  0  0  0  0  0  0  0  0  0  0  0  0  # atno 17342 bound_to 10162
  139.4887  144.6362  151.6970 LP  0  0  0  0  0  0  0  0  0  0  0  0  # atno 17343 bound_to 10162
  156.9879  130.9884  151.3422 LP  0  0  0  0  0  0  0  0  0  0  0  0  # atno 17370 bound_to 10713
  157.5558  130.8213  149.8203 LP  0  0  0  0  0  0  0  0  0  0  0  0  # atno 17371 bound_to 10713
  141.1677  133.8671  157.1666 LP  0  0  0  0  0  0  0  0  0  0  0  0  # atno 17394 bound_to 11000
  140.0026  135.0022  157.0222 LP  0  0  0  0  0  0  0  0  0  0  0  0  # atno 17395 bound_to 11000

$$$$
