AV-unprocessed.smi:3244|AV-procd|sdf|12401|dock7
  -GOLD-   2272018273D 1   1.00000     0.00000
 Structure written by MMmdl.
 40 41  0  0  0  0  0  0  0  0  1 V2000
  154.2352  141.4173  160.5633 C   0  0  0  0  0  0  0  0  0  0  0  0
  153.8030  142.5249  159.5888 C   0  0  0  0  0  0  0  0  0  0  0  0
  152.4169  142.3488  159.1216 N   0  0  0  0  0  0  0  0  0  0  0  0
  152.0853  141.2804  158.3507 C   0  0  0  0  0  0  0  0  0  0  0  0
  152.8702  140.3550  158.1383 O   0  0  0  0  0  0  0  0  0  0  0  0
  150.6917  141.1873  157.7075 C   0  0  0  0  0  0  0  0  0  0  0  0
  150.4965  139.9467  156.9389 N   0  0  0  0  0  0  0  0  0  0  0  0
  150.9465  140.0272  155.5521 C   0  0  1  0  0  0  0  0  0  0  0  0
  152.3003  139.3032  155.4592 C   0  0  0  0  0  0  0  0  0  0  0  0
  149.8862  139.4650  154.5703 C   0  0  0  0  0  0  0  0  0  0  0  0
  148.6681  140.2567  154.4978 N   0  0  0  0  0  0  0  0  0  0  0  0
  148.4866  141.5832  154.8302 C   0  0  0  0  0  0  0  0  0  0  0  0
  147.1753  141.8855  154.5994 C   0  0  0  0  0  0  0  0  0  0  0  0
  146.6252  140.6623  154.1244 C   0  0  0  0  0  0  0  0  0  0  0  0
  147.5199  139.6901  154.0692 N   0  0  0  0  0  0  0  0  0  0  0  0
  151.5471  143.4721  159.3603 C   0  0  0  0  0  0  0  0  0  0  0  0
  151.8792  144.8379  158.7851 C   0  0  0  0  0  0  0  0  0  0  0  0
  151.9975  144.6036  160.2655 C   0  0  0  0  0  0  0  0  0  0  0  0
  155.2821  141.5369  160.8425 H   0  0  0  0  0  0  0  0  0  0  0  0
  154.1233  140.4312  160.1116 H   0  0  0  0  0  0  0  0  0  0  0  0
  153.6494  141.4353  161.4821 H   0  0  0  0  0  0  0  0  0  0  0  0
  153.9146  143.5010  160.0638 H   0  0  0  0  0  0  0  0  0  0  0  0
  154.5031  142.5336  158.7545 H   0  0  0  0  0  0  0  0  0  0  0  0
  149.9386  141.2824  158.4917 H   0  0  0  0  0  0  0  0  0  0  0  0
  150.5220  142.0417  157.0551 H   0  0  0  0  0  0  0  0  0  0  0  0
  150.9394  139.1624  157.3954 H   0  0  0  0  0  0  0  0  0  0  0  0
  151.1258  141.0761  155.3104 H   0  0  0  0  0  0  0  0  0  0  0  0
  152.6806  139.3181  154.4376 H   0  0  0  0  0  0  0  0  0  0  0  0
  152.2279  138.2609  155.7720 H   0  0  0  0  0  0  0  0  0  0  0  0
  153.0469  139.7838  156.0926 H   0  0  0  0  0  0  0  0  0  0  0  0
  150.2904  139.3505  153.5640 H   0  0  0  0  0  0  0  0  0  0  0  0
  149.6053  138.4606  154.8894 H   0  0  0  0  0  0  0  0  0  0  0  0
  149.2979  142.1952  155.1963 H   0  0  0  0  0  0  0  0  0  0  0  0
  146.6834  142.8353  154.7483 H   0  0  0  0  0  0  0  0  0  0  0  0
  145.6099  140.4521  153.8225 H   0  0  0  0  0  0  0  0  0  0  0  0
  150.4861  143.2306  159.3920 H   0  0  0  0  0  0  0  0  0  0  0  0
  152.8123  144.9704  158.2414 H   0  0  0  0  0  0  0  0  0  0  0  0
  151.0490  145.4499  158.4382 H   0  0  0  0  0  0  0  0  0  0  0  0
  151.2473  145.0565  160.9105 H   0  0  0  0  0  0  0  0  0  0  0  0
  153.0055  144.5720  160.6746 H   0  0  0  0  0  0  0  0  0  0  0  0
  1  2  1  0  0  0  0
  1 19  1  0  0  0  0
  1 20  1  0  0  0  0
  1 21  1  0  0  0  0
  2  3  1  0  0  0  0
  2 22  1  0  0  0  0
  2 23  1  0  0  0  0
  3  4  1  0  0  0  0
  3 16  1  0  0  0  0
  4  5  2  0  0  0  0
  4  6  1  0  0  0  0
  6  7  1  0  0  0  0
  6 24  1  0  0  0  0
  6 25  1  0  0  0  0
  7  8  1  0  0  0  0
  7 26  1  0  0  0  0
  8  9  1  0  0  0  0
  8 10  1  0  0  0  0
  8 27  1  0  0  0  0
  9 28  1  0  0  0  0
  9 29  1  0  0  0  0
  9 30  1  0  0  0  0
 10 11  1  0  0  0  0
 10 31  1  0  0  0  0
 10 32  1  0  0  0  0
 11 15  1  0  0  0  0
 11 12  1  0  0  0  0
 12 13  2  0  0  0  0
 12 33  1  0  0  0  0
 13 14  1  0  0  0  0
 13 34  1  0  0  0  0
 14 15  2  0  0  0  0
 14 35  1  0  0  0  0
 16 18  1  0  0  0  0
 16 17  1  0  0  0  0
 16 36  1  0  0  0  0
 17 18  1  0  0  0  0
 17 37  1  0  0  0  0
 17 38  1  0  0  0  0
 18 39  1  0  0  0  0
 18 40  1  0  0  0  0
M  END
> <s_m_source_file>
AV-unprocessed.smi

> <i_m_source_file_index>
3244

> <i_lp_mmshare_version>
43012

> <i_f3d_flags>
0

> <s_epik_input>
W0NIMl0xW0NIMl1bQ0hdMU4oW0NIMl1bQ0gzXSlDKD1PKVtDSDJdW05IXVtDQEhdKFtDSDNdKVtDSDJdbjJbY0hdW2NIXVtjSF1uMg==

> <s_epik_cmdline>
J2VwaWtfcHl0aG9uJywgJy1waCcsICc3LjAnLCAnLXRuJywgJzgnLCAnLW1hJywgJzIwMCcsICctbWV0YWxfYmluZGluZycsICctaW1hZScsICc8aW5maWxlLm1hZT4nLCAnLW9tYWUnLCAnPG91dGZpbGUubWFlPic=

> <r_lp_tautomer_probability>
1

> <r_epik_Ionization_Penalty>
1.02506

> <r_epik_Ionization_Penalty_Charging>
0

> <r_epik_Ionization_Penalty_Neutral>
1.02506

> <r_epik_State_Penalty>
1.07563

> <r_epik_Charging_Adjusted_Penalty>
1.07563

> <i_epik_Tot_Q>
0

> <i_epik_Tot_abs_Q>
0

> <r_epik_Metal_State_Penalty>
1.07558

> <b_epik_Metal_Only>
0

> <s_lp_Force_Field>
OPLS_2005

> <r_lp_Energy>
38.4793

> <b_lp_Chiralities_Consistent>
1

> <s_lp_Variant>
AV-unprocessed.smi:3244-4

> <Gold.Version>
5.8.1

> <Gold.Id.Protein>
6NUR|6NUR_protein|mol2

> <Gold.PLP.Fitness>
49.9202

> <Gold.PLP.PLP>
-44.9834

> <Gold.PLP.part.hbond>
-1.0000

> <Gold.PLP.part.metal>
0.0000

> <Gold.PLP.part.buried>
-1.3189

> <Gold.PLP.part.nonpolar>
-42.7669

> <Gold.PLP.part.repulsive>
0.1716

> <Gold.PLP.ligand.clash>
0.0000

> <Gold.PLP.ligand.torsion>
1.2776

> <Gold.PLP.Chemscore.Hbond>
0.7691

> <Gold.PLP.Chemscore.CHOScore>
1.5870

> <Gold.PLP.Chemscore.Metal>
0.0000

> <Gold.Chemscore.Hbonds>
donor molecule, donor type, donor heavy atom, donor atom, acceptor molecule, acceptor atom, score
      P1  H  7997  8010       L1     5  0.83
      L1  C    12    33       P1  8028  0.66
      L1  C    14    35       P1 10175  1.00

> <Gold.PLP.Chemscore.Internal.Correction>
0.4238

> <Gold.Rescore>
     Score         DG    S(hbond)    S(metal)    S(lipo)     H(rot)  DE(clash)    DE(int)     intcor
     14.26     -16.03       0.85        0.00     108.68       1.95       0.19       1.57       ----

> <Gold.Chemscore.Fitness>
14.2639

> <Gold.Chemscore.DG>
-16.0283

> <Gold.Chemscore.ZeroCoef>
-5.4800

> <Gold.Chemscore.Hbond>
0.8494

> <Gold.Chemscore.Metal>
0.0000

> <Gold.Chemscore.Lipo>
108.6842

> <Gold.Chemscore.Internal_Hbond>
0.0000

> <Gold.Chemscore.DEClash>
0.1945

> <Gold.Chemscore.DEInternal>
1.5699

> <Gold.Chemscore.Rot>
1.9550

> <Gold.Chemscore.Internal.Correction>
   9.000000E+99

> <Gold.Chemscore.Hbonds>
donor molecule, donor type, donor heavy atom, donor atom, acceptor molecule, acceptor atom, score
      P1  H  7997  8010       L1     5  0.78

> <Gold.Chemscore.Hbond.Weighted>
-2.8369

> <Gold.Chemscore.Metal.Weighted>
-0.0000

> <Gold.Chemscore.Lipo.Weighted>
-12.7161

> <Gold.Chemscore.Internal_Hbond.Weighted>
0.0000

> <Gold.Chemscore.DEClash.Weighted>
0.1945

> <Gold.Chemscore.DEInternal.Weighted>
1.5699

> <Gold.Chemscore.Rot.Weighted>
5.0047

> <Gold.Chemscore.Internal.Correction.Weighted>
   9.000000E+99

> <Gold.Protein.RotatedTorsions>
[ 6907 6896 6895 6894 ] final -152.68 input  -60.11 | X-H torsion
[ 7974 7965 7964 7962 ] final    9.46 input  175.53 | X-H torsion
[ 8008 7997 7996 7995 ] final   39.72 input   59.86 | X-H torsion
[ 10167 10162 10161 10158 ] final -168.00 input  -65.29 | X-H torsion
[ 10718 10713 10712 10709 ] final  119.38 input   66.30 | X-H torsion
[ 10763 10752 10751 10750 ] final   13.46 input  -60.55 | X-H torsion
[ 11005 11000 10999 10996 ] final  -52.49 input  -57.11 | X-H torsion

> <Gold.Protein.ActiveResidues>
 VAL166  LYS551  ARG553  GLY616  TRP617  ASP618  TYR619  PRO620  LYS621  CYS622 
 ASP623  PHE694  ASN695  SER759  ASP760  ASP761  ALA762  ILE779  LEU786  VAL792 
 PHE793  MET794  SER795  GLU796  ALA797  LYS798  CYS799  TRP800  GLU811  SER814 

> <Gold.Protein.RotatedAtoms>
  151.2314  133.4448  159.2603 H   0  0  0  0  0  0  0  0  0  0  0  0  # atno 6907 bound_to 6896
  151.0791  134.9847  159.8357 H   0  0  0  0  0  0  0  0  0  0  0  0  # atno 6908 bound_to 6896
  152.5422  134.2254  159.8857 H   0  0  0  0  0  0  0  0  0  0  0  0  # atno 6909 bound_to 6896
  146.2403  139.9781  142.8439 H   0  0  0  0  0  0  0  0  0  0  0  0  # atno 7974 bound_to 7965
  155.2412  140.3345  155.4292 H   0  0  0  0  0  0  0  0  0  0  0  0  # atno 8008 bound_to 7997
  156.2255  140.1827  156.7419 H   0  0  0  0  0  0  0  0  0  0  0  0  # atno 8009 bound_to 7997
  154.5892  140.0641  156.9199 H   0  0  0  0  0  0  0  0  0  0  0  0  # atno 8010 bound_to 7997
  139.6013  144.1005  152.1746 H   0  0  0  0  0  0  0  0  0  0  0  0  # atno 10167 bound_to 10162
  157.5965  131.1057  150.7889 H   0  0  0  0  0  0  0  0  0  0  0  0  # atno 10718 bound_to 10713
  153.1719  135.6813  153.8597 H   0  0  0  0  0  0  0  0  0  0  0  0  # atno 10763 bound_to 10752
  153.7958  135.3162  155.3385 H   0  0  0  0  0  0  0  0  0  0  0  0  # atno 10764 bound_to 10752
  154.8003  135.4782  154.0352 H   0  0  0  0  0  0  0  0  0  0  0  0  # atno 10765 bound_to 10752
  141.0927  133.6630  156.4032 H   0  0  0  0  0  0  0  0  0  0  0  0  # atno 11005 bound_to 11000
  145.1618  140.9676  143.4373 LP  0  0  0  0  0  0  0  0  0  0  0  0  # atno 17320 bound_to 7965
  145.0109  139.3511  143.6120 LP  0  0  0  0  0  0  0  0  0  0  0  0  # atno 17321 bound_to 7965
  140.0602  144.5863  150.7269 LP  0  0  0  0  0  0  0  0  0  0  0  0  # atno 17342 bound_to 10162
  140.7252  143.2628  151.4146 LP  0  0  0  0  0  0  0  0  0  0  0  0  # atno 17343 bound_to 10162
  156.8298  130.5012  149.5333 LP  0  0  0  0  0  0  0  0  0  0  0  0  # atno 17370 bound_to 10713
  156.1029  130.5982  150.9923 LP  0  0  0  0  0  0  0  0  0  0  0  0  # atno 17371 bound_to 10713
  140.5214  134.6301  157.5319 LP  0  0  0  0  0  0  0  0  0  0  0  0  # atno 17394 bound_to 11000
  139.9756  134.7220  155.9956 LP  0  0  0  0  0  0  0  0  0  0  0  0  # atno 17395 bound_to 11000

$$$$
