AV-unprocessed.smi:1196|AV-procd|sdf|4999|dock5
  -GOLD-   22720 4 03D 1   1.00000     0.00000
 Structure written by MMmdl.
 37 38  0  0  0  0  0  0  0  0  1 V2000
  152.9698  139.1924  159.2828 C   0  0  0  0  0  0  0  0  0  0  0  0
  152.3722  140.6061  159.3546 C   0  0  1  0  0  0  0  0  0  0  0  0
  153.4730  141.6823  159.4240 C   0  0  0  0  0  0  0  0  0  0  0  0
  152.9252  143.0261  159.4885 N   0  0  0  0  0  0  0  0  0  0  0  0
  152.8929  143.9846  158.4978 C   0  0  0  0  0  0  0  0  0  0  0  0
  152.2935  145.0926  159.0241 C   0  0  0  0  0  0  0  0  0  0  0  0
  151.9911  144.7105  160.3611 C   0  0  0  0  0  0  0  0  0  0  0  0
  152.3687  143.4725  160.6357 N   0  0  0  0  0  0  0  0  0  0  0  0
  151.5125  140.8446  158.1971 N   0  0  0  0  0  0  0  0  0  0  0  0
  151.7704  140.4580  156.9389 C   0  0  0  0  0  0  0  0  0  0  0  0
  152.8082  139.8841  156.6072 O   0  0  0  0  0  0  0  0  0  0  0  0
  150.6828  140.7739  155.9077 C   0  0  0  0  0  0  0  0  0  0  0  0
  150.1241  139.5220  155.2032 C   0  0  0  0  0  0  0  0  0  0  0  0
  149.3588  139.8538  153.9075 C   0  0  1  0  0  0  0  0  0  0  0  0
  148.5872  138.7290  153.4068 N   0  0  0  0  0  0  0  0  0  0  0  0
  147.2777  139.0005  153.3279 C   0  0  0  0  0  0  0  0  0  0  0  0
  146.4037  138.2318  152.9346 O   0  0  0  0  0  0  0  0  0  0  0  0
  147.0897  140.2547  153.7529 N   0  0  0  0  0  0  0  0  0  0  0  0
  148.2260  140.8412  154.1255 C   0  0  0  0  0  0  0  0  0  0  0  0
  148.3602  141.9792  154.5711 O   0  0  0  0  0  0  0  0  0  0  0  0
  153.5987  138.9895  160.1501 H   0  0  0  0  0  0  0  0  0  0  0  0
  153.5832  139.0649  158.3903 H   0  0  0  0  0  0  0  0  0  0  0  0
  152.1874  138.4329  159.2619 H   0  0  0  0  0  0  0  0  0  0  0  0
  151.7760  140.6761  160.2664 H   0  0  0  0  0  0  0  0  0  0  0  0
  154.0891  141.5306  160.3110 H   0  0  0  0  0  0  0  0  0  0  0  0
  154.1423  141.6078  158.5651 H   0  0  0  0  0  0  0  0  0  0  0  0
  153.2974  143.8012  157.5132 H   0  0  0  0  0  0  0  0  0  0  0  0
  152.1021  146.0335  158.5297 H   0  0  0  0  0  0  0  0  0  0  0  0
  151.5117  145.2916  161.1349 H   0  0  0  0  0  0  0  0  0  0  0  0
  150.6339  141.3088  158.3764 H   0  0  0  0  0  0  0  0  0  0  0  0
  149.8681  141.2989  156.4092 H   0  0  0  0  0  0  0  0  0  0  0  0
  151.0987  141.4658  155.1747 H   0  0  0  0  0  0  0  0  0  0  0  0
  150.9396  138.8305  154.9830 H   0  0  0  0  0  0  0  0  0  0  0  0
  149.4536  138.9951  155.8845 H   0  0  0  0  0  0  0  0  0  0  0  0
  150.0306  140.2215  153.1309 H   0  0  0  0  0  0  0  0  0  0  0  0
  149.0055  137.8474  153.1472 H   0  0  0  0  0  0  0  0  0  0  0  0
  146.1862  140.7029  153.7961 H   0  0  0  0  0  0  0  0  0  0  0  0
  1  2  1  0  0  0  0
  1 21  1  0  0  0  0
  1 22  1  0  0  0  0
  1 23  1  0  0  0  0
  2  3  1  0  0  0  0
  2  9  1  0  0  0  0
  2 24  1  0  0  0  0
  3  4  1  0  0  0  0
  3 25  1  0  0  0  0
  3 26  1  0  0  0  0
  4  8  1  0  0  0  0
  4  5  1  0  0  0  0
  5  6  2  0  0  0  0
  5 27  1  0  0  0  0
  6  7  1  0  0  0  0
  6 28  1  0  0  0  0
  7  8  2  0  0  0  0
  7 29  1  0  0  0  0
  9 10  1  0  0  0  0
  9 30  1  0  0  0  0
 10 11  2  0  0  0  0
 10 12  1  0  0  0  0
 12 13  1  0  0  0  0
 12 31  1  0  0  0  0
 12 32  1  0  0  0  0
 13 14  1  0  0  0  0
 13 33  1  0  0  0  0
 13 34  1  0  0  0  0
 14 19  1  0  0  0  0
 14 15  1  0  0  0  0
 14 35  1  0  0  0  0
 15 16  1  0  0  0  0
 15 36  1  0  0  0  0
 16 17  2  0  0  0  0
 16 18  1  0  0  0  0
 18 19  1  0  0  0  0
 18 37  1  0  0  0  0
 19 20  2  0  0  0  0
M  END
> <s_m_source_file>
AV-unprocessed.smi

> <i_m_source_file_index>
1196

> <i_lp_mmshare_version>
43012

> <i_f3d_flags>
0

> <s_epik_input>
bjFbY0hdW2NIXVtjSF1uMVtDSDJdW0NAQEhdKFtDSDNdKVtOSF1DKD1PKVtDSDJdW0NIMl1bQ0BASF0yW05IXUMoPU8pW05IXUMyPU8=

> <s_epik_cmdline>
J2VwaWtfcHl0aG9uJywgJy1waCcsICc3LjAnLCAnLXRuJywgJzgnLCAnLW1hJywgJzIwMCcsICctbWV0YWxfYmluZGluZycsICctaW1hZScsICc8aW5maWxlLm1hZT4nLCAnLW9tYWUnLCAnPG91dGZpbGUubWFlPic=

> <r_lp_tautomer_probability>
1

> <r_epik_Ionization_Penalty>
0.00815973

> <r_epik_Ionization_Penalty_Charging>
0

> <r_epik_Ionization_Penalty_Neutral>
0.00815973

> <r_epik_State_Penalty>
0.00583796

> <r_epik_Charging_Adjusted_Penalty>
0.00583796

> <i_epik_Tot_Q>
0

> <i_epik_Tot_abs_Q>
0

> <r_epik_Metal_State_Penalty>
0.409204

> <b_epik_Metal_Only>
0

> <s_lp_Force_Field>
OPLS_2005

> <r_lp_Energy>
17.2443

> <b_lp_Chiralities_Consistent>
1

> <s_lp_Variant>
AV-unprocessed.smi:1196-4

> <Gold.Version>
5.8.1

> <Gold.Id.Protein>
6NUR|6NUR_protein|mol2

> <Gold.PLP.Fitness>
45.4422

> <Gold.PLP.PLP>
-40.6808

> <Gold.PLP.part.hbond>
-3.1691

> <Gold.PLP.part.metal>
0.0000

> <Gold.PLP.part.buried>
-2.2755

> <Gold.PLP.part.nonpolar>
-35.6683

> <Gold.PLP.part.repulsive>
1.7007

> <Gold.PLP.ligand.clash>
0.0000

> <Gold.PLP.ligand.torsion>
0.5906

> <Gold.PLP.Chemscore.Hbond>
1.9600

> <Gold.PLP.Chemscore.CHOScore>
0.0000

> <Gold.PLP.Chemscore.Metal>
0.0000

> <Gold.Chemscore.Hbonds>
donor molecule, donor type, donor heavy atom, donor atom, acceptor molecule, acceptor atom, score
      L1  H    15    36       P1  7948  0.90
      P1  H  7997  8008       L1    11  1.00

> <Gold.PLP.Chemscore.Internal.Correction>
0.0626

> <Gold.Rescore>
     Score         DG    S(hbond)    S(metal)    S(lipo)     H(rot)  DE(clash)    DE(int)     intcor
     10.47     -13.59       1.97        0.00      77.85       2.96       0.08       3.05       ----

> <Gold.Chemscore.Fitness>
10.4652

> <Gold.Chemscore.DG>
-13.5916

> <Gold.Chemscore.ZeroCoef>
-5.4800

> <Gold.Chemscore.Hbond>
1.9684

> <Gold.Chemscore.Metal>
0.0000

> <Gold.Chemscore.Lipo>
77.8497

> <Gold.Chemscore.Internal_Hbond>
0.0000

> <Gold.Chemscore.DEClash>
0.0806

> <Gold.Chemscore.DEInternal>
3.0459

> <Gold.Chemscore.Rot>
2.9575

> <Gold.Chemscore.Internal.Correction>
   9.000000E+99

> <Gold.Chemscore.Hbonds>
donor molecule, donor type, donor heavy atom, donor atom, acceptor molecule, acceptor atom, score
      L1  H    15    36       P1  7948  0.83
      P1  H  7997  8008       L1    11  0.96

> <Gold.Chemscore.Hbond.Weighted>
-6.5746

> <Gold.Chemscore.Metal.Weighted>
-0.0000

> <Gold.Chemscore.Lipo.Weighted>
-9.1084

> <Gold.Chemscore.Internal_Hbond.Weighted>
0.0000

> <Gold.Chemscore.DEClash.Weighted>
0.0806

> <Gold.Chemscore.DEInternal.Weighted>
3.0459

> <Gold.Chemscore.Rot.Weighted>
7.5713

> <Gold.Chemscore.Internal.Correction.Weighted>
   9.000000E+99

> <Gold.Protein.RotatedTorsions>
[ 6907 6896 6895 6894 ] final  -56.22 input  -60.11 | X-H torsion
[ 7974 7965 7964 7962 ] final -176.34 input  175.53 | X-H torsion
[ 8008 7997 7996 7995 ] final  -35.69 input   59.86 | X-H torsion
[ 10167 10162 10161 10158 ] final  -73.39 input  -65.29 | X-H torsion
[ 10718 10713 10712 10709 ] final  -85.33 input   66.30 | X-H torsion
[ 10763 10752 10751 10750 ] final  -25.15 input  -60.55 | X-H torsion
[ 11005 11000 10999 10996 ] final -154.25 input  -57.11 | X-H torsion

> <Gold.Protein.ActiveResidues>
 VAL166  LYS551  ARG553  GLY616  TRP617  ASP618  TYR619  PRO620  LYS621  CYS622 
 ASP623  PHE694  ASN695  SER759  ASP760  ASP761  ALA762  ILE779  LEU786  VAL792 
 PHE793  MET794  SER795  GLU796  ALA797  LYS798  CYS799  TRP800  GLU811  SER814 

> <Gold.Protein.RotatedAtoms>
  150.8185  134.7380  159.6751 H   0  0  0  0  0  0  0  0  0  0  0  0  # atno 6907 bound_to 6896
  152.4302  134.5788  159.9952 H   0  0  0  0  0  0  0  0  0  0  0  0  # atno 6908 bound_to 6896
  151.5978  133.3322  159.3077 H   0  0  0  0  0  0  0  0  0  0  0  0  # atno 6909 bound_to 6896
  144.7127  140.1185  143.6406 H   0  0  0  0  0  0  0  0  0  0  0  0  # atno 7974 bound_to 7965
  154.4089  140.1650  156.2253 H   0  0  0  0  0  0  0  0  0  0  0  0  # atno 8008 bound_to 7997
  155.9329  140.3413  155.6241 H   0  0  0  0  0  0  0  0  0  0  0  0  # atno 8009 bound_to 7997
  155.7084  140.0753  157.2372 H   0  0  0  0  0  0  0  0  0  0  0  0  # atno 8010 bound_to 7997
  140.5114  143.2344  151.7587 H   0  0  0  0  0  0  0  0  0  0  0  0  # atno 10167 bound_to 10162
  155.9998  130.4727  150.4546 H   0  0  0  0  0  0  0  0  0  0  0  0  # atno 10718 bound_to 10713
  153.6953  135.6959  153.5078 H   0  0  0  0  0  0  0  0  0  0  0  0  # atno 10763 bound_to 10752
  153.2383  135.4314  155.0669 H   0  0  0  0  0  0  0  0  0  0  0  0  # atno 10764 bound_to 10752
  154.8360  135.3501  154.6493 H   0  0  0  0  0  0  0  0  0  0  0  0  # atno 10765 bound_to 10752
  140.6993  134.3955  157.5211 H   0  0  0  0  0  0  0  0  0  0  0  0  # atno 11005 bound_to 11000
  145.9392  139.2657  143.1279 LP  0  0  0  0  0  0  0  0  0  0  0  0  # atno 17320 bound_to 7965
  145.9442  140.8957  143.0292 LP  0  0  0  0  0  0  0  0  0  0  0  0  # atno 17321 bound_to 7965
  139.4897  144.4385  151.9791 LP  0  0  0  0  0  0  0  0  0  0  0  0  # atno 17342 bound_to 10162
  140.3477  144.3126  150.5955 LP  0  0  0  0  0  0  0  0  0  0  0  0  # atno 17343 bound_to 10162
  157.2576  131.0560  151.2340 LP  0  0  0  0  0  0  0  0  0  0  0  0  # atno 17370 bound_to 10713
  157.3467  130.7061  149.6415 LP  0  0  0  0  0  0  0  0  0  0  0  0  # atno 17371 bound_to 10713
  139.8901  134.8813  156.2386 LP  0  0  0  0  0  0  0  0  0  0  0  0  # atno 17394 bound_to 11000
  141.0177  133.7059  156.1216 LP  0  0  0  0  0  0  0  0  0  0  0  0  # atno 17395 bound_to 11000

$$$$
