AV-unprocessed.smi:470|AV-procd|sdf|2654|dock7
  -GOLD-   2262023 63D 1   1.00000     0.00000
 Structure written by MMmdl.
 33 34  0  0  0  0  0  0  0  0  1 V2000
  142.3566  133.0956  148.0999 N   0  0  0  0  0  0  0  0  0  0  0  0
  143.5030  132.7090  148.6665 C   0  0  0  0  0  0  0  0  0  0  0  0
  144.5055  132.4430  148.0068 O   0  0  0  0  0  0  0  0  0  0  0  0
  143.5299  132.6088  150.1926 C   0  0  0  0  0  0  0  0  0  0  0  0
  144.4727  133.6277  150.7639 C   0  0  0  0  0  0  0  0  0  0  0  0
  144.2980  134.9902  150.7920 C   0  0  0  0  0  0  0  0  0  0  0  0
  145.6468  135.8078  151.5344 S   0  0  0  0  0  0  0  0  0  0  0  0
  146.3905  134.2418  151.8184 C   0  0  0  0  0  0  0  0  0  0  0  0
  147.6731  134.1180  152.4130 N   0  0  0  0  0  0  0  0  0  0  0  0
  148.1801  133.1583  153.2139 C   0  0  0  0  0  0  0  0  0  0  0  0
  147.4848  132.1836  153.4966 O   0  0  0  0  0  0  0  0  0  0  0  0
  149.6305  133.2342  153.7521 C   0  0  2  0  0  0  0  0  0  0  0  0
  150.0482  131.9501  154.5162 C   0  0  0  0  0  0  0  0  0  0  0  0
  149.5938  131.9287  155.9670 C   0  0  0  0  0  0  0  0  0  0  0  0
  149.1667  133.0187  156.6263 C   0  0  0  0  0  0  0  0  0  0  0  0
  149.0831  134.3963  155.9954 C   0  0  0  0  0  0  0  0  0  0  0  0
  149.8417  134.4737  154.6539 C   0  0  0  0  0  0  0  0  0  0  0  0
  145.6762  133.2158  151.3457 N   0  0  0  0  0  0  0  0  0  0  0  0
  142.2938  133.1678  147.0948 H   0  0  0  0  0  0  0  0  0  0  0  0
  141.5554  133.3071  148.6771 H   0  0  0  0  0  0  0  0  0  0  0  0
  142.5217  132.7626  150.5794 H   0  0  0  0  0  0  0  0  0  0  0  0
  143.8200  131.5987  150.4858 H   0  0  0  0  0  0  0  0  0  0  0  0
  143.4639  135.5605  150.4108 H   0  0  0  0  0  0  0  0  0  0  0  0
  148.3061  134.8775  152.2085 H   0  0  0  0  0  0  0  0  0  0  0  0
  150.3070  133.2907  152.9014 H   0  0  0  0  0  0  0  0  0  0  0  0
  149.6576  131.0638  154.0141 H   0  0  0  0  0  0  0  0  0  0  0  0
  151.1339  131.8497  154.5071 H   0  0  0  0  0  0  0  0  0  0  0  0
  149.6413  130.9777  156.4771 H   0  0  0  0  0  0  0  0  0  0  0  0
  148.8472  132.9336  157.6546 H   0  0  0  0  0  0  0  0  0  0  0  0
  148.0300  134.6401  155.8524 H   0  0  0  0  0  0  0  0  0  0  0  0
  149.4850  135.1341  156.6900 H   0  0  0  0  0  0  0  0  0  0  0  0
  150.9085  134.5688  154.8599 H   0  0  0  0  0  0  0  0  0  0  0  0
  149.5609  135.3890  154.1324 H   0  0  0  0  0  0  0  0  0  0  0  0
  1  2  1  0  0  0  0
  1 19  1  0  0  0  0
  1 20  1  0  0  0  0
  2  3  2  0  0  0  0
  2  4  1  0  0  0  0
  4  5  1  0  0  0  0
  4 21  1  0  0  0  0
  4 22  1  0  0  0  0
  5 18  1  0  0  0  0
  5  6  2  0  0  0  0
  6  7  1  0  0  0  0
  6 23  1  0  0  0  0
  7  8  1  0  0  0  0
  8  9  1  0  0  0  0
  8 18  2  0  0  0  0
  9 10  1  0  0  0  0
  9 24  1  0  0  0  0
 10 11  2  0  0  0  0
 10 12  1  0  0  0  0
 12 17  1  0  0  0  0
 12 13  1  0  0  0  0
 12 25  1  0  0  0  0
 13 14  1  0  0  0  0
 13 26  1  0  0  0  0
 13 27  1  0  0  0  0
 14 15  2  0  0  0  0
 14 28  1  0  0  0  0
 15 16  1  0  0  0  0
 15 29  1  0  0  0  0
 16 17  1  0  0  0  0
 16 30  1  0  0  0  0
 16 31  1  0  0  0  0
 17 32  1  0  0  0  0
 17 33  1  0  0  0  0
M  END
> <s_m_source_file>
AV-unprocessed.smi

> <i_m_source_file_index>
470

> <i_lp_mmshare_version>
43012

> <i_f3d_flags>
0

> <s_epik_input>
W05IMl1DKD1PKVtDSDJdYzFbY0hdc2MobjEpW05IXUMoPU8pW0NAQEhdMltDSDJdW0NIXT1bQ0hdW0NIMl1bQ0gyXTI=

> <s_epik_cmdline>
J2VwaWtfcHl0aG9uJywgJy1waCcsICc3LjAnLCAnLXRuJywgJzgnLCAnLW1hJywgJzIwMCcsICctbWV0YWxfYmluZGluZycsICctaW1hZScsICc8aW5maWxlLm1hZT4nLCAnLW9tYWUnLCAnPG91dGZpbGUubWFlPic=

> <r_lp_tautomer_probability>
1

> <r_epik_Ionization_Penalty>
0.00025496

> <r_epik_Ionization_Penalty_Charging>
0

> <r_epik_Ionization_Penalty_Neutral>
0.00025496

> <r_epik_State_Penalty>
-0

> <r_epik_Charging_Adjusted_Penalty>
0

> <i_epik_Tot_Q>
0

> <i_epik_Tot_abs_Q>
0

> <r_epik_Metal_State_Penalty>
0.149391

> <b_epik_Metal_Only>
0

> <s_lp_Force_Field>
OPLS_2005

> <r_lp_Energy>
11.789

> <b_lp_Chiralities_Consistent>
1

> <s_lp_Variant>
AV-unprocessed.smi:470-1

> <Gold.Version>
5.8.1

> <Gold.Id.Protein>
6NUR|6NUR_protein|mol2

> <Gold.PLP.Fitness>
43.5243

> <Gold.PLP.PLP>
-34.1815

> <Gold.PLP.part.hbond>
-5.6469

> <Gold.PLP.part.metal>
0.0000

> <Gold.PLP.part.buried>
-2.1084

> <Gold.PLP.part.nonpolar>
-26.9488

> <Gold.PLP.part.repulsive>
0.6929

> <Gold.PLP.ligand.clash>
0.0000

> <Gold.PLP.ligand.torsion>
0.4022

> <Gold.PLP.Chemscore.Hbond>
2.6733

> <Gold.PLP.Chemscore.CHOScore>
0.6992

> <Gold.PLP.Chemscore.Metal>
0.0000

> <Gold.Chemscore.Hbonds>
donor molecule, donor type, donor heavy atom, donor atom, acceptor molecule, acceptor atom, score
      L1  H     1    19       P1 10195  1.00
      L1  H     1    20       P1 10186  0.74
      L1  H     9    24       P1  7948  0.85
      P1  H  7918  7932       L1     3  0.07
      L1  C     6    23       P1 10186  0.16

> <Gold.PLP.Chemscore.Internal.Correction>
0.0298

> <Gold.Rescore>
     Score         DG    S(hbond)    S(metal)    S(lipo)     H(rot)  DE(clash)    DE(int)     intcor
     14.40     -16.10       2.75        0.00      53.89       1.90       0.10       1.60       ----

> <Gold.Chemscore.Fitness>
14.4031

> <Gold.Chemscore.DG>
-16.1017

> <Gold.Chemscore.ZeroCoef>
-5.4800

> <Gold.Chemscore.Hbond>
2.7461

> <Gold.Chemscore.Metal>
0.0000

> <Gold.Chemscore.Lipo>
53.8934

> <Gold.Chemscore.Internal_Hbond>
0.0000

> <Gold.Chemscore.DEClash>
0.0992

> <Gold.Chemscore.DEInternal>
1.5994

> <Gold.Chemscore.Rot>
1.8968

> <Gold.Chemscore.Internal.Correction>
   9.000000E+99

> <Gold.Chemscore.Hbonds>
donor molecule, donor type, donor heavy atom, donor atom, acceptor molecule, acceptor atom, score
      L1  H     1    19       P1 10195  0.98
      L1  H     1    20       P1 10186  0.70
      L1  H     9    24       P1  7948  0.19
      P1  H  7918  7932       L1     3  0.08

> <Gold.Chemscore.Hbond.Weighted>
-9.1719

> <Gold.Chemscore.Metal.Weighted>
-0.0000

> <Gold.Chemscore.Lipo.Weighted>
-6.3055

> <Gold.Chemscore.Internal_Hbond.Weighted>
0.0000

> <Gold.Chemscore.DEClash.Weighted>
0.0992

> <Gold.Chemscore.DEInternal.Weighted>
1.5994

> <Gold.Chemscore.Rot.Weighted>
4.8558

> <Gold.Chemscore.Internal.Correction.Weighted>
   9.000000E+99

> <Gold.Protein.RotatedTorsions>
[ 6907 6896 6895 6894 ] final   36.38 input  -60.11 | X-H torsion
[ 7974 7965 7964 7962 ] final -123.19 input  175.53 | X-H torsion
[ 8008 7997 7996 7995 ] final   41.02 input   59.86 | X-H torsion
[ 10167 10162 10161 10158 ] final   69.78 input  -65.29 | X-H torsion
[ 10718 10713 10712 10709 ] final   14.60 input   66.30 | X-H torsion
[ 10763 10752 10751 10750 ] final  161.27 input  -60.55 | X-H torsion
[ 11005 11000 10999 10996 ] final  -74.58 input  -57.11 | X-H torsion

> <Gold.Protein.ActiveResidues>
 VAL166  LYS551  ARG553  GLY616  TRP617  ASP618  TYR619  PRO620  LYS621  CYS622 
 ASP623  PHE694  ASN695  SER759  ASP760  ASP761  ALA762  ILE779  LEU786  VAL792 
 PHE793  MET794  SER795  GLU796  ALA797  LYS798  CYS799  TRP800  GLU811  SER814 

> <Gold.Protein.RotatedAtoms>
  152.1290  134.9149  160.0559 H   0  0  0  0  0  0  0  0  0  0  0  0  # atno 6907 bound_to 6896
  152.0261  133.3913  159.4286 H   0  0  0  0  0  0  0  0  0  0  0  0  # atno 6908 bound_to 6896
  150.6855  134.3494  159.4946 H   0  0  0  0  0  0  0  0  0  0  0  0  # atno 6909 bound_to 6896
  145.0213  140.7991  143.4379 H   0  0  0  0  0  0  0  0  0  0  0  0  # atno 7974 bound_to 7965
  155.2628  140.3360  155.4272 H   0  0  0  0  0  0  0  0  0  0  0  0  # atno 8008 bound_to 7997
  156.2167  140.1792  156.7615 H   0  0  0  0  0  0  0  0  0  0  0  0  # atno 8009 bound_to 7997
  154.5764  140.0661  156.9025 H   0  0  0  0  0  0  0  0  0  0  0  0  # atno 8010 bound_to 7997
  140.0641  144.5208  150.7274 H   0  0  0  0  0  0  0  0  0  0  0  0  # atno 10167 bound_to 10162
  157.0415  130.6233  149.5752 H   0  0  0  0  0  0  0  0  0  0  0  0  # atno 10718 bound_to 10713
  154.2604  135.2768  155.2780 H   0  0  0  0  0  0  0  0  0  0  0  0  # atno 10763 bound_to 10752
  154.5389  135.5708  153.6825 H   0  0  0  0  0  0  0  0  0  0  0  0  # atno 10764 bound_to 10752
  152.9963  135.6246  154.2754 H   0  0  0  0  0  0  0  0  0  0  0  0  # atno 10765 bound_to 10752
  141.1636  133.6916  156.7386 H   0  0  0  0  0  0  0  0  0  0  0  0  # atno 11005 bound_to 11000
  145.1891  139.2310  143.5252 LP  0  0  0  0  0  0  0  0  0  0  0  0  # atno 17320 bound_to 7965
  146.3486  140.1683  142.8590 LP  0  0  0  0  0  0  0  0  0  0  0  0  # atno 17321 bound_to 7965
  140.7158  143.2543  151.4439 LP  0  0  0  0  0  0  0  0  0  0  0  0  # atno 17342 bound_to 10162
  139.5876  144.1570  152.2048 LP  0  0  0  0  0  0  0  0  0  0  0  0  # atno 17343 bound_to 10162
  156.0036  130.5120  150.7753 LP  0  0  0  0  0  0  0  0  0  0  0  0  # atno 17370 bound_to 10713
  157.5101  131.0925  151.0209 LP  0  0  0  0  0  0  0  0  0  0  0  0  # atno 17371 bound_to 10713
  140.2692  134.8406  157.3831 LP  0  0  0  0  0  0  0  0  0  0  0  0  # atno 17394 bound_to 11000
  140.1538  134.4816  155.7942 LP  0  0  0  0  0  0  0  0  0  0  0  0  # atno 17395 bound_to 11000

$$$$
