AV-unprocessed.smi:794|AV-procd|sdf|3761|dock5
  -GOLD-   22720 1193D 1   1.00000     0.00000
 Structure written by MMmdl.
 41 43  0  0  0  0  0  0  0  0  1 V2000
  147.0788  137.0037  163.4311 C   0  0  0  0  0  0  0  0  0  0  0  0
  147.1188  136.3760  162.0716 C   0  0  0  0  0  0  0  0  0  0  0  0
  147.8492  136.9895  161.0498 N   0  0  0  0  0  0  0  0  0  0  0  0
  147.7835  136.3094  159.9010 C   0  0  0  0  0  0  0  0  0  0  0  0
  148.4257  136.7039  158.6981 N   0  0  0  0  0  0  0  0  0  0  0  0
  149.6955  137.1129  158.5300 C   0  0  0  0  0  0  0  0  0  0  0  0
  150.5408  137.1978  159.4216 O   0  0  0  0  0  0  0  0  0  0  0  0
  149.9396  137.4254  157.2497 N   0  0  0  0  0  0  0  0  0  0  0  0
  151.2202  137.9124  156.7412 C   0  0  1  0  0  0  0  0  0  0  0  0
  151.2838  137.9778  155.1947 C   0  0  1  0  0  0  0  0  0  0  0  0
  150.0866  138.7587  154.6103 C   0  0  0  0  0  0  0  0  0  0  0  0
  150.3876  140.2069  155.0394 C   0  0  0  0  0  0  0  0  0  0  0  0
  151.7260  140.0688  155.7904 C   0  0  2  0  0  0  0  0  0  0  0  0
  152.4152  138.9750  154.9818 C   0  0  0  0  0  0  0  0  0  0  0  0
  151.4778  139.3841  157.1565 C   0  0  2  0  0  0  0  0  0  0  0  0
  152.6533  139.5243  158.1433 C   0  0  0  0  0  0  0  0  0  0  0  0
  153.7872  138.8343  157.6613 O   0  0  0  0  0  0  0  0  0  0  0  0
  146.8107  134.8519  160.0009 S   0  0  0  0  0  0  0  0  0  0  0  0
  146.4925  135.2153  161.6792 C   0  0  0  0  0  0  0  0  0  0  0  0
  145.6350  134.3186  162.5088 C   0  0  0  0  0  0  0  0  0  0  0  0
  147.2675  136.2665  164.2115 H   0  0  0  0  0  0  0  0  0  0  0  0
  146.1039  137.4509  163.6261 H   0  0  0  0  0  0  0  0  0  0  0  0
  147.8288  137.7887  163.5352 H   0  0  0  0  0  0  0  0  0  0  0  0
  147.8468  136.6849  157.8717 H   0  0  0  0  0  0  0  0  0  0  0  0
  149.1917  137.3218  156.5797 H   0  0  0  0  0  0  0  0  0  0  0  0
  152.0260  137.2739  157.1097 H   0  0  0  0  0  0  0  0  0  0  0  0
  151.4395  137.0064  154.7244 H   0  0  0  0  0  0  0  0  0  0  0  0
  150.0772  138.6825  153.5223 H   0  0  0  0  0  0  0  0  0  0  0  0
  149.1190  138.4062  154.9680 H   0  0  0  0  0  0  0  0  0  0  0  0
  150.4980  140.8495  154.1650 H   0  0  0  0  0  0  0  0  0  0  0  0
  149.6006  140.6292  155.6653 H   0  0  0  0  0  0  0  0  0  0  0  0
  152.2779  141.0069  155.8565 H   0  0  0  0  0  0  0  0  0  0  0  0
  153.3658  138.6477  155.4054 H   0  0  0  0  0  0  0  0  0  0  0  0
  152.5680  139.2414  153.9343 H   0  0  0  0  0  0  0  0  0  0  0  0
  150.5910  139.8141  157.6263 H   0  0  0  0  0  0  0  0  0  0  0  0
  152.9190  140.5751  158.2630 H   0  0  0  0  0  0  0  0  0  0  0  0
  152.3940  139.1441  159.1314 H   0  0  0  0  0  0  0  0  0  0  0  0
  153.4975  138.0475  157.2250 H   0  0  0  0  0  0  0  0  0  0  0  0
  144.8601  134.8893  163.0213 H   0  0  0  0  0  0  0  0  0  0  0  0
  146.2309  133.8053  163.2635 H   0  0  0  0  0  0  0  0  0  0  0  0
  145.1429  133.5629  161.8963 H   0  0  0  0  0  0  0  0  0  0  0  0
  1  2  1  0  0  0  0
  1 21  1  0  0  0  0
  1 22  1  0  0  0  0
  1 23  1  0  0  0  0
  2 19  2  0  0  0  0
  2  3  1  0  0  0  0
  3  4  2  0  0  0  0
  4  5  1  0  0  0  0
  4 18  1  0  0  0  0
  5  6  1  0  0  0  0
  5 24  1  0  0  0  0
  6  7  2  0  0  0  0
  6  8  1  0  0  0  0
  8  9  1  0  0  0  0
  8 25  1  0  0  0  0
  9 15  1  0  0  0  0
  9 10  1  0  0  0  0
  9 26  1  0  0  0  0
 10 14  1  0  0  0  0
 10 11  1  0  0  0  0
 10 27  1  0  0  0  0
 11 12  1  0  0  0  0
 11 28  1  0  0  0  0
 11 29  1  0  0  0  0
 12 13  1  0  0  0  0
 12 30  1  0  0  0  0
 12 31  1  0  0  0  0
 13 14  1  0  0  0  0
 13 15  1  0  0  0  0
 13 32  1  0  0  0  0
 14 33  1  0  0  0  0
 14 34  1  0  0  0  0
 15 16  1  0  0  0  0
 15 35  1  0  0  0  0
 16 17  1  0  0  0  0
 16 36  1  0  0  0  0
 16 37  1  0  0  0  0
 17 38  1  0  0  0  0
 18 19  1  0  0  0  0
 19 20  1  0  0  0  0
 20 39  1  0  0  0  0
 20 40  1  0  0  0  0
 20 41  1  0  0  0  0
M  END
> <s_m_source_file>
AV-unprocessed.smi

> <i_m_source_file_index>
794

> <i_lp_mmshare_version>
43012

> <i_f3d_flags>
0

> <s_epik_input>
W0NIM11jMW5jKHNjMVtDSDNdKVtOSF1DKD1PKVtOSF1bQ0BIXShbQ0BASF0yMylbQ0BIXShbQ0gyXVtPSF0pW0NAQEhdKFtDSDJdMylbQ0gyXVtDSDJdMg==

> <s_epik_cmdline>
J2VwaWtfcHl0aG9uJywgJy1waCcsICc3LjAnLCAnLXRuJywgJzgnLCAnLW1hJywgJzIwMCcsICctbWV0YWxfYmluZGluZycsICctaW1hZScsICc8aW5maWxlLm1hZT4nLCAnLW9tYWUnLCAnPG91dGZpbGUubWFlPic=

> <r_lp_tautomer_probability>
0.999

> <r_epik_Ionization_Penalty>
0.000713029

> <r_epik_Ionization_Penalty_Charging>
0

> <r_epik_Ionization_Penalty_Neutral>
0.000713029

> <r_epik_State_Penalty>
0.000177984

> <r_epik_Charging_Adjusted_Penalty>
0.000177984

> <i_epik_Tot_Q>
0

> <i_epik_Tot_abs_Q>
0

> <r_epik_Metal_State_Penalty>
-0

> <b_epik_Metal_Only>
0

> <s_lp_Force_Field>
OPLS_2005

> <r_lp_Energy>
47.7468

> <b_lp_Chiralities_Consistent>
1

> <s_lp_Variant>
AV-unprocessed.smi:794-6

> <Gold.Version>
5.8.1

> <Gold.Id.Protein>
6NUR|6NUR_protein|mol2

> <Gold.PLP.Fitness>
44.0879

> <Gold.PLP.PLP>
-36.2058

> <Gold.PLP.part.hbond>
-2.8304

> <Gold.PLP.part.metal>
0.0000

> <Gold.PLP.part.buried>
-3.5206

> <Gold.PLP.part.nonpolar>
-30.4908

> <Gold.PLP.part.repulsive>
0.1604

> <Gold.PLP.ligand.clash>
0.0000

> <Gold.PLP.ligand.torsion>
0.5554

> <Gold.PLP.Chemscore.Hbond>
2.9920

> <Gold.PLP.Chemscore.CHOScore>
0.0000

> <Gold.PLP.Chemscore.Metal>
0.0000

> <Gold.Chemscore.Hbonds>
donor molecule, donor type, donor heavy atom, donor atom, acceptor molecule, acceptor atom, score
      P1  H  6896  6907       L1     7  0.50
      P1  H  6931  6943       L1     3  1.00
      P1  H  6934  6947       L1     3  0.61
      P1  H  7997  8008       L1    17  1.00

> <Gold.PLP.Chemscore.Internal.Correction>
0.0169

> <Gold.Rescore>
     Score         DG    S(hbond)    S(metal)    S(lipo)     H(rot)  DE(clash)    DE(int)     intcor
     16.37     -18.54       2.24        0.00      86.73       1.78       0.10       2.06       ----

> <Gold.Chemscore.Fitness>
16.3737

> <Gold.Chemscore.DG>
-18.5373

> <Gold.Chemscore.ZeroCoef>
-5.4800

> <Gold.Chemscore.Hbond>
2.2352

> <Gold.Chemscore.Metal>
0.0000

> <Gold.Chemscore.Lipo>
86.7346

> <Gold.Chemscore.Internal_Hbond>
0.0000

> <Gold.Chemscore.DEClash>
0.1033

> <Gold.Chemscore.DEInternal>
2.0603

> <Gold.Chemscore.Rot>
1.7798

> <Gold.Chemscore.Internal.Correction>
   9.000000E+99

> <Gold.Chemscore.Hbonds>
donor molecule, donor type, donor heavy atom, donor atom, acceptor molecule, acceptor atom, score
      P1  H  6896  6907       L1     7  0.28
      P1  H  6931  6943       L1     3  0.57
      P1  H  6934  6947       L1     3  0.33
      P1  H  7997  8008       L1    17  0.47

> <Gold.Chemscore.Hbond.Weighted>
-7.4656

> <Gold.Chemscore.Metal.Weighted>
-0.0000

> <Gold.Chemscore.Lipo.Weighted>
-10.1480

> <Gold.Chemscore.Internal_Hbond.Weighted>
0.0000

> <Gold.Chemscore.DEClash.Weighted>
0.1033

> <Gold.Chemscore.DEInternal.Weighted>
2.0603

> <Gold.Chemscore.Rot.Weighted>
4.5562

> <Gold.Chemscore.Internal.Correction.Weighted>
   9.000000E+99

> <Gold.Protein.RotatedTorsions>
[ 6907 6896 6895 6894 ] final  -23.87 input  -60.11 | X-H torsion
[ 7974 7965 7964 7962 ] final  -23.78 input  175.53 | X-H torsion
[ 8008 7997 7996 7995 ] final -100.33 input   59.86 | X-H torsion
[ 10167 10162 10161 10158 ] final -176.33 input  -65.29 | X-H torsion
[ 10718 10713 10712 10709 ] final -114.85 input   66.30 | X-H torsion
[ 10763 10752 10751 10750 ] final  153.68 input  -60.55 | X-H torsion
[ 11005 11000 10999 10996 ] final   23.51 input  -57.11 | X-H torsion

> <Gold.Protein.ActiveResidues>
 VAL166  LYS551  ARG553  GLY616  TRP617  ASP618  TYR619  PRO620  LYS621  CYS622 
 ASP623  PHE694  ASN695  SER759  ASP760  ASP761  ALA762  ILE779  LEU786  VAL792 
 PHE793  MET794  SER795  GLU796  ALA797  LYS798  CYS799  TRP800  GLU811  SER814 

> <Gold.Protein.RotatedAtoms>
  151.1978  135.0429  159.8859 H   0  0  0  0  0  0  0  0  0  0  0  0  # atno 6907 bound_to 6896
  152.5435  134.0884  159.8276 H   0  0  0  0  0  0  0  0  0  0  0  0  # atno 6908 bound_to 6896
  151.1021  133.5188  159.2641 H   0  0  0  0  0  0  0  0  0  0  0  0  # atno 6909 bound_to 6896
  146.1595  140.4662  142.8577 H   0  0  0  0  0  0  0  0  0  0  0  0  # atno 7974 bound_to 7965
  154.8272  140.0441  157.1452 H   0  0  0  0  0  0  0  0  0  0  0  0  # atno 8008 bound_to 7997
  154.9193  140.3024  155.5204 H   0  0  0  0  0  0  0  0  0  0  0  0  # atno 8009 bound_to 7997
  156.2984  140.2343  156.4241 H   0  0  0  0  0  0  0  0  0  0  0  0  # atno 8010 bound_to 7997
  139.5535  144.2048  152.1119 H   0  0  0  0  0  0  0  0  0  0  0  0  # atno 10167 bound_to 10162
  156.0857  130.6049  150.8829 H   0  0  0  0  0  0  0  0  0  0  0  0  # atno 10718 bound_to 10713
  154.1401  135.2821  155.3163 H   0  0  0  0  0  0  0  0  0  0  0  0  # atno 10763 bound_to 10752
  154.6293  135.5440  153.7666 H   0  0  0  0  0  0  0  0  0  0  0  0  # atno 10764 bound_to 10752
  153.0253  135.6458  154.1548 H   0  0  0  0  0  0  0  0  0  0  0  0  # atno 10765 bound_to 10752
  140.3688  134.2045  155.7668 H   0  0  0  0  0  0  0  0  0  0  0  0  # atno 11005 bound_to 11000
  144.8008  140.6209  143.6479 LP  0  0  0  0  0  0  0  0  0  0  0  0  # atno 17320 bound_to 7965
  145.4624  139.1511  143.3859 LP  0  0  0  0  0  0  0  0  0  0  0  0  # atno 17321 bound_to 7965
  140.1548  144.5081  150.6666 LP  0  0  0  0  0  0  0  0  0  0  0  0  # atno 17342 bound_to 10162
  140.6803  143.2324  151.5401 LP  0  0  0  0  0  0  0  0  0  0  0  0  # atno 17343 bound_to 10162
  157.5990  131.0942  150.8992 LP  0  0  0  0  0  0  0  0  0  0  0  0  # atno 17370 bound_to 10713
  156.9153  130.5295  149.5280 LP  0  0  0  0  0  0  0  0  0  0  0  0  # atno 17371 bound_to 10713
  141.1961  133.8090  157.0686 LP  0  0  0  0  0  0  0  0  0  0  0  0  # atno 17394 bound_to 11000
  140.0568  134.9776  157.1234 LP  0  0  0  0  0  0  0  0  0  0  0  0  # atno 17395 bound_to 11000

$$$$
