AV-unprocessed.smi:496|AV-procd|sdf|2722|dock6
  -GOLD-   2262023163D 1   1.00000     0.00000
 Structure written by MMmdl.
 42 44  0  0  0  0  0  0  0  0  3 V2000
  154.1589  136.2306  159.1334 C   0  0  0  0  0  0  0  0  0  0  0  0
  152.7635  136.4783  159.2060 O   0  0  0  0  0  0  0  0  0  0  0  0
  152.4067  137.5018  160.1237 C   0  0  0  0  0  0  0  0  0  0  0  0
  152.9743  138.8677  159.7011 C   0  0  0  0  0  0  0  0  0  0  0  0
  151.9299  139.7348  159.1218 N   0  0  0  0  0  0  0  0  0  0  0  0
  150.7276  139.4412  158.5288 C   0  0  0  0  0  0  0  0  0  0  0  0
  150.1021  138.0894  158.2915 C   0  0  2  0  0  0  0  0  0  0  0  0
  149.1117  138.1589  157.1213 C   0  0  0  0  0  0  0  0  0  0  0  0
  149.4073  137.5938  159.4807 N   0  5  0  0  0  0  0  0  0  0  0  0
  148.7872  136.3813  159.5520 C   0  0  0  0  0  0  0  0  0  0  0  0
  148.8564  135.4161  158.7831 O   0  0  0  0  0  0  0  0  0  0  0  0
  147.9271  136.2576  160.7524 C   0  0  0  0  0  0  0  0  0  0  0  0
  147.3635  135.1458  161.3206 C   0  0  0  0  0  0  0  0  0  0  0  0
  146.6334  135.5889  162.4581 C   0  0  0  0  0  0  0  0  0  0  0  0
  146.8011  136.9426  162.5072 C   0  0  0  0  0  0  0  0  0  0  0  0
  147.5845  137.3663  161.4789 O   0  0  0  0  0  0  0  0  0  0  0  0
  150.1619  140.6306  158.1722 N   0  3  0  0  0  0  0  0  0  0  0  0
  150.9839  141.6887  158.5543 C   0  0  0  0  0  0  0  0  0  0  0  0
  150.8217  143.0635  158.4154 C   0  0  0  0  0  0  0  0  0  0  0  0
  151.8528  143.8769  158.9286 C   0  0  0  0  0  0  0  0  0  0  0  0
  152.9874  143.3173  159.5511 C   0  0  0  0  0  0  0  0  0  0  0  0
  153.1404  141.9215  159.6839 C   0  0  0  0  0  0  0  0  0  0  0  0
  152.1178  141.1229  159.1707 C   0  0  0  0  0  0  0  0  0  0  0  0
  154.3527  135.4762  158.3710 H   0  0  0  0  0  0  0  0  0  0  0  0
  154.5556  135.8551  160.0763 H   0  0  0  0  0  0  0  0  0  0  0  0
  154.7068  137.1324  158.8577 H   0  0  0  0  0  0  0  0  0  0  0  0
  151.3243  137.5464  160.2549 H   0  0  0  0  0  0  0  0  0  0  0  0
  152.8224  137.2261  161.0932 H   0  0  0  0  0  0  0  0  0  0  0  0
  153.4323  139.3779  160.5481 H   0  0  0  0  0  0  0  0  0  0  0  0
  153.7666  138.7543  158.9623 H   0  0  0  0  0  0  0  0  0  0  0  0
  150.8999  137.4056  157.9982 H   0  0  0  0  0  0  0  0  0  0  0  0
  149.6105  138.4882  156.2093 H   0  0  0  0  0  0  0  0  0  0  0  0
  148.2969  138.8546  157.3253 H   0  0  0  0  0  0  0  0  0  0  0  0
  148.6722  137.1815  156.9186 H   0  0  0  0  0  0  0  0  0  0  0  0
  147.4656  134.1332  160.9590 H   0  0  0  0  0  0  0  0  0  0  0  0
  146.0595  134.9927  163.1518 H   0  0  0  0  0  0  0  0  0  0  0  0
  146.4520  137.7193  163.1714 H   0  0  0  0  0  0  0  0  0  0  0  0
  149.9500  143.4925  157.9433 H   0  0  0  0  0  0  0  0  0  0  0  0
  151.7697  144.9509  158.8466 H   0  0  0  0  0  0  0  0  0  0  0  0
  153.7557  143.9718  159.9364 H   0  0  0  0  0  0  0  0  0  0  0  0
  154.0117  141.5055  160.1677 H   0  0  0  0  0  0  0  0  0  0  0  0
  149.2596  140.6970  157.7187 H   0  0  0  0  0  0  0  0  0  0  0  0
  1  2  1  0  0  0  0
  1 24  1  0  0  0  0
  1 25  1  0  0  0  0
  1 26  1  0  0  0  0
  2  3  1  0  0  0  0
  3  4  1  0  0  0  0
  3 27  1  0  0  0  0
  3 28  1  0  0  0  0
  4  5  1  0  0  0  0
  4 29  1  0  0  0  0
  4 30  1  0  0  0  0
  5 23  1  0  0  0  0
  5  6  1  0  0  0  0
  6  7  1  0  0  0  0
  6 17  2  0  0  0  0
  7  8  1  0  0  0  0
  7  9  1  0  0  0  0
  7 31  1  0  0  0  0
  8 32  1  0  0  0  0
  8 33  1  0  0  0  0
  8 34  1  0  0  0  0
  9 10  1  0  0  0  0
 10 11  2  0  0  0  0
 10 12  1  0  0  0  0
 12 16  1  0  0  0  0
 12 13  2  0  0  0  0
 13 14  1  0  0  0  0
 13 35  1  0  0  0  0
 14 15  2  0  0  0  0
 14 36  1  0  0  0  0
 15 16  1  0  0  0  0
 15 37  1  0  0  0  0
 17 18  1  0  0  0  0
 17 42  1  0  0  0  0
 18 23  2  0  0  0  0
 18 19  1  0  0  0  0
 19 20  2  0  0  0  0
 19 38  1  0  0  0  0
 20 21  1  0  0  0  0
 20 39  1  0  0  0  0
 21 22  2  0  0  0  0
 21 40  1  0  0  0  0
 22 23  1  0  0  0  0
 22 41  1  0  0  0  0
M  CHG  1   9  -1
M  CHG  1  17   1
M  END
> <s_m_source_file>
AV-unprocessed.smi

> <i_m_source_file_index>
496

> <i_lp_mmshare_version>
43012

> <i_f3d_flags>
0

> <s_epik_input>
W2NIXTFbY0hdW2NIXVtjSF1jKGMxMiluKFtDSDJdW0NIMl1PW0NIM10pYyhuMilbQ0BIXShbQ0gzXSlbTkhdQyg9TyljM1tjSF1bY0hdW2NIXW8z

> <s_epik_cmdline>
J2VwaWtfcHl0aG9uJywgJy1waCcsICc3LjAnLCAnLXRuJywgJzgnLCAnLW1hJywgJzIwMCcsICctbWV0YWxfYmluZGluZycsICctaW1hZScsICc8aW5maWxlLm1hZT4nLCAnLW9tYWUnLCAnPG91dGZpbGUubWFlPic=

> <r_epik_Ionization_Penalty>
6.2189

> <r_epik_Ionization_Penalty_Charging>
6.2189

> <r_epik_Ionization_Penalty_Neutral>
2.56052e-12

> <r_epik_State_Penalty>
7.14475

> <r_epik_Charging_Adjusted_Penalty>
13.3636

> <i_epik_Tot_Q>
0

> <i_epik_Tot_abs_Q>
2

> <r_epik_Metal_State_Penalty>
3.17915

> <b_epik_Metal_Only>
1

> <s_lp_Force_Field>
OPLS_2005

> <r_lp_Energy>
11.1611

> <b_lp_Chiralities_Consistent>
1

> <s_lp_Variant>
AV-unprocessed.smi:496-7

> <Gold.Version>
5.8.1

> <Gold.Id.Protein>
6NUR|6NUR_protein|mol2

> <Gold.PLP.Fitness>
54.1426

> <Gold.PLP.PLP>
-45.8957

> <Gold.PLP.part.hbond>
-5.0000

> <Gold.PLP.part.metal>
0.0000

> <Gold.PLP.part.buried>
-5.6402

> <Gold.PLP.part.nonpolar>
-35.9126

> <Gold.PLP.part.repulsive>
0.1727

> <Gold.PLP.ligand.clash>
0.0000

> <Gold.PLP.ligand.torsion>
1.4433

> <Gold.PLP.Chemscore.Hbond>
3.6880

> <Gold.PLP.Chemscore.CHOScore>
0.0000

> <Gold.PLP.Chemscore.Metal>
0.0000

> <Gold.Chemscore.Hbonds>
donor molecule, donor type, donor heavy atom, donor atom, acceptor molecule, acceptor atom, score
      P1  H  6896  6908       L1    11  0.60
      P1  H  6896  6909       L1     2  0.94
      P1  H  6931  6943       L1    16  0.88
      P1  H  6934  6947       L1    16  0.80

> <Gold.PLP.Chemscore.Internal.Correction>
0.0695

> <Gold.Rescore>
     Score         DG    S(hbond)    S(metal)    S(lipo)     H(rot)  DE(clash)    DE(int)     intcor
     21.75     -24.17       3.17        0.00     109.25       1.83       0.12       2.30       ----

> <Gold.Chemscore.Fitness>
21.7499

> <Gold.Chemscore.DG>
-24.1689

> <Gold.Chemscore.ZeroCoef>
-5.4800

> <Gold.Chemscore.Hbond>
3.1742

> <Gold.Chemscore.Metal>
0.0000

> <Gold.Chemscore.Lipo>
109.2547

> <Gold.Chemscore.Internal_Hbond>
0.0000

> <Gold.Chemscore.DEClash>
0.1162

> <Gold.Chemscore.DEInternal>
2.3028

> <Gold.Chemscore.Rot>
1.8343

> <Gold.Chemscore.Internal.Correction>
   9.000000E+99

> <Gold.Chemscore.Hbonds>
donor molecule, donor type, donor heavy atom, donor atom, acceptor molecule, acceptor atom, score
      P1  H  6896  6908       L1    11  0.29
      P1  H  6896  6909       L1     2  0.14
      P1  H  6931  6943       L1    16  0.60
      P1  H  6934  6947       L1    16  0.68

> <Gold.Chemscore.Hbond.Weighted>
-10.6019

> <Gold.Chemscore.Metal.Weighted>
-0.0000

> <Gold.Chemscore.Lipo.Weighted>
-12.7828

> <Gold.Chemscore.Internal_Hbond.Weighted>
0.0000

> <Gold.Chemscore.DEClash.Weighted>
0.1162

> <Gold.Chemscore.DEInternal.Weighted>
2.3028

> <Gold.Chemscore.Rot.Weighted>
4.6958

> <Gold.Chemscore.Internal.Correction.Weighted>
   9.000000E+99

> <Gold.Protein.RotatedTorsions>
[ 6907 6896 6895 6894 ] final  151.06 input  -60.11 | X-H torsion
[ 7974 7965 7964 7962 ] final   65.79 input  175.53 | X-H torsion
[ 8008 7997 7996 7995 ] final  -29.93 input   59.86 | X-H torsion
[ 10167 10162 10161 10158 ] final -143.94 input  -65.29 | X-H torsion
[ 10718 10713 10712 10709 ] final  168.86 input   66.30 | X-H torsion
[ 10763 10752 10751 10750 ] final   45.95 input  -60.55 | X-H torsion
[ 11005 11000 10999 10996 ] final -118.49 input  -57.11 | X-H torsion

> <Gold.Protein.ActiveResidues>
 VAL166  LYS551  ARG553  GLY616  TRP617  ASP618  TYR619  PRO620  LYS621  CYS622 
 ASP623  PHE694  ASN695  SER759  ASP760  ASP761  ALA762  ILE779  LEU786  VAL792 
 PHE793  MET794  SER795  GLU796  ALA797  LYS798  CYS799  TRP800  GLU811  SER814 

> <Gold.Protein.RotatedAtoms>
  152.1059  133.4274  159.4608 H   0  0  0  0  0  0  0  0  0  0  0  0  # atno 6907 bound_to 6896
  150.6865  134.2706  159.4595 H   0  0  0  0  0  0  0  0  0  0  0  0  # atno 6908 bound_to 6896
  152.0570  134.9617  160.0625 H   0  0  0  0  0  0  0  0  0  0  0  0  # atno 6909 bound_to 6896
  145.8342  139.3157  143.0969 H   0  0  0  0  0  0  0  0  0  0  0  0  # atno 7974 bound_to 7965
  154.4270  140.1805  156.1326 H   0  0  0  0  0  0  0  0  0  0  0  0  # atno 8008 bound_to 7997
  156.0055  140.3356  155.6863 H   0  0  0  0  0  0  0  0  0  0  0  0  # atno 8009 bound_to 7997
  155.6183  140.0657  157.2676 H   0  0  0  0  0  0  0  0  0  0  0  0  # atno 8010 bound_to 7997
  139.7946  143.7919  152.2653 H   0  0  0  0  0  0  0  0  0  0  0  0  # atno 10167 bound_to 10162
  157.0310  131.0259  151.2744 H   0  0  0  0  0  0  0  0  0  0  0  0  # atno 10718 bound_to 10713
  152.9817  135.6023  154.3520 H   0  0  0  0  0  0  0  0  0  0  0  0  # atno 10763 bound_to 10752
  154.3208  135.2770  155.2522 H   0  0  0  0  0  0  0  0  0  0  0  0  # atno 10764 bound_to 10752
  154.4689  135.5947  153.6363 H   0  0  0  0  0  0  0  0  0  0  0  0  # atno 10765 bound_to 10752
  141.0282  134.0022  157.3183 H   0  0  0  0  0  0  0  0  0  0  0  0  # atno 11005 bound_to 11000
  145.9537  140.8889  143.0246 LP  0  0  0  0  0  0  0  0  0  0  0  0  # atno 17320 bound_to 7965
  144.6737  140.1715  143.7414 LP  0  0  0  0  0  0  0  0  0  0  0  0  # atno 17321 bound_to 7965
  139.8020  144.7370  150.9812 LP  0  0  0  0  0  0  0  0  0  0  0  0  # atno 17342 bound_to 10162
  140.7820  143.4335  151.0658 LP  0  0  0  0  0  0  0  0  0  0  0  0  # atno 17343 bound_to 10162
  157.5178  130.7979  149.7775 LP  0  0  0  0  0  0  0  0  0  0  0  0  # atno 17370 bound_to 10713
  156.0069  130.3851  150.2398 LP  0  0  0  0  0  0  0  0  0  0  0  0  # atno 17371 bound_to 10713
  139.9190  135.0199  156.7991 LP  0  0  0  0  0  0  0  0  0  0  0  0  # atno 17394 bound_to 11000
  140.6454  133.9780  155.7728 LP  0  0  0  0  0  0  0  0  0  0  0  0  # atno 17395 bound_to 11000

$$$$
