AV-unprocessed.smi:910|AV-procd|sdf|4126|dock8
  -GOLD-   22720 2 33D 1   1.00000     0.00000
 Structure written by MMmdl.
 46 47  0  0  0  0  0  0  0  0  1 V2000
  146.8805  133.7586  162.1227 C   0  0  0  0  0  0  0  0  0  0  0  0
  147.2190  135.0888  161.4868 C   0  0  0  0  0  0  0  0  0  0  0  0
  147.8059  135.1745  160.2554 N   0  0  0  0  0  0  0  0  0  0  0  0
  147.9939  136.5219  159.9558 C   0  0  0  0  0  0  0  0  0  0  0  0
  148.5164  137.1258  158.9332 N   0  0  0  0  0  0  0  0  0  0  0  0
  148.9907  136.3275  157.9089 C   0  0  0  0  0  0  0  0  0  0  0  0
  149.5414  135.2297  158.0339 O   0  0  0  0  0  0  0  0  0  0  0  0
  148.8563  136.9342  156.7188 N   0  0  0  0  0  0  0  0  0  0  0  0
  149.3411  136.4086  155.4462 C   0  0  0  0  0  0  0  0  0  0  0  0
  150.1192  137.4730  154.6601 C   0  0  0  0  0  0  0  0  0  0  0  0
  149.7596  138.7613  155.1328 O   0  0  0  0  0  0  0  0  0  0  0  0
  150.6911  139.7885  154.8198 C   0  0  2  0  0  0  0  0  0  0  0  0
  152.0425  139.4564  155.4829 C   0  0  0  0  0  0  0  0  0  0  0  0
  151.9372  139.4631  157.0180 C   0  0  0  0  0  0  0  0  0  0  0  0
  151.3710  140.7947  157.5355 C   0  0  0  0  0  0  0  0  0  0  0  0
  150.0218  141.1247  156.8768 C   0  0  0  0  0  0  0  0  0  0  0  0
  150.1354  141.1323  155.3394 C   0  0  2  0  0  0  0  0  0  0  0  0
  148.8089  141.5055  154.6597 C   0  0  0  0  0  0  0  0  0  0  0  0
  147.4998  137.2258  161.0246 O   0  0  0  0  0  0  0  0  0  0  0  0
  147.0382  136.3271  161.9391 C   0  0  0  0  0  0  0  0  0  0  0  0
  146.4370  136.8429  163.2268 C   0  0  0  0  0  0  0  0  0  0  0  0
  145.8114  133.7010  162.3281 H   0  0  0  0  0  0  0  0  0  0  0  0
  147.4203  133.6415  163.0626 H   0  0  0  0  0  0  0  0  0  0  0  0
  147.1498  132.9313  161.4661 H   0  0  0  0  0  0  0  0  0  0  0  0
  148.0560  134.3705  159.6976 H   0  0  0  0  0  0  0  0  0  0  0  0
  148.4123  137.8408  156.6986 H   0  0  0  0  0  0  0  0  0  0  0  0
  149.9583  135.5215  155.5973 H   0  0  0  0  0  0  0  0  0  0  0  0
  148.4782  136.0848  154.8642 H   0  0  0  0  0  0  0  0  0  0  0  0
  151.1899  137.3076  154.7862 H   0  0  0  0  0  0  0  0  0  0  0  0
  149.8991  137.3959  153.5943 H   0  0  0  0  0  0  0  0  0  0  0  0
  150.8238  139.8659  153.7388 H   0  0  0  0  0  0  0  0  0  0  0  0
  152.4072  138.4877  155.1406 H   0  0  0  0  0  0  0  0  0  0  0  0
  152.7871  140.1892  155.1699 H   0  0  0  0  0  0  0  0  0  0  0  0
  151.2961  138.6434  157.3448 H   0  0  0  0  0  0  0  0  0  0  0  0
  152.9177  139.2807  157.4582 H   0  0  0  0  0  0  0  0  0  0  0  0
  151.2549  140.7531  158.6189 H   0  0  0  0  0  0  0  0  0  0  0  0
  152.0816  141.5966  157.3315 H   0  0  0  0  0  0  0  0  0  0  0  0
  149.2734  140.3968  157.1926 H   0  0  0  0  0  0  0  0  0  0  0  0
  149.6747  142.0962  157.2293 H   0  0  0  0  0  0  0  0  0  0  0  0
  150.8540  141.9086  155.0721 H   0  0  0  0  0  0  0  0  0  0  0  0
  148.0426  140.7515  154.8358 H   0  0  0  0  0  0  0  0  0  0  0  0
  148.9359  141.5978  153.5810 H   0  0  0  0  0  0  0  0  0  0  0  0
  148.4306  142.4585  155.0301 H   0  0  0  0  0  0  0  0  0  0  0  0
  145.3489  136.8008  163.1775 H   0  0  0  0  0  0  0  0  0  0  0  0
  146.7360  137.8767  163.4009 H   0  0  0  0  0  0  0  0  0  0  0  0
  146.7700  136.2401  164.0716 H   0  0  0  0  0  0  0  0  0  0  0  0
  1 22  1  0  0  0  0
  1 23  1  0  0  0  0
  1 24  1  0  0  0  0
  1  2  1  0  0  0  0
  2  3  1  0  0  0  0
  2 20  2  0  0  0  0
  3 25  1  0  0  0  0
  3  4  1  0  0  0  0
  4 19  1  0  0  0  0
  4  5  2  0  0  0  0
  5  6  1  0  0  0  0
  6  8  1  0  0  0  0
  6  7  2  0  0  0  0
  8  9  1  0  0  0  0
  8 26  1  0  0  0  0
  9 10  1  0  0  0  0
  9 27  1  0  0  0  0
  9 28  1  0  0  0  0
 10 11  1  0  0  0  0
 10 29  1  0  0  0  0
 10 30  1  0  0  0  0
 11 12  1  0  0  0  0
 12 17  1  0  0  0  0
 12 13  1  0  0  0  0
 12 31  1  0  0  0  0
 13 14  1  0  0  0  0
 13 32  1  0  0  0  0
 13 33  1  0  0  0  0
 14 15  1  0  0  0  0
 14 34  1  0  0  0  0
 14 35  1  0  0  0  0
 15 16  1  0  0  0  0
 15 36  1  0  0  0  0
 15 37  1  0  0  0  0
 16 17  1  0  0  0  0
 16 38  1  0  0  0  0
 16 39  1  0  0  0  0
 17 18  1  0  0  0  0
 17 40  1  0  0  0  0
 18 41  1  0  0  0  0
 18 42  1  0  0  0  0
 18 43  1  0  0  0  0
 19 20  1  0  0  0  0
 20 21  1  0  0  0  0
 21 44  1  0  0  0  0
 21 45  1  0  0  0  0
 21 46  1  0  0  0  0
M  END
> <s_m_source_file>
AV-unprocessed.smi

> <i_m_source_file_index>
910

> <i_lp_mmshare_version>
43012

> <i_f3d_flags>
0

> <s_epik_input>
W0NIM11jMW5jKG9jMVtDSDNdKVtOSF1DKD1PKVtOSF1bQ0gyXVtDSDJdT1tDQEBIXTJbQ0gyXVtDSDJdW0NIMl1bQ0gyXVtDQEhdMltDSDNd

> <s_epik_cmdline>
J2VwaWtfcHl0aG9uJywgJy1waCcsICc3LjAnLCAnLXRuJywgJzgnLCAnLW1hJywgJzIwMCcsICctbWV0YWxfYmluZGluZycsICctaW1hZScsICc8aW5maWxlLm1hZT4nLCAnLW9tYWUnLCAnPG91dGZpbGUubWFlPic=

> <r_lp_tautomer_probability>
0.107061

> <r_epik_Ionization_Penalty>
0.727192

> <r_epik_Ionization_Penalty_Charging>
0.726719

> <r_epik_Ionization_Penalty_Neutral>
0.000473387

> <r_epik_State_Penalty>
2.53712

> <r_epik_Charging_Adjusted_Penalty>
3.26383

> <i_epik_Tot_Q>
0

> <i_epik_Tot_abs_Q>
0

> <r_epik_Metal_State_Penalty>
3.71015

> <b_epik_Metal_Only>
0

> <s_lp_Force_Field>
OPLS_2005

> <r_lp_Energy>
29.7751

> <b_lp_Chiralities_Consistent>
1

> <s_lp_Variant>
AV-unprocessed.smi:910-11

> <Gold.Version>
5.8.1

> <Gold.Id.Protein>
6NUR|6NUR_protein|mol2

> <Gold.PLP.Fitness>
42.4292

> <Gold.PLP.PLP>
-35.3718

> <Gold.PLP.part.hbond>
-3.0000

> <Gold.PLP.part.metal>
0.0000

> <Gold.PLP.part.buried>
-2.6938

> <Gold.PLP.part.nonpolar>
-30.4430

> <Gold.PLP.part.repulsive>
0.2004

> <Gold.PLP.ligand.clash>
0.0000

> <Gold.PLP.ligand.torsion>
0.6646

> <Gold.PLP.Chemscore.Hbond>
2.7840

> <Gold.PLP.Chemscore.CHOScore>
0.0000

> <Gold.PLP.Chemscore.Metal>
0.0000

> <Gold.Chemscore.Hbonds>
donor molecule, donor type, donor heavy atom, donor atom, acceptor molecule, acceptor atom, score
      P1  H  6896  6909       L1     7  1.00
      P1  H  6931  6943       L1    19  0.83
      P1  H  6934  6947       L1    19  0.99

> <Gold.PLP.Chemscore.Internal.Correction>
0.0348

> <Gold.Rescore>
     Score         DG    S(hbond)    S(metal)    S(lipo)     H(rot)  DE(clash)    DE(int)     intcor
     16.46     -19.94       2.48        0.00      88.97       1.66       1.44       2.04       ----

> <Gold.Chemscore.Fitness>
16.4606

> <Gold.Chemscore.DG>
-19.9400

> <Gold.Chemscore.ZeroCoef>
-5.4800

> <Gold.Chemscore.Hbond>
2.4833

> <Gold.Chemscore.Metal>
0.0000

> <Gold.Chemscore.Lipo>
88.9696

> <Gold.Chemscore.Internal_Hbond>
0.0000

> <Gold.Chemscore.DEClash>
1.4396

> <Gold.Chemscore.DEInternal>
2.0398

> <Gold.Chemscore.Rot>
1.6576

> <Gold.Chemscore.Internal.Correction>
   9.000000E+99

> <Gold.Chemscore.Hbonds>
donor molecule, donor type, donor heavy atom, donor atom, acceptor molecule, acceptor atom, score
      P1  H  6896  6909       L1     7  0.95
      P1  H  6931  6943       L1    19  0.35
      P1  H  6934  6947       L1    19  0.92

> <Gold.Chemscore.Hbond.Weighted>
-8.2942

> <Gold.Chemscore.Metal.Weighted>
-0.0000

> <Gold.Chemscore.Lipo.Weighted>
-10.4094

> <Gold.Chemscore.Internal_Hbond.Weighted>
0.0000

> <Gold.Chemscore.DEClash.Weighted>
1.4396

> <Gold.Chemscore.DEInternal.Weighted>
2.0398

> <Gold.Chemscore.Rot.Weighted>
4.2436

> <Gold.Chemscore.Internal.Correction.Weighted>
   9.000000E+99

> <Gold.Protein.RotatedTorsions>
[ 6907 6896 6895 6894 ] final   33.45 input  -60.11 | X-H torsion
[ 7974 7965 7964 7962 ] final  -90.02 input  175.53 | X-H torsion
[ 8008 7997 7996 7995 ] final  165.22 input   59.86 | X-H torsion
[ 10167 10162 10161 10158 ] final   51.11 input  -65.29 | X-H torsion
[ 10718 10713 10712 10709 ] final -152.99 input   66.30 | X-H torsion
[ 10763 10752 10751 10750 ] final -155.73 input  -60.55 | X-H torsion
[ 11005 11000 10999 10996 ] final  -38.98 input  -57.11 | X-H torsion

> <Gold.Protein.ActiveResidues>
 VAL166  LYS551  ARG553  GLY616  TRP617  ASP618  TYR619  PRO620  LYS621  CYS622 
 ASP623  PHE694  ASN695  SER759  ASP760  ASP761  ALA762  ILE779  LEU786  VAL792 
 PHE793  MET794  SER795  GLU796  ALA797  LYS798  CYS799  TRP800  GLU811  SER814 

> <Gold.Protein.RotatedAtoms>
  152.0886  134.9422  160.0572 H   0  0  0  0  0  0  0  0  0  0  0  0  # atno 6907 bound_to 6896
  152.0682  133.4089  159.4456 H   0  0  0  0  0  0  0  0  0  0  0  0  # atno 6908 bound_to 6896
  150.6836  134.3042  159.4762 H   0  0  0  0  0  0  0  0  0  0  0  0  # atno 6909 bound_to 6896
  145.4320  140.9556  143.2122 H   0  0  0  0  0  0  0  0  0  0  0  0  # atno 7974 bound_to 7965
  156.1818  140.1676  156.8260 H   0  0  0  0  0  0  0  0  0  0  0  0  # atno 8008 bound_to 7997
  154.5368  140.0745  156.8474 H   0  0  0  0  0  0  0  0  0  0  0  0  # atno 8009 bound_to 7997
  155.3295  140.3378  155.4242 H   0  0  0  0  0  0  0  0  0  0  0  0  # atno 8010 bound_to 7997
  140.2654  144.3326  150.6305 H   0  0  0  0  0  0  0  0  0  0  0  0  # atno 10167 bound_to 10162
  156.4798  130.8298  151.2525 H   0  0  0  0  0  0  0  0  0  0  0  0  # atno 10718 bound_to 10713
  154.7766  135.3161  154.8079 H   0  0  0  0  0  0  0  0  0  0  0  0  # atno 10763 bound_to 10752
  153.8801  135.6836  153.4772 H   0  0  0  0  0  0  0  0  0  0  0  0  # atno 10764 bound_to 10752
  153.1391  135.4747  154.9404 H   0  0  0  0  0  0  0  0  0  0  0  0  # atno 10765 bound_to 10752
  141.0068  133.6928  156.2125 H   0  0  0  0  0  0  0  0  0  0  0  0  # atno 11005 bound_to 11000
  144.8176  139.5848  143.7001 LP  0  0  0  0  0  0  0  0  0  0  0  0  # atno 17320 bound_to 7965
  146.2602  139.6392  142.9367 LP  0  0  0  0  0  0  0  0  0  0  0  0  # atno 17321 bound_to 7965
  140.5932  143.2167  151.7213 LP  0  0  0  0  0  0  0  0  0  0  0  0  # atno 17342 bound_to 10162
  139.5004  144.3907  152.0283 LP  0  0  0  0  0  0  0  0  0  0  0  0  # atno 17343 bound_to 10162
  157.7484  131.0049  150.3092 LP  0  0  0  0  0  0  0  0  0  0  0  0  # atno 17370 bound_to 10713
  156.3533  130.3834  149.7311 LP  0  0  0  0  0  0  0  0  0  0  0  0  # atno 17371 bound_to 10713
  140.6799  134.4778  157.5589 LP  0  0  0  0  0  0  0  0  0  0  0  0  # atno 17394 bound_to 11000
  139.9068  134.8432  156.1677 LP  0  0  0  0  0  0  0  0  0  0  0  0  # atno 17395 bound_to 11000

$$$$
