AV-unprocessed.smi:332|AV-procd|sdf|2357|dock4
  -GOLD-   2262022273D 1   1.00000     0.00000
 Structure written by MMmdl.
 42 44  0  0  0  0  0  0  0  0  1 V2000
  152.4279  140.0156  158.9509 C   0  0  0  0  0  0  0  0  0  0  0  0
  151.6824  141.0929  158.1465 C   0  0  1  0  0  0  0  0  0  0  0  0
  150.5286  140.4865  157.4850 N   0  0  0  0  0  0  0  0  0  0  0  0
  150.4079  140.2537  156.1690 C   0  0  0  0  0  0  0  0  0  0  0  0
  151.2831  140.5359  155.3492 O   0  0  0  0  0  0  0  0  0  0  0  0
  149.0889  139.5999  155.7309 C   0  0  0  0  0  0  0  0  0  0  0  0
  148.0059  140.5633  155.4701 N   0  0  0  0  0  0  0  0  0  0  0  0
  146.9000  140.5319  156.3430 C   0  0  0  0  0  0  0  0  0  0  0  0
  145.8563  141.3634  156.1973 C   0  0  0  0  0  0  0  0  0  0  0  0
  145.8861  142.3119  155.1095 C   0  0  0  0  0  0  0  0  0  0  0  0
  146.9407  142.3533  154.2710 C   0  0  0  0  0  0  0  0  0  0  0  0
  148.0839  141.4461  154.4263 C   0  0  0  0  0  0  0  0  0  0  0  0
  149.0516  141.4781  153.6655 O   0  0  0  0  0  0  0  0  0  0  0  0
  151.2036  142.2704  159.0281 C   0  0  2  0  0  0  0  0  0  0  0  0
  150.5709  143.4452  158.2462 C   0  0  0  0  0  0  0  0  0  0  0  0
  151.3033  144.6749  158.8144 C   0  0  2  0  0  0  0  0  0  0  0  0
  152.7387  144.7073  158.2582 C   0  0  0  0  0  0  0  0  0  0  0  0
  153.4214  143.5579  159.0212 C   0  0  0  0  0  0  0  0  0  0  0  0
  152.2757  142.9903  159.8844 C   0  0  1  0  0  0  0  0  0  0  0  0
  151.5363  144.2694  160.2653 C   0  0  0  0  0  0  0  0  0  0  0  0
  153.3312  140.4171  159.4101 H   0  0  0  0  0  0  0  0  0  0  0  0
  152.7325  139.1875  158.3102 H   0  0  0  0  0  0  0  0  0  0  0  0
  151.8018  139.6085  159.7457 H   0  0  0  0  0  0  0  0  0  0  0  0
  152.3597  141.4809  157.3851 H   0  0  0  0  0  0  0  0  0  0  0  0
  149.7572  140.2215  158.0800 H   0  0  0  0  0  0  0  0  0  0  0  0
  149.2776  138.9910  154.8450 H   0  0  0  0  0  0  0  0  0  0  0  0
  148.7818  138.8909  156.5015 H   0  0  0  0  0  0  0  0  0  0  0  0
  146.9584  139.7987  157.1344 H   0  0  0  0  0  0  0  0  0  0  0  0
  145.0183  141.3265  156.8778 H   0  0  0  0  0  0  0  0  0  0  0  0
  145.0598  142.9929  154.9680 H   0  0  0  0  0  0  0  0  0  0  0  0
  146.9463  143.0712  153.4638 H   0  0  0  0  0  0  0  0  0  0  0  0
  150.4502  141.8814  159.7160 H   0  0  0  0  0  0  0  0  0  0  0  0
  150.7037  143.3616  157.1666 H   0  0  0  0  0  0  0  0  0  0  0  0
  149.4994  143.5016  158.4421 H   0  0  0  0  0  0  0  0  0  0  0  0
  150.7602  145.6102  158.6762 H   0  0  0  0  0  0  0  0  0  0  0  0
  152.7678  144.5646  157.1772 H   0  0  0  0  0  0  0  0  0  0  0  0
  153.2240  145.6578  158.4835 H   0  0  0  0  0  0  0  0  0  0  0  0
  153.8769  142.8213  158.3609 H   0  0  0  0  0  0  0  0  0  0  0  0
  154.2149  143.9505  159.6587 H   0  0  0  0  0  0  0  0  0  0  0  0
  152.6217  142.4025  160.7350 H   0  0  0  0  0  0  0  0  0  0  0  0
  152.1526  144.9793  160.8198 H   0  0  0  0  0  0  0  0  0  0  0  0
  150.6124  144.0909  160.8183 H   0  0  0  0  0  0  0  0  0  0  0  0
  1  2  1  0  0  0  0
  1 21  1  0  0  0  0
  1 22  1  0  0  0  0
  1 23  1  0  0  0  0
  2  3  1  0  0  0  0
  2 14  1  0  0  0  0
  2 24  1  0  0  0  0
  3  4  1  0  0  0  0
  3 25  1  0  0  0  0
  4  5  2  0  0  0  0
  4  6  1  0  0  0  0
  6  7  1  0  0  0  0
  6 26  1  0  0  0  0
  6 27  1  0  0  0  0
  7 12  1  0  0  0  0
  7  8  1  0  0  0  0
  8  9  2  0  0  0  0
  8 28  1  0  0  0  0
  9 10  1  0  0  0  0
  9 29  1  0  0  0  0
 10 11  2  0  0  0  0
 10 30  1  0  0  0  0
 11 12  1  0  0  0  0
 11 31  1  0  0  0  0
 12 13  2  0  0  0  0
 14 19  1  0  0  0  0
 14 15  1  0  0  0  0
 14 32  1  0  0  0  0
 15 16  1  0  0  0  0
 15 33  1  0  0  0  0
 15 34  1  0  0  0  0
 16 20  1  0  0  0  0
 16 17  1  0  0  0  0
 16 35  1  0  0  0  0
 17 18  1  0  0  0  0
 17 36  1  0  0  0  0
 17 37  1  0  0  0  0
 18 19  1  0  0  0  0
 18 38  1  0  0  0  0
 18 39  1  0  0  0  0
 19 20  1  0  0  0  0
 19 40  1  0  0  0  0
 20 41  1  0  0  0  0
 20 42  1  0  0  0  0
M  END
> <s_m_source_file>
AV-unprocessed.smi

> <i_m_source_file_index>
332

> <i_lp_mmshare_version>
43012

> <i_f3d_flags>
0

> <s_epik_input>
W0NIMl0xW0NIMl1bQ0BIXShbQ0gyXTIpW0NAQEhdKFtDSDJdW0NAQEhdMTIpW0NASF0oW0NIM10pW05IXUMoPU8pW0NIMl1uM1tjSF1bY0hdW2NIXVtjSF1jMz1P

> <s_epik_cmdline>
J2VwaWtfcHl0aG9uJywgJy1waCcsICc3LjAnLCAnLXRuJywgJzgnLCAnLW1hJywgJzIwMCcsICctbWV0YWxfYmluZGluZycsICctaW1hZScsICc8aW5maWxlLm1hZT4nLCAnLW9tYWUnLCAnPG91dGZpbGUubWFlPic=

> <r_lp_tautomer_probability>
1

> <r_epik_Ionization_Penalty>
4.05802e-07

> <r_epik_Ionization_Penalty_Charging>
3.84175e-07

> <r_epik_Ionization_Penalty_Neutral>
2.16269e-08

> <r_epik_State_Penalty>
-0

> <r_epik_Charging_Adjusted_Penalty>
3.84175e-07

> <i_epik_Tot_Q>
0

> <i_epik_Tot_abs_Q>
0

> <r_epik_Metal_State_Penalty>
-0

> <b_epik_Metal_Only>
0

> <s_lp_Force_Field>
OPLS_2005

> <r_lp_Energy>
60.6372

> <b_lp_Chiralities_Consistent>
1

> <s_lp_Variant>
AV-unprocessed.smi:332-6

> <Gold.Version>
5.8.1

> <Gold.Id.Protein>
6NUR|6NUR_protein|mol2

> <Gold.PLP.Fitness>
45.5540

> <Gold.PLP.PLP>
-41.2450

> <Gold.PLP.part.hbond>
-3.0000

> <Gold.PLP.part.metal>
0.0000

> <Gold.PLP.part.buried>
-6.7483

> <Gold.PLP.part.nonpolar>
-34.4696

> <Gold.PLP.part.repulsive>
2.3483

> <Gold.PLP.ligand.clash>
0.0000

> <Gold.PLP.ligand.torsion>
0.5180

> <Gold.PLP.Chemscore.Hbond>
1.7760

> <Gold.PLP.Chemscore.CHOScore>
0.0000

> <Gold.PLP.Chemscore.Metal>
0.0000

> <Gold.Chemscore.Hbonds>
donor molecule, donor type, donor heavy atom, donor atom, acceptor molecule, acceptor atom, score
      P1  H  7989  7998       L1     5  0.88
      P1  H  8011  8017       L1    13  0.80

> <Gold.PLP.Chemscore.Internal.Correction>
0.0169

> <Gold.Rescore>
     Score         DG    S(hbond)    S(metal)    S(lipo)     H(rot)  DE(clash)    DE(int)     intcor
     19.28     -19.98       1.65        0.00     110.49       1.54       0.25       0.46       ----

> <Gold.Chemscore.Fitness>
19.2781

> <Gold.Chemscore.DG>
-19.9849

> <Gold.Chemscore.ZeroCoef>
-5.4800

> <Gold.Chemscore.Hbond>
1.6526

> <Gold.Chemscore.Metal>
0.0000

> <Gold.Chemscore.Lipo>
110.4872

> <Gold.Chemscore.Internal_Hbond>
0.0000

> <Gold.Chemscore.DEClash>
0.2503

> <Gold.Chemscore.DEInternal>
0.4565

> <Gold.Chemscore.Rot>
1.5398

> <Gold.Chemscore.Internal.Correction>
   9.000000E+99

> <Gold.Chemscore.Hbonds>
donor molecule, donor type, donor heavy atom, donor atom, acceptor molecule, acceptor atom, score
      P1  H  7989  7998       L1     5  0.86
      P1  H  8011  8017       L1    13  0.80

> <Gold.Chemscore.Hbond.Weighted>
-5.5197

> <Gold.Chemscore.Metal.Weighted>
-0.0000

> <Gold.Chemscore.Lipo.Weighted>
-12.9270

> <Gold.Chemscore.Internal_Hbond.Weighted>
0.0000

> <Gold.Chemscore.DEClash.Weighted>
0.2503

> <Gold.Chemscore.DEInternal.Weighted>
0.4565

> <Gold.Chemscore.Rot.Weighted>
3.9419

> <Gold.Chemscore.Internal.Correction.Weighted>
   9.000000E+99

> <Gold.Protein.RotatedTorsions>
[ 6907 6896 6895 6894 ] final -154.67 input  -60.11 | X-H torsion
[ 7974 7965 7964 7962 ] final  -93.57 input  175.53 | X-H torsion
[ 8008 7997 7996 7995 ] final   -7.46 input   59.86 | X-H torsion
[ 10167 10162 10161 10158 ] final  -78.88 input  -65.29 | X-H torsion
[ 10718 10713 10712 10709 ] final -152.66 input   66.30 | X-H torsion
[ 10763 10752 10751 10750 ] final  -57.10 input  -60.55 | X-H torsion
[ 11005 11000 10999 10996 ] final -119.61 input  -57.11 | X-H torsion

> <Gold.Protein.ActiveResidues>
 VAL166  LYS551  ARG553  GLY616  TRP617  ASP618  TYR619  PRO620  LYS621  CYS622 
 ASP623  PHE694  ASN695  SER759  ASP760  ASP761  ALA762  ILE779  LEU786  VAL792 
 PHE793  MET794  SER795  GLU796  ALA797  LYS798  CYS799  TRP800  GLU811  SER814 

> <Gold.Protein.RotatedAtoms>
  151.2610  133.4302  159.2615 H   0  0  0  0  0  0  0  0  0  0  0  0  # atno 6907 bound_to 6896
  151.0531  134.9686  159.8232 H   0  0  0  0  0  0  0  0  0  0  0  0  # atno 6908 bound_to 6896
  152.5386  134.2563  159.8971 H   0  0  0  0  0  0  0  0  0  0  0  0  # atno 6909 bound_to 6896
  145.3848  140.9522  143.2373 H   0  0  0  0  0  0  0  0  0  0  0  0  # atno 7974 bound_to 7965
  154.5836  140.2406  155.8018 H   0  0  0  0  0  0  0  0  0  0  0  0  # atno 8008 bound_to 7997
  156.2197  140.3001  155.9879 H   0  0  0  0  0  0  0  0  0  0  0  0  # atno 8009 bound_to 7997
  155.2497  140.0410  157.2975 H   0  0  0  0  0  0  0  0  0  0  0  0  # atno 8010 bound_to 7997
  140.4642  143.2445  151.8302 H   0  0  0  0  0  0  0  0  0  0  0  0  # atno 10167 bound_to 10162
  156.4754  130.8278  151.2507 H   0  0  0  0  0  0  0  0  0  0  0  0  # atno 10718 bound_to 10713
  154.2171  135.6384  153.5133 H   0  0  0  0  0  0  0  0  0  0  0  0  # atno 10763 bound_to 10752
  152.9977  135.5488  154.6153 H   0  0  0  0  0  0  0  0  0  0  0  0  # atno 10764 bound_to 10752
  154.5604  135.2908  155.0898 H   0  0  0  0  0  0  0  0  0  0  0  0  # atno 10765 bound_to 10752
  141.0203  134.0133  157.3291 H   0  0  0  0  0  0  0  0  0  0  0  0  # atno 11005 bound_to 11000
  144.8482  139.5364  143.6869 LP  0  0  0  0  0  0  0  0  0  0  0  0  # atno 17320 bound_to 7965
  146.2825  139.6915  142.9219 LP  0  0  0  0  0  0  0  0  0  0  0  0  # atno 17321 bound_to 7965
  139.4810  144.4970  151.9110 LP  0  0  0  0  0  0  0  0  0  0  0  0  # atno 17342 bound_to 10162
  140.4056  144.2436  150.5891 LP  0  0  0  0  0  0  0  0  0  0  0  0  # atno 17343 bound_to 10162
  157.7488  131.0062  150.3144 LP  0  0  0  0  0  0  0  0  0  0  0  0  # atno 17370 bound_to 10713
  156.3575  130.3841  149.7278 LP  0  0  0  0  0  0  0  0  0  0  0  0  # atno 17371 bound_to 10713
  139.9142  135.0194  156.7815 LP  0  0  0  0  0  0  0  0  0  0  0  0  # atno 17394 bound_to 11000
  140.6584  133.9668  155.7791 LP  0  0  0  0  0  0  0  0  0  0  0  0  # atno 17395 bound_to 11000

$$$$
