AV-unprocessed.smi:1785|AV-procd|sdf|7201|dock6
  -GOLD-   22720 8443D 1   1.00000     0.00000
 Structure written by MMmdl.
 27 28  0  0  0  0  0  0  0  0  2 V2000
  153.2156  141.7818  160.6590 C   0  0  0  0  0  0  0  0  0  0  0  0
  152.5273  142.7529  159.7130 C   0  0  0  0  0  0  0  0  0  0  0  0
  152.6969  144.1402  159.9050 C   0  0  0  0  0  0  0  0  0  0  0  0
  152.0551  145.0370  159.0342 C   0  0  0  0  0  0  0  0  0  0  0  0
  151.2636  144.5019  158.0036 C   0  0  0  0  0  0  0  0  0  0  0  0
  151.0960  143.1774  157.8132 N   0  0  0  0  0  0  0  0  0  0  0  0
  151.7159  142.2974  158.6368 C   0  0  0  0  0  0  0  0  0  0  0  0
  151.5134  140.9870  158.4162 N   0  5  0  0  0  0  0  0  0  0  0  0
  152.4938  140.2079  157.8896 C   0  0  0  0  0  0  0  0  0  0  0  0
  153.5560  139.9504  158.4636 O   0  0  0  0  0  0  0  0  0  0  0  0
  152.2195  139.6640  156.5623 C   0  0  0  0  0  0  0  0  0  0  0  0
  151.2178  140.1796  155.8100 C   0  0  0  0  0  0  0  0  0  0  0  0
  150.8701  139.7019  154.5709 O   0  0  0  0  0  0  0  0  0  0  0  0
  151.4666  138.4574  154.2273 C   0  0  0  0  0  0  0  0  0  0  0  0
  152.9349  138.4297  154.6740 C   0  0  0  0  0  0  0  0  0  0  0  0
  153.0241  138.6567  156.0756 O   0  0  0  0  0  0  0  0  0  0  0  0
  153.7368  142.3071  161.4596 H   0  0  0  0  0  0  0  0  0  0  0  0
  153.9459  141.1799  160.1176 H   0  0  0  0  0  0  0  0  0  0  0  0
  152.4866  141.1119  161.1155 H   0  0  0  0  0  0  0  0  0  0  0  0
  153.3102  144.5157  160.7109 H   0  0  0  0  0  0  0  0  0  0  0  0
  152.1643  146.1045  159.1542 H   0  0  0  0  0  0  0  0  0  0  0  0
  150.7490  145.1544  157.3139 H   0  0  0  0  0  0  0  0  0  0  0  0
  150.5662  140.9847  156.1181 H   0  0  0  0  0  0  0  0  0  0  0  0
  150.9094  137.6482  154.7015 H   0  0  0  0  0  0  0  0  0  0  0  0
  151.3919  138.3108  153.1498 H   0  0  0  0  0  0  0  0  0  0  0  0
  153.3888  137.4669  154.4389 H   0  0  0  0  0  0  0  0  0  0  0  0
  153.5094  139.1936  154.1483 H   0  0  0  0  0  0  0  0  0  0  0  0
  1  2  1  0  0  0  0
  1 17  1  0  0  0  0
  1 18  1  0  0  0  0
  1 19  1  0  0  0  0
  2  7  1  0  0  0  0
  2  3  2  0  0  0  0
  3  4  1  0  0  0  0
  3 20  1  0  0  0  0
  4  5  2  0  0  0  0
  4 21  1  0  0  0  0
  5  6  1  0  0  0  0
  5 22  1  0  0  0  0
  6  7  2  0  0  0  0
  7  8  1  0  0  0  0
  8  9  1  0  0  0  0
  9 10  2  0  0  0  0
  9 11  1  0  0  0  0
 11 16  1  0  0  0  0
 11 12  2  0  0  0  0
 12 13  1  0  0  0  0
 12 23  1  0  0  0  0
 13 14  1  0  0  0  0
 14 15  1  0  0  0  0
 14 24  1  0  0  0  0
 14 25  1  0  0  0  0
 15 16  1  0  0  0  0
 15 26  1  0  0  0  0
 15 27  1  0  0  0  0
M  CHG  1   8  -1
M  END
> <s_m_source_file>
AV-unprocessed.smi

> <i_m_source_file_index>
1785

> <i_lp_mmshare_version>
43012

> <i_f3d_flags>
0

> <s_epik_input>
W0NIM11jMVtjSF1bY0hdW2NIXW5jMVtOSF1DKD1PKUMyPVtDSF1PW0NIMl1bQ0gyXU8y

> <s_epik_cmdline>
J2VwaWtfcHl0aG9uJywgJy1waCcsICc3LjAnLCAnLXRuJywgJzgnLCAnLW1hJywgJzIwMCcsICctbWV0YWxfYmluZGluZycsICctaW1hZScsICc8aW5maWxlLm1hZT4nLCAnLW9tYWUnLCAnPG91dGZpbGUubWFlPic=

> <r_lp_tautomer_probability>
1

> <r_epik_Ionization_Penalty>
11.0036

> <r_epik_Ionization_Penalty_Charging>
5.9985

> <r_epik_Ionization_Penalty_Neutral>
5.00509

> <r_epik_State_Penalty>
5.99847

> <r_epik_Charging_Adjusted_Penalty>
11.997

> <i_epik_Tot_Q>
-1

> <i_epik_Tot_abs_Q>
1

> <r_epik_Metal_State_Penalty>
1.95147

> <b_epik_Metal_Only>
1

> <s_lp_Force_Field>
OPLS_2005

> <r_lp_Energy>
4.89912

> <b_lp_Chiralities_Consistent>
1

> <s_lp_Variant>
AV-unprocessed.smi:1785-2

> <Gold.Version>
5.8.1

> <Gold.Id.Protein>
6NUR|6NUR_protein|mol2

> <Gold.PLP.Fitness>
44.2976

> <Gold.PLP.PLP>
-38.1311

> <Gold.PLP.part.hbond>
-3.0000

> <Gold.PLP.part.metal>
0.0000

> <Gold.PLP.part.buried>
-4.2682

> <Gold.PLP.part.nonpolar>
-30.7674

> <Gold.PLP.part.repulsive>
0.2172

> <Gold.PLP.ligand.clash>
0.2069

> <Gold.PLP.ligand.torsion>
1.4001

> <Gold.PLP.Chemscore.Hbond>
2.0000

> <Gold.PLP.Chemscore.CHOScore>
1.0000

> <Gold.PLP.Chemscore.Metal>
0.0000

> <Gold.Chemscore.Hbonds>
donor molecule, donor type, donor heavy atom, donor atom, acceptor molecule, acceptor atom, score
      P1  H  7989  7998       L1    13  1.00
      P1  H  7997  8008       L1    10  1.00
      L1  C     5    22       P1  8028  0.99

> <Gold.PLP.Chemscore.Internal.Correction>
0.1736

> <Gold.Rescore>
     Score         DG    S(hbond)    S(metal)    S(lipo)     H(rot)  DE(clash)    DE(int)     intcor
     15.98     -18.55       0.67        0.00      92.65       0.00       0.04       2.54       ----

> <Gold.Chemscore.Fitness>
15.9776

> <Gold.Chemscore.DG>
-18.5509

> <Gold.Chemscore.ZeroCoef>
-5.4800

> <Gold.Chemscore.Hbond>
0.6680

> <Gold.Chemscore.Metal>
0.0000

> <Gold.Chemscore.Lipo>
92.6470

> <Gold.Chemscore.Internal_Hbond>
0.0000

> <Gold.Chemscore.DEClash>
0.0357

> <Gold.Chemscore.DEInternal>
2.5376

> <Gold.Chemscore.Rot>
0.0000

> <Gold.Chemscore.Internal.Correction>
   9.000000E+99

> <Gold.Chemscore.Hbonds>
donor molecule, donor type, donor heavy atom, donor atom, acceptor molecule, acceptor atom, score
      P1  H  7989  7998       L1    13  0.16
      P1  H  7997  8008       L1    10  0.34

> <Gold.Chemscore.Hbond.Weighted>
-2.2312

> <Gold.Chemscore.Metal.Weighted>
-0.0000

> <Gold.Chemscore.Lipo.Weighted>
-10.8397

> <Gold.Chemscore.Internal_Hbond.Weighted>
0.0000

> <Gold.Chemscore.DEClash.Weighted>
0.0357

> <Gold.Chemscore.DEInternal.Weighted>
2.5376

> <Gold.Chemscore.Rot.Weighted>
0.0000

> <Gold.Chemscore.Internal.Correction.Weighted>
   9.000000E+99

> <Gold.Protein.RotatedTorsions>
[ 6907 6896 6895 6894 ] final  157.58 input  -60.11 | X-H torsion
[ 7974 7965 7964 7962 ] final  -62.26 input  175.53 | X-H torsion
[ 8008 7997 7996 7995 ] final  -95.81 input   59.86 | X-H torsion
[ 10167 10162 10161 10158 ] final  -26.25 input  -65.29 | X-H torsion
[ 10718 10713 10712 10709 ] final   40.23 input   66.30 | X-H torsion
[ 10763 10752 10751 10750 ] final  175.80 input  -60.55 | X-H torsion
[ 11005 11000 10999 10996 ] final  118.58 input  -57.11 | X-H torsion

> <Gold.Protein.ActiveResidues>
 VAL166  LYS551  ARG553  GLY616  TRP617  ASP618  TYR619  PRO620  LYS621  CYS622 
 ASP623  PHE694  ASN695  SER759  ASP760  ASP761  ALA762  ILE779  LEU786  VAL792 
 PHE793  MET794  SER795  GLU796  ALA797  LYS798  CYS799  TRP800  GLU811  SER814 

> <Gold.Protein.RotatedAtoms>
  152.0130  133.3869  159.4227 H   0  0  0  0  0  0  0  0  0  0  0  0  # atno 6907 bound_to 6896
  150.6897  134.3709  159.5001 H   0  0  0  0  0  0  0  0  0  0  0  0  # atno 6908 bound_to 6896
  152.1472  134.9016  160.0601 H   0  0  0  0  0  0  0  0  0  0  0  0  # atno 6909 bound_to 6896
  145.7934  140.8696  143.0269 H   0  0  0  0  0  0  0  0  0  0  0  0  # atno 7974 bound_to 7965
  154.7662  140.0477  157.1014 H   0  0  0  0  0  0  0  0  0  0  0  0  # atno 8008 bound_to 7997
  154.9877  140.3109  155.4900 H   0  0  0  0  0  0  0  0  0  0  0  0  # atno 8009 bound_to 7997
  156.2913  140.2224  156.4980 H   0  0  0  0  0  0  0  0  0  0  0  0  # atno 8010 bound_to 7997
  140.7283  143.4194  151.0975 H   0  0  0  0  0  0  0  0  0  0  0  0  # atno 10167 bound_to 10162
  157.3798  130.7747  149.7184 H   0  0  0  0  0  0  0  0  0  0  0  0  # atno 10718 bound_to 10713
  154.4725  135.2771  155.1632 H   0  0  0  0  0  0  0  0  0  0  0  0  # atno 10763 bound_to 10752
  154.3375  135.6177  153.5584 H   0  0  0  0  0  0  0  0  0  0  0  0  # atno 10764 bound_to 10752
  152.9866  135.5780  154.5108 H   0  0  0  0  0  0  0  0  0  0  0  0  # atno 10765 bound_to 10752
  139.9115  134.9621  156.7525 H   0  0  0  0  0  0  0  0  0  0  0  0  # atno 11005 bound_to 11000
  144.6778  140.0156  143.7484 LP  0  0  0  0  0  0  0  0  0  0  0  0  # atno 17320 bound_to 7965
  145.9953  139.3047  143.0960 LP  0  0  0  0  0  0  0  0  0  0  0  0  # atno 17321 bound_to 7965
  139.7838  143.8317  152.3142 LP  0  0  0  0  0  0  0  0  0  0  0  0  # atno 17342 bound_to 10162
  139.8277  144.7268  150.9491 LP  0  0  0  0  0  0  0  0  0  0  0  0  # atno 17343 bound_to 10162
  155.9773  130.4064  150.3721 LP  0  0  0  0  0  0  0  0  0  0  0  0  # atno 17370 bound_to 10713
  157.1823  131.0395  151.2742 LP  0  0  0  0  0  0  0  0  0  0  0  0  # atno 17371 bound_to 10713
  140.6762  133.9515  155.7884 LP  0  0  0  0  0  0  0  0  0  0  0  0  # atno 17394 bound_to 11000
  141.0543  134.0440  157.3743 LP  0  0  0  0  0  0  0  0  0  0  0  0  # atno 17395 bound_to 11000

$$$$
