AV-unprocessed.smi:283|AV-procd|sdf|2127|dock2
  -GOLD-   2262021433D 1   1.00000     0.00000
 Structure written by MMmdl.
 48 51  0  0  0  0  0  0  0  0  1 V2000
  148.2818  135.1802  158.0218 C   0  0  0  0  0  0  0  0  0  0  0  0
  146.8568  135.2026  158.6045 C   0  0  2  0  0  0  0  0  0  0  0  0
  146.1179  136.3797  158.1483 N   0  0  0  0  0  0  0  0  0  0  0  0
  145.7645  136.5411  156.8537 C   0  0  0  0  0  0  0  0  0  0  0  0
  145.2588  137.7172  156.4000 N   0  0  0  0  0  0  0  0  0  0  0  0
  144.9220  137.8473  155.1137 C   0  0  0  0  0  0  0  0  0  0  0  0
  145.0101  136.9460  154.1336 N   0  0  0  0  0  0  0  0  0  0  0  0
  145.5218  135.7627  154.5810 C   0  0  0  0  0  0  0  0  0  0  0  0
  145.9225  135.4861  155.9183 C   0  0  0  0  0  0  0  0  0  0  0  0
  146.3990  134.1850  156.0081 N   0  0  0  0  0  0  0  0  0  0  0  0
  146.2843  133.7230  154.7924 C   0  0  0  0  0  0  0  0  0  0  0  0
  145.7664  134.6037  153.8685 N   0  0  0  0  0  0  0  0  0  0  0  0
  145.5241  134.3442  152.4112 C   0  0  1  0  0  0  0  0  0  0  0  0
  145.9639  133.0575  152.0864 O   0  0  0  0  0  0  0  0  0  0  0  0
  144.8825  132.2665  151.5936 C   0  0  2  0  0  0  0  0  0  0  0  0
  145.4106  131.2555  150.5652 C   0  0  0  0  0  0  0  0  0  0  0  0
  146.2974  130.3531  151.1909 O   0  0  0  0  0  0  0  0  0  0  0  0
  143.9410  133.3150  150.9989 C   0  0  1  0  0  0  0  0  0  0  0  0
  142.6172  132.8481  150.8224 O   0  0  0  0  0  0  0  0  0  0  0  0
  144.0400  134.4482  152.0096 C   0  0  1  0  0  0  0  0  0  0  0  0
  143.1426  134.2874  153.0984 O   0  0  0  0  0  0  0  0  0  0  0  0
  146.9168  135.0998  160.1279 C   0  0  0  0  0  0  0  0  0  0  0  0
  147.4841  136.1513  160.8865 C   0  0  0  0  0  0  0  0  0  0  0  0
  147.5560  136.0674  162.2896 C   0  0  0  0  0  0  0  0  0  0  0  0
  147.0668  134.9274  162.9518 C   0  0  0  0  0  0  0  0  0  0  0  0
  146.5114  133.8704  162.2079 C   0  0  0  0  0  0  0  0  0  0  0  0
  146.4372  133.9479  160.8025 C   0  0  0  0  0  0  0  0  0  0  0  0
  145.7608  132.6091  159.9417 Cl  0  0  0  0  0  0  0  0  0  0  0  0
  146.1531  135.0696  151.8936 H   0  0  0  0  0  0  0  0  0  0  0  0
  144.3844  131.7601  152.4222 H   0  0  0  0  0  0  0  0  0  0  0  0
  144.3306  133.6532  150.0374 H   0  0  0  0  0  0  0  0  0  0  0  0
  143.8520  135.4190  151.5498 H   0  0  0  0  0  0  0  0  0  0  0  0
  148.8133  134.2781  158.3260 H   0  0  0  0  0  0  0  0  0  0  0  0
  148.8621  136.0374  158.3646 H   0  0  0  0  0  0  0  0  0  0  0  0
  148.2772  135.1995  156.9322 H   0  0  0  0  0  0  0  0  0  0  0  0
  146.3166  134.3299  158.2395 H   0  0  0  0  0  0  0  0  0  0  0  0
  145.9680  137.0947  158.8452 H   0  0  0  0  0  0  0  0  0  0  0  0
  144.5256  138.8106  154.8287 H   0  0  0  0  0  0  0  0  0  0  0  0
  146.5783  132.7163  154.5331 H   0  0  0  0  0  0  0  0  0  0  0  0
  144.5867  130.6722  150.1533 H   0  0  0  0  0  0  0  0  0  0  0  0
  145.9026  131.7563  149.7308 H   0  0  0  0  0  0  0  0  0  0  0  0
  147.1152  130.3611  150.7170 H   0  0  0  0  0  0  0  0  0  0  0  0
  142.1963  133.3934  150.1745 H   0  0  0  0  0  0  0  0  0  0  0  0
  143.0768  133.3662  153.2987 H   0  0  0  0  0  0  0  0  0  0  0  0
  147.8750  137.0314  160.3977 H   0  0  0  0  0  0  0  0  0  0  0  0
  147.9889  136.8778  162.8575 H   0  0  0  0  0  0  0  0  0  0  0  0
  147.1225  134.8606  164.0282 H   0  0  0  0  0  0  0  0  0  0  0  0
  146.1433  132.9931  162.7195 H   0  0  0  0  0  0  0  0  0  0  0  0
  1  2  1  0  0  0  0
  1 33  1  0  0  0  0
  1 34  1  0  0  0  0
  1 35  1  0  0  0  0
  2  3  1  0  0  0  0
  2 22  1  0  0  0  0
  2 36  1  0  0  0  0
  3  4  1  0  0  0  0
  3 37  1  0  0  0  0
  4  9  1  0  0  0  0
  4  5  2  0  0  0  0
  5  6  1  0  0  0  0
  6  7  2  0  0  0  0
  6 38  1  0  0  0  0
  7  8  1  0  0  0  0
  8 12  1  0  0  0  0
  8  9  2  0  0  0  0
  9 10  1  0  0  0  0
 10 11  2  0  0  0  0
 11 12  1  0  0  0  0
 11 39  1  0  0  0  0
 12 13  1  0  0  0  0
 13 29  1  0  0  0  0
 13 20  1  0  0  0  0
 13 14  1  0  0  0  0
 14 15  1  0  0  0  0
 15 30  1  0  0  0  0
 15 16  1  0  0  0  0
 15 18  1  0  0  0  0
 16 17  1  0  0  0  0
 16 40  1  0  0  0  0
 16 41  1  0  0  0  0
 17 42  1  0  0  0  0
 18 31  1  0  0  0  0
 18 19  1  0  0  0  0
 18 20  1  0  0  0  0
 19 43  1  0  0  0  0
 20 32  1  0  0  0  0
 20 21  1  0  0  0  0
 21 44  1  0  0  0  0
 22 27  1  0  0  0  0
 22 23  2  0  0  0  0
 23 24  1  0  0  0  0
 23 45  1  0  0  0  0
 24 25  2  0  0  0  0
 24 46  1  0  0  0  0
 25 26  1  0  0  0  0
 25 47  1  0  0  0  0
 26 27  2  0  0  0  0
 26 48  1  0  0  0  0
 27 28  1  0  0  0  0
M  END
> <s_m_source_file>
AV-unprocessed.smi

> <i_m_source_file_index>
283

> <i_lp_mmshare_version>
43012

> <i_f3d_flags>
0

> <s_epik_input>
Q2xjMVtjSF1bY0hdW2NIXVtjSF1jMVtDQEhdKFtDSDNdKVtOSF1jKG5bY0hdbjIpYyhjMjMpbltjSF1uM1tDQEBIXTRPW0NASF0oW0NIMl1bT0hdKVtDQEBIXShbT0hdKVtDQEhdNFtPSF0=

> <s_epik_cmdline>
J2VwaWtfcHl0aG9uJywgJy1waCcsICc3LjAnLCAnLXRuJywgJzgnLCAnLW1hJywgJzIwMCcsICctbWV0YWxfYmluZGluZycsICctaW1hZScsICc8aW5maWxlLm1hZT4nLCAnLW9tYWUnLCAnPG91dGZpbGUubWFlPic=

> <r_lp_tautomer_probability>
1

> <r_epik_Ionization_Penalty>
0.000266407

> <r_epik_Ionization_Penalty_Charging>
0

> <r_epik_Ionization_Penalty_Neutral>
0.000266407

> <r_epik_State_Penalty>
-0

> <r_epik_Charging_Adjusted_Penalty>
0

> <i_epik_Tot_Q>
0

> <i_epik_Tot_abs_Q>
0

> <r_epik_Metal_State_Penalty>
-0

> <b_epik_Metal_Only>
0

> <s_epik_Chemistry_Notes>
This compound contains an acetal/aminal-like group ( X-CH(R)-Y where X, Y are N, S, or O) that may be acid/base labile, releasing an aldehyde.

> <s_lp_Force_Field>
OPLS_2005

> <r_lp_Energy>
51.5446

> <b_lp_Chiralities_Consistent>
1

> <s_lp_Variant>
AV-unprocessed.smi:283-3

> <Gold.Version>
5.8.1

> <Gold.Id.Protein>
6NUR|6NUR_protein|mol2

> <Gold.PLP.Fitness>
43.1165

> <Gold.PLP.PLP>
-34.4614

> <Gold.PLP.part.hbond>
-3.1248

> <Gold.PLP.part.metal>
0.0000

> <Gold.PLP.part.buried>
-7.0359

> <Gold.PLP.part.nonpolar>
-25.4028

> <Gold.PLP.part.repulsive>
0.1945

> <Gold.PLP.ligand.clash>
0.0000

> <Gold.PLP.ligand.torsion>
0.1716

> <Gold.PLP.Chemscore.Hbond>
2.9760

> <Gold.PLP.Chemscore.CHOScore>
0.0000

> <Gold.PLP.Chemscore.Metal>
0.0000

> <Gold.Chemscore.Hbonds>
donor molecule, donor type, donor heavy atom, donor atom, acceptor molecule, acceptor atom, score
      L1  H    17    42       P1 10747  1.00
      L1  H    19    43       P1 10186  1.00
      L1  H    21    44       P1 10957  0.53

> <Gold.PLP.Chemscore.Internal.Correction>
0.0703

> <Gold.Rescore>
     Score         DG    S(hbond)    S(metal)    S(lipo)     H(rot)  DE(clash)    DE(int)     intcor
     11.68     -14.47       2.93        0.00      82.68       4.10       0.02       2.77       ----

> <Gold.Chemscore.Fitness>
11.6807

> <Gold.Chemscore.DG>
-14.4668

> <Gold.Chemscore.ZeroCoef>
-5.4800

> <Gold.Chemscore.Hbond>
2.9346

> <Gold.Chemscore.Metal>
0.0000

> <Gold.Chemscore.Lipo>
82.6768

> <Gold.Chemscore.Internal_Hbond>
0.0000

> <Gold.Chemscore.DEClash>
0.0163

> <Gold.Chemscore.DEInternal>
2.7698

> <Gold.Chemscore.Rot>
4.0968

> <Gold.Chemscore.Internal.Correction>
   9.000000E+99

> <Gold.Chemscore.Hbonds>
donor molecule, donor type, donor heavy atom, donor atom, acceptor molecule, acceptor atom, score
      L1  H    17    42       P1 10747  0.98
      L1  H    19    43       P1 10186  0.98
      L1  H    21    44       P1 10957  0.49

> <Gold.Chemscore.Hbond.Weighted>
-9.8016

> <Gold.Chemscore.Metal.Weighted>
-0.0000

> <Gold.Chemscore.Lipo.Weighted>
-9.6732

> <Gold.Chemscore.Internal_Hbond.Weighted>
0.0000

> <Gold.Chemscore.DEClash.Weighted>
0.0163

> <Gold.Chemscore.DEInternal.Weighted>
2.7698

> <Gold.Chemscore.Rot.Weighted>
10.4879

> <Gold.Chemscore.Internal.Correction.Weighted>
   9.000000E+99

> <Gold.Protein.RotatedTorsions>
[ 6907 6896 6895 6894 ] final   79.10 input  -60.11 | X-H torsion
[ 7974 7965 7964 7962 ] final -104.68 input  175.53 | X-H torsion
[ 8008 7997 7996 7995 ] final -117.16 input   59.86 | X-H torsion
[ 10167 10162 10161 10158 ] final -157.22 input  -65.29 | X-H torsion
[ 10718 10713 10712 10709 ] final  -75.66 input   66.30 | X-H torsion
[ 10763 10752 10751 10750 ] final   19.33 input  -60.55 | X-H torsion
[ 11005 11000 10999 10996 ] final -140.68 input  -57.11 | X-H torsion

> <Gold.Protein.ActiveResidues>
 VAL166  LYS551  ARG553  GLY616  TRP617  ASP618  TYR619  PRO620  LYS621  CYS622 
 ASP623  PHE694  ASN695  SER759  ASP760  ASP761  ALA762  ILE779  LEU786  VAL792 
 PHE793  MET794  SER795  GLU796  ALA797  LYS798  CYS799  TRP800  GLU811  SER814 

> <Gold.Protein.RotatedAtoms>
  152.5185  134.3563  159.9268 H   0  0  0  0  0  0  0  0  0  0  0  0  # atno 6907 bound_to 6896
  151.3515  133.3917  159.2688 H   0  0  0  0  0  0  0  0  0  0  0  0  # atno 6908 bound_to 6896
  150.9723  134.9113  159.7853 H   0  0  0  0  0  0  0  0  0  0  0  0  # atno 6909 bound_to 6896
  145.2401  140.9202  143.3155 H   0  0  0  0  0  0  0  0  0  0  0  0  # atno 7974 bound_to 7965
  155.0793  140.0394  157.2634 H   0  0  0  0  0  0  0  0  0  0  0  0  # atno 8008 bound_to 7997
  154.6920  140.2655  155.6779 H   0  0  0  0  0  0  0  0  0  0  0  0  # atno 8009 bound_to 7997
  156.2732  140.2757  156.1501 H   0  0  0  0  0  0  0  0  0  0  0  0  # atno 8010 bound_to 7997
  139.6788  143.9617  152.2325 H   0  0  0  0  0  0  0  0  0  0  0  0  # atno 10167 bound_to 10162
  156.0200  130.4446  150.3077 H   0  0  0  0  0  0  0  0  0  0  0  0  # atno 10718 bound_to 10713
  153.1171  135.6710  153.9399 H   0  0  0  0  0  0  0  0  0  0  0  0  # atno 10763 bound_to 10752
  153.8926  135.3045  155.3449 H   0  0  0  0  0  0  0  0  0  0  0  0  # atno 10764 bound_to 10752
  154.7586  135.4999  153.9500 H   0  0  0  0  0  0  0  0  0  0  0  0  # atno 10765 bound_to 10752
  140.8398  134.2415  157.4815 H   0  0  0  0  0  0  0  0  0  0  0  0  # atno 11005 bound_to 11000
  144.9597  139.3993  143.6362 LP  0  0  0  0  0  0  0  0  0  0  0  0  # atno 17320 bound_to 7965
  146.3330  139.8644  142.8851 LP  0  0  0  0  0  0  0  0  0  0  0  0  # atno 17321 bound_to 7965
  139.9402  144.6687  150.8274 LP  0  0  0  0  0  0  0  0  0  0  0  0  # atno 17342 bound_to 10162
  140.7645  143.3250  151.2537 LP  0  0  0  0  0  0  0  0  0  0  0  0  # atno 17343 bound_to 10162
  157.1179  131.0239  151.3021 LP  0  0  0  0  0  0  0  0  0  0  0  0  # atno 17370 bound_to 10713
  157.4652  130.7676  149.7272 LP  0  0  0  0  0  0  0  0  0  0  0  0  # atno 17371 bound_to 10713
  139.8703  134.9630  156.4446 LP  0  0  0  0  0  0  0  0  0  0  0  0  # atno 17394 bound_to 11000
  140.8907  133.7850  155.9569 LP  0  0  0  0  0  0  0  0  0  0  0  0  # atno 17395 bound_to 11000

$$$$
