AV-unprocessed.smi:845|AV-procd|sdf|3931|dock3
  -GOLD-   22720 1393D 1   1.00000     0.00000
 Structure written by MMmdl.
 42 43  0  0  0  0  0  0  0  0  3 V2000
  151.6826  137.6215  154.3028 C   0  0  0  0  0  0  0  0  0  0  0  0
  150.2198  138.0985  154.3106 C   0  0  0  0  0  0  0  0  0  0  0  0
  150.1389  139.5973  154.6490 C   0  0  0  0  0  0  0  0  0  0  0  0
  149.3179  137.1840  155.1900 C   0  0  2  0  0  0  0  0  0  0  0  0
  149.7866  137.0120  156.6598 C   0  0  0  0  0  0  0  0  0  0  0  0
  148.6738  136.7339  157.5644 N   0  0  0  0  0  0  0  0  0  0  0  0
  148.7511  136.5167  158.8852 C   0  0  0  0  0  0  0  0  0  0  0  0
  149.8472  136.5165  159.4501 O   0  0  0  0  0  0  0  0  0  0  0  0
  147.5485  136.3219  159.4708 N   0  5  0  0  0  0  0  0  0  0  0  0
  147.4802  136.0148  160.7762 C   0  0  0  0  0  0  0  0  0  0  0  0
  147.3000  136.9329  161.7330 N   0  0  0  0  0  0  0  0  0  0  0  0
  147.2549  136.3924  163.0193 C   0  0  0  0  0  0  0  0  0  0  0  0
  147.3959  135.0301  163.0417 C   0  0  0  0  0  0  0  0  0  0  0  0
  147.5900  134.3815  161.4383 S   0  0  0  0  0  0  0  0  0  0  0  0
  149.0297  135.8886  154.4981 N   0  3  0  0  0  0  0  0  0  0  0  0
  150.0600  134.8233  154.6194 C   0  0  0  0  0  0  0  0  0  0  0  0
  149.6961  133.6354  153.7152 C   0  0  0  0  0  0  0  0  0  0  0  0
  148.4148  133.1390  154.0834 O   0  0  0  0  0  0  0  0  0  0  0  0
  147.3950  134.1169  153.9177 C   0  0  0  0  0  0  0  0  0  0  0  0
  147.6877  135.3379  154.8070 C   0  0  0  0  0  0  0  0  0  0  0  0
  152.1428  137.7148  155.2866 H   0  0  0  0  0  0  0  0  0  0  0  0
  152.2798  138.2076  153.6035 H   0  0  0  0  0  0  0  0  0  0  0  0
  151.7563  136.5774  153.9971 H   0  0  0  0  0  0  0  0  0  0  0  0
  149.8794  137.9978  153.2800 H   0  0  0  0  0  0  0  0  0  0  0  0
  150.5947  139.8175  155.6140 H   0  0  0  0  0  0  0  0  0  0  0  0
  149.1098  139.9534  154.6714 H   0  0  0  0  0  0  0  0  0  0  0  0
  150.6671  140.1894  153.9012 H   0  0  0  0  0  0  0  0  0  0  0  0
  148.3711  137.7223  155.2601 H   0  0  0  0  0  0  0  0  0  0  0  0
  150.4682  136.1637  156.7282 H   0  0  0  0  0  0  0  0  0  0  0  0
  150.3502  137.8794  157.0045 H   0  0  0  0  0  0  0  0  0  0  0  0
  147.7511  136.7183  157.1549 H   0  0  0  0  0  0  0  0  0  0  0  0
  147.1181  137.0522  163.8632 H   0  0  0  0  0  0  0  0  0  0  0  0
  147.3963  134.3720  163.8974 H   0  0  0  0  0  0  0  0  0  0  0  0
  151.0444  135.2005  154.3475 H   0  0  0  0  0  0  0  0  0  0  0  0
  150.1246  134.4750  155.6511 H   0  0  0  0  0  0  0  0  0  0  0  0
  149.7020  133.9274  152.6638 H   0  0  0  0  0  0  0  0  0  0  0  0
  150.4300  132.8375  153.8295 H   0  0  0  0  0  0  0  0  0  0  0  0
  147.3253  134.4091  152.8688 H   0  0  0  0  0  0  0  0  0  0  0  0
  146.4356  133.6761  154.1890 H   0  0  0  0  0  0  0  0  0  0  0  0
  147.6386  135.0604  155.8612 H   0  0  0  0  0  0  0  0  0  0  0  0
  146.9219  136.0956  154.6363 H   0  0  0  0  0  0  0  0  0  0  0  0
  148.9935  136.1273  153.5175 H   0  0  0  0  0  0  0  0  0  0  0  0
  1  2  1  0  0  0  0
  1 21  1  0  0  0  0
  1 22  1  0  0  0  0
  1 23  1  0  0  0  0
  2  3  1  0  0  0  0
  2  4  1  0  0  0  0
  2 24  1  0  0  0  0
  3 25  1  0  0  0  0
  3 26  1  0  0  0  0
  3 27  1  0  0  0  0
  4  5  1  0  0  0  0
  4 15  1  0  0  0  0
  4 28  1  0  0  0  0
  5  6  1  0  0  0  0
  5 29  1  0  0  0  0
  5 30  1  0  0  0  0
  6  7  1  0  0  0  0
  6 31  1  0  0  0  0
  7  8  2  0  0  0  0
  7  9  1  0  0  0  0
  9 10  1  0  0  0  0
 10 14  1  0  0  0  0
 10 11  2  0  0  0  0
 11 12  1  0  0  0  0
 12 13  2  0  0  0  0
 12 32  1  0  0  0  0
 13 14  1  0  0  0  0
 13 33  1  0  0  0  0
 15 20  1  0  0  0  0
 15 16  1  0  0  0  0
 15 42  1  0  0  0  0
 16 17  1  0  0  0  0
 16 34  1  0  0  0  0
 16 35  1  0  0  0  0
 17 18  1  0  0  0  0
 17 36  1  0  0  0  0
 17 37  1  0  0  0  0
 18 19  1  0  0  0  0
 19 20  1  0  0  0  0
 19 38  1  0  0  0  0
 19 39  1  0  0  0  0
 20 40  1  0  0  0  0
 20 41  1  0  0  0  0
M  CHG  1   9  -1
M  CHG  1  15   1
M  END
> <s_m_source_file>
AV-unprocessed.smi

> <i_m_source_file_index>
845

> <i_lp_mmshare_version>
43012

> <i_f3d_flags>
0

> <s_epik_input>
W0NIMl0xW0NIMl1PW0NIMl1bQ0gyXU4xW0NASF0oW0NIXShbQ0gzXSlbQ0gzXSlbQ0gyXVtOSF1DKD1PKVtOSF1jMm5bY0hdW2NIXXMy

> <s_epik_cmdline>
J2VwaWtfcHl0aG9uJywgJy1waCcsICc3LjAnLCAnLXRuJywgJzgnLCAnLW1hJywgJzIwMCcsICctbWV0YWxfYmluZGluZycsICctaW1hZScsICc8aW5maWxlLm1hZT4nLCAnLW9tYWUnLCAnPG91dGZpbGUubWFlPic=

> <r_lp_tautomer_probability>
0.999

> <r_epik_Ionization_Penalty>
7.97104

> <r_epik_Ionization_Penalty_Charging>
6.58021

> <r_epik_Ionization_Penalty_Neutral>
1.39083

> <r_epik_State_Penalty>
6.69807

> <r_epik_Charging_Adjusted_Penalty>
13.2783

> <i_epik_Tot_Q>
0

> <i_epik_Tot_abs_Q>
2

> <r_epik_Metal_State_Penalty>
2.62985

> <b_epik_Metal_Only>
1

> <s_lp_Force_Field>
OPLS_2005

> <r_lp_Energy>
16.3382

> <b_lp_Chiralities_Consistent>
1

> <s_lp_Variant>
AV-unprocessed.smi:845-5

> <Gold.Version>
5.8.1

> <Gold.Id.Protein>
6NUR|6NUR_protein|mol2

> <Gold.PLP.Fitness>
45.2334

> <Gold.PLP.PLP>
-33.8004

> <Gold.PLP.part.hbond>
-4.0000

> <Gold.PLP.part.metal>
0.0000

> <Gold.PLP.part.buried>
-2.2342

> <Gold.PLP.part.nonpolar>
-27.5417

> <Gold.PLP.part.repulsive>
0.1306

> <Gold.PLP.ligand.clash>
0.0000

> <Gold.PLP.ligand.torsion>
1.6820

> <Gold.PLP.Chemscore.Hbond>
4.7120

> <Gold.PLP.Chemscore.CHOScore>
0.0000

> <Gold.PLP.Chemscore.Metal>
0.0000

> <Gold.Chemscore.Hbonds>
donor molecule, donor type, donor heavy atom, donor atom, acceptor molecule, acceptor atom, score
      L1  H    15    42       P1  7948  2.00
      P1  H  6896  6907       L1     8  1.00
      P1  H  6931  6943       L1    11  0.63
      P1  H  6934  6947       L1    11  0.44

> <Gold.PLP.Chemscore.Internal.Correction>
0.6610

> <Gold.Rescore>
     Score         DG    S(hbond)    S(metal)    S(lipo)     H(rot)  DE(clash)    DE(int)     intcor
     17.30     -18.94       2.72        0.00      76.13       1.76       0.16       1.48       ----

> <Gold.Chemscore.Fitness>
17.3015

> <Gold.Chemscore.DG>
-18.9444

> <Gold.Chemscore.ZeroCoef>
-5.4800

> <Gold.Chemscore.Hbond>
2.7152

> <Gold.Chemscore.Metal>
0.0000

> <Gold.Chemscore.Lipo>
76.1290

> <Gold.Chemscore.Internal_Hbond>
0.0000

> <Gold.Chemscore.DEClash>
0.1605

> <Gold.Chemscore.DEInternal>
1.4824

> <Gold.Chemscore.Rot>
1.7623

> <Gold.Chemscore.Internal.Correction>
   9.000000E+99

> <Gold.Chemscore.Hbonds>
donor molecule, donor type, donor heavy atom, donor atom, acceptor molecule, acceptor atom, score
      L1  H    15    42       P1  7948  0.97
      P1  H  6896  6907       L1     8  0.97
      P1  H  6931  6943       L1    11  0.12
      P1  H  6934  6947       L1    11  0.38

> <Gold.Chemscore.Hbond.Weighted>
-9.0689

> <Gold.Chemscore.Metal.Weighted>
-0.0000

> <Gold.Chemscore.Lipo.Weighted>
-8.9071

> <Gold.Chemscore.Internal_Hbond.Weighted>
0.0000

> <Gold.Chemscore.DEClash.Weighted>
0.1605

> <Gold.Chemscore.DEInternal.Weighted>
1.4824

> <Gold.Chemscore.Rot.Weighted>
4.5116

> <Gold.Chemscore.Internal.Correction.Weighted>
   9.000000E+99

> <Gold.Protein.RotatedTorsions>
[ 6907 6896 6895 6894 ] final  -23.97 input  -60.11 | X-H torsion
[ 7974 7965 7964 7962 ] final  141.91 input  175.53 | X-H torsion
[ 8008 7997 7996 7995 ] final -103.77 input   59.86 | X-H torsion
[ 10167 10162 10161 10158 ] final   33.31 input  -65.29 | X-H torsion
[ 10718 10713 10712 10709 ] final  -93.55 input   66.30 | X-H torsion
[ 10763 10752 10751 10750 ] final   51.09 input  -60.55 | X-H torsion
[ 11005 11000 10999 10996 ] final -118.77 input  -57.11 | X-H torsion

> <Gold.Protein.ActiveResidues>
 VAL166  LYS551  ARG553  GLY616  TRP617  ASP618  TYR619  PRO620  LYS621  CYS622 
 ASP623  PHE694  ASN695  SER759  ASP760  ASP761  ALA762  ILE779  LEU786  VAL792 
 PHE793  MET794  SER795  GLU796  ALA797  LYS798  CYS799  TRP800  GLU811  SER814 

> <Gold.Protein.RotatedAtoms>
  151.1963  135.0424  159.8853 H   0  0  0  0  0  0  0  0  0  0  0  0  # atno 6907 bound_to 6896
  152.5436  134.0900  159.8283 H   0  0  0  0  0  0  0  0  0  0  0  0  # atno 6908 bound_to 6896
  151.1035  133.5179  159.2641 H   0  0  0  0  0  0  0  0  0  0  0  0  # atno 6909 bound_to 6896
  144.9054  139.5365  143.5734 H   0  0  0  0  0  0  0  0  0  0  0  0  # atno 7974 bound_to 7965
  154.8757  140.0421  157.1751 H   0  0  0  0  0  0  0  0  0  0  0  0  # atno 8008 bound_to 7997
  154.8692  140.2956  155.5471 H   0  0  0  0  0  0  0  0  0  0  0  0  # atno 8009 bound_to 7997
  156.2999  140.2432  156.3678 H   0  0  0  0  0  0  0  0  0  0  0  0  # atno 8010 bound_to 7997
  140.4419  144.1175  150.6175 H   0  0  0  0  0  0  0  0  0  0  0  0  # atno 10167 bound_to 10162
  156.0015  130.5031  150.5793 H   0  0  0  0  0  0  0  0  0  0  0  0  # atno 10718 bound_to 10713
  152.9785  135.5857  154.4359 H   0  0  0  0  0  0  0  0  0  0  0  0  # atno 10763 bound_to 10752
  154.3966  135.2768  155.2124 H   0  0  0  0  0  0  0  0  0  0  0  0  # atno 10764 bound_to 10752
  154.3973  135.6111  153.5931 H   0  0  0  0  0  0  0  0  0  0  0  0  # atno 10765 bound_to 10752
  141.0262  134.0049  157.3210 H   0  0  0  0  0  0  0  0  0  0  0  0  # atno 11005 bound_to 11000
  146.3131  139.7818  142.9004 LP  0  0  0  0  0  0  0  0  0  0  0  0  # atno 17320 bound_to 7965
  145.3544  141.0314  143.3320 LP  0  0  0  0  0  0  0  0  0  0  0  0  # atno 17321 bound_to 7965
  140.4308  143.2569  151.9597 LP  0  0  0  0  0  0  0  0  0  0  0  0  # atno 17342 bound_to 10162
  139.4790  144.5745  151.8034 LP  0  0  0  0  0  0  0  0  0  0  0  0  # atno 17343 bound_to 10162
  157.3676  131.0760  151.1585 LP  0  0  0  0  0  0  0  0  0  0  0  0  # atno 17370 bound_to 10713
  157.2349  130.6542  149.5865 LP  0  0  0  0  0  0  0  0  0  0  0  0  # atno 17371 bound_to 10713
  139.9178  135.0198  156.7947 LP  0  0  0  0  0  0  0  0  0  0  0  0  # atno 17394 bound_to 11000
  140.6486  133.9752  155.7744 LP  0  0  0  0  0  0  0  0  0  0  0  0  # atno 17395 bound_to 11000

$$$$
