AV-unprocessed.smi:47|AV-procd|sdf|423|dock4
  -GOLD-   2262016303D 1   1.00000     0.00000
 Structure written by MMmdl.
 32 34  0  0  0  0  0  0  0  0  2 V2000
  145.1699  140.9170  154.8566 O   0  0  0  0  0  0  0  0  0  0  0  0
  146.5472  140.6076  154.8527 C   0  0  1  0  0  0  0  0  0  0  0  0
  146.9149  139.6231  153.7444 C   0  0  0  0  0  0  0  0  0  0  0  0
  148.3474  139.8529  153.4838 N   0  3  0  0  0  0  0  0  0  0  0  0
  148.7007  141.2139  153.9463 C   0  0  2  0  0  0  0  0  0  0  0  0
  149.8074  141.1678  154.9554 C   0  0  0  0  0  0  0  0  0  0  0  0
  150.8197  140.3181  154.8194 N   0  0  0  0  0  0  0  0  0  0  0  0
  151.5908  140.6331  155.8804 N   0  0  0  0  0  0  0  0  0  0  0  0
  151.0384  141.6347  156.5767 C   0  0  0  0  0  0  0  0  0  0  0  0
  151.6143  142.2302  157.7845 C   0  0  0  0  0  0  0  0  0  0  0  0
  151.4979  143.6191  158.0241 C   0  0  0  0  0  0  0  0  0  0  0  0
  152.0511  144.1927  159.1855 C   0  0  0  0  0  0  0  0  0  0  0  0
  152.7259  143.3841  160.1191 C   0  0  0  0  0  0  0  0  0  0  0  0
  152.8474  142.0010  159.8901 C   0  0  0  0  0  0  0  0  0  0  0  0
  152.2944  141.4263  158.7292 C   0  0  0  0  0  0  0  0  0  0  0  0
  149.8904  142.0223  156.0198 N   0  0  0  0  0  0  0  0  0  0  0  0
  147.4105  141.8218  154.5202 C   0  0  0  0  0  0  0  0  0  0  0  0
  146.8352  140.2007  155.8232 H   0  0  0  0  0  0  0  0  0  0  0  0
  149.0336  141.7984  153.0872 H   0  0  0  0  0  0  0  0  0  0  0  0
  152.4614  140.1624  156.0832 H   0  0  0  0  0  0  0  0  0  0  0  0
  144.7975  140.6563  154.0276 H   0  0  0  0  0  0  0  0  0  0  0  0
  146.7128  138.5860  154.0127 H   0  0  0  0  0  0  0  0  0  0  0  0
  146.3634  139.8516  152.8310 H   0  0  0  0  0  0  0  0  0  0  0  0
  148.8855  139.1945  154.0298 H   0  0  0  0  0  0  0  0  0  0  0  0
  150.9849  144.2592  157.3216 H   0  0  0  0  0  0  0  0  0  0  0  0
  151.9581  145.2546  159.3599 H   0  0  0  0  0  0  0  0  0  0  0  0
  153.1502  143.8244  161.0096 H   0  0  0  0  0  0  0  0  0  0  0  0
  153.3658  141.3795  160.6055 H   0  0  0  0  0  0  0  0  0  0  0  0
  152.3997  140.3627  158.5738 H   0  0  0  0  0  0  0  0  0  0  0  0
  146.9213  142.4076  153.7401 H   0  0  0  0  0  0  0  0  0  0  0  0
  147.5764  142.4854  155.3702 H   0  0  0  0  0  0  0  0  0  0  0  0
  148.5583  139.7344  152.5034 H   0  0  0  0  0  0  0  0  0  0  0  0
  1  2  1  0  0  0  0
  1 21  1  0  0  0  0
  2 18  1  0  0  0  0
  2 17  1  0  0  0  0
  2  3  1  0  0  0  0
  3  4  1  0  0  0  0
  3 22  1  0  0  0  0
  3 23  1  0  0  0  0
  4  5  1  0  0  0  0
  4 24  1  0  0  0  0
  4 32  1  0  0  0  0
  5 19  1  0  0  0  0
  5  6  1  0  0  0  0
  5 17  1  0  0  0  0
  6 16  1  0  0  0  0
  6  7  2  0  0  0  0
  7  8  1  0  0  0  0
  8 20  1  0  0  0  0
  8  9  1  0  0  0  0
  9 10  1  0  0  0  0
  9 16  2  0  0  0  0
 10 15  1  0  0  0  0
 10 11  2  0  0  0  0
 11 12  1  0  0  0  0
 11 25  1  0  0  0  0
 12 13  2  0  0  0  0
 12 26  1  0  0  0  0
 13 14  1  0  0  0  0
 13 27  1  0  0  0  0
 14 15  2  0  0  0  0
 14 28  1  0  0  0  0
 15 29  1  0  0  0  0
 17 30  1  0  0  0  0
 17 31  1  0  0  0  0
M  CHG  1   4   1
M  END
> <s_m_source_file>
AV-unprocessed.smi

> <i_m_source_file_index>
47

> <i_lp_mmshare_version>
43012

> <i_f3d_flags>
0

> <s_epik_input>
W09IXVtDQEhdMVtDSDJdW05IXVtDQEBIXShbQ0gyXTEpYzJuW25IXWMobjIpLWMzW2NIXVtjSF1bY0hdW2NIXVtjSF0z

> <s_epik_cmdline>
J2VwaWtfcHl0aG9uJywgJy1waCcsICc3LjAnLCAnLXRuJywgJzgnLCAnLW1hJywgJzIwMCcsICctbWV0YWxfYmluZGluZycsICctaW1hZScsICc8aW5maWxlLm1hZT4nLCAnLW9tYWUnLCAnPG91dGZpbGUubWFlPic=

> <r_lp_tautomer_probability>
0.948284

> <r_epik_Ionization_Penalty>
0.163822

> <r_epik_Ionization_Penalty_Charging>
0.0371552

> <r_epik_Ionization_Penalty_Neutral>
0.126667

> <r_epik_State_Penalty>
0.318338

> <r_epik_Charging_Adjusted_Penalty>
0.355493

> <i_epik_Tot_Q>
1

> <i_epik_Tot_abs_Q>
1

> <r_epik_Metal_State_Penalty>
0.81572

> <b_epik_Metal_Only>
0

> <s_lp_Force_Field>
OPLS_2005

> <r_lp_Energy>
24.5404

> <b_lp_Chiralities_Consistent>
1

> <s_lp_Variant>
AV-unprocessed.smi:47-1

> <Gold.Version>
5.8.1

> <Gold.Id.Protein>
6NUR|6NUR_protein|mol2

> <Gold.PLP.Fitness>
43.4014

> <Gold.PLP.PLP>
-36.8891

> <Gold.PLP.part.hbond>
-3.0000

> <Gold.PLP.part.metal>
0.0000

> <Gold.PLP.part.buried>
-4.2101

> <Gold.PLP.part.nonpolar>
-30.8970

> <Gold.PLP.part.repulsive>
1.8939

> <Gold.PLP.ligand.clash>
0.0000

> <Gold.PLP.ligand.torsion>
1.1913

> <Gold.PLP.Chemscore.Hbond>
2.9600

> <Gold.PLP.Chemscore.CHOScore>
0.0000

> <Gold.PLP.Chemscore.Metal>
0.0000

> <Gold.Chemscore.Hbonds>
donor molecule, donor type, donor heavy atom, donor atom, acceptor molecule, acceptor atom, score
      L1  H     1    21       P1 10175  1.00
      L1  H     4    32       P1  7957  1.00
      P1  H  7989  7998       L1     7  1.00

> <Gold.PLP.Chemscore.Internal.Correction>
0.0150

> <Gold.Rescore>
     Score         DG    S(hbond)    S(metal)    S(lipo)     H(rot)  DE(clash)    DE(int)     intcor
     17.10     -19.28       2.13        0.00      89.94       1.50       1.15       1.03       ----

> <Gold.Chemscore.Fitness>
17.1006

> <Gold.Chemscore.DG>
-19.2790

> <Gold.Chemscore.ZeroCoef>
-5.4800

> <Gold.Chemscore.Hbond>
2.1279

> <Gold.Chemscore.Metal>
0.0000

> <Gold.Chemscore.Lipo>
89.9403

> <Gold.Chemscore.Internal_Hbond>
0.0000

> <Gold.Chemscore.DEClash>
1.1505

> <Gold.Chemscore.DEInternal>
1.0280

> <Gold.Chemscore.Rot>
1.4966

> <Gold.Chemscore.Internal.Correction>
   9.000000E+99

> <Gold.Chemscore.Hbonds>
donor molecule, donor type, donor heavy atom, donor atom, acceptor molecule, acceptor atom, score
      L1  H     1    21       P1 10175  0.99
      L1  H     4    32       P1  7957  0.94
      P1  H  7989  7998       L1     7  0.24

> <Gold.Chemscore.Hbond.Weighted>
-7.1072

> <Gold.Chemscore.Metal.Weighted>
-0.0000

> <Gold.Chemscore.Lipo.Weighted>
-10.5230

> <Gold.Chemscore.Internal_Hbond.Weighted>
0.0000

> <Gold.Chemscore.DEClash.Weighted>
1.1505

> <Gold.Chemscore.DEInternal.Weighted>
1.0280

> <Gold.Chemscore.Rot.Weighted>
3.8312

> <Gold.Chemscore.Internal.Correction.Weighted>
   9.000000E+99

> <Gold.Protein.RotatedTorsions>
[ 6907 6896 6895 6894 ] final  119.37 input  -60.11 | X-H torsion
[ 7974 7965 7964 7962 ] final -179.84 input  175.53 | X-H torsion
[ 8008 7997 7996 7995 ] final  164.87 input   59.86 | X-H torsion
[ 10167 10162 10161 10158 ] final  165.49 input  -65.29 | X-H torsion
[ 10718 10713 10712 10709 ] final  106.47 input   66.30 | X-H torsion
[ 10763 10752 10751 10750 ] final  106.68 input  -60.55 | X-H torsion
[ 11005 11000 10999 10996 ] final   82.06 input  -57.11 | X-H torsion

> <Gold.Protein.ActiveResidues>
 VAL166  LYS551  ARG553  GLY616  TRP617  ASP618  TYR619  PRO620  LYS621  CYS622 
 ASP623  PHE694  ASN695  SER759  ASP760  ASP761  ALA762  ILE779  LEU786  VAL792 
 PHE793  MET794  SER795  GLU796  ALA797  LYS798  CYS799  TRP800  GLU811  SER814 

> <Gold.Protein.RotatedAtoms>
  152.4476  133.7567  159.6723 H   0  0  0  0  0  0  0  0  0  0  0  0  # atno 6907 bound_to 6896
  150.8380  133.7972  159.3078 H   0  0  0  0  0  0  0  0  0  0  0  0  # atno 6908 bound_to 6896
  151.5605  135.1068  160.0023 H   0  0  0  0  0  0  0  0  0  0  0  0  # atno 6909 bound_to 6896
  144.7139  140.0657  143.6431 H   0  0  0  0  0  0  0  0  0  0  0  0  # atno 7974 bound_to 7965
  156.1845  140.1685  156.8210 H   0  0  0  0  0  0  0  0  0  0  0  0  # atno 8008 bound_to 7997
  154.5398  140.0739  156.8524 H   0  0  0  0  0  0  0  0  0  0  0  0  # atno 8009 bound_to 7997
  155.3237  140.3375  155.4243 H   0  0  0  0  0  0  0  0  0  0  0  0  # atno 8010 bound_to 7997
  139.4907  144.4127  151.9280 H   0  0  0  0  0  0  0  0  0  0  0  0  # atno 10167 bound_to 10162
  157.6667  131.0851  150.6011 H   0  0  0  0  0  0  0  0  0  0  0  0  # atno 10718 bound_to 10713
  153.3962  135.3869  155.1957 H   0  0  0  0  0  0  0  0  0  0  0  0  # atno 10763 bound_to 10752
  154.8724  135.3760  154.4675 H   0  0  0  0  0  0  0  0  0  0  0  0  # atno 10764 bound_to 10752
  153.5167  135.7087  153.5814 H   0  0  0  0  0  0  0  0  0  0  0  0  # atno 10765 bound_to 10752
  139.9076  134.8043  156.2124 H   0  0  0  0  0  0  0  0  0  0  0  0  # atno 11005 bound_to 11000
  145.9826  139.2953  143.1032 LP  0  0  0  0  0  0  0  0  0  0  0  0  # atno 17320 bound_to 7965
  145.8993  140.9253  143.0511 LP  0  0  0  0  0  0  0  0  0  0  0  0  # atno 17321 bound_to 7965
  140.3568  144.3021  150.5940 LP  0  0  0  0  0  0  0  0  0  0  0  0  # atno 17342 bound_to 10162
  140.5437  143.2218  151.8042 LP  0  0  0  0  0  0  0  0  0  0  0  0  # atno 17343 bound_to 10162
  156.6312  130.4432  149.5786 LP  0  0  0  0  0  0  0  0  0  0  0  0  # atno 17370 bound_to 10713
  156.2280  130.6777  151.1435 LP  0  0  0  0  0  0  0  0  0  0  0  0  # atno 17371 bound_to 10713
  141.0457  133.6914  156.1679 LP  0  0  0  0  0  0  0  0  0  0  0  0  # atno 17394 bound_to 11000
  140.6888  134.4689  157.5589 LP  0  0  0  0  0  0  0  0  0  0  0  0  # atno 17395 bound_to 11000

$$$$
