AV-unprocessed.smi:671|AV-procd|sdf|3279|dock5
  -GOLD-   22720 0243D 1   1.00000     0.00000
 Structure written by MMmdl.
 49 50  0  0  0  0  0  0  0  0  1 V2000
  153.2472  138.8796  154.3975 C   0  0  0  0  0  0  0  0  0  0  0  0
  151.8650  138.3063  154.5317 C   0  0  0  0  0  0  0  0  0  0  0  0
  151.7151  137.0090  154.7406 N   0  0  0  0  0  0  0  0  0  0  0  0
  150.3815  136.8245  154.8126 N   0  0  0  0  0  0  0  0  0  0  0  0
  149.8599  135.4907  155.0402 C   0  0  0  0  0  0  0  0  0  0  0  0
  149.6872  138.0083  154.6533 C   0  0  0  0  0  0  0  0  0  0  0  0
  148.1943  138.0673  154.6995 C   0  0  0  0  0  0  0  0  0  0  0  0
  150.6187  138.9949  154.4691 C   0  0  0  0  0  0  0  0  0  0  0  0
  150.4124  140.4708  154.2500 C   0  0  0  0  0  0  0  0  0  0  0  0
  149.2457  141.0273  155.0950 C   0  0  2  0  0  0  0  0  0  0  0  0
  148.0581  141.4769  154.2301 C   0  0  0  0  0  0  0  0  0  0  0  0
  149.7010  142.1612  155.9029 N   0  0  0  0  0  0  0  0  0  0  0  0
  150.8303  142.2631  156.6284 C   0  0  0  0  0  0  0  0  0  0  0  0
  151.6474  141.3465  156.6878 O   0  0  0  0  0  0  0  0  0  0  0  0
  150.9796  143.4343  157.2702 N   0  0  0  0  0  0  0  0  0  0  0  0
  152.0861  143.7852  158.1549 C   0  0  1  0  0  0  0  0  0  0  0  0
  151.9024  145.2118  158.7087 C   0  0  0  0  0  0  0  0  0  0  0  0
  151.6847  145.0656  160.2158 C   0  0  0  0  0  0  0  0  0  0  0  0
  152.4030  143.7699  160.5771 C   0  0  0  0  0  0  0  0  0  0  0  0
  152.1366  142.8496  159.3830 C   0  0  2  0  0  0  0  0  0  0  0  0
  153.1522  141.7060  159.2538 C   0  0  0  0  0  0  0  0  0  0  0  0
  153.5391  139.4086  155.3046 H   0  0  0  0  0  0  0  0  0  0  0  0
  153.2974  139.5883  153.5707 H   0  0  0  0  0  0  0  0  0  0  0  0
  153.9908  138.1042  154.2107 H   0  0  0  0  0  0  0  0  0  0  0  0
  149.4257  135.4339  156.0387 H   0  0  0  0  0  0  0  0  0  0  0  0
  150.6539  134.7470  154.9563 H   0  0  0  0  0  0  0  0  0  0  0  0
  149.0892  135.2653  154.3027 H   0  0  0  0  0  0  0  0  0  0  0  0
  147.8364  139.0963  154.6757 H   0  0  0  0  0  0  0  0  0  0  0  0
  147.8158  137.6066  155.6121 H   0  0  0  0  0  0  0  0  0  0  0  0
  147.7604  137.5418  153.8487 H   0  0  0  0  0  0  0  0  0  0  0  0
  151.3313  141.0019  154.5001 H   0  0  0  0  0  0  0  0  0  0  0  0
  150.2397  140.6941  153.1968 H   0  0  0  0  0  0  0  0  0  0  0  0
  148.8810  140.2451  155.7629 H   0  0  0  0  0  0  0  0  0  0  0  0
  147.6434  140.6445  153.6611 H   0  0  0  0  0  0  0  0  0  0  0  0
  148.3525  142.2509  153.5207 H   0  0  0  0  0  0  0  0  0  0  0  0
  147.2541  141.8791  154.8474 H   0  0  0  0  0  0  0  0  0  0  0  0
  149.1021  142.9740  155.8911 H   0  0  0  0  0  0  0  0  0  0  0  0
  150.2563  144.1287  157.1537 H   0  0  0  0  0  0  0  0  0  0  0  0
  153.0313  143.7524  157.6093 H   0  0  0  0  0  0  0  0  0  0  0  0
  152.8124  145.7860  158.5295 H   0  0  0  0  0  0  0  0  0  0  0  0
  151.0844  145.7574  158.2357 H   0  0  0  0  0  0  0  0  0  0  0  0
  152.0561  145.9226  160.7780 H   0  0  0  0  0  0  0  0  0  0  0  0
  150.6198  144.9660  160.4277 H   0  0  0  0  0  0  0  0  0  0  0  0
  153.4725  143.9620  160.6747 H   0  0  0  0  0  0  0  0  0  0  0  0
  152.0529  143.3463  161.5191 H   0  0  0  0  0  0  0  0  0  0  0  0
  151.1478  142.4119  159.5337 H   0  0  0  0  0  0  0  0  0  0  0  0
  154.1634  142.0868  159.1074 H   0  0  0  0  0  0  0  0  0  0  0  0
  152.9119  141.0641  158.4058 H   0  0  0  0  0  0  0  0  0  0  0  0
  153.1555  141.0840  160.1491 H   0  0  0  0  0  0  0  0  0  0  0  0
  1  2  1  0  0  0  0
  1 22  1  0  0  0  0
  1 23  1  0  0  0  0
  1 24  1  0  0  0  0
  2  8  1  0  0  0  0
  2  3  2  0  0  0  0
  3  4  1  0  0  0  0
  4  5  1  0  0  0  0
  4  6  1  0  0  0  0
  5 25  1  0  0  0  0
  5 26  1  0  0  0  0
  5 27  1  0  0  0  0
  6  7  1  0  0  0  0
  6  8  2  0  0  0  0
  7 28  1  0  0  0  0
  7 29  1  0  0  0  0
  7 30  1  0  0  0  0
  8  9  1  0  0  0  0
  9 10  1  0  0  0  0
  9 31  1  0  0  0  0
  9 32  1  0  0  0  0
 10 11  1  0  0  0  0
 10 12  1  0  0  0  0
 10 33  1  0  0  0  0
 11 34  1  0  0  0  0
 11 35  1  0  0  0  0
 11 36  1  0  0  0  0
 12 13  1  0  0  0  0
 12 37  1  0  0  0  0
 13 14  2  0  0  0  0
 13 15  1  0  0  0  0
 15 16  1  0  0  0  0
 15 38  1  0  0  0  0
 16 20  1  0  0  0  0
 16 17  1  0  0  0  0
 16 39  1  0  0  0  0
 17 18  1  0  0  0  0
 17 40  1  0  0  0  0
 17 41  1  0  0  0  0
 18 19  1  0  0  0  0
 18 42  1  0  0  0  0
 18 43  1  0  0  0  0
 19 20  1  0  0  0  0
 19 44  1  0  0  0  0
 19 45  1  0  0  0  0
 20 21  1  0  0  0  0
 20 46  1  0  0  0  0
 21 47  1  0  0  0  0
 21 48  1  0  0  0  0
 21 49  1  0  0  0  0
M  END
> <s_m_source_file>
AV-unprocessed.smi

> <i_m_source_file_index>
671

> <i_lp_mmshare_version>
43012

> <i_f3d_flags>
0

> <s_epik_input>
W0NIM11jMW5uKFtDSDNdKWMoW0NIM10pYzFbQ0gyXVtDQEhdKFtDSDNdKVtOSF1DKD1PKVtOSF1bQ0BASF0yW0NIMl1bQ0gyXVtDSDJdW0NASF0yW0NIM10=

> <s_epik_cmdline>
J2VwaWtfcHl0aG9uJywgJy1waCcsICc3LjAnLCAnLXRuJywgJzgnLCAnLW1hJywgJzIwMCcsICctbWV0YWxfYmluZGluZycsICctaW1hZScsICc8aW5maWxlLm1hZT4nLCAnLW9tYWUnLCAnPG91dGZpbGUubWFlPic=

> <r_lp_tautomer_probability>
1

> <r_epik_Ionization_Penalty>
0.0126855

> <r_epik_Ionization_Penalty_Charging>
0

> <r_epik_Ionization_Penalty_Neutral>
0.0126855

> <r_epik_State_Penalty>
0.00977547

> <r_epik_Charging_Adjusted_Penalty>
0.00977547

> <i_epik_Tot_Q>
0

> <i_epik_Tot_abs_Q>
0

> <r_epik_Metal_State_Penalty>
0.00957132

> <b_epik_Metal_Only>
0

> <s_lp_Force_Field>
OPLS_2005

> <r_lp_Energy>
21.5891

> <b_lp_Chiralities_Consistent>
1

> <s_lp_Variant>
AV-unprocessed.smi:671-7

> <Gold.Version>
5.8.1

> <Gold.Id.Protein>
6NUR|6NUR_protein|mol2

> <Gold.PLP.Fitness>
53.8819

> <Gold.PLP.PLP>
-48.0272

> <Gold.PLP.part.hbond>
-3.0000

> <Gold.PLP.part.metal>
0.0000

> <Gold.PLP.part.buried>
-1.9500

> <Gold.PLP.part.nonpolar>
-44.1772

> <Gold.PLP.part.repulsive>
0.2643

> <Gold.PLP.ligand.clash>
0.0000

> <Gold.PLP.ligand.torsion>
1.1999

> <Gold.PLP.Chemscore.Hbond>
2.7426

> <Gold.PLP.Chemscore.CHOScore>
0.0000

> <Gold.PLP.Chemscore.Metal>
0.0000

> <Gold.Chemscore.Hbonds>
donor molecule, donor type, donor heavy atom, donor atom, acceptor molecule, acceptor atom, score
      L1  H    12    37       P1  8028  1.00
      L1  H    15    38       P1  8028  0.68
      P1  H 10752 10764       L1     3  0.91

> <Gold.PLP.Chemscore.Internal.Correction>
0.0268

> <Gold.Rescore>
     Score         DG    S(hbond)    S(metal)    S(lipo)     H(rot)  DE(clash)    DE(int)     intcor
     21.68     -26.71       2.85        0.00     131.91       1.45       1.88       3.15       ----

> <Gold.Chemscore.Fitness>
21.6784

> <Gold.Chemscore.DG>
-26.7071

> <Gold.Chemscore.ZeroCoef>
-5.4800

> <Gold.Chemscore.Hbond>
2.8459

> <Gold.Chemscore.Metal>
0.0000

> <Gold.Chemscore.Lipo>
131.9110

> <Gold.Chemscore.Internal_Hbond>
0.0000

> <Gold.Chemscore.DEClash>
1.8810

> <Gold.Chemscore.DEInternal>
3.1476

> <Gold.Chemscore.Rot>
1.4499

> <Gold.Chemscore.Internal.Correction>
   9.000000E+99

> <Gold.Chemscore.Hbonds>
donor molecule, donor type, donor heavy atom, donor atom, acceptor molecule, acceptor atom, score
      L1  H    12    37       P1  8028  0.94
      L1  H    15    38       P1  8028  0.57
      P1  H 10752 10764       L1     3  0.89

> <Gold.Chemscore.Hbond.Weighted>
-9.5054

> <Gold.Chemscore.Metal.Weighted>
-0.0000

> <Gold.Chemscore.Lipo.Weighted>
-15.4336

> <Gold.Chemscore.Internal_Hbond.Weighted>
0.0000

> <Gold.Chemscore.DEClash.Weighted>
1.8810

> <Gold.Chemscore.DEInternal.Weighted>
3.1476

> <Gold.Chemscore.Rot.Weighted>
3.7118

> <Gold.Chemscore.Internal.Correction.Weighted>
   9.000000E+99

> <Gold.Protein.RotatedTorsions>
[ 6907 6896 6895 6894 ] final -135.15 input  -60.11 | X-H torsion
[ 7974 7965 7964 7962 ] final  -66.12 input  175.53 | X-H torsion
[ 8008 7997 7996 7995 ] final  136.37 input   59.86 | X-H torsion
[ 10167 10162 10161 10158 ] final -107.94 input  -65.29 | X-H torsion
[ 10718 10713 10712 10709 ] final  153.69 input   66.30 | X-H torsion
[ 10763 10752 10751 10750 ] final  -49.24 input  -60.55 | X-H torsion
[ 11005 11000 10999 10996 ] final  -35.61 input  -57.11 | X-H torsion

> <Gold.Protein.ActiveResidues>
 VAL166  LYS551  ARG553  GLY616  TRP617  ASP618  TYR619  PRO620  LYS621  CYS622 
 ASP623  PHE694  ASN695  SER759  ASP760  ASP761  ALA762  ILE779  LEU786  VAL792 
 PHE793  MET794  SER795  GLU796  ALA797  LYS798  CYS799  TRP800  GLU811  SER814 

> <Gold.Protein.RotatedAtoms>
  150.9944  133.6118  159.2703 H   0  0  0  0  0  0  0  0  0  0  0  0  # atno 6907 bound_to 6896
  151.3327  135.0844  159.9354 H   0  0  0  0  0  0  0  0  0  0  0  0  # atno 6908 bound_to 6896
  152.5255  133.9570  159.7753 H   0  0  0  0  0  0  0  0  0  0  0  0  # atno 6909 bound_to 6896
  145.7457  140.8932  143.0506 H   0  0  0  0  0  0  0  0  0  0  0  0  # atno 7974 bound_to 7965
  156.3004  140.2447  156.3735 H   0  0  0  0  0  0  0  0  0  0  0  0  # atno 8008 bound_to 7997
  154.8767  140.0414  157.1777 H   0  0  0  0  0  0  0  0  0  0  0  0  # atno 8009 bound_to 7997
  154.8739  140.2939  155.5469 H   0  0  0  0  0  0  0  0  0  0  0  0  # atno 8010 bound_to 7997
  140.1715  143.4039  152.1351 H   0  0  0  0  0  0  0  0  0  0  0  0  # atno 10167 bound_to 10162
  157.2414  131.0760  151.1789 H   0  0  0  0  0  0  0  0  0  0  0  0  # atno 10718 bound_to 10713
  154.0908  135.6577  153.4852 H   0  0  0  0  0  0  0  0  0  0  0  0  # atno 10763 bound_to 10752
  153.0322  135.5202  154.7382 H   0  0  0  0  0  0  0  0  0  0  0  0  # atno 10764 bound_to 10752
  154.6505  135.3000  154.9961 H   0  0  0  0  0  0  0  0  0  0  0  0  # atno 10765 bound_to 10752
  140.9809  133.7056  156.1683 H   0  0  0  0  0  0  0  0  0  0  0  0  # atno 11005 bound_to 11000
  144.6860  139.9522  143.7478 LP  0  0  0  0  0  0  0  0  0  0  0  0  # atno 17320 bound_to 7965
  146.0405  139.3417  143.0700 LP  0  0  0  0  0  0  0  0  0  0  0  0  # atno 17321 bound_to 7965
  139.5336  144.7185  151.4971 LP  0  0  0  0  0  0  0  0  0  0  0  0  # atno 17342 bound_to 10162
  140.6579  143.8561  150.6855 LP  0  0  0  0  0  0  0  0  0  0  0  0  # atno 17343 bound_to 10162
  157.3374  130.7016  149.6361 LP  0  0  0  0  0  0  0  0  0  0  0  0  # atno 17370 bound_to 10713
  155.9670  130.4290  150.4812 LP  0  0  0  0  0  0  0  0  0  0  0  0  # atno 17371 bound_to 10713
  140.7187  134.4382  157.5576 LP  0  0  0  0  0  0  0  0  0  0  0  0  # atno 17394 bound_to 11000
  139.8950  134.8693  156.2152 LP  0  0  0  0  0  0  0  0  0  0  0  0  # atno 17395 bound_to 11000

$$$$
