AV-unprocessed.smi:2032|AV-procd|sdf|8235|dock6
  -GOLD-   2272010503D 1   1.00000     0.00000
 Structure written by MMmdl.
 42 43  0  0  0  0  0  0  0  0  1 V2000
  153.7187  141.1233  160.7693 C   0  0  0  0  0  0  0  0  0  0  0  0
  153.0781  142.0015  159.6893 C   0  0  1  0  0  0  0  0  0  0  0  0
  152.2867  141.1723  158.6617 C   0  0  0  0  0  0  0  0  0  0  0  0
  151.6011  142.0015  157.6656 N   0  0  0  0  0  0  0  0  0  0  0  0
  150.8577  141.2002  156.6636 C   0  0  2  0  0  0  0  0  0  0  0  0
  151.7470  140.1430  155.9603 C   0  0  0  0  0  0  0  0  0  0  0  0
  150.1563  142.0767  155.5864 C   0  0  0  0  0  0  0  0  0  0  0  0
  149.5971  141.2995  154.4819 N   0  0  0  0  0  0  0  0  0  0  0  0
  148.6177  140.3889  154.5862 C   0  0  0  0  0  0  0  0  0  0  0  0
  148.0566  140.1096  155.6459 O   0  0  0  0  0  0  0  0  0  0  0  0
  148.3375  139.8383  153.3919 N   0  0  0  0  0  0  0  0  0  0  0  0
  147.3732  138.8409  153.0900 C   0  0  0  0  0  0  0  0  0  0  0  0
  146.7938  138.0504  154.0014 N   0  0  0  0  0  0  0  0  0  0  0  0
  145.8852  137.1609  153.4228 C   0  0  0  0  0  0  0  0  0  0  0  0
  145.7833  137.2895  152.0599 C   0  0  0  0  0  0  0  0  0  0  0  0
  146.8318  138.5397  151.4451 S   0  0  0  0  0  0  0  0  0  0  0  0
  150.7416  142.9511  158.3827 C   0  0  0  0  0  0  0  0  0  0  0  0
  151.4864  143.7789  159.4488 C   0  0  2  0  0  0  0  0  0  0  0  0
  152.3882  144.8727  158.8508 C   0  0  0  0  0  0  0  0  0  0  0  0
  152.2038  142.9215  160.3330 O   0  0  0  0  0  0  0  0  0  0  0  0
  154.4104  140.4033  160.3315 H   0  0  0  0  0  0  0  0  0  0  0  0
  152.9632  140.5674  161.3252 H   0  0  0  0  0  0  0  0  0  0  0  0
  154.2778  141.7293  161.4826 H   0  0  0  0  0  0  0  0  0  0  0  0
  153.8726  142.5488  159.1813 H   0  0  0  0  0  0  0  0  0  0  0  0
  153.0012  140.5070  158.1809 H   0  0  0  0  0  0  0  0  0  0  0  0
  151.5619  140.5407  159.1775 H   0  0  0  0  0  0  0  0  0  0  0  0
  150.0728  140.6528  157.1881 H   0  0  0  0  0  0  0  0  0  0  0  0
  151.2036  139.5782  155.2045 H   0  0  0  0  0  0  0  0  0  0  0  0
  152.1230  139.3894  156.6504 H   0  0  0  0  0  0  0  0  0  0  0  0
  152.6011  140.6102  155.4689 H   0  0  0  0  0  0  0  0  0  0  0  0
  149.3000  142.6020  156.0049 H   0  0  0  0  0  0  0  0  0  0  0  0
  150.8422  142.8463  155.2277 H   0  0  0  0  0  0  0  0  0  0  0  0
  149.9950  141.4645  153.5691 H   0  0  0  0  0  0  0  0  0  0  0  0
  148.8796  140.1684  152.6072 H   0  0  0  0  0  0  0  0  0  0  0  0
  145.3527  136.4682  154.0574 H   0  0  0  0  0  0  0  0  0  0  0  0
  145.1580  136.7261  151.3836 H   0  0  0  0  0  0  0  0  0  0  0  0
  150.2821  143.6583  157.6954 H   0  0  0  0  0  0  0  0  0  0  0  0
  149.9265  142.4074  158.8628 H   0  0  0  0  0  0  0  0  0  0  0  0
  150.7384  144.2852  160.0596 H   0  0  0  0  0  0  0  0  0  0  0  0
  151.7980  145.5953  158.2867 H   0  0  0  0  0  0  0  0  0  0  0  0
  153.1353  144.4635  158.1711 H   0  0  0  0  0  0  0  0  0  0  0  0
  152.9124  145.4168  159.6364 H   0  0  0  0  0  0  0  0  0  0  0  0
  1  2  1  0  0  0  0
  1 21  1  0  0  0  0
  1 22  1  0  0  0  0
  1 23  1  0  0  0  0
  2 20  1  0  0  0  0
  2  3  1  0  0  0  0
  2 24  1  0  0  0  0
  3  4  1  0  0  0  0
  3 25  1  0  0  0  0
  3 26  1  0  0  0  0
  4  5  1  0  0  0  0
  4 17  1  0  0  0  0
  5  6  1  0  0  0  0
  5  7  1  0  0  0  0
  5 27  1  0  0  0  0
  6 28  1  0  0  0  0
  6 29  1  0  0  0  0
  6 30  1  0  0  0  0
  7  8  1  0  0  0  0
  7 31  1  0  0  0  0
  7 32  1  0  0  0  0
  8  9  1  0  0  0  0
  8 33  1  0  0  0  0
  9 10  2  0  0  0  0
  9 11  1  0  0  0  0
 11 12  1  0  0  0  0
 11 34  1  0  0  0  0
 12 16  1  0  0  0  0
 12 13  2  0  0  0  0
 13 14  1  0  0  0  0
 14 15  2  0  0  0  0
 14 35  1  0  0  0  0
 15 16  1  0  0  0  0
 15 36  1  0  0  0  0
 17 18  1  0  0  0  0
 17 37  1  0  0  0  0
 17 38  1  0  0  0  0
 18 19  1  0  0  0  0
 18 20  1  0  0  0  0
 18 39  1  0  0  0  0
 19 40  1  0  0  0  0
 19 41  1  0  0  0  0
 19 42  1  0  0  0  0
M  END
> <s_m_source_file>
AV-unprocessed.smi

> <i_m_source_file_index>
2032

> <i_lp_mmshare_version>
43012

> <i_f3d_flags>
0

> <s_epik_input>
W0NIM11bQ0BASF0xW0NIMl1OKFtDSDJdW0NASF0oTzEpW0NIM10pW0NASF0oW0NIM10pW0NIMl1bTkhdQyg9TylbTkhdYzJuW2NIXVtjSF1zMg==

> <s_epik_cmdline>
J2VwaWtfcHl0aG9uJywgJy1waCcsICc3LjAnLCAnLXRuJywgJzgnLCAnLW1hJywgJzIwMCcsICctbWV0YWxfYmluZGluZycsICctaW1hZScsICc8aW5maWxlLm1hZT4nLCAnLW9tYWUnLCAnPG91dGZpbGUubWFlPic=

> <r_lp_tautomer_probability>
0.999

> <r_epik_Ionization_Penalty>
0.219202

> <r_epik_Ionization_Penalty_Charging>
0

> <r_epik_Ionization_Penalty_Neutral>
0.219202

> <r_epik_State_Penalty>
0.209349

> <r_epik_Charging_Adjusted_Penalty>
0.209349

> <i_epik_Tot_Q>
0

> <i_epik_Tot_abs_Q>
0

> <r_epik_Metal_State_Penalty>
0.247737

> <b_epik_Metal_Only>
0

> <s_lp_Force_Field>
OPLS_2005

> <r_lp_Energy>
29.5908

> <b_lp_Chiralities_Consistent>
1

> <s_lp_Variant>
AV-unprocessed.smi:2032-5

> <Gold.Version>
5.8.1

> <Gold.Id.Protein>
6NUR|6NUR_protein|mol2

> <Gold.PLP.Fitness>
40.9301

> <Gold.PLP.PLP>
-36.5211

> <Gold.PLP.part.hbond>
-1.0000

> <Gold.PLP.part.metal>
0.0000

> <Gold.PLP.part.buried>
0.1447

> <Gold.PLP.part.nonpolar>
-36.1439

> <Gold.PLP.part.repulsive>
1.2278

> <Gold.PLP.ligand.clash>
0.0000

> <Gold.PLP.ligand.torsion>
0.1575

> <Gold.PLP.Chemscore.Hbond>
1.0000

> <Gold.PLP.Chemscore.CHOScore>
0.5662

> <Gold.PLP.Chemscore.Metal>
0.0000

> <Gold.Chemscore.Hbonds>
donor molecule, donor type, donor heavy atom, donor atom, acceptor molecule, acceptor atom, score
      L1  H    11    34       P1  7957  1.00
      L1  C    15    36       P1 10171  0.23

> <Gold.PLP.Chemscore.Internal.Correction>
0.0254

> <Gold.Rescore>
     Score         DG    S(hbond)    S(metal)    S(lipo)     H(rot)  DE(clash)    DE(int)     intcor
     14.17     -16.58       1.00        0.00     100.94       1.57       1.03       1.38       ----

> <Gold.Chemscore.Fitness>
14.1711

> <Gold.Chemscore.DG>
-16.5842

> <Gold.Chemscore.ZeroCoef>
-5.4800

> <Gold.Chemscore.Hbond>
0.9960

> <Gold.Chemscore.Metal>
0.0000

> <Gold.Chemscore.Lipo>
100.9356

> <Gold.Chemscore.Internal_Hbond>
0.0000

> <Gold.Chemscore.DEClash>
1.0283

> <Gold.Chemscore.DEInternal>
1.3848

> <Gold.Chemscore.Rot>
1.5750

> <Gold.Chemscore.Internal.Correction>
   9.000000E+99

> <Gold.Chemscore.Hbonds>
donor molecule, donor type, donor heavy atom, donor atom, acceptor molecule, acceptor atom, score
      L1  H    11    34       P1  7957  0.97

> <Gold.Chemscore.Hbond.Weighted>
-3.3267

> <Gold.Chemscore.Metal.Weighted>
-0.0000

> <Gold.Chemscore.Lipo.Weighted>
-11.8095

> <Gold.Chemscore.Internal_Hbond.Weighted>
0.0000

> <Gold.Chemscore.DEClash.Weighted>
1.0283

> <Gold.Chemscore.DEInternal.Weighted>
1.3848

> <Gold.Chemscore.Rot.Weighted>
4.0319

> <Gold.Chemscore.Internal.Correction.Weighted>
   9.000000E+99

> <Gold.Protein.RotatedTorsions>
[ 6907 6896 6895 6894 ] final  -97.69 input  -60.11 | X-H torsion
[ 7974 7965 7964 7962 ] final   57.89 input  175.53 | X-H torsion
[ 8008 7997 7996 7995 ] final -144.69 input   59.86 | X-H torsion
[ 10167 10162 10161 10158 ] final    0.68 input  -65.29 | X-H torsion
[ 10718 10713 10712 10709 ] final  165.06 input   66.30 | X-H torsion
[ 10763 10752 10751 10750 ] final   36.55 input  -60.55 | X-H torsion
[ 11005 11000 10999 10996 ] final -124.72 input  -57.11 | X-H torsion

> <Gold.Protein.ActiveResidues>
 VAL166  LYS551  ARG553  GLY616  TRP617  ASP618  TYR619  PRO620  LYS621  CYS622 
 ASP623  PHE694  ASN695  SER759  ASP760  ASP761  ALA762  ILE779  LEU786  VAL792 
 PHE793  MET794  SER795  GLU796  ALA797  LYS798  CYS799  TRP800  GLU811  SER814 

> <Gold.Protein.RotatedAtoms>
  150.7024  134.1310  159.4069 H   0  0  0  0  0  0  0  0  0  0  0  0  # atno 6907 bound_to 6896
  151.9295  135.0260  160.0537 H   0  0  0  0  0  0  0  0  0  0  0  0  # atno 6908 bound_to 6896
  152.2187  133.4932  159.5187 H   0  0  0  0  0  0  0  0  0  0  0  0  # atno 6909 bound_to 6896
  145.9242  139.3754  143.0460 H   0  0  0  0  0  0  0  0  0  0  0  0  # atno 7974 bound_to 7965
  155.5310  140.0599  157.2889 H   0  0  0  0  0  0  0  0  0  0  0  0  # atno 8008 bound_to 7997
  154.4484  140.1936  156.0539 H   0  0  0  0  0  0  0  0  0  0  0  0  # atno 8009 bound_to 7997
  156.0652  140.3267  155.7513 H   0  0  0  0  0  0  0  0  0  0  0  0  # atno 8010 bound_to 7997
  140.6717  143.7029  150.7938 H   0  0  0  0  0  0  0  0  0  0  0  0  # atno 10167 bound_to 10162
  157.0855  131.0403  151.2558 H   0  0  0  0  0  0  0  0  0  0  0  0  # atno 10718 bound_to 10713
  153.0072  135.6302  154.2003 H   0  0  0  0  0  0  0  0  0  0  0  0  # atno 10763 bound_to 10752
  154.1746  135.2816  155.3072 H   0  0  0  0  0  0  0  0  0  0  0  0  # atno 10764 bound_to 10752
  154.5882  135.5626  153.7312 H   0  0  0  0  0  0  0  0  0  0  0  0  # atno 10765 bound_to 10752
  140.9819  134.0661  157.3755 H   0  0  0  0  0  0  0  0  0  0  0  0  # atno 11005 bound_to 11000
  145.8510  140.9528  143.0749 LP  0  0  0  0  0  0  0  0  0  0  0  0  # atno 17320 bound_to 7965
  144.6756  140.0407  143.7481 LP  0  0  0  0  0  0  0  0  0  0  0  0  # atno 17321 bound_to 7965
  140.0715  143.5056  152.2577 LP  0  0  0  0  0  0  0  0  0  0  0  0  # atno 17342 bound_to 10162
  139.5989  144.7576  151.3219 LP  0  0  0  0  0  0  0  0  0  0  0  0  # atno 17343 bound_to 10162
  157.4765  130.7739  149.7373 LP  0  0  0  0  0  0  0  0  0  0  0  0  # atno 17370 bound_to 10713
  155.9912  130.3939  150.2995 LP  0  0  0  0  0  0  0  0  0  0  0  0  # atno 17371 bound_to 10713
  139.8954  135.0140  156.6998 LP  0  0  0  0  0  0  0  0  0  0  0  0  # atno 17394 bound_to 11000
  140.7174  133.9171  155.8124 LP  0  0  0  0  0  0  0  0  0  0  0  0  # atno 17395 bound_to 11000

$$$$
