AV-unprocessed.smi:114|AV-procd|sdf|1114|dock2
  -GOLD-   2262018233D 1   1.00000     0.00000
 Structure written by MMmdl.
 32 34  0  0  0  0  0  0  0  0  1 V2000
  143.1891  144.7849  156.1640 N   0  0  0  0  0  0  0  0  0  0  0  0
  144.0827  144.4284  155.2306 C   0  0  0  0  0  0  0  0  0  0  0  0
  144.2161  145.2107  154.1343 N   0  0  0  0  0  0  0  0  0  0  0  0
  145.0958  144.8897  153.1777 C   0  0  0  0  0  0  0  0  0  0  0  0
  145.1635  145.7269  152.1163 F   0  0  0  0  0  0  0  0  0  0  0  0
  145.9174  143.8349  153.1530 N   0  0  0  0  0  0  0  0  0  0  0  0
  145.7874  143.0439  154.2571 C   0  0  0  0  0  0  0  0  0  0  0  0
  144.8932  143.2718  155.3372 C   0  0  0  0  0  0  0  0  0  0  0  0
  145.0280  142.2657  156.2843 N   0  0  0  0  0  0  0  0  0  0  0  0
  145.9516  141.4875  155.7860 C   0  0  0  0  0  0  0  0  0  0  0  0
  146.4664  141.8838  154.5709 N   0  0  0  0  0  0  0  0  0  0  0  0
  147.5215  141.2022  153.7611 C   0  0  1  0  0  0  0  0  0  0  0  0
  148.7411  141.3710  154.4147 O   0  0  0  0  0  0  0  0  0  0  0  0
  149.4843  140.1592  154.3653 C   0  0  1  0  0  0  0  0  0  0  0  0
  150.4906  140.1217  155.5253 C   0  0  0  0  0  0  0  0  0  0  0  0
  151.8072  140.0377  155.0224 O   0  0  0  0  0  0  0  0  0  0  0  0
  148.3900  139.0954  154.4704 C   0  0  2  0  0  0  0  0  0  0  0  0
  148.8128  137.8266  154.0057 O   0  0  0  0  0  0  0  0  0  0  0  0
  147.2461  139.6929  153.6523 C   0  0  2  0  0  0  0  0  0  0  0  0
  147.2765  139.2714  152.3006 O   0  0  0  0  0  0  0  0  0  0  0  0
  147.5182  141.7216  152.8016 H   0  0  0  0  0  0  0  0  0  0  0  0
  149.9848  140.0798  153.3979 H   0  0  0  0  0  0  0  0  0  0  0  0
  148.0746  138.9948  155.5090 H   0  0  0  0  0  0  0  0  0  0  0  0
  146.2732  139.4375  154.0749 H   0  0  0  0  0  0  0  0  0  0  0  0
  143.0715  144.2166  156.9906 H   0  0  0  0  0  0  0  0  0  0  0  0
  142.6336  145.6187  156.0381 H   0  0  0  0  0  0  0  0  0  0  0  0
  146.2867  140.5969  156.2976 H   0  0  0  0  0  0  0  0  0  0  0  0
  150.3836  140.9931  156.1723 H   0  0  0  0  0  0  0  0  0  0  0  0
  150.3202  139.2388  156.1418 H   0  0  0  0  0  0  0  0  0  0  0  0
  152.0869  139.1359  155.0633 H   0  0  0  0  0  0  0  0  0  0  0  0
  148.7716  137.8250  153.0614 H   0  0  0  0  0  0  0  0  0  0  0  0
  148.0390  139.6475  151.8880 H   0  0  0  0  0  0  0  0  0  0  0  0
  1  2  1  0  0  0  0
  1 25  1  0  0  0  0
  1 26  1  0  0  0  0
  2  8  1  0  0  0  0
  2  3  2  0  0  0  0
  3  4  1  0  0  0  0
  4  5  1  0  0  0  0
  4  6  2  0  0  0  0
  6  7  1  0  0  0  0
  7 11  1  0  0  0  0
  7  8  2  0  0  0  0
  8  9  1  0  0  0  0
  9 10  2  0  0  0  0
 10 11  1  0  0  0  0
 10 27  1  0  0  0  0
 11 12  1  0  0  0  0
 12 21  1  0  0  0  0
 12 19  1  0  0  0  0
 12 13  1  0  0  0  0
 13 14  1  0  0  0  0
 14 22  1  0  0  0  0
 14 15  1  0  0  0  0
 14 17  1  0  0  0  0
 15 16  1  0  0  0  0
 15 28  1  0  0  0  0
 15 29  1  0  0  0  0
 16 30  1  0  0  0  0
 17 23  1  0  0  0  0
 17 18  1  0  0  0  0
 17 19  1  0  0  0  0
 18 31  1  0  0  0  0
 19 24  1  0  0  0  0
 19 20  1  0  0  0  0
 20 32  1  0  0  0  0
M  END
> <s_m_source_file>
AV-unprocessed.smi

> <i_m_source_file_index>
114

> <i_lp_mmshare_version>
43012

> <i_f3d_flags>
0

> <s_epik_input>
RmMobjEpbmMoW05IMl0pYyhjMTIpbltjSF1uMltDQEBIXTNPW0NASF0oW0NIMl1bT0hdKVtDQEBIXShbT0hdKVtDQEBIXTNbT0hd

> <s_epik_cmdline>
J2VwaWtfcHl0aG9uJywgJy1waCcsICc3LjAnLCAnLXRuJywgJzgnLCAnLW1hJywgJzIwMCcsICctbWV0YWxfYmluZGluZycsICctaW1hZScsICc8aW5maWxlLm1hZT4nLCAnLW9tYWUnLCAnPG91dGZpbGUubWFlPic=

> <r_lp_tautomer_probability>
1

> <r_epik_Ionization_Penalty>
1.13199e-05

> <r_epik_Ionization_Penalty_Charging>
0

> <r_epik_Ionization_Penalty_Neutral>
1.13199e-05

> <r_epik_State_Penalty>
-0

> <r_epik_Charging_Adjusted_Penalty>
0

> <i_epik_Tot_Q>
0

> <i_epik_Tot_abs_Q>
0

> <r_epik_Metal_State_Penalty>
-0

> <b_epik_Metal_Only>
0

> <s_epik_Chemistry_Notes>
This compound contains an acetal/aminal-like group ( X-CH(R)-Y where X, Y are N, S, or O) that may be acid/base labile, releasing an aldehyde.

> <s_lp_Force_Field>
OPLS_2005

> <r_lp_Energy>
39.1669

> <b_lp_Chiralities_Consistent>
1

> <s_lp_Variant>
AV-unprocessed.smi:114-8

> <Gold.Version>
5.8.1

> <Gold.Id.Protein>
6NUR|6NUR_protein|mol2

> <Gold.PLP.Fitness>
39.5717

> <Gold.PLP.PLP>
-33.9192

> <Gold.PLP.part.hbond>
-4.2774

> <Gold.PLP.part.metal>
0.0000

> <Gold.PLP.part.buried>
-3.2773

> <Gold.PLP.part.nonpolar>
-28.7805

> <Gold.PLP.part.repulsive>
0.5473

> <Gold.PLP.ligand.clash>
0.0000

> <Gold.PLP.ligand.torsion>
0.9997

> <Gold.PLP.Chemscore.Hbond>
2.5463

> <Gold.PLP.Chemscore.CHOScore>
0.0000

> <Gold.PLP.Chemscore.Metal>
0.0000

> <Gold.Chemscore.Hbonds>
donor molecule, donor type, donor heavy atom, donor atom, acceptor molecule, acceptor atom, score
      L1  H    18    31       P1  7948  0.54
      L1  H    20    32       P1  7957  1.00
      P1  H  7989  7998       L1    16  0.93

> <Gold.PLP.Chemscore.Internal.Correction>
0.0130

> <Gold.Rescore>
     Score         DG    S(hbond)    S(metal)    S(lipo)     H(rot)  DE(clash)    DE(int)     intcor
      3.84      -5.38       2.17        0.00      25.34       4.03       0.56       0.99       ----

> <Gold.Chemscore.Fitness>
3.8392

> <Gold.Chemscore.DG>
-5.3842

> <Gold.Chemscore.ZeroCoef>
-5.4800

> <Gold.Chemscore.Hbond>
2.1709

> <Gold.Chemscore.Metal>
0.0000

> <Gold.Chemscore.Lipo>
25.3375

> <Gold.Chemscore.Internal_Hbond>
0.0000

> <Gold.Chemscore.DEClash>
0.5560

> <Gold.Chemscore.DEInternal>
0.9890

> <Gold.Chemscore.Rot>
4.0277

> <Gold.Chemscore.Internal.Correction>
   9.000000E+99

> <Gold.Chemscore.Hbonds>
donor molecule, donor type, donor heavy atom, donor atom, acceptor molecule, acceptor atom, score
      L1  H    18    31       P1  7948  0.53
      L1  H    20    32       P1  7957  1.00
      P1  H  7989  7998       L1    16  0.31

> <Gold.Chemscore.Hbond.Weighted>
-7.2507

> <Gold.Chemscore.Metal.Weighted>
-0.0000

> <Gold.Chemscore.Lipo.Weighted>
-2.9645

> <Gold.Chemscore.Internal_Hbond.Weighted>
0.0000

> <Gold.Chemscore.DEClash.Weighted>
0.5560

> <Gold.Chemscore.DEInternal.Weighted>
0.9890

> <Gold.Chemscore.Rot.Weighted>
10.3110

> <Gold.Chemscore.Internal.Correction.Weighted>
   9.000000E+99

> <Gold.Protein.RotatedTorsions>
[ 6907 6896 6895 6894 ] final -171.66 input  -60.11 | X-H torsion
[ 7974 7965 7964 7962 ] final  145.35 input  175.53 | X-H torsion
[ 8008 7997 7996 7995 ] final   53.20 input   59.86 | X-H torsion
[ 10167 10162 10161 10158 ] final  123.49 input  -65.29 | X-H torsion
[ 10718 10713 10712 10709 ] final   -7.42 input   66.30 | X-H torsion
[ 10763 10752 10751 10750 ] final  112.31 input  -60.55 | X-H torsion
[ 11005 11000 10999 10996 ] final  -87.30 input  -57.11 | X-H torsion

> <Gold.Protein.ActiveResidues>
 VAL166  LYS551  ARG553  GLY616  TRP617  ASP618  TYR619  PRO620  LYS621  CYS622 
 ASP623  PHE694  ASN695  SER759  ASP760  ASP761  ALA762  ILE779  LEU786  VAL792 
 PHE793  MET794  SER795  GLU796  ALA797  LYS798  CYS799  TRP800  GLU811  SER814 

> <Gold.Protein.RotatedAtoms>
  151.5273  133.3455  159.2911 H   0  0  0  0  0  0  0  0  0  0  0  0  # atno 6907 bound_to 6896
  150.8615  134.7970  159.7097 H   0  0  0  0  0  0  0  0  0  0  0  0  # atno 6908 bound_to 6896
  152.4633  134.5143  159.9815 H   0  0  0  0  0  0  0  0  0  0  0  0  # atno 6909 bound_to 6896
  144.8759  139.5773  143.5865 H   0  0  0  0  0  0  0  0  0  0  0  0  # atno 7974 bound_to 7965
  155.4644  140.3463  155.4317 H   0  0  0  0  0  0  0  0  0  0  0  0  # atno 8008 bound_to 7997
  156.1140  140.1469  156.9328 H   0  0  0  0  0  0  0  0  0  0  0  0  # atno 8009 bound_to 7997
  154.4776  140.0880  156.7279 H   0  0  0  0  0  0  0  0  0  0  0  0  # atno 8010 bound_to 7997
  139.5796  144.6980  151.3562 H   0  0  0  0  0  0  0  0  0  0  0  0  # atno 10167 bound_to 10162
  156.7174  130.5140  149.5876 H   0  0  0  0  0  0  0  0  0  0  0  0  # atno 10718 bound_to 10713
  153.4760  135.3690  155.2416 H   0  0  0  0  0  0  0  0  0  0  0  0  # atno 10763 bound_to 10752
  154.8756  135.3943  154.3756 H   0  0  0  0  0  0  0  0  0  0  0  0  # atno 10764 bound_to 10752
  153.4352  135.7083  153.6270 H   0  0  0  0  0  0  0  0  0  0  0  0  # atno 10765 bound_to 10752
  141.1619  133.7503  156.9287 H   0  0  0  0  0  0  0  0  0  0  0  0  # atno 11005 bound_to 11000
  146.2962  139.7286  142.9125 LP  0  0  0  0  0  0  0  0  0  0  0  0  # atno 17320 bound_to 7965
  145.4043  141.0389  143.3053 LP  0  0  0  0  0  0  0  0  0  0  0  0  # atno 17321 bound_to 7965
  140.7076  143.7474  150.7509 LP  0  0  0  0  0  0  0  0  0  0  0  0  # atno 17342 bound_to 10162
  140.1003  143.4794  152.2429 LP  0  0  0  0  0  0  0  0  0  0  0  0  # atno 17343 bound_to 10162
  156.1618  130.6379  151.0728 LP  0  0  0  0  0  0  0  0  0  0  0  0  # atno 17370 bound_to 10713
  157.6911  131.0809  150.7103 LP  0  0  0  0  0  0  0  0  0  0  0  0  # atno 17371 bound_to 10713
  140.1401  134.9299  157.2455 LP  0  0  0  0  0  0  0  0  0  0  0  0  # atno 17394 bound_to 11000
  140.2847  134.3310  155.7332 LP  0  0  0  0  0  0  0  0  0  0  0  0  # atno 17395 bound_to 11000

$$$$
