AV-unprocessed.smi:2860|AV-procd|sdf|11006|dock4
  -GOLD-   2272015463D 1   1.00000     0.00000
 Structure written by MMmdl.
 45 46  0  0  0  0  0  0  0  0  1 V2000
  145.5863  145.1792  160.3325 C   0  0  0  0  0  0  0  0  0  0  0  0
  146.9377  145.3841  161.0299 C   0  0  0  0  0  0  0  0  0  0  0  0
  148.0486  145.1401  160.1183 N   0  0  0  0  0  0  0  0  0  0  0  0
  149.1911  144.5154  160.4445 C   0  0  0  0  0  0  0  0  0  0  0  0
  149.4135  144.0457  161.5601 O   0  0  0  0  0  0  0  0  0  0  0  0
  150.2498  144.4125  159.3459 C   0  0  0  0  0  0  0  0  0  0  0  0
  151.4422  143.7444  159.8358 N   0  0  0  0  0  0  0  0  0  0  0  0
  152.3168  144.1625  160.8200 C   0  0  0  0  0  0  0  0  0  0  0  0
  153.2798  143.2025  160.9500 C   0  0  0  0  0  0  0  0  0  0  0  0
  152.9014  142.2277  159.9865 C   0  0  0  0  0  0  0  0  0  0  0  0
  153.6656  141.0456  159.8169 N   0  0  0  0  0  0  0  0  0  0  0  0
  154.6496  140.5802  160.6076 C   0  0  0  0  0  0  0  0  0  0  0  0
  154.9677  141.0770  161.6879 O   0  0  0  0  0  0  0  0  0  0  0  0
  155.2710  139.3187  160.1004 C   0  0  0  0  0  0  0  0  0  0  0  0
  154.3911  138.1105  159.7815 C   0  0  0  0  0  0  0  0  0  0  0  0
  152.8758  138.0979  159.9844 C   0  0  0  0  0  0  0  0  0  0  0  0
  154.7072  137.3088  158.5257 C   0  0  0  0  0  0  0  0  0  0  0  0
  155.3313  138.0777  160.9871 C   0  0  0  0  0  0  0  0  0  0  0  0
  156.6038  137.2418  160.9599 C   0  0  0  0  0  0  0  0  0  0  0  0
  154.7724  138.0523  162.4102 C   0  0  0  0  0  0  0  0  0  0  0  0
  151.8023  142.5493  159.3186 N   0  0  0  0  0  0  0  0  0  0  0  0
  144.7631  145.3358  161.0295 H   0  0  0  0  0  0  0  0  0  0  0  0
  145.4978  144.1678  159.9347 H   0  0  0  0  0  0  0  0  0  0  0  0
  145.4562  145.8775  159.5050 H   0  0  0  0  0  0  0  0  0  0  0  0
  147.0023  146.3902  161.4475 H   0  0  0  0  0  0  0  0  0  0  0  0
  147.0272  144.6934  161.8684 H   0  0  0  0  0  0  0  0  0  0  0  0
  147.9506  145.4891  159.1758 H   0  0  0  0  0  0  0  0  0  0  0  0
  149.8501  143.8636  158.4916 H   0  0  0  0  0  0  0  0  0  0  0  0
  150.5227  145.4066  158.9895 H   0  0  0  0  0  0  0  0  0  0  0  0
  152.1787  145.0970  161.3436 H   0  0  0  0  0  0  0  0  0  0  0  0
  154.1200  143.1986  161.6285 H   0  0  0  0  0  0  0  0  0  0  0  0
  153.4658  140.5097  158.9852 H   0  0  0  0  0  0  0  0  0  0  0  0
  156.0972  139.4852  159.4113 H   0  0  0  0  0  0  0  0  0  0  0  0
  152.5279  137.0773  160.1450 H   0  0  0  0  0  0  0  0  0  0  0  0
  152.3733  138.4967  159.1026 H   0  0  0  0  0  0  0  0  0  0  0  0
  152.5592  138.6969  160.8359 H   0  0  0  0  0  0  0  0  0  0  0  0
  154.4892  136.2528  158.6868 H   0  0  0  0  0  0  0  0  0  0  0  0
  155.7540  137.4049  158.2401 H   0  0  0  0  0  0  0  0  0  0  0  0
  154.1075  137.6625  157.6864 H   0  0  0  0  0  0  0  0  0  0  0  0
  156.3676  136.1898  161.1217 H   0  0  0  0  0  0  0  0  0  0  0  0
  157.2911  137.5666  161.7419 H   0  0  0  0  0  0  0  0  0  0  0  0
  157.1263  137.3361  160.0087 H   0  0  0  0  0  0  0  0  0  0  0  0
  154.4658  137.0397  162.6739 H   0  0  0  0  0  0  0  0  0  0  0  0
  153.9130  138.7080  162.5369 H   0  0  0  0  0  0  0  0  0  0  0  0
  155.5326  138.3760  163.1217 H   0  0  0  0  0  0  0  0  0  0  0  0
  1  2  1  0  0  0  0
  1 22  1  0  0  0  0
  1 23  1  0  0  0  0
  1 24  1  0  0  0  0
  2  3  1  0  0  0  0
  2 25  1  0  0  0  0
  2 26  1  0  0  0  0
  3  4  1  0  0  0  0
  3 27  1  0  0  0  0
  4  5  2  0  0  0  0
  4  6  1  0  0  0  0
  6  7  1  0  0  0  0
  6 28  1  0  0  0  0
  6 29  1  0  0  0  0
  7 21  1  0  0  0  0
  7  8  1  0  0  0  0
  8  9  2  0  0  0  0
  8 30  1  0  0  0  0
  9 10  1  0  0  0  0
  9 31  1  0  0  0  0
 10 11  1  0  0  0  0
 10 21  2  0  0  0  0
 11 12  1  0  0  0  0
 11 32  1  0  0  0  0
 12 13  2  0  0  0  0
 12 14  1  0  0  0  0
 14 18  1  0  0  0  0
 14 15  1  0  0  0  0
 14 33  1  0  0  0  0
 15 16  1  0  0  0  0
 15 17  1  0  0  0  0
 15 18  1  0  0  0  0
 16 34  1  0  0  0  0
 16 35  1  0  0  0  0
 16 36  1  0  0  0  0
 17 37  1  0  0  0  0
 17 38  1  0  0  0  0
 17 39  1  0  0  0  0
 18 19  1  0  0  0  0
 18 20  1  0  0  0  0
 19 40  1  0  0  0  0
 19 41  1  0  0  0  0
 19 42  1  0  0  0  0
 20 43  1  0  0  0  0
 20 44  1  0  0  0  0
 20 45  1  0  0  0  0
M  END
> <s_m_source_file>
AV-unprocessed.smi

> <i_m_source_file_index>
2860

> <i_lp_mmshare_version>
43012

> <i_f3d_flags>
0

> <s_epik_input>
W0NIM11bQ0gyXVtOSF1DKD1PKVtDSDJdbjFbY0hdW2NIXWMobjEpW05IXUMoPU8pW0NIXShDMihbQ0gzXSlbQ0gzXSlDMihbQ0gzXSlbQ0gzXQ==

> <s_epik_cmdline>
J2VwaWtfcHl0aG9uJywgJy1waCcsICc3LjAnLCAnLXRuJywgJzgnLCAnLW1hJywgJzIwMCcsICctbWV0YWxfYmluZGluZycsICctaW1hZScsICc8aW5maWxlLm1hZT4nLCAnLW9tYWUnLCAnPG91dGZpbGUubWFlPic=

> <r_lp_tautomer_probability>
1

> <r_epik_Ionization_Penalty>
1.3586e-05

> <r_epik_Ionization_Penalty_Charging>
0

> <r_epik_Ionization_Penalty_Neutral>
1.3586e-05

> <r_epik_State_Penalty>
-0

> <r_epik_Charging_Adjusted_Penalty>
0

> <i_epik_Tot_Q>
0

> <i_epik_Tot_abs_Q>
0

> <r_epik_Metal_State_Penalty>
-0

> <b_epik_Metal_Only>
0

> <s_lp_Force_Field>
OPLS_2005

> <r_lp_Energy>
28.3378

> <b_lp_Chiralities_Consistent>
1

> <s_lp_Variant>
AV-unprocessed.smi:2860-1

> <Gold.Version>
5.8.1

> <Gold.Id.Protein>
6NUR|6NUR_protein|mol2

> <Gold.PLP.Fitness>
42.1888

> <Gold.PLP.PLP>
-38.3287

> <Gold.PLP.part.hbond>
-2.0000

> <Gold.PLP.part.metal>
0.0000

> <Gold.PLP.part.buried>
-7.7523

> <Gold.PLP.part.nonpolar>
-28.9114

> <Gold.PLP.part.repulsive>
0.9923

> <Gold.PLP.ligand.clash>
0.0000

> <Gold.PLP.ligand.torsion>
0.2681

> <Gold.PLP.Chemscore.Hbond>
1.4160

> <Gold.PLP.Chemscore.CHOScore>
0.0000

> <Gold.PLP.Chemscore.Metal>
0.0000

> <Gold.Chemscore.Hbonds>
donor molecule, donor type, donor heavy atom, donor atom, acceptor molecule, acceptor atom, score
      L1  H     3    27       P1  8029  1.00
      P1  H  6933  6944       L1     5  0.29

> <Gold.PLP.Chemscore.Internal.Correction>
0.1484

> <Gold.Rescore>
     Score         DG    S(hbond)    S(metal)    S(lipo)     H(rot)  DE(clash)    DE(int)     intcor
     12.90     -15.44       1.51        0.00      78.76       1.68       0.03       2.51       ----

> <Gold.Chemscore.Fitness>
12.8964

> <Gold.Chemscore.DG>
-15.4376

> <Gold.Chemscore.ZeroCoef>
-5.4800

> <Gold.Chemscore.Hbond>
1.5090

> <Gold.Chemscore.Metal>
0.0000

> <Gold.Chemscore.Lipo>
78.7647

> <Gold.Chemscore.Internal_Hbond>
0.0000

> <Gold.Chemscore.DEClash>
0.0308

> <Gold.Chemscore.DEInternal>
2.5104

> <Gold.Chemscore.Rot>
1.6789

> <Gold.Chemscore.Internal.Correction>
   9.000000E+99

> <Gold.Chemscore.Hbonds>
donor molecule, donor type, donor heavy atom, donor atom, acceptor molecule, acceptor atom, score
      L1  H     3    27       P1  8029  0.99
      P1  H  6933  6944       L1     5  0.11

> <Gold.Chemscore.Hbond.Weighted>
-5.0402

> <Gold.Chemscore.Metal.Weighted>
-0.0000

> <Gold.Chemscore.Lipo.Weighted>
-9.2155

> <Gold.Chemscore.Internal_Hbond.Weighted>
0.0000

> <Gold.Chemscore.DEClash.Weighted>
0.0308

> <Gold.Chemscore.DEInternal.Weighted>
2.5104

> <Gold.Chemscore.Rot.Weighted>
4.2981

> <Gold.Chemscore.Internal.Correction.Weighted>
   9.000000E+99

> <Gold.Protein.RotatedTorsions>
[ 6907 6896 6895 6894 ] final -110.90 input  -60.11 | X-H torsion
[ 7974 7965 7964 7962 ] final  171.31 input  175.53 | X-H torsion
[ 8008 7997 7996 7995 ] final   72.15 input   59.86 | X-H torsion
[ 10167 10162 10161 10158 ] final   50.92 input  -65.29 | X-H torsion
[ 10718 10713 10712 10709 ] final -177.64 input   66.30 | X-H torsion
[ 10763 10752 10751 10750 ] final  -66.26 input  -60.55 | X-H torsion
[ 11005 11000 10999 10996 ] final  104.45 input  -57.11 | X-H torsion

> <Gold.Protein.ActiveResidues>
 VAL166  LYS551  ARG553  GLY616  TRP617  ASP618  TYR619  PRO620  LYS621  CYS622 
 ASP623  PHE694  ASN695  SER759  ASP760  ASP761  ALA762  ILE779  LEU786  VAL792 
 PHE793  MET794  SER795  GLU796  ALA797  LYS798  CYS799  TRP800  GLU811  SER814 

> <Gold.Protein.RotatedAtoms>
  150.7655  133.9313  159.3427 H   0  0  0  0  0  0  0  0  0  0  0  0  # atno 6907 bound_to 6896
  151.7212  135.0892  160.0294 H   0  0  0  0  0  0  0  0  0  0  0  0  # atno 6908 bound_to 6896
  152.3649  133.6306  159.6078 H   0  0  0  0  0  0  0  0  0  0  0  0  # atno 6909 bound_to 6896
  144.7298  139.9331  143.6425 H   0  0  0  0  0  0  0  0  0  0  0  0  # atno 7974 bound_to 7965
  155.7645  140.3486  155.5215 H   0  0  0  0  0  0  0  0  0  0  0  0  # atno 8008 bound_to 7997
  155.8881  140.1013  157.1459 H   0  0  0  0  0  0  0  0  0  0  0  0  # atno 8009 bound_to 7997
  154.4031  140.1309  156.4269 H   0  0  0  0  0  0  0  0  0  0  0  0  # atno 8010 bound_to 7997
  140.2673  144.3305  150.6300 H   0  0  0  0  0  0  0  0  0  0  0  0  # atno 10167 bound_to 10162
  156.8325  130.9658  151.3105 H   0  0  0  0  0  0  0  0  0  0  0  0  # atno 10718 bound_to 10713
  154.3571  135.6124  153.5672 H   0  0  0  0  0  0  0  0  0  0  0  0  # atno 10763 bound_to 10752
  152.9795  135.5806  154.4676 H   0  0  0  0  0  0  0  0  0  0  0  0  # atno 10764 bound_to 10752
  154.4407  135.2850  155.1827 H   0  0  0  0  0  0  0  0  0  0  0  0  # atno 10765 bound_to 10752
  139.8792  134.9301  156.5363 H   0  0  0  0  0  0  0  0  0  0  0  0  # atno 11005 bound_to 11000
  146.0842  139.3830  143.0446 LP  0  0  0  0  0  0  0  0  0  0  0  0  # atno 17320 bound_to 7965
  145.7800  140.9860  143.1104 LP  0  0  0  0  0  0  0  0  0  0  0  0  # atno 17321 bound_to 7965
  140.5918  143.2168  151.7239 LP  0  0  0  0  0  0  0  0  0  0  0  0  # atno 17342 bound_to 10162
  139.4999  144.3928  152.0262 LP  0  0  0  0  0  0  0  0  0  0  0  0  # atno 17343 bound_to 10162
  157.6399  130.8797  149.9428 LP  0  0  0  0  0  0  0  0  0  0  0  0  # atno 17370 bound_to 10713
  156.0926  130.3662  150.0367 LP  0  0  0  0  0  0  0  0  0  0  0  0  # atno 17371 bound_to 10713
  140.8343  133.8254  155.9014 LP  0  0  0  0  0  0  0  0  0  0  0  0  # atno 17394 bound_to 11000
  140.9298  134.2036  157.4871 LP  0  0  0  0  0  0  0  0  0  0  0  0  # atno 17395 bound_to 11000

$$$$
