AV-unprocessed.smi:1965|AV-procd|sdf|7939|dock4
  -GOLD-   2272010103D 1   1.00000     0.00000
 Structure written by MMmdl.
 37 39  0  0  0  0  0  0  0  0  2 V2000
  150.4211  141.2943  158.1808 O   0  0  0  0  0  0  0  0  0  0  0  0
  150.0186  142.2730  157.5543 C   0  0  0  0  0  0  0  0  0  0  0  0
  150.2547  143.5272  157.9949 N   0  0  0  0  0  0  0  0  0  0  0  0
  150.9436  144.0113  159.1450 C   0  0  0  0  0  0  0  0  0  0  0  0
  151.0698  143.3535  160.3051 N   0  0  0  0  0  0  0  0  0  0  0  0
  151.7874  144.0871  161.2534 C   0  0  0  0  0  0  0  0  0  0  0  0
  152.1988  145.3147  160.7993 C   0  0  0  0  0  0  0  0  0  0  0  0
  151.6989  145.5990  159.1539 S   0  0  0  0  0  0  0  0  0  0  0  0
  149.3236  142.1652  156.4101 N   0  0  0  0  0  0  0  0  0  0  0  0
  148.9541  140.9162  155.7524 C   0  0  1  0  0  0  0  0  0  0  0  0
  147.9579  141.1128  154.6158 C   0  0  0  0  0  0  0  0  0  0  0  0
  148.1290  139.8238  153.8102 C   0  0  0  0  0  0  0  0  0  0  0  0
  149.5571  139.4514  153.9355 N   0  3  2  0  0  0  0  0  0  0  0  0
  149.8118  137.9907  153.9823 C   0  0  0  0  0  0  0  0  0  0  0  0
  151.3207  137.7039  154.0953 C   0  0  0  0  0  0  0  0  0  0  0  0
  152.0087  138.5121  155.2154 C   0  0  0  0  0  0  0  0  0  0  0  0
  151.0188  139.3861  156.0009 C   0  0  0  0  0  0  0  0  0  0  0  0
  150.1467  140.2414  155.0539 C   0  0  2  0  0  0  0  0  0  0  0  0
  149.8539  144.2526  157.4178 H   0  0  0  0  0  0  0  0  0  0  0  0
  151.9581  143.6591  162.2301 H   0  0  0  0  0  0  0  0  0  0  0  0
  152.7624  146.0668  161.3315 H   0  0  0  0  0  0  0  0  0  0  0  0
  149.0309  143.0220  155.9613 H   0  0  0  0  0  0  0  0  0  0  0  0
  148.5067  140.2261  156.4711 H   0  0  0  0  0  0  0  0  0  0  0  0
  146.9358  141.2609  154.9657 H   0  0  0  0  0  0  0  0  0  0  0  0
  148.2373  141.9743  154.0067 H   0  0  0  0  0  0  0  0  0  0  0  0
  147.5017  139.0439  154.2451 H   0  0  0  0  0  0  0  0  0  0  0  0
  147.8378  139.9414  152.7662 H   0  0  0  0  0  0  0  0  0  0  0  0
  149.2821  137.5515  154.8293 H   0  0  0  0  0  0  0  0  0  0  0  0
  149.4092  137.5224  153.0836 H   0  0  0  0  0  0  0  0  0  0  0  0
  151.4758  136.6368  154.2584 H   0  0  0  0  0  0  0  0  0  0  0  0
  151.8026  137.9335  153.1440 H   0  0  0  0  0  0  0  0  0  0  0  0
  152.5309  137.8402  155.8973 H   0  0  0  0  0  0  0  0  0  0  0  0
  152.7755  139.1506  154.7752 H   0  0  0  0  0  0  0  0  0  0  0  0
  150.3858  138.7463  156.6174 H   0  0  0  0  0  0  0  0  0  0  0  0
  151.5622  140.0287  156.6940 H   0  0  0  0  0  0  0  0  0  0  0  0
  150.7719  141.0041  154.5863 H   0  0  0  0  0  0  0  0  0  0  0  0
  150.0150  139.7893  153.1010 H   0  0  0  0  0  0  0  0  0  0  0  0
  1  2  2  0  0  0  0
  2  3  1  0  0  0  0
  2  9  1  0  0  0  0
  3  4  1  0  0  0  0
  3 19  1  0  0  0  0
  4  8  1  0  0  0  0
  4  5  2  0  0  0  0
  5  6  1  0  0  0  0
  6  7  2  0  0  0  0
  6 20  1  0  0  0  0
  7  8  1  0  0  0  0
  7 21  1  0  0  0  0
  9 10  1  0  0  0  0
  9 22  1  0  0  0  0
 10 18  1  0  0  0  0
 10 11  1  0  0  0  0
 10 23  1  0  0  0  0
 11 12  1  0  0  0  0
 11 24  1  0  0  0  0
 11 25  1  0  0  0  0
 12 13  1  0  0  0  0
 12 26  1  0  0  0  0
 12 27  1  0  0  0  0
 13 18  1  0  0  0  0
 13 14  1  0  0  0  0
 13 37  1  0  0  0  0
 14 15  1  0  0  0  0
 14 28  1  0  0  0  0
 14 29  1  0  0  0  0
 15 16  1  0  0  0  0
 15 30  1  0  0  0  0
 15 31  1  0  0  0  0
 16 17  1  0  0  0  0
 16 32  1  0  0  0  0
 16 33  1  0  0  0  0
 17 18  1  0  0  0  0
 17 34  1  0  0  0  0
 17 35  1  0  0  0  0
 18 36  1  0  0  0  0
M  CHG  1  13   1
M  END
> <s_m_source_file>
AV-unprocessed.smi

> <i_m_source_file_index>
1965

> <i_lp_mmshare_version>
43012

> <i_f3d_flags>
0

> <s_epik_input>
czFbY0hdW2NIXW5jMVtOSF1DKD1PKVtOSF1bQ0BIXShbQ0gyXVtDSDJdMilbQ0BASF0oTjIzKVtDSDJdW0NIMl1bQ0gyXVtDSDJdMw==

> <s_epik_cmdline>
J2VwaWtfcHl0aG9uJywgJy1waCcsICc3LjAnLCAnLXRuJywgJzgnLCAnLW1hJywgJzIwMCcsICctbWV0YWxfYmluZGluZycsICctaW1hZScsICc8aW5maWxlLm1hZT4nLCAnLW9tYWUnLCAnPG91dGZpbGUubWFlPic=

> <r_lp_tautomer_probability>
1

> <r_epik_Ionization_Penalty>
0.00125962

> <r_epik_Ionization_Penalty_Charging>
0.00107044

> <r_epik_Ionization_Penalty_Neutral>
0.000189176

> <r_epik_State_Penalty>
-0

> <r_epik_Charging_Adjusted_Penalty>
0.00107044

> <i_epik_Tot_Q>
1

> <i_epik_Tot_abs_Q>
1

> <r_epik_Metal_State_Penalty>
0.0179285

> <b_epik_Metal_Only>
0

> <s_lp_Force_Field>
OPLS_2005

> <r_lp_Energy>
40.5286

> <b_lp_Chiralities_Consistent>
1

> <s_lp_Variant>
AV-unprocessed.smi:1965-8

> <Gold.Version>
5.8.1

> <Gold.Id.Protein>
6NUR|6NUR_protein|mol2

> <Gold.PLP.Fitness>
38.8956

> <Gold.PLP.PLP>
-31.1470

> <Gold.PLP.part.hbond>
-4.0000

> <Gold.PLP.part.metal>
0.0000

> <Gold.PLP.part.buried>
1.4936

> <Gold.PLP.part.nonpolar>
-29.6328

> <Gold.PLP.part.repulsive>
0.2926

> <Gold.PLP.ligand.clash>
0.0000

> <Gold.PLP.ligand.torsion>
0.2936

> <Gold.PLP.Chemscore.Hbond>
2.7760

> <Gold.PLP.Chemscore.CHOScore>
0.0000

> <Gold.PLP.Chemscore.Metal>
0.0000

> <Gold.Chemscore.Hbonds>
donor molecule, donor type, donor heavy atom, donor atom, acceptor molecule, acceptor atom, score
      L1  H     3    19       P1  8028  0.95
      L1  H     9    22       P1  8028  1.00
      L1  H    13    37       P1  7957  0.78

> <Gold.PLP.Chemscore.Internal.Correction>
0.0078

> <Gold.Rescore>
     Score         DG    S(hbond)    S(metal)    S(lipo)     H(rot)  DE(clash)    DE(int)     intcor
     18.39     -21.71       2.59        0.00      86.57       1.00       1.92       1.40       ----

> <Gold.Chemscore.Fitness>
18.3870

> <Gold.Chemscore.DG>
-21.7069

> <Gold.Chemscore.ZeroCoef>
-5.4800

> <Gold.Chemscore.Hbond>
2.5921

> <Gold.Chemscore.Metal>
0.0000

> <Gold.Chemscore.Lipo>
86.5737

> <Gold.Chemscore.Internal_Hbond>
0.0000

> <Gold.Chemscore.DEClash>
1.9214

> <Gold.Chemscore.DEInternal>
1.3984

> <Gold.Chemscore.Rot>
1.0000

> <Gold.Chemscore.Internal.Correction>
   9.000000E+99

> <Gold.Chemscore.Hbonds>
donor molecule, donor type, donor heavy atom, donor atom, acceptor molecule, acceptor atom, score
      L1  H     3    19       P1  8028  0.34
      L1  H     9    22       P1  8028  0.99
      L1  H    13    37       P1  7957  0.75

> <Gold.Chemscore.Hbond.Weighted>
-8.6578

> <Gold.Chemscore.Metal.Weighted>
-0.0000

> <Gold.Chemscore.Lipo.Weighted>
-10.1291

> <Gold.Chemscore.Internal_Hbond.Weighted>
0.0000

> <Gold.Chemscore.DEClash.Weighted>
1.9214

> <Gold.Chemscore.DEInternal.Weighted>
1.3984

> <Gold.Chemscore.Rot.Weighted>
2.5600

> <Gold.Chemscore.Internal.Correction.Weighted>
   9.000000E+99

> <Gold.Protein.RotatedTorsions>
[ 6907 6896 6895 6894 ] final   73.20 input  -60.11 | X-H torsion
[ 7974 7965 7964 7962 ] final  146.39 input  175.53 | X-H torsion
[ 8008 7997 7996 7995 ] final  141.89 input   59.86 | X-H torsion
[ 10167 10162 10161 10158 ] final -125.69 input  -65.29 | X-H torsion
[ 10718 10713 10712 10709 ] final -177.32 input   66.30 | X-H torsion
[ 10763 10752 10751 10750 ] final  123.55 input  -60.55 | X-H torsion
[ 11005 11000 10999 10996 ] final  -51.72 input  -57.11 | X-H torsion

> <Gold.Protein.ActiveResidues>
 VAL166  LYS551  ARG553  GLY616  TRP617  ASP618  TYR619  PRO620  LYS621  CYS622 
 ASP623  PHE694  ASN695  SER759  ASP760  ASP761  ALA762  ILE779  LEU786  VAL792 
 PHE793  MET794  SER795  GLU796  ALA797  LYS798  CYS799  TRP800  GLU811  SER814 

> <Gold.Protein.RotatedAtoms>
  152.4910  134.4457  159.9557 H   0  0  0  0  0  0  0  0  0  0  0  0  # atno 6907 bound_to 6896
  151.4444  133.3628  159.2794 H   0  0  0  0  0  0  0  0  0  0  0  0  # atno 6908 bound_to 6896
  150.9065  134.8504  159.7456 H   0  0  0  0  0  0  0  0  0  0  0  0  # atno 6909 bound_to 6896
  144.8675  139.5899  143.5902 H   0  0  0  0  0  0  0  0  0  0  0  0  # atno 7974 bound_to 7965
  156.2958  140.2303  156.4638 H   0  0  0  0  0  0  0  0  0  0  0  0  # atno 8008 bound_to 7997
  154.7995  140.0449  157.1283 H   0  0  0  0  0  0  0  0  0  0  0  0  # atno 8009 bound_to 7997
  154.9550  140.3047  155.5060 H   0  0  0  0  0  0  0  0  0  0  0  0  # atno 8010 bound_to 7997
  139.9795  143.5758  152.2384 H   0  0  0  0  0  0  0  0  0  0  0  0  # atno 10167 bound_to 10162
  156.8278  130.9642  151.3108 H   0  0  0  0  0  0  0  0  0  0  0  0  # atno 10718 bound_to 10713
  153.6474  135.3368  155.3089 H   0  0  0  0  0  0  0  0  0  0  0  0  # atno 10763 bound_to 10752
  154.8545  135.4333  154.1940 H   0  0  0  0  0  0  0  0  0  0  0  0  # atno 10764 bound_to 10752
  153.2874  135.7014  153.7400 H   0  0  0  0  0  0  0  0  0  0  0  0  # atno 10765 bound_to 10752
  141.0886  133.6637  156.3919 H   0  0  0  0  0  0  0  0  0  0  0  0  # atno 11005 bound_to 11000
  146.2906  139.7130  142.9163 LP  0  0  0  0  0  0  0  0  0  0  0  0  # atno 17320 bound_to 7965
  145.4193  141.0405  143.2973 LP  0  0  0  0  0  0  0  0  0  0  0  0  # atno 17321 bound_to 7965
  139.6421  144.7655  151.2318 LP  0  0  0  0  0  0  0  0  0  0  0  0  # atno 17342 bound_to 10162
  140.7494  143.6300  150.8432 LP  0  0  0  0  0  0  0  0  0  0  0  0  # atno 17343 bound_to 10162
  157.6423  130.8815  149.9471 LP  0  0  0  0  0  0  0  0  0  0  0  0  # atno 17370 bound_to 10713
  156.0951  130.3660  150.0321 LP  0  0  0  0  0  0  0  0  0  0  0  0  # atno 17371 bound_to 10713
  140.5305  134.6217  157.5348 LP  0  0  0  0  0  0  0  0  0  0  0  0  # atno 17394 bound_to 11000
  139.9708  134.7296  156.0045 LP  0  0  0  0  0  0  0  0  0  0  0  0  # atno 17395 bound_to 11000

$$$$
