AV-unprocessed.smi:3120|AV-procd|sdf|11893|dock1
  -GOLD-   2272017283D 1   1.00000     0.00000
 Structure written by MMmdl.
 22 23  0  0  0  0  0  0  0  0  1 V2000
  149.8170  143.6926  159.6715 O   0  0  0  0  0  0  0  0  0  0  0  0
  150.7439  144.0652  158.9548 C   0  0  0  0  0  0  0  0  0  0  0  0
  150.7087  144.1535  157.6260 N   0  0  0  0  0  0  0  0  0  0  0  0
  151.9471  144.6354  157.0454 C   0  0  0  0  0  0  0  0  0  0  0  0
  152.9542  144.6210  158.2058 C   0  0  0  0  0  0  0  0  0  0  0  0
  152.1082  144.4927  159.4853 C   0  0  2  0  0  0  0  0  0  0  0  0
  152.6693  143.5199  160.5171 C   0  0  0  0  0  0  0  0  0  0  0  0
  152.9257  143.9137  161.8499 C   0  0  0  0  0  0  0  0  0  0  0  0
  153.4418  142.9661  162.7542 C   0  0  0  0  0  0  0  0  0  0  0  0
  153.6821  141.6581  162.2894 C   0  0  0  0  0  0  0  0  0  0  0  0
  153.4426  141.2676  161.0194 N   0  0  0  0  0  0  0  0  0  0  0  0
  152.9485  142.1832  160.1585 C   0  0  0  0  0  0  0  0  0  0  0  0
  149.9015  143.9193  157.0661 H   0  0  0  0  0  0  0  0  0  0  0  0
  152.2670  144.0020  156.2176 H   0  0  0  0  0  0  0  0  0  0  0  0
  151.7963  145.6473  156.6674 H   0  0  0  0  0  0  0  0  0  0  0  0
  153.6193  143.7644  158.0891 H   0  0  0  0  0  0  0  0  0  0  0  0
  153.5810  145.5130  158.2175 H   0  0  0  0  0  0  0  0  0  0  0  0
  151.9823  145.4774  159.9376 H   0  0  0  0  0  0  0  0  0  0  0  0
  152.7313  144.9248  162.1763 H   0  0  0  0  0  0  0  0  0  0  0  0
  153.6489  143.2353  163.7793 H   0  0  0  0  0  0  0  0  0  0  0  0
  154.0763  140.9051  162.9556 H   0  0  0  0  0  0  0  0  0  0  0  0
  152.7693  141.8352  159.1517 H   0  0  0  0  0  0  0  0  0  0  0  0
  1  2  2  0  0  0  0
  2  6  1  0  0  0  0
  2  3  1  0  0  0  0
  3  4  1  0  0  0  0
  3 13  1  0  0  0  0
  4  5  1  0  0  0  0
  4 14  1  0  0  0  0
  4 15  1  0  0  0  0
  5  6  1  0  0  0  0
  5 16  1  0  0  0  0
  5 17  1  0  0  0  0
  6  7  1  0  0  0  0
  6 18  1  0  0  0  0
  7 12  1  0  0  0  0
  7  8  2  0  0  0  0
  8  9  1  0  0  0  0
  8 19  1  0  0  0  0
  9 10  2  0  0  0  0
  9 20  1  0  0  0  0
 10 11  1  0  0  0  0
 10 21  1  0  0  0  0
 11 12  2  0  0  0  0
 12 22  1  0  0  0  0
M  END
> <s_m_source_file>
AV-unprocessed.smi

> <i_m_source_file_index>
3120

> <i_lp_mmshare_version>
43012

> <i_f3d_flags>
0

> <s_epik_input>
Tz1DMVtOSF1bQ0gyXVtDSDJdW0NASF0xYzJbY0hdW2NIXVtjSF1uW2NIXTI=

> <s_epik_cmdline>
J2VwaWtfcHl0aG9uJywgJy1waCcsICc3LjAnLCAnLXRuJywgJzgnLCAnLW1hJywgJzIwMCcsICctbWV0YWxfYmluZGluZycsICctaW1hZScsICc8aW5maWxlLm1hZT4nLCAnLW9tYWUnLCAnPG91dGZpbGUubWFlPic=

> <r_epik_Ionization_Penalty>
0.00558523

> <r_epik_Ionization_Penalty_Charging>
0

> <r_epik_Ionization_Penalty_Neutral>
0.00558523

> <r_epik_State_Penalty>
0.00409114

> <r_epik_Charging_Adjusted_Penalty>
0.00409114

> <i_epik_Tot_Q>
0

> <i_epik_Tot_abs_Q>
0

> <r_epik_Metal_State_Penalty>
-0

> <b_epik_Metal_Only>
0

> <s_lp_Force_Field>
OPLS_2005

> <r_lp_Energy>
14.9187

> <b_lp_Chiralities_Consistent>
1

> <s_lp_Variant>
AV-unprocessed.smi:3120-2

> <Gold.Version>
5.8.1

> <Gold.Id.Protein>
6NUR|6NUR_protein|mol2

> <Gold.PLP.Fitness>
38.1513

> <Gold.PLP.PLP>
-36.8582

> <Gold.PLP.part.hbond>
-2.0000

> <Gold.PLP.part.metal>
0.0000

> <Gold.PLP.part.buried>
-5.3977

> <Gold.PLP.part.nonpolar>
-28.7024

> <Gold.PLP.part.repulsive>
0.1090

> <Gold.PLP.ligand.clash>
0.0000

> <Gold.PLP.ligand.torsion>
0.0292

> <Gold.PLP.Chemscore.Hbond>
0.4480

> <Gold.PLP.Chemscore.CHOScore>
0.0000

> <Gold.PLP.Chemscore.Metal>
0.0000

> <Gold.Chemscore.Hbonds>
donor molecule, donor type, donor heavy atom, donor atom, acceptor molecule, acceptor atom, score
      L1  H     3    13       P1  8028  0.72

> <Gold.PLP.Chemscore.Internal.Correction>
0.0075

> <Gold.Rescore>
     Score         DG    S(hbond)    S(metal)    S(lipo)     H(rot)  DE(clash)    DE(int)     intcor
     15.66     -17.10       0.72        0.00     100.80       1.00       1.45       0.00       ----

> <Gold.Chemscore.Fitness>
15.6552

> <Gold.Chemscore.DG>
-17.1047

> <Gold.Chemscore.ZeroCoef>
-5.4800

> <Gold.Chemscore.Hbond>
0.7158

> <Gold.Chemscore.Metal>
0.0000

> <Gold.Chemscore.Lipo>
100.8028

> <Gold.Chemscore.Internal_Hbond>
0.0000

> <Gold.Chemscore.DEClash>
1.4452

> <Gold.Chemscore.DEInternal>
0.0044

> <Gold.Chemscore.Rot>
1.0000

> <Gold.Chemscore.Internal.Correction>
   9.000000E+99

> <Gold.Chemscore.Hbonds>
donor molecule, donor type, donor heavy atom, donor atom, acceptor molecule, acceptor atom, score
      L1  H     3    13       P1  8028  0.65

> <Gold.Chemscore.Hbond.Weighted>
-2.3908

> <Gold.Chemscore.Metal.Weighted>
-0.0000

> <Gold.Chemscore.Lipo.Weighted>
-11.7939

> <Gold.Chemscore.Internal_Hbond.Weighted>
0.0000

> <Gold.Chemscore.DEClash.Weighted>
1.4452

> <Gold.Chemscore.DEInternal.Weighted>
0.0044

> <Gold.Chemscore.Rot.Weighted>
2.5600

> <Gold.Chemscore.Internal.Correction.Weighted>
   9.000000E+99

> <Gold.Protein.RotatedTorsions>
[ 6907 6896 6895 6894 ] final  132.86 input  -60.11 | X-H torsion
[ 7974 7965 7964 7962 ] final -131.57 input  175.53 | X-H torsion
[ 8008 7997 7996 7995 ] final   52.13 input   59.86 | X-H torsion
[ 10167 10162 10161 10158 ] final  144.97 input  -65.29 | X-H torsion
[ 10718 10713 10712 10709 ] final  116.88 input   66.30 | X-H torsion
[ 10763 10752 10751 10750 ] final    0.42 input  -60.55 | X-H torsion
[ 11005 11000 10999 10996 ] final   42.65 input  -57.11 | X-H torsion

> <Gold.Protein.ActiveResidues>
 VAL166  LYS551  ARG553  GLY616  TRP617  ASP618  TYR619  PRO620  LYS621  CYS622 
 ASP623  PHE694  ASN695  SER759  ASP760  ASP761  ALA762  ILE779  LEU786  VAL792 
 PHE793  MET794  SER795  GLU796  ALA797  LYS798  CYS799  TRP800  GLU811  SER814 

> <Gold.Protein.RotatedAtoms>
  152.3280  133.5927  159.5789 H   0  0  0  0  0  0  0  0  0  0  0  0  # atno 6907 bound_to 6896
  150.7407  133.9910  159.3616 H   0  0  0  0  0  0  0  0  0  0  0  0  # atno 6908 bound_to 6896
  151.7788  135.0767  160.0422 H   0  0  0  0  0  0  0  0  0  0  0  0  # atno 6909 bound_to 6896
  144.9366  140.7191  143.4872 H   0  0  0  0  0  0  0  0  0  0  0  0  # atno 7974 bound_to 7965
  155.4467  140.3456  155.4296 H   0  0  0  0  0  0  0  0  0  0  0  0  # atno 8008 bound_to 7997
  156.1245  140.1496  156.9186 H   0  0  0  0  0  0  0  0  0  0  0  0  # atno 8009 bound_to 7997
  154.4848  140.0858  156.7441 H   0  0  0  0  0  0  0  0  0  0  0  0  # atno 8010 bound_to 7997
  139.4936  144.5935  151.6632 H   0  0  0  0  0  0  0  0  0  0  0  0  # atno 10167 bound_to 10162
  157.6132  131.1030  150.7535 H   0  0  0  0  0  0  0  0  0  0  0  0  # atno 10718 bound_to 10713
  153.3210  135.6969  153.7031 H   0  0  0  0  0  0  0  0  0  0  0  0  # atno 10763 bound_to 10752
  153.5871  135.3487  155.2897 H   0  0  0  0  0  0  0  0  0  0  0  0  # atno 10764 bound_to 10752
  154.8597  135.4309  154.2373 H   0  0  0  0  0  0  0  0  0  0  0  0  # atno 10765 bound_to 10752
  140.1719  134.4211  155.8252 H   0  0  0  0  0  0  0  0  0  0  0  0  # atno 11005 bound_to 11000
  145.3057  139.1835  143.4666 LP  0  0  0  0  0  0  0  0  0  0  0  0  # atno 17320 bound_to 7965
  146.3269  140.3054  142.8623 LP  0  0  0  0  0  0  0  0  0  0  0  0  # atno 17321 bound_to 7965
  140.5567  144.0336  150.6151 LP  0  0  0  0  0  0  0  0  0  0  0  0  # atno 17342 bound_to 10162
  140.3408  143.3020  152.0590 LP  0  0  0  0  0  0  0  0  0  0  0  0  # atno 17343 bound_to 10162
  156.7908  130.4889  149.5385 LP  0  0  0  0  0  0  0  0  0  0  0  0  # atno 17370 bound_to 10713
  156.1244  130.6133  151.0241 LP  0  0  0  0  0  0  0  0  0  0  0  0  # atno 17371 bound_to 10713
  141.2218  133.6960  156.7779 LP  0  0  0  0  0  0  0  0  0  0  0  0  # atno 17394 bound_to 11000
  140.2367  134.8644  157.3532 LP  0  0  0  0  0  0  0  0  0  0  0  0  # atno 17395 bound_to 11000

$$$$
