AV-unprocessed.smi:1975|AV-procd|sdf|7982|dock5
  -GOLD-   2272010163D 1   1.00000     0.00000
 Structure written by MMmdl.
 33 34  0  0  0  0  0  0  0  0  1 V2000
  146.8804  139.0366  153.5045 C   0  0  0  0  0  0  0  0  0  0  0  0
  147.9770  140.0590  153.1704 C   0  0  0  0  0  0  0  0  0  0  0  0
  149.1026  139.9889  154.0656 N   0  0  0  0  0  0  0  0  0  0  0  0
  149.7796  138.8083  154.2898 C   0  0  0  0  0  0  0  0  0  0  0  0
  150.8240  138.7200  155.1389 C   0  0  0  0  0  0  0  0  0  0  0  0
  151.5103  137.4903  155.3596 C   0  0  0  0  0  0  0  0  0  0  0  0
  152.0516  136.4804  155.5229 N   0  0  0  0  0  0  0  0  0  0  0  0
  151.2967  139.8891  155.8766 C   0  0  0  0  0  0  0  0  0  0  0  0
  152.2382  139.8559  156.6709 O   0  0  0  0  0  0  0  0  0  0  0  0
  150.5896  141.0938  155.6308 N   0  0  0  0  0  0  0  0  0  0  0  0
  150.9910  142.3158  156.3623 C   0  0  0  0  0  0  0  0  0  0  0  0
  150.9390  142.1603  157.8904 C   0  0  0  0  0  0  0  0  0  0  0  0
  149.8656  142.0147  158.4774 O   0  0  0  0  0  0  0  0  0  0  0  0
  152.1235  142.1885  158.5180 N   0  0  0  0  0  0  0  0  0  0  0  0
  152.3199  142.0612  159.9258 C   0  0  0  0  0  0  0  0  0  0  0  0
  152.8174  143.2762  160.6788 C   0  0  0  0  0  0  0  0  0  0  0  0
  153.7411  142.1134  160.4430 C   0  0  0  0  0  0  0  0  0  0  0  0
  149.4891  141.1686  154.7429 C   0  0  0  0  0  0  0  0  0  0  0  0
  148.8841  142.2306  154.5741 O   0  0  0  0  0  0  0  0  0  0  0  0
  146.0640  139.0986  152.7848 H   0  0  0  0  0  0  0  0  0  0  0  0
  146.4591  139.2068  154.4956 H   0  0  0  0  0  0  0  0  0  0  0  0
  147.2708  138.0190  153.4770 H   0  0  0  0  0  0  0  0  0  0  0  0
  148.3775  139.8807  152.1716 H   0  0  0  0  0  0  0  0  0  0  0  0
  147.6107  141.0872  153.1812 H   0  0  0  0  0  0  0  0  0  0  0  0
  149.4599  137.9178  153.7677 H   0  0  0  0  0  0  0  0  0  0  0  0
  151.9979  142.6311  156.0847 H   0  0  0  0  0  0  0  0  0  0  0  0
  150.3631  143.1609  156.0740 H   0  0  0  0  0  0  0  0  0  0  0  0
  152.9524  142.3097  157.9542 H   0  0  0  0  0  0  0  0  0  0  0  0
  151.6395  141.4068  160.4691 H   0  0  0  0  0  0  0  0  0  0  0  0
  153.0012  144.1869  160.1118 H   0  0  0  0  0  0  0  0  0  0  0  0
  152.4460  143.4258  161.6905 H   0  0  0  0  0  0  0  0  0  0  0  0
  153.9869  141.4869  161.2981 H   0  0  0  0  0  0  0  0  0  0  0  0
  154.5424  142.2479  159.7190 H   0  0  0  0  0  0  0  0  0  0  0  0
  1  2  1  0  0  0  0
  1 20  1  0  0  0  0
  1 21  1  0  0  0  0
  1 22  1  0  0  0  0
  2  3  1  0  0  0  0
  2 23  1  0  0  0  0
  2 24  1  0  0  0  0
  3 18  1  0  0  0  0
  3  4  1  0  0  0  0
  4  5  2  0  0  0  0
  4 25  1  0  0  0  0
  5  6  1  0  0  0  0
  5  8  1  0  0  0  0
  6  7  3  0  0  0  0
  8  9  2  0  0  0  0
  8 10  1  0  0  0  0
 10 11  1  0  0  0  0
 10 18  1  0  0  0  0
 11 12  1  0  0  0  0
 11 26  1  0  0  0  0
 11 27  1  0  0  0  0
 12 13  2  0  0  0  0
 12 14  1  0  0  0  0
 14 15  1  0  0  0  0
 14 28  1  0  0  0  0
 15 17  1  0  0  0  0
 15 16  1  0  0  0  0
 15 29  1  0  0  0  0
 16 17  1  0  0  0  0
 16 30  1  0  0  0  0
 16 31  1  0  0  0  0
 17 32  1  0  0  0  0
 17 33  1  0  0  0  0
 18 19  2  0  0  0  0
M  END
> <s_m_source_file>
AV-unprocessed.smi

> <i_m_source_file_index>
1975

> <i_lp_mmshare_version>
43012

> <i_f3d_flags>
0

> <s_epik_input>
W0NIM11bQ0gyXW4xW2NIXWMoQyNOKWMoPU8pbihjMT1PKVtDSDJdQyg9TylbTkhdW0NIXTJbQ0gyXVtDSDJdMg==

> <s_epik_cmdline>
J2VwaWtfcHl0aG9uJywgJy1waCcsICc3LjAnLCAnLXRuJywgJzgnLCAnLW1hJywgJzIwMCcsICctbWV0YWxfYmluZGluZycsICctaW1hZScsICc8aW5maWxlLm1hZT4nLCAnLW9tYWUnLCAnPG91dGZpbGUubWFlPic=

> <r_lp_tautomer_probability>
1

> <r_epik_Ionization_Penalty>
2.07081e-08

> <r_epik_Ionization_Penalty_Charging>
3.77987e-11

> <r_epik_Ionization_Penalty_Neutral>
2.06703e-08

> <r_epik_State_Penalty>
-0

> <r_epik_Charging_Adjusted_Penalty>
3.77987e-11

> <i_epik_Tot_Q>
0

> <i_epik_Tot_abs_Q>
0

> <r_epik_Metal_State_Penalty>
-0

> <b_epik_Metal_Only>
0

> <s_lp_Force_Field>
OPLS_2005

> <r_lp_Energy>
17.9293

> <b_lp_Chiralities_Consistent>
1

> <s_lp_Variant>
AV-unprocessed.smi:1975-1

> <Gold.Version>
5.8.1

> <Gold.Id.Protein>
6NUR|6NUR_protein|mol2

> <Gold.PLP.Fitness>
42.6176

> <Gold.PLP.PLP>
-34.6817

> <Gold.PLP.part.hbond>
-2.3963

> <Gold.PLP.part.metal>
0.0000

> <Gold.PLP.part.buried>
1.4609

> <Gold.PLP.part.nonpolar>
-35.3849

> <Gold.PLP.part.repulsive>
2.8519

> <Gold.PLP.ligand.clash>
0.0000

> <Gold.PLP.ligand.torsion>
0.1167

> <Gold.PLP.Chemscore.Hbond>
1.7084

> <Gold.PLP.Chemscore.CHOScore>
1.0000

> <Gold.PLP.Chemscore.Metal>
0.0000

> <Gold.Chemscore.Hbonds>
donor molecule, donor type, donor heavy atom, donor atom, acceptor molecule, acceptor atom, score
      P1  H  7997  8009       L1     9  0.76
      P1  H  8011  8017       L1    19  0.01
      P1  H 10752 10765       L1     7  0.96
      L1  C     4    25       P1  7948  0.91

> <Gold.PLP.Chemscore.Internal.Correction>
0.0443

> <Gold.Rescore>
     Score         DG    S(hbond)    S(metal)    S(lipo)     H(rot)  DE(clash)    DE(int)     intcor
     13.81     -14.07       1.77        0.00      64.10       1.89       0.10       0.16       ----

> <Gold.Chemscore.Fitness>
13.8136

> <Gold.Chemscore.DG>
-14.0685

> <Gold.Chemscore.ZeroCoef>
-5.4800

> <Gold.Chemscore.Hbond>
1.7726

> <Gold.Chemscore.Metal>
0.0000

> <Gold.Chemscore.Lipo>
64.1048

> <Gold.Chemscore.Internal_Hbond>
0.0000

> <Gold.Chemscore.DEClash>
0.0988

> <Gold.Chemscore.DEInternal>
0.1562

> <Gold.Chemscore.Rot>
1.8876

> <Gold.Chemscore.Internal.Correction>
   9.000000E+99

> <Gold.Chemscore.Hbonds>
donor molecule, donor type, donor heavy atom, donor atom, acceptor molecule, acceptor atom, score
      P1  H  7997  8009       L1     9  0.77
      P1  H 10752 10765       L1     7  0.89

> <Gold.Chemscore.Hbond.Weighted>
-5.9205

> <Gold.Chemscore.Metal.Weighted>
-0.0000

> <Gold.Chemscore.Lipo.Weighted>
-7.5003

> <Gold.Chemscore.Internal_Hbond.Weighted>
0.0000

> <Gold.Chemscore.DEClash.Weighted>
0.0988

> <Gold.Chemscore.DEInternal.Weighted>
0.1562

> <Gold.Chemscore.Rot.Weighted>
4.8323

> <Gold.Chemscore.Internal.Correction.Weighted>
   9.000000E+99

> <Gold.Protein.RotatedTorsions>
[ 6907 6896 6895 6894 ] final -124.12 input  -60.11 | X-H torsion
[ 7974 7965 7964 7962 ] final  113.04 input  175.53 | X-H torsion
[ 8008 7997 7996 7995 ] final -169.23 input   59.86 | X-H torsion
[ 10167 10162 10161 10158 ] final -167.47 input  -65.29 | X-H torsion
[ 10718 10713 10712 10709 ] final -120.37 input   66.30 | X-H torsion
[ 10763 10752 10751 10750 ] final  176.73 input  -60.55 | X-H torsion
[ 11005 11000 10999 10996 ] final  -63.84 input  -57.11 | X-H torsion

> <Gold.Protein.ActiveResidues>
 VAL166  LYS551  ARG553  GLY616  TRP617  ASP618  TYR619  PRO620  LYS621  CYS622 
 ASP623  PHE694  ASN695  SER759  ASP760  ASP761  ALA762  ILE779  LEU786  VAL792 
 PHE793  MET794  SER795  GLU796  ALA797  LYS798  CYS799  TRP800  GLU811  SER814 

> <Gold.Protein.RotatedAtoms>
  150.8737  133.7469  159.2953 H   0  0  0  0  0  0  0  0  0  0  0  0  # atno 6907 bound_to 6896
  151.5073  135.1062  159.9854 H   0  0  0  0  0  0  0  0  0  0  0  0  # atno 6908 bound_to 6896
  152.4713  133.7991  159.6998 H   0  0  0  0  0  0  0  0  0  0  0  0  # atno 6909 bound_to 6896
  145.2219  139.2858  143.4213 H   0  0  0  0  0  0  0  0  0  0  0  0  # atno 7974 bound_to 7965
  155.9022  140.1043  157.1342 H   0  0  0  0  0  0  0  0  0  0  0  0  # atno 8008 bound_to 7997
  154.4028  140.1290  156.4514 H   0  0  0  0  0  0  0  0  0  0  0  0  # atno 8009 bound_to 7997
  155.7409  140.3467  155.5106 H   0  0  0  0  0  0  0  0  0  0  0  0  # atno 8010 bound_to 7997
  139.6047  144.0937  152.1780 H   0  0  0  0  0  0  0  0  0  0  0  0  # atno 10167 bound_to 10162
  156.1253  130.6354  150.9531 H   0  0  0  0  0  0  0  0  0  0  0  0  # atno 10718 bound_to 10713
  154.4850  135.2776  155.1541 H   0  0  0  0  0  0  0  0  0  0  0  0  # atno 10763 bound_to 10752
  154.3236  135.6204  153.5522 H   0  0  0  0  0  0  0  0  0  0  0  0  # atno 10764 bound_to 10752
  152.9880  135.5748  154.5259 H   0  0  0  0  0  0  0  0  0  0  0  0  # atno 10765 bound_to 10752
  141.1406  133.6657  156.5741 H   0  0  0  0  0  0  0  0  0  0  0  0  # atno 11005 bound_to 11000
  146.3374  140.2528  142.8599 LP  0  0  0  0  0  0  0  0  0  0  0  0  # atno 17320 bound_to 7965
  144.9757  140.8411  143.5428 LP  0  0  0  0  0  0  0  0  0  0  0  0  # atno 17321 bound_to 7965
  140.0542  144.5908  150.7313 LP  0  0  0  0  0  0  0  0  0  0  0  0  # atno 17342 bound_to 10162
  140.7276  143.2653  151.4066 LP  0  0  0  0  0  0  0  0  0  0  0  0  # atno 17343 bound_to 10162
  157.6434  131.0907  150.8203 LP  0  0  0  0  0  0  0  0  0  0  0  0  # atno 17370 bound_to 10713
  156.8294  130.5011  149.5333 LP  0  0  0  0  0  0  0  0  0  0  0  0  # atno 17371 bound_to 10713
  140.3889  134.7457  157.4709 LP  0  0  0  0  0  0  0  0  0  0  0  0  # atno 17394 bound_to 11000
  140.0581  134.6035  155.8781 LP  0  0  0  0  0  0  0  0  0  0  0  0  # atno 17395 bound_to 11000

$$$$
