AV-unprocessed.smi:1423|AV-procd|sdf|5796|dock1
  -GOLD-   22720 5443D 1   1.00000     0.00000
 Structure written by MMmdl.
 44 45  0  0  0  0  0  0  0  0  2 V2000
  154.5511  140.6107  160.6945 C   0  0  0  0  0  0  0  0  0  0  0  0
  154.2638  141.9519  160.3145 O   0  0  0  0  0  0  0  0  0  0  0  0
  153.2793  142.1694  159.3726 C   0  0  0  0  0  0  0  0  0  0  0  0
  152.9833  143.4957  159.0011 C   0  0  0  0  0  0  0  0  0  0  0  0
  151.9781  143.7278  158.0429 C   0  0  0  0  0  0  0  0  0  0  0  0
  151.2908  142.6205  157.4897 C   0  0  0  0  0  0  0  0  0  0  0  0
  150.2655  142.7145  156.5086 N   0  0  0  0  0  0  0  0  0  0  0  0
  149.6526  141.7276  155.8324 C   0  0  0  0  0  0  0  0  0  0  0  0
  149.8918  140.5263  155.9480 O   0  0  0  0  0  0  0  0  0  0  0  0
  148.7381  142.2175  154.9824 N   0  0  0  0  0  0  0  0  0  0  0  0
  147.8844  141.4142  154.1071 C   0  0  2  0  0  0  0  0  0  0  0  0
  146.9655  142.2915  153.2327 C   0  0  0  0  0  0  0  0  0  0  0  0
  145.8509  142.9599  154.0558 C   0  0  0  0  0  0  0  0  0  0  0  0
  145.0555  141.9463  154.7985 N   0  3  2  0  0  0  0  0  0  0  0  0
  143.8745  142.5233  155.4913 C   0  0  0  0  0  0  0  0  0  0  0  0
  142.8889  141.4596  155.9872 C   0  0  0  0  0  0  0  0  0  0  0  0
  142.4090  140.6125  155.0739 N   0  0  0  0  0  0  0  0  0  0  0  0
  142.5522  141.4084  157.1688 O   0  0  0  0  0  0  0  0  0  0  0  0
  145.9112  141.1428  155.7081 C   0  0  0  0  0  0  0  0  0  0  0  0
  147.0355  140.4314  154.9326 C   0  0  0  0  0  0  0  0  0  0  0  0
  151.6730  141.3325  157.9195 C   0  0  0  0  0  0  0  0  0  0  0  0
  152.6357  141.1030  158.8368 N   0  0  0  0  0  0  0  0  0  0  0  0
  155.3380  140.6106  161.4487 H   0  0  0  0  0  0  0  0  0  0  0  0
  154.9059  140.0240  159.8460 H   0  0  0  0  0  0  0  0  0  0  0  0
  153.6778  140.1215  161.1280 H   0  0  0  0  0  0  0  0  0  0  0  0
  153.5213  144.3221  159.4416 H   0  0  0  0  0  0  0  0  0  0  0  0
  151.7684  144.7441  157.7494 H   0  0  0  0  0  0  0  0  0  0  0  0
  149.9998  143.6550  156.2561 H   0  0  0  0  0  0  0  0  0  0  0  0
  148.6083  143.2183  154.9546 H   0  0  0  0  0  0  0  0  0  0  0  0
  148.5350  140.8290  153.4543 H   0  0  0  0  0  0  0  0  0  0  0  0
  147.5440  143.0485  152.7019 H   0  0  0  0  0  0  0  0  0  0  0  0
  146.5096  141.6695  152.4611 H   0  0  0  0  0  0  0  0  0  0  0  0
  146.2779  143.6781  154.7574 H   0  0  0  0  0  0  0  0  0  0  0  0
  145.2053  143.5263  153.3840 H   0  0  0  0  0  0  0  0  0  0  0  0
  144.2004  143.0786  156.3719 H   0  0  0  0  0  0  0  0  0  0  0  0
  143.3694  143.2383  154.8396 H   0  0  0  0  0  0  0  0  0  0  0  0
  141.7598  139.8875  155.3439 H   0  0  0  0  0  0  0  0  0  0  0  0
  142.7018  140.6959  154.1105 H   0  0  0  0  0  0  0  0  0  0  0  0
  146.3297  141.7890  156.4814 H   0  0  0  0  0  0  0  0  0  0  0  0
  145.3044  140.3935  156.2175 H   0  0  0  0  0  0  0  0  0  0  0  0
  146.5903  139.6958  154.2612 H   0  0  0  0  0  0  0  0  0  0  0  0
  147.6685  139.8682  155.6197 H   0  0  0  0  0  0  0  0  0  0  0  0
  151.1878  140.4546  157.5180 H   0  0  0  0  0  0  0  0  0  0  0  0
  144.6870  141.3019  154.1129 H   0  0  0  0  0  0  0  0  0  0  0  0
  1  2  1  0  0  0  0
  1 23  1  0  0  0  0
  1 24  1  0  0  0  0
  1 25  1  0  0  0  0
  2  3  1  0  0  0  0
  3 22  1  0  0  0  0
  3  4  2  0  0  0  0
  4  5  1  0  0  0  0
  4 26  1  0  0  0  0
  5  6  2  0  0  0  0
  5 27  1  0  0  0  0
  6  7  1  0  0  0  0
  6 21  1  0  0  0  0
  7  8  1  0  0  0  0
  7 28  1  0  0  0  0
  8  9  2  0  0  0  0
  8 10  1  0  0  0  0
 10 11  1  0  0  0  0
 10 29  1  0  0  0  0
 11 20  1  0  0  0  0
 11 12  1  0  0  0  0
 11 30  1  0  0  0  0
 12 13  1  0  0  0  0
 12 31  1  0  0  0  0
 12 32  1  0  0  0  0
 13 14  1  0  0  0  0
 13 33  1  0  0  0  0
 13 34  1  0  0  0  0
 14 15  1  0  0  0  0
 14 19  1  0  0  0  0
 14 44  1  0  0  0  0
 15 16  1  0  0  0  0
 15 35  1  0  0  0  0
 15 36  1  0  0  0  0
 16 17  1  0  0  0  0
 16 18  2  0  0  0  0
 17 37  1  0  0  0  0
 17 38  1  0  0  0  0
 19 20  1  0  0  0  0
 19 39  1  0  0  0  0
 19 40  1  0  0  0  0
 20 41  1  0  0  0  0
 20 42  1  0  0  0  0
 21 22  2  0  0  0  0
 21 43  1  0  0  0  0
M  CHG  1  14   1
M  END
> <s_m_source_file>
AV-unprocessed.smi

> <i_m_source_file_index>
1423

> <i_lp_mmshare_version>
43012

> <i_f3d_flags>
0

> <s_epik_input>
W0NIM11PYzFbY0hdW2NIXWMoW2NIXW4xKVtOSF1DKD1PKVtOSF1bQ0hdMltDSDJdW0NIMl1OKFtDSDJdW0NIMl0yKVtDSDJdQyg9TylbTkgyXQ==

> <s_epik_cmdline>
J2VwaWtfcHl0aG9uJywgJy1waCcsICc3LjAnLCAnLXRuJywgJzgnLCAnLW1hJywgJzIwMCcsICctbWV0YWxfYmluZGluZycsICctaW1hZScsICc8aW5maWxlLm1hZT4nLCAnLW9tYWUnLCAnPG91dGZpbGUubWFlPic=

> <r_lp_tautomer_probability>
1

> <r_epik_Ionization_Penalty>
0.838963

> <r_epik_Ionization_Penalty_Charging>
0.838844

> <r_epik_Ionization_Penalty_Neutral>
0.0001192

> <r_epik_State_Penalty>
0.8734

> <r_epik_Charging_Adjusted_Penalty>
1.71224

> <i_epik_Tot_Q>
1

> <i_epik_Tot_abs_Q>
1

> <r_epik_Metal_State_Penalty>
0.890706

> <b_epik_Metal_Only>
0

> <s_lp_Force_Field>
OPLS_2005

> <r_lp_Energy>
16.4792

> <b_lp_Chiralities_Consistent>
1

> <s_lp_Variant>
AV-unprocessed.smi:1423-3

> <Gold.Version>
5.8.1

> <Gold.Id.Protein>
6NUR|6NUR_protein|mol2

> <Gold.PLP.Fitness>
51.4207

> <Gold.PLP.PLP>
-36.6262

> <Gold.PLP.part.hbond>
-4.3142

> <Gold.PLP.part.metal>
0.0000

> <Gold.PLP.part.buried>
-5.9815

> <Gold.PLP.part.nonpolar>
-27.0581

> <Gold.PLP.part.repulsive>
0.2942

> <Gold.PLP.ligand.clash>
0.0000

> <Gold.PLP.ligand.torsion>
0.0785

> <Gold.PLP.Chemscore.Hbond>
4.9760

> <Gold.PLP.Chemscore.CHOScore>
0.0000

> <Gold.PLP.Chemscore.Metal>
0.0000

> <Gold.Chemscore.Hbonds>
donor molecule, donor type, donor heavy atom, donor atom, acceptor molecule, acceptor atom, score
      L1  H     7    28       P1  8028  1.00
      L1  H    10    29       P1  8028  1.00
      L1  H    14    44       P1 10175  1.82
      L1  H    17    38       P1 10175  1.00

> <Gold.PLP.Chemscore.Internal.Correction>
0.0234

> <Gold.Rescore>
     Score         DG    S(hbond)    S(metal)    S(lipo)     H(rot)  DE(clash)    DE(int)     intcor
     18.36     -21.37       3.77        0.00      79.08       2.33       1.38       1.63       ----

> <Gold.Chemscore.Fitness>
18.3583

> <Gold.Chemscore.DG>
-21.3701

> <Gold.Chemscore.ZeroCoef>
-5.4800

> <Gold.Chemscore.Hbond>
3.7711

> <Gold.Chemscore.Metal>
0.0000

> <Gold.Chemscore.Lipo>
79.0768

> <Gold.Chemscore.Internal_Hbond>
0.0000

> <Gold.Chemscore.DEClash>
1.3839

> <Gold.Chemscore.DEInternal>
1.6278

> <Gold.Chemscore.Rot>
2.3271

> <Gold.Chemscore.Internal.Correction>
   9.000000E+99

> <Gold.Chemscore.Hbonds>
donor molecule, donor type, donor heavy atom, donor atom, acceptor molecule, acceptor atom, score
      L1  H     7    28       P1  8028  0.95
      L1  H    10    29       P1  8028  0.94
      L1  H    14    44       P1 10175  0.48
      L1  H    17    38       P1 10175  0.65

> <Gold.Chemscore.Hbond.Weighted>
-12.5955

> <Gold.Chemscore.Metal.Weighted>
-0.0000

> <Gold.Chemscore.Lipo.Weighted>
-9.2520

> <Gold.Chemscore.Internal_Hbond.Weighted>
0.0000

> <Gold.Chemscore.DEClash.Weighted>
1.3839

> <Gold.Chemscore.DEInternal.Weighted>
1.6278

> <Gold.Chemscore.Rot.Weighted>
5.9573

> <Gold.Chemscore.Internal.Correction.Weighted>
   9.000000E+99

> <Gold.Protein.RotatedTorsions>
[ 6907 6896 6895 6894 ] final -142.05 input  -60.11 | X-H torsion
[ 7974 7965 7964 7962 ] final  142.72 input  175.53 | X-H torsion
[ 8008 7997 7996 7995 ] final  167.08 input   59.86 | X-H torsion
[ 10167 10162 10161 10158 ] final   91.30 input  -65.29 | X-H torsion
[ 10718 10713 10712 10709 ] final -130.12 input   66.30 | X-H torsion
[ 10763 10752 10751 10750 ] final  -21.16 input  -60.55 | X-H torsion
[ 11005 11000 10999 10996 ] final    9.59 input  -57.11 | X-H torsion

> <Gold.Protein.ActiveResidues>
 VAL166  LYS551  ARG553  GLY616  TRP617  ASP618  TYR619  PRO620  LYS621  CYS622 
 ASP623  PHE694  ASN695  SER759  ASP760  ASP761  ALA762  ILE779  LEU786  VAL792 
 PHE793  MET794  SER795  GLU796  ALA797  LYS798  CYS799  TRP800  GLU811  SER814 

> <Gold.Protein.RotatedAtoms>
  151.0819  133.5383  159.2619 H   0  0  0  0  0  0  0  0  0  0  0  0  # atno 6907 bound_to 6896
  151.2283  135.0544  159.8987 H   0  0  0  0  0  0  0  0  0  0  0  0  # atno 6908 bound_to 6896
  152.5424  134.0612  159.8206 H   0  0  0  0  0  0  0  0  0  0  0  0  # atno 6909 bound_to 6896
  144.8983  139.5459  143.5766 H   0  0  0  0  0  0  0  0  0  0  0  0  # atno 7974 bound_to 7965
  156.1664  140.1626  156.8524 H   0  0  0  0  0  0  0  0  0  0  0  0  # atno 8008 bound_to 7997
  154.5212  140.0778  156.8209 H   0  0  0  0  0  0  0  0  0  0  0  0  # atno 8009 bound_to 7997
  155.3603  140.3395  155.4243 H   0  0  0  0  0  0  0  0  0  0  0  0  # atno 8010 bound_to 7997
  139.8388  144.6651  150.9309 H   0  0  0  0  0  0  0  0  0  0  0  0  # atno 10167 bound_to 10162
  156.2114  130.6920  151.0653 H   0  0  0  0  0  0  0  0  0  0  0  0  # atno 10718 bound_to 10713
  153.6317  135.6989  153.5273 H   0  0  0  0  0  0  0  0  0  0  0  0  # atno 10763 bound_to 10752
  153.2854  135.4173  155.1117 H   0  0  0  0  0  0  0  0  0  0  0  0  # atno 10764 bound_to 10752
  154.8520  135.3612  154.5860 H   0  0  0  0  0  0  0  0  0  0  0  0  # atno 10765 bound_to 10752
  140.5240  134.0531  155.7853 H   0  0  0  0  0  0  0  0  0  0  0  0  # atno 11005 bound_to 11000
  146.3094  139.7692  142.9031 LP  0  0  0  0  0  0  0  0  0  0  0  0  # atno 17320 bound_to 7965
  145.3661  141.0334  143.3257 LP  0  0  0  0  0  0  0  0  0  0  0  0  # atno 17321 bound_to 7965
  140.7800  143.3932  151.1275 LP  0  0  0  0  0  0  0  0  0  0  0  0  # atno 17342 bound_to 10162
  139.7580  143.8679  152.3093 LP  0  0  0  0  0  0  0  0  0  0  0  0  # atno 17343 bound_to 10162
  157.7040  131.0764  150.6728 LP  0  0  0  0  0  0  0  0  0  0  0  0  # atno 17370 bound_to 10713
  156.6787  130.4561  149.5634 LP  0  0  0  0  0  0  0  0  0  0  0  0  # atno 17371 bound_to 10713
  141.1318  133.9289  157.2519 LP  0  0  0  0  0  0  0  0  0  0  0  0  # atno 17394 bound_to 11000
  139.9590  135.0159  156.9208 LP  0  0  0  0  0  0  0  0  0  0  0  0  # atno 17395 bound_to 11000

$$$$
