AV-unprocessed.smi:1929|AV-procd|sdf|7804|dock3
  -GOLD-   22720 9543D 1   1.00000     0.00000
 Structure written by MMmdl.
 44 45  0  0  0  0  0  0  0  0  3 V2000
  148.3159  133.0073  153.4438 C   0  0  0  0  0  0  0  0  0  0  0  0
  148.1778  134.3868  153.8860 N   0  0  0  0  0  0  0  0  0  0  0  0
  148.1352  134.7648  155.1710 C   0  0  0  0  0  0  0  0  0  0  0  0
  148.2187  133.9730  156.1106 O   0  0  0  0  0  0  0  0  0  0  0  0
  147.9930  136.2677  155.4326 C   0  0  0  0  0  0  0  0  0  0  0  0
  149.1039  137.0647  154.8511 N   0  3  2  0  0  0  0  0  0  0  0  0
  150.4468  136.5918  155.2817 C   0  0  0  0  0  0  0  0  0  0  0  0
  151.5638  137.3512  154.5454 C   0  0  0  0  0  0  0  0  0  0  0  0
  151.4427  138.8775  154.7280 C   0  0  2  0  0  0  0  0  0  0  0  0
  151.7672  139.2954  156.0922 N   0  0  0  0  0  0  0  0  0  0  0  0
  151.7370  140.5583  156.5435 C   0  0  0  0  0  0  0  0  0  0  0  0
  151.4565  141.5232  155.8336 O   0  0  0  0  0  0  0  0  0  0  0  0
  152.0673  140.6189  157.8455 N   0  0  0  0  0  0  0  0  0  0  0  0
  152.1369  141.7572  158.6956 C   0  0  0  0  0  0  0  0  0  0  0  0
  151.4223  142.9097  158.2987 C   0  0  0  0  0  0  0  0  0  0  0  0
  151.4710  144.0696  159.0985 C   0  0  0  0  0  0  0  0  0  0  0  0
  152.2050  144.0746  160.2317 N   0  3  0  0  0  0  0  0  0  0  0  0
  152.9147  143.0033  160.6457 C   0  0  0  0  0  0  0  0  0  0  0  0
  152.9049  141.8151  159.8871 C   0  0  0  0  0  0  0  0  0  0  0  0
  150.0226  139.3325  154.3487 C   0  0  0  0  0  0  0  0  0  0  0  0
  148.9376  138.5223  155.0825 C   0  0  0  0  0  0  0  0  0  0  0  0
  148.2976  132.9621  152.3549 H   0  0  0  0  0  0  0  0  0  0  0  0
  147.4987  132.3927  153.8239 H   0  0  0  0  0  0  0  0  0  0  0  0
  149.2600  132.5823  153.7872 H   0  0  0  0  0  0  0  0  0  0  0  0
  148.1109  135.0954  153.1694 H   0  0  0  0  0  0  0  0  0  0  0  0
  147.0475  136.5726  154.9826 H   0  0  0  0  0  0  0  0  0  0  0  0
  147.9096  136.4665  156.5026 H   0  0  0  0  0  0  0  0  0  0  0  0
  150.5509  136.7189  156.3604 H   0  0  0  0  0  0  0  0  0  0  0  0
  150.5522  135.5251  155.0817 H   0  0  0  0  0  0  0  0  0  0  0  0
  152.5398  136.9971  154.8791 H   0  0  0  0  0  0  0  0  0  0  0  0
  151.5089  137.1153  153.4816 H   0  0  0  0  0  0  0  0  0  0  0  0
  152.1456  139.3691  154.0528 H   0  0  0  0  0  0  0  0  0  0  0  0
  152.0078  138.5649  156.7463 H   0  0  0  0  0  0  0  0  0  0  0  0
  152.3444  139.7467  158.2713 H   0  0  0  0  0  0  0  0  0  0  0  0
  150.8360  142.9084  157.3910 H   0  0  0  0  0  0  0  0  0  0  0  0
  150.9500  144.9870  158.8665 H   0  0  0  0  0  0  0  0  0  0  0  0
  153.4712  143.1292  161.5631 H   0  0  0  0  0  0  0  0  0  0  0  0
  153.4963  140.9806  160.2302 H   0  0  0  0  0  0  0  0  0  0  0  0
  149.8988  140.3970  154.5519 H   0  0  0  0  0  0  0  0  0  0  0  0
  149.8864  139.2133  153.2728 H   0  0  0  0  0  0  0  0  0  0  0  0
  147.9566  138.8408  154.7279 H   0  0  0  0  0  0  0  0  0  0  0  0
  148.9673  138.7274  156.1538 H   0  0  0  0  0  0  0  0  0  0  0  0
  149.0507  136.9281  153.8512 H   0  0  0  0  0  0  0  0  0  0  0  0
  152.2284  144.9245  160.7960 H   0  0  0  0  0  0  0  0  0  0  0  0
  1  2  1  0  0  0  0
  1 22  1  0  0  0  0
  1 23  1  0  0  0  0
  1 24  1  0  0  0  0
  2  3  1  0  0  0  0
  2 25  1  0  0  0  0
  3  4  2  0  0  0  0
  3  5  1  0  0  0  0
  5  6  1  0  0  0  0
  5 26  1  0  0  0  0
  5 27  1  0  0  0  0
  6 21  1  0  0  0  0
  6  7  1  0  0  0  0
  6 43  1  0  0  0  0
  7  8  1  0  0  0  0
  7 28  1  0  0  0  0
  7 29  1  0  0  0  0
  8  9  1  0  0  0  0
  8 30  1  0  0  0  0
  8 31  1  0  0  0  0
  9 10  1  0  0  0  0
  9 20  1  0  0  0  0
  9 32  1  0  0  0  0
 10 11  1  0  0  0  0
 10 33  1  0  0  0  0
 11 12  2  0  0  0  0
 11 13  1  0  0  0  0
 13 14  1  0  0  0  0
 13 34  1  0  0  0  0
 14 19  1  0  0  0  0
 14 15  2  0  0  0  0
 15 16  1  0  0  0  0
 15 35  1  0  0  0  0
 16 17  2  0  0  0  0
 16 36  1  0  0  0  0
 17 18  1  0  0  0  0
 17 44  1  0  0  0  0
 18 19  2  0  0  0  0
 18 37  1  0  0  0  0
 19 38  1  0  0  0  0
 20 21  1  0  0  0  0
 20 39  1  0  0  0  0
 20 40  1  0  0  0  0
 21 41  1  0  0  0  0
 21 42  1  0  0  0  0
M  CHG  1   6   1
M  CHG  1  17   1
M  END
> <s_m_source_file>
AV-unprocessed.smi

> <i_m_source_file_index>
1929

> <i_lp_mmshare_version>
43012

> <i_f3d_flags>
0

> <s_epik_input>
W0NIM11bTkhdQyg9TylbQ0gyXU4xW0NIMl1bQ0gyXVtDSF0oW0NIMl1bQ0gyXTEpW05IXUMoPU8pW05IXWMyW2NIXVtjSF1uW2NIXVtjSF0y

> <s_epik_cmdline>
J2VwaWtfcHl0aG9uJywgJy1waCcsICc3LjAnLCAnLXRuJywgJzgnLCAnLW1hJywgJzIwMCcsICctbWV0YWxfYmluZGluZycsICctaW1hZScsICc8aW5maWxlLm1hZT4nLCAnLW9tYWUnLCAnPG91dGZpbGUubWFlPic=

> <r_epik_Ionization_Penalty>
1.97435

> <r_epik_Ionization_Penalty_Charging>
1.97431

> <r_epik_Ionization_Penalty_Neutral>
3.89585e-05

> <r_epik_State_Penalty>
2.00691

> <r_epik_Charging_Adjusted_Penalty>
3.98122

> <i_epik_Tot_Q>
2

> <i_epik_Tot_abs_Q>
2

> <r_epik_Metal_State_Penalty>
2.11022

> <b_epik_Metal_Only>
0

> <s_lp_Force_Field>
OPLS_2005

> <r_lp_Energy>
26.8992

> <b_lp_Chiralities_Consistent>
1

> <s_lp_Variant>
AV-unprocessed.smi:1929-6

> <Gold.Version>
5.8.1

> <Gold.Id.Protein>
6NUR|6NUR_protein|mol2

> <Gold.PLP.Fitness>
43.3148

> <Gold.PLP.PLP>
-34.5174

> <Gold.PLP.part.hbond>
-2.3300

> <Gold.PLP.part.metal>
0.0000

> <Gold.PLP.part.buried>
-4.2349

> <Gold.PLP.part.nonpolar>
-28.7989

> <Gold.PLP.part.repulsive>
0.3339

> <Gold.PLP.ligand.clash>
0.0000

> <Gold.PLP.ligand.torsion>
0.1150

> <Gold.PLP.Chemscore.Hbond>
3.0000

> <Gold.PLP.Chemscore.CHOScore>
0.0000

> <Gold.PLP.Chemscore.Metal>
0.0000

> <Gold.Chemscore.Hbonds>
donor molecule, donor type, donor heavy atom, donor atom, acceptor molecule, acceptor atom, score
      L1  H     2    25       P1  7948  0.98
      L1  H     6    43       P1  7948  1.69
      P1  H  7989  7998       L1    12  0.02

> <Gold.PLP.Chemscore.Internal.Correction>
0.0274

> <Gold.Rescore>
     Score         DG    S(hbond)    S(metal)    S(lipo)     H(rot)  DE(clash)    DE(int)     intcor
     15.53     -17.35       1.66        0.00      91.46       1.71       0.32       1.51       ----

> <Gold.Chemscore.Fitness>
15.5292

> <Gold.Chemscore.DG>
-17.3535

> <Gold.Chemscore.ZeroCoef>
-5.4800

> <Gold.Chemscore.Hbond>
1.6636

> <Gold.Chemscore.Metal>
0.0000

> <Gold.Chemscore.Lipo>
91.4618

> <Gold.Chemscore.Internal_Hbond>
0.0000

> <Gold.Chemscore.DEClash>
0.3179

> <Gold.Chemscore.DEInternal>
1.5064

> <Gold.Chemscore.Rot>
1.7124

> <Gold.Chemscore.Internal.Correction>
   9.000000E+99

> <Gold.Chemscore.Hbonds>
donor molecule, donor type, donor heavy atom, donor atom, acceptor molecule, acceptor atom, score
      L1  H     2    25       P1  7948  0.91
      L1  H     6    43       P1  7948  0.82
      P1  H  7989  7998       L1    12  0.03

> <Gold.Chemscore.Hbond.Weighted>
-5.5563

> <Gold.Chemscore.Metal.Weighted>
-0.0000

> <Gold.Chemscore.Lipo.Weighted>
-10.7010

> <Gold.Chemscore.Internal_Hbond.Weighted>
0.0000

> <Gold.Chemscore.DEClash.Weighted>
0.3179

> <Gold.Chemscore.DEInternal.Weighted>
1.5064

> <Gold.Chemscore.Rot.Weighted>
4.3838

> <Gold.Chemscore.Internal.Correction.Weighted>
   9.000000E+99

> <Gold.Protein.RotatedTorsions>
[ 6907 6896 6895 6894 ] final -164.50 input  -60.11 | X-H torsion
[ 7974 7965 7964 7962 ] final   51.32 input  175.53 | X-H torsion
[ 8008 7997 7996 7995 ] final -142.36 input   59.86 | X-H torsion
[ 10167 10162 10161 10158 ] final  -98.36 input  -65.29 | X-H torsion
[ 10718 10713 10712 10709 ] final   50.42 input   66.30 | X-H torsion
[ 10763 10752 10751 10750 ] final -103.14 input  -60.55 | X-H torsion
[ 11005 11000 10999 10996 ] final  114.76 input  -57.11 | X-H torsion

> <Gold.Protein.ActiveResidues>
 VAL166  LYS551  ARG553  GLY616  TRP617  ASP618  TYR619  PRO620  LYS621  CYS622 
 ASP623  PHE694  ASN695  SER759  ASP760  ASP761  ALA762  ILE779  LEU786  VAL792 
 PHE793  MET794  SER795  GLU796  ALA797  LYS798  CYS799  TRP800  GLU811  SER814 

> <Gold.Protein.RotatedAtoms>
  151.4128  133.3722  159.2745 H   0  0  0  0  0  0  0  0  0  0  0  0  # atno 6907 bound_to 6896
  150.9350  134.8764  159.7586 H   0  0  0  0  0  0  0  0  0  0  0  0  # atno 6908 bound_to 6896
  152.5046  134.4075  159.9489 H   0  0  0  0  0  0  0  0  0  0  0  0  # atno 6909 bound_to 6896
  145.9924  139.4353  143.0065 H   0  0  0  0  0  0  0  0  0  0  0  0  # atno 7974 bound_to 7965
  155.4929  140.0569  157.2951 H   0  0  0  0  0  0  0  0  0  0  0  0  # atno 8008 bound_to 7997
  154.4616  140.1999  156.0179 H   0  0  0  0  0  0  0  0  0  0  0  0  # atno 8009 bound_to 7997
  156.0901  140.3234  155.7808 H   0  0  0  0  0  0  0  0  0  0  0  0  # atno 8010 bound_to 7997
  140.2737  143.3327  152.0509 H   0  0  0  0  0  0  0  0  0  0  0  0  # atno 10167 bound_to 10162
  157.4882  130.8359  149.8172 H   0  0  0  0  0  0  0  0  0  0  0  0  # atno 10718 bound_to 10713
  154.7786  135.4834  153.9796 H   0  0  0  0  0  0  0  0  0  0  0  0  # atno 10763 bound_to 10752
  153.1462  135.6782  153.8958 H   0  0  0  0  0  0  0  0  0  0  0  0  # atno 10764 bound_to 10752
  153.8617  135.3154  155.3416 H   0  0  0  0  0  0  0  0  0  0  0  0  # atno 10765 bound_to 10752
  139.8990  134.9573  156.6941 H   0  0  0  0  0  0  0  0  0  0  0  0  # atno 11005 bound_to 11000
  145.7609  140.9935  143.1200 LP  0  0  0  0  0  0  0  0  0  0  0  0  # atno 17320 bound_to 7965
  144.6893  139.9330  143.7472 LP  0  0  0  0  0  0  0  0  0  0  0  0  # atno 17321 bound_to 7965
  139.4981  144.6639  151.6402 LP  0  0  0  0  0  0  0  0  0  0  0  0  # atno 17342 bound_to 10162
  140.5868  143.9849  150.6301 LP  0  0  0  0  0  0  0  0  0  0  0  0  # atno 17343 bound_to 10162
  156.0159  130.3814  150.2114 LP  0  0  0  0  0  0  0  0  0  0  0  0  # atno 17370 bound_to 10713
  157.0302  131.0005  151.3314 LP  0  0  0  0  0  0  0  0  0  0  0  0  # atno 17371 bound_to 10713
  140.7202  133.9148  155.8141 LP  0  0  0  0  0  0  0  0  0  0  0  0  # atno 17394 bound_to 11000
  141.0233  134.0858  157.4096 LP  0  0  0  0  0  0  0  0  0  0  0  0  # atno 17395 bound_to 11000

$$$$
