AV-unprocessed.smi:1803|AV-procd|sdf|7281|dock7
  -GOLD-   22720 8543D 1   1.00000     0.00000
 Structure written by MMmdl.
 36 38  0  0  0  0  0  0  0  0  2 V2000
  149.4686  134.4069  155.8990 O   0  0  0  0  0  0  0  0  0  0  0  0
  149.2787  134.8737  154.7775 C   0  0  0  0  0  0  0  0  0  0  0  0
  149.8809  136.0182  154.3890 N   0  0  0  0  0  0  0  0  0  0  0  0
  150.7796  136.8946  155.0660 C   0  0  0  0  0  0  0  0  0  0  0  0
  151.6160  136.5191  156.0478 N   0  0  0  0  0  0  0  0  0  0  0  0
  152.3823  137.5777  156.5164 N   0  0  0  0  0  0  0  0  0  0  0  0
  152.1011  138.7104  155.8669 C   0  0  0  0  0  0  0  0  0  0  0  0
  150.8716  138.5933  154.6204 S   0  0  0  0  0  0  0  0  0  0  0  0
  148.4751  134.2859  153.8760 N   0  0  0  0  0  0  0  0  0  0  0  0
  147.7187  133.0556  154.0841 C   0  0  2  0  0  0  0  0  0  0  0  0
  148.6049  131.8788  154.5293 C   0  0  0  0  0  0  0  0  0  0  0  0
  148.0353  130.6411  153.8085 C   0  0  0  0  0  0  0  0  0  0  0  0
  146.8341  131.1206  153.0993 N   0  3  2  0  0  0  0  0  0  0  0  0
  146.3927  130.3439  151.9203 C   0  0  0  0  0  0  0  0  0  0  0  0
  145.0844  130.9498  151.3738 C   0  0  0  0  0  0  0  0  0  0  0  0
  145.2250  132.4609  151.0988 C   0  0  0  0  0  0  0  0  0  0  0  0
  145.7775  133.2020  152.3315 C   0  0  0  0  0  0  0  0  0  0  0  0
  147.0860  132.5362  152.7904 C   0  0  1  0  0  0  0  0  0  0  0  0
  149.6794  136.2894  153.4372 H   0  0  0  0  0  0  0  0  0  0  0  0
  152.6222  139.6212  156.1230 H   0  0  0  0  0  0  0  0  0  0  0  0
  148.3775  134.7342  152.9757 H   0  0  0  0  0  0  0  0  0  0  0  0
  146.9416  133.2040  154.8370 H   0  0  0  0  0  0  0  0  0  0  0  0
  149.6452  132.0288  154.2358 H   0  0  0  0  0  0  0  0  0  0  0  0
  148.5853  131.7623  155.6134 H   0  0  0  0  0  0  0  0  0  0  0  0
  148.7646  130.2567  153.0935 H   0  0  0  0  0  0  0  0  0  0  0  0
  147.7815  129.8368  154.4994 H   0  0  0  0  0  0  0  0  0  0  0  0
  147.1697  130.3562  151.1543 H   0  0  0  0  0  0  0  0  0  0  0  0
  146.2356  129.3030  152.2049 H   0  0  0  0  0  0  0  0  0  0  0  0
  144.7829  130.4302  150.4638 H   0  0  0  0  0  0  0  0  0  0  0  0
  144.2841  130.7906  152.0980 H   0  0  0  0  0  0  0  0  0  0  0  0
  145.8964  132.6140  150.2529 H   0  0  0  0  0  0  0  0  0  0  0  0
  144.2616  132.8813  150.8083 H   0  0  0  0  0  0  0  0  0  0  0  0
  145.9492  134.2504  152.0867 H   0  0  0  0  0  0  0  0  0  0  0  0
  145.0427  133.1838  153.1377 H   0  0  0  0  0  0  0  0  0  0  0  0
  147.8228  132.5900  151.9851 H   0  0  0  0  0  0  0  0  0  0  0  0
  146.0792  131.1056  153.7702 H   0  0  0  0  0  0  0  0  0  0  0  0
  1  2  2  0  0  0  0
  2  3  1  0  0  0  0
  2  9  1  0  0  0  0
  3  4  1  0  0  0  0
  3 19  1  0  0  0  0
  4  8  1  0  0  0  0
  4  5  2  0  0  0  0
  5  6  1  0  0  0  0
  6  7  2  0  0  0  0
  7  8  1  0  0  0  0
  7 20  1  0  0  0  0
  9 10  1  0  0  0  0
  9 21  1  0  0  0  0
 10 18  1  0  0  0  0
 10 11  1  0  0  0  0
 10 22  1  0  0  0  0
 11 12  1  0  0  0  0
 11 23  1  0  0  0  0
 11 24  1  0  0  0  0
 12 13  1  0  0  0  0
 12 25  1  0  0  0  0
 12 26  1  0  0  0  0
 13 18  1  0  0  0  0
 13 14  1  0  0  0  0
 13 36  1  0  0  0  0
 14 15  1  0  0  0  0
 14 27  1  0  0  0  0
 14 28  1  0  0  0  0
 15 16  1  0  0  0  0
 15 29  1  0  0  0  0
 15 30  1  0  0  0  0
 16 17  1  0  0  0  0
 16 31  1  0  0  0  0
 16 32  1  0  0  0  0
 17 18  1  0  0  0  0
 17 33  1  0  0  0  0
 17 34  1  0  0  0  0
 18 35  1  0  0  0  0
M  CHG  1  13   1
M  END
> <s_m_source_file>
AV-unprocessed.smi

> <i_m_source_file_index>
1803

> <i_lp_mmshare_version>
43012

> <i_f3d_flags>
0

> <s_epik_input>
czFbY0hdbm5jMVtOSF1DKD1PKVtOSF1bQ0BIXShbQ0gyXVtDSDJdMilbQ0BASF0oTjIzKVtDSDJdW0NIMl1bQ0gyXVtDSDJdMw==

> <s_epik_cmdline>
J2VwaWtfcHl0aG9uJywgJy1waCcsICc3LjAnLCAnLXRuJywgJzgnLCAnLW1hJywgJzIwMCcsICctbWV0YWxfYmluZGluZycsICctaW1hZScsICc8aW5maWxlLm1hZT4nLCAnLW9tYWUnLCAnPG91dGZpbGUubWFlPic=

> <r_lp_tautomer_probability>
1

> <r_epik_Ionization_Penalty>
0.00213286

> <r_epik_Ionization_Penalty_Charging>
0.00107044

> <r_epik_Ionization_Penalty_Neutral>
0.00106242

> <r_epik_State_Penalty>
-0

> <r_epik_Charging_Adjusted_Penalty>
0.00107044

> <i_epik_Tot_Q>
1

> <i_epik_Tot_abs_Q>
1

> <r_epik_Metal_State_Penalty>
0.292783

> <b_epik_Metal_Only>
0

> <s_lp_Force_Field>
OPLS_2005

> <r_lp_Energy>
35.8307

> <b_lp_Chiralities_Consistent>
1

> <s_lp_Variant>
AV-unprocessed.smi:1803-3

> <Gold.Version>
5.8.1

> <Gold.Id.Protein>
6NUR|6NUR_protein|mol2

> <Gold.PLP.Fitness>
37.3757

> <Gold.PLP.PLP>
-29.2382

> <Gold.PLP.part.hbond>
-4.9184

> <Gold.PLP.part.metal>
0.0000

> <Gold.PLP.part.buried>
-1.4086

> <Gold.PLP.part.nonpolar>
-23.5629

> <Gold.PLP.part.repulsive>
0.1323

> <Gold.PLP.ligand.clash>
0.0000

> <Gold.PLP.ligand.torsion>
0.2051

> <Gold.PLP.Chemscore.Hbond>
2.8460

> <Gold.PLP.Chemscore.CHOScore>
0.0000

> <Gold.PLP.Chemscore.Metal>
0.0000

> <Gold.Chemscore.Hbonds>
donor molecule, donor type, donor heavy atom, donor atom, acceptor molecule, acceptor atom, score
      L1  H     3    19       P1  7948  1.00
      L1  H     9    21       P1  7948  0.91
      P1  H 10752 10764       L1     5  0.61

> <Gold.PLP.Chemscore.Internal.Correction>
0.0096

> <Gold.Rescore>
     Score         DG    S(hbond)    S(metal)    S(lipo)     H(rot)  DE(clash)    DE(int)     intcor
     16.21     -16.64       1.97        0.00      60.98       1.00       0.03       0.40       ----

> <Gold.Chemscore.Fitness>
16.2072

> <Gold.Chemscore.DG>
-16.6415

> <Gold.Chemscore.ZeroCoef>
-5.4800

> <Gold.Chemscore.Hbond>
1.9722

> <Gold.Chemscore.Metal>
0.0000

> <Gold.Chemscore.Lipo>
60.9786

> <Gold.Chemscore.Internal_Hbond>
0.0000

> <Gold.Chemscore.DEClash>
0.0324

> <Gold.Chemscore.DEInternal>
0.4019

> <Gold.Chemscore.Rot>
1.0000

> <Gold.Chemscore.Internal.Correction>
   9.000000E+99

> <Gold.Chemscore.Hbonds>
donor molecule, donor type, donor heavy atom, donor atom, acceptor molecule, acceptor atom, score
      L1  H     3    19       P1  7948  0.30
      L1  H     9    21       P1  7948  0.49
      P1  H 10752 10764       L1     5  0.02

> <Gold.Chemscore.Hbond.Weighted>
-6.5870

> <Gold.Chemscore.Metal.Weighted>
-0.0000

> <Gold.Chemscore.Lipo.Weighted>
-7.1345

> <Gold.Chemscore.Internal_Hbond.Weighted>
0.0000

> <Gold.Chemscore.DEClash.Weighted>
0.0324

> <Gold.Chemscore.DEInternal.Weighted>
0.4019

> <Gold.Chemscore.Rot.Weighted>
2.5600

> <Gold.Chemscore.Internal.Correction.Weighted>
   9.000000E+99

> <Gold.Protein.RotatedTorsions>
[ 6907 6896 6895 6894 ] final   33.02 input  -60.11 | X-H torsion
[ 7974 7965 7964 7962 ] final   71.37 input  175.53 | X-H torsion
[ 8008 7997 7996 7995 ] final  -55.75 input   59.86 | X-H torsion
[ 10167 10162 10161 10158 ] final   92.55 input  -65.29 | X-H torsion
[ 10718 10713 10712 10709 ] final  -20.29 input   66.30 | X-H torsion
[ 10763 10752 10751 10750 ] final  -50.25 input  -60.55 | X-H torsion
[ 11005 11000 10999 10996 ] final -157.19 input  -57.11 | X-H torsion

> <Gold.Protein.ActiveResidues>
 VAL166  LYS551  ARG553  GLY616  TRP617  ASP618  TYR619  PRO620  LYS621  CYS622 
 ASP623  PHE694  ASN695  SER759  ASP760  ASP761  ALA762  ILE779  LEU786  VAL792 
 PHE793  MET794  SER795  GLU796  ALA797  LYS798  CYS799  TRP800  GLU811  SER814 

> <Gold.Protein.RotatedAtoms>
  152.0826  134.9461  160.0573 H   0  0  0  0  0  0  0  0  0  0  0  0  # atno 6907 bound_to 6896
  152.0743  133.4117  159.4481 H   0  0  0  0  0  0  0  0  0  0  0  0  # atno 6908 bound_to 6896
  150.6836  134.2975  159.4736 H   0  0  0  0  0  0  0  0  0  0  0  0  # atno 6909 bound_to 6896
  145.7666  139.2824  143.1345 H   0  0  0  0  0  0  0  0  0  0  0  0  # atno 7974 bound_to 7965
  154.4205  140.1146  156.5526 H   0  0  0  0  0  0  0  0  0  0  0  0  # atno 8008 bound_to 7997
  155.6394  140.3496  155.4690 H   0  0  0  0  0  0  0  0  0  0  0  0  # atno 8009 bound_to 7997
  155.9883  140.1174  157.0652 H   0  0  0  0  0  0  0  0  0  0  0  0  # atno 8010 bound_to 7997
  139.8266  144.6707  150.9452 H   0  0  0  0  0  0  0  0  0  0  0  0  # atno 10167 bound_to 10162
  156.5339  130.4662  149.6533 H   0  0  0  0  0  0  0  0  0  0  0  0  # atno 10718 bound_to 10713
  154.1073  135.6554  153.4878 H   0  0  0  0  0  0  0  0  0  0  0  0  # atno 10763 bound_to 10752
  153.0268  135.5239  154.7227 H   0  0  0  0  0  0  0  0  0  0  0  0  # atno 10764 bound_to 10752
  154.6397  135.2986  155.0088 H   0  0  0  0  0  0  0  0  0  0  0  0  # atno 10765 bound_to 10752
  140.6673  134.4285  157.5233 H   0  0  0  0  0  0  0  0  0  0  0  0  # atno 11005 bound_to 11000
  146.0211  140.8347  142.9923 LP  0  0  0  0  0  0  0  0  0  0  0  0  # atno 17320 bound_to 7965
  144.6820  140.2630  143.7316 LP  0  0  0  0  0  0  0  0  0  0  0  0  # atno 17321 bound_to 7965
  140.7810  143.4041  151.1100 LP  0  0  0  0  0  0  0  0  0  0  0  0  # atno 17342 bound_to 10162
  139.7698  143.8512  152.3118 LP  0  0  0  0  0  0  0  0  0  0  0  0  # atno 17343 bound_to 10162
  156.3034  130.7189  151.2066 LP  0  0  0  0  0  0  0  0  0  0  0  0  # atno 17370 bound_to 10713
  157.7417  131.0500  150.5078 LP  0  0  0  0  0  0  0  0  0  0  0  0  # atno 17371 bound_to 10713
  139.8993  134.8594  156.1965 LP  0  0  0  0  0  0  0  0  0  0  0  0  # atno 17394 bound_to 11000
  141.0419  133.6933  156.1614 LP  0  0  0  0  0  0  0  0  0  0  0  0  # atno 17395 bound_to 11000

$$$$
