AV-unprocessed.smi:1208|AV-procd|sdf|5067|dock8
  -GOLD-   22720 4113D 1   1.00000     0.00000
 Structure written by MMmdl.
 36 37  0  0  0  0  0  0  0  0  1 V2000
  154.5383  140.4263  161.0047 C   0  0  0  0  0  0  0  0  0  0  0  0
  153.1203  141.0172  160.9452 C   0  0  2  0  0  0  0  0  0  0  0  0
  152.2710  140.1865  160.0980 N   0  0  0  0  0  0  0  0  0  0  0  0
  152.6354  139.5903  158.9503 C   0  0  0  0  0  0  0  0  0  0  0  0
  153.7585  139.7104  158.4629 O   0  0  0  0  0  0  0  0  0  0  0  0
  151.5943  138.7161  158.2289 C   0  0  0  0  0  0  0  0  0  0  0  0
  151.4611  138.9805  156.7867 N   0  0  0  0  0  0  0  0  0  0  0  0
  151.6613  137.8651  155.9872 N   0  0  0  0  0  0  0  0  0  0  0  0
  151.5457  137.9606  154.7059 C   0  0  0  0  0  0  0  0  0  0  0  0
  151.7471  136.8304  153.9524 O   0  0  0  0  0  0  0  0  0  0  0  0
  151.2134  139.2197  154.0764 C   0  0  0  0  0  0  0  0  0  0  0  0
  151.0209  140.3008  154.8634 C   0  0  0  0  0  0  0  0  0  0  0  0
  151.1363  140.2256  156.3209 C   0  0  0  0  0  0  0  0  0  0  0  0
  150.9463  141.1890  157.0622 O   0  0  0  0  0  0  0  0  0  0  0  0
  153.1214  142.4615  160.4083 C   0  0  1  0  0  0  0  0  0  0  0  0
  153.1874  142.5771  158.8838 C   0  0  0  0  0  0  0  0  0  0  0  0
  152.6082  143.9546  158.6594 C   0  0  0  0  0  0  0  0  0  0  0  0
  151.5071  144.0102  159.7151 C   0  0  0  0  0  0  0  0  0  0  0  0
  151.9146  143.1323  160.7623 O   0  0  0  0  0  0  0  0  0  0  0  0
  151.5661  137.0857  153.0610 H   0  0  0  0  0  0  0  0  0  0  0  0
  155.1869  141.0244  161.6449 H   0  0  0  0  0  0  0  0  0  0  0  0
  154.9936  140.3861  160.0147 H   0  0  0  0  0  0  0  0  0  0  0  0
  154.5278  139.4131  161.4074 H   0  0  0  0  0  0  0  0  0  0  0  0
  152.7055  141.0325  161.9547 H   0  0  0  0  0  0  0  0  0  0  0  0
  151.3267  140.0337  160.4211 H   0  0  0  0  0  0  0  0  0  0  0  0
  151.8376  137.6670  158.4049 H   0  0  0  0  0  0  0  0  0  0  0  0
  150.6314  138.8717  158.7183 H   0  0  0  0  0  0  0  0  0  0  0  0
  151.1243  139.2857  153.0020 H   0  0  0  0  0  0  0  0  0  0  0  0
  150.7730  141.2476  154.4071 H   0  0  0  0  0  0  0  0  0  0  0  0
  153.9531  143.0218  160.8391 H   0  0  0  0  0  0  0  0  0  0  0  0
  154.1988  142.4707  158.4899 H   0  0  0  0  0  0  0  0  0  0  0  0
  152.5545  141.8240  158.4123 H   0  0  0  0  0  0  0  0  0  0  0  0
  153.3639  144.7141  158.8637 H   0  0  0  0  0  0  0  0  0  0  0  0
  152.2362  144.1057  157.6459 H   0  0  0  0  0  0  0  0  0  0  0  0
  151.3439  145.0219  160.0869 H   0  0  0  0  0  0  0  0  0  0  0  0
  150.5647  143.6441  159.3056 H   0  0  0  0  0  0  0  0  0  0  0  0
  1  2  1  0  0  0  0
  1 21  1  0  0  0  0
  1 22  1  0  0  0  0
  1 23  1  0  0  0  0
  2  3  1  0  0  0  0
  2 15  1  0  0  0  0
  2 24  1  0  0  0  0
  3  4  1  0  0  0  0
  3 25  1  0  0  0  0
  4  5  2  0  0  0  0
  4  6  1  0  0  0  0
  6 26  1  0  0  0  0
  6 27  1  0  0  0  0
  6  7  1  0  0  0  0
  7  8  1  0  0  0  0
  7 13  1  0  0  0  0
  8  9  2  0  0  0  0
  9 10  1  0  0  0  0
  9 11  1  0  0  0  0
 10 20  1  0  0  0  0
 11 28  1  0  0  0  0
 11 12  2  0  0  0  0
 12 29  1  0  0  0  0
 12 13  1  0  0  0  0
 13 14  2  0  0  0  0
 15 19  1  0  0  0  0
 15 16  1  0  0  0  0
 15 30  1  0  0  0  0
 16 17  1  0  0  0  0
 16 31  1  0  0  0  0
 16 32  1  0  0  0  0
 17 18  1  0  0  0  0
 17 33  1  0  0  0  0
 17 34  1  0  0  0  0
 18 19  1  0  0  0  0
 18 35  1  0  0  0  0
 18 36  1  0  0  0  0
M  END
> <s_m_source_file>
AV-unprocessed.smi

> <i_m_source_file_index>
1208

> <i_lp_mmshare_version>
43012

> <i_f3d_flags>
0

> <s_epik_input>
TzFbQ0gyXVtDSDJdW0NIMl1bQ0BIXTFbQ0BIXShbQ0gzXSlbTkhdQyg9TylbQ0gyXW4yW25IXWMoPU8pW2NIXVtjSF1jMj1P

> <s_epik_cmdline>
J2VwaWtfcHl0aG9uJywgJy1waCcsICc3LjAnLCAnLXRuJywgJzgnLCAnLW1hJywgJzIwMCcsICctbWV0YWxfYmluZGluZycsICctaW1hZScsICc8aW5maWxlLm1hZT4nLCAnLW9tYWUnLCAnPG91dGZpbGUubWFlPic=

> <r_lp_tautomer_probability>
0.9996

> <r_epik_Ionization_Penalty>
2.12735

> <r_epik_Ionization_Penalty_Charging>
3.86665e-08

> <r_epik_Ionization_Penalty_Neutral>
2.12735

> <r_epik_State_Penalty>
1.70441

> <r_epik_Charging_Adjusted_Penalty>
1.70441

> <i_epik_Tot_Q>
0

> <i_epik_Tot_abs_Q>
0

> <r_epik_Metal_State_Penalty>
1.70441

> <b_epik_Metal_Only>
0

> <s_lp_Force_Field>
OPLS_2005

> <r_lp_Energy>
27.2877

> <b_lp_Chiralities_Consistent>
1

> <s_lp_Variant>
AV-unprocessed.smi:1208-7

> <Gold.Version>
5.8.1

> <Gold.Id.Protein>
6NUR|6NUR_protein|mol2

> <Gold.PLP.Fitness>
39.6487

> <Gold.PLP.PLP>
-33.1788

> <Gold.PLP.part.hbond>
-3.0000

> <Gold.PLP.part.metal>
0.0000

> <Gold.PLP.part.buried>
-0.8544

> <Gold.PLP.part.nonpolar>
-28.9525

> <Gold.PLP.part.repulsive>
0.2424

> <Gold.PLP.ligand.clash>
0.0000

> <Gold.PLP.ligand.torsion>
0.7986

> <Gold.PLP.Chemscore.Hbond>
2.6843

> <Gold.PLP.Chemscore.CHOScore>
0.0000

> <Gold.PLP.Chemscore.Metal>
0.0000

> <Gold.Chemscore.Hbonds>
donor molecule, donor type, donor heavy atom, donor atom, acceptor molecule, acceptor atom, score
      L1  H    10    20       P1  7949  0.61
      P1  H  7997  8008       L1     5  1.00
      P1  H 10752 10765       L1    10  1.00

> <Gold.PLP.Chemscore.Internal.Correction>
0.0141

> <Gold.Rescore>
     Score         DG    S(hbond)    S(metal)    S(lipo)     H(rot)  DE(clash)    DE(int)     intcor
     13.82     -16.72       2.50        0.00      82.15       2.63       0.72       2.17       ----

> <Gold.Chemscore.Fitness>
13.8237

> <Gold.Chemscore.DG>
-16.7213

> <Gold.Chemscore.ZeroCoef>
-5.4800

> <Gold.Chemscore.Hbond>
2.5012

> <Gold.Chemscore.Metal>
0.0000

> <Gold.Chemscore.Lipo>
82.1458

> <Gold.Chemscore.Internal_Hbond>
0.0000

> <Gold.Chemscore.DEClash>
0.7242

> <Gold.Chemscore.DEInternal>
2.1733

> <Gold.Chemscore.Rot>
2.6264

> <Gold.Chemscore.Internal.Correction>
   9.000000E+99

> <Gold.Chemscore.Hbonds>
donor molecule, donor type, donor heavy atom, donor atom, acceptor molecule, acceptor atom, score
      L1  H    10    20       P1  7949  0.56
      P1  H  7997  8008       L1     5  0.94
      P1  H 10752 10765       L1    10  0.82

> <Gold.Chemscore.Hbond.Weighted>
-8.3539

> <Gold.Chemscore.Metal.Weighted>
-0.0000

> <Gold.Chemscore.Lipo.Weighted>
-9.6111

> <Gold.Chemscore.Internal_Hbond.Weighted>
0.0000

> <Gold.Chemscore.DEClash.Weighted>
0.7242

> <Gold.Chemscore.DEInternal.Weighted>
2.1733

> <Gold.Chemscore.Rot.Weighted>
6.7237

> <Gold.Chemscore.Internal.Correction.Weighted>
   9.000000E+99

> <Gold.Protein.RotatedTorsions>
[ 6907 6896 6895 6894 ] final   73.69 input  -60.11 | X-H torsion
[ 7974 7965 7964 7962 ] final  122.83 input  175.53 | X-H torsion
[ 8008 7997 7996 7995 ] final -113.24 input   59.86 | X-H torsion
[ 10167 10162 10161 10158 ] final  -28.93 input  -65.29 | X-H torsion
[ 10718 10713 10712 10709 ] final  127.53 input   66.30 | X-H torsion
[ 10763 10752 10751 10750 ] final  147.40 input  -60.55 | X-H torsion
[ 11005 11000 10999 10996 ] final   82.38 input  -57.11 | X-H torsion

> <Gold.Protein.ActiveResidues>
 VAL166  LYS551  ARG553  GLY616  TRP617  ASP618  TYR619  PRO620  LYS621  CYS622 
 ASP623  PHE694  ASN695  SER759  ASP760  ASP761  ALA762  ILE779  LEU786  VAL792 
 PHE793  MET794  SER795  GLU796  ALA797  LYS798  CYS799  TRP800  GLU811  SER814 

> <Gold.Protein.RotatedAtoms>
  152.4936  134.4384  159.9535 H   0  0  0  0  0  0  0  0  0  0  0  0  # atno 6907 bound_to 6896
  151.4367  133.3649  159.2784 H   0  0  0  0  0  0  0  0  0  0  0  0  # atno 6908 bound_to 6896
  150.9116  134.8557  159.7489 H   0  0  0  0  0  0  0  0  0  0  0  0  # atno 6909 bound_to 6896
  145.1029  139.3506  143.4802 H   0  0  0  0  0  0  0  0  0  0  0  0  # atno 7974 bound_to 7965
  155.0176  140.0393  157.2424 H   0  0  0  0  0  0  0  0  0  0  0  0  # atno 8008 bound_to 7997
  154.7406  140.2748  155.6354 H   0  0  0  0  0  0  0  0  0  0  0  0  # atno 8009 bound_to 7997
  156.2863  140.2666  156.2132 H   0  0  0  0  0  0  0  0  0  0  0  0  # atno 8010 bound_to 7997
  140.7265  143.3970  151.1330 H   0  0  0  0  0  0  0  0  0  0  0  0  # atno 10167 bound_to 10162
  157.5324  131.1098  150.8988 H   0  0  0  0  0  0  0  0  0  0  0  0  # atno 10718 bound_to 10713
  154.0377  135.2892  155.3359 H   0  0  0  0  0  0  0  0  0  0  0  0  # atno 10763 bound_to 10752
  154.6949  135.5212  153.8447 H   0  0  0  0  0  0  0  0  0  0  0  0  # atno 10764 bound_to 10752
  153.0613  135.6615  154.0584 H   0  0  0  0  0  0  0  0  0  0  0  0  # atno 10765 bound_to 10752
  139.9066  134.8067  156.2166 H   0  0  0  0  0  0  0  0  0  0  0  0  # atno 11005 bound_to 11000
  146.3529  140.0914  142.8612 LP  0  0  0  0  0  0  0  0  0  0  0  0  # atno 17320 bound_to 7965
  145.0934  140.9299  143.4755 LP  0  0  0  0  0  0  0  0  0  0  0  0  # atno 17321 bound_to 7965
  139.7584  143.8672  152.3094 LP  0  0  0  0  0  0  0  0  0  0  0  0  # atno 17342 bound_to 10162
  139.8550  144.7146  150.9168 LP  0  0  0  0  0  0  0  0  0  0  0  0  # atno 17343 bound_to 10162
  156.9565  130.5439  149.5284 LP  0  0  0  0  0  0  0  0  0  0  0  0  # atno 17370 bound_to 10713
  156.0433  130.5513  150.8822 LP  0  0  0  0  0  0  0  0  0  0  0  0  # atno 17371 bound_to 10713
  141.0432  133.6927  156.1635 LP  0  0  0  0  0  0  0  0  0  0  0  0  # atno 17394 bound_to 11000
  140.6924  134.4651  157.5588 LP  0  0  0  0  0  0  0  0  0  0  0  0  # atno 17395 bound_to 11000

$$$$
