AV-unprocessed.smi:260|AV-procd|sdf|1978|dock7
  -GOLD-   2262021153D 1   1.00000     0.00000
 Structure written by MMmdl.
 53 56  0  0  0  0  0  0  0  0  1 V2000
  146.4891  132.0000  156.0460 C   0  0  0  0  0  0  0  0  0  0  0  0
  147.7339  132.3218  155.3658 N   0  0  0  0  0  0  0  0  0  0  0  0
  148.2982  133.5399  155.3504 C   0  0  0  0  0  0  0  0  0  0  0  0
  147.7828  134.5045  155.9172 O   0  0  0  0  0  0  0  0  0  0  0  0
  149.6338  133.7286  154.5841 C   0  0  2  0  0  0  0  0  0  0  0  0
  149.4116  133.3745  153.1008 C   0  0  0  0  0  0  0  0  0  0  0  0
  150.8285  132.9590  155.1924 C   0  0  0  0  0  0  0  0  0  0  0  0
  151.3362  133.8546  156.3299 C   0  0  0  0  0  0  0  0  0  0  0  0
  150.8762  135.1967  156.0023 N   0  0  0  0  0  0  0  0  0  0  0  0
  151.5676  136.2951  156.4031 C   0  0  0  0  0  0  0  0  0  0  0  0
  152.8544  136.1430  156.8147 N   0  0  0  0  0  0  0  0  0  0  0  0
  153.5674  137.1968  157.2212 C   0  0  0  0  0  0  0  0  0  0  0  0
  153.1981  138.4764  157.2913 N   0  0  0  0  0  0  0  0  0  0  0  0
  151.9134  138.6425  156.8667 C   0  0  0  0  0  0  0  0  0  0  0  0
  151.0346  137.6183  156.4085 C   0  0  0  0  0  0  0  0  0  0  0  0
  149.8121  138.1795  156.0524 N   0  0  0  0  0  0  0  0  0  0  0  0
  149.9562  139.4531  156.2962 C   0  0  0  0  0  0  0  0  0  0  0  0
  151.1864  139.8175  156.7913 N   0  0  0  0  0  0  0  0  0  0  0  0
  151.6109  141.1596  157.1505 C   0  0  0  0  0  0  0  0  0  0  0  0
  151.9953  141.2734  158.6387 C   0  0  1  0  0  0  0  0  0  0  0  0
  153.1779  140.5330  158.8728 O   0  0  0  0  0  0  0  0  0  0  0  0
  152.2292  142.7323  159.0715 C   0  0  2  0  0  0  0  0  0  0  0  0
  152.3052  142.9418  160.5851 C   0  0  0  0  0  0  0  0  0  0  0  0
  151.8939  144.3943  160.7683 C   0  0  0  0  0  0  0  0  0  0  0  0
  151.2411  144.7672  159.4346 C   0  0  0  0  0  0  0  0  0  0  0  0
  151.1157  143.5419  158.7264 O   0  0  0  0  0  0  0  0  0  0  0  0
  150.1336  135.1770  154.7475 C   0  0  0  0  0  0  0  0  0  0  0  0
  146.2230  130.9594  155.8608 H   0  0  0  0  0  0  0  0  0  0  0  0
  145.6740  132.6302  155.6875 H   0  0  0  0  0  0  0  0  0  0  0  0
  146.5908  132.1405  157.1231 H   0  0  0  0  0  0  0  0  0  0  0  0
  148.2028  131.5708  154.8803 H   0  0  0  0  0  0  0  0  0  0  0  0
  150.3181  133.5299  152.5150 H   0  0  0  0  0  0  0  0  0  0  0  0
  148.6293  133.9884  152.6526 H   0  0  0  0  0  0  0  0  0  0  0  0
  149.1227  132.3295  152.9830 H   0  0  0  0  0  0  0  0  0  0  0  0
  150.6027  131.9443  155.5218 H   0  0  0  0  0  0  0  0  0  0  0  0
  151.6178  132.8673  154.4447 H   0  0  0  0  0  0  0  0  0  0  0  0
  150.9009  133.5543  157.2835 H   0  0  0  0  0  0  0  0  0  0  0  0
  152.4222  133.7980  156.4138 H   0  0  0  0  0  0  0  0  0  0  0  0
  154.5781  136.9835  157.5365 H   0  0  0  0  0  0  0  0  0  0  0  0
  149.1634  140.1665  156.1228 H   0  0  0  0  0  0  0  0  0  0  0  0
  152.4483  141.4487  156.5142 H   0  0  0  0  0  0  0  0  0  0  0  0
  150.7944  141.8442  156.9177 H   0  0  0  0  0  0  0  0  0  0  0  0
  151.2016  140.8401  159.2489 H   0  0  0  0  0  0  0  0  0  0  0  0
  152.9711  139.8116  159.4471 H   0  0  0  0  0  0  0  0  0  0  0  0
  153.1233  143.1370  158.5926 H   0  0  0  0  0  0  0  0  0  0  0  0
  151.5881  142.2945  161.0916 H   0  0  0  0  0  0  0  0  0  0  0  0
  153.2945  142.7278  160.9901 H   0  0  0  0  0  0  0  0  0  0  0  0
  151.2004  144.5009  161.6030 H   0  0  0  0  0  0  0  0  0  0  0  0
  152.7566  145.0319  160.9646 H   0  0  0  0  0  0  0  0  0  0  0  0
  150.2703  145.2464  159.5624 H   0  0  0  0  0  0  0  0  0  0  0  0
  151.8834  145.4447  158.8700 H   0  0  0  0  0  0  0  0  0  0  0  0
  150.7999  135.4500  153.9277 H   0  0  0  0  0  0  0  0  0  0  0  0
  149.3194  135.9029  154.7660 H   0  0  0  0  0  0  0  0  0  0  0  0
  1  2  1  0  0  0  0
  1 28  1  0  0  0  0
  1 29  1  0  0  0  0
  1 30  1  0  0  0  0
  2  3  1  0  0  0  0
  2 31  1  0  0  0  0
  3  4  2  0  0  0  0
  3  5  1  0  0  0  0
  5 27  1  0  0  0  0
  5  6  1  0  0  0  0
  5  7  1  0  0  0  0
  6 32  1  0  0  0  0
  6 33  1  0  0  0  0
  6 34  1  0  0  0  0
  7  8  1  0  0  0  0
  7 35  1  0  0  0  0
  7 36  1  0  0  0  0
  8  9  1  0  0  0  0
  8 37  1  0  0  0  0
  8 38  1  0  0  0  0
  9 10  1  0  0  0  0
  9 27  1  0  0  0  0
 10 15  1  0  0  0  0
 10 11  2  0  0  0  0
 11 12  1  0  0  0  0
 12 13  2  0  0  0  0
 12 39  1  0  0  0  0
 13 14  1  0  0  0  0
 14 18  1  0  0  0  0
 14 15  2  0  0  0  0
 15 16  1  0  0  0  0
 16 17  2  0  0  0  0
 17 18  1  0  0  0  0
 17 40  1  0  0  0  0
 18 19  1  0  0  0  0
 19 20  1  0  0  0  0
 19 41  1  0  0  0  0
 19 42  1  0  0  0  0
 20 21  1  0  0  0  0
 20 22  1  0  0  0  0
 20 43  1  0  0  0  0
 21 44  1  0  0  0  0
 22 26  1  0  0  0  0
 22 23  1  0  0  0  0
 22 45  1  0  0  0  0
 23 24  1  0  0  0  0
 23 46  1  0  0  0  0
 23 47  1  0  0  0  0
 24 25  1  0  0  0  0
 24 48  1  0  0  0  0
 24 49  1  0  0  0  0
 25 26  1  0  0  0  0
 25 50  1  0  0  0  0
 25 51  1  0  0  0  0
 27 52  1  0  0  0  0
 27 53  1  0  0  0  0
M  END
> <s_m_source_file>
AV-unprocessed.smi

> <i_m_source_file_index>
260

> <i_lp_mmshare_version>
43012

> <i_f3d_flags>
0

> <s_epik_input>
W0NIM11bTkhdQyg9TylbQ0BAXTEoW0NIM10pW0NIMl1bQ0gyXU4oW0NIMl0xKWMobltjSF1uMiljKGMyMyluW2NIXW4zW0NIMl1bQ0BIXShbT0hdKVtDQEBIXTRbQ0gyXVtDSDJdW0NIMl1PNA==

> <s_epik_cmdline>
J2VwaWtfcHl0aG9uJywgJy1waCcsICc3LjAnLCAnLXRuJywgJzgnLCAnLW1hJywgJzIwMCcsICctbWV0YWxfYmluZGluZycsICctaW1hZScsICc8aW5maWxlLm1hZT4nLCAnLW9tYWUnLCAnPG91dGZpbGUubWFlPic=

> <r_lp_tautomer_probability>
1

> <r_epik_Ionization_Penalty>
0.00115068

> <r_epik_Ionization_Penalty_Charging>
0

> <r_epik_Ionization_Penalty_Neutral>
0.00115068

> <r_epik_State_Penalty>
0.000668876

> <r_epik_Charging_Adjusted_Penalty>
0.000668876

> <i_epik_Tot_Q>
0

> <i_epik_Tot_abs_Q>
0

> <r_epik_Metal_State_Penalty>
-0

> <b_epik_Metal_Only>
0

> <s_lp_Force_Field>
OPLS_2005

> <r_lp_Energy>
50.1788

> <b_lp_Chiralities_Consistent>
1

> <s_lp_Variant>
AV-unprocessed.smi:260-4

> <Gold.Version>
5.8.1

> <Gold.Id.Protein>
6NUR|6NUR_protein|mol2

> <Gold.PLP.Fitness>
43.3663

> <Gold.PLP.PLP>
-38.3653

> <Gold.PLP.part.hbond>
-3.0000

> <Gold.PLP.part.metal>
0.0000

> <Gold.PLP.part.buried>
-5.1757

> <Gold.PLP.part.nonpolar>
-29.0364

> <Gold.PLP.part.repulsive>
0.0817

> <Gold.PLP.ligand.clash>
0.0000

> <Gold.PLP.ligand.torsion>
0.6592

> <Gold.PLP.Chemscore.Hbond>
1.9913

> <Gold.PLP.Chemscore.CHOScore>
0.0000

> <Gold.PLP.Chemscore.Metal>
0.0000

> <Gold.Chemscore.Hbonds>
donor molecule, donor type, donor heavy atom, donor atom, acceptor molecule, acceptor atom, score
      P1  H  7997  8009       L1    13  0.93
      P1  H 10752 10764       L1    11  0.75

> <Gold.PLP.Chemscore.Internal.Correction>
0.3457

> <Gold.Rescore>
     Score         DG    S(hbond)    S(metal)    S(lipo)     H(rot)  DE(clash)    DE(int)     intcor
     13.11     -13.87       1.34        0.00      88.65       2.53       0.07       0.69       ----

> <Gold.Chemscore.Fitness>
13.1107

> <Gold.Chemscore.DG>
-13.8688

> <Gold.Chemscore.ZeroCoef>
-5.4800

> <Gold.Chemscore.Hbond>
1.3423

> <Gold.Chemscore.Metal>
0.0000

> <Gold.Chemscore.Lipo>
88.6490

> <Gold.Chemscore.Internal_Hbond>
0.0000

> <Gold.Chemscore.DEClash>
0.0650

> <Gold.Chemscore.DEInternal>
0.6931

> <Gold.Chemscore.Rot>
2.5259

> <Gold.Chemscore.Internal.Correction>
   9.000000E+99

> <Gold.Chemscore.Hbonds>
donor molecule, donor type, donor heavy atom, donor atom, acceptor molecule, acceptor atom, score
      P1  H  7997  8009       L1    13  0.79
      P1  H 10752 10764       L1    11  0.08

> <Gold.Chemscore.Hbond.Weighted>
-4.4832

> <Gold.Chemscore.Metal.Weighted>
-0.0000

> <Gold.Chemscore.Lipo.Weighted>
-10.3719

> <Gold.Chemscore.Internal_Hbond.Weighted>
0.0000

> <Gold.Chemscore.DEClash.Weighted>
0.0650

> <Gold.Chemscore.DEInternal.Weighted>
0.6931

> <Gold.Chemscore.Rot.Weighted>
6.4663

> <Gold.Chemscore.Internal.Correction.Weighted>
   9.000000E+99

> <Gold.Protein.RotatedTorsions>
[ 6907 6896 6895 6894 ] final -119.17 input  -60.11 | X-H torsion
[ 7974 7965 7964 7962 ] final  107.31 input  175.53 | X-H torsion
[ 8008 7997 7996 7995 ] final  168.49 input   59.86 | X-H torsion
[ 10167 10162 10161 10158 ] final  -51.38 input  -65.29 | X-H torsion
[ 10718 10713 10712 10709 ] final  -33.63 input   66.30 | X-H torsion
[ 10763 10752 10751 10750 ] final   -9.88 input  -60.55 | X-H torsion
[ 11005 11000 10999 10996 ] final    8.56 input  -57.11 | X-H torsion

> <Gold.Protein.ActiveResidues>
 VAL166  LYS551  ARG553  GLY616  TRP617  ASP618  TYR619  PRO620  LYS621  CYS622 
 ASP623  PHE694  ASN695  SER759  ASP760  ASP761  ALA762  ILE779  LEU786  VAL792 
 PHE793  MET794  SER795  GLU796  ALA797  LYS798  CYS799  TRP800  GLU811  SER814 

> <Gold.Protein.RotatedAtoms>
  150.8282  133.8136  159.3109 H   0  0  0  0  0  0  0  0  0  0  0  0  # atno 6907 bound_to 6896
  151.5874  135.1053  160.0040 H   0  0  0  0  0  0  0  0  0  0  0  0  # atno 6908 bound_to 6896
  152.4365  133.7328  159.6653 H   0  0  0  0  0  0  0  0  0  0  0  0  # atno 6909 bound_to 6896
  145.2953  139.2587  143.3843 H   0  0  0  0  0  0  0  0  0  0  0  0  # atno 7974 bound_to 7965
  156.1542  140.1589  156.8720 H   0  0  0  0  0  0  0  0  0  0  0  0  # atno 8008 bound_to 7997
  154.5099  140.0803  156.8005 H   0  0  0  0  0  0  0  0  0  0  0  0  # atno 8009 bound_to 7997
  155.3837  140.3406  155.4250 H   0  0  0  0  0  0  0  0  0  0  0  0  # atno 8010 bound_to 7997
  140.6591  143.2622  151.4495 H   0  0  0  0  0  0  0  0  0  0  0  0  # atno 10167 bound_to 10162
  156.3603  130.4322  149.7629 H   0  0  0  0  0  0  0  0  0  0  0  0  # atno 10718 bound_to 10713
  153.4611  135.7016  153.6049 H   0  0  0  0  0  0  0  0  0  0  0  0  # atno 10763 bound_to 10752
  153.4343  135.3795  155.2190 H   0  0  0  0  0  0  0  0  0  0  0  0  # atno 10764 bound_to 10752
  154.8727  135.3958  154.4037 H   0  0  0  0  0  0  0  0  0  0  0  0  # atno 10765 bound_to 10752
  140.5357  134.0423  155.7887 H   0  0  0  0  0  0  0  0  0  0  0  0  # atno 11005 bound_to 11000
  146.3171  140.3454  142.8651 LP  0  0  0  0  0  0  0  0  0  0  0  0  # atno 17320 bound_to 7965
  144.9139  140.7789  143.5790 LP  0  0  0  0  0  0  0  0  0  0  0  0  # atno 17321 bound_to 7965
  139.5820  144.1688  152.1981 LP  0  0  0  0  0  0  0  0  0  0  0  0  # atno 17342 bound_to 10162
  140.1016  144.5535  150.6985 LP  0  0  0  0  0  0  0  0  0  0  0  0  # atno 17343 bound_to 10162
  156.4796  130.8035  151.3049 LP  0  0  0  0  0  0  0  0  0  0  0  0  # atno 17370 bound_to 10713
  157.7472  131.0010  150.2946 LP  0  0  0  0  0  0  0  0  0  0  0  0  # atno 17371 bound_to 10713
  141.1256  133.9388  157.2641 LP  0  0  0  0  0  0  0  0  0  0  0  0  # atno 17394 bound_to 11000
  139.9531  135.0171  156.9050 LP  0  0  0  0  0  0  0  0  0  0  0  0  # atno 17395 bound_to 11000

$$$$
