AV-unprocessed.smi:2932|AV-procd|sdf|11250|dock3
  -GOLD-   2272016143D 1   1.00000     0.00000
 Structure written by MMmdl.
 30 30  0  0  0  0  0  0  0  0  2 V2000
  154.1799  141.0955  160.8483 C   0  0  0  0  0  0  0  0  0  0  0  0
  153.1847  142.0007  160.1826 C   0  0  0  0  0  0  0  0  0  0  0  0
  152.7930  141.7532  158.9421 N   0  0  0  0  0  0  0  0  0  0  0  0
  151.9114  142.7395  158.6362 N   0  0  0  0  0  0  0  0  0  0  0  0
  151.2904  142.7438  157.3195 C   0  0  0  0  0  0  0  0  0  0  0  0
  150.8471  141.3394  156.9038 C   0  0  0  0  0  0  0  0  0  0  0  0
  149.6620  141.1115  156.6615 O   0  0  0  0  0  0  0  0  0  0  0  0
  151.8113  140.4077  156.8399 N   0  0  0  0  0  0  0  0  0  0  0  0
  151.6222  139.0093  156.4614 C   0  0  2  0  0  0  0  0  0  0  0  0
  152.1681  138.1272  157.5971 C   0  0  0  0  0  0  0  0  0  0  0  0
  152.4119  138.6943  155.1814 C   0  0  0  0  0  0  0  0  0  0  0  0
  152.3378  137.5252  154.7443 O   0  0  0  0  0  0  0  0  0  0  0  0
  153.0794  139.6192  154.6650 O   0  5  0  0  0  0  0  0  0  0  0  0
  151.7295  143.6221  159.6909 C   0  0  0  0  0  0  0  0  0  0  0  0
  150.8118  144.8009  159.6345 C   0  0  0  0  0  0  0  0  0  0  0  0
  152.5420  143.1620  160.6844 C   0  0  0  0  0  0  0  0  0  0  0  0
  152.7484  143.8584  162.2506 Cl  0  0  0  0  0  0  0  0  0  0  0  0
  150.5624  138.7949  156.3098 H   0  0  0  0  0  0  0  0  0  0  0  0
  154.2772  141.3239  161.9096 H   0  0  0  0  0  0  0  0  0  0  0  0
  155.1659  141.1988  160.3952 H   0  0  0  0  0  0  0  0  0  0  0  0
  153.8805  140.0508  160.7625 H   0  0  0  0  0  0  0  0  0  0  0  0
  150.4223  143.4049  157.3254 H   0  0  0  0  0  0  0  0  0  0  0  0
  151.9978  143.1580  156.5998 H   0  0  0  0  0  0  0  0  0  0  0  0
  152.7585  140.6934  157.0392 H   0  0  0  0  0  0  0  0  0  0  0  0
  152.0631  137.0677  157.3602 H   0  0  0  0  0  0  0  0  0  0  0  0
  151.6224  138.3080  158.5236 H   0  0  0  0  0  0  0  0  0  0  0  0
  153.2235  138.3217  157.7947 H   0  0  0  0  0  0  0  0  0  0  0  0
  150.6626  145.2298  160.6252 H   0  0  0  0  0  0  0  0  0  0  0  0
  149.8342  144.5188  159.2437 H   0  0  0  0  0  0  0  0  0  0  0  0
  151.2229  145.5800  158.9925 H   0  0  0  0  0  0  0  0  0  0  0  0
  1  2  1  0  0  0  0
  1 19  1  0  0  0  0
  1 20  1  0  0  0  0
  1 21  1  0  0  0  0
  2 16  1  0  0  0  0
  2  3  2  0  0  0  0
  3  4  1  0  0  0  0
  4  5  1  0  0  0  0
  4 14  1  0  0  0  0
  5  6  1  0  0  0  0
  5 22  1  0  0  0  0
  5 23  1  0  0  0  0
  6  7  2  0  0  0  0
  6  8  1  0  0  0  0
  8  9  1  0  0  0  0
  8 24  1  0  0  0  0
  9 18  1  0  0  0  0
  9 10  1  0  0  0  0
  9 11  1  0  0  0  0
 10 25  1  0  0  0  0
 10 26  1  0  0  0  0
 10 27  1  0  0  0  0
 11 12  2  0  0  0  0
 11 13  1  0  0  0  0
 14 15  1  0  0  0  0
 14 16  2  0  0  0  0
 15 28  1  0  0  0  0
 15 29  1  0  0  0  0
 15 30  1  0  0  0  0
 16 17  1  0  0  0  0
M  CHG  1  13  -1
M  END
> <s_m_source_file>
AV-unprocessed.smi

> <i_m_source_file_index>
2932

> <i_lp_mmshare_version>
43012

> <i_f3d_flags>
0

> <s_epik_input>
W0NIM11jMW5uKGMoW0NIM10pYzFDbClbQ0gyXUMoPU8pW05IXVtDQEhdKFtDSDNdKUMoPU8pW09IXQ==

> <s_epik_cmdline>
J2VwaWtfcHl0aG9uJywgJy1waCcsICc3LjAnLCAnLXRuJywgJzgnLCAnLW1hJywgJzIwMCcsICctbWV0YWxfYmluZGluZycsICctaW1hZScsICc8aW5maWxlLm1hZT4nLCAnLW9tYWUnLCAnPG91dGZpbGUubWFlPic=

> <r_lp_tautomer_probability>
1

> <r_epik_Ionization_Penalty>
0.000148999

> <r_epik_Ionization_Penalty_Charging>
0.000144005

> <r_epik_Ionization_Penalty_Neutral>
4.99331e-06

> <r_epik_State_Penalty>
-0

> <r_epik_Charging_Adjusted_Penalty>
0.000144005

> <i_epik_Tot_Q>
-1

> <i_epik_Tot_abs_Q>
1

> <r_epik_Metal_State_Penalty>
-0

> <b_epik_Metal_Only>
0

> <s_lp_Force_Field>
OPLS_2005

> <r_lp_Energy>
2.34993

> <b_lp_Chiralities_Consistent>
1

> <s_lp_Variant>
AV-unprocessed.smi:2932-1

> <Gold.Version>
5.8.1

> <Gold.Id.Protein>
6NUR|6NUR_protein|mol2

> <Gold.PLP.Fitness>
48.4094

> <Gold.PLP.PLP>
-37.9964

> <Gold.PLP.part.hbond>
-3.0000

> <Gold.PLP.part.metal>
0.0000

> <Gold.PLP.part.buried>
-6.7202

> <Gold.PLP.part.nonpolar>
-28.6207

> <Gold.PLP.part.repulsive>
0.3192

> <Gold.PLP.ligand.clash>
0.0000

> <Gold.PLP.ligand.torsion>
0.2343

> <Gold.PLP.Chemscore.Hbond>
3.6224

> <Gold.PLP.Chemscore.CHOScore>
0.0000

> <Gold.PLP.Chemscore.Metal>
0.0000

> <Gold.Chemscore.Hbonds>
donor molecule, donor type, donor heavy atom, donor atom, acceptor molecule, acceptor atom, score
      P1  H  7989  7998       L1    13  0.21
      P1  H  7997  8009       L1    13  2.00
      P1  H 10752 10765       L1    12  1.38

> <Gold.PLP.Chemscore.Internal.Correction>
0.0144

> <Gold.Rescore>
     Score         DG    S(hbond)    S(metal)    S(lipo)     H(rot)  DE(clash)    DE(int)     intcor
     15.67     -16.09       1.84        0.00      85.38       2.15       0.27       0.14       ----

> <Gold.Chemscore.Fitness>
15.6740

> <Gold.Chemscore.DG>
-16.0867

> <Gold.Chemscore.ZeroCoef>
-5.4800

> <Gold.Chemscore.Hbond>
1.8358

> <Gold.Chemscore.Metal>
0.0000

> <Gold.Chemscore.Lipo>
85.3836

> <Gold.Chemscore.Internal_Hbond>
0.0000

> <Gold.Chemscore.DEClash>
0.2704

> <Gold.Chemscore.DEInternal>
0.1423

> <Gold.Chemscore.Rot>
2.1542

> <Gold.Chemscore.Internal.Correction>
   9.000000E+99

> <Gold.Chemscore.Hbonds>
donor molecule, donor type, donor heavy atom, donor atom, acceptor molecule, acceptor atom, score
      P1  H  7989  7998       L1    13  0.13
      P1  H  7997  8009       L1    13  0.47
      P1  H 10752 10765       L1    12  0.66

> <Gold.Chemscore.Hbond.Weighted>
-6.1314

> <Gold.Chemscore.Metal.Weighted>
-0.0000

> <Gold.Chemscore.Lipo.Weighted>
-9.9899

> <Gold.Chemscore.Internal_Hbond.Weighted>
0.0000

> <Gold.Chemscore.DEClash.Weighted>
0.2704

> <Gold.Chemscore.DEInternal.Weighted>
0.1423

> <Gold.Chemscore.Rot.Weighted>
5.5146

> <Gold.Chemscore.Internal.Correction.Weighted>
   9.000000E+99

> <Gold.Protein.RotatedTorsions>
[ 6907 6896 6895 6894 ] final  139.02 input  -60.11 | X-H torsion
[ 7974 7965 7964 7962 ] final  100.88 input  175.53 | X-H torsion
[ 8008 7997 7996 7995 ] final -148.02 input   59.86 | X-H torsion
[ 10167 10162 10161 10158 ] final  143.30 input  -65.29 | X-H torsion
[ 10718 10713 10712 10709 ] final -153.64 input   66.30 | X-H torsion
[ 10763 10752 10751 10750 ] final  168.48 input  -60.55 | X-H torsion
[ 11005 11000 10999 10996 ] final  -74.69 input  -57.11 | X-H torsion

> <Gold.Protein.ActiveResidues>
 VAL166  LYS551  ARG553  GLY616  TRP617  ASP618  TYR619  PRO620  LYS621  CYS622 
 ASP623  PHE694  ASN695  SER759  ASP760  ASP761  ALA762  ILE779  LEU786  VAL792 
 PHE793  MET794  SER795  GLU796  ALA797  LYS798  CYS799  TRP800  GLU811  SER814 

> <Gold.Protein.RotatedAtoms>
  152.2598  133.5287  159.5374 H   0  0  0  0  0  0  0  0  0  0  0  0  # atno 6907 bound_to 6896
  150.7121  134.0846  159.3919 H   0  0  0  0  0  0  0  0  0  0  0  0  # atno 6908 bound_to 6896
  151.8764  135.0470  160.0535 H   0  0  0  0  0  0  0  0  0  0  0  0  # atno 6909 bound_to 6896
  145.3797  139.2382  143.3410 H   0  0  0  0  0  0  0  0  0  0  0  0  # atno 7974 bound_to 7965
  155.5848  140.0647  157.2774 H   0  0  0  0  0  0  0  0  0  0  0  0  # atno 8008 bound_to 7997
  154.4322  140.1845  156.1060 H   0  0  0  0  0  0  0  0  0  0  0  0  # atno 8009 bound_to 7997
  156.0277  140.3310  155.7110 H   0  0  0  0  0  0  0  0  0  0  0  0  # atno 8010 bound_to 7997
  139.4973  144.6050  151.6399 H   0  0  0  0  0  0  0  0  0  0  0  0  # atno 10167 bound_to 10162
  156.4886  130.8336  151.2560 H   0  0  0  0  0  0  0  0  0  0  0  0  # atno 10718 bound_to 10713
  154.3692  135.2753  155.2276 H   0  0  0  0  0  0  0  0  0  0  0  0  # atno 10763 bound_to 10752
  154.4431  135.5949  153.6145 H   0  0  0  0  0  0  0  0  0  0  0  0  # atno 10764 bound_to 10752
  152.9839  135.6023  154.3921 H   0  0  0  0  0  0  0  0  0  0  0  0  # atno 10765 bound_to 10752
  141.1638  133.6920  156.7402 H   0  0  0  0  0  0  0  0  0  0  0  0  # atno 11005 bound_to 11000
  146.2847  140.4463  142.8762 LP  0  0  0  0  0  0  0  0  0  0  0  0  # atno 17320 bound_to 7965
  144.8516  140.7010  143.6164 LP  0  0  0  0  0  0  0  0  0  0  0  0  # atno 17321 bound_to 7965
  140.5709  144.0110  150.6216 LP  0  0  0  0  0  0  0  0  0  0  0  0  # atno 17342 bound_to 10162
  140.3227  143.3127  152.0767 LP  0  0  0  0  0  0  0  0  0  0  0  0  # atno 17343 bound_to 10162
  157.7476  131.0021  150.2988 LP  0  0  0  0  0  0  0  0  0  0  0  0  # atno 17370 bound_to 10713
  156.3449  130.3821  149.7377 LP  0  0  0  0  0  0  0  0  0  0  0  0  # atno 17371 bound_to 10713
  140.2680  134.8415  157.3820 LP  0  0  0  0  0  0  0  0  0  0  0  0  # atno 17394 bound_to 11000
  140.1548  134.4803  155.7935 LP  0  0  0  0  0  0  0  0  0  0  0  0  # atno 17395 bound_to 11000

$$$$
