AV-unprocessed.smi:52|AV-procd|sdf|510|dock5
  -GOLD-   2262016383D 1   1.00000     0.00000
 Structure written by MMmdl.
 27 28  0  0  0  0  0  0  0  0  3 V2000
  150.9980  136.0002  154.7054 O   0  0  0  0  0  0  0  0  0  0  0  0
  150.1203  136.8017  155.0945 C   0  0  0  0  0  0  0  0  0  0  0  0
  148.9626  136.4269  155.3832 O   0  5  0  0  0  0  0  0  0  0  0  0
  150.4620  138.2425  155.2119 C   0  0  0  0  0  0  0  0  0  0  0  0
  151.5769  138.8668  154.7121 C   0  0  0  0  0  0  0  0  0  0  0  0
  151.5222  140.1996  155.0186 O   0  0  0  0  0  0  0  0  0  0  0  0
  150.3567  140.3359  155.7074 C   0  0  0  0  0  0  0  0  0  0  0  0
  149.9499  141.6911  156.1834 C   0  0  0  0  0  0  0  0  0  0  0  0
  148.7279  141.9965  155.4024 N   0  3  1  0  0  0  0  0  0  0  0  0
  148.8324  141.7852  153.9351 C   0  0  0  0  0  0  0  0  0  0  0  0
  147.5663  141.0348  153.5023 C   0  0  0  0  0  0  0  0  0  0  0  0
  146.5948  141.2480  154.6591 C   0  0  1  0  0  0  0  0  0  0  0  0
  145.6381  140.2139  154.7488 O   0  0  0  0  0  0  0  0  0  0  0  0
  147.5230  141.2827  155.8704 C   0  0  0  0  0  0  0  0  0  0  0  0
  149.6841  139.1975  155.8539 N   0  0  0  0  0  0  0  0  0  0  0  0
  146.0893  142.2087  154.5493 H   0  0  0  0  0  0  0  0  0  0  0  0
  152.4364  138.5274  154.1527 H   0  0  0  0  0  0  0  0  0  0  0  0
  149.7616  141.6920  157.2578 H   0  0  0  0  0  0  0  0  0  0  0  0
  150.7449  142.4043  155.9628 H   0  0  0  0  0  0  0  0  0  0  0  0
  148.8941  142.7592  153.4487 H   0  0  0  0  0  0  0  0  0  0  0  0
  149.7243  141.2216  153.6568 H   0  0  0  0  0  0  0  0  0  0  0  0
  147.1719  141.3837  152.5475 H   0  0  0  0  0  0  0  0  0  0  0  0
  147.7979  139.9734  153.3984 H   0  0  0  0  0  0  0  0  0  0  0  0
  145.0559  140.2737  154.0064 H   0  0  0  0  0  0  0  0  0  0  0  0
  147.7964  140.2663  156.1611 H   0  0  0  0  0  0  0  0  0  0  0  0
  147.0723  141.7717  156.7346 H   0  0  0  0  0  0  0  0  0  0  0  0
  148.5366  142.9800  155.5312 H   0  0  0  0  0  0  0  0  0  0  0  0
  1  2  2  0  0  0  0
  2  3  1  0  0  0  0
  2  4  1  0  0  0  0
  4 15  1  0  0  0  0
  4  5  2  0  0  0  0
  5  6  1  0  0  0  0
  5 17  1  0  0  0  0
  6  7  1  0  0  0  0
  7  8  1  0  0  0  0
  7 15  2  0  0  0  0
  8  9  1  0  0  0  0
  8 18  1  0  0  0  0
  8 19  1  0  0  0  0
  9 14  1  0  0  0  0
  9 10  1  0  0  0  0
  9 27  1  0  0  0  0
 10 11  1  0  0  0  0
 10 20  1  0  0  0  0
 10 21  1  0  0  0  0
 11 12  1  0  0  0  0
 11 22  1  0  0  0  0
 11 23  1  0  0  0  0
 12 16  1  0  0  0  0
 12 13  1  0  0  0  0
 12 14  1  0  0  0  0
 13 24  1  0  0  0  0
 14 25  1  0  0  0  0
 14 26  1  0  0  0  0
M  CHG  1   3  -1
M  CHG  1   9   1
M  END
> <s_m_source_file>
AV-unprocessed.smi

> <i_m_source_file_index>
52

> <i_lp_mmshare_version>
43012

> <i_f3d_flags>
0

> <s_epik_input>
Tz1DKFtPSF0pYzFbY0hdb2MobjEpW0NIMl1OMltDSDJdW0NIMl1bQ0BIXShbT0hdKVtDSDJdMg==

> <s_epik_cmdline>
J2VwaWtfcHl0aG9uJywgJy1waCcsICc3LjAnLCAnLXRuJywgJzgnLCAnLW1hJywgJzIwMCcsICctbWV0YWxfYmluZGluZycsICctaW1hZScsICc8aW5maWxlLm1hZT4nLCAnLW9tYWUnLCAnPG91dGZpbGUubWFlPic=

> <r_epik_Ionization_Penalty>
0.0376014

> <r_epik_Ionization_Penalty_Charging>
0.0376013

> <r_epik_Ionization_Penalty_Neutral>
1.78687e-08

> <r_epik_State_Penalty>
0.0314164

> <r_epik_Charging_Adjusted_Penalty>
0.0690177

> <i_epik_Tot_Q>
0

> <i_epik_Tot_abs_Q>
2

> <r_epik_Metal_State_Penalty>
0.0314164

> <b_epik_Metal_Only>
0

> <s_lp_Force_Field>
OPLS_2005

> <r_lp_Energy>
19.8896

> <b_lp_Chiralities_Consistent>
1

> <s_lp_Variant>
AV-unprocessed.smi:52-4

> <Gold.Version>
5.8.1

> <Gold.Id.Protein>
6NUR|6NUR_protein|mol2

> <Gold.PLP.Fitness>
39.4322

> <Gold.PLP.PLP>
-21.8070

> <Gold.PLP.part.hbond>
-4.0000

> <Gold.PLP.part.metal>
0.0000

> <Gold.PLP.part.buried>
-0.4515

> <Gold.PLP.part.nonpolar>
-17.7930

> <Gold.PLP.part.repulsive>
0.4743

> <Gold.PLP.ligand.clash>
0.0000

> <Gold.PLP.ligand.torsion>
0.1939

> <Gold.PLP.Chemscore.Hbond>
6.0000

> <Gold.PLP.Chemscore.CHOScore>
0.0000

> <Gold.PLP.Chemscore.Metal>
0.0000

> <Gold.Chemscore.Hbonds>
donor molecule, donor type, donor heavy atom, donor atom, acceptor molecule, acceptor atom, score
      L1  H     9    27       P1  8028  2.00
      L1  H    13    24       P1 10175  0.93
      P1  H  7989  7998       L1     6  1.00
      P1  H 10752 10765       L1     1  2.00

> <Gold.PLP.Chemscore.Internal.Correction>
0.0129

> <Gold.Rescore>
     Score         DG    S(hbond)    S(metal)    S(lipo)     H(rot)  DE(clash)    DE(int)     intcor
     16.56     -18.34       3.77        0.00      45.91       1.99       1.47       0.31       ----

> <Gold.Chemscore.Fitness>
16.5591

> <Gold.Chemscore.DG>
-18.3360

> <Gold.Chemscore.ZeroCoef>
-5.4800

> <Gold.Chemscore.Hbond>
3.7674

> <Gold.Chemscore.Metal>
0.0000

> <Gold.Chemscore.Lipo>
45.9135

> <Gold.Chemscore.Internal_Hbond>
0.0000

> <Gold.Chemscore.DEClash>
1.4660

> <Gold.Chemscore.DEInternal>
0.3109

> <Gold.Chemscore.Rot>
1.9919

> <Gold.Chemscore.Internal.Correction>
   9.000000E+99

> <Gold.Chemscore.Hbonds>
donor molecule, donor type, donor heavy atom, donor atom, acceptor molecule, acceptor atom, score
      L1  H     9    27       P1  8028  0.99
      L1  H    13    24       P1 10175  0.89
      P1  H  7989  7998       L1     6  0.28
      P1  H 10752 10765       L1     1  0.98

> <Gold.Chemscore.Hbond.Weighted>
-12.5833

> <Gold.Chemscore.Metal.Weighted>
-0.0000

> <Gold.Chemscore.Lipo.Weighted>
-5.3719

> <Gold.Chemscore.Internal_Hbond.Weighted>
0.0000

> <Gold.Chemscore.DEClash.Weighted>
1.4660

> <Gold.Chemscore.DEInternal.Weighted>
0.3109

> <Gold.Chemscore.Rot.Weighted>
5.0991

> <Gold.Chemscore.Internal.Correction.Weighted>
   9.000000E+99

> <Gold.Protein.RotatedTorsions>
[ 6907 6896 6895 6894 ] final   64.41 input  -60.11 | X-H torsion
[ 7974 7965 7964 7962 ] final  138.57 input  175.53 | X-H torsion
[ 8008 7997 7996 7995 ] final -107.72 input   59.86 | X-H torsion
[ 10167 10162 10161 10158 ] final  131.15 input  -65.29 | X-H torsion
[ 10718 10713 10712 10709 ] final   10.59 input   66.30 | X-H torsion
[ 10763 10752 10751 10750 ] final  169.55 input  -60.55 | X-H torsion
[ 11005 11000 10999 10996 ] final -106.89 input  -57.11 | X-H torsion

> <Gold.Protein.ActiveResidues>
 VAL166  LYS551  ARG553  GLY616  TRP617  ASP618  TYR619  PRO620  LYS621  CYS622 
 ASP623  PHE694  ASN695  SER759  ASP760  ASP761  ALA762  ILE779  LEU786  VAL792 
 PHE793  MET794  SER795  GLU796  ALA797  LYS798  CYS799  TRP800  GLU811  SER814 

> <Gold.Protein.RotatedAtoms>
  152.4329  134.5742  159.9929 H   0  0  0  0  0  0  0  0  0  0  0  0  # atno 6907 bound_to 6896
  151.5860  133.3366  159.3026 H   0  0  0  0  0  0  0  0  0  0  0  0  # atno 6908 bound_to 6896
  150.8224  134.7474  159.6848 H   0  0  0  0  0  0  0  0  0  0  0  0  # atno 6909 bound_to 6896
  144.9360  139.4989  143.5595 H   0  0  0  0  0  0  0  0  0  0  0  0  # atno 7974 bound_to 7965
  154.9336  140.0404  157.2060 H   0  0  0  0  0  0  0  0  0  0  0  0  # atno 8008 bound_to 7997
  154.8137  140.2872  155.5813 H   0  0  0  0  0  0  0  0  0  0  0  0  # atno 8009 bound_to 7997
  156.2974  140.2532  156.3030 H   0  0  0  0  0  0  0  0  0  0  0  0  # atno 8010 bound_to 7997
  139.5397  144.6718  151.4666 H   0  0  0  0  0  0  0  0  0  0  0  0  # atno 10167 bound_to 10162
  156.9832  130.6014  149.5678 H   0  0  0  0  0  0  0  0  0  0  0  0  # atno 10718 bound_to 10713
  154.3847  135.2753  155.2190 H   0  0  0  0  0  0  0  0  0  0  0  0  # atno 10763 bound_to 10752
  154.4282  135.5984  153.6055 H   0  0  0  0  0  0  0  0  0  0  0  0  # atno 10764 bound_to 10752
  152.9833  135.5989  154.4094 H   0  0  0  0  0  0  0  0  0  0  0  0  # atno 10765 bound_to 10752
  141.0982  133.8933  157.1910 H   0  0  0  0  0  0  0  0  0  0  0  0  # atno 11005 bound_to 11000
  146.3266  139.8344  142.8902 LP  0  0  0  0  0  0  0  0  0  0  0  0  # atno 17320 bound_to 7965
  145.3067  141.0209  143.3578 LP  0  0  0  0  0  0  0  0  0  0  0  0  # atno 17321 bound_to 7965
  140.6621  143.8476  150.6899 LP  0  0  0  0  0  0  0  0  0  0  0  0  # atno 17342 bound_to 10162
  140.1874  143.4064  152.1888 LP  0  0  0  0  0  0  0  0  0  0  0  0  # atno 17343 bound_to 10162
  156.0236  130.5330  150.8345 LP  0  0  0  0  0  0  0  0  0  0  0  0  # atno 17370 bound_to 10713
  157.5511  131.0944  150.9694 LP  0  0  0  0  0  0  0  0  0  0  0  0  # atno 17371 bound_to 10713
  139.9825  135.0093  156.9783 LP  0  0  0  0  0  0  0  0  0  0  0  0  # atno 17394 bound_to 11000
  140.5088  134.1023  155.7266 LP  0  0  0  0  0  0  0  0  0  0  0  0  # atno 17395 bound_to 11000

$$$$
