AV-unprocessed.smi:3032|AV-procd|sdf|11557|dock1
  -GOLD-   2272016523D 1   1.00000     0.00000
 Structure written by MMmdl.
 37 38  0  0  0  0  0  0  0  0  1 V2000
  152.8227  141.9833  161.6078 C   0  0  0  0  0  0  0  0  0  0  0  0
  152.0335  142.7545  160.5405 C   0  0  2  0  0  0  0  0  0  0  0  0
  152.8602  142.9442  159.2553 C   0  0  0  0  0  0  0  0  0  0  0  0
  152.0640  143.6956  158.1772 C   0  0  0  0  0  0  0  0  0  0  0  0
  151.5258  145.0433  158.6989 C   0  0  0  0  0  0  0  0  0  0  0  0
  150.7488  144.9304  160.0337 C   0  0  1  0  0  0  0  0  0  0  0  0
  149.3195  144.3778  159.8809 C   0  0  0  0  0  0  0  0  0  0  0  0
  148.5042  144.4472  160.8004 O   0  0  0  0  0  0  0  0  0  0  0  0
  149.0263  143.8347  158.6895 N   0  0  0  0  0  0  0  0  0  0  0  0
  147.7151  143.3311  158.2899 C   0  0  0  0  0  0  0  0  0  0  0  0
  147.7083  141.8153  157.9995 C   0  0  0  0  0  0  0  0  0  0  0  0
  147.7863  141.4740  156.5439 C   0  0  0  0  0  0  0  0  0  0  0  0
  147.8331  142.4108  155.5940 N   0  0  0  0  0  0  0  0  0  0  0  0
  147.9250  141.8169  154.3860 N   0  0  0  0  0  0  0  0  0  0  0  0
  147.9213  140.5253  154.7102 C   0  0  0  0  0  0  0  0  0  0  0  0
  147.8368  140.2435  156.0453 N   0  0  0  0  0  0  0  0  0  0  0  0
  151.5626  144.1241  161.0714 C   0  0  0  0  0  0  0  0  0  0  0  0
  147.8171  143.4133  155.7172 H   0  0  0  0  0  0  0  0  0  0  0  0
  153.7232  142.5227  161.9028 H   0  0  0  0  0  0  0  0  0  0  0  0
  153.1263  141.0031  161.2397 H   0  0  0  0  0  0  0  0  0  0  0  0
  152.2207  141.8257  162.5032 H   0  0  0  0  0  0  0  0  0  0  0  0
  151.1553  142.1562  160.2942 H   0  0  0  0  0  0  0  0  0  0  0  0
  153.7733  143.4960  159.4826 H   0  0  0  0  0  0  0  0  0  0  0  0
  153.1745  141.9752  158.8658 H   0  0  0  0  0  0  0  0  0  0  0  0
  152.6982  143.8685  157.3074 H   0  0  0  0  0  0  0  0  0  0  0  0
  151.2458  143.0671  157.8271 H   0  0  0  0  0  0  0  0  0  0  0  0
  152.3685  145.7202  158.8452 H   0  0  0  0  0  0  0  0  0  0  0  0
  150.9022  145.5104  157.9355 H   0  0  0  0  0  0  0  0  0  0  0  0
  150.6378  145.9449  160.4205 H   0  0  0  0  0  0  0  0  0  0  0  0
  149.7537  143.8108  157.9894 H   0  0  0  0  0  0  0  0  0  0  0  0
  147.0312  143.5393  159.1130 H   0  0  0  0  0  0  0  0  0  0  0  0
  147.3411  143.8878  157.4298 H   0  0  0  0  0  0  0  0  0  0  0  0
  148.5424  141.3385  158.5153 H   0  0  0  0  0  0  0  0  0  0  0  0
  146.8041  141.3663  158.4125 H   0  0  0  0  0  0  0  0  0  0  0  0
  147.9835  139.7547  153.9560 H   0  0  0  0  0  0  0  0  0  0  0  0
  150.9760  143.9855  161.9811 H   0  0  0  0  0  0  0  0  0  0  0  0
  152.4317  144.7114  161.3704 H   0  0  0  0  0  0  0  0  0  0  0  0
  1  2  1  0  0  0  0
  1 19  1  0  0  0  0
  1 20  1  0  0  0  0
  1 21  1  0  0  0  0
  2 17  1  0  0  0  0
  2  3  1  0  0  0  0
  2 22  1  0  0  0  0
  3  4  1  0  0  0  0
  3 23  1  0  0  0  0
  3 24  1  0  0  0  0
  4  5  1  0  0  0  0
  4 25  1  0  0  0  0
  4 26  1  0  0  0  0
  5  6  1  0  0  0  0
  5 27  1  0  0  0  0
  5 28  1  0  0  0  0
  6  7  1  0  0  0  0
  6 17  1  0  0  0  0
  6 29  1  0  0  0  0
  7  8  2  0  0  0  0
  7  9  1  0  0  0  0
  9 10  1  0  0  0  0
  9 30  1  0  0  0  0
 10 11  1  0  0  0  0
 10 31  1  0  0  0  0
 10 32  1  0  0  0  0
 11 33  1  0  0  0  0
 11 34  1  0  0  0  0
 11 12  1  0  0  0  0
 12 16  2  0  0  0  0
 12 13  1  0  0  0  0
 13 18  1  0  0  0  0
 13 14  1  0  0  0  0
 14 15  2  0  0  0  0
 15 16  1  0  0  0  0
 15 35  1  0  0  0  0
 17 36  1  0  0  0  0
 17 37  1  0  0  0  0
M  END
> <s_m_source_file>
AV-unprocessed.smi

> <i_m_source_file_index>
3032

> <i_lp_mmshare_version>
43012

> <i_f3d_flags>
0

> <s_epik_input>
W0NIM11bQ0BASF0xW0NIMl1bQ0gyXVtDSDJdW0NASF0oW0NIMl0xKUMoPU8pW05IXVtDSDJdW0NIMl1jMm5uW2NIXVtuSF0y

> <s_epik_cmdline>
J2VwaWtfcHl0aG9uJywgJy1waCcsICc3LjAnLCAnLXRuJywgJzgnLCAnLW1hJywgJzIwMCcsICctbWV0YWxfYmluZGluZycsICctaW1hZScsICc8aW5maWxlLm1hZT4nLCAnLW9tYWUnLCAnPG91dGZpbGUubWFlPic=

> <r_lp_tautomer_probability>
0.948284

> <r_epik_Ionization_Penalty>
0.000474052

> <r_epik_Ionization_Penalty_Charging>
0

> <r_epik_Ionization_Penalty_Neutral>
0.000474052

> <r_epik_State_Penalty>
0.271807

> <r_epik_Charging_Adjusted_Penalty>
0.271807

> <i_epik_Tot_Q>
0

> <i_epik_Tot_abs_Q>
0

> <r_epik_Metal_State_Penalty>
0.397201

> <b_epik_Metal_Only>
0

> <s_lp_Force_Field>
OPLS_2005

> <r_lp_Energy>
8.45965

> <b_lp_Chiralities_Consistent>
1

> <s_lp_Variant>
AV-unprocessed.smi:3032-1

> <Gold.Version>
5.8.1

> <Gold.Id.Protein>
6NUR|6NUR_protein|mol2

> <Gold.PLP.Fitness>
46.9512

> <Gold.PLP.PLP>
-37.7764

> <Gold.PLP.part.hbond>
-5.3661

> <Gold.PLP.part.metal>
0.0000

> <Gold.PLP.part.buried>
-2.7588

> <Gold.PLP.part.nonpolar>
-30.1061

> <Gold.PLP.part.repulsive>
0.6125

> <Gold.PLP.ligand.clash>
0.0000

> <Gold.PLP.ligand.torsion>
0.4675

> <Gold.PLP.Chemscore.Hbond>
2.4400

> <Gold.PLP.Chemscore.CHOScore>
0.9015

> <Gold.PLP.Chemscore.Metal>
0.0000

> <Gold.Chemscore.Hbonds>
donor molecule, donor type, donor heavy atom, donor atom, acceptor molecule, acceptor atom, score
      L1  H    13    18       P1  8028  0.78
      P1  H  6933  6944       L1     8  0.57

> <Gold.PLP.Chemscore.Internal.Correction>
0.0853

> <Gold.Rescore>
     Score         DG    S(hbond)    S(metal)    S(lipo)     H(rot)  DE(clash)    DE(int)     intcor
     16.82     -18.58       2.48        0.00      90.52       2.25       0.51       1.25       ----

> <Gold.Chemscore.Fitness>
16.8199

> <Gold.Chemscore.DG>
-18.5804

> <Gold.Chemscore.ZeroCoef>
-5.4800

> <Gold.Chemscore.Hbond>
2.4760

> <Gold.Chemscore.Metal>
0.0000

> <Gold.Chemscore.Lipo>
90.5210

> <Gold.Chemscore.Internal_Hbond>
0.0000

> <Gold.Chemscore.DEClash>
0.5083

> <Gold.Chemscore.DEInternal>
1.2522

> <Gold.Chemscore.Rot>
2.2501

> <Gold.Chemscore.Internal.Correction>
   9.000000E+99

> <Gold.Chemscore.Hbonds>
donor molecule, donor type, donor heavy atom, donor atom, acceptor molecule, acceptor atom, score
      L1  H    13    18       P1  8028  0.17
      P1  H  6933  6944       L1     8  0.12

> <Gold.Chemscore.Hbond.Weighted>
-8.2698

> <Gold.Chemscore.Metal.Weighted>
-0.0000

> <Gold.Chemscore.Lipo.Weighted>
-10.5910

> <Gold.Chemscore.Internal_Hbond.Weighted>
0.0000

> <Gold.Chemscore.DEClash.Weighted>
0.5083

> <Gold.Chemscore.DEInternal.Weighted>
1.2522

> <Gold.Chemscore.Rot.Weighted>
5.7603

> <Gold.Chemscore.Internal.Correction.Weighted>
   9.000000E+99

> <Gold.Protein.RotatedTorsions>
[ 6907 6896 6895 6894 ] final  136.21 input  -60.11 | X-H torsion
[ 7974 7965 7964 7962 ] final -178.07 input  175.53 | X-H torsion
[ 8008 7997 7996 7995 ] final  102.47 input   59.86 | X-H torsion
[ 10167 10162 10161 10158 ] final -130.68 input  -65.29 | X-H torsion
[ 10718 10713 10712 10709 ] final  135.60 input   66.30 | X-H torsion
[ 10763 10752 10751 10750 ] final  103.22 input  -60.55 | X-H torsion
[ 11005 11000 10999 10996 ] final -109.54 input  -57.11 | X-H torsion

> <Gold.Protein.ActiveResidues>
 VAL166  LYS551  ARG553  GLY616  TRP617  ASP618  TYR619  PRO620  LYS621  CYS622 
 ASP623  PHE694  ASN695  SER759  ASP760  ASP761  ALA762  ILE779  LEU786  VAL792 
 PHE793  MET794  SER795  GLU796  ALA797  LYS798  CYS799  TRP800  GLU811  SER814 

> <Gold.Protein.RotatedAtoms>
  152.2919  133.5569  159.5562 H   0  0  0  0  0  0  0  0  0  0  0  0  # atno 6907 bound_to 6896
  150.7239  134.0416  159.3776 H   0  0  0  0  0  0  0  0  0  0  0  0  # atno 6908 bound_to 6896
  151.8322  135.0618  160.0489 H   0  0  0  0  0  0  0  0  0  0  0  0  # atno 6909 bound_to 6896
  144.7129  140.0924  143.6420 H   0  0  0  0  0  0  0  0  0  0  0  0  # atno 7974 bound_to 7965
  156.1396  140.3180  155.8474 H   0  0  0  0  0  0  0  0  0  0  0  0  # atno 8008 bound_to 7997
  155.4179  140.0510  157.3044 H   0  0  0  0  0  0  0  0  0  0  0  0  # atno 8009 bound_to 7997
  154.4965  140.2113  155.9448 H   0  0  0  0  0  0  0  0  0  0  0  0  # atno 8010 bound_to 7997
  139.9268  143.6318  152.2540 H   0  0  0  0  0  0  0  0  0  0  0  0  # atno 10167 bound_to 10162
  157.4554  131.1069  150.9984 H   0  0  0  0  0  0  0  0  0  0  0  0  # atno 10718 bound_to 10713
  153.3498  135.3984  155.1637 H   0  0  0  0  0  0  0  0  0  0  0  0  # atno 10763 bound_to 10752
  154.8660  135.3653  154.5237 H   0  0  0  0  0  0  0  0  0  0  0  0  # atno 10764 bound_to 10752
  153.5688  135.7079  153.5574 H   0  0  0  0  0  0  0  0  0  0  0  0  # atno 10765 bound_to 10752
  141.0842  133.9168  157.2222 H   0  0  0  0  0  0  0  0  0  0  0  0  # atno 11005 bound_to 11000
  145.9609  139.2800  143.1156 LP  0  0  0  0  0  0  0  0  0  0  0  0  # atno 17320 bound_to 7965
  145.9222  140.9107  143.0399 LP  0  0  0  0  0  0  0  0  0  0  0  0  # atno 17321 bound_to 7965
  139.6815  144.7655  151.1599 LP  0  0  0  0  0  0  0  0  0  0  0  0  # atno 17342 bound_to 10162
  140.7648  143.5717  150.8988 LP  0  0  0  0  0  0  0  0  0  0  0  0  # atno 17343 bound_to 10162
  157.0800  130.5899  149.5418 LP  0  0  0  0  0  0  0  0  0  0  0  0  # atno 17370 bound_to 10713
  156.0005  130.5083  150.7644 LP  0  0  0  0  0  0  0  0  0  0  0  0  # atno 17371 bound_to 10713
  139.9658  135.0142  156.9384 LP  0  0  0  0  0  0  0  0  0  0  0  0  # atno 17394 bound_to 11000
  140.5401  134.0729  155.7339 LP  0  0  0  0  0  0  0  0  0  0  0  0  # atno 17395 bound_to 11000

$$$$
