AV-unprocessed.smi:337|AV-procd|sdf|2372|dock1
  -GOLD-   2262022293D 1   1.00000     0.00000
 Structure written by MMmdl.
 43 44  0  0  0  0  0  0  0  0  1 V2000
  145.6023  132.2468  149.9398 C   0  0  0  0  0  0  0  0  0  0  0  0
  144.2390  132.4751  150.6139 C   0  0  2  0  0  0  0  0  0  0  0  0
  143.1934  132.1908  149.6322 N   0  0  0  0  0  0  0  0  0  0  0  0
  143.1479  132.6924  148.3892 C   0  0  0  0  0  0  0  0  0  0  0  0
  142.0981  132.2452  147.6997 N   0  0  0  0  0  0  0  0  0  0  0  0
  143.9734  133.4748  147.9223 O   0  0  0  0  0  0  0  0  0  0  0  0
  144.1738  133.9420  151.0678 C   0  0  0  0  0  0  0  0  0  0  0  0
  144.2566  134.8581  150.2479 O   0  0  0  0  0  0  0  0  0  0  0  0
  144.0489  134.1474  152.3878 N   0  0  0  0  0  0  0  0  0  0  0  0
  143.9914  135.4582  153.0264 C   0  0  0  0  0  0  0  0  0  0  0  0
  142.5883  135.9085  153.4086 C   0  0  0  0  0  0  0  0  0  0  0  0
  142.1642  137.2460  153.2623 C   0  0  0  0  0  0  0  0  0  0  0  0
  140.8526  137.5923  153.6381 C   0  0  0  0  0  0  0  0  0  0  0  0
  139.9959  136.5932  154.1589 C   0  0  0  0  0  0  0  0  0  0  0  0
  138.6758  136.9173  154.5416 N   0  0  0  0  0  0  0  0  0  0  0  0
  138.1579  138.1822  154.0261 C   0  0  0  0  0  0  0  0  0  0  0  0
  136.6380  138.2694  154.2481 C   0  0  0  0  0  0  0  0  0  0  0  0
  136.3383  138.0687  155.6252 O   0  0  0  0  0  0  0  0  0  0  0  0
  136.7518  136.7829  156.0746 C   0  0  0  0  0  0  0  0  0  0  0  0
  138.2759  136.6465  155.9214 C   0  0  0  0  0  0  0  0  0  0  0  0
  140.4090  135.3092  154.2990 N   0  0  0  0  0  0  0  0  0  0  0  0
  141.6672  134.9825  153.9371 C   0  0  0  0  0  0  0  0  0  0  0  0
  146.4239  132.4425  150.6304 H   0  0  0  0  0  0  0  0  0  0  0  0
  145.7391  132.8910  149.0698 H   0  0  0  0  0  0  0  0  0  0  0  0
  145.7018  131.2143  149.6035 H   0  0  0  0  0  0  0  0  0  0  0  0
  144.1370  131.8075  151.4722 H   0  0  0  0  0  0  0  0  0  0  0  0
  142.4682  131.5485  149.9150 H   0  0  0  0  0  0  0  0  0  0  0  0
  141.9456  132.5499  146.7496 H   0  0  0  0  0  0  0  0  0  0  0  0
  141.4542  131.6017  148.1366 H   0  0  0  0  0  0  0  0  0  0  0  0
  143.9878  133.3403  152.9914 H   0  0  0  0  0  0  0  0  0  0  0  0
  144.6351  135.4628  153.9079 H   0  0  0  0  0  0  0  0  0  0  0  0
  144.4088  136.1913  152.3362 H   0  0  0  0  0  0  0  0  0  0  0  0
  142.8266  138.0009  152.8650 H   0  0  0  0  0  0  0  0  0  0  0  0
  140.5176  138.6104  153.5089 H   0  0  0  0  0  0  0  0  0  0  0  0
  138.6574  139.0029  154.5425 H   0  0  0  0  0  0  0  0  0  0  0  0
  138.3666  138.3026  152.9642 H   0  0  0  0  0  0  0  0  0  0  0  0
  136.2712  139.2503  153.9454 H   0  0  0  0  0  0  0  0  0  0  0  0
  136.1131  137.5315  153.6392 H   0  0  0  0  0  0  0  0  0  0  0  0
  136.4679  136.6639  157.1200 H   0  0  0  0  0  0  0  0  0  0  0  0
  136.2328  136.0043  155.5133 H   0  0  0  0  0  0  0  0  0  0  0  0
  138.5786  135.6402  156.2130 H   0  0  0  0  0  0  0  0  0  0  0  0
  138.7819  137.3465  156.5877 H   0  0  0  0  0  0  0  0  0  0  0  0
  141.9445  133.9473  154.0724 H   0  0  0  0  0  0  0  0  0  0  0  0
  1  2  1  0  0  0  0
  1 23  1  0  0  0  0
  1 24  1  0  0  0  0
  1 25  1  0  0  0  0
  2  3  1  0  0  0  0
  2  7  1  0  0  0  0
  2 26  1  0  0  0  0
  3  4  1  0  0  0  0
  3 27  1  0  0  0  0
  4  5  1  0  0  0  0
  4  6  2  0  0  0  0
  5 28  1  0  0  0  0
  5 29  1  0  0  0  0
  7  8  2  0  0  0  0
  7  9  1  0  0  0  0
  9 10  1  0  0  0  0
  9 30  1  0  0  0  0
 10 11  1  0  0  0  0
 10 31  1  0  0  0  0
 10 32  1  0  0  0  0
 11 22  1  0  0  0  0
 11 12  2  0  0  0  0
 12 13  1  0  0  0  0
 12 33  1  0  0  0  0
 13 14  2  0  0  0  0
 13 34  1  0  0  0  0
 14 15  1  0  0  0  0
 14 21  1  0  0  0  0
 15 20  1  0  0  0  0
 15 16  1  0  0  0  0
 16 17  1  0  0  0  0
 16 35  1  0  0  0  0
 16 36  1  0  0  0  0
 17 18  1  0  0  0  0
 17 37  1  0  0  0  0
 17 38  1  0  0  0  0
 18 19  1  0  0  0  0
 19 20  1  0  0  0  0
 19 39  1  0  0  0  0
 19 40  1  0  0  0  0
 20 41  1  0  0  0  0
 20 42  1  0  0  0  0
 21 22  2  0  0  0  0
 22 43  1  0  0  0  0
M  END
> <s_m_source_file>
AV-unprocessed.smi

> <i_m_source_file_index>
337

> <i_lp_mmshare_version>
43012

> <i_f3d_flags>
0

> <s_epik_input>
W05IMl1DKD1PKVtOSF1bQ0BASF0oW0NIM10pQyg9TylbTkhdW0NIMl1jMVtjSF1bY0hdYyhuW2NIXTEpTjJbQ0gyXVtDSDJdT1tDSDJdW0NIMl0y

> <s_epik_cmdline>
J2VwaWtfcHl0aG9uJywgJy1waCcsICc3LjAnLCAnLXRuJywgJzgnLCAnLW1hJywgJzIwMCcsICctbWV0YWxfYmluZGluZycsICctaW1hZScsICc8aW5maWxlLm1hZT4nLCAnLW9tYWUnLCAnPG91dGZpbGUubWFlPic=

> <r_lp_tautomer_probability>
1

> <r_epik_Ionization_Penalty>
0.0048357

> <r_epik_Ionization_Penalty_Charging>
0

> <r_epik_Ionization_Penalty_Neutral>
0.0048357

> <r_epik_State_Penalty>
0.0034696

> <r_epik_Charging_Adjusted_Penalty>
0.0034696

> <i_epik_Tot_Q>
0

> <i_epik_Tot_abs_Q>
0

> <r_epik_Metal_State_Penalty>
-0

> <b_epik_Metal_Only>
0

> <s_lp_Force_Field>
OPLS_2005

> <r_lp_Energy>
8.56102

> <b_lp_Chiralities_Consistent>
1

> <s_lp_Variant>
AV-unprocessed.smi:337-1

> <Gold.Version>
5.8.1

> <Gold.Id.Protein>
6NUR|6NUR_protein|mol2

> <Gold.PLP.Fitness>
52.9136

> <Gold.PLP.PLP>
-38.1884

> <Gold.PLP.part.hbond>
-6.5561

> <Gold.PLP.part.metal>
0.0000

> <Gold.PLP.part.buried>
-9.0007

> <Gold.PLP.part.nonpolar>
-28.6537

> <Gold.PLP.part.repulsive>
4.1038

> <Gold.PLP.ligand.clash>
0.0000

> <Gold.PLP.ligand.torsion>
0.7394

> <Gold.PLP.Chemscore.Hbond>
4.2795

> <Gold.PLP.Chemscore.CHOScore>
1.0000

> <Gold.PLP.Chemscore.Metal>
0.0000

> <Gold.Chemscore.Hbonds>
donor molecule, donor type, donor heavy atom, donor atom, acceptor molecule, acceptor atom, score
      L1  H     3    27       P1 10952  0.91
      L1  H     5    28       P1 10195  0.59
      L1  H     5    29       P1 10952  1.00
      P1  H  7918  7932       L1     6  0.38
      P1  H 11000 11005       L1    21  1.00
      L1  C    22    43       P1 10957  1.00

> <Gold.PLP.Chemscore.Internal.Correction>
0.3653

> <Gold.Rescore>
     Score         DG    S(hbond)    S(metal)    S(lipo)     H(rot)  DE(clash)    DE(int)     intcor
     14.31     -19.38       3.88        0.00      66.07       2.66       1.53       3.54       ----

> <Gold.Chemscore.Fitness>
14.3103

> <Gold.Chemscore.DG>
-19.3829

> <Gold.Chemscore.ZeroCoef>
-5.4800

> <Gold.Chemscore.Hbond>
3.8849

> <Gold.Chemscore.Metal>
0.0000

> <Gold.Chemscore.Lipo>
66.0695

> <Gold.Chemscore.Internal_Hbond>
0.0000

> <Gold.Chemscore.DEClash>
1.5347

> <Gold.Chemscore.DEInternal>
3.5378

> <Gold.Chemscore.Rot>
2.6573

> <Gold.Chemscore.Internal.Correction>
   9.000000E+99

> <Gold.Chemscore.Hbonds>
donor molecule, donor type, donor heavy atom, donor atom, acceptor molecule, acceptor atom, score
      L1  H     3    27       P1 10952  0.82
      L1  H     5    28       P1 10195  0.58
      L1  H     5    29       P1 10952  0.97
      P1  H  7918  7932       L1     6  0.38
      P1  H 11000 11005       L1    21  0.57

> <Gold.Chemscore.Hbond.Weighted>
-12.9755

> <Gold.Chemscore.Metal.Weighted>
-0.0000

> <Gold.Chemscore.Lipo.Weighted>
-7.7301

> <Gold.Chemscore.Internal_Hbond.Weighted>
0.0000

> <Gold.Chemscore.DEClash.Weighted>
1.5347

> <Gold.Chemscore.DEInternal.Weighted>
3.5378

> <Gold.Chemscore.Rot.Weighted>
6.8027

> <Gold.Chemscore.Internal.Correction.Weighted>
   9.000000E+99

> <Gold.Protein.RotatedTorsions>
[ 6907 6896 6895 6894 ] final -129.48 input  -60.11 | X-H torsion
[ 7974 7965 7964 7962 ] final   24.62 input  175.53 | X-H torsion
[ 8008 7997 7996 7995 ] final   25.99 input   59.86 | X-H torsion
[ 10167 10162 10161 10158 ] final -163.01 input  -65.29 | X-H torsion
[ 10718 10713 10712 10709 ] final  101.02 input   66.30 | X-H torsion
[ 10763 10752 10751 10750 ] final   -3.18 input  -60.55 | X-H torsion
[ 11005 11000 10999 10996 ] final   55.02 input  -57.11 | X-H torsion

> <Gold.Protein.ActiveResidues>
 VAL166  LYS551  ARG553  GLY616  TRP617  ASP618  TYR619  PRO620  LYS621  CYS622 
 ASP623  PHE694  ASN695  SER759  ASP760  ASP761  ALA762  ILE779  LEU786  VAL792 
 PHE793  MET794  SER795  GLU796  ALA797  LYS798  CYS799  TRP800  GLU811  SER814 

> <Gold.Protein.RotatedAtoms>
  150.9292  133.6787  159.2814 H   0  0  0  0  0  0  0  0  0  0  0  0  # atno 6907 bound_to 6896
  151.4215  135.0997  159.9625 H   0  0  0  0  0  0  0  0  0  0  0  0  # atno 6908 bound_to 6896
  152.5018  133.8743  159.7369 H   0  0  0  0  0  0  0  0  0  0  0  0  # atno 6909 bound_to 6896
  146.1928  139.7579  142.8819 H   0  0  0  0  0  0  0  0  0  0  0  0  # atno 7974 bound_to 7965
  155.0203  140.3147  155.4796 H   0  0  0  0  0  0  0  0  0  0  0  0  # atno 8008 bound_to 7997
  156.2893  140.2198  156.5263 H   0  0  0  0  0  0  0  0  0  0  0  0  # atno 8009 bound_to 7997
  154.7458  140.0470  157.0838 H   0  0  0  0  0  0  0  0  0  0  0  0  # atno 8010 bound_to 7997
  139.6351  144.0366  152.2047 H   0  0  0  0  0  0  0  0  0  0  0  0  # atno 10167 bound_to 10162
  157.6840  131.0715  150.5189 H   0  0  0  0  0  0  0  0  0  0  0  0  # atno 10718 bound_to 10713
  153.3679  135.6993  153.6661 H   0  0  0  0  0  0  0  0  0  0  0  0  # atno 10763 bound_to 10752
  153.5323  135.3590  155.2682 H   0  0  0  0  0  0  0  0  0  0  0  0  # atno 10764 bound_to 10752
  154.8677  135.4183  154.2950 H   0  0  0  0  0  0  0  0  0  0  0  0  # atno 10765 bound_to 10752
  140.0640  134.5563  155.9120 H   0  0  0  0  0  0  0  0  0  0  0  0  # atno 11005 bound_to 11000
  145.3737  141.0347  143.3216 LP  0  0  0  0  0  0  0  0  0  0  0  0  # atno 17320 bound_to 7965
  144.8521  139.5306  143.6851 LP  0  0  0  0  0  0  0  0  0  0  0  0  # atno 17321 bound_to 7965
  140.0041  144.6272  150.7704 LP  0  0  0  0  0  0  0  0  0  0  0  0  # atno 17342 bound_to 10162
  140.7461  143.2885  151.3396 LP  0  0  0  0  0  0  0  0  0  0  0  0  # atno 17343 bound_to 10162
  156.5503  130.4230  149.6111 LP  0  0  0  0  0  0  0  0  0  0  0  0  # atno 17370 bound_to 10713
  156.2908  130.7123  151.1971 LP  0  0  0  0  0  0  0  0  0  0  0  0  # atno 17371 bound_to 10713
  141.1985  133.6601  156.5794 LP  0  0  0  0  0  0  0  0  0  0  0  0  # atno 17394 bound_to 11000
  140.3727  134.7591  157.4609 LP  0  0  0  0  0  0  0  0  0  0  0  0  # atno 17395 bound_to 11000

$$$$
