AV-unprocessed.smi:2224|AV-procd|sdf|8995|dock5
  -GOLD-   2272012203D 1   1.00000     0.00000
 Structure written by MMmdl.
 44 46  0  0  0  0  0  0  0  0  1 V2000
  151.2189  145.2824  159.4036 C   0  0  0  0  0  0  0  0  0  0  0  0
  151.8207  144.0529  160.0509 C   0  0  0  0  0  0  0  0  0  0  0  0
  152.3547  144.1074  161.3526 C   0  0  0  0  0  0  0  0  0  0  0  0
  152.9041  142.9293  161.8956 C   0  0  0  0  0  0  0  0  0  0  0  0
  153.4929  142.9156  163.2905 C   0  0  0  0  0  0  0  0  0  0  0  0
  152.9413  141.7570  161.2267 N   0  0  0  0  0  0  0  0  0  0  0  0
  152.4298  141.6929  159.9725 C   0  0  0  0  0  0  0  0  0  0  0  0
  152.4140  140.5095  159.1880 N   0  0  0  0  0  0  0  0  0  0  0  0
  151.4842  140.1126  158.3017 C   0  0  0  0  0  0  0  0  0  0  0  0
  150.4370  140.7094  158.0495 O   0  0  0  0  0  0  0  0  0  0  0  0
  151.8363  138.9608  157.7139 N   0  0  0  0  0  0  0  0  0  0  0  0
  151.0294  138.2553  156.7228 C   0  0  2  0  0  0  0  0  0  0  0  0
  151.6281  136.8902  156.3484 C   0  0  1  0  0  0  0  0  0  0  0  0
  150.8870  135.6258  156.6901 C   0  0  0  0  0  0  0  0  0  0  0  0
  150.1334  135.3115  155.3948 C   0  0  0  0  0  0  0  0  0  0  0  0
  150.0535  136.5611  154.7135 O   0  0  0  0  0  0  0  0  0  0  0  0
  151.2952  137.2348  154.9050 C   0  0  1  0  0  0  0  0  0  0  0  0
  151.2225  138.7349  155.2605 C   0  0  0  0  0  0  0  0  0  0  0  0
  150.0569  139.5113  154.6447 C   0  0  0  0  0  0  0  0  0  0  0  0
  152.4999  139.5216  154.9327 C   0  0  0  0  0  0  0  0  0  0  0  0
  151.8573  142.8276  159.3553 C   0  0  0  0  0  0  0  0  0  0  0  0
  151.3168  146.1577  160.0465 H   0  0  0  0  0  0  0  0  0  0  0  0
  150.1596  145.1226  159.2017 H   0  0  0  0  0  0  0  0  0  0  0  0
  151.7208  145.4959  158.4596 H   0  0  0  0  0  0  0  0  0  0  0  0
  152.3436  145.0267  161.9200 H   0  0  0  0  0  0  0  0  0  0  0  0
  153.5081  143.9164  163.7232 H   0  0  0  0  0  0  0  0  0  0  0  0
  154.5163  142.5399  163.2681 H   0  0  0  0  0  0  0  0  0  0  0  0
  152.9041  142.2706  163.9431 H   0  0  0  0  0  0  0  0  0  0  0  0
  153.2049  139.8957  159.3134 H   0  0  0  0  0  0  0  0  0  0  0  0
  152.7135  138.5362  157.9763 H   0  0  0  0  0  0  0  0  0  0  0  0
  149.9744  138.1744  156.9943 H   0  0  0  0  0  0  0  0  0  0  0  0
  152.7068  136.8442  156.5087 H   0  0  0  0  0  0  0  0  0  0  0  0
  151.5540  134.8116  156.9738 H   0  0  0  0  0  0  0  0  0  0  0  0
  150.1915  135.7924  157.5132 H   0  0  0  0  0  0  0  0  0  0  0  0
  150.7008  134.6092  154.7822 H   0  0  0  0  0  0  0  0  0  0  0  0
  149.1449  134.8878  155.5735 H   0  0  0  0  0  0  0  0  0  0  0  0
  152.0653  136.9449  154.1885 H   0  0  0  0  0  0  0  0  0  0  0  0
  150.1524  139.5840  153.5609 H   0  0  0  0  0  0  0  0  0  0  0  0
  149.9977  140.5257  155.0407 H   0  0  0  0  0  0  0  0  0  0  0  0
  149.0998  139.0323  154.8525 H   0  0  0  0  0  0  0  0  0  0  0  0
  152.6544  139.5969  153.8559 H   0  0  0  0  0  0  0  0  0  0  0  0
  153.3878  139.0455  155.3496 H   0  0  0  0  0  0  0  0  0  0  0  0
  152.4609  140.5374  155.3275 H   0  0  0  0  0  0  0  0  0  0  0  0
  151.4518  142.7633  158.3557 H   0  0  0  0  0  0  0  0  0  0  0  0
  1  2  1  0  0  0  0
  1 22  1  0  0  0  0
  1 23  1  0  0  0  0
  1 24  1  0  0  0  0
  2 21  1  0  0  0  0
  2  3  2  0  0  0  0
  3  4  1  0  0  0  0
  3 25  1  0  0  0  0
  4  5  1  0  0  0  0
  4  6  2  0  0  0  0
  5 26  1  0  0  0  0
  5 27  1  0  0  0  0
  5 28  1  0  0  0  0
  6  7  1  0  0  0  0
  7  8  1  0  0  0  0
  7 21  2  0  0  0  0
  8  9  1  0  0  0  0
  8 29  1  0  0  0  0
  9 10  2  0  0  0  0
  9 11  1  0  0  0  0
 11 12  1  0  0  0  0
 11 30  1  0  0  0  0
 12 18  1  0  0  0  0
 12 13  1  0  0  0  0
 12 31  1  0  0  0  0
 13 17  1  0  0  0  0
 13 14  1  0  0  0  0
 13 32  1  0  0  0  0
 14 15  1  0  0  0  0
 14 33  1  0  0  0  0
 14 34  1  0  0  0  0
 15 16  1  0  0  0  0
 15 35  1  0  0  0  0
 15 36  1  0  0  0  0
 16 17  1  0  0  0  0
 17 18  1  0  0  0  0
 17 37  1  0  0  0  0
 18 19  1  0  0  0  0
 18 20  1  0  0  0  0
 19 38  1  0  0  0  0
 19 39  1  0  0  0  0
 19 40  1  0  0  0  0
 20 41  1  0  0  0  0
 20 42  1  0  0  0  0
 20 43  1  0  0  0  0
 21 44  1  0  0  0  0
M  END
> <s_m_source_file>
AV-unprocessed.smi

> <i_m_source_file_index>
2224

> <i_lp_mmshare_version>
43012

> <i_f3d_flags>
0

> <s_epik_input>
W0NIM11jMVtjSF1jKFtDSDNdKW5jKFtjSF0xKVtOSF1DKD1PKVtOSF1bQ0BIXTJDKFtDSDNdKShbQ0gzXSlbQ0BIXShbQ0BASF0yMylPW0NIMl1bQ0gyXTM=

> <s_epik_cmdline>
J2VwaWtfcHl0aG9uJywgJy1waCcsICc3LjAnLCAnLXRuJywgJzgnLCAnLW1hJywgJzIwMCcsICctbWV0YWxfYmluZGluZycsICctaW1hZScsICc8aW5maWxlLm1hZT4nLCAnLW9tYWUnLCAnPG91dGZpbGUubWFlPic=

> <r_lp_tautomer_probability>
1

> <r_epik_Ionization_Penalty>
0.000276544

> <r_epik_Ionization_Penalty_Charging>
0

> <r_epik_Ionization_Penalty_Neutral>
0.000276544

> <r_epik_State_Penalty>
-0

> <r_epik_Charging_Adjusted_Penalty>
0

> <i_epik_Tot_Q>
0

> <i_epik_Tot_abs_Q>
0

> <r_epik_Metal_State_Penalty>
-0

> <b_epik_Metal_Only>
0

> <s_lp_Force_Field>
OPLS_2005

> <r_lp_Energy>
38.5894

> <b_lp_Chiralities_Consistent>
1

> <s_lp_Variant>
AV-unprocessed.smi:2224-5

> <Gold.Version>
5.8.1

> <Gold.Id.Protein>
6NUR|6NUR_protein|mol2

> <Gold.PLP.Fitness>
40.3599

> <Gold.PLP.PLP>
-41.0413

> <Gold.PLP.part.hbond>
0.0000

> <Gold.PLP.part.metal>
0.0000

> <Gold.PLP.part.buried>
-4.8758

> <Gold.PLP.part.nonpolar>
-37.1781

> <Gold.PLP.part.repulsive>
0.9932

> <Gold.PLP.ligand.clash>
0.0000

> <Gold.PLP.ligand.torsion>
0.4281

> <Gold.PLP.Chemscore.Hbond>
0.0000

> <Gold.PLP.Chemscore.CHOScore>
0.0000

> <Gold.PLP.Chemscore.Metal>
0.0000

> <Gold.PLP.Chemscore.Internal.Correction>
0.1749

> <Gold.Rescore>
     Score         DG    S(hbond)    S(metal)    S(lipo)     H(rot)  DE(clash)    DE(int)     intcor
     14.78     -16.72       0.00        0.00     117.92       1.00       0.19       1.75       ----

> <Gold.Chemscore.Fitness>
14.7769

> <Gold.Chemscore.DG>
-16.7163

> <Gold.Chemscore.ZeroCoef>
-5.4800

> <Gold.Chemscore.Hbond>
0.0000

> <Gold.Chemscore.Metal>
0.0000

> <Gold.Chemscore.Lipo>
117.9171

> <Gold.Chemscore.Internal_Hbond>
0.0000

> <Gold.Chemscore.DEClash>
0.1866

> <Gold.Chemscore.DEInternal>
1.7528

> <Gold.Chemscore.Rot>
1.0000

> <Gold.Chemscore.Internal.Correction>
   9.000000E+99

> <Gold.Chemscore.Hbond.Weighted>
-0.0000

> <Gold.Chemscore.Metal.Weighted>
-0.0000

> <Gold.Chemscore.Lipo.Weighted>
-13.7963

> <Gold.Chemscore.Internal_Hbond.Weighted>
0.0000

> <Gold.Chemscore.DEClash.Weighted>
0.1866

> <Gold.Chemscore.DEInternal.Weighted>
1.7528

> <Gold.Chemscore.Rot.Weighted>
2.5600

> <Gold.Chemscore.Internal.Correction.Weighted>
   9.000000E+99

> <Gold.Protein.RotatedTorsions>
[ 6907 6896 6895 6894 ] final   63.94 input  -60.11 | X-H torsion
[ 7974 7965 7964 7962 ] final  136.57 input  175.53 | X-H torsion
[ 8008 7997 7996 7995 ] final  172.51 input   59.86 | X-H torsion
[ 10167 10162 10161 10158 ] final  -62.09 input  -65.29 | X-H torsion
[ 10718 10713 10712 10709 ] final  133.21 input   66.30 | X-H torsion
[ 10763 10752 10751 10750 ] final  -23.38 input  -60.55 | X-H torsion
[ 11005 11000 10999 10996 ] final  -52.29 input  -57.11 | X-H torsion

> <Gold.Protein.ActiveResidues>
 VAL166  LYS551  ARG553  GLY616  TRP617  ASP618  TYR619  PRO620  LYS621  CYS622 
 ASP623  PHE694  ASN695  SER759  ASP760  ASP761  ALA762  ILE779  LEU786  VAL792 
 PHE793  MET794  SER795  GLU796  ALA797  LYS798  CYS799  TRP800  GLU811  SER814 

> <Gold.Protein.RotatedAtoms>
  152.4293  134.5809  159.9947 H   0  0  0  0  0  0  0  0  0  0  0  0  # atno 6907 bound_to 6896
  151.5936  133.3358  159.3041 H   0  0  0  0  0  0  0  0  0  0  0  0  # atno 6908 bound_to 6896
  150.8184  134.7415  159.6816 H   0  0  0  0  0  0  0  0  0  0  0  0  # atno 6909 bound_to 6896
  144.9552  139.4773  143.5506 H   0  0  0  0  0  0  0  0  0  0  0  0  # atno 7974 bound_to 7965
  156.1167  140.1484  156.9263 H   0  0  0  0  0  0  0  0  0  0  0  0  # atno 8008 bound_to 7997
  154.4806  140.0881  156.7409 H   0  0  0  0  0  0  0  0  0  0  0  0  # atno 8009 bound_to 7997
  155.4501  140.3434  155.4302 H   0  0  0  0  0  0  0  0  0  0  0  0  # atno 8010 bound_to 7997
  140.5963  143.2351  151.6029 H   0  0  0  0  0  0  0  0  0  0  0  0  # atno 10167 bound_to 10162
  157.4796  131.1085  150.9699 H   0  0  0  0  0  0  0  0  0  0  0  0  # atno 10718 bound_to 10713
  153.6669  135.6973  153.5159 H   0  0  0  0  0  0  0  0  0  0  0  0  # atno 10763 bound_to 10752
  153.2588  135.4251  155.0872 H   0  0  0  0  0  0  0  0  0  0  0  0  # atno 10764 bound_to 10752
  154.8437  135.3550  154.6213 H   0  0  0  0  0  0  0  0  0  0  0  0  # atno 10765 bound_to 10752
  141.0916  133.6631  156.4002 H   0  0  0  0  0  0  0  0  0  0  0  0  # atno 11005 bound_to 11000
  146.3334  139.8664  142.8847 LP  0  0  0  0  0  0  0  0  0  0  0  0  # atno 17320 bound_to 7965
  145.2783  141.0131  143.3732 LP  0  0  0  0  0  0  0  0  0  0  0  0  # atno 17321 bound_to 7965
  139.5260  144.3058  152.1035 LP  0  0  0  0  0  0  0  0  0  0  0  0  # atno 17342 bound_to 10162
  140.2231  144.4446  150.6333 LP  0  0  0  0  0  0  0  0  0  0  0  0  # atno 17343 bound_to 10162
  157.0437  130.5759  149.5360 LP  0  0  0  0  0  0  0  0  0  0  0  0  # atno 17370 bound_to 10713
  156.0114  130.5206  150.8001 LP  0  0  0  0  0  0  0  0  0  0  0  0  # atno 17371 bound_to 10713
  140.5238  134.6279  157.5327 LP  0  0  0  0  0  0  0  0  0  0  0  0  # atno 17394 bound_to 11000
  139.9743  134.7240  155.9979 LP  0  0  0  0  0  0  0  0  0  0  0  0  # atno 17395 bound_to 11000

$$$$
