AV-unprocessed.smi:3112|AV-procd|sdf|11843|dock5
  -GOLD-   2272017223D 1   1.00000     0.00000
 Structure written by MMmdl.
 37 37  0  0  0  0  0  0  0  0  2 V2000
  144.3203  136.1180  152.0585 C   0  0  0  0  0  0  0  0  0  0  0  0
  144.9476  137.3592  152.7081 C   0  0  0  0  0  0  0  0  0  0  0  0
  146.4256  137.5679  152.3315 C   0  0  1  0  0  0  0  0  0  0  0  0
  146.5019  137.9436  150.9700 O   0  0  0  0  0  0  0  0  0  0  0  0
  147.0827  138.6734  153.1741 C   0  0  0  0  0  0  0  0  0  0  0  0
  148.5563  138.6170  153.0743 N   0  3  0  0  0  0  0  0  0  0  0  0
  149.2834  138.9452  154.3210 C   0  0  1  0  0  0  0  0  0  0  0  0
  150.5816  138.1186  154.3651 C   0  0  0  0  0  0  0  0  0  0  0  0
  149.5308  140.4748  154.4183 C   0  0  1  0  0  0  0  0  0  0  0  0
  148.2401  141.3059  154.2998 C   0  0  0  0  0  0  0  0  0  0  0  0
  150.2354  140.8337  155.6429 N   0  0  0  0  0  0  0  0  0  0  0  0
  149.8829  141.7612  156.6035 C   0  0  0  0  0  0  0  0  0  0  0  0
  150.8493  141.7389  157.5675 C   0  0  0  0  0  0  0  0  0  0  0  0
  151.7639  140.7518  157.1058 C   0  0  0  0  0  0  0  0  0  0  0  0
  151.3929  140.2112  155.9565 N   0  0  0  0  0  0  0  0  0  0  0  0
  143.2845  135.9979  152.3765 H   0  0  0  0  0  0  0  0  0  0  0  0
  144.8598  135.2120  152.3362 H   0  0  0  0  0  0  0  0  0  0  0  0
  144.3235  136.1912  150.9708 H   0  0  0  0  0  0  0  0  0  0  0  0
  144.3662  138.2437  152.4441 H   0  0  0  0  0  0  0  0  0  0  0  0
  144.8649  137.2555  153.7907 H   0  0  0  0  0  0  0  0  0  0  0  0
  146.9685  136.6318  152.4699 H   0  0  0  0  0  0  0  0  0  0  0  0
  145.6413  138.2100  150.6822 H   0  0  0  0  0  0  0  0  0  0  0  0
  146.7194  139.6537  152.8623 H   0  0  0  0  0  0  0  0  0  0  0  0
  146.8084  138.5526  154.2230 H   0  0  0  0  0  0  0  0  0  0  0  0
  148.8124  137.6810  152.7947 H   0  0  0  0  0  0  0  0  0  0  0  0
  148.6819  138.6354  155.1776 H   0  0  0  0  0  0  0  0  0  0  0  0
  151.1117  138.2424  155.3097 H   0  0  0  0  0  0  0  0  0  0  0  0
  151.2613  138.4057  153.5622 H   0  0  0  0  0  0  0  0  0  0  0  0
  150.3703  137.0542  154.2562 H   0  0  0  0  0  0  0  0  0  0  0  0
  150.1735  140.7597  153.5827 H   0  0  0  0  0  0  0  0  0  0  0  0
  147.7663  141.1732  153.3272 H   0  0  0  0  0  0  0  0  0  0  0  0
  148.4501  142.3704  154.4098 H   0  0  0  0  0  0  0  0  0  0  0  0
  147.5142  141.0300  155.0651 H   0  0  0  0  0  0  0  0  0  0  0  0
  148.9838  142.3541  156.5220 H   0  0  0  0  0  0  0  0  0  0  0  0
  150.8966  142.3365  158.4659 H   0  0  0  0  0  0  0  0  0  0  0  0
  152.6792  140.4138  157.5686 H   0  0  0  0  0  0  0  0  0  0  0  0
  148.8539  139.2578  152.3521 H   0  0  0  0  0  0  0  0  0  0  0  0
  1  2  1  0  0  0  0
  1 16  1  0  0  0  0
  1 17  1  0  0  0  0
  1 18  1  0  0  0  0
  2  3  1  0  0  0  0
  2 19  1  0  0  0  0
  2 20  1  0  0  0  0
  3  4  1  0  0  0  0
  3  5  1  0  0  0  0
  3 21  1  0  0  0  0
  4 22  1  0  0  0  0
  5  6  1  0  0  0  0
  5 23  1  0  0  0  0
  5 24  1  0  0  0  0
  6  7  1  0  0  0  0
  6 25  1  0  0  0  0
  6 37  1  0  0  0  0
  7  8  1  0  0  0  0
  7  9  1  0  0  0  0
  7 26  1  0  0  0  0
  8 27  1  0  0  0  0
  8 28  1  0  0  0  0
  8 29  1  0  0  0  0
  9 10  1  0  0  0  0
  9 11  1  0  0  0  0
  9 30  1  0  0  0  0
 10 31  1  0  0  0  0
 10 32  1  0  0  0  0
 10 33  1  0  0  0  0
 11 15  1  0  0  0  0
 11 12  1  0  0  0  0
 12 13  2  0  0  0  0
 12 34  1  0  0  0  0
 13 14  1  0  0  0  0
 13 35  1  0  0  0  0
 14 15  2  0  0  0  0
 14 36  1  0  0  0  0
M  CHG  1   6   1
M  END
> <s_m_source_file>
AV-unprocessed.smi

> <i_m_source_file_index>
3112

> <i_lp_mmshare_version>
43012

> <i_f3d_flags>
0

> <s_epik_input>
W0NIM11bQ0gyXVtDQEhdKFtPSF0pW0NIMl1bTkhdW0NASF0oW0NIM10pW0NASF0oW0NIM10pbjFbY0hdW2NIXVtjSF1uMQ==

> <s_epik_cmdline>
J2VwaWtfcHl0aG9uJywgJy1waCcsICc3LjAnLCAnLXRuJywgJzgnLCAnLW1hJywgJzIwMCcsICctbWV0YWxfYmluZGluZycsICctaW1hZScsICc8aW5maWxlLm1hZT4nLCAnLW9tYWUnLCAnPG91dGZpbGUubWFlPic=

> <r_lp_tautomer_probability>
1

> <r_epik_Ionization_Penalty>
0.0154842

> <r_epik_Ionization_Penalty_Charging>
0.0154724

> <r_epik_Ionization_Penalty_Neutral>
1.17979e-05

> <r_epik_State_Penalty>
0.0121607

> <r_epik_Charging_Adjusted_Penalty>
0.0276331

> <i_epik_Tot_Q>
1

> <i_epik_Tot_abs_Q>
1

> <r_epik_Metal_State_Penalty>
0.0121863

> <b_epik_Metal_Only>
0

> <s_lp_Force_Field>
OPLS_2005

> <r_lp_Energy>
13.9739

> <b_lp_Chiralities_Consistent>
1

> <s_lp_Variant>
AV-unprocessed.smi:3112-8

> <Gold.Version>
5.8.1

> <Gold.Id.Protein>
6NUR|6NUR_protein|mol2

> <Gold.PLP.Fitness>
47.8215

> <Gold.PLP.PLP>
-31.4194

> <Gold.PLP.part.hbond>
-4.6501

> <Gold.PLP.part.metal>
0.0000

> <Gold.PLP.part.buried>
-0.6108

> <Gold.PLP.part.nonpolar>
-25.9445

> <Gold.PLP.part.repulsive>
0.0744

> <Gold.PLP.ligand.clash>
0.0000

> <Gold.PLP.ligand.torsion>
0.8496

> <Gold.PLP.Chemscore.Hbond>
5.0000

> <Gold.PLP.Chemscore.CHOScore>
0.9926

> <Gold.PLP.Chemscore.Metal>
0.0000

> <Gold.Chemscore.Hbonds>
donor molecule, donor type, donor heavy atom, donor atom, acceptor molecule, acceptor atom, score
      L1  H     4    22       P1 10171  1.00
      L1  H     6    25       P1  7948  2.00
      L1  H     6    37       P1  7957  1.00
      P1  H  7954  7966       L1     4  1.00
      L1  C    12    34       P1  8028  0.91

> <Gold.PLP.Chemscore.Internal.Correction>
0.1234

> <Gold.Rescore>
     Score         DG    S(hbond)    S(metal)    S(lipo)     H(rot)  DE(clash)    DE(int)     intcor
     17.33     -20.35       3.91        0.00      68.11       2.41       0.71       2.31       ----

> <Gold.Chemscore.Fitness>
17.3280

> <Gold.Chemscore.DG>
-20.3499

> <Gold.Chemscore.ZeroCoef>
-5.4800

> <Gold.Chemscore.Hbond>
3.9125

> <Gold.Chemscore.Metal>
0.0000

> <Gold.Chemscore.Lipo>
68.1111

> <Gold.Chemscore.Internal_Hbond>
0.0000

> <Gold.Chemscore.DEClash>
0.7136

> <Gold.Chemscore.DEInternal>
2.3084

> <Gold.Chemscore.Rot>
2.4089

> <Gold.Chemscore.Internal.Correction>
   9.000000E+99

> <Gold.Chemscore.Hbonds>
donor molecule, donor type, donor heavy atom, donor atom, acceptor molecule, acceptor atom, score
      L1  H     4    22       P1 10171  0.97
      L1  H     6    25       P1  7948  1.00
      L1  H     6    37       P1  7957  0.99
      P1  H  7954  7966       L1     4  0.96

> <Gold.Chemscore.Hbond.Weighted>
-13.0676

> <Gold.Chemscore.Metal.Weighted>
-0.0000

> <Gold.Chemscore.Lipo.Weighted>
-7.9690

> <Gold.Chemscore.Internal_Hbond.Weighted>
0.0000

> <Gold.Chemscore.DEClash.Weighted>
0.7136

> <Gold.Chemscore.DEInternal.Weighted>
2.3084

> <Gold.Chemscore.Rot.Weighted>
6.1667

> <Gold.Chemscore.Internal.Correction.Weighted>
   9.000000E+99

> <Gold.Protein.RotatedTorsions>
[ 6907 6896 6895 6894 ] final  -41.04 input  -60.11 | X-H torsion
[ 7974 7965 7964 7962 ] final   83.33 input  175.53 | X-H torsion
[ 8008 7997 7996 7995 ] final   36.10 input   59.86 | X-H torsion
[ 10167 10162 10161 10158 ] final -166.91 input  -65.29 | X-H torsion
[ 10718 10713 10712 10709 ] final   15.16 input   66.30 | X-H torsion
[ 10763 10752 10751 10750 ] final -139.92 input  -60.55 | X-H torsion
[ 11005 11000 10999 10996 ] final -110.00 input  -57.11 | X-H torsion

> <Gold.Protein.ActiveResidues>
 VAL166  LYS551  ARG553  GLY616  TRP617  ASP618  TYR619  PRO620  LYS621  CYS622 
 ASP623  PHE694  ASN695  SER759  ASP760  ASP761  ALA762  ILE779  LEU786  VAL792 
 PHE793  MET794  SER795  GLU796  ALA797  LYS798  CYS799  TRP800  GLU811  SER814 

> <Gold.Protein.RotatedAtoms>
  150.9714  134.9086  159.7789 H   0  0  0  0  0  0  0  0  0  0  0  0  # atno 6907 bound_to 6896
  152.5191  134.3536  159.9270 H   0  0  0  0  0  0  0  0  0  0  0  0  # atno 6908 bound_to 6896
  151.3545  133.3872  159.2718 H   0  0  0  0  0  0  0  0  0  0  0  0  # atno 6909 bound_to 6896
  145.6133  139.2372  143.2180 H   0  0  0  0  0  0  0  0  0  0  0  0  # atno 7974 bound_to 7965
  155.1819  140.3300  155.4373 H   0  0  0  0  0  0  0  0  0  0  0  0  # atno 8008 bound_to 7997
  156.2473  140.1925  156.6867 H   0  0  0  0  0  0  0  0  0  0  0  0  # atno 8009 bound_to 7997
  154.6265  140.0588  156.9666 H   0  0  0  0  0  0  0  0  0  0  0  0  # atno 8010 bound_to 7997
  139.6083  144.0866  152.1816 H   0  0  0  0  0  0  0  0  0  0  0  0  # atno 10167 bound_to 10162
  157.0495  130.6264  149.5765 H   0  0  0  0  0  0  0  0  0  0  0  0  # atno 10718 bound_to 10713
  154.8594  135.3568  154.5624 H   0  0  0  0  0  0  0  0  0  0  0  0  # atno 10763 bound_to 10752
  153.6239  135.7005  153.5305 H   0  0  0  0  0  0  0  0  0  0  0  0  # atno 10764 bound_to 10752
  153.3106  135.4180  155.1292 H   0  0  0  0  0  0  0  0  0  0  0  0  # atno 10765 bound_to 10752
  141.0816  133.9209  157.2275 H   0  0  0  0  0  0  0  0  0  0  0  0  # atno 11005 bound_to 11000
  146.1487  140.6955  142.9332 LP  0  0  0  0  0  0  0  0  0  0  0  0  # atno 17320 bound_to 7965
  144.7261  140.4528  143.6972 LP  0  0  0  0  0  0  0  0  0  0  0  0  # atno 17321 bound_to 7965
  140.0479  144.5956  150.7359 LP  0  0  0  0  0  0  0  0  0  0  0  0  # atno 17342 bound_to 10162
  140.7301  143.2680  151.3982 LP  0  0  0  0  0  0  0  0  0  0  0  0  # atno 17343 bound_to 10162
  156.0012  130.5091  150.7669 LP  0  0  0  0  0  0  0  0  0  0  0  0  # atno 17370 bound_to 10713
  157.5041  131.0921  151.0278 LP  0  0  0  0  0  0  0  0  0  0  0  0  # atno 17371 bound_to 10713
  139.9631  135.0149  156.9314 LP  0  0  0  0  0  0  0  0  0  0  0  0  # atno 17394 bound_to 11000
  140.5455  134.0678  155.7354 LP  0  0  0  0  0  0  0  0  0  0  0  0  # atno 17395 bound_to 11000

$$$$
