AV-unprocessed.smi:1720|AV-procd|sdf|6931|dock1
  -GOLD-   22720 8143D 1   1.00000     0.00000
 Structure written by MMmdl.
 32 33  0  0  0  0  0  0  0  0  1 V2000
  147.3785  142.0053  154.2891 C   0  0  0  0  0  0  0  0  0  0  0  0
  148.5275  141.1121  153.7963 C   0  0  2  0  0  0  0  0  0  0  0  0
  147.9653  140.0517  152.9624 N   0  0  0  0  0  0  0  0  0  0  0  0
  146.9560  139.2389  153.3071 C   0  0  0  0  0  0  0  0  0  0  0  0
  146.3774  139.2891  154.3927 O   0  0  0  0  0  0  0  0  0  0  0  0
  146.6675  138.3765  152.3189 N   0  0  0  0  0  0  0  0  0  0  0  0
  145.6602  137.3786  152.3133 C   0  0  0  0  0  0  0  0  0  0  0  0
  145.7914  136.0995  151.7075 C   0  0  0  0  0  0  0  0  0  0  0  0
  144.6904  135.3772  151.8594 N   0  0  0  0  0  0  0  0  0  0  0  0
  143.8581  136.1832  152.5568 N   0  0  0  0  0  0  0  0  0  0  0  0
  144.4058  137.4112  152.8552 C   0  0  0  0  0  0  0  0  0  0  0  0
  149.3298  140.4957  154.9613 C   0  0  2  0  0  0  0  0  0  0  0  0
  149.9377  141.5126  155.9282 C   0  0  0  0  0  0  0  0  0  0  0  0
  151.1097  140.7654  156.5442 C   0  0  0  0  0  0  0  0  0  0  0  0
  151.3351  139.5820  155.5994 C   0  0  0  0  0  0  0  0  0  0  0  0
  150.4884  139.8275  154.4855 O   0  0  0  0  0  0  0  0  0  0  0  0
  142.9294  135.8842  152.8185 H   0  0  0  0  0  0  0  0  0  0  0  0
  147.7517  142.8520  154.8654 H   0  0  0  0  0  0  0  0  0  0  0  0
  146.6872  141.4496  154.9235 H   0  0  0  0  0  0  0  0  0  0  0  0
  146.8102  142.4103  153.4512 H   0  0  0  0  0  0  0  0  0  0  0  0
  149.1955  141.7342  153.1978 H   0  0  0  0  0  0  0  0  0  0  0  0
  148.3736  139.9347  152.0469 H   0  0  0  0  0  0  0  0  0  0  0  0
  147.2232  138.4447  151.4791 H   0  0  0  0  0  0  0  0  0  0  0  0
  146.6311  135.6798  151.1733 H   0  0  0  0  0  0  0  0  0  0  0  0
  143.8664  138.1665  153.4074 H   0  0  0  0  0  0  0  0  0  0  0  0
  148.7141  139.7823  155.5131 H   0  0  0  0  0  0  0  0  0  0  0  0
  150.3073  142.3798  155.3791 H   0  0  0  0  0  0  0  0  0  0  0  0
  149.2244  141.8657  156.6738 H   0  0  0  0  0  0  0  0  0  0  0  0
  151.9899  141.4054  156.6115 H   0  0  0  0  0  0  0  0  0  0  0  0
  150.8728  140.4125  157.5484 H   0  0  0  0  0  0  0  0  0  0  0  0
  152.3751  139.4884  155.2862 H   0  0  0  0  0  0  0  0  0  0  0  0
  151.0381  138.6474  156.0773 H   0  0  0  0  0  0  0  0  0  0  0  0
  1  2  1  0  0  0  0
  1 18  1  0  0  0  0
  1 19  1  0  0  0  0
  1 20  1  0  0  0  0
  2  3  1  0  0  0  0
  2 12  1  0  0  0  0
  2 21  1  0  0  0  0
  3  4  1  0  0  0  0
  3 22  1  0  0  0  0
  4  5  2  0  0  0  0
  4  6  1  0  0  0  0
  6  7  1  0  0  0  0
  6 23  1  0  0  0  0
  7 11  2  0  0  0  0
  7  8  1  0  0  0  0
  8  9  2  0  0  0  0
  8 24  1  0  0  0  0
  9 10  1  0  0  0  0
 10 17  1  0  0  0  0
 10 11  1  0  0  0  0
 11 25  1  0  0  0  0
 12 16  1  0  0  0  0
 12 13  1  0  0  0  0
 12 26  1  0  0  0  0
 13 14  1  0  0  0  0
 13 27  1  0  0  0  0
 13 28  1  0  0  0  0
 14 15  1  0  0  0  0
 14 29  1  0  0  0  0
 14 30  1  0  0  0  0
 15 16  1  0  0  0  0
 15 31  1  0  0  0  0
 15 32  1  0  0  0  0
M  END
> <s_m_source_file>
AV-unprocessed.smi

> <i_m_source_file_index>
1720

> <i_lp_mmshare_version>
43012

> <i_f3d_flags>
0

> <s_epik_input>
TzFbQ0gyXVtDSDJdW0NIMl1bQ0BIXTFbQ0BIXShbQ0gzXSlbTkhdQyg9TylbTkhdYzJbY0hdbltuSF1bY0hdMg==

> <s_epik_cmdline>
J2VwaWtfcHl0aG9uJywgJy1waCcsICc3LjAnLCAnLXRuJywgJzgnLCAnLW1hJywgJzIwMCcsICctbWV0YWxfYmluZGluZycsICctaW1hZScsICc8aW5maWxlLm1hZT4nLCAnLW9tYWUnLCAnPG91dGZpbGUubWFlPic=

> <r_lp_tautomer_probability>
1

> <r_epik_Ionization_Penalty>
4.95841e-05

> <r_epik_Ionization_Penalty_Charging>
0

> <r_epik_Ionization_Penalty_Neutral>
4.95841e-05

> <r_epik_State_Penalty>
-0

> <r_epik_Charging_Adjusted_Penalty>
0

> <i_epik_Tot_Q>
0

> <i_epik_Tot_abs_Q>
0

> <r_epik_Metal_State_Penalty>
-0

> <b_epik_Metal_Only>
0

> <s_lp_Force_Field>
OPLS_2005

> <r_lp_Energy>
20.531

> <b_lp_Chiralities_Consistent>
1

> <s_lp_Variant>
AV-unprocessed.smi:1720-1

> <Gold.Version>
5.8.1

> <Gold.Id.Protein>
6NUR|6NUR_protein|mol2

> <Gold.PLP.Fitness>
36.3282

> <Gold.PLP.PLP>
-26.4091

> <Gold.PLP.part.hbond>
-2.3169

> <Gold.PLP.part.metal>
0.0000

> <Gold.PLP.part.buried>
-2.5105

> <Gold.PLP.part.nonpolar>
-23.3009

> <Gold.PLP.part.repulsive>
0.5113

> <Gold.PLP.ligand.clash>
0.0000

> <Gold.PLP.ligand.torsion>
0.3854

> <Gold.PLP.Chemscore.Hbond>
1.9333

> <Gold.PLP.Chemscore.CHOScore>
1.6189

> <Gold.PLP.Chemscore.Metal>
0.0000

> <Gold.Chemscore.Hbonds>
donor molecule, donor type, donor heavy atom, donor atom, acceptor molecule, acceptor atom, score
      L1  H     3    22       P1  7957  0.93
      P1  H  7989  7998       L1    16  0.95
      L1  C     8    24       P1  7948  0.83
      L1  C    11    25       P1 10175  0.80

> <Gold.PLP.Chemscore.Internal.Correction>
0.0334

> <Gold.Rescore>
     Score         DG    S(hbond)    S(metal)    S(lipo)     H(rot)  DE(clash)    DE(int)     intcor
     12.86     -14.65       1.87        0.00      53.76       1.31       0.04       1.75       ----

> <Gold.Chemscore.Fitness>
12.8641

> <Gold.Chemscore.DG>
-14.6518

> <Gold.Chemscore.ZeroCoef>
-5.4800

> <Gold.Chemscore.Hbond>
1.8652

> <Gold.Chemscore.Metal>
0.0000

> <Gold.Chemscore.Lipo>
53.7629

> <Gold.Chemscore.Internal_Hbond>
0.0000

> <Gold.Chemscore.DEClash>
0.0367

> <Gold.Chemscore.DEInternal>
1.7510

> <Gold.Chemscore.Rot>
1.3079

> <Gold.Chemscore.Internal.Correction>
   9.000000E+99

> <Gold.Chemscore.Hbonds>
donor molecule, donor type, donor heavy atom, donor atom, acceptor molecule, acceptor atom, score
      L1  H     3    22       P1  7957  0.85
      P1  H  7989  7998       L1    16  0.20

> <Gold.Chemscore.Hbond.Weighted>
-6.2299

> <Gold.Chemscore.Metal.Weighted>
-0.0000

> <Gold.Chemscore.Lipo.Weighted>
-6.2903

> <Gold.Chemscore.Internal_Hbond.Weighted>
0.0000

> <Gold.Chemscore.DEClash.Weighted>
0.0367

> <Gold.Chemscore.DEInternal.Weighted>
1.7510

> <Gold.Chemscore.Rot.Weighted>
3.3483

> <Gold.Chemscore.Internal.Correction.Weighted>
   9.000000E+99

> <Gold.Protein.RotatedTorsions>
[ 6907 6896 6895 6894 ] final  -54.32 input  -60.11 | X-H torsion
[ 7974 7965 7964 7962 ] final   89.65 input  175.53 | X-H torsion
[ 8008 7997 7996 7995 ] final -151.43 input   59.86 | X-H torsion
[ 10167 10162 10161 10158 ] final -171.26 input  -65.29 | X-H torsion
[ 10718 10713 10712 10709 ] final  -19.17 input   66.30 | X-H torsion
[ 10763 10752 10751 10750 ] final  -99.59 input  -60.55 | X-H torsion
[ 11005 11000 10999 10996 ] final -140.30 input  -57.11 | X-H torsion

> <Gold.Protein.ActiveResidues>
 VAL166  LYS551  ARG553  GLY616  TRP617  ASP618  TYR619  PRO620  LYS621  CYS622 
 ASP623  PHE694  ASN695  SER759  ASP760  ASP761  ALA762  ILE779  LEU786  VAL792 
 PHE793  MET794  SER795  GLU796  ALA797  LYS798  CYS799  TRP800  GLU811  SER814 

> <Gold.Protein.RotatedAtoms>
  150.8348  134.7617  159.6883 H   0  0  0  0  0  0  0  0  0  0  0  0  # atno 6907 bound_to 6896
  152.4447  134.5516  159.9878 H   0  0  0  0  0  0  0  0  0  0  0  0  # atno 6908 bound_to 6896
  151.5668  133.3357  159.3017 H   0  0  0  0  0  0  0  0  0  0  0  0  # atno 6909 bound_to 6896
  145.5295  139.2282  143.2626 H   0  0  0  0  0  0  0  0  0  0  0  0  # atno 7974 bound_to 7965
  155.6392  140.0700  157.2624 H   0  0  0  0  0  0  0  0  0  0  0  0  # atno 8008 bound_to 7997
  154.4187  140.1753  156.1604 H   0  0  0  0  0  0  0  0  0  0  0  0  # atno 8009 bound_to 7997
  155.9869  140.3348  155.6719 H   0  0  0  0  0  0  0  0  0  0  0  0  # atno 8010 bound_to 7997
  139.5813  144.1417  152.1518 H   0  0  0  0  0  0  0  0  0  0  0  0  # atno 10167 bound_to 10162
  156.5494  130.4698  149.6459 H   0  0  0  0  0  0  0  0  0  0  0  0  # atno 10718 bound_to 10713
  154.7510  135.4966  153.9289 H   0  0  0  0  0  0  0  0  0  0  0  0  # atno 10763 bound_to 10752
  153.1144  135.6717  153.9452 H   0  0  0  0  0  0  0  0  0  0  0  0  # atno 10764 bound_to 10752
  153.9202  135.3089  155.3426 H   0  0  0  0  0  0  0  0  0  0  0  0  # atno 10765 bound_to 10752
  140.8436  134.2372  157.4797 H   0  0  0  0  0  0  0  0  0  0  0  0  # atno 11005 bound_to 11000
  146.2053  140.6111  142.9084 LP  0  0  0  0  0  0  0  0  0  0  0  0  # atno 17320 bound_to 7965
  144.7633  140.5473  143.6720 LP  0  0  0  0  0  0  0  0  0  0  0  0  # atno 17321 bound_to 7965
  140.0971  144.5571  150.7014 LP  0  0  0  0  0  0  0  0  0  0  0  0  # atno 17342 bound_to 10162
  140.7091  143.2490  151.4637 LP  0  0  0  0  0  0  0  0  0  0  0  0  # atno 17343 bound_to 10162
  156.2899  130.7118  151.1964 LP  0  0  0  0  0  0  0  0  0  0  0  0  # atno 17370 bound_to 10713
  157.7390  131.0534  150.5257 LP  0  0  0  0  0  0  0  0  0  0  0  0  # atno 17371 bound_to 10713
  139.8703  134.9648  156.4507 LP  0  0  0  0  0  0  0  0  0  0  0  0  # atno 17394 bound_to 11000
  140.8868  133.7877  155.9527 LP  0  0  0  0  0  0  0  0  0  0  0  0  # atno 17395 bound_to 11000

$$$$
