AV-unprocessed.smi:3234|AV-procd|sdf|12357|dock7
  -GOLD-   2272018213D 1   1.00000     0.00000
 Structure written by MMmdl.
 37 39  0  0  0  0  0  0  0  0  4 V2000
  152.6249  139.8655  156.3136 O   0  0  0  0  0  0  0  0  0  0  0  0
  151.6615  140.4937  155.8598 C   0  0  0  0  0  0  0  0  0  0  0  0
  151.2626  141.6398  156.4401 N   0  0  0  0  0  0  0  0  0  0  0  0
  151.7615  142.2736  157.6104 C   0  0  0  0  0  0  0  0  0  0  0  0
  151.6953  143.6831  157.6707 C   0  0  0  0  0  0  0  0  0  0  0  0
  152.1600  144.3523  158.8210 C   0  0  0  0  0  0  0  0  0  0  0  0
  152.6521  143.6425  159.8594 N   0  3  0  0  0  0  0  0  0  0  0  0
  152.7181  142.2938  159.8554 C   0  0  0  0  0  0  0  0  0  0  0  0
  152.2679  141.5701  158.7326 C   0  0  0  0  0  0  0  0  0  0  0  0
  150.9124  140.1831  154.7670 N   0  5  0  0  0  0  0  0  0  0  0  0
  150.5546  138.8224  154.3614 C   0  0  1  0  0  0  0  0  0  0  0  0
  151.1483  137.7758  155.3057 C   0  0  0  0  0  0  0  0  0  0  0  0
  150.1876  136.5812  155.2039 C   0  0  0  0  0  0  0  0  0  0  0  0
  148.9516  137.0823  154.5580 N   0  3  1  0  0  0  0  0  0  0  0  0
  147.6976  136.5885  155.1664 C   0  0  0  0  0  0  0  0  0  0  0  0
  147.1726  135.3268  154.5243 C   0  0  0  0  0  0  0  0  0  0  0  0
  146.5092  136.6567  154.2374 C   0  0  0  0  0  0  0  0  0  0  0  0
  149.0546  138.5525  154.4883 C   0  0  0  0  0  0  0  0  0  0  0  0
  150.5420  142.1445  155.9451 H   0  0  0  0  0  0  0  0  0  0  0  0
  151.2973  144.2490  156.8405 H   0  0  0  0  0  0  0  0  0  0  0  0
  152.1497  145.4257  158.9421 H   0  0  0  0  0  0  0  0  0  0  0  0
  153.1191  141.8353  160.7475 H   0  0  0  0  0  0  0  0  0  0  0  0
  152.3058  140.4917  158.7568 H   0  0  0  0  0  0  0  0  0  0  0  0
  150.8711  138.5908  153.3428 H   0  0  0  0  0  0  0  0  0  0  0  0
  152.1739  137.5120  155.0449 H   0  0  0  0  0  0  0  0  0  0  0  0
  151.1531  138.1443  156.3333 H   0  0  0  0  0  0  0  0  0  0  0  0
  150.6070  135.7807  154.5926 H   0  0  0  0  0  0  0  0  0  0  0  0
  149.9887  136.1669  156.1937 H   0  0  0  0  0  0  0  0  0  0  0  0
  147.5745  136.7604  156.2343 H   0  0  0  0  0  0  0  0  0  0  0  0
  147.7577  134.8738  153.7257 H   0  0  0  0  0  0  0  0  0  0  0  0
  146.6329  134.6272  155.1596 H   0  0  0  0  0  0  0  0  0  0  0  0
  145.5332  136.8346  154.6846 H   0  0  0  0  0  0  0  0  0  0  0  0
  146.6530  137.0886  153.2485 H   0  0  0  0  0  0  0  0  0  0  0  0
  148.6619  138.9894  155.4090 H   0  0  0  0  0  0  0  0  0  0  0  0
  148.4828  138.9540  153.6511 H   0  0  0  0  0  0  0  0  0  0  0  0
  148.9805  136.7555  153.6029 H   0  0  0  0  0  0  0  0  0  0  0  0
  152.9816  144.1455  160.6836 H   0  0  0  0  0  0  0  0  0  0  0  0
  1  2  2  0  0  0  0
  2  3  1  0  0  0  0
  2 10  1  0  0  0  0
  3  4  1  0  0  0  0
  3 19  1  0  0  0  0
  4  9  1  0  0  0  0
  4  5  2  0  0  0  0
  5  6  1  0  0  0  0
  5 20  1  0  0  0  0
  6  7  2  0  0  0  0
  6 21  1  0  0  0  0
  7  8  1  0  0  0  0
  7 37  1  0  0  0  0
  8  9  2  0  0  0  0
  8 22  1  0  0  0  0
  9 23  1  0  0  0  0
 10 11  1  0  0  0  0
 11 18  1  0  0  0  0
 11 12  1  0  0  0  0
 11 24  1  0  0  0  0
 12 13  1  0  0  0  0
 12 25  1  0  0  0  0
 12 26  1  0  0  0  0
 13 14  1  0  0  0  0
 13 27  1  0  0  0  0
 13 28  1  0  0  0  0
 14 15  1  0  0  0  0
 14 18  1  0  0  0  0
 14 36  1  0  0  0  0
 15 17  1  0  0  0  0
 15 16  1  0  0  0  0
 15 29  1  0  0  0  0
 16 17  1  0  0  0  0
 16 30  1  0  0  0  0
 16 31  1  0  0  0  0
 17 32  1  0  0  0  0
 17 33  1  0  0  0  0
 18 34  1  0  0  0  0
 18 35  1  0  0  0  0
M  CHG  1   7   1
M  CHG  1  10  -1
M  CHG  1  14   1
M  END
> <s_m_source_file>
AV-unprocessed.smi

> <i_m_source_file_index>
3234

> <i_lp_mmshare_version>
43012

> <i_f3d_flags>
0

> <s_epik_input>
W2NIXTFbY0hdbltjSF1bY0hdYzFbTkhdQyg9TylbTkhdW0NAQEhdMltDSDJdW0NIMl1OKFtDSDJdMilbQ0hdM1tDSDJdW0NIMl0z

> <s_epik_cmdline>
J2VwaWtfcHl0aG9uJywgJy1waCcsICc3LjAnLCAnLXRuJywgJzgnLCAnLW1hJywgJzIwMCcsICctbWV0YWxfYmluZGluZycsICctaW1hZScsICc8aW5maWxlLm1hZT4nLCAnLW9tYWUnLCAnPG91dGZpbGUubWFlPic=

> <r_epik_Ionization_Penalty>
8.3234

> <r_epik_Ionization_Penalty_Charging>
8.3234

> <r_epik_Ionization_Penalty_Neutral>
3.58513e-06

> <r_epik_State_Penalty>
7.99376

> <r_epik_Charging_Adjusted_Penalty>
16.3172

> <i_epik_Tot_Q>
1

> <i_epik_Tot_abs_Q>
3

> <r_epik_Metal_State_Penalty>
3.98956

> <b_epik_Metal_Only>
1

> <s_lp_Force_Field>
OPLS_2005

> <r_lp_Energy>
39.5194

> <b_lp_Chiralities_Consistent>
1

> <s_lp_Variant>
AV-unprocessed.smi:3234-10

> <Gold.Version>
5.8.1

> <Gold.Id.Protein>
6NUR|6NUR_protein|mol2

> <Gold.PLP.Fitness>
43.4079

> <Gold.PLP.PLP>
-32.3884

> <Gold.PLP.part.hbond>
-3.0000

> <Gold.PLP.part.metal>
0.0000

> <Gold.PLP.part.buried>
-4.3187

> <Gold.PLP.part.nonpolar>
-24.1799

> <Gold.PLP.part.repulsive>
0.2183

> <Gold.PLP.ligand.clash>
0.0000

> <Gold.PLP.ligand.torsion>
1.1300

> <Gold.PLP.Chemscore.Hbond>
4.0000

> <Gold.PLP.Chemscore.CHOScore>
0.0000

> <Gold.PLP.Chemscore.Metal>
0.0000

> <Gold.Chemscore.Hbonds>
donor molecule, donor type, donor heavy atom, donor atom, acceptor molecule, acceptor atom, score
      L1  H    14    36       P1  7948  2.00
      P1  H  7989  7998       L1    10  1.00
      P1  H  7997  8010       L1     1  1.00

> <Gold.PLP.Chemscore.Internal.Correction>
1.2796

> <Gold.Rescore>
     Score         DG    S(hbond)    S(metal)    S(lipo)     H(rot)  DE(clash)    DE(int)     intcor
     16.80     -20.64       2.55        0.00      83.26       1.21       0.11       3.73       ----

> <Gold.Chemscore.Fitness>
16.8026

> <Gold.Chemscore.DG>
-20.6398

> <Gold.Chemscore.ZeroCoef>
-5.4800

> <Gold.Chemscore.Hbond>
2.5503

> <Gold.Chemscore.Metal>
0.0000

> <Gold.Chemscore.Lipo>
83.2595

> <Gold.Chemscore.Internal_Hbond>
0.0000

> <Gold.Chemscore.DEClash>
0.1105

> <Gold.Chemscore.DEInternal>
3.7268

> <Gold.Chemscore.Rot>
1.2108

> <Gold.Chemscore.Internal.Correction>
   9.000000E+99

> <Gold.Chemscore.Hbonds>
donor molecule, donor type, donor heavy atom, donor atom, acceptor molecule, acceptor atom, score
      L1  H    14    36       P1  7948  1.00
      P1  H  7989  7998       L1    10  0.36
      P1  H  7997  8010       L1     1  0.99

> <Gold.Chemscore.Hbond.Weighted>
-8.5180

> <Gold.Chemscore.Metal.Weighted>
-0.0000

> <Gold.Chemscore.Lipo.Weighted>
-9.7414

> <Gold.Chemscore.Internal_Hbond.Weighted>
0.0000

> <Gold.Chemscore.DEClash.Weighted>
0.1105

> <Gold.Chemscore.DEInternal.Weighted>
3.7268

> <Gold.Chemscore.Rot.Weighted>
3.0996

> <Gold.Chemscore.Internal.Correction.Weighted>
   9.000000E+99

> <Gold.Protein.RotatedTorsions>
[ 6907 6896 6895 6894 ] final -108.43 input  -60.11 | X-H torsion
[ 7974 7965 7964 7962 ] final   74.54 input  175.53 | X-H torsion
[ 8008 7997 7996 7995 ] final   88.20 input   59.86 | X-H torsion
[ 10167 10162 10161 10158 ] final   -1.80 input  -65.29 | X-H torsion
[ 10718 10713 10712 10709 ] final -116.37 input   66.30 | X-H torsion
[ 10763 10752 10751 10750 ] final   65.19 input  -60.55 | X-H torsion
[ 11005 11000 10999 10996 ] final  122.52 input  -57.11 | X-H torsion

> <Gold.Protein.ActiveResidues>
 VAL166  LYS551  ARG553  GLY616  TRP617  ASP618  TYR619  PRO620  LYS621  CYS622 
 ASP623  PHE694  ASN695  SER759  ASP760  ASP761  ALA762  ILE779  LEU786  VAL792 
 PHE793  MET794  SER795  GLU796  ALA797  LYS798  CYS799  TRP800  GLU811  SER814 

> <Gold.Protein.RotatedAtoms>
  150.7501  133.9679  159.3536 H   0  0  0  0  0  0  0  0  0  0  0  0  # atno 6907 bound_to 6896
  151.7611  135.0808  160.0355 H   0  0  0  0  0  0  0  0  0  0  0  0  # atno 6908 bound_to 6896
  152.3403  133.6022  159.5907 H   0  0  0  0  0  0  0  0  0  0  0  0  # atno 6909 bound_to 6896
  145.7269  139.2669  143.1564 H   0  0  0  0  0  0  0  0  0  0  0  0  # atno 7974 bound_to 7965
  155.9849  140.3374  155.6698 H   0  0  0  0  0  0  0  0  0  0  0  0  # atno 8008 bound_to 7997
  155.6499  140.0704  157.2608 H   0  0  0  0  0  0  0  0  0  0  0  0  # atno 8009 bound_to 7997
  154.4202  140.1727  156.1651 H   0  0  0  0  0  0  0  0  0  0  0  0  # atno 8010 bound_to 7997
  140.6825  143.6732  150.8167 H   0  0  0  0  0  0  0  0  0  0  0  0  # atno 10167 bound_to 10162
  156.0959  130.6132  150.9027 H   0  0  0  0  0  0  0  0  0  0  0  0  # atno 10718 bound_to 10713
  153.0086  135.5366  154.6628 H   0  0  0  0  0  0  0  0  0  0  0  0  # atno 10763 bound_to 10752
  154.5832  135.2852  155.0714 H   0  0  0  0  0  0  0  0  0  0  0  0  # atno 10764 bound_to 10752
  154.1835  135.6512  153.5093 H   0  0  0  0  0  0  0  0  0  0  0  0  # atno 10765 bound_to 10752
  139.9272  134.9641  156.8121 H   0  0  0  0  0  0  0  0  0  0  0  0  # atno 11005 bound_to 11000
  146.0574  140.8007  142.9752 LP  0  0  0  0  0  0  0  0  0  0  0  0  # atno 17320 bound_to 7965
  144.6902  140.3144  143.7243 LP  0  0  0  0  0  0  0  0  0  0  0  0  # atno 17321 bound_to 7965
  140.0435  143.5322  152.2707 LP  0  0  0  0  0  0  0  0  0  0  0  0  # atno 17342 bound_to 10162
  139.6158  144.7619  151.2850 LP  0  0  0  0  0  0  0  0  0  0  0  0  # atno 17343 bound_to 10162
  157.6120  131.0936  150.8778 LP  0  0  0  0  0  0  0  0  0  0  0  0  # atno 17370 bound_to 10713
  156.8916  130.5215  149.5286 LP  0  0  0  0  0  0  0  0  0  0  0  0  # atno 17371 bound_to 10713
  140.6303  133.9911  155.7659 LP  0  0  0  0  0  0  0  0  0  0  0  0  # atno 17394 bound_to 11000
  141.0837  134.0023  157.3346 LP  0  0  0  0  0  0  0  0  0  0  0  0  # atno 17395 bound_to 11000

$$$$
