AV-unprocessed.smi:282|AV-procd|sdf|2119|dock7
  -GOLD-   2262021423D 1   1.00000     0.00000
 Structure written by MMmdl.
 65 69  0  0  0  0  0  0  0  0  2 V2000
  148.5793  132.7590  153.1944 C   0  0  0  0  0  0  0  0  0  0  0  0
  147.7644  133.0557  154.4608 C   0  0  0  0  0  0  0  0  0  0  0  0
  146.2738  133.3991  154.1965 C   0  0  2  0  0  0  0  0  0  0  0  0
  145.7632  132.6847  152.9230 C   0  0  0  0  0  0  0  0  0  0  0  0
  144.3666  133.0624  152.5834 N   0  3  2  0  0  0  0  0  0  0  0  0
  143.8256  132.3399  151.4022 C   0  0  0  0  0  0  0  0  0  0  0  0
  144.3937  132.8842  150.0767 C   0  0  0  0  0  0  0  0  0  0  0  0
  144.1779  134.4000  149.9629 C   0  0  0  0  0  0  0  0  0  0  0  0
  144.7451  135.1179  151.1963 C   0  0  0  0  0  0  0  0  0  0  0  0
  144.1505  134.5327  152.4961 C   0  0  2  0  0  0  0  0  0  0  0  0
  144.6709  135.2338  153.7615 C   0  0  0  0  0  0  0  0  0  0  0  0
  146.0430  134.8453  154.0754 N   0  0  0  0  0  0  0  0  0  0  0  0
  146.5435  135.6056  155.0751 C   0  0  0  0  0  0  0  0  0  0  0  0
  146.4811  135.1688  156.3606 N   0  0  0  0  0  0  0  0  0  0  0  0
  146.9895  135.9207  157.3423 C   0  0  0  0  0  0  0  0  0  0  0  0
  147.5895  137.1109  157.2579 N   0  0  0  0  0  0  0  0  0  0  0  0
  147.6518  137.5467  155.9664 C   0  0  0  0  0  0  0  0  0  0  0  0
  147.1575  136.8591  154.8242 C   0  0  0  0  0  0  0  0  0  0  0  0
  147.4064  137.5954  153.6744 N   0  0  0  0  0  0  0  0  0  0  0  0
  148.0206  138.6605  154.1123 C   0  0  0  0  0  0  0  0  0  0  0  0
  148.1953  138.7228  155.4777 N   0  0  0  0  0  0  0  0  0  0  0  0
  148.8509  139.7862  156.2258 C   0  0  0  0  0  0  0  0  0  0  0  0
  149.9277  140.5914  155.4315 C   0  0  0  0  0  0  0  0  0  0  0  0
  149.2033  141.4891  154.3898 C   0  0  0  0  0  0  0  0  0  0  0  0
  148.1667  142.2728  154.9477 O   0  0  0  0  0  0  0  0  0  0  0  0
  150.7349  141.4667  156.4249 C   0  0  0  0  0  0  0  0  0  0  0  0
  151.6770  140.6370  157.3193 C   0  0  0  0  0  0  0  0  0  0  0  0
  152.5441  139.8430  156.5184 O   0  0  0  0  0  0  0  0  0  0  0  0
  151.8487  138.9104  155.7001 C   0  0  0  0  0  0  0  0  0  0  0  0
  150.9385  139.6610  154.7118 C   0  0  0  0  0  0  0  0  0  0  0  0
  149.5807  132.4163  153.4558 H   0  0  0  0  0  0  0  0  0  0  0  0
  148.6958  133.6434  152.5687 H   0  0  0  0  0  0  0  0  0  0  0  0
  148.1082  131.9781  152.5968 H   0  0  0  0  0  0  0  0  0  0  0  0
  147.8415  132.1720  155.0945 H   0  0  0  0  0  0  0  0  0  0  0  0
  148.2383  133.8661  155.0163 H   0  0  0  0  0  0  0  0  0  0  0  0
  145.6844  133.0450  155.0438 H   0  0  0  0  0  0  0  0  0  0  0  0
  146.4248  132.9136  152.0872 H   0  0  0  0  0  0  0  0  0  0  0  0
  145.7955  131.6041  153.0606 H   0  0  0  0  0  0  0  0  0  0  0  0
  144.0245  131.2717  151.4935 H   0  0  0  0  0  0  0  0  0  0  0  0
  142.7404  132.4491  151.4022 H   0  0  0  0  0  0  0  0  0  0  0  0
  145.4574  132.6573  150.0010 H   0  0  0  0  0  0  0  0  0  0  0  0
  143.9167  132.3795  149.2359 H   0  0  0  0  0  0  0  0  0  0  0  0
  144.6482  134.7804  149.0556 H   0  0  0  0  0  0  0  0  0  0  0  0
  143.1117  134.6123  149.8732 H   0  0  0  0  0  0  0  0  0  0  0  0
  145.8325  135.0359  151.2023 H   0  0  0  0  0  0  0  0  0  0  0  0
  144.5218  136.1834  151.1319 H   0  0  0  0  0  0  0  0  0  0  0  0
  143.0721  134.6962  152.4603 H   0  0  0  0  0  0  0  0  0  0  0  0
  144.6035  136.3166  153.6417 H   0  0  0  0  0  0  0  0  0  0  0  0
  144.0285  134.9719  154.6037 H   0  0  0  0  0  0  0  0  0  0  0  0
  146.9057  135.5093  158.3374 H   0  0  0  0  0  0  0  0  0  0  0  0
  148.3621  139.4387  153.4453 H   0  0  0  0  0  0  0  0  0  0  0  0
  148.0774  140.4654  156.5874 H   0  0  0  0  0  0  0  0  0  0  0  0
  149.2722  139.3322  157.1210 H   0  0  0  0  0  0  0  0  0  0  0  0
  149.9046  142.1750  153.9151 H   0  0  0  0  0  0  0  0  0  0  0  0
  148.7732  140.8777  153.5958 H   0  0  0  0  0  0  0  0  0  0  0  0
  148.5328  143.0955  155.2350 H   0  0  0  0  0  0  0  0  0  0  0  0
  151.3524  142.1818  155.8809 H   0  0  0  0  0  0  0  0  0  0  0  0
  150.0622  142.0622  157.0429 H   0  0  0  0  0  0  0  0  0  0  0  0
  152.2861  141.3038  157.9298 H   0  0  0  0  0  0  0  0  0  0  0  0
  151.1246  140.0045  158.0142 H   0  0  0  0  0  0  0  0  0  0  0  0
  152.5808  138.3181  155.1509 H   0  0  0  0  0  0  0  0  0  0  0  0
  151.2846  138.2122  156.3188 H   0  0  0  0  0  0  0  0  0  0  0  0
  150.4302  138.9582  154.0530 H   0  0  0  0  0  0  0  0  0  0  0  0
  151.5841  140.2510  154.0605 H   0  0  0  0  0  0  0  0  0  0  0  0
  143.8161  132.7526  153.3717 H   0  0  0  0  0  0  0  0  0  0  0  0
  1  2  1  0  0  0  0
  1 31  1  0  0  0  0
  1 32  1  0  0  0  0
  1 33  1  0  0  0  0
  2  3  1  0  0  0  0
  2 34  1  0  0  0  0
  2 35  1  0  0  0  0
  3 12  1  0  0  0  0
  3  4  1  0  0  0  0
  3 36  1  0  0  0  0
  4  5  1  0  0  0  0
  4 37  1  0  0  0  0
  4 38  1  0  0  0  0
  5 10  1  0  0  0  0
  5  6  1  0  0  0  0
  5 65  1  0  0  0  0
  6  7  1  0  0  0  0
  6 39  1  0  0  0  0
  6 40  1  0  0  0  0
  7  8  1  0  0  0  0
  7 41  1  0  0  0  0
  7 42  1  0  0  0  0
  8  9  1  0  0  0  0
  8 43  1  0  0  0  0
  8 44  1  0  0  0  0
  9 10  1  0  0  0  0
  9 45  1  0  0  0  0
  9 46  1  0  0  0  0
 10 11  1  0  0  0  0
 10 47  1  0  0  0  0
 11 12  1  0  0  0  0
 11 48  1  0  0  0  0
 11 49  1  0  0  0  0
 12 13  1  0  0  0  0
 13 18  1  0  0  0  0
 13 14  2  0  0  0  0
 14 15  1  0  0  0  0
 15 16  2  0  0  0  0
 15 50  1  0  0  0  0
 16 17  1  0  0  0  0
 17 21  1  0  0  0  0
 17 18  2  0  0  0  0
 18 19  1  0  0  0  0
 19 20  2  0  0  0  0
 20 21  1  0  0  0  0
 20 51  1  0  0  0  0
 21 22  1  0  0  0  0
 22 23  1  0  0  0  0
 22 52  1  0  0  0  0
 22 53  1  0  0  0  0
 23 30  1  0  0  0  0
 23 24  1  0  0  0  0
 23 26  1  0  0  0  0
 24 25  1  0  0  0  0
 24 54  1  0  0  0  0
 24 55  1  0  0  0  0
 25 56  1  0  0  0  0
 26 27  1  0  0  0  0
 26 57  1  0  0  0  0
 26 58  1  0  0  0  0
 27 28  1  0  0  0  0
 27 59  1  0  0  0  0
 27 60  1  0  0  0  0
 28 29  1  0  0  0  0
 29 30  1  0  0  0  0
 29 61  1  0  0  0  0
 29 62  1  0  0  0  0
 30 63  1  0  0  0  0
 30 64  1  0  0  0  0
M  CHG  1   5   1
M  END
> <s_m_source_file>
AV-unprocessed.smi

> <i_m_source_file_index>
282

> <i_lp_mmshare_version>
43012

> <i_f3d_flags>
0

> <s_epik_input>
W0NIMl0xW0NIMl1bQ0gyXVtDSDJdW0NAQEhdKE4xMilbQ0gyXU4oW0NAQEhdKFtDSDJdMilbQ0gyXVtDSDNdKWMobltjSF1uMyljKGMzNCluW2NIXW40W0NIMl1DNShbQ0gyXVtPSF0pW0NIMl1bQ0gyXU9bQ0gyXVtDSDJdNQ==

> <s_epik_cmdline>
J2VwaWtfcHl0aG9uJywgJy1waCcsICc3LjAnLCAnLXRuJywgJzgnLCAnLW1hJywgJzIwMCcsICctbWV0YWxfYmluZGluZycsICctaW1hZScsICc8aW5maWxlLm1hZT4nLCAnLW9tYWUnLCAnPG91dGZpbGUubWFlPic=

> <r_lp_tautomer_probability>
1

> <r_epik_Ionization_Penalty>
0.00308583

> <r_epik_Ionization_Penalty_Charging>
0.00300384

> <r_epik_Ionization_Penalty_Neutral>
8.19894e-05

> <r_epik_State_Penalty>
-0

> <r_epik_Charging_Adjusted_Penalty>
0.00300384

> <i_epik_Tot_Q>
1

> <i_epik_Tot_abs_Q>
1

> <r_epik_Metal_State_Penalty>
-0

> <b_epik_Metal_Only>
0

> <s_lp_Force_Field>
OPLS_2005

> <r_lp_Energy>
60.5871

> <b_lp_Chiralities_Consistent>
1

> <s_lp_Variant>
AV-unprocessed.smi:282-3

> <Gold.Version>
5.8.1

> <Gold.Id.Protein>
6NUR|6NUR_protein|mol2

> <Gold.PLP.Fitness>
45.1912

> <Gold.PLP.PLP>
-34.6532

> <Gold.PLP.part.hbond>
-2.9263

> <Gold.PLP.part.metal>
0.0000

> <Gold.PLP.part.buried>
-0.8646

> <Gold.PLP.part.nonpolar>
-33.2151

> <Gold.PLP.part.repulsive>
2.4765

> <Gold.PLP.ligand.clash>
0.0000

> <Gold.PLP.ligand.torsion>
1.5645

> <Gold.PLP.Chemscore.Hbond>
3.8850

> <Gold.PLP.Chemscore.CHOScore>
0.5987

> <Gold.PLP.Chemscore.Metal>
0.0000

> <Gold.Chemscore.Hbonds>
donor molecule, donor type, donor heavy atom, donor atom, acceptor molecule, acceptor atom, score
      L1  H     5    65       P1 10957  1.85
      L1  H    25    56       P1  8028  1.00
      P1  H  7997  8009       L1    28  1.00
      L1  C    20    51       P1  7957  0.66

> <Gold.PLP.Chemscore.Internal.Correction>
0.2158

> <Gold.Rescore>
     Score         DG    S(hbond)    S(metal)    S(lipo)     H(rot)  DE(clash)    DE(int)     intcor
     16.93     -19.31       2.79        0.00      92.30       2.46       0.69       1.68       ----

> <Gold.Chemscore.Fitness>
16.9340

> <Gold.Chemscore.DG>
-19.3101

> <Gold.Chemscore.ZeroCoef>
-5.4800

> <Gold.Chemscore.Hbond>
2.7911

> <Gold.Chemscore.Metal>
0.0000

> <Gold.Chemscore.Lipo>
92.3034

> <Gold.Chemscore.Internal_Hbond>
0.0000

> <Gold.Chemscore.DEClash>
0.6927

> <Gold.Chemscore.DEInternal>
1.6835

> <Gold.Chemscore.Rot>
2.4576

> <Gold.Chemscore.Internal.Correction>
   9.000000E+99

> <Gold.Chemscore.Hbonds>
donor molecule, donor type, donor heavy atom, donor atom, acceptor molecule, acceptor atom, score
      L1  H     5    65       P1 10957  0.44
      L1  H    25    56       P1  8028  1.00
      P1  H  7997  8009       L1    28  0.98

> <Gold.Chemscore.Hbond.Weighted>
-9.3222

> <Gold.Chemscore.Metal.Weighted>
-0.0000

> <Gold.Chemscore.Lipo.Weighted>
-10.7995

> <Gold.Chemscore.Internal_Hbond.Weighted>
0.0000

> <Gold.Chemscore.DEClash.Weighted>
0.6927

> <Gold.Chemscore.DEInternal.Weighted>
1.6835

> <Gold.Chemscore.Rot.Weighted>
6.2915

> <Gold.Chemscore.Internal.Correction.Weighted>
   9.000000E+99

> <Gold.Protein.RotatedTorsions>
[ 6907 6896 6895 6894 ] final    9.59 input  -60.11 | X-H torsion
[ 7974 7965 7964 7962 ] final -140.98 input  175.53 | X-H torsion
[ 8008 7997 7996 7995 ] final -160.57 input   59.86 | X-H torsion
[ 10167 10162 10161 10158 ] final  167.14 input  -65.29 | X-H torsion
[ 10718 10713 10712 10709 ] final  134.35 input   66.30 | X-H torsion
[ 10763 10752 10751 10750 ] final   67.17 input  -60.55 | X-H torsion
[ 11005 11000 10999 10996 ] final  150.55 input  -57.11 | X-H torsion

> <Gold.Protein.ActiveResidues>
 VAL166  LYS551  ARG553  GLY616  TRP617  ASP618  TYR619  PRO620  LYS621  CYS622 
 ASP623  PHE694  ASN695  SER759  ASP760  ASP761  ALA762  ILE779  LEU786  VAL792 
 PHE793  MET794  SER795  GLU796  ALA797  LYS798  CYS799  TRP800  GLU811  SER814 

> <Gold.Protein.RotatedAtoms>
  151.7246  135.0887  160.0289 H   0  0  0  0  0  0  0  0  0  0  0  0  # atno 6907 bound_to 6896
  152.3580  133.6257  159.6002 H   0  0  0  0  0  0  0  0  0  0  0  0  # atno 6908 bound_to 6896
  150.7584  133.9386  159.3490 H   0  0  0  0  0  0  0  0  0  0  0  0  # atno 6909 bound_to 6896
  144.8554  140.6134  143.5362 H   0  0  0  0  0  0  0  0  0  0  0  0  # atno 7974 bound_to 7965
  155.7795  140.0863  157.2067 H   0  0  0  0  0  0  0  0  0  0  0  0  # atno 8008 bound_to 7997
  154.3991  140.1510  156.3093 H   0  0  0  0  0  0  0  0  0  0  0  0  # atno 8009 bound_to 7997
  155.8668  140.3427  155.5796 H   0  0  0  0  0  0  0  0  0  0  0  0  # atno 8010 bound_to 7997
  139.4939  144.3953  151.9471 H   0  0  0  0  0  0  0  0  0  0  0  0  # atno 10167 bound_to 10162
  157.4681  131.1078  150.9836 H   0  0  0  0  0  0  0  0  0  0  0  0  # atno 10718 bound_to 10713
  153.0173  135.5294  154.6938 H   0  0  0  0  0  0  0  0  0  0  0  0  # atno 10763 bound_to 10752
  154.6065  135.2873  155.0481 H   0  0  0  0  0  0  0  0  0  0  0  0  # atno 10764 bound_to 10752
  154.1518  135.6561  153.5018 H   0  0  0  0  0  0  0  0  0  0  0  0  # atno 10765 bound_to 10752
  140.1141  134.8906  157.1978 H   0  0  0  0  0  0  0  0  0  0  0  0  # atno 11005 bound_to 11000
  145.4416  139.1535  143.3967 LP  0  0  0  0  0  0  0  0  0  0  0  0  # atno 17320 bound_to 7965
  146.2819  140.4537  142.8773 LP  0  0  0  0  0  0  0  0  0  0  0  0  # atno 17321 bound_to 7965
  140.3391  144.3225  150.5971 LP  0  0  0  0  0  0  0  0  0  0  0  0  # atno 17342 bound_to 10162
  140.5581  143.2196  151.7813 LP  0  0  0  0  0  0  0  0  0  0  0  0  # atno 17343 bound_to 10162
  157.0610  130.5825  149.5386 LP  0  0  0  0  0  0  0  0  0  0  0  0  # atno 17370 bound_to 10713
  156.0060  130.5147  150.7831 LP  0  0  0  0  0  0  0  0  0  0  0  0  # atno 17371 bound_to 10713
  140.3052  134.3086  155.7280 LP  0  0  0  0  0  0  0  0  0  0  0  0  # atno 17394 bound_to 11000
  141.2137  133.7616  156.9698 LP  0  0  0  0  0  0  0  0  0  0  0  0  # atno 17395 bound_to 11000

$$$$
