AV-unprocessed.smi:1508|AV-procd|sdf|6086|dock7
  -GOLD-   22720 6213D 1   1.00000     0.00000
 Structure written by MMmdl.
 38 39  0  0  0  0  0  0  0  0  2 V2000
  147.5640  130.5830  154.9419 C   0  0  0  0  0  0  0  0  0  0  0  0
  147.0056  131.8504  154.2755 C   0  0  0  0  0  0  0  0  0  0  0  0
  148.0545  132.6980  153.5055 C   0  0  2  0  0  0  0  0  0  0  0  0
  149.0899  133.3608  154.4554 C   0  0  0  0  0  0  0  0  0  0  0  0
  149.3869  134.7449  154.0994 N   0  0  0  0  0  0  0  0  0  0  0  0
  150.1295  135.5822  154.8375 C   0  0  0  0  0  0  0  0  0  0  0  0
  150.6466  135.2604  155.9071 O   0  0  0  0  0  0  0  0  0  0  0  0
  150.2206  136.7912  154.2607 N   0  0  0  0  0  0  0  0  0  0  0  0
  150.8993  137.9379  154.7437 C   0  0  0  0  0  0  0  0  0  0  0  0
  150.4827  139.1378  154.3225 N   0  0  0  0  0  0  0  0  0  0  0  0
  151.2300  140.1713  154.8741 N   0  0  0  0  0  0  0  0  0  0  0  0
  152.1824  139.7096  155.6902 C   0  0  0  0  0  0  0  0  0  0  0  0
  152.2620  137.9656  155.8670 S   0  0  0  0  0  0  0  0  0  0  0  0
  147.4149  133.7116  152.6154 N   0  3  0  0  0  0  0  0  0  0  0  0
  146.9760  133.2038  151.2904 C   0  0  0  0  0  0  0  0  0  0  0  0
  145.6807  133.9419  150.9238 C   0  0  0  0  0  0  0  0  0  0  0  0
  145.5306  135.0255  151.9854 C   0  0  0  0  0  0  0  0  0  0  0  0
  146.2588  134.4361  153.1873 C   0  0  0  0  0  0  0  0  0  0  0  0
  146.7811  130.0671  155.4980 H   0  0  0  0  0  0  0  0  0  0  0  0
  148.3644  130.8168  155.6439 H   0  0  0  0  0  0  0  0  0  0  0  0
  147.9551  129.8805  154.2061 H   0  0  0  0  0  0  0  0  0  0  0  0
  146.2029  131.5594  153.5976 H   0  0  0  0  0  0  0  0  0  0  0  0
  146.5107  132.4603  155.0311 H   0  0  0  0  0  0  0  0  0  0  0  0
  148.5938  132.0111  152.8510 H   0  0  0  0  0  0  0  0  0  0  0  0
  148.7473  133.3440  155.4907 H   0  0  0  0  0  0  0  0  0  0  0  0
  150.0252  132.8012  154.4451 H   0  0  0  0  0  0  0  0  0  0  0  0
  148.9994  135.0879  153.2321 H   0  0  0  0  0  0  0  0  0  0  0  0
  149.7451  136.9101  153.3782 H   0  0  0  0  0  0  0  0  0  0  0  0
  152.8424  140.4015  156.1921 H   0  0  0  0  0  0  0  0  0  0  0  0
  147.7602  133.3840  150.5544 H   0  0  0  0  0  0  0  0  0  0  0  0
  146.7848  132.1298  151.3174 H   0  0  0  0  0  0  0  0  0  0  0  0
  145.7046  134.3533  149.9141 H   0  0  0  0  0  0  0  0  0  0  0  0
  144.8369  133.2527  150.9794 H   0  0  0  0  0  0  0  0  0  0  0  0
  146.0334  135.9371  151.6589 H   0  0  0  0  0  0  0  0  0  0  0  0
  144.4898  135.2713  152.1979 H   0  0  0  0  0  0  0  0  0  0  0  0
  145.6042  133.7349  153.7080 H   0  0  0  0  0  0  0  0  0  0  0  0
  146.5645  135.2083  153.8935 H   0  0  0  0  0  0  0  0  0  0  0  0
  148.1115  134.4180  152.4252 H   0  0  0  0  0  0  0  0  0  0  0  0
  1  2  1  0  0  0  0
  1 19  1  0  0  0  0
  1 20  1  0  0  0  0
  1 21  1  0  0  0  0
  2  3  1  0  0  0  0
  2 22  1  0  0  0  0
  2 23  1  0  0  0  0
  3  4  1  0  0  0  0
  3 14  1  0  0  0  0
  3 24  1  0  0  0  0
  4  5  1  0  0  0  0
  4 25  1  0  0  0  0
  4 26  1  0  0  0  0
  5  6  1  0  0  0  0
  5 27  1  0  0  0  0
  6  7  2  0  0  0  0
  6  8  1  0  0  0  0
  8  9  1  0  0  0  0
  8 28  1  0  0  0  0
  9 13  1  0  0  0  0
  9 10  2  0  0  0  0
 10 11  1  0  0  0  0
 11 12  2  0  0  0  0
 12 13  1  0  0  0  0
 12 29  1  0  0  0  0
 14 18  1  0  0  0  0
 14 15  1  0  0  0  0
 14 38  1  0  0  0  0
 15 16  1  0  0  0  0
 15 30  1  0  0  0  0
 15 31  1  0  0  0  0
 16 17  1  0  0  0  0
 16 32  1  0  0  0  0
 16 33  1  0  0  0  0
 17 18  1  0  0  0  0
 17 34  1  0  0  0  0
 17 35  1  0  0  0  0
 18 36  1  0  0  0  0
 18 37  1  0  0  0  0
M  CHG  1  14   1
M  END
> <s_m_source_file>
AV-unprocessed.smi

> <i_m_source_file_index>
1508

> <i_lp_mmshare_version>
43012

> <i_f3d_flags>
0

> <s_epik_input>
W0NIMl0xW0NIMl1bQ0gyXVtDSDJdTjFbQ0BIXShbQ0gyXVtDSDNdKVtDSDJdW05IXUMoPU8pW05IXWMybm5bY0hdczI=

> <s_epik_cmdline>
J2VwaWtfcHl0aG9uJywgJy1waCcsICc3LjAnLCAnLXRuJywgJzgnLCAnLW1hJywgJzIwMCcsICctbWV0YWxfYmluZGluZycsICctaW1hZScsICc8aW5maWxlLm1hZT4nLCAnLW9tYWUnLCAnPG91dGZpbGUubWFlPic=

> <r_lp_tautomer_probability>
1

> <r_epik_Ionization_Penalty>
0.00193711

> <r_epik_Ionization_Penalty_Charging>
0.00115997

> <r_epik_Ionization_Penalty_Neutral>
0.000777142

> <r_epik_State_Penalty>
-0

> <r_epik_Charging_Adjusted_Penalty>
0.00115997

> <i_epik_Tot_Q>
1

> <i_epik_Tot_abs_Q>
1

> <r_epik_Metal_State_Penalty>
0.264283

> <b_epik_Metal_Only>
0

> <s_lp_Force_Field>
OPLS_2005

> <r_lp_Energy>
30.1882

> <b_lp_Chiralities_Consistent>
1

> <s_lp_Variant>
AV-unprocessed.smi:1508-1

> <Gold.Version>
5.8.1

> <Gold.Id.Protein>
6NUR|6NUR_protein|mol2

> <Gold.PLP.Fitness>
39.3225

> <Gold.PLP.PLP>
-27.3031

> <Gold.PLP.part.hbond>
-5.4346

> <Gold.PLP.part.metal>
0.0000

> <Gold.PLP.part.buried>
-2.8041

> <Gold.PLP.part.nonpolar>
-20.3914

> <Gold.PLP.part.repulsive>
0.3712

> <Gold.PLP.ligand.clash>
0.0000

> <Gold.PLP.ligand.torsion>
1.3795

> <Gold.PLP.Chemscore.Hbond>
4.8825

> <Gold.PLP.Chemscore.CHOScore>
0.0000

> <Gold.PLP.Chemscore.Metal>
0.0000

> <Gold.Chemscore.Hbonds>
donor molecule, donor type, donor heavy atom, donor atom, acceptor molecule, acceptor atom, score
      L1  H     5    27       P1  7948  1.00
      L1  H     8    28       P1  7948  1.00
      L1  H    14    38       P1  7948  2.00
      P1  H  7989  7998       L1    11  0.85

> <Gold.PLP.Chemscore.Internal.Correction>
0.1309

> <Gold.Rescore>
     Score         DG    S(hbond)    S(metal)    S(lipo)     H(rot)  DE(clash)    DE(int)     intcor
     11.74     -13.29       2.20        0.00      45.48       1.89       0.15       1.41       ----

> <Gold.Chemscore.Fitness>
11.7377

> <Gold.Chemscore.DG>
-13.2941

> <Gold.Chemscore.ZeroCoef>
-5.4800

> <Gold.Chemscore.Hbond>
2.1989

> <Gold.Chemscore.Metal>
0.0000

> <Gold.Chemscore.Lipo>
45.4767

> <Gold.Chemscore.Internal_Hbond>
0.0000

> <Gold.Chemscore.DEClash>
0.1504

> <Gold.Chemscore.DEInternal>
1.4059

> <Gold.Chemscore.Rot>
1.8950

> <Gold.Chemscore.Internal.Correction>
   9.000000E+99

> <Gold.Chemscore.Hbonds>
donor molecule, donor type, donor heavy atom, donor atom, acceptor molecule, acceptor atom, score
      L1  H     5    27       P1  7948  0.25
      L1  H     8    28       P1  7948  0.48
      L1  H    14    38       P1  7948  0.24
      P1  H  7989  7998       L1    11  0.14

> <Gold.Chemscore.Hbond.Weighted>
-7.3444

> <Gold.Chemscore.Metal.Weighted>
-0.0000

> <Gold.Chemscore.Lipo.Weighted>
-5.3208

> <Gold.Chemscore.Internal_Hbond.Weighted>
0.0000

> <Gold.Chemscore.DEClash.Weighted>
0.1504

> <Gold.Chemscore.DEInternal.Weighted>
1.4059

> <Gold.Chemscore.Rot.Weighted>
4.8511

> <Gold.Chemscore.Internal.Correction.Weighted>
   9.000000E+99

> <Gold.Protein.RotatedTorsions>
[ 6907 6896 6895 6894 ] final   20.06 input  -60.11 | X-H torsion
[ 7974 7965 7964 7962 ] final   16.79 input  175.53 | X-H torsion
[ 8008 7997 7996 7995 ] final   96.76 input   59.86 | X-H torsion
[ 10167 10162 10161 10158 ] final  125.07 input  -65.29 | X-H torsion
[ 10718 10713 10712 10709 ] final    0.58 input   66.30 | X-H torsion
[ 10763 10752 10751 10750 ] final  -43.31 input  -60.55 | X-H torsion
[ 11005 11000 10999 10996 ] final  -58.24 input  -57.11 | X-H torsion

> <Gold.Protein.ActiveResidues>
 VAL166  LYS551  ARG553  GLY616  TRP617  ASP618  TYR619  PRO620  LYS621  CYS622 
 ASP623  PHE694  ASN695  SER759  ASP760  ASP761  ALA762  ILE779  LEU786  VAL792 
 PHE793  MET794  SER795  GLU796  ALA797  LYS798  CYS799  TRP800  GLU811  SER814 

> <Gold.Protein.RotatedAtoms>
  151.8905  135.0418  160.0497 H   0  0  0  0  0  0  0  0  0  0  0  0  # atno 6907 bound_to 6896
  152.2440  133.5154  159.5295 H   0  0  0  0  0  0  0  0  0  0  0  0  # atno 6908 bound_to 6896
  150.7062  134.0967  159.3993 H   0  0  0  0  0  0  0  0  0  0  0  0  # atno 6909 bound_to 6896
  146.2239  139.8697  142.8590 H   0  0  0  0  0  0  0  0  0  0  0  0  # atno 7974 bound_to 7965
  156.0830  140.3268  155.7718 H   0  0  0  0  0  0  0  0  0  0  0  0  # atno 8008 bound_to 7997
  155.5121  140.0578  157.2939 H   0  0  0  0  0  0  0  0  0  0  0  0  # atno 8009 bound_to 7997
  154.4593  140.1958  156.0306 H   0  0  0  0  0  0  0  0  0  0  0  0  # atno 8010 bound_to 7997
  139.5706  144.6936  151.3790 H   0  0  0  0  0  0  0  0  0  0  0  0  # atno 10167 bound_to 10162
  156.8355  130.5503  149.5682 H   0  0  0  0  0  0  0  0  0  0  0  0  # atno 10718 bound_to 10713
  153.9935  135.6702  153.4755 H   0  0  0  0  0  0  0  0  0  0  0  0  # atno 10763 bound_to 10752
  153.0694  135.4982  154.8268 H   0  0  0  0  0  0  0  0  0  0  0  0  # atno 10764 bound_to 10752
  154.7095  135.3094  154.9182 H   0  0  0  0  0  0  0  0  0  0  0  0  # atno 10765 bound_to 10752
  141.1199  133.6612  156.4890 H   0  0  0  0  0  0  0  0  0  0  0  0  # atno 11005 bound_to 11000
  145.2621  141.0080  143.3820 LP  0  0  0  0  0  0  0  0  0  0  0  0  # atno 17320 bound_to 7965
  144.9290  139.4321  143.6504 LP  0  0  0  0  0  0  0  0  0  0  0  0  # atno 17321 bound_to 7965
  140.6990  143.7678  150.7372 LP  0  0  0  0  0  0  0  0  0  0  0  0  # atno 17342 bound_to 10162
  140.1183  143.4635  152.2328 LP  0  0  0  0  0  0  0  0  0  0  0  0  # atno 17343 bound_to 10162
  156.0910  130.5895  150.9732 LP  0  0  0  0  0  0  0  0  0  0  0  0  # atno 17370 bound_to 10713
  157.6384  131.0913  150.8302 LP  0  0  0  0  0  0  0  0  0  0  0  0  # atno 17371 bound_to 10713
  140.4539  134.6904  157.5053 LP  0  0  0  0  0  0  0  0  0  0  0  0  # atno 17394 bound_to 11000
  140.0148  134.6636  155.9327 LP  0  0  0  0  0  0  0  0  0  0  0  0  # atno 17395 bound_to 11000

$$$$
