AV-unprocessed.smi:3014|AV-procd|sdf|11469|dock1
  -GOLD-   2272016403D 1   1.00000     0.00000
 Structure written by MMmdl.
 45 46  0  0  0  0  0  0  0  0  1 V2000
  153.0385  142.5553  162.5381 C   0  0  0  0  0  0  0  0  0  0  0  0
  152.2752  142.9079  161.2534 C   0  0  1  0  0  0  0  0  0  0  0  0
  152.2291  144.4314  161.0288 C   0  0  0  0  0  0  0  0  0  0  0  0
  151.4748  144.7914  159.7394 C   0  0  0  0  0  0  0  0  0  0  0  0
  152.0780  144.0752  158.5197 C   0  0  0  0  0  0  0  0  0  0  0  0
  152.1308  142.5506  158.7210 C   0  0  2  0  0  0  0  0  0  0  0  0
  150.7906  142.0726  158.7431 O   0  0  0  0  0  0  0  0  0  0  0  0
  150.2997  141.6132  157.4893 C   0  0  0  0  0  0  0  0  0  0  0  0
  150.3776  140.0862  157.4328 C   0  0  0  0  0  0  0  0  0  0  0  0
  151.2120  139.5581  156.6979 O   0  0  0  0  0  0  0  0  0  0  0  0
  149.4972  139.4121  158.1975 N   0  0  0  0  0  0  0  0  0  0  0  0
  149.3400  138.0077  158.3265 C   0  0  0  0  0  0  0  0  0  0  0  0
  149.8653  137.2301  157.2722 C   0  0  0  0  0  0  0  0  0  0  0  0
  149.7258  135.8326  157.3749 C   0  0  0  0  0  0  0  0  0  0  0  0
  149.1198  135.2552  158.4321 N   0  0  0  0  0  0  0  0  0  0  0  0
  148.6503  136.0644  159.3895 C   0  0  0  0  0  0  0  0  0  0  0  0
  148.0240  135.4696  160.4886 N   0  0  0  0  0  0  0  0  0  0  0  0
  147.5358  136.2714  161.6068 C   0  0  0  0  0  0  0  0  0  0  0  0
  147.8388  134.0230  160.5604 C   0  0  0  0  0  0  0  0  0  0  0  0
  148.7357  137.4009  159.3771 N   0  0  0  0  0  0  0  0  0  0  0  0
  152.8813  142.2003  160.0245 C   0  0  0  0  0  0  0  0  0  0  0  0
  154.0777  142.8819  162.4856 H   0  0  0  0  0  0  0  0  0  0  0  0
  153.0361  141.4794  162.7142 H   0  0  0  0  0  0  0  0  0  0  0  0
  152.5836  143.0314  163.4072 H   0  0  0  0  0  0  0  0  0  0  0  0
  151.2504  142.5535  161.3748 H   0  0  0  0  0  0  0  0  0  0  0  0
  151.7512  144.9198  161.8788 H   0  0  0  0  0  0  0  0  0  0  0  0
  153.2442  144.8276  160.9771 H   0  0  0  0  0  0  0  0  0  0  0  0
  150.4237  144.5191  159.8432 H   0  0  0  0  0  0  0  0  0  0  0  0
  151.4992  145.8704  159.5850 H   0  0  0  0  0  0  0  0  0  0  0  0
  151.5032  144.3149  157.6245 H   0  0  0  0  0  0  0  0  0  0  0  0
  153.0869  144.4511  158.3454 H   0  0  0  0  0  0  0  0  0  0  0  0
  152.6541  142.1145  157.8683 H   0  0  0  0  0  0  0  0  0  0  0  0
  149.2604  141.9150  157.3528 H   0  0  0  0  0  0  0  0  0  0  0  0
  150.8808  142.0286  156.6660 H   0  0  0  0  0  0  0  0  0  0  0  0
  148.8738  139.9758  158.7569 H   0  0  0  0  0  0  0  0  0  0  0  0
  150.3539  137.6801  156.4203 H   0  0  0  0  0  0  0  0  0  0  0  0
  150.1033  135.1755  156.6055 H   0  0  0  0  0  0  0  0  0  0  0  0
  148.3446  136.8672  162.0312 H   0  0  0  0  0  0  0  0  0  0  0  0
  147.1273  135.6518  162.4050 H   0  0  0  0  0  0  0  0  0  0  0  0
  146.7486  136.9478  161.2722 H   0  0  0  0  0  0  0  0  0  0  0  0
  148.8048  133.5178  160.5873 H   0  0  0  0  0  0  0  0  0  0  0  0
  147.2878  133.6647  159.6902 H   0  0  0  0  0  0  0  0  0  0  0  0
  147.2814  133.7268  161.4490 H   0  0  0  0  0  0  0  0  0  0  0  0
  153.9252  142.4986  159.9194 H   0  0  0  0  0  0  0  0  0  0  0  0
  152.8989  141.1225  160.1827 H   0  0  0  0  0  0  0  0  0  0  0  0
  1  2  1  0  0  0  0
  1 22  1  0  0  0  0
  1 23  1  0  0  0  0
  1 24  1  0  0  0  0
  2 21  1  0  0  0  0
  2  3  1  0  0  0  0
  2 25  1  0  0  0  0
  3  4  1  0  0  0  0
  3 26  1  0  0  0  0
  3 27  1  0  0  0  0
  4  5  1  0  0  0  0
  4 28  1  0  0  0  0
  4 29  1  0  0  0  0
  5  6  1  0  0  0  0
  5 30  1  0  0  0  0
  5 31  1  0  0  0  0
  6  7  1  0  0  0  0
  6 21  1  0  0  0  0
  6 32  1  0  0  0  0
  7  8  1  0  0  0  0
  8  9  1  0  0  0  0
  8 33  1  0  0  0  0
  8 34  1  0  0  0  0
  9 10  2  0  0  0  0
  9 11  1  0  0  0  0
 11 12  1  0  0  0  0
 11 35  1  0  0  0  0
 12 20  1  0  0  0  0
 12 13  2  0  0  0  0
 13 14  1  0  0  0  0
 13 36  1  0  0  0  0
 14 15  2  0  0  0  0
 14 37  1  0  0  0  0
 15 16  1  0  0  0  0
 16 17  1  0  0  0  0
 16 20  2  0  0  0  0
 17 18  1  0  0  0  0
 17 19  1  0  0  0  0
 18 38  1  0  0  0  0
 18 39  1  0  0  0  0
 18 40  1  0  0  0  0
 19 41  1  0  0  0  0
 19 42  1  0  0  0  0
 19 43  1  0  0  0  0
 21 44  1  0  0  0  0
 21 45  1  0  0  0  0
M  END
> <s_m_source_file>
AV-unprocessed.smi

> <i_m_source_file_index>
3014

> <i_lp_mmshare_version>
43012

> <i_f3d_flags>
0

> <s_epik_input>
W0NIM11bQ0BASF0xW0NIMl1bQ0gyXVtDSDJdW0NASF0oW0NIMl0xKU9bQ0gyXUMoPU8pW05IXWMyW2NIXVtjSF1uYyhuMilOKFtDSDNdKVtDSDNd

> <s_epik_cmdline>
J2VwaWtfcHl0aG9uJywgJy1waCcsICc3LjAnLCAnLXRuJywgJzgnLCAnLW1hJywgJzIwMCcsICctbWV0YWxfYmluZGluZycsICctaW1hZScsICc8aW5maWxlLm1hZT4nLCAnLW9tYWUnLCAnPG91dGZpbGUubWFlPic=

> <r_lp_tautomer_probability>
1

> <r_epik_Ionization_Penalty>
0.000308195

> <r_epik_Ionization_Penalty_Charging>
0

> <r_epik_Ionization_Penalty_Neutral>
0.000308195

> <r_epik_State_Penalty>
-0

> <r_epik_Charging_Adjusted_Penalty>
0

> <i_epik_Tot_Q>
0

> <i_epik_Tot_abs_Q>
0

> <r_epik_Metal_State_Penalty>
-0

> <b_epik_Metal_Only>
0

> <s_lp_Force_Field>
OPLS_2005

> <r_lp_Energy>
6.78662

> <b_lp_Chiralities_Consistent>
1

> <s_lp_Variant>
AV-unprocessed.smi:3014-4

> <Gold.Version>
5.8.1

> <Gold.Id.Protein>
6NUR|6NUR_protein|mol2

> <Gold.PLP.Fitness>
45.4497

> <Gold.PLP.PLP>
-44.3603

> <Gold.PLP.part.hbond>
-2.9071

> <Gold.PLP.part.metal>
0.0000

> <Gold.PLP.part.buried>
-6.1837

> <Gold.PLP.part.nonpolar>
-36.3484

> <Gold.PLP.part.repulsive>
0.2385

> <Gold.PLP.ligand.clash>
0.0000

> <Gold.PLP.ligand.torsion>
0.9711

> <Gold.PLP.Chemscore.Hbond>
1.0000

> <Gold.PLP.Chemscore.CHOScore>
0.0000

> <Gold.PLP.Chemscore.Metal>
0.0000

> <Gold.Chemscore.Hbonds>
donor molecule, donor type, donor heavy atom, donor atom, acceptor molecule, acceptor atom, score
      P1  H  6896  6907       L1    15  0.90

> <Gold.PLP.Chemscore.Internal.Correction>
0.0315

> <Gold.Rescore>
     Score         DG    S(hbond)    S(metal)    S(lipo)     H(rot)  DE(clash)    DE(int)     intcor
     13.19     -15.71       0.30        0.00     110.07       1.43       0.11       2.41       ----

> <Gold.Chemscore.Fitness>
13.1862

> <Gold.Chemscore.DG>
-15.7121

> <Gold.Chemscore.ZeroCoef>
-5.4800

> <Gold.Chemscore.Hbond>
0.3044

> <Gold.Chemscore.Metal>
0.0000

> <Gold.Chemscore.Lipo>
110.0722

> <Gold.Chemscore.Internal_Hbond>
0.0000

> <Gold.Chemscore.DEClash>
0.1120

> <Gold.Chemscore.DEInternal>
2.4138

> <Gold.Chemscore.Rot>
1.4310

> <Gold.Chemscore.Internal.Correction>
   9.000000E+99

> <Gold.Chemscore.Hbonds>
donor molecule, donor type, donor heavy atom, donor atom, acceptor molecule, acceptor atom, score
      P1  H  6896  6907       L1    15  0.08

> <Gold.Chemscore.Hbond.Weighted>
-1.0168

> <Gold.Chemscore.Metal.Weighted>
-0.0000

> <Gold.Chemscore.Lipo.Weighted>
-12.8784

> <Gold.Chemscore.Internal_Hbond.Weighted>
0.0000

> <Gold.Chemscore.DEClash.Weighted>
0.1120

> <Gold.Chemscore.DEInternal.Weighted>
2.4138

> <Gold.Chemscore.Rot.Weighted>
3.6632

> <Gold.Chemscore.Internal.Correction.Weighted>
   9.000000E+99

> <Gold.Protein.RotatedTorsions>
[ 6907 6896 6895 6894 ] final  -80.37 input  -60.11 | X-H torsion
[ 7974 7965 7964 7962 ] final -122.35 input  175.53 | X-H torsion
[ 8008 7997 7996 7995 ] final  -61.80 input   59.86 | X-H torsion
[ 10167 10162 10161 10158 ] final  -45.43 input  -65.29 | X-H torsion
[ 10718 10713 10712 10709 ] final   45.97 input   66.30 | X-H torsion
[ 10763 10752 10751 10750 ] final  175.02 input  -60.55 | X-H torsion
[ 11005 11000 10999 10996 ] final   38.50 input  -57.11 | X-H torsion

> <Gold.Protein.ActiveResidues>
 VAL166  LYS551  ARG553  GLY616  TRP617  ASP618  TYR619  PRO620  LYS621  CYS622 
 ASP623  PHE694  ASN695  SER759  ASP760  ASP761  ALA762  ILE779  LEU786  VAL792 
 PHE793  MET794  SER795  GLU796  ALA797  LYS798  CYS799  TRP800  GLU811  SER814 

> <Gold.Protein.RotatedAtoms>
  150.6931  134.3980  159.5105 H   0  0  0  0  0  0  0  0  0  0  0  0  # atno 6907 bound_to 6896
  152.1758  134.8793  160.0540 H   0  0  0  0  0  0  0  0  0  0  0  0  # atno 6908 bound_to 6896
  151.9802  133.3720  159.4141 H   0  0  0  0  0  0  0  0  0  0  0  0  # atno 6909 bound_to 6896
  145.0304  140.8063  143.4327 H   0  0  0  0  0  0  0  0  0  0  0  0  # atno 7974 bound_to 7965
  154.4466  140.1010  156.6488 H   0  0  0  0  0  0  0  0  0  0  0  0  # atno 8008 bound_to 7997
  155.5420  140.3484  155.4430 H   0  0  0  0  0  0  0  0  0  0  0  0  # atno 8009 bound_to 7997
  156.0590  140.1322  156.9952 H   0  0  0  0  0  0  0  0  0  0  0  0  # atno 8010 bound_to 7997
  140.6858  143.2880  151.3637 H   0  0  0  0  0  0  0  0  0  0  0  0  # atno 10167 bound_to 10162
  157.4432  130.8093  149.7714 H   0  0  0  0  0  0  0  0  0  0  0  0  # atno 10718 bound_to 10713
  154.4619  135.2768  155.1706 H   0  0  0  0  0  0  0  0  0  0  0  0  # atno 10763 bound_to 10752
  154.3491  135.6154  153.5637 H   0  0  0  0  0  0  0  0  0  0  0  0  # atno 10764 bound_to 10752
  152.9855  135.5807  154.4983 H   0  0  0  0  0  0  0  0  0  0  0  0  # atno 10765 bound_to 10752
  140.2120  134.3743  155.8044 H   0  0  0  0  0  0  0  0  0  0  0  0  # atno 11005 bound_to 11000
  145.1778  139.2368  143.5308 LP  0  0  0  0  0  0  0  0  0  0  0  0  # atno 17320 bound_to 7965
  146.3498  140.1544  142.8592 LP  0  0  0  0  0  0  0  0  0  0  0  0  # atno 17321 bound_to 7965
  139.6216  144.0896  152.2396 LP  0  0  0  0  0  0  0  0  0  0  0  0  # atno 17342 bound_to 10162
  140.0342  144.6058  150.7463 LP  0  0  0  0  0  0  0  0  0  0  0  0  # atno 17343 bound_to 10162
  155.9957  130.3910  150.2809 LP  0  0  0  0  0  0  0  0  0  0  0  0  # atno 17370 bound_to 10713
  157.0975  131.0186  151.3098 LP  0  0  0  0  0  0  0  0  0  0  0  0  # atno 17371 bound_to 10713
  141.2226  133.7148  156.8434 LP  0  0  0  0  0  0  0  0  0  0  0  0  # atno 17394 bound_to 11000
  140.1940  134.8945  157.3093 LP  0  0  0  0  0  0  0  0  0  0  0  0  # atno 17395 bound_to 11000

$$$$
