AV-unprocessed.smi:2244|AV-procd|sdf|9074|dock1
  -GOLD-   2272012283D 1   1.00000     0.00000
 Structure written by MMmdl.
 49 51  0  0  0  0  0  0  0  0  1 V2000
  150.4107  143.2966  158.4297 C   0  0  0  0  0  0  0  0  0  0  0  0
  151.4724  144.1338  159.1785 C   0  0  0  0  0  0  0  0  0  0  0  0
  152.3371  144.8423  158.1149 C   0  0  0  0  0  0  0  0  0  0  0  0
  150.7228  145.1803  160.0288 C   0  0  0  0  0  0  0  0  0  0  0  0
  152.3668  143.2716  160.0874 C   0  0  0  0  0  0  0  0  0  0  0  0
  153.2614  142.2963  159.5929 C   0  0  0  0  0  0  0  0  0  0  0  0
  154.0179  141.5688  160.5270 C   0  0  0  0  0  0  0  0  0  0  0  0
  153.8494  141.8487  161.8981 C   0  0  0  0  0  0  0  0  0  0  0  0
  154.6458  141.0543  162.7736 N   0  0  0  0  0  0  0  0  0  0  0  0
  155.1029  141.2875  164.0224 C   0  0  0  0  0  0  0  0  0  0  0  0
  154.8412  142.3380  164.6057 O   0  0  0  0  0  0  0  0  0  0  0  0
  155.8421  140.3128  164.5775 N   0  0  0  0  0  0  0  0  0  0  0  0
  156.4452  140.3536  165.9057 C   0  0  2  0  0  0  0  0  0  0  0  0
  157.1990  139.0461  166.1975 C   0  0  0  0  0  0  0  0  0  0  0  0
  157.6857  139.0138  167.6549 C   0  0  0  0  0  0  0  0  0  0  0  0
  156.5871  139.1993  168.5415 O   0  0  0  0  0  0  0  0  0  0  0  0
  155.9477  140.4624  168.3837 C   0  0  2  0  0  0  0  0  0  0  0  0
  154.8809  140.5909  169.4529 C   0  0  0  0  0  0  0  0  0  0  0  0
  154.8606  141.7814  170.3831 C   0  0  0  0  0  0  0  0  0  0  0  0
  155.2252  140.4156  170.9133 C   0  0  0  0  0  0  0  0  0  0  0  0
  155.3545  140.5614  166.9664 C   0  0  0  0  0  0  0  0  0  0  0  0
  152.9691  142.8008  162.2999 N   0  0  0  0  0  0  0  0  0  0  0  0
  152.2458  143.4965  161.4184 N   0  0  0  0  0  0  0  0  0  0  0  0
  149.7901  143.9260  157.7906 H   0  0  0  0  0  0  0  0  0  0  0  0
  149.7389  142.7853  159.1204 H   0  0  0  0  0  0  0  0  0  0  0  0
  150.8696  142.5448  157.7863 H   0  0  0  0  0  0  0  0  0  0  0  0
  152.8796  144.1208  157.5032 H   0  0  0  0  0  0  0  0  0  0  0  0
  153.0724  145.5089  158.5666 H   0  0  0  0  0  0  0  0  0  0  0  0
  151.7253  145.4471  157.4446 H   0  0  0  0  0  0  0  0  0  0  0  0
  150.0656  145.7958  159.4132 H   0  0  0  0  0  0  0  0  0  0  0  0
  151.4096  145.8560  160.5399 H   0  0  0  0  0  0  0  0  0  0  0  0
  150.1060  144.7016  160.7904 H   0  0  0  0  0  0  0  0  0  0  0  0
  153.3805  142.0908  158.5404 H   0  0  0  0  0  0  0  0  0  0  0  0
  154.7117  140.8109  160.1928 H   0  0  0  0  0  0  0  0  0  0  0  0
  154.8720  140.1391  162.4126 H   0  0  0  0  0  0  0  0  0  0  0  0
  156.0101  139.4815  164.0284 H   0  0  0  0  0  0  0  0  0  0  0  0
  157.1444  141.1897  165.9679 H   0  0  0  0  0  0  0  0  0  0  0  0
  156.5426  138.1924  166.0209 H   0  0  0  0  0  0  0  0  0  0  0  0
  158.0455  138.9349  165.5192 H   0  0  0  0  0  0  0  0  0  0  0  0
  158.1538  138.0535  167.8716 H   0  0  0  0  0  0  0  0  0  0  0  0
  158.4410  139.7816  167.8292 H   0  0  0  0  0  0  0  0  0  0  0  0
  156.6826  141.2565  168.5316 H   0  0  0  0  0  0  0  0  0  0  0  0
  153.9074  140.2116  169.1477 H   0  0  0  0  0  0  0  0  0  0  0  0
  155.6608  142.5129  170.2881 H   0  0  0  0  0  0  0  0  0  0  0  0
  153.8890  142.1860  170.6587 H   0  0  0  0  0  0  0  0  0  0  0  0
  154.4965  139.9092  171.5431 H   0  0  0  0  0  0  0  0  0  0  0  0
  156.2676  140.2377  171.1706 H   0  0  0  0  0  0  0  0  0  0  0  0
  154.8761  141.5317  166.8266 H   0  0  0  0  0  0  0  0  0  0  0  0
  154.5737  139.8084  166.8467 H   0  0  0  0  0  0  0  0  0  0  0  0
  1  2  1  0  0  0  0
  1 24  1  0  0  0  0
  1 25  1  0  0  0  0
  1 26  1  0  0  0  0
  2  3  1  0  0  0  0
  2  4  1  0  0  0  0
  2  5  1  0  0  0  0
  3 27  1  0  0  0  0
  3 28  1  0  0  0  0
  3 29  1  0  0  0  0
  4 30  1  0  0  0  0
  4 31  1  0  0  0  0
  4 32  1  0  0  0  0
  5 23  1  0  0  0  0
  5  6  2  0  0  0  0
  6  7  1  0  0  0  0
  6 33  1  0  0  0  0
  7  8  2  0  0  0  0
  7 34  1  0  0  0  0
  8  9  1  0  0  0  0
  8 22  1  0  0  0  0
  9 10  1  0  0  0  0
  9 35  1  0  0  0  0
 10 11  2  0  0  0  0
 10 12  1  0  0  0  0
 12 13  1  0  0  0  0
 12 36  1  0  0  0  0
 13 21  1  0  0  0  0
 13 14  1  0  0  0  0
 13 37  1  0  0  0  0
 14 15  1  0  0  0  0
 14 38  1  0  0  0  0
 14 39  1  0  0  0  0
 15 16  1  0  0  0  0
 15 40  1  0  0  0  0
 15 41  1  0  0  0  0
 16 17  1  0  0  0  0
 17 18  1  0  0  0  0
 17 21  1  0  0  0  0
 17 42  1  0  0  0  0
 18 20  1  0  0  0  0
 18 19  1  0  0  0  0
 18 43  1  0  0  0  0
 19 20  1  0  0  0  0
 19 44  1  0  0  0  0
 19 45  1  0  0  0  0
 20 46  1  0  0  0  0
 20 47  1  0  0  0  0
 21 48  1  0  0  0  0
 21 49  1  0  0  0  0
 22 23  2  0  0  0  0
M  END
> <s_m_source_file>
AV-unprocessed.smi

> <i_m_source_file_index>
2244

> <i_lp_mmshare_version>
43012

> <i_f3d_flags>
0

> <s_epik_input>
W0NIM11DKFtDSDNdKShbQ0gzXSljMVtjSF1bY0hdYyhubjEpW05IXUMoPU8pW05IXVtDQEBIXTJbQ0gyXVtDSDJdT1tDQEhdKFtDSDJdMilbQ0hdM1tDSDJdW0NIMl0z

> <s_epik_cmdline>
J2VwaWtfcHl0aG9uJywgJy1waCcsICc3LjAnLCAnLXRuJywgJzgnLCAnLW1hJywgJzIwMCcsICctbWV0YWxfYmluZGluZycsICctaW1hZScsICc8aW5maWxlLm1hZT4nLCAnLW9tYWUnLCAnPG91dGZpbGUubWFlPic=

> <r_lp_tautomer_probability>
1

> <r_epik_Ionization_Penalty>
0.011369

> <r_epik_Ionization_Penalty_Charging>
0

> <r_epik_Ionization_Penalty_Neutral>
0.011369

> <r_epik_State_Penalty>
0.00456331

> <r_epik_Charging_Adjusted_Penalty>
0.00456331

> <i_epik_Tot_Q>
0

> <i_epik_Tot_abs_Q>
0

> <r_epik_Metal_State_Penalty>
-0

> <b_epik_Metal_Only>
0

> <s_lp_Force_Field>
OPLS_2005

> <r_lp_Energy>
27.8211

> <b_lp_Chiralities_Consistent>
1

> <s_lp_Variant>
AV-unprocessed.smi:2244-3

> <Gold.Version>
5.8.1

> <Gold.Id.Protein>
6NUR|6NUR_protein|mol2

> <Gold.PLP.Fitness>
43.7136

> <Gold.PLP.PLP>
-44.5878

> <Gold.PLP.part.hbond>
-3.0000

> <Gold.PLP.part.metal>
0.0000

> <Gold.PLP.part.buried>
-5.5099

> <Gold.PLP.part.nonpolar>
-35.9831

> <Gold.PLP.part.repulsive>
0.2732

> <Gold.PLP.ligand.clash>
0.0000

> <Gold.PLP.ligand.torsion>
0.9911

> <Gold.PLP.Chemscore.Hbond>
0.0000

> <Gold.PLP.Chemscore.CHOScore>
0.0000

> <Gold.PLP.Chemscore.Metal>
0.0000

> <Gold.PLP.Chemscore.Internal.Correction>
1.1080

> <Gold.Rescore>
     Score         DG    S(hbond)    S(metal)    S(lipo)     H(rot)  DE(clash)    DE(int)     intcor
     10.06     -14.21       0.00        0.00     103.07       1.30       2.33       1.81       ----

> <Gold.Chemscore.Fitness>
10.0647

> <Gold.Chemscore.DG>
-14.2114

> <Gold.Chemscore.ZeroCoef>
-5.4800

> <Gold.Chemscore.Hbond>
0.0000

> <Gold.Chemscore.Metal>
0.0000

> <Gold.Chemscore.Lipo>
103.0750

> <Gold.Chemscore.Internal_Hbond>
0.0000

> <Gold.Chemscore.DEClash>
2.3349

> <Gold.Chemscore.DEInternal>
1.8118

> <Gold.Chemscore.Rot>
1.3002

> <Gold.Chemscore.Internal.Correction>
   9.000000E+99

> <Gold.Chemscore.Hbond.Weighted>
-0.0000

> <Gold.Chemscore.Metal.Weighted>
-0.0000

> <Gold.Chemscore.Lipo.Weighted>
-12.0598

> <Gold.Chemscore.Internal_Hbond.Weighted>
0.0000

> <Gold.Chemscore.DEClash.Weighted>
2.3349

> <Gold.Chemscore.DEInternal.Weighted>
1.8118

> <Gold.Chemscore.Rot.Weighted>
3.3284

> <Gold.Chemscore.Internal.Correction.Weighted>
   9.000000E+99

> <Gold.Protein.RotatedTorsions>
[ 6907 6896 6895 6894 ] final   -1.48 input  -60.11 | X-H torsion
[ 7974 7965 7964 7962 ] final -109.02 input  175.53 | X-H torsion
[ 8008 7997 7996 7995 ] final   73.52 input   59.86 | X-H torsion
[ 10167 10162 10161 10158 ] final   83.94 input  -65.29 | X-H torsion
[ 10718 10713 10712 10709 ] final   23.99 input   66.30 | X-H torsion
[ 10763 10752 10751 10750 ] final -169.99 input  -60.55 | X-H torsion
[ 11005 11000 10999 10996 ] final   63.22 input  -57.11 | X-H torsion

> <Gold.Protein.ActiveResidues>
 VAL166  LYS551  ARG553  GLY616  TRP617  ASP618  TYR619  PRO620  LYS621  CYS622 
 ASP623  PHE694  ASN695  SER759  ASP760  ASP761  ALA762  ILE779  LEU786  VAL792 
 PHE793  MET794  SER795  GLU796  ALA797  LYS798  CYS799  TRP800  GLU811  SER814 

> <Gold.Protein.RotatedAtoms>
  151.5454  135.1068  159.9936 H   0  0  0  0  0  0  0  0  0  0  0  0  # atno 6907 bound_to 6896
  152.4516  133.7636  159.6771 H   0  0  0  0  0  0  0  0  0  0  0  0  # atno 6908 bound_to 6896
  150.8446  133.7815  159.3072 H   0  0  0  0  0  0  0  0  0  0  0  0  # atno 6909 bound_to 6896
  145.1857  140.8991  143.3454 H   0  0  0  0  0  0  0  0  0  0  0  0  # atno 7974 bound_to 7965
  155.7849  140.3481  155.5317 H   0  0  0  0  0  0  0  0  0  0  0  0  # atno 8008 bound_to 7997
  155.8691  140.0983  157.1582 H   0  0  0  0  0  0  0  0  0  0  0  0  # atno 8009 bound_to 7997
  154.4016  140.1344  156.4043 H   0  0  0  0  0  0  0  0  0  0  0  0  # atno 8010 bound_to 7997
  139.9132  144.6259  150.8516 H   0  0  0  0  0  0  0  0  0  0  0  0  # atno 10167 bound_to 10162
  157.1736  130.6771  149.6087 H   0  0  0  0  0  0  0  0  0  0  0  0  # atno 10718 bound_to 10713
  154.6463  135.2905  155.0042 H   0  0  0  0  0  0  0  0  0  0  0  0  # atno 10763 bound_to 10752
  154.1150  135.6557  153.4896 H   0  0  0  0  0  0  0  0  0  0  0  0  # atno 10764 bound_to 10752
  153.0353  135.5274  154.7352 H   0  0  0  0  0  0  0  0  0  0  0  0  # atno 10765 bound_to 10752
  140.0039  134.6400  155.9886 H   0  0  0  0  0  0  0  0  0  0  0  0  # atno 11005 bound_to 11000
  145.0092  139.3526  143.6129 LP  0  0  0  0  0  0  0  0  0  0  0  0  # atno 17320 bound_to 7965
  146.3445  139.9347  142.8749 LP  0  0  0  0  0  0  0  0  0  0  0  0  # atno 17321 bound_to 7965
  140.7680  143.3351  151.2327 LP  0  0  0  0  0  0  0  0  0  0  0  0  # atno 17342 bound_to 10162
  139.6925  143.9668  152.2866 LP  0  0  0  0  0  0  0  0  0  0  0  0  # atno 17343 bound_to 10162
  155.9734  130.4670  150.6311 LP  0  0  0  0  0  0  0  0  0  0  0  0  # atno 17370 bound_to 10713
  157.4019  131.0811  151.1300 LP  0  0  0  0  0  0  0  0  0  0  0  0  # atno 17371 bound_to 10713
  141.1662  133.6537  156.4489 LP  0  0  0  0  0  0  0  0  0  0  0  0  # atno 17394 bound_to 11000
  140.4677  134.6782  157.5115 LP  0  0  0  0  0  0  0  0  0  0  0  0  # atno 17395 bound_to 11000

$$$$
