AV-unprocessed.smi:908|AV-procd|sdf|4114|dock10
  -GOLD-   22720 2 13D 1   1.00000     0.00000
 Structure written by MMmdl.
 38 38  0  0  0  0  0  0  0  0  1 V2000
  147.0960  136.5390  150.9192 C   0  0  0  0  0  0  0  0  0  0  0  0
  147.9107  137.6839  150.3083 C   0  0  0  0  0  0  0  0  0  0  0  0
  147.9395  138.9299  151.2083 C   0  0  0  0  0  0  0  0  0  0  0  0
  148.9538  138.8137  152.2496 N   0  0  0  0  0  0  0  0  0  0  0  0
  149.0876  139.6467  153.2926 C   0  0  0  0  0  0  0  0  0  0  0  0
  148.3661  140.6298  153.4688 O   0  0  0  0  0  0  0  0  0  0  0  0
  150.2246  139.3255  154.2699 C   0  0  0  0  0  0  0  0  0  0  0  0
  150.3028  140.2781  155.3737 N   0  0  0  0  0  0  0  0  0  0  0  0
  151.4347  140.8272  155.8450 C   0  0  0  0  0  0  0  0  0  0  0  0
  152.5467  140.5863  155.3758 O   0  0  0  0  0  0  0  0  0  0  0  0
  151.3007  141.7769  157.0396 C   0  0  0  0  0  0  0  0  0  0  0  0
  151.9358  141.2453  158.2375 N   0  0  0  0  0  0  0  0  0  0  0  0
  152.3040  139.9385  158.2590 N   0  0  0  0  0  0  0  0  0  0  0  0
  152.8507  139.7450  159.4496 C   0  0  0  0  0  0  0  0  0  0  0  0
  153.3824  138.3913  159.8209 C   0  0  0  0  0  0  0  0  0  0  0  0
  152.8336  140.9458  160.2055 C   0  0  0  0  0  0  0  0  0  0  0  0
  153.4433  141.1624  161.8062 Cl  0  0  0  0  0  0  0  0  0  0  0  0
  152.2452  141.8949  159.4232 C   0  0  0  0  0  0  0  0  0  0  0  0
  151.9494  143.3384  159.6746 C   0  0  0  0  0  0  0  0  0  0  0  0
  147.0899  135.6715  150.2589 H   0  0  0  0  0  0  0  0  0  0  0  0
  146.0608  136.8375  151.0864 H   0  0  0  0  0  0  0  0  0  0  0  0
  147.5142  136.2258  151.8762 H   0  0  0  0  0  0  0  0  0  0  0  0
  148.9280  137.3368  150.1226 H   0  0  0  0  0  0  0  0  0  0  0  0
  147.4913  137.9441  149.3356 H   0  0  0  0  0  0  0  0  0  0  0  0
  148.1687  139.8132  150.6116 H   0  0  0  0  0  0  0  0  0  0  0  0
  146.9589  139.1031  151.6553 H   0  0  0  0  0  0  0  0  0  0  0  0
  149.5929  138.0351  152.1786 H   0  0  0  0  0  0  0  0  0  0  0  0
  150.1164  138.3102  154.6562 H   0  0  0  0  0  0  0  0  0  0  0  0
  151.1684  139.3544  153.7251 H   0  0  0  0  0  0  0  0  0  0  0  0
  149.4333  140.5247  155.8235 H   0  0  0  0  0  0  0  0  0  0  0  0
  151.7435  142.7410  156.7889 H   0  0  0  0  0  0  0  0  0  0  0  0
  150.2462  141.9608  157.2513 H   0  0  0  0  0  0  0  0  0  0  0  0
  153.4767  138.2864  160.9016 H   0  0  0  0  0  0  0  0  0  0  0  0
  154.3674  138.2263  159.3842 H   0  0  0  0  0  0  0  0  0  0  0  0
  152.7237  137.5967  159.4694 H   0  0  0  0  0  0  0  0  0  0  0  0
  152.2822  143.6409  160.6673 H   0  0  0  0  0  0  0  0  0  0  0  0
  150.8787  143.5323  159.6093 H   0  0  0  0  0  0  0  0  0  0  0  0
  152.4549  143.9726  158.9466 H   0  0  0  0  0  0  0  0  0  0  0  0
  1  2  1  0  0  0  0
  1 20  1  0  0  0  0
  1 21  1  0  0  0  0
  1 22  1  0  0  0  0
  2  3  1  0  0  0  0
  2 23  1  0  0  0  0
  2 24  1  0  0  0  0
  3  4  1  0  0  0  0
  3 25  1  0  0  0  0
  3 26  1  0  0  0  0
  4  5  1  0  0  0  0
  4 27  1  0  0  0  0
  5  6  2  0  0  0  0
  5  7  1  0  0  0  0
  7  8  1  0  0  0  0
  7 28  1  0  0  0  0
  7 29  1  0  0  0  0
  8  9  1  0  0  0  0
  8 30  1  0  0  0  0
  9 10  2  0  0  0  0
  9 11  1  0  0  0  0
 11 12  1  0  0  0  0
 11 31  1  0  0  0  0
 11 32  1  0  0  0  0
 12 18  1  0  0  0  0
 12 13  1  0  0  0  0
 13 14  2  0  0  0  0
 14 15  1  0  0  0  0
 14 16  1  0  0  0  0
 15 33  1  0  0  0  0
 15 34  1  0  0  0  0
 15 35  1  0  0  0  0
 16 17  1  0  0  0  0
 16 18  2  0  0  0  0
 18 19  1  0  0  0  0
 19 36  1  0  0  0  0
 19 37  1  0  0  0  0
 19 38  1  0  0  0  0
M  END
> <s_m_source_file>
AV-unprocessed.smi

> <i_m_source_file_index>
908

> <i_lp_mmshare_version>
43012

> <i_f3d_flags>
0

> <s_epik_input>
W0NIM11bQ0gyXVtDSDJdW05IXUMoPU8pW0NIMl1bTkhdQyg9TylbQ0gyXW4xbmMoW0NIM10pYyhDbCljMVtDSDNd

> <s_epik_cmdline>
J2VwaWtfcHl0aG9uJywgJy1waCcsICc3LjAnLCAnLXRuJywgJzgnLCAnLW1hJywgJzIwMCcsICctbWV0YWxfYmluZGluZycsICctaW1hZScsICc8aW5maWxlLm1hZT4nLCAnLW9tYWUnLCAnPG91dGZpbGUubWFlPic=

> <r_lp_tautomer_probability>
1

> <r_epik_Ionization_Penalty>
3.40177e-06

> <r_epik_Ionization_Penalty_Charging>
0

> <r_epik_Ionization_Penalty_Neutral>
3.40177e-06

> <r_epik_State_Penalty>
-0

> <r_epik_Charging_Adjusted_Penalty>
0

> <i_epik_Tot_Q>
0

> <i_epik_Tot_abs_Q>
0

> <r_epik_Metal_State_Penalty>
-0

> <b_epik_Metal_Only>
0

> <s_lp_Force_Field>
OPLS_2005

> <r_lp_Energy>
0.427377

> <b_lp_Chiralities_Consistent>
1

> <s_lp_Variant>
AV-unprocessed.smi:908-1

> <Gold.Version>
5.8.1

> <Gold.Id.Protein>
6NUR|6NUR_protein|mol2

> <Gold.PLP.Fitness>
41.9213

> <Gold.PLP.PLP>
-37.2879

> <Gold.PLP.part.hbond>
-3.0830

> <Gold.PLP.part.metal>
0.0000

> <Gold.PLP.part.buried>
2.0629

> <Gold.PLP.part.nonpolar>
-35.3804

> <Gold.PLP.part.repulsive>
0.2684

> <Gold.PLP.ligand.clash>
0.0000

> <Gold.PLP.ligand.torsion>
0.4481

> <Gold.PLP.Chemscore.Hbond>
1.8324

> <Gold.PLP.Chemscore.CHOScore>
0.0000

> <Gold.PLP.Chemscore.Metal>
0.0000

> <Gold.Chemscore.Hbonds>
donor molecule, donor type, donor heavy atom, donor atom, acceptor molecule, acceptor atom, score
      L1  H     4    27       P1  7948  0.45
      P1  H  7989  7998       L1    10  0.13
      P1  H  7997  8008       L1    10  0.91

> <Gold.PLP.Chemscore.Internal.Correction>
0.0325

> <Gold.Rescore>
     Score         DG    S(hbond)    S(metal)    S(lipo)     H(rot)  DE(clash)    DE(int)     intcor
     11.90     -14.69       1.40        0.00      85.36       2.13       1.15       1.64       ----

> <Gold.Chemscore.Fitness>
11.9014

> <Gold.Chemscore.DG>
-14.6938

> <Gold.Chemscore.ZeroCoef>
-5.4800

> <Gold.Chemscore.Hbond>
1.4007

> <Gold.Chemscore.Metal>
0.0000

> <Gold.Chemscore.Lipo>
85.3627

> <Gold.Chemscore.Internal_Hbond>
0.0000

> <Gold.Chemscore.DEClash>
1.1504

> <Gold.Chemscore.DEInternal>
1.6420

> <Gold.Chemscore.Rot>
2.1297

> <Gold.Chemscore.Internal.Correction>
   9.000000E+99

> <Gold.Chemscore.Hbonds>
donor molecule, donor type, donor heavy atom, donor atom, acceptor molecule, acceptor atom, score
      L1  H     4    27       P1  7948  0.16
      P1  H  7997  8008       L1    10  0.83

> <Gold.Chemscore.Hbond.Weighted>
-4.6784

> <Gold.Chemscore.Metal.Weighted>
-0.0000

> <Gold.Chemscore.Lipo.Weighted>
-9.9874

> <Gold.Chemscore.Internal_Hbond.Weighted>
0.0000

> <Gold.Chemscore.DEClash.Weighted>
1.1504

> <Gold.Chemscore.DEInternal.Weighted>
1.6420

> <Gold.Chemscore.Rot.Weighted>
5.4520

> <Gold.Chemscore.Internal.Correction.Weighted>
   9.000000E+99

> <Gold.Protein.RotatedTorsions>
[ 6907 6896 6895 6894 ] final   63.83 input  -60.11 | X-H torsion
[ 7974 7965 7964 7962 ] final   39.14 input  175.53 | X-H torsion
[ 8008 7997 7996 7995 ] final  -35.44 input   59.86 | X-H torsion
[ 10167 10162 10161 10158 ] final  -44.30 input  -65.29 | X-H torsion
[ 10718 10713 10712 10709 ] final  -88.55 input   66.30 | X-H torsion
[ 10763 10752 10751 10750 ] final -105.89 input  -60.55 | X-H torsion
[ 11005 11000 10999 10996 ] final  -63.61 input  -57.11 | X-H torsion

> <Gold.Protein.ActiveResidues>
 VAL166  LYS551  ARG553  GLY616  TRP617  ASP618  TYR619  PRO620  LYS621  CYS622 
 ASP623  PHE694  ASN695  SER759  ASP760  ASP761  ALA762  ILE779  LEU786  VAL792 
 PHE793  MET794  SER795  GLU796  ALA797  LYS798  CYS799  TRP800  GLU811  SER814 

> <Gold.Protein.RotatedAtoms>
  152.4284  134.5824  159.9951 H   0  0  0  0  0  0  0  0  0  0  0  0  # atno 6907 bound_to 6896
  151.5954  133.3356  159.3044 H   0  0  0  0  0  0  0  0  0  0  0  0  # atno 6908 bound_to 6896
  150.8175  134.7402  159.6808 H   0  0  0  0  0  0  0  0  0  0  0  0  # atno 6909 bound_to 6896
  146.1008  139.5688  142.9415 H   0  0  0  0  0  0  0  0  0  0  0  0  # atno 7974 bound_to 7965
  154.4095  140.1657  156.2211 H   0  0  0  0  0  0  0  0  0  0  0  0  # atno 8008 bound_to 7997
  155.9362  140.3411  155.6267 H   0  0  0  0  0  0  0  0  0  0  0  0  # atno 8009 bound_to 7997
  155.7045  140.0749  157.2387 H   0  0  0  0  0  0  0  0  0  0  0  0  # atno 8010 bound_to 7997
  140.6902  143.2937  151.3476 H   0  0  0  0  0  0  0  0  0  0  0  0  # atno 10167 bound_to 10162
  155.9983  130.4840  150.5036 H   0  0  0  0  0  0  0  0  0  0  0  0  # atno 10718 bound_to 10713
  154.7976  135.4732  154.0199 H   0  0  0  0  0  0  0  0  0  0  0  0  # atno 10763 bound_to 10752
  153.1729  135.6828  153.8589 H   0  0  0  0  0  0  0  0  0  0  0  0  # atno 10764 bound_to 10752
  153.8166  135.3210  155.3384 H   0  0  0  0  0  0  0  0  0  0  0  0  # atno 10765 bound_to 10752
  141.1399  133.6654  156.5707 H   0  0  0  0  0  0  0  0  0  0  0  0  # atno 11005 bound_to 11000
  145.5858  141.0376  143.2097 LP  0  0  0  0  0  0  0  0  0  0  0  0  # atno 17320 bound_to 7965
  144.7431  139.7394  143.7303 LP  0  0  0  0  0  0  0  0  0  0  0  0  # atno 17321 bound_to 7965
  139.6297  144.0745  152.2465 LP  0  0  0  0  0  0  0  0  0  0  0  0  # atno 17342 bound_to 10162
  140.0215  144.6149  150.7562 LP  0  0  0  0  0  0  0  0  0  0  0  0  # atno 17343 bound_to 10162
  157.3017  131.0646  151.2063 LP  0  0  0  0  0  0  0  0  0  0  0  0  # atno 17370 bound_to 10713
  157.3040  130.6857  149.6179 LP  0  0  0  0  0  0  0  0  0  0  0  0  # atno 17371 bound_to 10713
  140.3915  134.7436  157.4724 LP  0  0  0  0  0  0  0  0  0  0  0  0  # atno 17394 bound_to 11000
  140.0562  134.6060  155.8802 LP  0  0  0  0  0  0  0  0  0  0  0  0  # atno 17395 bound_to 11000

$$$$
