AV-unprocessed.smi:2682|AV-procd|sdf|10375|dock10
  -GOLD-   2272014403D 1   1.00000     0.00000
 Structure written by MMmdl.
 29 29  0  0  0  0  0  0  0  0  2 V2000
  151.6924  145.6152  159.9400 C   0  0  0  0  0  0  0  0  0  0  0  0
  152.3992  144.4015  160.1251 O   0  0  0  0  0  0  0  0  0  0  0  0
  152.5377  144.0575  161.4938 C   0  0  0  0  0  0  0  0  0  0  0  0
  153.1379  142.6526  161.6011 C   0  0  0  0  0  0  0  0  0  0  0  0
  152.5509  141.8209  160.6147 O   0  0  0  0  0  0  0  0  0  0  0  0
  153.4434  141.5152  159.5545 C   0  0  0  0  0  0  0  0  0  0  0  0
  152.6758  140.7977  158.4451 C   0  0  0  0  0  0  0  0  0  0  0  0
  152.8827  139.6002  158.2541 O   0  0  0  0  0  0  0  0  0  0  0  0
  151.8083  141.5656  157.7565 N   0  0  0  0  0  0  0  0  0  0  0  0
  150.9320  141.2291  156.7096 C   0  0  0  0  0  0  0  0  0  0  0  0
  149.6485  141.6704  156.5881 C   0  0  0  0  0  0  0  0  0  0  0  0
  148.8116  141.2804  155.4665 C   0  0  0  0  0  0  0  0  0  0  0  0
  149.4441  140.4489  154.5693 C   0  0  0  0  0  0  0  0  0  0  0  0
  150.7080  139.9753  154.6146 N   0  5  0  0  0  0  0  0  0  0  0  0
  151.4941  140.3386  155.6693 C   0  0  0  0  0  0  0  0  0  0  0  0
  152.6560  139.9421  155.7700 O   0  0  0  0  0  0  0  0  0  0  0  0
  151.6075  145.8310  158.8751 H   0  0  0  0  0  0  0  0  0  0  0  0
  152.2119  146.4499  160.4123 H   0  0  0  0  0  0  0  0  0  0  0  0
  150.6844  145.5512  160.3521 H   0  0  0  0  0  0  0  0  0  0  0  0
  153.2036  144.7743  161.9765 H   0  0  0  0  0  0  0  0  0  0  0  0
  151.5773  144.1029  162.0100 H   0  0  0  0  0  0  0  0  0  0  0  0
  154.2228  142.6892  161.4896 H   0  0  0  0  0  0  0  0  0  0  0  0
  152.9228  142.2415  162.5885 H   0  0  0  0  0  0  0  0  0  0  0  0
  153.8960  142.4285  159.1640 H   0  0  0  0  0  0  0  0  0  0  0  0
  154.2479  140.8671  159.9056 H   0  0  0  0  0  0  0  0  0  0  0  0
  151.7888  142.5428  158.0104 H   0  0  0  0  0  0  0  0  0  0  0  0
  149.2053  142.3339  157.3112 H   0  0  0  0  0  0  0  0  0  0  0  0
  147.7904  141.6109  155.3489 H   0  0  0  0  0  0  0  0  0  0  0  0
  148.8486  140.1188  153.6914 H   0  0  0  0  0  0  0  0  0  0  0  0
  1  2  1  0  0  0  0
  1 17  1  0  0  0  0
  1 18  1  0  0  0  0
  1 19  1  0  0  0  0
  2  3  1  0  0  0  0
  3  4  1  0  0  0  0
  3 20  1  0  0  0  0
  3 21  1  0  0  0  0
  4  5  1  0  0  0  0
  4 22  1  0  0  0  0
  4 23  1  0  0  0  0
  5  6  1  0  0  0  0
  6  7  1  0  0  0  0
  6 24  1  0  0  0  0
  6 25  1  0  0  0  0
  7  8  2  0  0  0  0
  7  9  1  0  0  0  0
  9 26  1  0  0  0  0
  9 10  1  0  0  0  0
 10 11  2  0  0  0  0
 10 15  1  0  0  0  0
 11 12  1  0  0  0  0
 11 27  1  0  0  0  0
 12 13  2  0  0  0  0
 12 28  1  0  0  0  0
 13 14  1  0  0  0  0
 13 29  1  0  0  0  0
 14 15  1  0  0  0  0
 15 16  2  0  0  0  0
M  CHG  1  14  -1
M  END
> <s_m_source_file>
AV-unprocessed.smi

> <i_m_source_file_index>
2682

> <i_lp_mmshare_version>
43012

> <i_f3d_flags>
0

> <s_epik_input>
W0NIM11PW0NIMl1bQ0gyXU9bQ0gyXUMoPU8pW05IXWMxW2NIXVtjSF1bY0hdbmMxW09IXQ==

> <s_epik_cmdline>
J2VwaWtfcHl0aG9uJywgJy1waCcsICc3LjAnLCAnLXRuJywgJzgnLCAnLW1hJywgJzIwMCcsICctbWV0YWxfYmluZGluZycsICctaW1hZScsICc8aW5maWxlLm1hZT4nLCAnLW9tYWUnLCAnPG91dGZpbGUubWFlPic=

> <r_lp_tautomer_probability>
1

> <r_epik_Ionization_Penalty>
5.6643

> <r_epik_Ionization_Penalty_Charging>
0.525144

> <r_epik_Ionization_Penalty_Neutral>
5.13916

> <r_epik_State_Penalty>
5.13906

> <r_epik_Charging_Adjusted_Penalty>
5.6642

> <i_epik_Tot_Q>
-1

> <i_epik_Tot_abs_Q>
1

> <r_epik_Metal_State_Penalty>
1.22048

> <b_epik_Metal_Only>
1

> <s_lp_Force_Field>
OPLS_2005

> <r_lp_Energy>
18.608

> <b_lp_Chiralities_Consistent>
1

> <s_lp_Variant>
AV-unprocessed.smi:2682-2

> <Gold.Version>
5.8.1

> <Gold.Id.Protein>
6NUR|6NUR_protein|mol2

> <Gold.PLP.Fitness>
38.6872

> <Gold.PLP.PLP>
-34.6375

> <Gold.PLP.part.hbond>
-2.4140

> <Gold.PLP.part.metal>
0.0000

> <Gold.PLP.part.buried>
-3.6644

> <Gold.PLP.part.nonpolar>
-28.0281

> <Gold.PLP.part.repulsive>
0.2323

> <Gold.PLP.ligand.clash>
0.0000

> <Gold.PLP.ligand.torsion>
0.9037

> <Gold.PLP.Chemscore.Hbond>
1.9500

> <Gold.PLP.Chemscore.CHOScore>
0.0000

> <Gold.PLP.Chemscore.Metal>
0.0000

> <Gold.Chemscore.Hbonds>
donor molecule, donor type, donor heavy atom, donor atom, acceptor molecule, acceptor atom, score
      P1  H  7989  7998       L1    14  0.65
      P1  H  7997  8010       L1    16  1.00

> <Gold.PLP.Chemscore.Internal.Correction>
0.0071

> <Gold.Rescore>
     Score         DG    S(hbond)    S(metal)    S(lipo)     H(rot)  DE(clash)    DE(int)     intcor
      8.01     -11.77       1.06        0.00      69.65       2.11       0.05       3.71       ----

> <Gold.Chemscore.Fitness>
8.0088

> <Gold.Chemscore.DG>
-11.7732

> <Gold.Chemscore.ZeroCoef>
-5.4800

> <Gold.Chemscore.Hbond>
1.0650

> <Gold.Chemscore.Metal>
0.0000

> <Gold.Chemscore.Lipo>
69.6537

> <Gold.Chemscore.Internal_Hbond>
0.0000

> <Gold.Chemscore.DEClash>
0.0540

> <Gold.Chemscore.DEInternal>
3.7103

> <Gold.Chemscore.Rot>
2.1146

> <Gold.Chemscore.Internal.Correction>
   9.000000E+99

> <Gold.Chemscore.Hbonds>
donor molecule, donor type, donor heavy atom, donor atom, acceptor molecule, acceptor atom, score
      P1  H  7989  7998       L1    14  0.03
      P1  H  7997  8010       L1    16  0.99

> <Gold.Chemscore.Hbond.Weighted>
-3.5570

> <Gold.Chemscore.Metal.Weighted>
-0.0000

> <Gold.Chemscore.Lipo.Weighted>
-8.1495

> <Gold.Chemscore.Internal_Hbond.Weighted>
0.0000

> <Gold.Chemscore.DEClash.Weighted>
0.0540

> <Gold.Chemscore.DEInternal.Weighted>
3.7103

> <Gold.Chemscore.Rot.Weighted>
5.4133

> <Gold.Chemscore.Internal.Correction.Weighted>
   9.000000E+99

> <Gold.Protein.RotatedTorsions>
[ 6907 6896 6895 6894 ] final  -75.95 input  -60.11 | X-H torsion
[ 7974 7965 7964 7962 ] final  153.25 input  175.53 | X-H torsion
[ 8008 7997 7996 7995 ] final   98.99 input   59.86 | X-H torsion
[ 10167 10162 10161 10158 ] final   73.73 input  -65.29 | X-H torsion
[ 10718 10713 10712 10709 ] final -171.12 input   66.30 | X-H torsion
[ 10763 10752 10751 10750 ] final   47.85 input  -60.55 | X-H torsion
[ 11005 11000 10999 10996 ] final   56.42 input  -57.11 | X-H torsion

> <Gold.Protein.ActiveResidues>
 VAL166  LYS551  ARG553  GLY616  TRP617  ASP618  TYR619  PRO620  LYS621  CYS622 
 ASP623  PHE694  ASN695  SER759  ASP760  ASP761  ALA762  ILE779  LEU786  VAL792 
 PHE793  MET794  SER795  GLU796  ALA797  LYS798  CYS799  TRP800  GLU811  SER814 

> <Gold.Protein.RotatedAtoms>
  150.7042  134.4645  159.5395 H   0  0  0  0  0  0  0  0  0  0  0  0  # atno 6907 bound_to 6896
  152.2313  134.8316  160.0482 H   0  0  0  0  0  0  0  0  0  0  0  0  # atno 6908 bound_to 6896
  151.9131  133.3531  159.3907 H   0  0  0  0  0  0  0  0  0  0  0  0  # atno 6909 bound_to 6896
  144.8167  139.6776  143.6118 H   0  0  0  0  0  0  0  0  0  0  0  0  # atno 7974 bound_to 7965
  156.1060  140.3235  155.8007 H   0  0  0  0  0  0  0  0  0  0  0  0  # atno 8008 bound_to 7997
  155.4755  140.0550  157.2991 H   0  0  0  0  0  0  0  0  0  0  0  0  # atno 8009 bound_to 7997
  154.4728  140.2019  155.9967 H   0  0  0  0  0  0  0  0  0  0  0  0  # atno 8010 bound_to 7997
  140.0214  144.5538  150.7579 H   0  0  0  0  0  0  0  0  0  0  0  0  # atno 10167 bound_to 10162
  156.7363  130.9325  151.3107 H   0  0  0  0  0  0  0  0  0  0  0  0  # atno 10718 bound_to 10713
  152.9796  135.5963  154.3829 H   0  0  0  0  0  0  0  0  0  0  0  0  # atno 10763 bound_to 10752
  154.3492  135.2767  155.2383 H   0  0  0  0  0  0  0  0  0  0  0  0  # atno 10764 bound_to 10752
  154.4430  135.6008  153.6196 H   0  0  0  0  0  0  0  0  0  0  0  0  # atno 10765 bound_to 10752
  140.0530  134.5709  155.9241 H   0  0  0  0  0  0  0  0  0  0  0  0  # atno 11005 bound_to 11000
  146.2470  139.6120  142.9453 LP  0  0  0  0  0  0  0  0  0  0  0  0  # atno 17320 bound_to 7965
  145.5198  141.0432  143.2441 LP  0  0  0  0  0  0  0  0  0  0  0  0  # atno 17321 bound_to 7965
  140.7341  143.2725  151.3844 LP  0  0  0  0  0  0  0  0  0  0  0  0  # atno 17342 bound_to 10162
  139.6137  144.1045  152.2325 LP  0  0  0  0  0  0  0  0  0  0  0  0  # atno 17343 bound_to 10162
  157.6838  130.9165  150.0333 LP  0  0  0  0  0  0  0  0  0  0  0  0  # atno 17370 bound_to 10713
  156.1495  130.3642  149.9460 LP  0  0  0  0  0  0  0  0  0  0  0  0  # atno 17371 bound_to 10713
  141.1939  133.6581  156.5571 LP  0  0  0  0  0  0  0  0  0  0  0  0  # atno 17394 bound_to 11000
  140.3887  134.7459  157.4708 LP  0  0  0  0  0  0  0  0  0  0  0  0  # atno 17395 bound_to 11000

$$$$
