AV-unprocessed.smi:1254|AV-procd|sdf|5277|dock2
  -GOLD-   22720 4393D 1   1.00000     0.00000
 Structure written by MMmdl.
 45 46  0  0  0  0  0  0  0  0  3 V2000
  151.2351  141.1726  155.6813 C   0  0  0  0  0  0  0  0  0  0  0  0
  151.5023  139.7749  155.2390 C   0  0  0  0  0  0  0  0  0  0  0  0
  150.7061  138.6721  155.1117 C   0  0  0  0  0  0  0  0  0  0  0  0
  151.6021  137.6785  154.6308 C   0  0  0  0  0  0  0  0  0  0  0  0
  151.2917  136.4017  154.3576 N   0  5  0  0  0  0  0  0  0  0  0  0
  150.3925  135.7413  155.1223 C   0  0  0  0  0  0  0  0  0  0  0  0
  150.5848  135.2814  156.2501 O   0  0  0  0  0  0  0  0  0  0  0  0
  149.1930  135.6056  154.5436 N   0  0  0  0  0  0  0  0  0  0  0  0
  148.0425  134.9450  155.1446 C   0  0  0  0  0  0  0  0  0  0  0  0
  147.3063  134.0916  154.1036 C   0  0  2  0  0  0  0  0  0  0  0  0
  148.2706  133.1638  153.3356 C   0  0  0  0  0  0  0  0  0  0  0  0
  147.5577  132.3933  152.2874 N   0  3  1  0  0  0  0  0  0  0  0  0
  146.7745  131.2451  152.8195 C   0  0  0  0  0  0  0  0  0  0  0  0
  146.1574  130.3710  151.7066 C   0  0  0  0  0  0  0  0  0  0  0  0
  144.8727  131.0154  151.1646 C   0  0  0  0  0  0  0  0  0  0  0  0
  145.8753  128.9390  152.1918 C   0  0  0  0  0  0  0  0  0  0  0  0
  146.7950  133.3077  151.3995 C   0  0  0  0  0  0  0  0  0  0  0  0
  145.8975  134.2636  152.2089 C   0  0  0  0  0  0  0  0  0  0  0  0
  146.6818  134.9636  153.1659 O   0  0  0  0  0  0  0  0  0  0  0  0
  152.8364  138.1336  154.4954 N   0  0  0  0  0  0  0  0  0  0  0  0
  152.7793  139.4797  154.8761 O   0  0  0  0  0  0  0  0  0  0  0  0
  150.3732  141.2103  156.3477 H   0  0  0  0  0  0  0  0  0  0  0  0
  151.0294  141.8145  154.8244 H   0  0  0  0  0  0  0  0  0  0  0  0
  152.0928  141.5834  156.2148 H   0  0  0  0  0  0  0  0  0  0  0  0
  149.6508  138.5889  155.3234 H   0  0  0  0  0  0  0  0  0  0  0  0
  149.0746  135.9906  153.6179 H   0  0  0  0  0  0  0  0  0  0  0  0
  148.3704  134.3285  155.9830 H   0  0  0  0  0  0  0  0  0  0  0  0
  147.3670  135.7028  155.5451 H   0  0  0  0  0  0  0  0  0  0  0  0
  146.5467  133.4958  154.6134 H   0  0  0  0  0  0  0  0  0  0  0  0
  149.0437  133.7634  152.8527 H   0  0  0  0  0  0  0  0  0  0  0  0
  148.7906  132.4897  154.0174 H   0  0  0  0  0  0  0  0  0  0  0  0
  147.4240  130.6116  153.4256 H   0  0  0  0  0  0  0  0  0  0  0  0
  145.9981  131.6060  153.4941 H   0  0  0  0  0  0  0  0  0  0  0  0
  146.8535  130.3097  150.8707 H   0  0  0  0  0  0  0  0  0  0  0  0
  144.1153  131.1085  151.9437 H   0  0  0  0  0  0  0  0  0  0  0  0
  144.4457  130.4222  150.3554 H   0  0  0  0  0  0  0  0  0  0  0  0
  145.0683  132.0130  150.7698 H   0  0  0  0  0  0  0  0  0  0  0  0
  145.1808  128.9341  153.0326 H   0  0  0  0  0  0  0  0  0  0  0  0
  146.7888  128.4371  152.5110 H   0  0  0  0  0  0  0  0  0  0  0  0
  145.4361  128.3356  151.3969 H   0  0  0  0  0  0  0  0  0  0  0  0
  147.5122  133.8953  150.8250 H   0  0  0  0  0  0  0  0  0  0  0  0
  146.2051  132.7535  150.6705 H   0  0  0  0  0  0  0  0  0  0  0  0
  145.4306  134.9888  151.5423 H   0  0  0  0  0  0  0  0  0  0  0  0
  145.0866  133.7295  152.7056 H   0  0  0  0  0  0  0  0  0  0  0  0
  148.2799  131.9738  151.7191 H   0  0  0  0  0  0  0  0  0  0  0  0
  1  2  1  0  0  0  0
  1 22  1  0  0  0  0
  1 23  1  0  0  0  0
  1 24  1  0  0  0  0
  2 21  1  0  0  0  0
  2  3  2  0  0  0  0
  3  4  1  0  0  0  0
  3 25  1  0  0  0  0
  4  5  1  0  0  0  0
  4 20  2  0  0  0  0
  5  6  1  0  0  0  0
  6  7  2  0  0  0  0
  6  8  1  0  0  0  0
  8  9  1  0  0  0  0
  8 26  1  0  0  0  0
  9 10  1  0  0  0  0
  9 27  1  0  0  0  0
  9 28  1  0  0  0  0
 10 19  1  0  0  0  0
 10 11  1  0  0  0  0
 10 29  1  0  0  0  0
 11 12  1  0  0  0  0
 11 30  1  0  0  0  0
 11 31  1  0  0  0  0
 12 13  1  0  0  0  0
 12 17  1  0  0  0  0
 12 45  1  0  0  0  0
 13 14  1  0  0  0  0
 13 32  1  0  0  0  0
 13 33  1  0  0  0  0
 14 15  1  0  0  0  0
 14 16  1  0  0  0  0
 14 34  1  0  0  0  0
 15 35  1  0  0  0  0
 15 36  1  0  0  0  0
 15 37  1  0  0  0  0
 16 38  1  0  0  0  0
 16 39  1  0  0  0  0
 16 40  1  0  0  0  0
 17 18  1  0  0  0  0
 17 41  1  0  0  0  0
 17 42  1  0  0  0  0
 18 19  1  0  0  0  0
 18 43  1  0  0  0  0
 18 44  1  0  0  0  0
 20 21  1  0  0  0  0
M  CHG  1   5  -1
M  CHG  1  12   1
M  END
> <s_m_source_file>
AV-unprocessed.smi

> <i_m_source_file_index>
1254

> <i_lp_mmshare_version>
43012

> <i_f3d_flags>
0

> <s_epik_input>
W0NIM11jMVtjSF1jKG5vMSlbTkhdQyg9TylbTkhdW0NIMl1bQ0BASF0yW0NIMl1OKFtDSDJdW0NIMl1PMilbQ0gyXVtDSF0oW0NIM10pW0NIM10=

> <s_epik_cmdline>
J2VwaWtfcHl0aG9uJywgJy1waCcsICc3LjAnLCAnLXRuJywgJzgnLCAnLW1hJywgJzIwMCcsICctbWV0YWxfYmluZGluZycsICctaW1hZScsICc8aW5maWxlLm1hZT4nLCAnLW9tYWUnLCAnPG91dGZpbGUubWFlPic=

> <r_epik_Ionization_Penalty>
6.33139

> <r_epik_Ionization_Penalty_Charging>
6.33128

> <r_epik_Ionization_Penalty_Neutral>
0.000104968

> <r_epik_State_Penalty>
6.32522

> <r_epik_Charging_Adjusted_Penalty>
12.6565

> <i_epik_Tot_Q>
0

> <i_epik_Tot_abs_Q>
2

> <r_epik_Metal_State_Penalty>
2.26285

> <b_epik_Metal_Only>
1

> <s_lp_Force_Field>
OPLS_2005

> <r_lp_Energy>
8.92976

> <b_lp_Chiralities_Consistent>
1

> <s_lp_Variant>
AV-unprocessed.smi:1254-9

> <Gold.Version>
5.8.1

> <Gold.Id.Protein>
6NUR|6NUR_protein|mol2

> <Gold.PLP.Fitness>
49.9741

> <Gold.PLP.PLP>
-37.5775

> <Gold.PLP.part.hbond>
-5.6314

> <Gold.PLP.part.metal>
0.0000

> <Gold.PLP.part.buried>
-5.5843

> <Gold.PLP.part.nonpolar>
-27.5861

> <Gold.PLP.part.repulsive>
2.6411

> <Gold.PLP.ligand.clash>
0.0000

> <Gold.PLP.ligand.torsion>
1.3872

> <Gold.PLP.Chemscore.Hbond>
4.9913

> <Gold.PLP.Chemscore.CHOScore>
0.0000

> <Gold.PLP.Chemscore.Metal>
0.0000

> <Gold.Chemscore.Hbonds>
donor molecule, donor type, donor heavy atom, donor atom, acceptor molecule, acceptor atom, score
      L1  H     8    26       P1  7948  1.00
      L1  H    12    45       P1 10747  1.00
      P1  H  7997  8010       L1    21  0.88
      P1  H 10752 10764       L1     5  2.00

> <Gold.PLP.Chemscore.Internal.Correction>
0.1972

> <Gold.Rescore>
     Score         DG    S(hbond)    S(metal)    S(lipo)     H(rot)  DE(clash)    DE(int)     intcor
     18.12     -20.68       3.13        0.00      77.54       1.69       0.20       2.36       ----

> <Gold.Chemscore.Fitness>
18.1195

> <Gold.Chemscore.DG>
-20.6822

> <Gold.Chemscore.ZeroCoef>
-5.4800

> <Gold.Chemscore.Hbond>
3.1326

> <Gold.Chemscore.Metal>
0.0000

> <Gold.Chemscore.Lipo>
77.5422

> <Gold.Chemscore.Internal_Hbond>
0.0000

> <Gold.Chemscore.DEClash>
0.2028

> <Gold.Chemscore.DEInternal>
2.3598

> <Gold.Chemscore.Rot>
1.6926

> <Gold.Chemscore.Internal.Correction>
   9.000000E+99

> <Gold.Chemscore.Hbonds>
donor molecule, donor type, donor heavy atom, donor atom, acceptor molecule, acceptor atom, score
      L1  H     8    26       P1  7948  0.93
      L1  H    12    45       P1 10747  0.98
      P1  H  7997  8010       L1    21  0.77
      P1  H 10752 10764       L1     5  0.26

> <Gold.Chemscore.Hbond.Weighted>
-10.4628

> <Gold.Chemscore.Metal.Weighted>
-0.0000

> <Gold.Chemscore.Lipo.Weighted>
-9.0724

> <Gold.Chemscore.Internal_Hbond.Weighted>
0.0000

> <Gold.Chemscore.DEClash.Weighted>
0.2028

> <Gold.Chemscore.DEInternal.Weighted>
2.3598

> <Gold.Chemscore.Rot.Weighted>
4.3330

> <Gold.Chemscore.Internal.Correction.Weighted>
   9.000000E+99

> <Gold.Protein.RotatedTorsions>
[ 6907 6896 6895 6894 ] final -152.65 input  -60.11 | X-H torsion
[ 7974 7965 7964 7962 ] final -151.89 input  175.53 | X-H torsion
[ 8008 7997 7996 7995 ] final  106.02 input   59.86 | X-H torsion
[ 10167 10162 10161 10158 ] final  158.67 input  -65.29 | X-H torsion
[ 10718 10713 10712 10709 ] final   42.81 input   66.30 | X-H torsion
[ 10763 10752 10751 10750 ] final  -73.35 input  -60.55 | X-H torsion
[ 11005 11000 10999 10996 ] final -159.09 input  -57.11 | X-H torsion

> <Gold.Protein.ActiveResidues>
 VAL166  LYS551  ARG553  GLY616  TRP617  ASP618  TYR619  PRO620  LYS621  CYS622 
 ASP623  PHE694  ASN695  SER759  ASP760  ASP761  ALA762  ILE779  LEU786  VAL792 
 PHE793  MET794  SER795  GLU796  ALA797  LYS798  CYS799  TRP800  GLU811  SER814 

> <Gold.Protein.RotatedAtoms>
  151.2310  133.4450  159.2603 H   0  0  0  0  0  0  0  0  0  0  0  0  # atno 6907 bound_to 6896
  151.0795  134.9849  159.8359 H   0  0  0  0  0  0  0  0  0  0  0  0  # atno 6908 bound_to 6896
  152.5422  134.2250  159.8855 H   0  0  0  0  0  0  0  0  0  0  0  0  # atno 6909 bound_to 6896
  144.7825  140.4737  143.5829 H   0  0  0  0  0  0  0  0  0  0  0  0  # atno 7974 bound_to 7965
  156.1708  140.3120  155.8971 H   0  0  0  0  0  0  0  0  0  0  0  0  # atno 8008 bound_to 7997
  155.3590  140.0475  157.3063 H   0  0  0  0  0  0  0  0  0  0  0  0  # atno 8009 bound_to 7997
  154.5239  140.2208  155.8935 H   0  0  0  0  0  0  0  0  0  0  0  0  # atno 8010 bound_to 7997
  139.4828  144.4803  151.8454 H   0  0  0  0  0  0  0  0  0  0  0  0  # atno 10167 bound_to 10162
  157.4089  130.7903  149.7413 H   0  0  0  0  0  0  0  0  0  0  0  0  # atno 10718 bound_to 10713
  154.4582  135.5900  153.6238 H   0  0  0  0  0  0  0  0  0  0  0  0  # atno 10763 bound_to 10752
  152.9820  135.6037  154.3519 H   0  0  0  0  0  0  0  0  0  0  0  0  # atno 10764 bound_to 10752
  154.3388  135.2842  155.2412 H   0  0  0  0  0  0  0  0  0  0  0  0  # atno 10765 bound_to 10752
  140.6464  134.4497  157.5234 H   0  0  0  0  0  0  0  0  0  0  0  0  # atno 11005 bound_to 11000
  145.6012  139.1504  143.3128 LP  0  0  0  0  0  0  0  0  0  0  0  0  # atno 17320 bound_to 7965
  146.2040  140.6133  142.9089 LP  0  0  0  0  0  0  0  0  0  0  0  0  # atno 17321 bound_to 7965
  140.4278  144.2156  150.5887 LP  0  0  0  0  0  0  0  0  0  0  0  0  # atno 17342 bound_to 10162
  140.4809  143.2379  151.8956 LP  0  0  0  0  0  0  0  0  0  0  0  0  # atno 17343 bound_to 10162
  155.9845  130.3991  150.3310 LP  0  0  0  0  0  0  0  0  0  0  0  0  # atno 17370 bound_to 10713
  157.1446  131.0305  151.2912 LP  0  0  0  0  0  0  0  0  0  0  0  0  # atno 17371 bound_to 10713
  139.9061  134.8445  156.1700 LP  0  0  0  0  0  0  0  0  0  0  0  0  # atno 17394 bound_to 11000
  141.0569  133.6861  156.1878 LP  0  0  0  0  0  0  0  0  0  0  0  0  # atno 17395 bound_to 11000

$$$$
