AV-unprocessed.smi:1496|AV-procd|sdf|6057|dock9
  -GOLD-   22720 6173D 1   1.00000     0.00000
 Structure written by MMmdl.
 43 44  0  0  0  0  0  0  0  0  2 V2000
  149.3006  136.9877  157.2173 C   0  0  0  0  0  0  0  0  0  0  0  0
  149.6309  137.1722  155.7275 C   0  0  0  0  0  0  0  0  0  0  0  0
  149.6756  135.7880  155.0451 C   0  0  0  0  0  0  0  0  0  0  0  0
  148.5878  138.1076  155.0713 C   0  0  0  0  0  0  0  0  0  0  0  0
  149.0126  138.5367  153.7173 N   0  3  1  0  0  0  0  0  0  0  0  0
  147.9905  139.3757  153.0438 C   0  0  0  0  0  0  0  0  0  0  0  0
  146.6282  138.6645  152.9316 C   0  0  0  0  0  0  0  0  0  0  0  0
  146.7724  137.3148  152.3984 N   0  0  0  0  0  0  0  0  0  0  0  0
  145.7553  136.4761  152.1544 C   0  0  0  0  0  0  0  0  0  0  0  0
  144.5770  136.7669  152.3599 O   0  0  0  0  0  0  0  0  0  0  0  0
  146.1944  135.3096  151.6516 N   0  0  0  0  0  0  0  0  0  0  0  0
  145.4369  134.1668  151.2771 C   0  0  0  0  0  0  0  0  0  0  0  0
  145.9925  132.9873  150.7244 C   0  0  0  0  0  0  0  0  0  0  0  0
  145.1314  131.9292  150.3748 C   0  0  0  0  0  0  0  0  0  0  0  0
  143.7481  132.0902  150.5840 C   0  0  0  0  0  0  0  0  0  0  0  0
  143.2034  133.2133  151.0974 N   0  0  0  0  0  0  0  0  0  0  0  0
  144.0349  134.2239  151.4290 C   0  0  0  0  0  0  0  0  0  0  0  0
  150.3500  139.1727  153.7797 C   0  0  0  0  0  0  0  0  0  0  0  0
  151.3663  138.2132  154.4145 C   0  0  0  0  0  0  0  0  0  0  0  0
  150.9146  137.8020  155.7013 O   0  0  0  0  0  0  0  0  0  0  0  0
  148.3249  136.5203  157.3531 H   0  0  0  0  0  0  0  0  0  0  0  0
  149.2847  137.9441  157.7412 H   0  0  0  0  0  0  0  0  0  0  0  0
  150.0412  136.3573  157.7108 H   0  0  0  0  0  0  0  0  0  0  0  0
  148.7268  135.2641  155.1647 H   0  0  0  0  0  0  0  0  0  0  0  0
  150.4537  135.1602  155.4807 H   0  0  0  0  0  0  0  0  0  0  0  0
  149.8665  135.8551  153.9745 H   0  0  0  0  0  0  0  0  0  0  0  0
  147.6226  137.6019  155.0163 H   0  0  0  0  0  0  0  0  0  0  0  0
  148.4408  138.9972  155.6863 H   0  0  0  0  0  0  0  0  0  0  0  0
  147.8449  140.2922  153.6177 H   0  0  0  0  0  0  0  0  0  0  0  0
  148.3587  139.6823  152.0635 H   0  0  0  0  0  0  0  0  0  0  0  0
  146.1217  138.6139  153.8957 H   0  0  0  0  0  0  0  0  0  0  0  0
  145.9712  139.2244  152.2654 H   0  0  0  0  0  0  0  0  0  0  0  0
  147.7103  136.9995  152.1960 H   0  0  0  0  0  0  0  0  0  0  0  0
  147.1845  135.2510  151.4628 H   0  0  0  0  0  0  0  0  0  0  0  0
  147.0512  132.8781  150.5481 H   0  0  0  0  0  0  0  0  0  0  0  0
  145.5227  131.0159  149.9516 H   0  0  0  0  0  0  0  0  0  0  0  0
  143.0605  131.2981  150.3269 H   0  0  0  0  0  0  0  0  0  0  0  0
  143.5639  135.1076  151.8343 H   0  0  0  0  0  0  0  0  0  0  0  0
  150.6932  139.4487  152.7835 H   0  0  0  0  0  0  0  0  0  0  0  0
  150.2921  140.0933  154.3628 H   0  0  0  0  0  0  0  0  0  0  0  0
  151.5464  137.3515  153.7719 H   0  0  0  0  0  0  0  0  0  0  0  0
  152.3270  138.7152  154.5298 H   0  0  0  0  0  0  0  0  0  0  0  0
  149.1057  137.6940  153.1681 H   0  0  0  0  0  0  0  0  0  0  0  0
  1  2  1  0  0  0  0
  1 21  1  0  0  0  0
  1 22  1  0  0  0  0
  1 23  1  0  0  0  0
  2 20  1  0  0  0  0
  2  3  1  0  0  0  0
  2  4  1  0  0  0  0
  3 24  1  0  0  0  0
  3 25  1  0  0  0  0
  3 26  1  0  0  0  0
  4  5  1  0  0  0  0
  4 27  1  0  0  0  0
  4 28  1  0  0  0  0
  5  6  1  0  0  0  0
  5 18  1  0  0  0  0
  5 43  1  0  0  0  0
  6  7  1  0  0  0  0
  6 29  1  0  0  0  0
  6 30  1  0  0  0  0
  7  8  1  0  0  0  0
  7 31  1  0  0  0  0
  7 32  1  0  0  0  0
  8  9  1  0  0  0  0
  8 33  1  0  0  0  0
  9 10  2  0  0  0  0
  9 11  1  0  0  0  0
 11 12  1  0  0  0  0
 11 34  1  0  0  0  0
 12 17  1  0  0  0  0
 12 13  2  0  0  0  0
 13 14  1  0  0  0  0
 13 35  1  0  0  0  0
 14 15  2  0  0  0  0
 14 36  1  0  0  0  0
 15 16  1  0  0  0  0
 15 37  1  0  0  0  0
 16 17  2  0  0  0  0
 17 38  1  0  0  0  0
 18 19  1  0  0  0  0
 18 39  1  0  0  0  0
 18 40  1  0  0  0  0
 19 20  1  0  0  0  0
 19 41  1  0  0  0  0
 19 42  1  0  0  0  0
M  CHG  1   5   1
M  END
> <s_m_source_file>
AV-unprocessed.smi

> <i_m_source_file_index>
1496

> <i_lp_mmshare_version>
43012

> <i_f3d_flags>
0

> <s_epik_input>
W0NIM11DMShbQ0gzXSlbQ0gyXU4oW0NIMl1bQ0gyXU8xKVtDSDJdW0NIMl1bTkhdQyg9TylbTkhdYzJbY0hdW2NIXVtjSF1uW2NIXTI=

> <s_epik_cmdline>
J2VwaWtfcHl0aG9uJywgJy1waCcsICc3LjAnLCAnLXRuJywgJzgnLCAnLW1hJywgJzIwMCcsICctbWV0YWxfYmluZGluZycsICctaW1hZScsICc8aW5maWxlLm1hZT4nLCAnLW9tYWUnLCAnPG91dGZpbGUubWFlPic=

> <r_epik_Ionization_Penalty>
0.606681

> <r_epik_Ionization_Penalty_Charging>
0.602531

> <r_epik_Ionization_Penalty_Neutral>
0.00415082

> <r_epik_State_Penalty>
0.607427

> <r_epik_Charging_Adjusted_Penalty>
1.20996

> <i_epik_Tot_Q>
1

> <i_epik_Tot_abs_Q>
1

> <r_epik_Metal_State_Penalty>
0.604583

> <b_epik_Metal_Only>
0

> <s_lp_Force_Field>
OPLS_2005

> <r_lp_Energy>
21.2927

> <b_lp_Chiralities_Consistent>
1

> <s_lp_Variant>
AV-unprocessed.smi:1496-3

> <Gold.Version>
5.8.1

> <Gold.Id.Protein>
6NUR|6NUR_protein|mol2

> <Gold.PLP.Fitness>
45.9701

> <Gold.PLP.PLP>
-31.3890

> <Gold.PLP.part.hbond>
-3.0151

> <Gold.PLP.part.metal>
0.0000

> <Gold.PLP.part.buried>
-5.5561

> <Gold.PLP.part.nonpolar>
-23.1014

> <Gold.PLP.part.repulsive>
0.5000

> <Gold.PLP.ligand.clash>
0.0000

> <Gold.PLP.ligand.torsion>
0.0370

> <Gold.PLP.Chemscore.Hbond>
3.8800

> <Gold.PLP.Chemscore.CHOScore>
1.0000

> <Gold.PLP.Chemscore.Metal>
0.0000

> <Gold.Chemscore.Hbonds>
donor molecule, donor type, donor heavy atom, donor atom, acceptor molecule, acceptor atom, score
      L1  H     5    43       P1  7948  2.00
      L1  H     8    33       P1  7948  0.89
      L1  H    11    34       P1  7948  0.85
      L1  C    15    37       P1 10952  0.96

> <Gold.PLP.Chemscore.Internal.Correction>
0.0151

> <Gold.Rescore>
     Score         DG    S(hbond)    S(metal)    S(lipo)     H(rot)  DE(clash)    DE(int)     intcor
     18.45     -20.06       2.76        0.00      78.76       1.50       0.11       1.50       ----

> <Gold.Chemscore.Fitness>
18.4518

> <Gold.Chemscore.DG>
-20.0593

> <Gold.Chemscore.ZeroCoef>
-5.4800

> <Gold.Chemscore.Hbond>
2.7568

> <Gold.Chemscore.Metal>
0.0000

> <Gold.Chemscore.Lipo>
78.7553

> <Gold.Chemscore.Internal_Hbond>
0.0000

> <Gold.Chemscore.DEClash>
0.1125

> <Gold.Chemscore.DEInternal>
1.4950

> <Gold.Chemscore.Rot>
1.5010

> <Gold.Chemscore.Internal.Correction>
   9.000000E+99

> <Gold.Chemscore.Hbonds>
donor molecule, donor type, donor heavy atom, donor atom, acceptor molecule, acceptor atom, score
      L1  H     5    43       P1  7948  0.99
      L1  H     8    33       P1  7948  0.86
      L1  H    11    34       P1  7948  0.73

> <Gold.Chemscore.Hbond.Weighted>
-9.2076

> <Gold.Chemscore.Metal.Weighted>
-0.0000

> <Gold.Chemscore.Lipo.Weighted>
-9.2144

> <Gold.Chemscore.Internal_Hbond.Weighted>
0.0000

> <Gold.Chemscore.DEClash.Weighted>
0.1125

> <Gold.Chemscore.DEInternal.Weighted>
1.4950

> <Gold.Chemscore.Rot.Weighted>
3.8426

> <Gold.Chemscore.Internal.Correction.Weighted>
   9.000000E+99

> <Gold.Protein.RotatedTorsions>
[ 6907 6896 6895 6894 ] final  110.37 input  -60.11 | X-H torsion
[ 7974 7965 7964 7962 ] final -117.32 input  175.53 | X-H torsion
[ 8008 7997 7996 7995 ] final  132.71 input   59.86 | X-H torsion
[ 10167 10162 10161 10158 ] final  119.50 input  -65.29 | X-H torsion
[ 10718 10713 10712 10709 ] final  -92.69 input   66.30 | X-H torsion
[ 10763 10752 10751 10750 ] final    2.01 input  -60.55 | X-H torsion
[ 11005 11000 10999 10996 ] final   94.82 input  -57.11 | X-H torsion

> <Gold.Protein.ActiveResidues>
 VAL166  LYS551  ARG553  GLY616  TRP617  ASP618  TYR619  PRO620  LYS621  CYS622 
 ASP623  PHE694  ASN695  SER759  ASP760  ASP761  ALA762  ILE779  LEU786  VAL792 
 PHE793  MET794  SER795  GLU796  ALA797  LYS798  CYS799  TRP800  GLU811  SER814 

> <Gold.Protein.RotatedAtoms>
  152.5023  133.8810  159.7345 H   0  0  0  0  0  0  0  0  0  0  0  0  # atno 6907 bound_to 6896
  150.9272  133.6800  159.2825 H   0  0  0  0  0  0  0  0  0  0  0  0  # atno 6908 bound_to 6896
  151.4157  135.0995  159.9651 H   0  0  0  0  0  0  0  0  0  0  0  0  # atno 6909 bound_to 6896
  145.0866  140.8462  143.4007 H   0  0  0  0  0  0  0  0  0  0  0  0  # atno 7974 bound_to 7965
  156.2985  140.2539  156.3134 H   0  0  0  0  0  0  0  0  0  0  0  0  # atno 8008 bound_to 7997
  154.9305  140.0398  157.2064 H   0  0  0  0  0  0  0  0  0  0  0  0  # atno 8009 bound_to 7997
  154.8223  140.2862  155.5782 H   0  0  0  0  0  0  0  0  0  0  0  0  # atno 8010 bound_to 7997
  139.6042  144.7065  151.2992 H   0  0  0  0  0  0  0  0  0  0  0  0  # atno 10167 bound_to 10162
  156.0005  130.4997  150.5663 H   0  0  0  0  0  0  0  0  0  0  0  0  # atno 10718 bound_to 10713
  153.3009  135.6956  153.7204 H   0  0  0  0  0  0  0  0  0  0  0  0  # atno 10763 bound_to 10752
  153.6119  135.3443  155.2982 H   0  0  0  0  0  0  0  0  0  0  0  0  # atno 10764 bound_to 10752
  154.8550  135.4365  154.2120 H   0  0  0  0  0  0  0  0  0  0  0  0  # atno 10765 bound_to 10752
  139.8795  134.8866  156.3919 H   0  0  0  0  0  0  0  0  0  0  0  0  # atno 11005 bound_to 11000
  145.1115  139.2754  143.5635 LP  0  0  0  0  0  0  0  0  0  0  0  0  # atno 17320 bound_to 7965
  146.3531  140.0712  142.8623 LP  0  0  0  0  0  0  0  0  0  0  0  0  # atno 17321 bound_to 7965
  140.7272  143.6969  150.7876 LP  0  0  0  0  0  0  0  0  0  0  0  0  # atno 17342 bound_to 10162
  140.0551  143.5211  152.2655 LP  0  0  0  0  0  0  0  0  0  0  0  0  # atno 17343 bound_to 10162
  157.3565  131.0742  151.1671 LP  0  0  0  0  0  0  0  0  0  0  0  0  # atno 17370 bound_to 10713
  157.2470  130.6596  149.5914 LP  0  0  0  0  0  0  0  0  0  0  0  0  # atno 17371 bound_to 10713
  140.9327  133.7568  156.0045 LP  0  0  0  0  0  0  0  0  0  0  0  0  # atno 17394 bound_to 11000
  140.8312  134.3176  157.5348 LP  0  0  0  0  0  0  0  0  0  0  0  0  # atno 17395 bound_to 11000

$$$$
