AV-unprocessed.smi:3193|AV-procd|sdf|12208|dock3
  -GOLD-   2272018 43D 1   1.00000     0.00000
 Structure written by MMmdl.
 41 42  0  0  0  0  0  0  0  0  3 V2000
  152.2418  144.6236  159.4614 C   0  0  0  0  0  0  0  0  0  0  0  0
  152.7773  143.1990  159.2221 C   0  0  1  0  0  0  0  0  0  0  0  0
  153.3230  142.6258  160.5472 C   0  0  0  0  0  0  0  0  0  0  0  0
  153.9256  141.2262  160.3663 C   0  0  0  0  0  0  0  0  0  0  0  0
  152.9007  140.2673  159.7512 C   0  0  0  0  0  0  0  0  0  0  0  0
  152.3606  140.8227  158.4260 C   0  0  0  0  0  0  0  0  0  0  0  0
  151.7357  142.2260  158.5911 C   0  0  2  0  0  0  0  0  0  0  0  0
  151.1851  142.7052  157.2289 C   0  0  0  0  0  0  0  0  0  0  0  0
  149.7928  142.2644  157.0148 N   0  3  0  0  0  0  0  0  0  0  0  0
  149.6616  140.9198  156.4194 C   0  0  0  0  0  0  0  0  0  0  0  0
  149.5258  140.9946  154.8897 C   0  0  0  0  0  0  0  0  0  0  0  0
  148.1383  141.2111  154.4623 N   0  0  0  0  0  0  0  0  0  0  0  0
  147.2887  142.2061  154.8742 C   0  0  0  0  0  0  0  0  0  0  0  0
  146.1044  142.0091  154.2118 C   0  0  0  0  0  0  0  0  0  0  0  0
  146.2823  140.9070  153.4193 N   0  3  0  0  0  0  0  0  0  0  0  0
  147.5211  140.4265  153.5681 C   0  0  0  0  0  0  0  0  0  0  0  0
  151.3267  144.6114  160.0544 H   0  0  0  0  0  0  0  0  0  0  0  0
  152.0367  145.1427  158.5257 H   0  0  0  0  0  0  0  0  0  0  0  0
  152.9727  145.2306  159.9968 H   0  0  0  0  0  0  0  0  0  0  0  0
  153.6198  143.2841  158.5335 H   0  0  0  0  0  0  0  0  0  0  0  0
  154.0841  143.2906  160.9570 H   0  0  0  0  0  0  0  0  0  0  0  0
  152.5228  142.5830  161.2876 H   0  0  0  0  0  0  0  0  0  0  0  0
  154.8062  141.2850  159.7254 H   0  0  0  0  0  0  0  0  0  0  0  0
  154.2674  140.8400  161.3271 H   0  0  0  0  0  0  0  0  0  0  0  0
  153.3571  139.2906  159.5882 H   0  0  0  0  0  0  0  0  0  0  0  0
  152.0770  140.1114  160.4490 H   0  0  0  0  0  0  0  0  0  0  0  0
  153.1685  140.8621  157.6939 H   0  0  0  0  0  0  0  0  0  0  0  0
  151.6206  140.1277  158.0271 H   0  0  0  0  0  0  0  0  0  0  0  0
  150.8961  142.1214  159.2807 H   0  0  0  0  0  0  0  0  0  0  0  0
  151.2556  143.7915  157.1566 H   0  0  0  0  0  0  0  0  0  0  0  0
  151.7812  142.2968  156.4114 H   0  0  0  0  0  0  0  0  0  0  0  0
  149.3056  142.2839  157.8998 H   0  0  0  0  0  0  0  0  0  0  0  0
  150.5296  140.3145  156.6849 H   0  0  0  0  0  0  0  0  0  0  0  0
  148.7876  140.4273  156.8472 H   0  0  0  0  0  0  0  0  0  0  0  0
  150.1190  141.8229  154.5001 H   0  0  0  0  0  0  0  0  0  0  0  0
  149.9033  140.0845  154.4205 H   0  0  0  0  0  0  0  0  0  0  0  0
  147.5802  142.9611  155.5905 H   0  0  0  0  0  0  0  0  0  0  0  0
  145.1739  142.5578  154.2418 H   0  0  0  0  0  0  0  0  0  0  0  0
  147.9367  139.5712  153.0651 H   0  0  0  0  0  0  0  0  0  0  0  0
  149.3567  142.9280  156.3908 H   0  0  0  0  0  0  0  0  0  0  0  0
  145.5812  140.5161  152.8018 H   0  0  0  0  0  0  0  0  0  0  0  0
  1  2  1  0  0  0  0
  1 17  1  0  0  0  0
  1 18  1  0  0  0  0
  1 19  1  0  0  0  0
  2  7  1  0  0  0  0
  2  3  1  0  0  0  0
  2 20  1  0  0  0  0
  3  4  1  0  0  0  0
  3 21  1  0  0  0  0
  3 22  1  0  0  0  0
  4  5  1  0  0  0  0
  4 23  1  0  0  0  0
  4 24  1  0  0  0  0
  5  6  1  0  0  0  0
  5 25  1  0  0  0  0
  5 26  1  0  0  0  0
  6  7  1  0  0  0  0
  6 27  1  0  0  0  0
  6 28  1  0  0  0  0
  7  8  1  0  0  0  0
  7 29  1  0  0  0  0
  8  9  1  0  0  0  0
  8 30  1  0  0  0  0
  8 31  1  0  0  0  0
  9 10  1  0  0  0  0
  9 32  1  0  0  0  0
  9 40  1  0  0  0  0
 10 11  1  0  0  0  0
 10 33  1  0  0  0  0
 10 34  1  0  0  0  0
 11 12  1  0  0  0  0
 11 35  1  0  0  0  0
 11 36  1  0  0  0  0
 12 16  1  0  0  0  0
 12 13  1  0  0  0  0
 13 14  2  0  0  0  0
 13 37  1  0  0  0  0
 14 15  1  0  0  0  0
 14 38  1  0  0  0  0
 15 16  2  0  0  0  0
 15 41  1  0  0  0  0
 16 39  1  0  0  0  0
M  CHG  1   9   1
M  CHG  1  15   1
M  END
> <s_m_source_file>
AV-unprocessed.smi

> <i_m_source_file_index>
3193

> <i_lp_mmshare_version>
43012

> <i_f3d_flags>
0

> <s_epik_input>
W0NIM11bQ0BASF0xW0NIMl1bQ0gyXVtDSDJdW0NIMl1bQ0BIXTFbQ0gyXVtOSF1bQ0gyXVtDSDJdbjJbY0hdW2NIXW5bY0hdMg==

> <s_epik_cmdline>
J2VwaWtfcHl0aG9uJywgJy1waCcsICc3LjAnLCAnLXRuJywgJzgnLCAnLW1hJywgJzIwMCcsICctbWV0YWxfYmluZGluZycsICctaW1hZScsICc8aW5maWxlLm1hZT4nLCAnLW9tYWUnLCAnPG91dGZpbGUubWFlPic=

> <r_lp_tautomer_probability>
1

> <r_epik_Ionization_Penalty>
1.50262

> <r_epik_Ionization_Penalty_Charging>
0.00193432

> <r_epik_Ionization_Penalty_Neutral>
1.50068

> <r_epik_State_Penalty>
1.11854

> <r_epik_Charging_Adjusted_Penalty>
1.12048

> <i_epik_Tot_Q>
2

> <i_epik_Tot_abs_Q>
2

> <r_epik_Metal_State_Penalty>
5.11322

> <b_epik_Metal_Only>
0

> <s_lp_Force_Field>
OPLS_2005

> <r_lp_Energy>
27.1702

> <b_lp_Chiralities_Consistent>
1

> <s_lp_Variant>
AV-unprocessed.smi:3193-8

> <Gold.Version>
5.8.1

> <Gold.Id.Protein>
6NUR|6NUR_protein|mol2

> <Gold.PLP.Fitness>
55.2599

> <Gold.PLP.PLP>
-39.7475

> <Gold.PLP.part.hbond>
-2.0000

> <Gold.PLP.part.metal>
0.0000

> <Gold.PLP.part.buried>
-1.9109

> <Gold.PLP.part.nonpolar>
-36.4064

> <Gold.PLP.part.repulsive>
0.0402

> <Gold.PLP.ligand.clash>
0.0000

> <Gold.PLP.ligand.torsion>
0.9430

> <Gold.PLP.Chemscore.Hbond>
3.9520

> <Gold.PLP.Chemscore.CHOScore>
1.8216

> <Gold.PLP.Chemscore.Metal>
0.0000

> <Gold.Chemscore.Hbonds>
donor molecule, donor type, donor heavy atom, donor atom, acceptor molecule, acceptor atom, score
      L1  H     9    40       P1  8028  2.00
      L1  H    15    41       P1 10175  1.70
      L1  C    13    37       P1  8028  1.00
      L1  C    16    39       P1  7957  0.67

> <Gold.PLP.Chemscore.Internal.Correction>
0.0778

> <Gold.Rescore>
     Score         DG    S(hbond)    S(metal)    S(lipo)     H(rot)  DE(clash)    DE(int)     intcor
     18.08     -18.98       1.89        0.00     104.59       1.98       0.03       0.86       ----

> <Gold.Chemscore.Fitness>
18.0836

> <Gold.Chemscore.DG>
-18.9775

> <Gold.Chemscore.ZeroCoef>
-5.4800

> <Gold.Chemscore.Hbond>
1.8931

> <Gold.Chemscore.Metal>
0.0000

> <Gold.Chemscore.Lipo>
104.5871

> <Gold.Chemscore.Internal_Hbond>
0.0000

> <Gold.Chemscore.DEClash>
0.0291

> <Gold.Chemscore.DEInternal>
0.8648

> <Gold.Chemscore.Rot>
1.9774

> <Gold.Chemscore.Internal.Correction>
   9.000000E+99

> <Gold.Chemscore.Hbonds>
donor molecule, donor type, donor heavy atom, donor atom, acceptor molecule, acceptor atom, score
      L1  H     9    40       P1  8028  0.96
      L1  H    15    41       P1 10175  0.63

> <Gold.Chemscore.Hbond.Weighted>
-6.3230

> <Gold.Chemscore.Metal.Weighted>
-0.0000

> <Gold.Chemscore.Lipo.Weighted>
-12.2367

> <Gold.Chemscore.Internal_Hbond.Weighted>
0.0000

> <Gold.Chemscore.DEClash.Weighted>
0.0291

> <Gold.Chemscore.DEInternal.Weighted>
0.8648

> <Gold.Chemscore.Rot.Weighted>
5.0622

> <Gold.Chemscore.Internal.Correction.Weighted>
   9.000000E+99

> <Gold.Protein.RotatedTorsions>
[ 6907 6896 6895 6894 ] final -149.77 input  -60.11 | X-H torsion
[ 7974 7965 7964 7962 ] final  154.19 input  175.53 | X-H torsion
[ 8008 7997 7996 7995 ] final -104.05 input   59.86 | X-H torsion
[ 10167 10162 10161 10158 ] final  119.86 input  -65.29 | X-H torsion
[ 10718 10713 10712 10709 ] final  169.79 input   66.30 | X-H torsion
[ 10763 10752 10751 10750 ] final   -7.06 input  -60.55 | X-H torsion
[ 11005 11000 10999 10996 ] final  147.94 input  -57.11 | X-H torsion

> <Gold.Protein.ActiveResidues>
 VAL166  LYS551  ARG553  GLY616  TRP617  ASP618  TYR619  PRO620  LYS621  CYS622 
 ASP623  PHE694  ASN695  SER759  ASP760  ASP761  ALA762  ILE779  LEU786  VAL792 
 PHE793  MET794  SER795  GLU796  ALA797  LYS798  CYS799  TRP800  GLU811  SER814 

> <Gold.Protein.RotatedAtoms>
  151.1889  133.4679  159.2594 H   0  0  0  0  0  0  0  0  0  0  0  0  # atno 6907 bound_to 6896
  151.1184  135.0065  159.8537 H   0  0  0  0  0  0  0  0  0  0  0  0  # atno 6908 bound_to 6896
  152.5454  134.1802  159.8685 H   0  0  0  0  0  0  0  0  0  0  0  0  # atno 6909 bound_to 6896
  144.8104  139.6901  143.6144 H   0  0  0  0  0  0  0  0  0  0  0  0  # atno 7974 bound_to 7965
  154.8797  140.0420  157.1775 H   0  0  0  0  0  0  0  0  0  0  0  0  # atno 8008 bound_to 7997
  154.8652  140.2950  155.5494 H   0  0  0  0  0  0  0  0  0  0  0  0  # atno 8009 bound_to 7997
  156.2999  140.2439  156.3633 H   0  0  0  0  0  0  0  0  0  0  0  0  # atno 8010 bound_to 7997
  139.6019  144.7059  151.3043 H   0  0  0  0  0  0  0  0  0  0  0  0  # atno 10167 bound_to 10162
  157.0175  131.0222  151.2785 H   0  0  0  0  0  0  0  0  0  0  0  0  # atno 10718 bound_to 10713
  153.4210  135.7010  153.6294 H   0  0  0  0  0  0  0  0  0  0  0  0  # atno 10763 bound_to 10752
  153.4749  135.3706  155.2411 H   0  0  0  0  0  0  0  0  0  0  0  0  # atno 10764 bound_to 10752
  154.8722  135.4052  154.3578 H   0  0  0  0  0  0  0  0  0  0  0  0  # atno 10765 bound_to 10752
  140.0918  134.9036  157.1662 H   0  0  0  0  0  0  0  0  0  0  0  0  # atno 11005 bound_to 11000
  146.2402  139.5986  142.9496 LP  0  0  0  0  0  0  0  0  0  0  0  0  # atno 17320 bound_to 7965
  145.5336  141.0425  143.2369 LP  0  0  0  0  0  0  0  0  0  0  0  0  # atno 17321 bound_to 7965
  140.7256  143.7013  150.7842 LP  0  0  0  0  0  0  0  0  0  0  0  0  # atno 17342 bound_to 10162
  140.0591  143.5172  152.2636 LP  0  0  0  0  0  0  0  0  0  0  0  0  # atno 17343 bound_to 10162
  157.5275  130.8037  149.7878 LP  0  0  0  0  0  0  0  0  0  0  0  0  # atno 17370 bound_to 10713
  156.0114  130.3832  150.2252 LP  0  0  0  0  0  0  0  0  0  0  0  0  # atno 17371 bound_to 10713
  140.3342  134.2776  155.7223 LP  0  0  0  0  0  0  0  0  0  0  0  0  # atno 17394 bound_to 11000
  141.2080  133.7790  157.0085 LP  0  0  0  0  0  0  0  0  0  0  0  0  # atno 17395 bound_to 11000

$$$$
