AV-unprocessed.smi:2747|AV-procd|sdf|10577|dock5
  -GOLD-   2272015 33D 1   1.00000     0.00000
 Structure written by MMmdl.
 24 25  0  0  0  0  0  0  0  0  1 V2000
  154.2556  136.5755  161.5922 O   0  0  0  0  0  0  0  0  0  0  0  0
  154.3063  137.5480  162.6199 C   0  0  2  0  0  0  0  0  0  0  0  0
  155.1689  138.7409  162.1609 C   0  0  0  0  0  0  0  0  0  0  0  0
  154.5890  139.4420  161.0292 N   0  0  0  0  0  0  0  0  0  0  0  0
  154.6133  138.8581  159.7978 N   0  0  0  0  0  0  0  0  0  0  0  0
  154.0499  139.6611  158.9455 N   0  0  0  0  0  0  0  0  0  0  0  0
  153.6468  140.7967  159.6281 C   0  0  0  0  0  0  0  0  0  0  0  0
  152.9933  141.9727  159.1976 C   0  0  0  0  0  0  0  0  0  0  0  0
  152.6952  143.0019  160.1176 C   0  0  0  0  0  0  0  0  0  0  0  0
  151.8969  144.4260  159.5521 Cl  0  0  0  0  0  0  0  0  0  0  0  0
  153.0485  142.8648  161.4819 C   0  0  0  0  0  0  0  0  0  0  0  0
  152.6941  144.1152  162.6203 Cl  0  0  0  0  0  0  0  0  0  0  0  0
  153.6992  141.6963  161.9257 C   0  0  0  0  0  0  0  0  0  0  0  0
  153.9860  140.6843  160.9938 C   0  0  0  0  0  0  0  0  0  0  0  0
  154.8295  136.8941  163.9127 C   0  0  0  0  0  0  0  0  0  0  0  0
  153.9934  135.9364  164.3142 F   0  0  0  0  0  0  0  0  0  0  0  0
  156.0456  136.3782  163.7301 F   0  0  0  0  0  0  0  0  0  0  0  0
  154.8965  137.8120  164.8769 F   0  0  0  0  0  0  0  0  0  0  0  0
  154.3314  137.0144  160.7587 H   0  0  0  0  0  0  0  0  0  0  0  0
  153.2861  137.8931  162.7935 H   0  0  0  0  0  0  0  0  0  0  0  0
  155.2982  139.4528  162.9773 H   0  0  0  0  0  0  0  0  0  0  0  0
  156.1685  138.4042  161.8834 H   0  0  0  0  0  0  0  0  0  0  0  0
  152.7219  142.0839  158.1580 H   0  0  0  0  0  0  0  0  0  0  0  0
  153.9750  141.5798  162.9634 H   0  0  0  0  0  0  0  0  0  0  0  0
  1  2  1  0  0  0  0
  1 19  1  0  0  0  0
  2  3  1  0  0  0  0
  2 15  1  0  0  0  0
  2 20  1  0  0  0  0
  3  4  1  0  0  0  0
  3 21  1  0  0  0  0
  3 22  1  0  0  0  0
  4 14  1  0  0  0  0
  4  5  1  0  0  0  0
  5  6  2  0  0  0  0
  6  7  1  0  0  0  0
  7 14  2  0  0  0  0
  7  8  1  0  0  0  0
  8  9  2  0  0  0  0
  8 23  1  0  0  0  0
  9 10  1  0  0  0  0
  9 11  1  0  0  0  0
 11 12  1  0  0  0  0
 11 13  2  0  0  0  0
 13 14  1  0  0  0  0
 13 24  1  0  0  0  0
 15 16  1  0  0  0  0
 15 17  1  0  0  0  0
 15 18  1  0  0  0  0
M  END
> <s_m_source_file>
AV-unprocessed.smi

> <i_m_source_file_index>
2747

> <i_lp_mmshare_version>
43012

> <i_f3d_flags>
0

> <s_epik_input>
RkMoRikoRilbQ0BIXShbT0hdKVtDSDJdbihubjEpYyhjMTIpW2NIXWMoQ2wpYyhDbClbY0hdMg==

> <s_epik_cmdline>
J2VwaWtfcHl0aG9uJywgJy1waCcsICc3LjAnLCAnLXRuJywgJzgnLCAnLW1hJywgJzIwMCcsICctbWV0YWxfYmluZGluZycsICctaW1hZScsICc8aW5maWxlLm1hZT4nLCAnLW9tYWUnLCAnPG91dGZpbGUubWFlPic=

> <r_lp_tautomer_probability>
1

> <r_epik_Ionization_Penalty>
0.0735676

> <r_epik_Ionization_Penalty_Charging>
0

> <r_epik_Ionization_Penalty_Neutral>
0.0735676

> <r_epik_State_Penalty>
0.0647209

> <r_epik_Charging_Adjusted_Penalty>
0.0647209

> <i_epik_Tot_Q>
0

> <i_epik_Tot_abs_Q>
0

> <r_epik_Metal_State_Penalty>
0.0647209

> <b_epik_Metal_Only>
0

> <s_lp_Force_Field>
OPLS_2005

> <r_lp_Energy>
9.1287

> <b_lp_Chiralities_Consistent>
1

> <s_lp_Variant>
AV-unprocessed.smi:2747-1

> <Gold.Version>
5.8.1

> <Gold.Id.Protein>
6NUR|6NUR_protein|mol2

> <Gold.PLP.Fitness>
46.4668

> <Gold.PLP.PLP>
-43.7878

> <Gold.PLP.part.hbond>
-1.0000

> <Gold.PLP.part.metal>
0.0000

> <Gold.PLP.part.buried>
-3.8503

> <Gold.PLP.part.nonpolar>
-37.7850

> <Gold.PLP.part.repulsive>
0.0000

> <Gold.PLP.ligand.clash>
0.0000

> <Gold.PLP.ligand.torsion>
0.1648

> <Gold.PLP.Chemscore.Hbond>
1.0000

> <Gold.PLP.Chemscore.CHOScore>
0.0000

> <Gold.PLP.Chemscore.Metal>
0.0000

> <Gold.Chemscore.Hbonds>
donor molecule, donor type, donor heavy atom, donor atom, acceptor molecule, acceptor atom, score
      P1  H  7997  8010       L1     6  1.00

> <Gold.PLP.Chemscore.Internal.Correction>
0.0086

> <Gold.Rescore>
     Score         DG    S(hbond)    S(metal)    S(lipo)     H(rot)  DE(clash)    DE(int)     intcor
     15.55     -16.24       0.90        0.00     108.51       1.92       0.32       0.38       ----

> <Gold.Chemscore.Fitness>
15.5472

> <Gold.Chemscore.DG>
-16.2406

> <Gold.Chemscore.ZeroCoef>
-5.4800

> <Gold.Chemscore.Hbond>
0.8951

> <Gold.Chemscore.Metal>
0.0000

> <Gold.Chemscore.Lipo>
108.5066

> <Gold.Chemscore.Internal_Hbond>
0.0000

> <Gold.Chemscore.DEClash>
0.3155

> <Gold.Chemscore.DEInternal>
0.3779

> <Gold.Chemscore.Rot>
1.9235

> <Gold.Chemscore.Internal.Correction>
   9.000000E+99

> <Gold.Chemscore.Hbonds>
donor molecule, donor type, donor heavy atom, donor atom, acceptor molecule, acceptor atom, score
      P1  H  7997  8010       L1     6  0.81

> <Gold.Chemscore.Hbond.Weighted>
-2.9895

> <Gold.Chemscore.Metal.Weighted>
-0.0000

> <Gold.Chemscore.Lipo.Weighted>
-12.6953

> <Gold.Chemscore.Internal_Hbond.Weighted>
0.0000

> <Gold.Chemscore.DEClash.Weighted>
0.3155

> <Gold.Chemscore.DEInternal.Weighted>
0.3779

> <Gold.Chemscore.Rot.Weighted>
4.9242

> <Gold.Chemscore.Internal.Correction.Weighted>
   9.000000E+99

> <Gold.Protein.RotatedTorsions>
[ 6907 6896 6895 6894 ] final  -13.39 input  -60.11 | X-H torsion
[ 7974 7965 7964 7962 ] final   85.09 input  175.53 | X-H torsion
[ 8008 7997 7996 7995 ] final   26.62 input   59.86 | X-H torsion
[ 10167 10162 10161 10158 ] final  -16.60 input  -65.29 | X-H torsion
[ 10718 10713 10712 10709 ] final  123.01 input   66.30 | X-H torsion
[ 10763 10752 10751 10750 ] final  -59.76 input  -60.55 | X-H torsion
[ 11005 11000 10999 10996 ] final   76.28 input  -57.11 | X-H torsion

> <Gold.Protein.ActiveResidues>
 VAL166  LYS551  ARG553  GLY616  TRP617  ASP618  TYR619  PRO620  LYS621  CYS622 
 ASP623  PHE694  ASN695  SER759  ASP760  ASP761  ALA762  ILE779  LEU786  VAL792 
 PHE793  MET794  SER795  GLU796  ALA797  LYS798  CYS799  TRP800  GLU811  SER814 

> <Gold.Protein.RotatedAtoms>
  151.3557  135.0893  159.9417 H   0  0  0  0  0  0  0  0  0  0  0  0  # atno 6907 bound_to 6896
  152.5175  133.9308  159.7590 H   0  0  0  0  0  0  0  0  0  0  0  0  # atno 6908 bound_to 6896
  150.9693  133.6307  159.2770 H   0  0  0  0  0  0  0  0  0  0  0  0  # atno 6909 bound_to 6896
  145.5901  139.2337  143.2304 H   0  0  0  0  0  0  0  0  0  0  0  0  # atno 7974 bound_to 7965
  155.0301  140.3157  155.4761 H   0  0  0  0  0  0  0  0  0  0  0  0  # atno 8008 bound_to 7997
  156.2875  140.2182  156.5364 H   0  0  0  0  0  0  0  0  0  0  0  0  # atno 8009 bound_to 7997
  154.7378  140.0476  157.0772 H   0  0  0  0  0  0  0  0  0  0  0  0  # atno 8010 bound_to 7997
  140.7236  143.5100  150.9762 H   0  0  0  0  0  0  0  0  0  0  0  0  # atno 10167 bound_to 10162
  157.5698  131.1084  150.8388 H   0  0  0  0  0  0  0  0  0  0  0  0  # atno 10718 bound_to 10713
  154.2587  135.6312  153.5266 H   0  0  0  0  0  0  0  0  0  0  0  0  # atno 10763 bound_to 10752
  152.9899  135.5582  154.5728 H   0  0  0  0  0  0  0  0  0  0  0  0  # atno 10764 bound_to 10752
  154.5272  135.2886  155.1187 H   0  0  0  0  0  0  0  0  0  0  0  0  # atno 10765 bound_to 10752
  139.9305  134.7587  156.1376 H   0  0  0  0  0  0  0  0  0  0  0  0  # atno 11005 bound_to 11000
  146.1653  140.6727  142.9258 LP  0  0  0  0  0  0  0  0  0  0  0  0  # atno 17320 bound_to 7965
  144.7355  140.4796  143.6907 LP  0  0  0  0  0  0  0  0  0  0  0  0  # atno 17321 bound_to 7965
  139.8813  143.7069  152.3156 LP  0  0  0  0  0  0  0  0  0  0  0  0  # atno 17342 bound_to 10162
  139.7352  144.7573  151.0739 LP  0  0  0  0  0  0  0  0  0  0  0  0  # atno 17343 bound_to 10162
  156.8862  130.5197  149.5288 LP  0  0  0  0  0  0  0  0  0  0  0  0  # atno 17370 bound_to 10713
  156.0744  130.5770  150.9445 LP  0  0  0  0  0  0  0  0  0  0  0  0  # atno 17371 bound_to 10713
  141.0891  133.6722  156.2501 LP  0  0  0  0  0  0  0  0  0  0  0  0  # atno 17394 bound_to 11000
  140.6214  134.5357  157.5548 LP  0  0  0  0  0  0  0  0  0  0  0  0  # atno 17395 bound_to 11000

$$$$
