AV-unprocessed.smi:837|AV-procd|sdf|3902|dock4
  -GOLD-   22720 1363D 1   1.00000     0.00000
 Structure written by MMmdl.
 48 50  0  0  0  0  0  0  0  0  2 V2000
  145.3007  136.5577  159.0683 C   0  0  0  0  0  0  0  0  0  0  0  0
  145.7327  135.4692  160.0760 C   0  0  2  0  0  0  0  0  0  0  0  0
  145.1768  135.8023  161.4788 C   0  0  0  0  0  0  0  0  0  0  0  0
  145.5152  134.7118  162.5053 C   0  0  0  0  0  0  0  0  0  0  0  0
  147.0277  134.4702  162.5813 C   0  0  0  0  0  0  0  0  0  0  0  0
  147.6001  134.1220  161.1964 C   0  0  0  0  0  0  0  0  0  0  0  0
  147.2712  135.1787  160.1074 C   0  0  1  0  0  0  0  0  0  0  0  0
  147.7141  134.6673  158.8217 N   0  5  0  0  0  0  0  0  0  0  0  0
  148.6641  135.4898  158.3198 C   0  0  0  0  0  0  0  0  0  0  0  0
  149.2495  135.3672  157.2442 O   0  0  0  0  0  0  0  0  0  0  0  0
  148.9113  136.5121  159.1600 N   0  0  0  0  0  0  0  0  0  0  0  0
  149.8642  137.6005  158.9024 C   0  0  0  0  0  0  0  0  0  0  0  0
  149.3535  138.6289  157.8827 C   0  0  0  0  0  0  0  0  0  0  0  0
  148.4850  138.3332  157.0600 O   0  0  0  0  0  0  0  0  0  0  0  0
  149.8996  139.8516  157.9631 N   0  0  0  0  0  0  0  0  0  0  0  0
  149.5625  140.9786  157.1019 C   0  0  0  0  0  0  0  0  0  0  0  0
  150.8212  141.6992  156.5922 C   0  0  0  0  0  0  0  0  0  0  0  0
  151.4892  142.5168  157.6804 C   0  0  0  0  0  0  0  0  0  0  0  0
  152.0255  141.8934  158.8260 C   0  0  0  0  0  0  0  0  0  0  0  0
  152.6408  142.6938  159.8080 C   0  0  0  0  0  0  0  0  0  0  0  0
  152.6941  144.0869  159.6010 C   0  0  0  0  0  0  0  0  0  0  0  0
  152.1842  144.6943  158.5077 N   0  0  0  0  0  0  0  0  0  0  0  0
  151.5953  143.9198  157.5713 C   0  0  0  0  0  0  0  0  0  0  0  0
  148.1393  136.4279  160.2490 C   0  0  0  0  0  0  0  0  0  0  0  0
  148.1085  137.2100  161.2001 O   0  0  0  0  0  0  0  0  0  0  0  0
  145.7024  137.5370  159.3300 H   0  0  0  0  0  0  0  0  0  0  0  0
  144.2149  136.6498  159.0392 H   0  0  0  0  0  0  0  0  0  0  0  0
  145.6294  136.3231  158.0556 H   0  0  0  0  0  0  0  0  0  0  0  0
  145.2418  134.5474  159.7584 H   0  0  0  0  0  0  0  0  0  0  0  0
  145.5654  136.7611  161.8224 H   0  0  0  0  0  0  0  0  0  0  0  0
  144.0939  135.9187  161.4275 H   0  0  0  0  0  0  0  0  0  0  0  0
  145.1345  134.9943  163.4872 H   0  0  0  0  0  0  0  0  0  0  0  0
  145.0101  133.7843  162.2324 H   0  0  0  0  0  0  0  0  0  0  0  0
  147.5234  135.3522  162.9866 H   0  0  0  0  0  0  0  0  0  0  0  0
  147.2362  133.6587  163.2788 H   0  0  0  0  0  0  0  0  0  0  0  0
  148.6793  133.9835  161.2806 H   0  0  0  0  0  0  0  0  0  0  0  0
  147.2012  133.1527  160.8925 H   0  0  0  0  0  0  0  0  0  0  0  0
  150.0989  138.1238  159.8306 H   0  0  0  0  0  0  0  0  0  0  0  0
  150.8102  137.1841  158.5519 H   0  0  0  0  0  0  0  0  0  0  0  0
  150.6022  140.0106  158.6709 H   0  0  0  0  0  0  0  0  0  0  0  0
  148.9497  140.6389  156.2653 H   0  0  0  0  0  0  0  0  0  0  0  0
  148.9466  141.6696  157.6779 H   0  0  0  0  0  0  0  0  0  0  0  0
  151.5367  140.9740  156.2021 H   0  0  0  0  0  0  0  0  0  0  0  0
  150.5697  142.3594  155.7610 H   0  0  0  0  0  0  0  0  0  0  0  0
  151.9680  140.8217  158.9506 H   0  0  0  0  0  0  0  0  0  0  0  0
  153.0624  142.2507  160.6982 H   0  0  0  0  0  0  0  0  0  0  0  0
  153.1588  144.7304  160.3333 H   0  0  0  0  0  0  0  0  0  0  0  0
  151.2001  144.4352  156.7082 H   0  0  0  0  0  0  0  0  0  0  0  0
  1  2  1  0  0  0  0
  1 26  1  0  0  0  0
  1 27  1  0  0  0  0
  1 28  1  0  0  0  0
  2  7  1  0  0  0  0
  2  3  1  0  0  0  0
  2 29  1  0  0  0  0
  3  4  1  0  0  0  0
  3 30  1  0  0  0  0
  3 31  1  0  0  0  0
  4  5  1  0  0  0  0
  4 32  1  0  0  0  0
  4 33  1  0  0  0  0
  5  6  1  0  0  0  0
  5 34  1  0  0  0  0
  5 35  1  0  0  0  0
  6  7  1  0  0  0  0
  6 36  1  0  0  0  0
  6 37  1  0  0  0  0
  7 24  1  0  0  0  0
  7  8  1  0  0  0  0
  8  9  1  0  0  0  0
  9 10  2  0  0  0  0
  9 11  1  0  0  0  0
 11 12  1  0  0  0  0
 11 24  1  0  0  0  0
 12 13  1  0  0  0  0
 12 38  1  0  0  0  0
 12 39  1  0  0  0  0
 13 14  2  0  0  0  0
 13 15  1  0  0  0  0
 15 16  1  0  0  0  0
 15 40  1  0  0  0  0
 16 17  1  0  0  0  0
 16 41  1  0  0  0  0
 16 42  1  0  0  0  0
 17 18  1  0  0  0  0
 17 43  1  0  0  0  0
 17 44  1  0  0  0  0
 18 23  1  0  0  0  0
 18 19  2  0  0  0  0
 19 20  1  0  0  0  0
 19 45  1  0  0  0  0
 20 21  2  0  0  0  0
 20 46  1  0  0  0  0
 21 22  1  0  0  0  0
 21 47  1  0  0  0  0
 22 23  2  0  0  0  0
 23 48  1  0  0  0  0
 24 25  2  0  0  0  0
M  CHG  1   8  -1
M  END
> <s_m_source_file>
AV-unprocessed.smi

> <i_m_source_file_index>
837

> <i_lp_mmshare_version>
43012

> <i_f3d_flags>
0

> <s_epik_input>
W0NIMl0xW0NIMl1bQ0gyXVtDSDJdW0NAQEhdKFtDSDNdKVtDQEBdMTJbTkhdQyg9TylOKEMyPU8pW0NIMl1DKD1PKVtOSF1bQ0gyXVtDSDJdYzNbY0hdW2NIXVtjSF1uW2NIXTM=

> <s_epik_cmdline>
J2VwaWtfcHl0aG9uJywgJy1waCcsICc3LjAnLCAnLXRuJywgJzgnLCAnLW1hJywgJzIwMCcsICctbWV0YWxfYmluZGluZycsICctaW1hZScsICc8aW5maWxlLm1hZT4nLCAnLW9tYWUnLCAnPG91dGZpbGUubWFlPic=

> <r_lp_tautomer_probability>
1

> <r_epik_Ionization_Penalty>
6.03002

> <r_epik_Ionization_Penalty_Charging>
6.01728

> <r_epik_Ionization_Penalty_Neutral>
0.0127382

> <r_epik_State_Penalty>
6.02713

> <r_epik_Charging_Adjusted_Penalty>
12.0444

> <i_epik_Tot_Q>
-1

> <i_epik_Tot_abs_Q>
1

> <r_epik_Metal_State_Penalty>
1.99078

> <b_epik_Metal_Only>
1

> <s_lp_Force_Field>
OPLS_2005

> <r_lp_Energy>
14.9732

> <b_lp_Chiralities_Consistent>
1

> <s_lp_Variant>
AV-unprocessed.smi:837-11

> <Gold.Version>
5.8.1

> <Gold.Id.Protein>
6NUR|6NUR_protein|mol2

> <Gold.PLP.Fitness>
47.7145

> <Gold.PLP.PLP>
-41.1423

> <Gold.PLP.part.hbond>
-1.9022

> <Gold.PLP.part.metal>
0.0000

> <Gold.PLP.part.buried>
-5.5237

> <Gold.PLP.part.nonpolar>
-33.5435

> <Gold.PLP.part.repulsive>
0.2014

> <Gold.PLP.ligand.clash>
0.0000

> <Gold.PLP.ligand.torsion>
0.6812

> <Gold.PLP.Chemscore.Hbond>
1.6289

> <Gold.PLP.Chemscore.CHOScore>
1.0000

> <Gold.PLP.Chemscore.Metal>
0.0000

> <Gold.Chemscore.Hbonds>
donor molecule, donor type, donor heavy atom, donor atom, acceptor molecule, acceptor atom, score
      P1  H  6931  6943       L1    25  1.00
      P1  H  6934  6947       L1    25  0.63
      L1  C    23    48       P1  8028  1.00

> <Gold.PLP.Chemscore.Internal.Correction>
0.0479

> <Gold.Rescore>
     Score         DG    S(hbond)    S(metal)    S(lipo)     H(rot)  DE(clash)    DE(int)     intcor
     17.82     -18.58       1.67        0.00     103.81       1.81       0.04       0.72       ----

> <Gold.Chemscore.Fitness>
17.8190

> <Gold.Chemscore.DG>
-18.5799

> <Gold.Chemscore.ZeroCoef>
-5.4800

> <Gold.Chemscore.Hbond>
1.6721

> <Gold.Chemscore.Metal>
0.0000

> <Gold.Chemscore.Lipo>
103.8123

> <Gold.Chemscore.Internal_Hbond>
0.0000

> <Gold.Chemscore.DEClash>
0.0420

> <Gold.Chemscore.DEInternal>
0.7188

> <Gold.Chemscore.Rot>
1.8090

> <Gold.Chemscore.Internal.Correction>
   9.000000E+99

> <Gold.Chemscore.Hbonds>
donor molecule, donor type, donor heavy atom, donor atom, acceptor molecule, acceptor atom, score
      P1  H  6931  6943       L1    25  0.92
      P1  H  6934  6947       L1    25  0.57

> <Gold.Chemscore.Hbond.Weighted>
-5.5848

> <Gold.Chemscore.Metal.Weighted>
-0.0000

> <Gold.Chemscore.Lipo.Weighted>
-12.1460

> <Gold.Chemscore.Internal_Hbond.Weighted>
0.0000

> <Gold.Chemscore.DEClash.Weighted>
0.0420

> <Gold.Chemscore.DEInternal.Weighted>
0.7188

> <Gold.Chemscore.Rot.Weighted>
4.6310

> <Gold.Chemscore.Internal.Correction.Weighted>
   9.000000E+99

> <Gold.Protein.RotatedTorsions>
[ 6907 6896 6895 6894 ] final    1.61 input  -60.11 | X-H torsion
[ 7974 7965 7964 7962 ] final  -59.82 input  175.53 | X-H torsion
[ 8008 7997 7996 7995 ] final -133.83 input   59.86 | X-H torsion
[ 10167 10162 10161 10158 ] final -128.51 input  -65.29 | X-H torsion
[ 10718 10713 10712 10709 ] final   -3.48 input   66.30 | X-H torsion
[ 10763 10752 10751 10750 ] final  109.17 input  -60.55 | X-H torsion
[ 11005 11000 10999 10996 ] final   34.26 input  -57.11 | X-H torsion

> <Gold.Protein.ActiveResidues>
 VAL166  LYS551  ARG553  GLY616  TRP617  ASP618  TYR619  PRO620  LYS621  CYS622 
 ASP623  PHE694  ASN695  SER759  ASP760  ASP761  ALA762  ILE779  LEU786  VAL792 
 PHE793  MET794  SER795  GLU796  ALA797  LYS798  CYS799  TRP800  GLU811  SER814 

> <Gold.Protein.RotatedAtoms>
  151.5954  135.1051  160.0048 H   0  0  0  0  0  0  0  0  0  0  0  0  # atno 6907 bound_to 6896
  152.4285  133.7232  159.6556 H   0  0  0  0  0  0  0  0  0  0  0  0  # atno 6908 bound_to 6896
  150.8175  133.8239  159.3176 H   0  0  0  0  0  0  0  0  0  0  0  0  # atno 6909 bound_to 6896
  145.8229  140.8528  143.0123 H   0  0  0  0  0  0  0  0  0  0  0  0  # atno 7974 bound_to 7965
  155.3521  140.0478  157.3046 H   0  0  0  0  0  0  0  0  0  0  0  0  # atno 8008 bound_to 7997
  154.5222  140.2229  155.8919 H   0  0  0  0  0  0  0  0  0  0  0  0  # atno 8009 bound_to 7997
  156.1701  140.3097  155.8965 H   0  0  0  0  0  0  0  0  0  0  0  0  # atno 8010 bound_to 7997
  139.9496  143.6071  152.2479 H   0  0  0  0  0  0  0  0  0  0  0  0  # atno 10167 bound_to 10162
  156.7754  130.5313  149.5760 H   0  0  0  0  0  0  0  0  0  0  0  0  # atno 10718 bound_to 10713
  153.4310  135.3788  155.2170 H   0  0  0  0  0  0  0  0  0  0  0  0  # atno 10763 bound_to 10752
  154.8750  135.3840  154.4268 H   0  0  0  0  0  0  0  0  0  0  0  0  # atno 10764 bound_to 10752
  153.4800  135.7088  153.6006 H   0  0  0  0  0  0  0  0  0  0  0  0  # atno 10765 bound_to 10752
  140.2546  134.3263  155.7878 H   0  0  0  0  0  0  0  0  0  0  0  0  # atno 11005 bound_to 11000
  144.6746  140.0560  143.7477 LP  0  0  0  0  0  0  0  0  0  0  0  0  # atno 17320 bound_to 7965
  145.9655  139.2831  143.1130 LP  0  0  0  0  0  0  0  0  0  0  0  0  # atno 17321 bound_to 7965
  139.6639  144.7662  151.1910 LP  0  0  0  0  0  0  0  0  0  0  0  0  # atno 17342 bound_to 10162
  140.7587  143.5967  150.8741 LP  0  0  0  0  0  0  0  0  0  0  0  0  # atno 17343 bound_to 10162
  156.1251  130.6138  151.0252 LP  0  0  0  0  0  0  0  0  0  0  0  0  # atno 17370 bound_to 10713
  157.6671  131.0869  150.7702 LP  0  0  0  0  0  0  0  0  0  0  0  0  # atno 17371 bound_to 10713
  141.2197  133.7374  156.9091 LP  0  0  0  0  0  0  0  0  0  0  0  0  # atno 17394 bound_to 11000
  140.1524  134.9221  157.2609 LP  0  0  0  0  0  0  0  0  0  0  0  0  # atno 17395 bound_to 11000

$$$$
