AV-unprocessed.smi:2204|AV-procd|sdf|8937|dock8
  -GOLD-   2272012153D 1   1.00000     0.00000
 Structure written by MMmdl.
 39 40  0  0  0  0  0  0  0  0  1 V2000
  153.8997  141.3799  161.3058 C   0  0  0  0  0  0  0  0  0  0  0  0
  153.1154  142.4374  160.5872 C   0  0  0  0  0  0  0  0  0  0  0  0
  152.5992  143.6574  161.1066 C   0  0  0  0  0  0  0  0  0  0  0  0
  151.9670  144.2368  160.0428 C   0  0  0  0  0  0  0  0  0  0  0  0
  151.2246  145.5295  159.9517 C   0  0  0  0  0  0  0  0  0  0  0  0
  152.1253  143.3803  158.9670 N   0  0  0  0  0  0  0  0  0  0  0  0
  151.6454  143.5211  157.6004 C   0  0  0  0  0  0  0  0  0  0  0  0
  151.0271  142.2224  157.0725 C   0  0  0  0  0  0  0  0  0  0  0  0
  151.6278  141.1537  157.1888 O   0  0  0  0  0  0  0  0  0  0  0  0
  149.8144  142.3314  156.5066 N   0  0  0  0  0  0  0  0  0  0  0  0
  149.0283  141.2363  155.9400 C   0  0  2  0  0  0  0  0  0  0  0  0
  148.9747  141.4076  154.4147 C   0  0  0  0  0  0  0  0  0  0  0  0
  147.6155  141.2006  156.5613 C   0  0  2  0  0  0  0  0  0  0  0  0
  146.6522  142.2766  156.0539 C   0  0  0  0  0  0  0  0  0  0  0  0
  145.6668  142.3698  157.1951 C   0  0  0  0  0  0  0  0  0  0  0  0
  146.5817  142.2146  158.4055 C   0  0  0  0  0  0  0  0  0  0  0  0
  147.6814  141.4192  157.9693 O   0  0  0  0  0  0  0  0  0  0  0  0
  152.8304  142.2785  159.3051 N   0  0  0  0  0  0  0  0  0  0  0  0
  154.1204  141.6809  162.3301 H   0  0  0  0  0  0  0  0  0  0  0  0
  154.8490  141.1854  160.8058 H   0  0  0  0  0  0  0  0  0  0  0  0
  153.3453  140.4422  161.3479 H   0  0  0  0  0  0  0  0  0  0  0  0
  152.6782  144.0471  162.1105 H   0  0  0  0  0  0  0  0  0  0  0  0
  151.1424  146.0011  160.9311 H   0  0  0  0  0  0  0  0  0  0  0  0
  150.2154  145.3741  159.5704 H   0  0  0  0  0  0  0  0  0  0  0  0
  151.7366  146.2249  159.2865 H   0  0  0  0  0  0  0  0  0  0  0  0
  150.8997  144.3151  157.5616 H   0  0  0  0  0  0  0  0  0  0  0  0
  152.4754  143.8367  156.9659 H   0  0  0  0  0  0  0  0  0  0  0  0
  149.4017  143.2516  156.4594 H   0  0  0  0  0  0  0  0  0  0  0  0
  149.5217  140.2847  156.1459 H   0  0  0  0  0  0  0  0  0  0  0  0
  148.4233  140.5928  153.9448 H   0  0  0  0  0  0  0  0  0  0  0  0
  149.9768  141.4136  153.9845 H   0  0  0  0  0  0  0  0  0  0  0  0
  148.4867  142.3423  154.1360 H   0  0  0  0  0  0  0  0  0  0  0  0
  147.1618  140.2207  156.4020 H   0  0  0  0  0  0  0  0  0  0  0  0
  147.1681  143.2302  155.9316 H   0  0  0  0  0  0  0  0  0  0  0  0
  146.1826  142.0162  155.1049 H   0  0  0  0  0  0  0  0  0  0  0  0
  145.1034  143.3034  157.2025 H   0  0  0  0  0  0  0  0  0  0  0  0
  144.9592  141.5410  157.1475 H   0  0  0  0  0  0  0  0  0  0  0  0
  146.9632  143.1861  158.7216 H   0  0  0  0  0  0  0  0  0  0  0  0
  146.0716  141.7583  159.2543 H   0  0  0  0  0  0  0  0  0  0  0  0
  1  2  1  0  0  0  0
  1 19  1  0  0  0  0
  1 20  1  0  0  0  0
  1 21  1  0  0  0  0
  2 18  2  0  0  0  0
  2  3  1  0  0  0  0
  3  4  2  0  0  0  0
  3 22  1  0  0  0  0
  4  5  1  0  0  0  0
  4  6  1  0  0  0  0
  5 23  1  0  0  0  0
  5 24  1  0  0  0  0
  5 25  1  0  0  0  0
  6  7  1  0  0  0  0
  6 18  1  0  0  0  0
  7  8  1  0  0  0  0
  7 26  1  0  0  0  0
  7 27  1  0  0  0  0
  8  9  2  0  0  0  0
  8 10  1  0  0  0  0
 10 11  1  0  0  0  0
 10 28  1  0  0  0  0
 11 12  1  0  0  0  0
 11 13  1  0  0  0  0
 11 29  1  0  0  0  0
 12 30  1  0  0  0  0
 12 31  1  0  0  0  0
 12 32  1  0  0  0  0
 13 17  1  0  0  0  0
 13 14  1  0  0  0  0
 13 33  1  0  0  0  0
 14 15  1  0  0  0  0
 14 34  1  0  0  0  0
 14 35  1  0  0  0  0
 15 16  1  0  0  0  0
 15 36  1  0  0  0  0
 15 37  1  0  0  0  0
 16 17  1  0  0  0  0
 16 38  1  0  0  0  0
 16 39  1  0  0  0  0
M  END
> <s_m_source_file>
AV-unprocessed.smi

> <i_m_source_file_index>
2204

> <i_lp_mmshare_version>
43012

> <i_f3d_flags>
0

> <s_epik_input>
W0NIM11jMVtjSF1jKFtDSDNdKW4objEpW0NIMl1DKD1PKVtOSF1bQ0BIXShbQ0gzXSlbQ0BASF0yW0NIMl1bQ0gyXVtDSDJdTzI=

> <s_epik_cmdline>
J2VwaWtfcHl0aG9uJywgJy1waCcsICc3LjAnLCAnLXRuJywgJzgnLCAnLW1hJywgJzIwMCcsICctbWV0YWxfYmluZGluZycsICctaW1hZScsICc8aW5maWxlLm1hZT4nLCAnLW9tYWUnLCAnPG91dGZpbGUubWFlPic=

> <r_lp_tautomer_probability>
1

> <r_epik_Ionization_Penalty>
0.000433354

> <r_epik_Ionization_Penalty_Charging>
0

> <r_epik_Ionization_Penalty_Neutral>
0.000433354

> <r_epik_State_Penalty>
-0

> <r_epik_Charging_Adjusted_Penalty>
0

> <i_epik_Tot_Q>
0

> <i_epik_Tot_abs_Q>
0

> <r_epik_Metal_State_Penalty>
-0

> <b_epik_Metal_Only>
0

> <s_lp_Force_Field>
OPLS_2005

> <r_lp_Energy>
17.0674

> <b_lp_Chiralities_Consistent>
1

> <s_lp_Variant>
AV-unprocessed.smi:2204-1

> <Gold.Version>
5.8.1

> <Gold.Id.Protein>
6NUR|6NUR_protein|mol2

> <Gold.PLP.Fitness>
41.3677

> <Gold.PLP.PLP>
-39.5512

> <Gold.PLP.part.hbond>
-1.0000

> <Gold.PLP.part.metal>
0.0000

> <Gold.PLP.part.buried>
-5.3485

> <Gold.PLP.part.nonpolar>
-32.5700

> <Gold.PLP.part.repulsive>
0.1313

> <Gold.PLP.ligand.clash>
0.0000

> <Gold.PLP.ligand.torsion>
0.5994

> <Gold.PLP.Chemscore.Hbond>
1.0000

> <Gold.PLP.Chemscore.CHOScore>
0.0000

> <Gold.PLP.Chemscore.Metal>
0.0000

> <Gold.Chemscore.Hbonds>
donor molecule, donor type, donor heavy atom, donor atom, acceptor molecule, acceptor atom, score
      L1  H    10    28       P1  8028  1.00

> <Gold.PLP.Chemscore.Internal.Correction>
0.0153

> <Gold.Rescore>
     Score         DG    S(hbond)    S(metal)    S(lipo)     H(rot)  DE(clash)    DE(int)     intcor
     13.53     -15.53       1.00        0.00      90.18       1.50       0.00       1.99       ----

> <Gold.Chemscore.Fitness>
13.5285

> <Gold.Chemscore.DG>
-15.5265

> <Gold.Chemscore.ZeroCoef>
-5.4800

> <Gold.Chemscore.Hbond>
0.9991

> <Gold.Chemscore.Metal>
0.0000

> <Gold.Chemscore.Lipo>
90.1780

> <Gold.Chemscore.Internal_Hbond>
0.0000

> <Gold.Chemscore.DEClash>
0.0038

> <Gold.Chemscore.DEInternal>
1.9942

> <Gold.Chemscore.Rot>
1.5005

> <Gold.Chemscore.Internal.Correction>
   9.000000E+99

> <Gold.Chemscore.Hbonds>
donor molecule, donor type, donor heavy atom, donor atom, acceptor molecule, acceptor atom, score
      L1  H    10    28       P1  8028  0.99

> <Gold.Chemscore.Hbond.Weighted>
-3.3369

> <Gold.Chemscore.Metal.Weighted>
-0.0000

> <Gold.Chemscore.Lipo.Weighted>
-10.5508

> <Gold.Chemscore.Internal_Hbond.Weighted>
0.0000

> <Gold.Chemscore.DEClash.Weighted>
0.0038

> <Gold.Chemscore.DEInternal.Weighted>
1.9942

> <Gold.Chemscore.Rot.Weighted>
3.8412

> <Gold.Chemscore.Internal.Correction.Weighted>
   9.000000E+99

> <Gold.Protein.RotatedTorsions>
[ 6907 6896 6895 6894 ] final  137.57 input  -60.11 | X-H torsion
[ 7974 7965 7964 7962 ] final    1.51 input  175.53 | X-H torsion
[ 8008 7997 7996 7995 ] final  170.61 input   59.86 | X-H torsion
[ 10167 10162 10161 10158 ] final  111.48 input  -65.29 | X-H torsion
[ 10718 10713 10712 10709 ] final  164.15 input   66.30 | X-H torsion
[ 10763 10752 10751 10750 ] final -162.17 input  -60.55 | X-H torsion
[ 11005 11000 10999 10996 ] final  165.45 input  -57.11 | X-H torsion

> <Gold.Protein.ActiveResidues>
 VAL166  LYS551  ARG553  GLY616  TRP617  ASP618  TYR619  PRO620  LYS621  CYS622 
 ASP623  PHE694  ASN695  SER759  ASP760  ASP761  ALA762  ILE779  LEU786  VAL792 
 PHE793  MET794  SER795  GLU796  ALA797  LYS798  CYS799  TRP800  GLU811  SER814 

> <Gold.Protein.RotatedAtoms>
  152.2766  133.5431  159.5471 H   0  0  0  0  0  0  0  0  0  0  0  0  # atno 6907 bound_to 6896
  150.7179  134.0623  159.3844 H   0  0  0  0  0  0  0  0  0  0  0  0  # atno 6908 bound_to 6896
  151.8536  135.0549  160.0512 H   0  0  0  0  0  0  0  0  0  0  0  0  # atno 6909 bound_to 6896
  146.2440  140.0977  142.8349 H   0  0  0  0  0  0  0  0  0  0  0  0  # atno 7974 bound_to 7965
  156.1349  140.1533  156.9009 H   0  0  0  0  0  0  0  0  0  0  0  0  # atno 8008 bound_to 7997
  154.4939  140.0843  156.7694 H   0  0  0  0  0  0  0  0  0  0  0  0  # atno 8009 bound_to 7997
  155.4187  140.3422  155.4272 H   0  0  0  0  0  0  0  0  0  0  0  0  # atno 8010 bound_to 7997
  139.6608  144.7128  151.1869 H   0  0  0  0  0  0  0  0  0  0  0  0  # atno 10167 bound_to 10162
  157.0984  131.0436  151.2508 H   0  0  0  0  0  0  0  0  0  0  0  0  # atno 10718 bound_to 10713
  154.7238  135.3031  154.9004 H   0  0  0  0  0  0  0  0  0  0  0  0  # atno 10763 bound_to 10752
  153.9868  135.6723  153.4756 H   0  0  0  0  0  0  0  0  0  0  0  0  # atno 10764 bound_to 10752
  153.0857  135.4985  154.8510 H   0  0  0  0  0  0  0  0  0  0  0  0  # atno 10765 bound_to 10752
  140.2563  134.7938  157.3548 H   0  0  0  0  0  0  0  0  0  0  0  0  # atno 11005 bound_to 11000
  145.0596  140.9078  143.4947 LP  0  0  0  0  0  0  0  0  0  0  0  0  # atno 17320 bound_to 7965
  145.1090  139.2770  143.5647 LP  0  0  0  0  0  0  0  0  0  0  0  0  # atno 17321 bound_to 7965
  140.7579  143.5998  150.8711 LP  0  0  0  0  0  0  0  0  0  0  0  0  # atno 17342 bound_to 10162
  139.9655  143.6115  152.2989 LP  0  0  0  0  0  0  0  0  0  0  0  0  # atno 17343 bound_to 10162
  157.4662  130.7682  149.7281 LP  0  0  0  0  0  0  0  0  0  0  0  0  # atno 17370 bound_to 10713
  155.9880  130.3962  150.3139 LP  0  0  0  0  0  0  0  0  0  0  0  0  # atno 17371 bound_to 10713
  140.1509  134.4851  155.7962 LP  0  0  0  0  0  0  0  0  0  0  0  0  # atno 17394 bound_to 11000
  141.2196  133.6862  156.7376 LP  0  0  0  0  0  0  0  0  0  0  0  0  # atno 17395 bound_to 11000

$$$$
