AV-unprocessed.smi:866|AV-procd|sdf|3993|dock3
  -GOLD-   22720 1473D 1   1.00000     0.00000
 Structure written by MMmdl.
 34 34  0  0  0  0  0  0  0  0  2 V2000
  152.2455  144.0885  161.5921 C   0  0  0  0  0  0  0  0  0  0  0  0
  152.0281  143.9409  160.1135 C   0  0  0  0  0  0  0  0  0  0  0  0
  152.1215  144.9479  159.1110 C   0  0  0  0  0  0  0  0  0  0  0  0
  151.8700  144.4885  157.8958 N   0  0  0  0  0  0  0  0  0  0  0  0
  151.6056  143.1779  158.0791 N   0  0  0  0  0  0  0  0  0  0  0  0
  151.2873  142.3424  156.9377 C   0  0  0  0  0  0  0  0  0  0  0  0
  149.8047  141.9438  156.9174 C   0  0  0  0  0  0  0  0  0  0  0  0
  149.2670  141.9905  155.5414 N   0  3  0  0  0  0  0  0  0  0  0  0
  148.3380  140.8949  155.1819 C   0  0  1  0  0  0  0  0  0  0  0  0
  147.7582  141.1021  153.7682 C   0  0  0  0  0  0  0  0  0  0  0  0
  149.0739  139.5421  155.3196 C   0  0  0  0  0  0  0  0  0  0  0  0
  150.2930  139.3925  154.4009 C   0  0  0  0  0  0  0  0  0  0  0  0
  150.1865  138.5279  153.3891 N   0  0  0  0  0  0  0  0  0  0  0  0
  151.3140  140.0491  154.5947 O   0  0  0  0  0  0  0  0  0  0  0  0
  151.6959  142.8196  159.4074 C   0  0  0  0  0  0  0  0  0  0  0  0
  152.8133  144.9882  161.8301 H   0  0  0  0  0  0  0  0  0  0  0  0
  152.7969  143.2437  162.0055 H   0  0  0  0  0  0  0  0  0  0  0  0
  151.3010  144.1524  162.1324 H   0  0  0  0  0  0  0  0  0  0  0  0
  152.3642  145.9938  159.2302 H   0  0  0  0  0  0  0  0  0  0  0  0
  151.5515  142.8849  156.0287 H   0  0  0  0  0  0  0  0  0  0  0  0
  151.9192  141.4537  156.9718 H   0  0  0  0  0  0  0  0  0  0  0  0
  149.6880  140.9358  157.3179 H   0  0  0  0  0  0  0  0  0  0  0  0
  149.2335  142.6147  157.5587 H   0  0  0  0  0  0  0  0  0  0  0  0
  148.8017  142.8752  155.3964 H   0  0  0  0  0  0  0  0  0  0  0  0
  147.5192  140.9152  155.9031 H   0  0  0  0  0  0  0  0  0  0  0  0
  147.0702  140.3013  153.4967 H   0  0  0  0  0  0  0  0  0  0  0  0
  148.5477  141.1269  153.0163 H   0  0  0  0  0  0  0  0  0  0  0  0
  147.1972  142.0331  153.6917 H   0  0  0  0  0  0  0  0  0  0  0  0
  149.3733  139.3871  156.3576 H   0  0  0  0  0  0  0  0  0  0  0  0
  148.3905  138.7281  155.0737 H   0  0  0  0  0  0  0  0  0  0  0  0
  150.9603  138.3871  152.7556 H   0  0  0  0  0  0  0  0  0  0  0  0
  149.3278  138.0111  153.2621 H   0  0  0  0  0  0  0  0  0  0  0  0
  151.5185  141.8068  159.7382 H   0  0  0  0  0  0  0  0  0  0  0  0
  150.0557  141.9376  154.9127 H   0  0  0  0  0  0  0  0  0  0  0  0
  1  2  1  0  0  0  0
  1 16  1  0  0  0  0
  1 17  1  0  0  0  0
  1 18  1  0  0  0  0
  2 15  2  0  0  0  0
  2  3  1  0  0  0  0
  3  4  2  0  0  0  0
  3 19  1  0  0  0  0
  4  5  1  0  0  0  0
  5  6  1  0  0  0  0
  5 15  1  0  0  0  0
  6  7  1  0  0  0  0
  6 20  1  0  0  0  0
  6 21  1  0  0  0  0
  7  8  1  0  0  0  0
  7 22  1  0  0  0  0
  7 23  1  0  0  0  0
  8  9  1  0  0  0  0
  8 24  1  0  0  0  0
  8 34  1  0  0  0  0
  9 10  1  0  0  0  0
  9 11  1  0  0  0  0
  9 25  1  0  0  0  0
 10 26  1  0  0  0  0
 10 27  1  0  0  0  0
 10 28  1  0  0  0  0
 11 12  1  0  0  0  0
 11 29  1  0  0  0  0
 11 30  1  0  0  0  0
 12 13  1  0  0  0  0
 12 14  2  0  0  0  0
 13 31  1  0  0  0  0
 13 32  1  0  0  0  0
 15 33  1  0  0  0  0
M  CHG  1   8   1
M  END
> <s_m_source_file>
AV-unprocessed.smi

> <i_m_source_file_index>
866

> <i_lp_mmshare_version>
43012

> <i_f3d_flags>
0

> <s_epik_input>
W0NIM11jMVtjSF1ubihbY0hdMSlbQ0gyXVtDSDJdW05IXVtDQEhdKFtDSDNdKVtDSDJdQyg9TylbTkgyXQ==

> <s_epik_cmdline>
J2VwaWtfcHl0aG9uJywgJy1waCcsICc3LjAnLCAnLXRuJywgJzgnLCAnLW1hJywgJzIwMCcsICctbWV0YWxfYmluZGluZycsICctaW1hZScsICc8aW5maWxlLm1hZT4nLCAnLW9tYWUnLCAnPG91dGZpbGUubWFlPic=

> <r_lp_tautomer_probability>
1

> <r_epik_Ionization_Penalty>
0.0061413

> <r_epik_Ionization_Penalty_Charging>
0.00613574

> <r_epik_Ionization_Penalty_Neutral>
5.56035e-06

> <r_epik_State_Penalty>
0.00452343

> <r_epik_Charging_Adjusted_Penalty>
0.0106592

> <i_epik_Tot_Q>
1

> <i_epik_Tot_abs_Q>
1

> <r_epik_Metal_State_Penalty>
-0

> <b_epik_Metal_Only>
0

> <s_lp_Force_Field>
OPLS_2005

> <r_lp_Energy>
3.04196

> <b_lp_Chiralities_Consistent>
1

> <s_lp_Variant>
AV-unprocessed.smi:866-2

> <Gold.Version>
5.8.1

> <Gold.Id.Protein>
6NUR|6NUR_protein|mol2

> <Gold.PLP.Fitness>
43.5364

> <Gold.PLP.PLP>
-35.3797

> <Gold.PLP.part.hbond>
-4.0863

> <Gold.PLP.part.metal>
0.0000

> <Gold.PLP.part.buried>
-5.6322

> <Gold.PLP.part.nonpolar>
-25.8381

> <Gold.PLP.part.repulsive>
0.4082

> <Gold.PLP.ligand.clash>
0.0000

> <Gold.PLP.ligand.torsion>
0.7900

> <Gold.PLP.Chemscore.Hbond>
3.1806

> <Gold.PLP.Chemscore.CHOScore>
0.0000

> <Gold.PLP.Chemscore.Metal>
0.0000

> <Gold.Chemscore.Hbonds>
donor molecule, donor type, donor heavy atom, donor atom, acceptor molecule, acceptor atom, score
      L1  H     8    24       P1  8028  1.86
      L1  H    13    32       P1  7948  0.22
      P1  H  7989  7998       L1    14  0.68

> <Gold.PLP.Chemscore.Internal.Correction>
0.1951

> <Gold.Rescore>
     Score         DG    S(hbond)    S(metal)    S(lipo)     H(rot)  DE(clash)    DE(int)     intcor
     13.18     -14.07       1.97        0.00      77.97       2.77       0.03       0.86       ----

> <Gold.Chemscore.Fitness>
13.1776

> <Gold.Chemscore.DG>
-14.0675

> <Gold.Chemscore.ZeroCoef>
-5.4800

> <Gold.Chemscore.Hbond>
1.9660

> <Gold.Chemscore.Metal>
0.0000

> <Gold.Chemscore.Lipo>
77.9694

> <Gold.Chemscore.Internal_Hbond>
0.0000

> <Gold.Chemscore.DEClash>
0.0282

> <Gold.Chemscore.DEInternal>
0.8616

> <Gold.Chemscore.Rot>
2.7740

> <Gold.Chemscore.Internal.Correction>
   9.000000E+99

> <Gold.Chemscore.Hbonds>
donor molecule, donor type, donor heavy atom, donor atom, acceptor molecule, acceptor atom, score
      L1  H     8    24       P1  8028  0.91
      L1  H    13    32       P1  7948  0.21
      P1  H  7989  7998       L1    14  0.59

> <Gold.Chemscore.Hbond.Weighted>
-6.5665

> <Gold.Chemscore.Metal.Weighted>
-0.0000

> <Gold.Chemscore.Lipo.Weighted>
-9.1224

> <Gold.Chemscore.Internal_Hbond.Weighted>
0.0000

> <Gold.Chemscore.DEClash.Weighted>
0.0282

> <Gold.Chemscore.DEInternal.Weighted>
0.8616

> <Gold.Chemscore.Rot.Weighted>
7.1014

> <Gold.Chemscore.Internal.Correction.Weighted>
   9.000000E+99

> <Gold.Protein.RotatedTorsions>
[ 6907 6896 6895 6894 ] final  152.10 input  -60.11 | X-H torsion
[ 7974 7965 7964 7962 ] final  175.70 input  175.53 | X-H torsion
[ 8008 7997 7996 7995 ] final   -2.03 input   59.86 | X-H torsion
[ 10167 10162 10161 10158 ] final   63.98 input  -65.29 | X-H torsion
[ 10718 10713 10712 10709 ] final  -14.43 input   66.30 | X-H torsion
[ 10763 10752 10751 10750 ] final -165.60 input  -60.55 | X-H torsion
[ 11005 11000 10999 10996 ] final  167.54 input  -57.11 | X-H torsion

> <Gold.Protein.ActiveResidues>
 VAL166  LYS551  ARG553  GLY616  TRP617  ASP618  TYR619  PRO620  LYS621  CYS622 
 ASP623  PHE694  ASN695  SER759  ASP760  ASP761  ALA762  ILE779  LEU786  VAL792 
 PHE793  MET794  SER795  GLU796  ALA797  LYS798  CYS799  TRP800  GLU811  SER814 

> <Gold.Protein.RotatedAtoms>
  152.0914  133.4202  159.4545 H   0  0  0  0  0  0  0  0  0  0  0  0  # atno 6907 bound_to 6896
  150.6862  134.2867  159.4659 H   0  0  0  0  0  0  0  0  0  0  0  0  # atno 6908 bound_to 6896
  152.0719  134.9527  160.0625 H   0  0  0  0  0  0  0  0  0  0  0  0  # atno 6909 bound_to 6896
  144.7197  139.9987  143.6440 H   0  0  0  0  0  0  0  0  0  0  0  0  # atno 7974 bound_to 7965
  154.6402  140.2544  155.7330 H   0  0  0  0  0  0  0  0  0  0  0  0  # atno 8008 bound_to 7997
  156.2525  140.2889  156.0713 H   0  0  0  0  0  0  0  0  0  0  0  0  # atno 8009 bound_to 7997
  155.1607  140.0384  157.2832 H   0  0  0  0  0  0  0  0  0  0  0  0  # atno 8010 bound_to 7997
  140.1272  144.4677  150.6886 H   0  0  0  0  0  0  0  0  0  0  0  0  # atno 10167 bound_to 10162
  156.6161  130.4863  149.6182 H   0  0  0  0  0  0  0  0  0  0  0  0  # atno 10718 bound_to 10713
  154.6916  135.2972  154.9471 H   0  0  0  0  0  0  0  0  0  0  0  0  # atno 10763 bound_to 10752
  154.0432  135.6654  153.4796 H   0  0  0  0  0  0  0  0  0  0  0  0  # atno 10764 bound_to 10752
  153.0616  135.5112  154.8012 H   0  0  0  0  0  0  0  0  0  0  0  0  # atno 10765 bound_to 10752
  140.2779  134.7774  157.3733 H   0  0  0  0  0  0  0  0  0  0  0  0  # atno 11005 bound_to 11000
  146.0353  139.3372  143.0730 LP  0  0  0  0  0  0  0  0  0  0  0  0  # atno 17320 bound_to 7965
  145.8402  140.9585  143.0803 LP  0  0  0  0  0  0  0  0  0  0  0  0  # atno 17321 bound_to 7965
  140.6838  143.2340  151.5314 LP  0  0  0  0  0  0  0  0  0  0  0  0  # atno 17342 bound_to 10162
  139.5538  144.2327  152.1577 LP  0  0  0  0  0  0  0  0  0  0  0  0  # atno 17343 bound_to 10162
  156.2349  130.6817  151.1500 LP  0  0  0  0  0  0  0  0  0  0  0  0  # atno 17370 bound_to 10713
  157.7241  131.0662  150.6011 LP  0  0  0  0  0  0  0  0  0  0  0  0  # atno 17371 bound_to 10713
  140.1311  134.5094  155.8105 LP  0  0  0  0  0  0  0  0  0  0  0  0  # atno 17394 bound_to 11000
  141.2167  133.6790  156.7041 LP  0  0  0  0  0  0  0  0  0  0  0  0  # atno 17395 bound_to 11000

$$$$
