AV-unprocessed.smi:1978|AV-procd|sdf|8007|dock8
  -GOLD-   2272010193D 1   1.00000     0.00000
 Structure written by MMmdl.
 44 45  0  0  0  0  0  0  0  0  3 V2000
  136.4479  137.1645  154.8859 C   0  0  0  0  0  0  0  0  0  0  0  0
  137.8374  137.3434  154.3770 C   0  0  0  0  0  0  0  0  0  0  0  0
  138.9135  136.5049  154.3052 C   0  0  0  0  0  0  0  0  0  0  0  0
  139.9208  137.3182  153.7176 C   0  0  0  0  0  0  0  0  0  0  0  0
  141.1738  136.9375  153.4244 N   0  5  0  0  0  0  0  0  0  0  0  0
  141.6943  135.8200  153.9806 C   0  0  0  0  0  0  0  0  0  0  0  0
  141.1097  134.7498  154.1630 O   0  0  0  0  0  0  0  0  0  0  0  0
  142.9750  135.9508  154.3503 N   0  0  0  0  0  0  0  0  0  0  0  0
  143.7772  134.9149  154.9910 C   0  0  0  0  0  0  0  0  0  0  0  0
  144.9777  134.4695  154.1121 C   0  0  1  0  0  0  0  0  0  0  0  0
  146.1437  134.0008  155.0194 C   0  0  0  0  0  0  0  0  0  0  0  0
  144.6017  133.4080  153.1135 N   0  3  2  0  0  0  0  0  0  0  0  0
  145.7635  132.6107  152.6123 C   0  0  0  0  0  0  0  0  0  0  0  0
  145.3158  131.4048  151.7694 C   0  0  0  0  0  0  0  0  0  0  0  0
  144.4285  131.8359  150.6009 C   0  0  0  0  0  0  0  0  0  0  0  0
  143.2505  132.6558  151.1349 C   0  0  0  0  0  0  0  0  0  0  0  0
  143.7128  133.8556  151.9885 C   0  0  2  0  0  0  0  0  0  0  0  0
  144.3337  134.9763  151.1248 C   0  0  0  0  0  0  0  0  0  0  0  0
  139.4890  138.5375  153.4422 N   0  0  0  0  0  0  0  0  0  0  0  0
  138.1555  138.5638  153.8676 O   0  0  0  0  0  0  0  0  0  0  0  0
  135.9512  136.3434  154.3690 H   0  0  0  0  0  0  0  0  0  0  0  0
  135.8538  138.0663  154.7358 H   0  0  0  0  0  0  0  0  0  0  0  0
  136.4547  136.9387  155.9521 H   0  0  0  0  0  0  0  0  0  0  0  0
  138.9730  135.4757  154.6257 H   0  0  0  0  0  0  0  0  0  0  0  0
  143.4188  136.8417  154.1816 H   0  0  0  0  0  0  0  0  0  0  0  0
  144.1395  135.2699  155.9576 H   0  0  0  0  0  0  0  0  0  0  0  0
  143.0885  134.0933  155.1829 H   0  0  0  0  0  0  0  0  0  0  0  0
  145.3244  135.3424  153.5570 H   0  0  0  0  0  0  0  0  0  0  0  0
  146.3594  134.7096  155.8182 H   0  0  0  0  0  0  0  0  0  0  0  0
  147.0818  133.9005  154.4764 H   0  0  0  0  0  0  0  0  0  0  0  0
  145.9174  133.0435  155.4899 H   0  0  0  0  0  0  0  0  0  0  0  0
  146.4365  133.2491  152.0395 H   0  0  0  0  0  0  0  0  0  0  0  0
  146.3498  132.2064  153.4336 H   0  0  0  0  0  0  0  0  0  0  0  0
  146.1881  130.8688  151.3941 H   0  0  0  0  0  0  0  0  0  0  0  0
  144.7709  130.7018  152.4009 H   0  0  0  0  0  0  0  0  0  0  0  0
  145.0070  132.4210  149.8856 H   0  0  0  0  0  0  0  0  0  0  0  0
  144.0641  130.9604  150.0625 H   0  0  0  0  0  0  0  0  0  0  0  0
  142.6286  132.9978  150.3067 H   0  0  0  0  0  0  0  0  0  0  0  0
  142.6141  132.0095  151.7412 H   0  0  0  0  0  0  0  0  0  0  0  0
  142.7897  134.2454  152.4140 H   0  0  0  0  0  0  0  0  0  0  0  0
  143.6489  135.2725  150.3299 H   0  0  0  0  0  0  0  0  0  0  0  0
  145.2642  134.6677  150.6496 H   0  0  0  0  0  0  0  0  0  0  0  0
  144.5449  135.8724  151.7073 H   0  0  0  0  0  0  0  0  0  0  0  0
  144.0391  132.7533  153.6378 H   0  0  0  0  0  0  0  0  0  0  0  0
  1  2  1  0  0  0  0
  1 21  1  0  0  0  0
  1 22  1  0  0  0  0
  1 23  1  0  0  0  0
  2 20  1  0  0  0  0
  2  3  2  0  0  0  0
  3  4  1  0  0  0  0
  3 24  1  0  0  0  0
  4  5  1  0  0  0  0
  4 19  2  0  0  0  0
  5  6  1  0  0  0  0
  6  7  2  0  0  0  0
  6  8  1  0  0  0  0
  8  9  1  0  0  0  0
  8 25  1  0  0  0  0
  9 10  1  0  0  0  0
  9 26  1  0  0  0  0
  9 27  1  0  0  0  0
 10 11  1  0  0  0  0
 10 12  1  0  0  0  0
 10 28  1  0  0  0  0
 11 29  1  0  0  0  0
 11 30  1  0  0  0  0
 11 31  1  0  0  0  0
 12 17  1  0  0  0  0
 12 13  1  0  0  0  0
 12 44  1  0  0  0  0
 13 14  1  0  0  0  0
 13 32  1  0  0  0  0
 13 33  1  0  0  0  0
 14 15  1  0  0  0  0
 14 34  1  0  0  0  0
 14 35  1  0  0  0  0
 15 16  1  0  0  0  0
 15 36  1  0  0  0  0
 15 37  1  0  0  0  0
 16 17  1  0  0  0  0
 16 38  1  0  0  0  0
 16 39  1  0  0  0  0
 17 18  1  0  0  0  0
 17 40  1  0  0  0  0
 18 41  1  0  0  0  0
 18 42  1  0  0  0  0
 18 43  1  0  0  0  0
 19 20  1  0  0  0  0
M  CHG  1   5  -1
M  CHG  1  12   1
M  END
> <s_m_source_file>
AV-unprocessed.smi

> <i_m_source_file_index>
1978

> <i_lp_mmshare_version>
43012

> <i_f3d_flags>
0

> <s_epik_input>
W0NIM11jMVtjSF1jKG5vMSlbTkhdQyg9TylbTkhdW0NIMl1bQ0BIXShbQ0gzXSlOMltDSDJdW0NIMl1bQ0gyXVtDSDJdW0NASF0yW0NIM10=

> <s_epik_cmdline>
J2VwaWtfcHl0aG9uJywgJy1waCcsICc3LjAnLCAnLXRuJywgJzgnLCAnLW1hJywgJzIwMCcsICctbWV0YWxfYmluZGluZycsICctaW1hZScsICc8aW5maWxlLm1hZT4nLCAnLW9tYWUnLCAnPG91dGZpbGUubWFlPic=

> <r_epik_Ionization_Penalty>
6.22372

> <r_epik_Ionization_Penalty_Charging>
6.22362

> <r_epik_Ionization_Penalty_Neutral>
9.65074e-05

> <r_epik_State_Penalty>
6.22363

> <r_epik_Charging_Adjusted_Penalty>
12.4472

> <i_epik_Tot_Q>
0

> <i_epik_Tot_abs_Q>
2

> <r_epik_Metal_State_Penalty>
2.16675

> <b_epik_Metal_Only>
1

> <s_lp_Force_Field>
OPLS_2005

> <r_lp_Energy>
15.9266

> <b_lp_Chiralities_Consistent>
1

> <s_lp_Variant>
AV-unprocessed.smi:1978-16

> <Gold.Version>
5.8.1

> <Gold.Id.Protein>
6NUR|6NUR_protein|mol2

> <Gold.PLP.Fitness>
39.8981

> <Gold.PLP.PLP>
-32.7737

> <Gold.PLP.part.hbond>
-2.1455

> <Gold.PLP.part.metal>
0.0000

> <Gold.PLP.part.buried>
-7.3901

> <Gold.PLP.part.nonpolar>
-24.7183

> <Gold.PLP.part.repulsive>
0.7737

> <Gold.PLP.ligand.clash>
0.0000

> <Gold.PLP.ligand.torsion>
1.0093

> <Gold.PLP.Chemscore.Hbond>
3.0000

> <Gold.PLP.Chemscore.CHOScore>
0.0000

> <Gold.PLP.Chemscore.Metal>
0.0000

> <Gold.Chemscore.Hbonds>
donor molecule, donor type, donor heavy atom, donor atom, acceptor molecule, acceptor atom, score
      L1  H    12    44       P1 10957  1.98
      P1  H 11000 11005       L1     7  1.00

> <Gold.PLP.Chemscore.Internal.Correction>
0.1429

> <Gold.Rescore>
     Score         DG    S(hbond)    S(metal)    S(lipo)     H(rot)  DE(clash)    DE(int)     intcor
     13.13     -15.36       1.95        0.00      61.93       1.52       0.03       2.20       ----

> <Gold.Chemscore.Fitness>
13.1267

> <Gold.Chemscore.DG>
-15.3618

> <Gold.Chemscore.ZeroCoef>
-5.4800

> <Gold.Chemscore.Hbond>
1.9533

> <Gold.Chemscore.Metal>
0.0000

> <Gold.Chemscore.Lipo>
61.9338

> <Gold.Chemscore.Internal_Hbond>
0.0000

> <Gold.Chemscore.DEClash>
0.0310

> <Gold.Chemscore.DEInternal>
2.2042

> <Gold.Chemscore.Rot>
1.5190

> <Gold.Chemscore.Internal.Correction>
   9.000000E+99

> <Gold.Chemscore.Hbonds>
donor molecule, donor type, donor heavy atom, donor atom, acceptor molecule, acceptor atom, score
      L1  H    12    44       P1 10957  0.60
      P1  H 11000 11005       L1     7  0.97

> <Gold.Chemscore.Hbond.Weighted>
-6.5242

> <Gold.Chemscore.Metal.Weighted>
-0.0000

> <Gold.Chemscore.Lipo.Weighted>
-7.2463

> <Gold.Chemscore.Internal_Hbond.Weighted>
0.0000

> <Gold.Chemscore.DEClash.Weighted>
0.0310

> <Gold.Chemscore.DEInternal.Weighted>
2.2042

> <Gold.Chemscore.Rot.Weighted>
3.8886

> <Gold.Chemscore.Internal.Correction.Weighted>
   9.000000E+99

> <Gold.Protein.RotatedTorsions>
[ 6907 6896 6895 6894 ] final   84.54 input  -60.11 | X-H torsion
[ 7974 7965 7964 7962 ] final  -52.95 input  175.53 | X-H torsion
[ 8008 7997 7996 7995 ] final   67.62 input   59.86 | X-H torsion
[ 10167 10162 10161 10158 ] final  116.02 input  -65.29 | X-H torsion
[ 10718 10713 10712 10709 ] final   35.76 input   66.30 | X-H torsion
[ 10763 10752 10751 10750 ] final  -23.73 input  -60.55 | X-H torsion
[ 11005 11000 10999 10996 ] final   28.65 input  -57.11 | X-H torsion

> <Gold.Protein.ActiveResidues>
 VAL166  LYS551  ARG553  GLY616  TRP617  ASP618  TYR619  PRO620  LYS621  CYS622 
 ASP623  PHE694  ASN695  SER759  ASP760  ASP761  ALA762  ILE779  LEU786  VAL792 
 PHE793  MET794  SER795  GLU796  ALA797  LYS798  CYS799  TRP800  GLU811  SER814 

> <Gold.Protein.RotatedAtoms>
  152.5355  134.2725  159.8976 H   0  0  0  0  0  0  0  0  0  0  0  0  # atno 6907 bound_to 6896
  151.2681  133.4262  159.2627 H   0  0  0  0  0  0  0  0  0  0  0  0  # atno 6908 bound_to 6896
  151.0392  134.9610  159.8209 H   0  0  0  0  0  0  0  0  0  0  0  0  # atno 6909 bound_to 6896
  145.9022  140.7985  142.9737 H   0  0  0  0  0  0  0  0  0  0  0  0  # atno 7974 bound_to 7965
  155.6957  140.3495  155.4912 H   0  0  0  0  0  0  0  0  0  0  0  0  # atno 8008 bound_to 7997
  155.9484  140.1114  157.1019 H   0  0  0  0  0  0  0  0  0  0  0  0  # atno 8009 bound_to 7997
  154.4117  140.1199  156.5007 H   0  0  0  0  0  0  0  0  0  0  0  0  # atno 8010 bound_to 7997
  139.6276  144.7110  151.2500 H   0  0  0  0  0  0  0  0  0  0  0  0  # atno 10167 bound_to 10162
  157.3266  130.7476  149.6820 H   0  0  0  0  0  0  0  0  0  0  0  0  # atno 10718 bound_to 10713
  153.6725  135.6971  153.5143 H   0  0  0  0  0  0  0  0  0  0  0  0  # atno 10763 bound_to 10752
  153.2547  135.4264  155.0833 H   0  0  0  0  0  0  0  0  0  0  0  0  # atno 10764 bound_to 10752
  154.8423  135.3540  154.6269 H   0  0  0  0  0  0  0  0  0  0  0  0  # atno 10765 bound_to 10752
  140.3133  134.2625  155.7730 H   0  0  0  0  0  0  0  0  0  0  0  0  # atno 11005 bound_to 11000
  144.6736  140.1695  143.7415 LP  0  0  0  0  0  0  0  0  0  0  0  0  # atno 17320 bound_to 7965
  145.8776  139.2306  143.1624 LP  0  0  0  0  0  0  0  0  0  0  0  0  # atno 17321 bound_to 7965
  140.7420  143.6539  150.8224 LP  0  0  0  0  0  0  0  0  0  0  0  0  # atno 17342 bound_to 10162
  140.0159  143.5593  152.2820 LP  0  0  0  0  0  0  0  0  0  0  0  0  # atno 17343 bound_to 10162
  155.9691  130.4207  150.4437 LP  0  0  0  0  0  0  0  0  0  0  0  0  # atno 17370 bound_to 10713
  157.2461  131.0536  151.2407 LP  0  0  0  0  0  0  0  0  0  0  0  0  # atno 17371 bound_to 10713
  141.2103  133.7722  156.9939 LP  0  0  0  0  0  0  0  0  0  0  0  0  # atno 17394 bound_to 11000
  140.1006  134.9538  157.1917 LP  0  0  0  0  0  0  0  0  0  0  0  0  # atno 17395 bound_to 11000

$$$$
