AV-unprocessed.smi:763|AV-procd|sdf|3638|dock8
  -GOLD-   22720 1 33D 1   1.00000     0.00000
 Structure written by MMmdl.
 43 44  0  0  0  0  0  0  0  0  2 V2000
  146.5370  136.9606  161.4933 C   0  0  0  0  0  0  0  0  0  0  0  0
  146.7113  137.7931  160.3606 O   0  0  0  0  0  0  0  0  0  0  0  0
  146.0908  137.2678  159.1987 C   0  0  0  0  0  0  0  0  0  0  0  0
  145.8851  138.4028  158.1833 C   0  0  0  0  0  0  0  0  0  0  0  0
  147.1314  138.9515  157.7538 O   0  0  0  0  0  0  0  0  0  0  0  0
  147.2872  139.3905  156.4495 C   0  0  0  0  0  0  0  0  0  0  0  0
  146.2042  139.3623  155.6313 N   0  0  0  0  0  0  0  0  0  0  0  0
  146.3414  139.7942  154.3633 C   0  0  0  0  0  0  0  0  0  0  0  0
  147.5549  140.2763  153.8470 C   0  0  0  0  0  0  0  0  0  0  0  0
  148.6742  140.3062  154.6979 C   0  0  0  0  0  0  0  0  0  0  0  0
  148.5621  139.8563  156.0368 C   0  0  0  0  0  0  0  0  0  0  0  0
  149.5941  139.8584  156.8980 N   0  5  0  0  0  0  0  0  0  0  0  0
  151.0491  140.5240  156.6534 S   0  0  0  0  0  0  0  0  0  0  0  0
  152.1154  139.5111  156.6730 O   0  0  0  0  0  0  0  0  0  0  0  0
  151.0375  141.4533  155.5125 O   0  0  0  0  0  0  0  0  0  0  0  0
  151.2294  141.5626  158.1882 C   0  0  2  0  0  0  0  0  0  0  0  0
  151.4444  143.0389  157.7843 C   0  0  0  0  0  0  0  0  0  0  0  0
  151.6402  143.9494  159.0039 C   0  0  0  0  0  0  0  0  0  0  0  0
  152.8247  143.4702  159.8521 C   0  0  0  0  0  0  0  0  0  0  0  0
  152.6212  142.0144  160.2912 C   0  0  0  0  0  0  0  0  0  0  0  0
  152.3941  141.0752  159.0895 C   0  0  1  0  0  0  0  0  0  0  0  0
  152.1365  139.7918  159.6225 O   0  0  0  0  0  0  0  0  0  0  0  0
  147.0259  137.4110  162.3571 H   0  0  0  0  0  0  0  0  0  0  0  0
  146.9794  135.9769  161.3311 H   0  0  0  0  0  0  0  0  0  0  0  0
  145.4802  136.8346  161.7324 H   0  0  0  0  0  0  0  0  0  0  0  0
  146.6839  136.4569  158.7743 H   0  0  0  0  0  0  0  0  0  0  0  0
  145.1208  136.8502  159.4724 H   0  0  0  0  0  0  0  0  0  0  0  0
  145.2874  138.0659  157.3353 H   0  0  0  0  0  0  0  0  0  0  0  0
  145.3037  139.2005  158.6459 H   0  0  0  0  0  0  0  0  0  0  0  0
  145.4581  139.7547  153.7434 H   0  0  0  0  0  0  0  0  0  0  0  0
  147.6278  140.6152  152.8245 H   0  0  0  0  0  0  0  0  0  0  0  0
  149.6103  140.6761  154.3067 H   0  0  0  0  0  0  0  0  0  0  0  0
  150.2944  141.4765  158.7428 H   0  0  0  0  0  0  0  0  0  0  0  0
  152.3179  143.1240  157.1369 H   0  0  0  0  0  0  0  0  0  0  0  0
  150.5957  143.3958  157.2005 H   0  0  0  0  0  0  0  0  0  0  0  0
  151.8064  144.9765  158.6781 H   0  0  0  0  0  0  0  0  0  0  0  0
  150.7314  143.9572  159.6074 H   0  0  0  0  0  0  0  0  0  0  0  0
  153.7481  143.5559  159.2780 H   0  0  0  0  0  0  0  0  0  0  0  0
  152.9408  144.1107  160.7267 H   0  0  0  0  0  0  0  0  0  0  0  0
  153.4858  141.6821  160.8674 H   0  0  0  0  0  0  0  0  0  0  0  0
  151.7647  141.9641  160.9655 H   0  0  0  0  0  0  0  0  0  0  0  0
  153.3088  141.0209  158.4977 H   0  0  0  0  0  0  0  0  0  0  0  0
  151.7380  139.8934  160.4729 H   0  0  0  0  0  0  0  0  0  0  0  0
  1  2  1  0  0  0  0
  1 23  1  0  0  0  0
  1 24  1  0  0  0  0
  1 25  1  0  0  0  0
  2  3  1  0  0  0  0
  3  4  1  0  0  0  0
  3 26  1  0  0  0  0
  3 27  1  0  0  0  0
  4  5  1  0  0  0  0
  4 28  1  0  0  0  0
  4 29  1  0  0  0  0
  5  6  1  0  0  0  0
  6 11  1  0  0  0  0
  6  7  2  0  0  0  0
  7  8  1  0  0  0  0
  8  9  2  0  0  0  0
  8 30  1  0  0  0  0
  9 10  1  0  0  0  0
  9 31  1  0  0  0  0
 10 11  2  0  0  0  0
 10 32  1  0  0  0  0
 11 12  1  0  0  0  0
 12 13  1  0  0  0  0
 13 14  2  0  0  0  0
 13 15  2  0  0  0  0
 13 16  1  0  0  0  0
 16 21  1  0  0  0  0
 16 17  1  0  0  0  0
 16 33  1  0  0  0  0
 17 18  1  0  0  0  0
 17 34  1  0  0  0  0
 17 35  1  0  0  0  0
 18 19  1  0  0  0  0
 18 36  1  0  0  0  0
 18 37  1  0  0  0  0
 19 20  1  0  0  0  0
 19 38  1  0  0  0  0
 19 39  1  0  0  0  0
 20 21  1  0  0  0  0
 20 40  1  0  0  0  0
 20 41  1  0  0  0  0
 21 22  1  0  0  0  0
 21 42  1  0  0  0  0
 22 43  1  0  0  0  0
M  CHG  1  12  -1
M  END
> <s_m_source_file>
AV-unprocessed.smi

> <i_m_source_file_index>
763

> <i_lp_mmshare_version>
43012

> <i_f3d_flags>
0

> <s_epik_input>
W0NIM11PW0NIMl1bQ0gyXU9jMW5bY0hdW2NIXVtjSF1jMVtOSF1TKD1PKSg9TylbQ0BASF0yW0NIMl1bQ0gyXVtDSDJdW0NIMl1bQ0BIXTJbT0hd

> <s_epik_cmdline>
J2VwaWtfcHl0aG9uJywgJy1waCcsICc3LjAnLCAnLXRuJywgJzgnLCAnLW1hJywgJzIwMCcsICctbWV0YWxfYmluZGluZycsICctaW1hZScsICc8aW5maWxlLm1hZT4nLCAnLW9tYWUnLCAnPG91dGZpbGUubWFlPic=

> <r_epik_Ionization_Penalty>
0.985866

> <r_epik_Ionization_Penalty_Charging>
0.984689

> <r_epik_Ionization_Penalty_Neutral>
0.00117669

> <r_epik_State_Penalty>
1.03185

> <r_epik_Charging_Adjusted_Penalty>
2.01654

> <i_epik_Tot_Q>
-1

> <i_epik_Tot_abs_Q>
1

> <r_epik_Metal_State_Penalty>
0.379327

> <b_epik_Metal_Only>
0

> <s_lp_Force_Field>
OPLS_2005

> <r_lp_Energy>
11.4471

> <b_lp_Chiralities_Consistent>
1

> <s_lp_Variant>
AV-unprocessed.smi:763-5

> <Gold.Version>
5.8.1

> <Gold.Id.Protein>
6NUR|6NUR_protein|mol2

> <Gold.PLP.Fitness>
39.4817

> <Gold.PLP.PLP>
-30.6766

> <Gold.PLP.part.hbond>
-3.7709

> <Gold.PLP.part.metal>
0.0000

> <Gold.PLP.part.buried>
-0.9066

> <Gold.PLP.part.nonpolar>
-26.0945

> <Gold.PLP.part.repulsive>
0.1286

> <Gold.PLP.ligand.clash>
0.0000

> <Gold.PLP.ligand.torsion>
0.9785

> <Gold.PLP.Chemscore.Hbond>
2.2075

> <Gold.PLP.Chemscore.CHOScore>
1.0000

> <Gold.PLP.Chemscore.Metal>
0.0000

> <Gold.Chemscore.Hbonds>
donor molecule, donor type, donor heavy atom, donor atom, acceptor molecule, acceptor atom, score
      P1  H  6934  6947       L1     2  0.73
      P1  H  7989  7998       L1    15  0.31
      P1  H  7997  8010       L1    14  0.21
      L1  C     8    30       P1 10175  1.00

> <Gold.PLP.Chemscore.Internal.Correction>
1.1396

> <Gold.Rescore>
     Score         DG    S(hbond)    S(metal)    S(lipo)     H(rot)  DE(clash)    DE(int)     intcor
     14.09     -18.23       2.38        0.00      92.50       2.35       1.41       2.74       ----

> <Gold.Chemscore.Fitness>
14.0940

> <Gold.Chemscore.DG>
-18.2348

> <Gold.Chemscore.ZeroCoef>
-5.4800

> <Gold.Chemscore.Hbond>
2.3804

> <Gold.Chemscore.Metal>
0.0000

> <Gold.Chemscore.Lipo>
92.5012

> <Gold.Chemscore.Internal_Hbond>
0.0000

> <Gold.Chemscore.DEClash>
1.4050

> <Gold.Chemscore.DEInternal>
2.7358

> <Gold.Chemscore.Rot>
2.3509

> <Gold.Chemscore.Internal.Correction>
   9.000000E+99

> <Gold.Chemscore.Hbonds>
donor molecule, donor type, donor heavy atom, donor atom, acceptor molecule, acceptor atom, score
      P1  H  6934  6947       L1     2  0.33
      P1  H  7989  7998       L1    15  0.31
      P1  H  7997  8010       L1    14  0.21

> <Gold.Chemscore.Hbond.Weighted>
-7.9504

> <Gold.Chemscore.Metal.Weighted>
-0.0000

> <Gold.Chemscore.Lipo.Weighted>
-10.8226

> <Gold.Chemscore.Internal_Hbond.Weighted>
0.0000

> <Gold.Chemscore.DEClash.Weighted>
1.4050

> <Gold.Chemscore.DEInternal.Weighted>
2.7358

> <Gold.Chemscore.Rot.Weighted>
6.0182

> <Gold.Chemscore.Internal.Correction.Weighted>
   9.000000E+99

> <Gold.Protein.RotatedTorsions>
[ 6907 6896 6895 6894 ] final  119.94 input  -60.11 | X-H torsion
[ 7974 7965 7964 7962 ] final   67.40 input  175.53 | X-H torsion
[ 8008 7997 7996 7995 ] final   82.42 input   59.86 | X-H torsion
[ 10167 10162 10161 10158 ] final  -98.19 input  -65.29 | X-H torsion
[ 10718 10713 10712 10709 ] final   25.07 input   66.30 | X-H torsion
[ 10763 10752 10751 10750 ] final  160.46 input  -60.55 | X-H torsion
[ 11005 11000 10999 10996 ] final  -57.26 input  -57.11 | X-H torsion

> <Gold.Protein.ActiveResidues>
 VAL166  LYS551  ARG553  GLY616  TRP617  ASP618  TYR619  PRO620  LYS621  CYS622 
 ASP623  PHE694  ASN695  SER759  ASP760  ASP761  ALA762  ILE779  LEU786  VAL792 
 PHE793  MET794  SER795  GLU796  ALA797  LYS798  CYS799  TRP800  GLU811  SER814 

> <Gold.Protein.RotatedAtoms>
  152.4435  133.7492  159.6684 H   0  0  0  0  0  0  0  0  0  0  0  0  # atno 6907 bound_to 6896
  150.8330  133.8049  159.3097 H   0  0  0  0  0  0  0  0  0  0  0  0  # atno 6908 bound_to 6896
  151.5697  135.1065  160.0044 H   0  0  0  0  0  0  0  0  0  0  0  0  # atno 6909 bound_to 6896
  145.8150  139.3053  143.1076 H   0  0  0  0  0  0  0  0  0  0  0  0  # atno 7974 bound_to 7965
  155.9104  140.3428  155.6094 H   0  0  0  0  0  0  0  0  0  0  0  0  # atno 8008 bound_to 7997
  155.7394  140.0805  157.2271 H   0  0  0  0  0  0  0  0  0  0  0  0  # atno 8009 bound_to 7997
  154.4055  140.1573  156.2586 H   0  0  0  0  0  0  0  0  0  0  0  0  # atno 8010 bound_to 7997
  140.2756  143.3315  152.0492 H   0  0  0  0  0  0  0  0  0  0  0  0  # atno 10167 bound_to 10162
  157.1884  130.6834  149.6140 H   0  0  0  0  0  0  0  0  0  0  0  0  # atno 10718 bound_to 10713
  154.2477  135.2772  155.2829 H   0  0  0  0  0  0  0  0  0  0  0  0  # atno 10763 bound_to 10752
  154.5491  135.5680  153.6910 H   0  0  0  0  0  0  0  0  0  0  0  0  # atno 10764 bound_to 10752
  152.9987  135.6270  154.2623 H   0  0  0  0  0  0  0  0  0  0  0  0  # atno 10765 bound_to 10752
  141.1157  133.6610  156.4743 H   0  0  0  0  0  0  0  0  0  0  0  0  # atno 11005 bound_to 11000
  145.9736  140.8740  143.0150 LP  0  0  0  0  0  0  0  0  0  0  0  0  # atno 17320 bound_to 7965
  144.6753  140.1980  143.7390 LP  0  0  0  0  0  0  0  0  0  0  0  0  # atno 17321 bound_to 7965
  139.4976  144.6627  151.6428 LP  0  0  0  0  0  0  0  0  0  0  0  0  # atno 17342 bound_to 10162
  140.5854  143.9873  150.6292 LP  0  0  0  0  0  0  0  0  0  0  0  0  # atno 17343 bound_to 10162
  155.9715  130.4623  150.6141 LP  0  0  0  0  0  0  0  0  0  0  0  0  # atno 17370 bound_to 10713
  157.3885  131.0792  151.1415 LP  0  0  0  0  0  0  0  0  0  0  0  0  # atno 17371 bound_to 10713
  140.4653  134.6804  157.5104 LP  0  0  0  0  0  0  0  0  0  0  0  0  # atno 17394 bound_to 11000
  140.0078  134.6738  155.9428 LP  0  0  0  0  0  0  0  0  0  0  0  0  # atno 17395 bound_to 11000

$$$$
