AV-unprocessed.smi:2466|AV-procd|sdf|9724|dock6
  -GOLD-   2272013363D 1   1.00000     0.00000
 Structure written by MMmdl.
 36 37  0  0  0  0  0  0  0  0  1 V2000
  151.5287  136.8868  156.4020 C   0  0  0  0  0  0  0  0  0  0  0  0
  151.6855  135.5965  156.9816 O   0  0  0  0  0  0  0  0  0  0  0  0
  150.9259  134.5601  156.4796 C   0  0  0  0  0  0  0  0  0  0  0  0
  150.1798  134.7591  155.3000 C   0  0  0  0  0  0  0  0  0  0  0  0
  149.4180  133.6712  154.8175 C   0  0  0  0  0  0  0  0  0  0  0  0
  148.6865  133.9125  153.6245 N   0  0  0  0  0  0  0  0  0  0  0  0
  147.8886  133.0625  152.9547 C   0  0  0  0  0  0  0  0  0  0  0  0
  147.6402  131.9047  153.2925 O   0  0  0  0  0  0  0  0  0  0  0  0
  147.3832  133.6390  151.8541 N   0  0  0  0  0  0  0  0  0  0  0  0
  146.4903  133.0000  150.8896 C   0  0  0  0  0  0  0  0  0  0  0  0
  145.0726  133.5927  150.9223 C   0  0  0  0  0  0  0  0  0  0  0  0
  144.2140  132.8612  149.8796 C   0  0  0  0  0  0  0  0  0  0  0  0
  144.4307  133.7370  152.3192 C   0  0  0  0  0  0  0  0  0  0  0  0
  143.8906  135.1061  151.9104 C   0  0  0  0  0  0  0  0  0  0  0  0
  144.9950  135.1334  150.8550 C   0  0  0  0  0  0  0  0  0  0  0  0
  149.4223  132.4924  155.4876 N   0  0  0  0  0  0  0  0  0  0  0  0
  150.1609  132.4055  156.5955 C   0  0  0  0  0  0  0  0  0  0  0  0
  150.9118  133.3703  157.1279 N   0  0  0  0  0  0  0  0  0  0  0  0
  152.1922  137.5911  156.9038 H   0  0  0  0  0  0  0  0  0  0  0  0
  150.5081  137.2542  156.5180 H   0  0  0  0  0  0  0  0  0  0  0  0
  151.7897  136.8831  155.3427 H   0  0  0  0  0  0  0  0  0  0  0  0
  150.1969  135.7106  154.7885 H   0  0  0  0  0  0  0  0  0  0  0  0
  148.7927  134.8347  153.2291 H   0  0  0  0  0  0  0  0  0  0  0  0
  147.6393  134.5964  151.6620 H   0  0  0  0  0  0  0  0  0  0  0  0
  146.9352  133.1456  149.9049 H   0  0  0  0  0  0  0  0  0  0  0  0
  146.4596  131.9185  151.0336 H   0  0  0  0  0  0  0  0  0  0  0  0
  143.2378  133.3308  149.7580 H   0  0  0  0  0  0  0  0  0  0  0  0
  144.0306  131.8240  150.1610 H   0  0  0  0  0  0  0  0  0  0  0  0
  144.6902  132.8573  148.8986 H   0  0  0  0  0  0  0  0  0  0  0  0
  143.6632  132.9971  152.5489 H   0  0  0  0  0  0  0  0  0  0  0  0
  145.1663  133.8045  153.1230 H   0  0  0  0  0  0  0  0  0  0  0  0
  142.8889  135.0596  151.4807 H   0  0  0  0  0  0  0  0  0  0  0  0
  143.9703  135.8774  152.6770 H   0  0  0  0  0  0  0  0  0  0  0  0
  145.8997  135.6258  151.2163 H   0  0  0  0  0  0  0  0  0  0  0  0
  144.6883  135.5357  149.8889 H   0  0  0  0  0  0  0  0  0  0  0  0
  150.1502  131.4574  157.1126 H   0  0  0  0  0  0  0  0  0  0  0  0
  1  2  1  0  0  0  0
  1 19  1  0  0  0  0
  1 20  1  0  0  0  0
  1 21  1  0  0  0  0
  2  3  1  0  0  0  0
  3 18  1  0  0  0  0
  3  4  2  0  0  0  0
  4  5  1  0  0  0  0
  4 22  1  0  0  0  0
  5  6  1  0  0  0  0
  5 16  2  0  0  0  0
  6  7  1  0  0  0  0
  6 23  1  0  0  0  0
  7  8  2  0  0  0  0
  7  9  1  0  0  0  0
  9 10  1  0  0  0  0
  9 24  1  0  0  0  0
 10 11  1  0  0  0  0
 10 25  1  0  0  0  0
 10 26  1  0  0  0  0
 11 15  1  0  0  0  0
 11 12  1  0  0  0  0
 11 13  1  0  0  0  0
 12 27  1  0  0  0  0
 12 28  1  0  0  0  0
 12 29  1  0  0  0  0
 13 14  1  0  0  0  0
 13 30  1  0  0  0  0
 13 31  1  0  0  0  0
 14 15  1  0  0  0  0
 14 32  1  0  0  0  0
 14 33  1  0  0  0  0
 15 34  1  0  0  0  0
 15 35  1  0  0  0  0
 16 17  1  0  0  0  0
 17 18  2  0  0  0  0
 17 36  1  0  0  0  0
M  END
> <s_m_source_file>
AV-unprocessed.smi

> <i_m_source_file_index>
2466

> <i_lp_mmshare_version>
43012

> <i_f3d_flags>
0

> <s_epik_input>
W0NIM11PYzFbY0hdYyhuW2NIXW4xKVtOSF1DKD1PKVtOSF1bQ0gyXUMyKFtDSDNdKVtDSDJdW0NIMl1bQ0gyXTI=

> <s_epik_cmdline>
J2VwaWtfcHl0aG9uJywgJy1waCcsICc3LjAnLCAnLXRuJywgJzgnLCAnLW1hJywgJzIwMCcsICctbWV0YWxfYmluZGluZycsICctaW1hZScsICc8aW5maWxlLm1hZT4nLCAnLW9tYWUnLCAnPG91dGZpbGUubWFlPic=

> <r_lp_tautomer_probability>
1

> <r_epik_Ionization_Penalty>
2.72078e-05

> <r_epik_Ionization_Penalty_Charging>
0

> <r_epik_Ionization_Penalty_Neutral>
2.72078e-05

> <r_epik_State_Penalty>
-0

> <r_epik_Charging_Adjusted_Penalty>
0

> <i_epik_Tot_Q>
0

> <i_epik_Tot_abs_Q>
0

> <r_epik_Metal_State_Penalty>
-0

> <b_epik_Metal_Only>
0

> <s_lp_Force_Field>
OPLS_2005

> <r_lp_Energy>
15.1515

> <b_lp_Chiralities_Consistent>
1

> <s_lp_Variant>
AV-unprocessed.smi:2466-1

> <Gold.Version>
5.8.1

> <Gold.Id.Protein>
6NUR|6NUR_protein|mol2

> <Gold.PLP.Fitness>
38.5337

> <Gold.PLP.PLP>
-30.5075

> <Gold.PLP.part.hbond>
-3.6598

> <Gold.PLP.part.metal>
0.0000

> <Gold.PLP.part.buried>
-5.2216

> <Gold.PLP.part.nonpolar>
-22.0782

> <Gold.PLP.part.repulsive>
0.1451

> <Gold.PLP.ligand.clash>
0.0084

> <Gold.PLP.ligand.torsion>
0.1789

> <Gold.PLP.Chemscore.Hbond>
2.7558

> <Gold.PLP.Chemscore.CHOScore>
0.0000

> <Gold.PLP.Chemscore.Metal>
0.0000

> <Gold.Chemscore.Hbonds>
donor molecule, donor type, donor heavy atom, donor atom, acceptor molecule, acceptor atom, score
      L1  H     6    23       P1  7948  1.00
      L1  H     9    24       P1  7948  0.96
      P1  H  6896  6909       L1    18  0.70

> <Gold.PLP.Chemscore.Internal.Correction>
0.1249

> <Gold.Rescore>
     Score         DG    S(hbond)    S(metal)    S(lipo)     H(rot)  DE(clash)    DE(int)     intcor
     12.15     -13.64       2.03        0.00      47.39       1.62       0.01       1.48       ----

> <Gold.Chemscore.Fitness>
12.1528

> <Gold.Chemscore.DG>
-13.6407

> <Gold.Chemscore.ZeroCoef>
-5.4800

> <Gold.Chemscore.Hbond>
2.0254

> <Gold.Chemscore.Metal>
0.0000

> <Gold.Chemscore.Lipo>
47.3919

> <Gold.Chemscore.Internal_Hbond>
0.0000

> <Gold.Chemscore.DEClash>
0.0073

> <Gold.Chemscore.DEInternal>
1.4806

> <Gold.Chemscore.Rot>
1.6207

> <Gold.Chemscore.Internal.Correction>
   9.000000E+99

> <Gold.Chemscore.Hbonds>
donor molecule, donor type, donor heavy atom, donor atom, acceptor molecule, acceptor atom, score
      L1  H     6    23       P1  7948  0.30
      L1  H     9    24       P1  7948  0.22
      P1  H  6896  6909       L1    18  0.60

> <Gold.Chemscore.Hbond.Weighted>
-6.7650

> <Gold.Chemscore.Metal.Weighted>
-0.0000

> <Gold.Chemscore.Lipo.Weighted>
-5.5449

> <Gold.Chemscore.Internal_Hbond.Weighted>
0.0000

> <Gold.Chemscore.DEClash.Weighted>
0.0073

> <Gold.Chemscore.DEInternal.Weighted>
1.4806

> <Gold.Chemscore.Rot.Weighted>
4.1491

> <Gold.Chemscore.Internal.Correction.Weighted>
   9.000000E+99

> <Gold.Protein.RotatedTorsions>
[ 6907 6896 6895 6894 ] final  -25.02 input  -60.11 | X-H torsion
[ 7974 7965 7964 7962 ] final  143.54 input  175.53 | X-H torsion
[ 8008 7997 7996 7995 ] final  120.67 input   59.86 | X-H torsion
[ 10167 10162 10161 10158 ] final  -77.24 input  -65.29 | X-H torsion
[ 10718 10713 10712 10709 ] final  -20.72 input   66.30 | X-H torsion
[ 10763 10752 10751 10750 ] final  -19.05 input  -60.55 | X-H torsion
[ 11005 11000 10999 10996 ] final  -15.54 input  -57.11 | X-H torsion

> <Gold.Protein.ActiveResidues>
 VAL166  LYS551  ARG553  GLY616  TRP617  ASP618  TYR619  PRO620  LYS621  CYS622 
 ASP623  PHE694  ASN695  SER759  ASP760  ASP761  ALA762  ILE779  LEU786  VAL792 
 PHE793  MET794  SER795  GLU796  ALA797  LYS798  CYS799  TRP800  GLU811  SER814 

> <Gold.Protein.RotatedAtoms>
  151.1811  135.0361  159.8792 H   0  0  0  0  0  0  0  0  0  0  0  0  # atno 6907 bound_to 6896
  152.5444  134.1061  159.8349 H   0  0  0  0  0  0  0  0  0  0  0  0  # atno 6908 bound_to 6896
  151.1178  133.5079  159.2635 H   0  0  0  0  0  0  0  0  0  0  0  0  # atno 6909 bound_to 6896
  144.8912  139.5556  143.5798 H   0  0  0  0  0  0  0  0  0  0  0  0  # atno 7974 bound_to 7965
  156.2653  140.2825  156.1186 H   0  0  0  0  0  0  0  0  0  0  0  0  # atno 8008 bound_to 7997
  155.1179  140.0392  157.2759 H   0  0  0  0  0  0  0  0  0  0  0  0  # atno 8009 bound_to 7997
  154.6692  140.2584  155.7031 H   0  0  0  0  0  0  0  0  0  0  0  0  # atno 8010 bound_to 7997
  140.4788  143.2407  151.8091 H   0  0  0  0  0  0  0  0  0  0  0  0  # atno 10167 bound_to 10162
  156.5280  130.4648  149.6562 H   0  0  0  0  0  0  0  0  0  0  0  0  # atno 10718 bound_to 10713
  153.5987  135.7000  153.5393 H   0  0  0  0  0  0  0  0  0  0  0  0  # atno 10763 bound_to 10752
  153.3115  135.4100  155.1340 H   0  0  0  0  0  0  0  0  0  0  0  0  # atno 10764 bound_to 10752
  154.8586  135.3673  154.5522 H   0  0  0  0  0  0  0  0  0  0  0  0  # atno 10765 bound_to 10752
  140.7977  133.8238  155.9440 H   0  0  0  0  0  0  0  0  0  0  0  0  # atno 11005 bound_to 11000
  146.3054  139.7564  142.9060 LP  0  0  0  0  0  0  0  0  0  0  0  0  # atno 17320 bound_to 7965
  145.3780  141.0354  143.3193 LP  0  0  0  0  0  0  0  0  0  0  0  0  # atno 17321 bound_to 7965
  139.4830  144.4799  151.9319 LP  0  0  0  0  0  0  0  0  0  0  0  0  # atno 17342 bound_to 10162
  140.3885  144.2646  150.5902 LP  0  0  0  0  0  0  0  0  0  0  0  0  # atno 17343 bound_to 10162
  156.3086  130.7216  151.2104 LP  0  0  0  0  0  0  0  0  0  0  0  0  # atno 17370 bound_to 10713
  157.7426  131.0487  150.5010 LP  0  0  0  0  0  0  0  0  0  0  0  0  # atno 17371 bound_to 10713
  140.9326  134.2002  157.4853 LP  0  0  0  0  0  0  0  0  0  0  0  0  # atno 17394 bound_to 11000
  139.8724  134.9839  156.5217 LP  0  0  0  0  0  0  0  0  0  0  0  0  # atno 17395 bound_to 11000

$$$$
