AV-unprocessed.smi:2124|AV-procd|sdf|8673|dock9
  -GOLD-   2272011423D 1   1.00000     0.00000
 Structure written by MMmdl.
 46 48  0  0  0  0  0  0  0  0  2 V2000
  151.6020  130.4826  158.0532 C   0  0  0  0  0  0  0  0  0  0  0  0
  151.0766  131.5722  157.1431 C   0  0  0  0  0  0  0  0  0  0  0  0
  150.1455  131.2962  156.3115 N   0  0  0  0  0  0  0  0  0  0  0  0
  149.6537  132.3040  155.4649 C   0  0  0  0  0  0  0  0  0  0  0  0
  148.5448  131.8880  154.5141 C   0  0  0  0  0  0  0  0  0  0  0  0
  150.1546  133.5718  155.5114 C   0  0  0  0  0  0  0  0  0  0  0  0
  149.6527  134.7003  154.6113 C   0  0  0  0  0  0  0  0  0  0  0  0
  149.5446  136.0771  155.2706 C   0  0  0  0  0  0  0  0  0  0  0  0
  149.2042  136.1770  156.4495 O   0  0  0  0  0  0  0  0  0  0  0  0
  149.8400  137.1299  154.4917 N   0  0  0  0  0  0  0  0  0  0  0  0
  149.8271  138.5345  154.8973 C   0  0  1  0  0  0  0  0  0  0  0  0
  151.2559  139.0880  154.7863 C   0  0  0  0  0  0  0  0  0  0  0  0
  148.8163  139.3212  154.0277 C   0  0  1  0  0  0  0  0  0  0  0  0
  147.3275  139.0322  154.3313 C   0  0  0  0  0  0  0  0  0  0  0  0
  146.7194  140.4404  154.4637 C   0  0  1  0  0  0  0  0  0  0  0  0
  147.1623  141.0525  155.8050 C   0  0  0  0  0  0  0  0  0  0  0  0
  148.6468  141.3735  155.5550 C   0  0  0  0  0  0  0  0  0  0  0  0
  148.8696  140.8673  154.1148 C   0  0  2  0  0  0  0  0  0  0  0  0
  147.5425  141.2435  153.4633 C   0  0  0  0  0  0  0  0  0  0  0  0
  151.2302  133.8477  156.4808 C   0  0  0  0  0  0  0  0  0  0  0  0
  151.7263  134.9712  156.5564 O   0  0  0  0  0  0  0  0  0  0  0  0
  151.6456  132.8191  157.2740 N   0  5  0  0  0  0  0  0  0  0  0  0
  151.2587  129.4998  157.7276 H   0  0  0  0  0  0  0  0  0  0  0  0
  151.2562  130.6468  159.0742 H   0  0  0  0  0  0  0  0  0  0  0  0
  152.6925  130.4774  158.0533 H   0  0  0  0  0  0  0  0  0  0  0  0
  147.6302  132.4405  154.7291 H   0  0  0  0  0  0  0  0  0  0  0  0
  148.3227  130.8246  154.6088 H   0  0  0  0  0  0  0  0  0  0  0  0
  148.8325  132.0779  153.4800 H   0  0  0  0  0  0  0  0  0  0  0  0
  150.3216  134.7725  153.7530 H   0  0  0  0  0  0  0  0  0  0  0  0
  148.6819  134.4524  154.1818 H   0  0  0  0  0  0  0  0  0  0  0  0
  150.1049  136.9407  153.5360 H   0  0  0  0  0  0  0  0  0  0  0  0
  149.5291  138.6036  155.9436 H   0  0  0  0  0  0  0  0  0  0  0  0
  151.3119  140.1168  155.1417 H   0  0  0  0  0  0  0  0  0  0  0  0
  151.6106  139.0705  153.7555 H   0  0  0  0  0  0  0  0  0  0  0  0
  151.9504  138.5006  155.3880 H   0  0  0  0  0  0  0  0  0  0  0  0
  149.0021  139.0516  152.9861 H   0  0  0  0  0  0  0  0  0  0  0  0
  146.8696  138.4810  153.5089 H   0  0  0  0  0  0  0  0  0  0  0  0
  147.1806  138.4484  155.2405 H   0  0  0  0  0  0  0  0  0  0  0  0
  145.6411  140.4685  154.3050 H   0  0  0  0  0  0  0  0  0  0  0  0
  146.6039  141.9639  156.0220 H   0  0  0  0  0  0  0  0  0  0  0  0
  147.0204  140.3661  156.6408 H   0  0  0  0  0  0  0  0  0  0  0  0
  148.8112  142.4505  155.6060 H   0  0  0  0  0  0  0  0  0  0  0  0
  149.3093  140.9137  156.2869 H   0  0  0  0  0  0  0  0  0  0  0  0
  149.7448  141.3017  153.6312 H   0  0  0  0  0  0  0  0  0  0  0  0
  147.4445  140.8870  152.4363 H   0  0  0  0  0  0  0  0  0  0  0  0
  147.3325  142.3142  153.4911 H   0  0  0  0  0  0  0  0  0  0  0  0
  1  2  1  0  0  0  0
  1 23  1  0  0  0  0
  1 24  1  0  0  0  0
  1 25  1  0  0  0  0
  2 22  1  0  0  0  0
  2  3  2  0  0  0  0
  3  4  1  0  0  0  0
  4  5  1  0  0  0  0
  4  6  2  0  0  0  0
  5 26  1  0  0  0  0
  5 27  1  0  0  0  0
  5 28  1  0  0  0  0
  6  7  1  0  0  0  0
  6 20  1  0  0  0  0
  7  8  1  0  0  0  0
  7 29  1  0  0  0  0
  7 30  1  0  0  0  0
  8  9  2  0  0  0  0
  8 10  1  0  0  0  0
 10 11  1  0  0  0  0
 10 31  1  0  0  0  0
 11 12  1  0  0  0  0
 11 13  1  0  0  0  0
 11 32  1  0  0  0  0
 12 33  1  0  0  0  0
 12 34  1  0  0  0  0
 12 35  1  0  0  0  0
 13 18  1  0  0  0  0
 13 14  1  0  0  0  0
 13 36  1  0  0  0  0
 14 15  1  0  0  0  0
 14 37  1  0  0  0  0
 14 38  1  0  0  0  0
 15 19  1  0  0  0  0
 15 16  1  0  0  0  0
 15 39  1  0  0  0  0
 16 17  1  0  0  0  0
 16 40  1  0  0  0  0
 16 41  1  0  0  0  0
 17 18  1  0  0  0  0
 17 42  1  0  0  0  0
 17 43  1  0  0  0  0
 18 19  1  0  0  0  0
 18 44  1  0  0  0  0
 19 45  1  0  0  0  0
 19 46  1  0  0  0  0
 20 21  2  0  0  0  0
 20 22  1  0  0  0  0
M  CHG  1  22  -1
M  END
> <s_m_source_file>
AV-unprocessed.smi

> <i_m_source_file_index>
2124

> <i_lp_mmshare_version>
43012

> <i_f3d_flags>
0

> <s_epik_input>
W0NIM11jMW5jKFtDSDNdKWMoYyg9TylbbkhdMSlbQ0gyXUMoPU8pW05IXVtDQEhdKFtDSDNdKVtDQEhdKFtDSDJdW0NASF0yMylbQ0BIXShbQ0gyXTMpW0NIMl1bQ0gyXTI=

> <s_epik_cmdline>
J2VwaWtfcHl0aG9uJywgJy1waCcsICc3LjAnLCAnLXRuJywgJzgnLCAnLW1hJywgJzIwMCcsICctbWV0YWxfYmluZGluZycsICctaW1hZScsICc8aW5maWxlLm1hZT4nLCAnLW9tYWUnLCAnPG91dGZpbGUubWFlPic=

> <r_lp_tautomer_probability>
0.839158

> <r_epik_Ionization_Penalty>
6.63797

> <r_epik_Ionization_Penalty_Charging>
7.48558e-08

> <r_epik_Ionization_Penalty_Neutral>
6.63797

> <r_epik_State_Penalty>
4.49496

> <r_epik_Charging_Adjusted_Penalty>
4.49496

> <i_epik_Tot_Q>
-1

> <i_epik_Tot_abs_Q>
1

> <r_epik_Metal_State_Penalty>
0.841241

> <b_epik_Metal_Only>
1

> <s_lp_Force_Field>
OPLS_2005

> <r_lp_Energy>
55.5119

> <b_lp_Chiralities_Consistent>
1

> <s_lp_Variant>
AV-unprocessed.smi:2124-24

> <Gold.Version>
5.8.1

> <Gold.Id.Protein>
6NUR|6NUR_protein|mol2

> <Gold.PLP.Fitness>
39.2324

> <Gold.PLP.PLP>
-31.0362

> <Gold.PLP.part.hbond>
-3.0000

> <Gold.PLP.part.metal>
0.0000

> <Gold.PLP.part.buried>
-2.1658

> <Gold.PLP.part.nonpolar>
-26.4156

> <Gold.PLP.part.repulsive>
0.0467

> <Gold.PLP.ligand.clash>
0.0000

> <Gold.PLP.ligand.torsion>
0.8074

> <Gold.PLP.Chemscore.Hbond>
3.2637

> <Gold.PLP.Chemscore.CHOScore>
0.0000

> <Gold.PLP.Chemscore.Metal>
0.0000

> <Gold.Chemscore.Hbonds>
donor molecule, donor type, donor heavy atom, donor atom, acceptor molecule, acceptor atom, score
      L1  H    10    31       P1  7948  0.48
      P1  H  6896  6908       L1    22  1.86
      P1  H 10752 10765       L1    21  0.81

> <Gold.PLP.Chemscore.Internal.Correction>
0.0199

> <Gold.Rescore>
     Score         DG    S(hbond)    S(metal)    S(lipo)     H(rot)  DE(clash)    DE(int)     intcor
     10.88     -14.46       1.32        0.00      74.15       1.61       0.16       3.43       ----

> <Gold.Chemscore.Fitness>
10.8760

> <Gold.Chemscore.DG>
-14.4649

> <Gold.Chemscore.ZeroCoef>
-5.4800

> <Gold.Chemscore.Hbond>
1.3230

> <Gold.Chemscore.Metal>
0.0000

> <Gold.Chemscore.Lipo>
74.1461

> <Gold.Chemscore.Internal_Hbond>
0.0000

> <Gold.Chemscore.DEClash>
0.1584

> <Gold.Chemscore.DEInternal>
3.4305

> <Gold.Chemscore.Rot>
1.6051

> <Gold.Chemscore.Internal.Correction>
   9.000000E+99

> <Gold.Chemscore.Hbonds>
donor molecule, donor type, donor heavy atom, donor atom, acceptor molecule, acceptor atom, score
      L1  H    10    31       P1  7948  0.09
      P1  H  6896  6908       L1    22  0.40
      P1  H 10752 10765       L1    21  0.72

> <Gold.Chemscore.Hbond.Weighted>
-4.4188

> <Gold.Chemscore.Metal.Weighted>
-0.0000

> <Gold.Chemscore.Lipo.Weighted>
-8.6751

> <Gold.Chemscore.Internal_Hbond.Weighted>
0.0000

> <Gold.Chemscore.DEClash.Weighted>
0.1584

> <Gold.Chemscore.DEInternal.Weighted>
3.4305

> <Gold.Chemscore.Rot.Weighted>
4.1090

> <Gold.Chemscore.Internal.Correction.Weighted>
   9.000000E+99

> <Gold.Protein.RotatedTorsions>
[ 6907 6896 6895 6894 ] final   69.02 input  -60.11 | X-H torsion
[ 7974 7965 7964 7962 ] final -155.66 input  175.53 | X-H torsion
[ 8008 7997 7996 7995 ] final -147.71 input   59.86 | X-H torsion
[ 10167 10162 10161 10158 ] final  109.25 input  -65.29 | X-H torsion
[ 10718 10713 10712 10709 ] final  169.48 input   66.30 | X-H torsion
[ 10763 10752 10751 10750 ] final -143.12 input  -60.55 | X-H torsion
[ 11005 11000 10999 10996 ] final   97.58 input  -57.11 | X-H torsion

> <Gold.Protein.ActiveResidues>
 VAL166  LYS551  ARG553  GLY616  TRP617  ASP618  TYR619  PRO620  LYS621  CYS622 
 ASP623  PHE694  ASN695  SER759  ASP760  ASP761  ALA762  ILE779  LEU786  VAL792 
 PHE793  MET794  SER795  GLU796  ALA797  LYS798  CYS799  TRP800  GLU811  SER814 

> <Gold.Protein.RotatedAtoms>
  152.4658  134.5077  159.9744 H   0  0  0  0  0  0  0  0  0  0  0  0  # atno 6907 bound_to 6896
  151.5115  133.3478  159.2894 H   0  0  0  0  0  0  0  0  0  0  0  0  # atno 6908 bound_to 6896
  150.8642  134.8031  159.7168 H   0  0  0  0  0  0  0  0  0  0  0  0  # atno 6909 bound_to 6896
  144.7629  140.4218  143.5963 H   0  0  0  0  0  0  0  0  0  0  0  0  # atno 7974 bound_to 7965
  155.5799  140.0642  157.2786 H   0  0  0  0  0  0  0  0  0  0  0  0  # atno 8008 bound_to 7997
  154.4336  140.1854  156.1012 H   0  0  0  0  0  0  0  0  0  0  0  0  # atno 8009 bound_to 7997
  156.0313  140.3306  155.7146 H   0  0  0  0  0  0  0  0  0  0  0  0  # atno 8010 bound_to 7997
  139.6781  144.7120  151.1565 H   0  0  0  0  0  0  0  0  0  0  0  0  # atno 10167 bound_to 10162
  157.0221  131.0235  151.2771 H   0  0  0  0  0  0  0  0  0  0  0  0  # atno 10718 bound_to 10713
  154.8482  135.3477  154.6137 H   0  0  0  0  0  0  0  0  0  0  0  0  # atno 10763 bound_to 10752
  153.6745  135.6983  153.5141 H   0  0  0  0  0  0  0  0  0  0  0  0  # atno 10764 bound_to 10752
  153.2716  135.4291  155.0950 H   0  0  0  0  0  0  0  0  0  0  0  0  # atno 10765 bound_to 10752
  139.8775  134.9007  156.4328 H   0  0  0  0  0  0  0  0  0  0  0  0  # atno 11005 bound_to 11000
  145.6560  139.1573  143.2835 LP  0  0  0  0  0  0  0  0  0  0  0  0  # atno 17320 bound_to 7965
  146.1710  140.6645  142.9233 LP  0  0  0  0  0  0  0  0  0  0  0  0  # atno 17321 bound_to 7965
  140.7642  143.5741  150.8965 LP  0  0  0  0  0  0  0  0  0  0  0  0  # atno 17342 bound_to 10162
  139.9411  143.6381  152.3053 LP  0  0  0  0  0  0  0  0  0  0  0  0  # atno 17343 bound_to 10162
  157.5242  130.8017  149.7843 LP  0  0  0  0  0  0  0  0  0  0  0  0  # atno 17370 bound_to 10713
  156.0099  130.3838  150.2302 LP  0  0  0  0  0  0  0  0  0  0  0  0  # atno 17371 bound_to 10713
  140.9055  133.7749  155.9730 LP  0  0  0  0  0  0  0  0  0  0  0  0  # atno 17394 bound_to 11000
  140.8604  134.2847  157.5237 LP  0  0  0  0  0  0  0  0  0  0  0  0  # atno 17395 bound_to 11000

$$$$
