AV-unprocessed.smi:3276|AV-procd|sdf|12534|dock9
  -GOLD-   2272018453D 1   1.00000     0.00000
 Structure written by MMmdl.
 39 40  0  0  0  0  0  0  0  0  1 V2000
  149.2610  140.6479  154.8207 C   0  0  0  0  0  0  0  0  0  0  0  0
  150.1250  140.8602  156.0453 C   0  0  0  0  0  0  0  0  0  0  0  0
  150.6315  142.1338  156.3804 C   0  0  0  0  0  0  0  0  0  0  0  0
  151.4023  142.3235  157.4730 N   0  0  0  0  0  0  0  0  0  0  0  0
  151.6673  141.2335  158.2298 C   0  0  0  0  0  0  0  0  0  0  0  0
  152.5372  141.4646  159.4526 C   0  0  0  0  0  0  0  0  0  0  0  0
  151.1635  139.9502  157.8967 C   0  0  0  0  0  0  0  0  0  0  0  0
  151.4575  138.8428  158.7061 N   0  0  0  0  0  0  0  0  0  0  0  0
  150.9183  137.5308  158.3775 C   0  0  0  0  0  0  0  0  0  0  0  0
  149.4144  137.4611  158.6603 C   0  0  0  0  0  0  0  0  0  0  0  0
  149.0473  136.1020  158.8262 O   0  0  0  0  0  0  0  0  0  0  0  0
  147.7390  135.9383  159.3479 C   0  0  0  0  0  0  0  0  0  0  0  0
  147.8002  135.8717  160.8804 C   0  0  2  0  0  0  0  0  0  0  0  0
  146.9415  134.7765  161.5187 C   0  0  0  0  0  0  0  0  0  0  0  0
  146.6416  135.3755  162.8740 C   0  0  0  0  0  0  0  0  0  0  0  0
  146.4618  136.8489  162.5221 C   0  0  0  0  0  0  0  0  0  0  0  0
  147.3795  137.1033  161.4631 O   0  0  0  0  0  0  0  0  0  0  0  0
  150.3883  139.7699  156.7991 N   0  0  0  0  0  0  0  0  0  0  0  0
  149.0226  141.5965  154.3384 H   0  0  0  0  0  0  0  0  0  0  0  0
  148.3248  140.1607  155.0950 H   0  0  0  0  0  0  0  0  0  0  0  0
  149.7794  140.0179  154.0973 H   0  0  0  0  0  0  0  0  0  0  0  0
  150.4203  143.0024  155.7741 H   0  0  0  0  0  0  0  0  0  0  0  0
  153.4303  140.8409  159.4071 H   0  0  0  0  0  0  0  0  0  0  0  0
  151.9875  141.2142  160.3602 H   0  0  0  0  0  0  0  0  0  0  0  0
  152.8557  142.5054  159.5260 H   0  0  0  0  0  0  0  0  0  0  0  0
  152.2625  138.8853  159.3142 H   0  0  0  0  0  0  0  0  0  0  0  0
  151.0991  137.3349  157.3200 H   0  0  0  0  0  0  0  0  0  0  0  0
  151.4406  136.7589  158.9442 H   0  0  0  0  0  0  0  0  0  0  0  0
  149.1633  138.0434  159.5486 H   0  0  0  0  0  0  0  0  0  0  0  0
  148.8630  137.8875  157.8212 H   0  0  0  0  0  0  0  0  0  0  0  0
  147.1110  136.7770  159.0440 H   0  0  0  0  0  0  0  0  0  0  0  0
  147.2865  135.0287  158.9500 H   0  0  0  0  0  0  0  0  0  0  0  0
  148.8365  135.7232  161.1877 H   0  0  0  0  0  0  0  0  0  0  0  0
  146.0100  134.6321  160.9699 H   0  0  0  0  0  0  0  0  0  0  0  0
  147.4531  133.8154  161.5774 H   0  0  0  0  0  0  0  0  0  0  0  0
  145.7636  134.9404  163.3520 H   0  0  0  0  0  0  0  0  0  0  0  0
  147.4955  135.2469  163.5402 H   0  0  0  0  0  0  0  0  0  0  0  0
  145.4505  137.0301  162.1556 H   0  0  0  0  0  0  0  0  0  0  0  0
  146.6379  137.5085  163.3719 H   0  0  0  0  0  0  0  0  0  0  0  0
  1  2  1  0  0  0  0
  1 19  1  0  0  0  0
  1 20  1  0  0  0  0
  1 21  1  0  0  0  0
  2 18  1  0  0  0  0
  2  3  2  0  0  0  0
  3  4  1  0  0  0  0
  3 22  1  0  0  0  0
  4  5  2  0  0  0  0
  5  6  1  0  0  0  0
  5  7  1  0  0  0  0
  6 23  1  0  0  0  0
  6 24  1  0  0  0  0
  6 25  1  0  0  0  0
  7  8  1  0  0  0  0
  7 18  2  0  0  0  0
  8  9  1  0  0  0  0
  8 26  1  0  0  0  0
  9 10  1  0  0  0  0
  9 27  1  0  0  0  0
  9 28  1  0  0  0  0
 10 11  1  0  0  0  0
 10 29  1  0  0  0  0
 10 30  1  0  0  0  0
 11 12  1  0  0  0  0
 12 13  1  0  0  0  0
 12 31  1  0  0  0  0
 12 32  1  0  0  0  0
 13 17  1  0  0  0  0
 13 14  1  0  0  0  0
 13 33  1  0  0  0  0
 14 15  1  0  0  0  0
 14 34  1  0  0  0  0
 14 35  1  0  0  0  0
 15 16  1  0  0  0  0
 15 36  1  0  0  0  0
 15 37  1  0  0  0  0
 16 17  1  0  0  0  0
 16 38  1  0  0  0  0
 16 39  1  0  0  0  0
M  END
> <s_m_source_file>
AV-unprocessed.smi

> <i_m_source_file_index>
3276

> <i_lp_mmshare_version>
43012

> <i_f3d_flags>
0

> <s_epik_input>
W0NIM11jMVtjSF1uYyhbQ0gzXSljKG4xKVtOSF1bQ0gyXVtDSDJdT1tDSDJdW0NAQEhdMltDSDJdW0NIMl1bQ0gyXU8y

> <s_epik_cmdline>
J2VwaWtfcHl0aG9uJywgJy1waCcsICc3LjAnLCAnLXRuJywgJzgnLCAnLW1hJywgJzIwMCcsICctbWV0YWxfYmluZGluZycsICctaW1hZScsICc8aW5maWxlLm1hZT4nLCAnLW9tYWUnLCAnPG91dGZpbGUubWFlPic=

> <r_lp_tautomer_probability>
1

> <r_epik_Ionization_Penalty>
0.000506

> <r_epik_Ionization_Penalty_Charging>
0

> <r_epik_Ionization_Penalty_Neutral>
0.000506

> <r_epik_State_Penalty>
-0

> <r_epik_Charging_Adjusted_Penalty>
0

> <i_epik_Tot_Q>
0

> <i_epik_Tot_abs_Q>
0

> <r_epik_Metal_State_Penalty>
-0

> <b_epik_Metal_Only>
0

> <s_lp_Force_Field>
OPLS_2005

> <r_lp_Energy>
26.3084

> <b_lp_Chiralities_Consistent>
1

> <s_lp_Variant>
AV-unprocessed.smi:3276-1

> <Gold.Version>
5.8.1

> <Gold.Id.Protein>
6NUR|6NUR_protein|mol2

> <Gold.PLP.Fitness>
44.7506

> <Gold.PLP.PLP>
-35.2068

> <Gold.PLP.part.hbond>
-3.0000

> <Gold.PLP.part.metal>
0.0000

> <Gold.PLP.part.buried>
-3.5589

> <Gold.PLP.part.nonpolar>
-27.7844

> <Gold.PLP.part.repulsive>
0.1757

> <Gold.PLP.ligand.clash>
0.0000

> <Gold.PLP.ligand.torsion>
1.0352

> <Gold.PLP.Chemscore.Hbond>
2.8400

> <Gold.PLP.Chemscore.CHOScore>
1.0000

> <Gold.PLP.Chemscore.Metal>
0.0000

> <Gold.Chemscore.Hbonds>
donor molecule, donor type, donor heavy atom, donor atom, acceptor molecule, acceptor atom, score
      P1  H  6896  6908       L1    11  0.28
      P1  H  6931  6943       L1    17  0.87
      P1  H  6934  6947       L1    17  0.93
      L1  C     3    22       P1  8028  1.00

> <Gold.PLP.Chemscore.Internal.Correction>
0.0942

> <Gold.Rescore>
     Score         DG    S(hbond)    S(metal)    S(lipo)     H(rot)  DE(clash)    DE(int)     intcor
     17.06     -17.95       2.00        0.00      86.34       1.68       0.03       0.86       ----

> <Gold.Chemscore.Fitness>
17.0568

> <Gold.Chemscore.DG>
-17.9515

> <Gold.Chemscore.ZeroCoef>
-5.4800

> <Gold.Chemscore.Hbond>
1.9986

> <Gold.Chemscore.Metal>
0.0000

> <Gold.Chemscore.Lipo>
86.3412

> <Gold.Chemscore.Internal_Hbond>
0.0000

> <Gold.Chemscore.DEClash>
0.0300

> <Gold.Chemscore.DEInternal>
0.8646

> <Gold.Chemscore.Rot>
1.6820

> <Gold.Chemscore.Internal.Correction>
   9.000000E+99

> <Gold.Chemscore.Hbonds>
donor molecule, donor type, donor heavy atom, donor atom, acceptor molecule, acceptor atom, score
      P1  H  6896  6908       L1    11  0.25
      P1  H  6931  6943       L1    17  0.57
      P1  H  6934  6947       L1    17  0.53

> <Gold.Chemscore.Hbond.Weighted>
-6.6754

> <Gold.Chemscore.Metal.Weighted>
-0.0000

> <Gold.Chemscore.Lipo.Weighted>
-10.1019

> <Gold.Chemscore.Internal_Hbond.Weighted>
0.0000

> <Gold.Chemscore.DEClash.Weighted>
0.0300

> <Gold.Chemscore.DEInternal.Weighted>
0.8646

> <Gold.Chemscore.Rot.Weighted>
4.3058

> <Gold.Chemscore.Internal.Correction.Weighted>
   9.000000E+99

> <Gold.Protein.RotatedTorsions>
[ 6907 6896 6895 6894 ] final -179.56 input  -60.11 | X-H torsion
[ 7974 7965 7964 7962 ] final -105.89 input  175.53 | X-H torsion
[ 8008 7997 7996 7995 ] final  -43.77 input   59.86 | X-H torsion
[ 10167 10162 10161 10158 ] final -155.79 input  -65.29 | X-H torsion
[ 10718 10713 10712 10709 ] final   65.49 input   66.30 | X-H torsion
[ 10763 10752 10751 10750 ] final -178.58 input  -60.55 | X-H torsion
[ 11005 11000 10999 10996 ] final  -45.18 input  -57.11 | X-H torsion

> <Gold.Protein.ActiveResidues>
 VAL166  LYS551  ARG553  GLY616  TRP617  ASP618  TYR619  PRO620  LYS621  CYS622 
 ASP623  PHE694  ASN695  SER759  ASP760  ASP761  ALA762  ILE779  LEU786  VAL792 
 PHE793  MET794  SER795  GLU796  ALA797  LYS798  CYS799  TRP800  GLU811  SER814 

> <Gold.Protein.RotatedAtoms>
  151.6553  133.3319  159.3161 H   0  0  0  0  0  0  0  0  0  0  0  0  # atno 6907 bound_to 6896
  150.7940  134.6989  159.6548 H   0  0  0  0  0  0  0  0  0  0  0  0  # atno 6908 bound_to 6896
  152.4024  134.6268  160.0116 H   0  0  0  0  0  0  0  0  0  0  0  0  # atno 6909 bound_to 6896
  145.2248  140.9148  143.3239 H   0  0  0  0  0  0  0  0  0  0  0  0  # atno 7974 bound_to 7965
  154.3997  140.1439  156.3574 H   0  0  0  0  0  0  0  0  0  0  0  0  # atno 8008 bound_to 7997
  155.8213  140.3469  155.5495 H   0  0  0  0  0  0  0  0  0  0  0  0  # atno 8009 bound_to 7997
  155.8285  140.0908  157.1797 H   0  0  0  0  0  0  0  0  0  0  0  0  # atno 8010 bound_to 7997
  139.6903  143.9432  152.2381 H   0  0  0  0  0  0  0  0  0  0  0  0  # atno 10167 bound_to 10162
  157.6109  130.9217  149.9984 H   0  0  0  0  0  0  0  0  0  0  0  0  # atno 10718 bound_to 10713
  154.5459  135.2809  155.1053 H   0  0  0  0  0  0  0  0  0  0  0  0  # atno 10763 bound_to 10752
  154.2517  135.6338  153.5246 H   0  0  0  0  0  0  0  0  0  0  0  0  # atno 10764 bound_to 10752
  152.9990  135.5584  154.6012 H   0  0  0  0  0  0  0  0  0  0  0  0  # atno 10765 bound_to 10752
  141.0498  133.6747  156.2976 H   0  0  0  0  0  0  0  0  0  0  0  0  # atno 11005 bound_to 11000
  144.9732  139.3859  143.6299 LP  0  0  0  0  0  0  0  0  0  0  0  0  # atno 17320 bound_to 7965
  146.3367  139.8839  142.8820 LP  0  0  0  0  0  0  0  0  0  0  0  0  # atno 17321 bound_to 7965
  139.9246  144.6779  150.8425 LP  0  0  0  0  0  0  0  0  0  0  0  0  # atno 17342 bound_to 10162
  140.7680  143.3351  151.2327 LP  0  0  0  0  0  0  0  0  0  0  0  0  # atno 17343 bound_to 10162
  156.1211  130.3646  149.9885 LP  0  0  0  0  0  0  0  0  0  0  0  0  # atno 17370 bound_to 10713
  156.7965  130.9275  151.3646 LP  0  0  0  0  0  0  0  0  0  0  0  0  # atno 17371 bound_to 10713
  140.6076  134.5491  157.5528 LP  0  0  0  0  0  0  0  0  0  0  0  0  # atno 17394 bound_to 11000
  139.9341  134.7908  156.0849 LP  0  0  0  0  0  0  0  0  0  0  0  0  # atno 17395 bound_to 11000

$$$$
