AV-unprocessed.smi:1593|AV-procd|sdf|6411|dock10
  -GOLD-   22720 7 43D 1   1.00000     0.00000
 Structure written by MMmdl.
 35 36  0  0  0  0  0  0  0  0  2 V2000
  150.9769  141.0523  156.1454 C   0  0  0  0  0  0  0  0  0  0  0  0
  151.3779  139.7240  155.6008 C   0  0  0  0  0  0  0  0  0  0  0  0
  150.6636  138.6730  155.0995 C   0  0  0  0  0  0  0  0  0  0  0  0
  151.6697  137.7242  154.7692 C   0  0  0  0  0  0  0  0  0  0  0  0
  151.4683  136.5151  154.2231 N   0  5  0  0  0  0  0  0  0  0  0  0
  150.8271  135.5493  154.9212 C   0  0  0  0  0  0  0  0  0  0  0  0
  151.1680  135.0854  156.0119 O   0  0  0  0  0  0  0  0  0  0  0  0
  149.7224  135.0906  154.3185 N   0  0  0  0  0  0  0  0  0  0  0  0
  148.8562  134.0383  154.8358 C   0  0  0  0  0  0  0  0  0  0  0  0
  148.7696  132.8602  153.8493 C   0  0  0  0  0  0  0  0  0  0  0  0
  149.4044  131.6185  154.2941 N   0  0  0  0  0  0  0  0  0  0  0  0
  149.3017  130.5460  153.3072 C   0  0  0  0  0  0  0  0  0  0  0  0
  149.9936  129.2580  153.7868 C   0  0  0  0  0  0  0  0  0  0  0  0
  151.3546  129.5329  154.1040 O   0  0  0  0  0  0  0  0  0  0  0  0
  151.4913  130.5409  155.1003 C   0  0  0  0  0  0  0  0  0  0  0  0
  150.8097  131.8336  154.6198 C   0  0  0  0  0  0  0  0  0  0  0  0
  152.8880  138.1679  155.0306 N   0  0  0  0  0  0  0  0  0  0  0  0
  152.7093  139.4472  155.5704 O   0  0  0  0  0  0  0  0  0  0  0  0
  150.3579  141.5917  155.4285 H   0  0  0  0  0  0  0  0  0  0  0  0
  151.8498  141.6667  156.3672 H   0  0  0  0  0  0  0  0  0  0  0  0
  150.4047  140.9334  157.0655 H   0  0  0  0  0  0  0  0  0  0  0  0
  149.5926  138.5924  154.9903 H   0  0  0  0  0  0  0  0  0  0  0  0
  149.4774  135.4873  153.4231 H   0  0  0  0  0  0  0  0  0  0  0  0
  149.2120  133.7046  155.8111 H   0  0  0  0  0  0  0  0  0  0  0  0
  147.8596  134.4518  154.9953 H   0  0  0  0  0  0  0  0  0  0  0  0
  147.7224  132.6700  153.6104 H   0  0  0  0  0  0  0  0  0  0  0  0
  149.2340  133.1781  152.9149 H   0  0  0  0  0  0  0  0  0  0  0  0
  148.2558  130.3206  153.1004 H   0  0  0  0  0  0  0  0  0  0  0  0
  149.7469  130.8666  152.3641 H   0  0  0  0  0  0  0  0  0  0  0  0
  149.4845  128.8499  154.6612 H   0  0  0  0  0  0  0  0  0  0  0  0
  149.9554  128.4950  153.0092 H   0  0  0  0  0  0  0  0  0  0  0  0
  151.0519  130.1982  156.0384 H   0  0  0  0  0  0  0  0  0  0  0  0
  152.5507  130.7167  155.2872 H   0  0  0  0  0  0  0  0  0  0  0  0
  151.3376  132.2155  153.7446 H   0  0  0  0  0  0  0  0  0  0  0  0
  150.8975  132.5957  155.3950 H   0  0  0  0  0  0  0  0  0  0  0  0
  1  2  1  0  0  0  0
  1 19  1  0  0  0  0
  1 20  1  0  0  0  0
  1 21  1  0  0  0  0
  2 18  1  0  0  0  0
  2  3  2  0  0  0  0
  3  4  1  0  0  0  0
  3 22  1  0  0  0  0
  4  5  1  0  0  0  0
  4 17  2  0  0  0  0
  5  6  1  0  0  0  0
  6  7  2  0  0  0  0
  6  8  1  0  0  0  0
  8  9  1  0  0  0  0
  8 23  1  0  0  0  0
  9 10  1  0  0  0  0
  9 24  1  0  0  0  0
  9 25  1  0  0  0  0
 10 11  1  0  0  0  0
 10 26  1  0  0  0  0
 10 27  1  0  0  0  0
 11 16  1  0  0  0  0
 11 12  1  0  0  0  0
 12 13  1  0  0  0  0
 12 28  1  0  0  0  0
 12 29  1  0  0  0  0
 13 14  1  0  0  0  0
 13 30  1  0  0  0  0
 13 31  1  0  0  0  0
 14 15  1  0  0  0  0
 15 16  1  0  0  0  0
 15 32  1  0  0  0  0
 15 33  1  0  0  0  0
 16 34  1  0  0  0  0
 16 35  1  0  0  0  0
 17 18  1  0  0  0  0
M  CHG  1   5  -1
M  END
> <s_m_source_file>
AV-unprocessed.smi

> <i_m_source_file_index>
1593

> <i_lp_mmshare_version>
43012

> <i_f3d_flags>
0

> <s_epik_input>
W0NIM11jMVtjSF1jKG5vMSlbTkhdQyg9TylbTkhdW0NIMl1bQ0gyXU4yW0NIMl1bQ0gyXU9bQ0gyXVtDSDJdMg==

> <s_epik_cmdline>
J2VwaWtfcHl0aG9uJywgJy1waCcsICc3LjAnLCAnLXRuJywgJzgnLCAnLW1hJywgJzIwMCcsICctbWV0YWxfYmluZGluZycsICctaW1hZScsICc8aW5maWxlLm1hZT4nLCAnLW9tYWUnLCAnPG91dGZpbGUubWFlPic=

> <r_epik_Ionization_Penalty>
6.88366

> <r_epik_Ionization_Penalty_Charging>
6.57198

> <r_epik_Ionization_Penalty_Neutral>
0.311678

> <r_epik_State_Penalty>
6.77619

> <r_epik_Charging_Adjusted_Penalty>
13.3482

> <i_epik_Tot_Q>
-1

> <i_epik_Tot_abs_Q>
1

> <r_epik_Metal_State_Penalty>
2.70533

> <b_epik_Metal_Only>
1

> <s_lp_Force_Field>
OPLS_2005

> <r_lp_Energy>
18.6523

> <b_lp_Chiralities_Consistent>
1

> <s_lp_Variant>
AV-unprocessed.smi:1593-3

> <Gold.Version>
5.8.1

> <Gold.Id.Protein>
6NUR|6NUR_protein|mol2

> <Gold.PLP.Fitness>
38.4683

> <Gold.PLP.PLP>
-29.4975

> <Gold.PLP.part.hbond>
-3.5375

> <Gold.PLP.part.metal>
0.0000

> <Gold.PLP.part.buried>
-5.0004

> <Gold.PLP.part.nonpolar>
-21.9807

> <Gold.PLP.part.repulsive>
1.7994

> <Gold.PLP.ligand.clash>
0.0000

> <Gold.PLP.ligand.torsion>
1.5292

> <Gold.PLP.Chemscore.Hbond>
4.0000

> <Gold.PLP.Chemscore.CHOScore>
0.0000

> <Gold.PLP.Chemscore.Metal>
0.0000

> <Gold.Chemscore.Hbonds>
donor molecule, donor type, donor heavy atom, donor atom, acceptor molecule, acceptor atom, score
      L1  H     8    23       P1  7948  0.80
      P1  H  7997  8009       L1    18  1.00
      P1  H 10752 10764       L1     5  1.60

> <Gold.PLP.Chemscore.Internal.Correction>
0.0292

> <Gold.Rescore>
     Score         DG    S(hbond)    S(metal)    S(lipo)     H(rot)  DE(clash)    DE(int)     intcor
     12.52     -14.09       2.17        0.00      45.95       1.57       0.02       1.55       ----

> <Gold.Chemscore.Fitness>
12.5243

> <Gold.Chemscore.DG>
-14.0929

> <Gold.Chemscore.ZeroCoef>
-5.4800

> <Gold.Chemscore.Hbond>
2.1747

> <Gold.Chemscore.Metal>
0.0000

> <Gold.Chemscore.Lipo>
45.9534

> <Gold.Chemscore.Internal_Hbond>
0.0000

> <Gold.Chemscore.DEClash>
0.0174

> <Gold.Chemscore.DEInternal>
1.5512

> <Gold.Chemscore.Rot>
1.5731

> <Gold.Chemscore.Internal.Correction>
   9.000000E+99

> <Gold.Chemscore.Hbonds>
donor molecule, donor type, donor heavy atom, donor atom, acceptor molecule, acceptor atom, score
      L1  H     8    23       P1  7948  0.12
      P1  H  7997  8009       L1    18  0.74
      P1  H 10752 10764       L1     5  0.08

> <Gold.Chemscore.Hbond.Weighted>
-7.2634

> <Gold.Chemscore.Metal.Weighted>
-0.0000

> <Gold.Chemscore.Lipo.Weighted>
-5.3766

> <Gold.Chemscore.Internal_Hbond.Weighted>
0.0000

> <Gold.Chemscore.DEClash.Weighted>
0.0174

> <Gold.Chemscore.DEInternal.Weighted>
1.5512

> <Gold.Chemscore.Rot.Weighted>
4.0271

> <Gold.Chemscore.Internal.Correction.Weighted>
   9.000000E+99

> <Gold.Protein.RotatedTorsions>
[ 6907 6896 6895 6894 ] final  -94.00 input  -60.11 | X-H torsion
[ 7974 7965 7964 7962 ] final  -21.36 input  175.53 | X-H torsion
[ 8008 7997 7996 7995 ] final -152.87 input   59.86 | X-H torsion
[ 10167 10162 10161 10158 ] final -108.03 input  -65.29 | X-H torsion
[ 10718 10713 10712 10709 ] final  -27.46 input   66.30 | X-H torsion
[ 10763 10752 10751 10750 ] final  -88.97 input  -60.55 | X-H torsion
[ 11005 11000 10999 10996 ] final   65.55 input  -57.11 | X-H torsion

> <Gold.Protein.ActiveResidues>
 VAL166  LYS551  ARG553  GLY616  TRP617  ASP618  TYR619  PRO620  LYS621  CYS622 
 ASP623  PHE694  ASN695  SER759  ASP760  ASP761  ALA762  ILE779  LEU786  VAL792 
 PHE793  MET794  SER795  GLU796  ALA797  LYS798  CYS799  TRP800  GLU811  SER814 

> <Gold.Protein.RotatedAtoms>
  150.6933  134.1880  159.4273 H   0  0  0  0  0  0  0  0  0  0  0  0  # atno 6907 bound_to 6896
  151.9851  135.0006  160.0568 H   0  0  0  0  0  0  0  0  0  0  0  0  # atno 6908 bound_to 6896
  152.1719  133.4614  159.4950 H   0  0  0  0  0  0  0  0  0  0  0  0  # atno 6909 bound_to 6896
  146.1737  140.4330  142.8522 H   0  0  0  0  0  0  0  0  0  0  0  0  # atno 7974 bound_to 7965
  155.6620  140.0723  157.2551 H   0  0  0  0  0  0  0  0  0  0  0  0  # atno 8008 bound_to 7997
  154.4140  140.1714  156.1837 H   0  0  0  0  0  0  0  0  0  0  0  0  # atno 8009 bound_to 7997
  155.9689  140.3363  155.6561 H   0  0  0  0  0  0  0  0  0  0  0  0  # atno 8010 bound_to 7997
  140.1706  143.4046  152.1357 H   0  0  0  0  0  0  0  0  0  0  0  0  # atno 10167 bound_to 10162
  156.4379  130.4458  149.7072 H   0  0  0  0  0  0  0  0  0  0  0  0  # atno 10718 bound_to 10713
  154.6503  135.5357  153.7894 H   0  0  0  0  0  0  0  0  0  0  0  0  # atno 10763 bound_to 10752
  153.0382  135.6481  154.1026 H   0  0  0  0  0  0  0  0  0  0  0  0  # atno 10764 bound_to 10752
  154.0944  135.2937  155.3245 H   0  0  0  0  0  0  0  0  0  0  0  0  # atno 10765 bound_to 10752
  139.9887  134.6626  156.0129 H   0  0  0  0  0  0  0  0  0  0  0  0  # atno 11005 bound_to 11000
  144.8202  140.6537  143.6357 LP  0  0  0  0  0  0  0  0  0  0  0  0  # atno 17320 bound_to 7965
  145.4270  139.1555  143.4043 LP  0  0  0  0  0  0  0  0  0  0  0  0  # atno 17321 bound_to 7965
  139.5340  144.7189  151.4958 LP  0  0  0  0  0  0  0  0  0  0  0  0  # atno 17342 bound_to 10162
  140.6585  143.8549  150.6861 LP  0  0  0  0  0  0  0  0  0  0  0  0  # atno 17343 bound_to 10162
  156.3949  130.7645  151.2649 LP  0  0  0  0  0  0  0  0  0  0  0  0  # atno 17370 bound_to 10713
  157.7507  131.0257  150.3930 LP  0  0  0  0  0  0  0  0  0  0  0  0  # atno 17371 bound_to 10713
  141.1547  133.6544  156.4124 LP  0  0  0  0  0  0  0  0  0  0  0  0  # atno 17394 bound_to 11000
  140.4950  134.6539  157.5226 LP  0  0  0  0  0  0  0  0  0  0  0  0  # atno 17395 bound_to 11000

$$$$
