AV-unprocessed.smi:1434|AV-procd|sdf|5849|dock3
  -GOLD-   22720 5513D 1   1.00000     0.00000
 Structure written by MMmdl.
 44 45  0  0  0  0  0  0  0  0  1 V2000
  144.5329  137.2326  152.5923 C   0  0  0  0  0  0  0  0  0  0  0  0
  145.8162  136.8931  153.8632 S   0  0  0  0  0  0  0  0  0  0  0  0
  145.3027  137.3261  155.1717 O   0  0  0  0  0  0  0  0  0  0  0  0
  146.3185  135.5228  153.6839 O   0  0  0  0  0  0  0  0  0  0  0  0
  147.0839  137.9716  153.4099 N   0  0  0  0  0  0  0  0  0  0  0  0
  147.4347  139.0623  154.3211 C   0  0  2  0  0  0  0  0  0  0  0  0
  146.1894  139.9181  154.6392 C   0  0  0  0  0  0  0  0  0  0  0  0
  146.5564  141.1881  155.4298 C   0  0  0  0  0  0  0  0  0  0  0  0
  147.7114  141.9443  154.7502 C   0  0  0  0  0  0  0  0  0  0  0  0
  148.8583  141.0298  154.6129 N   0  0  0  0  0  0  0  0  0  0  0  0
  150.0164  141.0763  155.3188 C   0  0  0  0  0  0  0  0  0  0  0  0
  150.8938  140.2167  155.2302 O   0  0  0  0  0  0  0  0  0  0  0  0
  150.1357  142.1408  156.1315 N   0  0  0  0  0  0  0  0  0  0  0  0
  151.2921  142.4592  156.9657 C   0  0  0  0  0  0  0  0  0  0  0  0
  150.8829  143.1341  158.2882 C   0  0  0  0  0  0  0  0  0  0  0  0
  151.7793  142.7706  159.4596 C   0  0  0  0  0  0  0  0  0  0  0  0
  152.8579  141.8752  159.2925 C   0  0  0  0  0  0  0  0  0  0  0  0
  153.6412  141.5520  160.4170 C   0  0  0  0  0  0  0  0  0  0  0  0
  153.3197  142.1353  161.6576 C   0  0  0  0  0  0  0  0  0  0  0  0
  152.2245  143.0199  161.7188 C   0  0  0  0  0  0  0  0  0  0  0  0
  151.4665  143.3362  160.6470 N   0  0  0  0  0  0  0  0  0  0  0  0
  148.5486  139.9255  153.6956 C   0  0  0  0  0  0  0  0  0  0  0  0
  143.6636  136.6020  152.7786 H   0  0  0  0  0  0  0  0  0  0  0  0
  144.9320  137.0145  151.6018 H   0  0  0  0  0  0  0  0  0  0  0  0
  144.2374  138.2804  152.6436 H   0  0  0  0  0  0  0  0  0  0  0  0
  147.9154  137.4569  153.1211 H   0  0  0  0  0  0  0  0  0  0  0  0
  147.8176  138.6304  155.2476 H   0  0  0  0  0  0  0  0  0  0  0  0
  145.7065  140.2135  153.7065 H   0  0  0  0  0  0  0  0  0  0  0  0
  145.4542  139.3360  155.1948 H   0  0  0  0  0  0  0  0  0  0  0  0
  145.6839  141.8356  155.5201 H   0  0  0  0  0  0  0  0  0  0  0  0
  146.8472  140.9154  156.4450 H   0  0  0  0  0  0  0  0  0  0  0  0
  147.4025  142.2790  153.7588 H   0  0  0  0  0  0  0  0  0  0  0  0
  147.9346  142.8576  155.3015 H   0  0  0  0  0  0  0  0  0  0  0  0
  149.3672  142.7947  156.1576 H   0  0  0  0  0  0  0  0  0  0  0  0
  151.8179  141.5291  157.1803 H   0  0  0  0  0  0  0  0  0  0  0  0
  152.0014  143.0897  156.4272 H   0  0  0  0  0  0  0  0  0  0  0  0
  150.8826  144.2177  158.1627 H   0  0  0  0  0  0  0  0  0  0  0  0
  149.8559  142.8605  158.5339 H   0  0  0  0  0  0  0  0  0  0  0  0
  153.0742  141.4379  158.3289 H   0  0  0  0  0  0  0  0  0  0  0  0
  154.4721  140.8675  160.3297 H   0  0  0  0  0  0  0  0  0  0  0  0
  153.8978  141.9104  162.5416 H   0  0  0  0  0  0  0  0  0  0  0  0
  151.9502  143.4863  162.6533 H   0  0  0  0  0  0  0  0  0  0  0  0
  149.4195  139.3076  153.4714 H   0  0  0  0  0  0  0  0  0  0  0  0
  148.2220  140.3340  152.7379 H   0  0  0  0  0  0  0  0  0  0  0  0
  1  2  1  0  0  0  0
  1 23  1  0  0  0  0
  1 24  1  0  0  0  0
  1 25  1  0  0  0  0
  2  3  2  0  0  0  0
  2  4  2  0  0  0  0
  2  5  1  0  0  0  0
  5  6  1  0  0  0  0
  5 26  1  0  0  0  0
  6 22  1  0  0  0  0
  6  7  1  0  0  0  0
  6 27  1  0  0  0  0
  7  8  1  0  0  0  0
  7 28  1  0  0  0  0
  7 29  1  0  0  0  0
  8  9  1  0  0  0  0
  8 30  1  0  0  0  0
  8 31  1  0  0  0  0
  9 10  1  0  0  0  0
  9 32  1  0  0  0  0
  9 33  1  0  0  0  0
 10 11  1  0  0  0  0
 10 22  1  0  0  0  0
 11 12  2  0  0  0  0
 11 13  1  0  0  0  0
 13 14  1  0  0  0  0
 13 34  1  0  0  0  0
 14 15  1  0  0  0  0
 14 35  1  0  0  0  0
 14 36  1  0  0  0  0
 15 16  1  0  0  0  0
 15 37  1  0  0  0  0
 15 38  1  0  0  0  0
 16 21  1  0  0  0  0
 16 17  2  0  0  0  0
 17 18  1  0  0  0  0
 17 39  1  0  0  0  0
 18 19  2  0  0  0  0
 18 40  1  0  0  0  0
 19 20  1  0  0  0  0
 19 41  1  0  0  0  0
 20 21  2  0  0  0  0
 20 42  1  0  0  0  0
 22 43  1  0  0  0  0
 22 44  1  0  0  0  0
M  END
> <s_m_source_file>
AV-unprocessed.smi

> <i_m_source_file_index>
1434

> <i_lp_mmshare_version>
43012

> <i_f3d_flags>
0

> <s_epik_input>
W0NIM11TKD1PKSg9TylbTkhdW0NAQEhdMVtDSDJdW0NIMl1bQ0gyXU4oW0NIMl0xKUMoPU8pW05IXVtDSDJdW0NIMl1jMltjSF1bY0hdW2NIXVtjSF1uMg==

> <s_epik_cmdline>
J2VwaWtfcHl0aG9uJywgJy1waCcsICc3LjAnLCAnLXRuJywgJzgnLCAnLW1hJywgJzIwMCcsICctbWV0YWxfYmluZGluZycsICctaW1hZScsICc8aW5maWxlLm1hZT4nLCAnLW9tYWUnLCAnPG91dGZpbGUubWFlPic=

> <r_epik_Ionization_Penalty>
0.0449488

> <r_epik_Ionization_Penalty_Charging>
0

> <r_epik_Ionization_Penalty_Neutral>
0.0449488

> <r_epik_State_Penalty>
0.0380669

> <r_epik_Charging_Adjusted_Penalty>
0.0380669

> <i_epik_Tot_Q>
0

> <i_epik_Tot_abs_Q>
0

> <r_epik_Metal_State_Penalty>
0.0441384

> <b_epik_Metal_Only>
0

> <s_lp_Force_Field>
OPLS_2005

> <r_lp_Energy>
23.2159

> <b_lp_Chiralities_Consistent>
1

> <s_lp_Variant>
AV-unprocessed.smi:1434-1

> <Gold.Version>
5.8.1

> <Gold.Id.Protein>
6NUR|6NUR_protein|mol2

> <Gold.PLP.Fitness>
47.0584

> <Gold.PLP.PLP>
-39.5825

> <Gold.PLP.part.hbond>
-3.3583

> <Gold.PLP.part.metal>
0.0000

> <Gold.PLP.part.buried>
-1.3752

> <Gold.PLP.part.nonpolar>
-34.2563

> <Gold.PLP.part.repulsive>
0.3998

> <Gold.PLP.ligand.clash>
0.0000

> <Gold.PLP.ligand.torsion>
0.4872

> <Gold.PLP.Chemscore.Hbond>
2.7680

> <Gold.PLP.Chemscore.CHOScore>
0.0000

> <Gold.PLP.Chemscore.Metal>
0.0000

> <Gold.Chemscore.Hbonds>
donor molecule, donor type, donor heavy atom, donor atom, acceptor molecule, acceptor atom, score
      L1  H     5    26       P1  7948  0.99
      L1  H    13    34       P1  8028  0.80
      P1  H  7989  7998       L1    12  0.75

> <Gold.PLP.Chemscore.Internal.Correction>
0.1462

> <Gold.Rescore>
     Score         DG    S(hbond)    S(metal)    S(lipo)     H(rot)  DE(clash)    DE(int)     intcor
     15.82     -19.39       2.23        0.00      99.61       2.03       1.56       2.01       ----

> <Gold.Chemscore.Fitness>
15.8207

> <Gold.Chemscore.DG>
-19.3902

> <Gold.Chemscore.ZeroCoef>
-5.4800

> <Gold.Chemscore.Hbond>
2.2345

> <Gold.Chemscore.Metal>
0.0000

> <Gold.Chemscore.Lipo>
99.6068

> <Gold.Chemscore.Internal_Hbond>
0.0000

> <Gold.Chemscore.DEClash>
1.5576

> <Gold.Chemscore.DEInternal>
2.0118

> <Gold.Chemscore.Rot>
2.0340

> <Gold.Chemscore.Internal.Correction>
   9.000000E+99

> <Gold.Chemscore.Hbonds>
donor molecule, donor type, donor heavy atom, donor atom, acceptor molecule, acceptor atom, score
      L1  H     5    26       P1  7948  0.90
      L1  H    13    34       P1  8028  0.76
      P1  H  7989  7998       L1    12  0.09

> <Gold.Chemscore.Hbond.Weighted>
-7.4633

> <Gold.Chemscore.Metal.Weighted>
-0.0000

> <Gold.Chemscore.Lipo.Weighted>
-11.6540

> <Gold.Chemscore.Internal_Hbond.Weighted>
0.0000

> <Gold.Chemscore.DEClash.Weighted>
1.5576

> <Gold.Chemscore.DEInternal.Weighted>
2.0118

> <Gold.Chemscore.Rot.Weighted>
5.2071

> <Gold.Chemscore.Internal.Correction.Weighted>
   9.000000E+99

> <Gold.Protein.RotatedTorsions>
[ 6907 6896 6895 6894 ] final   51.69 input  -60.11 | X-H torsion
[ 7974 7965 7964 7962 ] final  -50.82 input  175.53 | X-H torsion
[ 8008 7997 7996 7995 ] final  167.97 input   59.86 | X-H torsion
[ 10167 10162 10161 10158 ] final  137.61 input  -65.29 | X-H torsion
[ 10718 10713 10712 10709 ] final  157.91 input   66.30 | X-H torsion
[ 10763 10752 10751 10750 ] final  120.70 input  -60.55 | X-H torsion
[ 11005 11000 10999 10996 ] final   60.33 input  -57.11 | X-H torsion

> <Gold.Protein.ActiveResidues>
 VAL166  LYS551  ARG553  GLY616  TRP617  ASP618  TYR619  PRO620  LYS621  CYS622 
 ASP623  PHE694  ASN695  SER759  ASP760  ASP761  ALA762  ILE779  LEU786  VAL792 
 PHE793  MET794  SER795  GLU796  ALA797  LYS798  CYS799  TRP800  GLU811  SER814 

> <Gold.Protein.RotatedAtoms>
  152.3154  134.7446  160.0326 H   0  0  0  0  0  0  0  0  0  0  0  0  # atno 6907 bound_to 6896
  151.7913  133.3354  159.3508 H   0  0  0  0  0  0  0  0  0  0  0  0  # atno 6908 bound_to 6896
  150.7341  134.5770  159.5964 H   0  0  0  0  0  0  0  0  0  0  0  0  # atno 6909 bound_to 6896
  145.9257  140.7794  142.9625 H   0  0  0  0  0  0  0  0  0  0  0  0  # atno 7974 bound_to 7965
  156.1587  140.1603  156.8648 H   0  0  0  0  0  0  0  0  0  0  0  0  # atno 8008 bound_to 7997
  154.5140  140.0794  156.8081 H   0  0  0  0  0  0  0  0  0  0  0  0  # atno 8009 bound_to 7997
  155.3750  140.3402  155.4247 H   0  0  0  0  0  0  0  0  0  0  0  0  # atno 8010 bound_to 7997
  139.5138  144.6400  151.5595 H   0  0  0  0  0  0  0  0  0  0  0  0  # atno 10167 bound_to 10162
  157.1850  131.0641  151.2111 H   0  0  0  0  0  0  0  0  0  0  0  0  # atno 10718 bound_to 10713
  153.6025  135.3445  155.2950 H   0  0  0  0  0  0  0  0  0  0  0  0  # atno 10763 bound_to 10752
  154.8633  135.4231  154.2397 H   0  0  0  0  0  0  0  0  0  0  0  0  # atno 10764 bound_to 10752
  153.3229  135.7039  153.7086 H   0  0  0  0  0  0  0  0  0  0  0  0  # atno 10765 bound_to 10752
  140.0239  134.6112  155.9600 H   0  0  0  0  0  0  0  0  0  0  0  0  # atno 11005 bound_to 11000
  144.6758  140.2047  143.7383 LP  0  0  0  0  0  0  0  0  0  0  0  0  # atno 17320 bound_to 7965
  145.8492  139.2167  143.1782 LP  0  0  0  0  0  0  0  0  0  0  0  0  # atno 17321 bound_to 7965
  140.6163  143.9342  150.6491 LP  0  0  0  0  0  0  0  0  0  0  0  0  # atno 17342 bound_to 10162
  140.2601  143.3530  152.1330 LP  0  0  0  0  0  0  0  0  0  0  0  0  # atno 17343 bound_to 10162
  157.3916  130.7285  149.6701 LP  0  0  0  0  0  0  0  0  0  0  0  0  # atno 17370 bound_to 10713
  155.9719  130.4145  150.4135 LP  0  0  0  0  0  0  0  0  0  0  0  0  # atno 17371 bound_to 10713
  141.1791  133.6544  156.4946 LP  0  0  0  0  0  0  0  0  0  0  0  0  # atno 17394 bound_to 11000
  140.4340  134.7076  157.4957 LP  0  0  0  0  0  0  0  0  0  0  0  0  # atno 17395 bound_to 11000

$$$$
