AV-unprocessed.smi:3071|AV-procd|sdf|11716|dock6
  -GOLD-   2272017113D 1   1.00000     0.00000
 Structure written by MMmdl.
 29 30  0  0  0  0  0  0  0  0  3 V2000
  144.3938  131.9906  150.7075 C   0  0  0  0  0  0  0  0  0  0  0  0
  144.6594  133.4321  151.0016 C   0  0  0  0  0  0  0  0  0  0  0  0
  143.7586  134.4187  150.9251 N   0  3  0  0  0  0  0  0  0  0  0  0
  144.3301  135.6142  151.2657 C   0  0  0  0  0  0  0  0  0  0  0  0
  145.6401  135.3456  151.5641 C   0  0  0  0  0  0  0  0  0  0  0  0
  145.8163  133.9957  151.3903 N   0  0  0  0  0  0  0  0  0  0  0  0
  147.0644  133.2464  151.5954 C   0  0  0  0  0  0  0  0  0  0  0  0
  147.4912  133.1838  153.0746 C   0  0  1  0  0  0  0  0  0  0  0  0
  148.6363  132.2129  153.3797 C   0  0  0  0  0  0  0  0  0  0  0  0
  149.2061  132.7629  154.6819 C   0  0  0  0  0  0  0  0  0  0  0  0
  149.0586  134.2786  154.5248 C   0  0  0  0  0  0  0  0  0  0  0  0
  147.9483  134.4962  153.5744 N   0  3  0  0  0  0  0  0  0  0  0  0
  143.3482  131.8733  150.4206 H   0  0  0  0  0  0  0  0  0  0  0  0
  144.5986  131.4054  151.6043 H   0  0  0  0  0  0  0  0  0  0  0  0
  145.0397  131.6719  149.8896 H   0  0  0  0  0  0  0  0  0  0  0  0
  143.7757  136.5417  151.2713 H   0  0  0  0  0  0  0  0  0  0  0  0
  146.4398  136.0008  151.8783 H   0  0  0  0  0  0  0  0  0  0  0  0
  146.9083  132.2400  151.2043 H   0  0  0  0  0  0  0  0  0  0  0  0
  147.8460  133.6982  150.9834 H   0  0  0  0  0  0  0  0  0  0  0  0
  146.6353  132.8985  153.6878 H   0  0  0  0  0  0  0  0  0  0  0  0
  148.3043  131.1778  153.4682 H   0  0  0  0  0  0  0  0  0  0  0  0
  149.3955  132.2597  152.5972 H   0  0  0  0  0  0  0  0  0  0  0  0
  148.6026  132.4165  155.5223 H   0  0  0  0  0  0  0  0  0  0  0  0
  150.2368  132.4539  154.8597 H   0  0  0  0  0  0  0  0  0  0  0  0
  148.8682  134.7741  155.4774 H   0  0  0  0  0  0  0  0  0  0  0  0
  149.9665  134.7072  154.0985 H   0  0  0  0  0  0  0  0  0  0  0  0
  148.2947  135.0488  152.8027 H   0  0  0  0  0  0  0  0  0  0  0  0
  147.1847  134.9829  154.0225 H   0  0  0  0  0  0  0  0  0  0  0  0
  142.7902  134.2949  150.6565 H   0  0  0  0  0  0  0  0  0  0  0  0
  1  2  1  0  0  0  0
  1 13  1  0  0  0  0
  1 14  1  0  0  0  0
  1 15  1  0  0  0  0
  2  6  1  0  0  0  0
  2  3  2  0  0  0  0
  3  4  1  0  0  0  0
  3 29  1  0  0  0  0
  4  5  2  0  0  0  0
  4 16  1  0  0  0  0
  5  6  1  0  0  0  0
  5 17  1  0  0  0  0
  6  7  1  0  0  0  0
  7  8  1  0  0  0  0
  7 18  1  0  0  0  0
  7 19  1  0  0  0  0
  8 12  1  0  0  0  0
  8  9  1  0  0  0  0
  8 20  1  0  0  0  0
  9 10  1  0  0  0  0
  9 21  1  0  0  0  0
  9 22  1  0  0  0  0
 10 11  1  0  0  0  0
 10 23  1  0  0  0  0
 10 24  1  0  0  0  0
 11 12  1  0  0  0  0
 11 25  1  0  0  0  0
 11 26  1  0  0  0  0
 12 27  1  0  0  0  0
 12 28  1  0  0  0  0
M  CHG  1   3   1
M  CHG  1  12   1
M  END
> <s_m_source_file>
AV-unprocessed.smi

> <i_m_source_file_index>
3071

> <i_lp_mmshare_version>
43012

> <i_f3d_flags>
0

> <s_epik_input>
W0NIM11jMW5bY0hdW2NIXW4xW0NIMl1bQ0BASF0yW0NIMl1bQ0gyXVtDSDJdW05IXTI=

> <s_epik_cmdline>
J2VwaWtfcHl0aG9uJywgJy1waCcsICc3LjAnLCAnLXRuJywgJzgnLCAnLW1hJywgJzIwMCcsICctbWV0YWxfYmluZGluZycsICctaW1hZScsICc8aW5maWxlLm1hZT4nLCAnLW9tYWUnLCAnPG91dGZpbGUubWFlPic=

> <r_lp_tautomer_probability>
1

> <r_epik_Ionization_Penalty>
0.770167

> <r_epik_Ionization_Penalty_Charging>
0.000985251

> <r_epik_Ionization_Penalty_Neutral>
0.769181

> <r_epik_State_Penalty>
0.493256

> <r_epik_Charging_Adjusted_Penalty>
0.494241

> <i_epik_Tot_Q>
2

> <i_epik_Tot_abs_Q>
2

> <r_epik_Metal_State_Penalty>
4.24699

> <b_epik_Metal_Only>
0

> <s_lp_Force_Field>
OPLS_2005

> <r_lp_Energy>
34.2931

> <b_lp_Chiralities_Consistent>
1

> <s_lp_Variant>
AV-unprocessed.smi:3071-4

> <Gold.Version>
5.8.1

> <Gold.Id.Protein>
6NUR|6NUR_protein|mol2

> <Gold.PLP.Fitness>
41.9374

> <Gold.PLP.PLP>
-27.1761

> <Gold.PLP.part.hbond>
-2.0000

> <Gold.PLP.part.metal>
0.0000

> <Gold.PLP.part.buried>
-2.7444

> <Gold.PLP.part.nonpolar>
-22.0129

> <Gold.PLP.part.repulsive>
0.0042

> <Gold.PLP.ligand.clash>
0.0000

> <Gold.PLP.ligand.torsion>
0.1195

> <Gold.PLP.Chemscore.Hbond>
4.0000

> <Gold.PLP.Chemscore.CHOScore>
1.0000

> <Gold.PLP.Chemscore.Metal>
0.0000

> <Gold.Chemscore.Hbonds>
donor molecule, donor type, donor heavy atom, donor atom, acceptor molecule, acceptor atom, score
      L1  H     3    29       P1 10186  1.69
      L1  H    12    27       P1  7948  2.00
      L1  C     5    17       P1  7948  1.00

> <Gold.PLP.Chemscore.Internal.Correction>
0.0004

> <Gold.Rescore>
     Score         DG    S(hbond)    S(metal)    S(lipo)     H(rot)  DE(clash)    DE(int)     intcor
     14.64     -14.79       1.95        0.00      51.08       1.25       0.01       0.14       ----

> <Gold.Chemscore.Fitness>
14.6437

> <Gold.Chemscore.DG>
-14.7876

> <Gold.Chemscore.ZeroCoef>
-5.4800

> <Gold.Chemscore.Hbond>
1.9538

> <Gold.Chemscore.Metal>
0.0000

> <Gold.Chemscore.Lipo>
51.0767

> <Gold.Chemscore.Internal_Hbond>
0.0000

> <Gold.Chemscore.DEClash>
0.0082

> <Gold.Chemscore.DEInternal>
0.1357

> <Gold.Chemscore.Rot>
1.2477

> <Gold.Chemscore.Internal.Correction>
   9.000000E+99

> <Gold.Chemscore.Hbonds>
donor molecule, donor type, donor heavy atom, donor atom, acceptor molecule, acceptor atom, score
      L1  H     3    29       P1 10186  0.45
      L1  H    12    27       P1  7948  0.81

> <Gold.Chemscore.Hbond.Weighted>
-6.5257

> <Gold.Chemscore.Metal.Weighted>
-0.0000

> <Gold.Chemscore.Lipo.Weighted>
-5.9760

> <Gold.Chemscore.Internal_Hbond.Weighted>
0.0000

> <Gold.Chemscore.DEClash.Weighted>
0.0082

> <Gold.Chemscore.DEInternal.Weighted>
0.1357

> <Gold.Chemscore.Rot.Weighted>
3.1941

> <Gold.Chemscore.Internal.Correction.Weighted>
   9.000000E+99

> <Gold.Protein.RotatedTorsions>
[ 6907 6896 6895 6894 ] final  -88.51 input  -60.11 | X-H torsion
[ 7974 7965 7964 7962 ] final -137.10 input  175.53 | X-H torsion
[ 8008 7997 7996 7995 ] final   15.98 input   59.86 | X-H torsion
[ 10167 10162 10161 10158 ] final  134.64 input  -65.29 | X-H torsion
[ 10718 10713 10712 10709 ] final   93.00 input   66.30 | X-H torsion
[ 10763 10752 10751 10750 ] final -158.28 input  -60.55 | X-H torsion
[ 11005 11000 10999 10996 ] final  106.91 input  -57.11 | X-H torsion

> <Gold.Protein.ActiveResidues>
 VAL166  LYS551  ARG553  GLY616  TRP617  ASP618  TYR619  PRO620  LYS621  CYS622 
 ASP623  PHE694  ASN695  SER759  ASP760  ASP761  ALA762  ILE779  LEU786  VAL792 
 PHE793  MET794  SER795  GLU796  ALA797  LYS798  CYS799  TRP800  GLU811  SER814 

> <Gold.Protein.RotatedAtoms>
  150.6869  134.2730  159.4595 H   0  0  0  0  0  0  0  0  0  0  0  0  # atno 6907 bound_to 6896
  152.0650  134.9567  160.0584 H   0  0  0  0  0  0  0  0  0  0  0  0  # atno 6908 bound_to 6896
  152.0979  133.4200  159.4610 H   0  0  0  0  0  0  0  0  0  0  0  0  # atno 6909 bound_to 6896
  144.8870  140.6589  143.5169 H   0  0  0  0  0  0  0  0  0  0  0  0  # atno 7974 bound_to 7965
  154.8704  140.2958  155.5485 H   0  0  0  0  0  0  0  0  0  0  0  0  # atno 8008 bound_to 7997
  156.3021  140.2461  156.3625 H   0  0  0  0  0  0  0  0  0  0  0  0  # atno 8009 bound_to 7997
  154.8823  140.0397  157.1779 H   0  0  0  0  0  0  0  0  0  0  0  0  # atno 8010 bound_to 7997
  139.5248  144.6557  151.5169 H   0  0  0  0  0  0  0  0  0  0  0  0  # atno 10167 bound_to 10162
  157.6956  131.0463  150.3968 H   0  0  0  0  0  0  0  0  0  0  0  0  # atno 10718 bound_to 10713
  154.7569  135.3107  154.8452 H   0  0  0  0  0  0  0  0  0  0  0  0  # atno 10763 bound_to 10752
  153.9223  135.6794  153.4751 H   0  0  0  0  0  0  0  0  0  0  0  0  # atno 10764 bound_to 10752
  153.1167  135.4841  154.9058 H   0  0  0  0  0  0  0  0  0  0  0  0  # atno 10765 bound_to 10752
  139.8820  134.9384  156.5739 H   0  0  0  0  0  0  0  0  0  0  0  0  # atno 11005 bound_to 11000
  145.3850  139.1628  143.4260 LP  0  0  0  0  0  0  0  0  0  0  0  0  # atno 17320 bound_to 7965
  146.3031  140.3934  142.8697 LP  0  0  0  0  0  0  0  0  0  0  0  0  # atno 17321 bound_to 7965
  140.6381  143.8943  150.6666 LP  0  0  0  0  0  0  0  0  0  0  0  0  # atno 17342 bound_to 10162
  140.2269  143.3766  152.1598 LP  0  0  0  0  0  0  0  0  0  0  0  0  # atno 17343 bound_to 10162
  156.4365  130.3983  149.6725 LP  0  0  0  0  0  0  0  0  0  0  0  0  # atno 17370 bound_to 10713
  156.3924  130.7634  151.2636 LP  0  0  0  0  0  0  0  0  0  0  0  0  # atno 17371 bound_to 10713
  140.8078  133.8454  155.8783 LP  0  0  0  0  0  0  0  0  0  0  0  0  # atno 17394 bound_to 11000
  140.9534  134.1749  157.4710 LP  0  0  0  0  0  0  0  0  0  0  0  0  # atno 17395 bound_to 11000

$$$$
