AV-unprocessed.smi:1912|AV-procd|sdf|7750|dock3
  -GOLD-   22720 9493D 1   1.00000     0.00000
 Structure written by MMmdl.
 44 46  0  0  0  0  0  0  0  0  2 V2000
  150.3718  145.1741  159.8702 C   0  0  0  0  0  0  0  0  0  0  0  0
  151.7618  144.8846  159.8973 O   0  0  0  0  0  0  0  0  0  0  0  0
  152.1677  143.6173  159.5389 C   0  0  0  0  0  0  0  0  0  0  0  0
  153.3487  142.9965  160.0082 C   0  0  0  0  0  0  0  0  0  0  0  0
  153.6808  141.6928  159.5968 C   0  0  0  0  0  0  0  0  0  0  0  0
  152.8445  140.9768  158.7047 C   0  0  0  0  0  0  0  0  0  0  0  0
  153.1113  139.6882  158.2877 O   0  0  0  0  0  0  0  0  0  0  0  0
  153.8167  138.8247  159.1662 C   0  0  0  0  0  0  0  0  0  0  0  0
  151.6658  141.5998  158.2248 C   0  0  0  0  0  0  0  0  0  0  0  0
  150.7205  140.8532  157.2839 C   0  0  2  0  0  0  0  0  0  0  0  0
  150.1565  139.7025  157.8803 O   0  0  0  0  0  0  0  0  0  0  0  0
  151.4117  140.4184  155.9743 C   0  0  0  0  0  0  0  0  0  0  0  0
  150.5492  139.5737  155.1327 N   0  0  0  0  0  0  0  0  0  0  0  0
  150.7177  138.2820  154.7303 C   0  0  0  0  0  0  0  0  0  0  0  0
  151.8717  137.3925  155.0492 C   0  0  0  0  0  0  0  0  0  0  0  0
  149.6258  137.9433  153.9889 N   0  3  0  0  0  0  0  0  0  0  0  0
  148.7498  139.0269  153.9164 C   0  0  0  0  0  0  0  0  0  0  0  0
  147.5159  139.1587  153.2871 C   0  0  0  0  0  0  0  0  0  0  0  0
  146.8703  140.4060  153.4152 C   0  0  0  0  0  0  0  0  0  0  0  0
  147.4538  141.4631  154.1427 C   0  0  0  0  0  0  0  0  0  0  0  0
  148.7077  141.3192  154.7717 C   0  0  0  0  0  0  0  0  0  0  0  0
  149.3384  140.0814  154.6446 C   0  0  0  0  0  0  0  0  0  0  0  0
  151.3395  142.9067  158.6502 C   0  0  0  0  0  0  0  0  0  0  0  0
  150.2141  146.2070  160.1808 H   0  0  0  0  0  0  0  0  0  0  0  0
  149.8179  144.5343  160.5587 H   0  0  0  0  0  0  0  0  0  0  0  0
  149.9612  145.0658  158.8655 H   0  0  0  0  0  0  0  0  0  0  0  0
  154.0179  143.4989  160.6900 H   0  0  0  0  0  0  0  0  0  0  0  0
  154.5901  141.2617  159.9867 H   0  0  0  0  0  0  0  0  0  0  0  0
  153.8881  137.8353  158.7146 H   0  0  0  0  0  0  0  0  0  0  0  0
  153.2967  138.7142  160.1190 H   0  0  0  0  0  0  0  0  0  0  0  0
  154.8323  139.1799  159.3450 H   0  0  0  0  0  0  0  0  0  0  0  0
  149.8731  141.4948  157.0428 H   0  0  0  0  0  0  0  0  0  0  0  0
  149.9160  139.0973  157.1952 H   0  0  0  0  0  0  0  0  0  0  0  0
  151.7619  141.2765  155.4003 H   0  0  0  0  0  0  0  0  0  0  0  0
  152.2993  139.8272  156.2037 H   0  0  0  0  0  0  0  0  0  0  0  0
  151.7544  136.4236  154.5633 H   0  0  0  0  0  0  0  0  0  0  0  0
  151.9390  137.2347  156.1257 H   0  0  0  0  0  0  0  0  0  0  0  0
  152.8020  137.8428  154.7029 H   0  0  0  0  0  0  0  0  0  0  0  0
  147.0665  138.3499  152.7298 H   0  0  0  0  0  0  0  0  0  0  0  0
  145.9082  140.5545  152.9468 H   0  0  0  0  0  0  0  0  0  0  0  0
  146.9290  142.4040  154.2221 H   0  0  0  0  0  0  0  0  0  0  0  0
  149.1398  142.1355  155.3309 H   0  0  0  0  0  0  0  0  0  0  0  0
  150.4318  143.3759  158.2996 H   0  0  0  0  0  0  0  0  0  0  0  0
  149.4898  137.0336  153.5673 H   0  0  0  0  0  0  0  0  0  0  0  0
  1  2  1  0  0  0  0
  1 24  1  0  0  0  0
  1 25  1  0  0  0  0
  1 26  1  0  0  0  0
  2  3  1  0  0  0  0
  3 23  1  0  0  0  0
  3  4  2  0  0  0  0
  4  5  1  0  0  0  0
  4 27  1  0  0  0  0
  5  6  2  0  0  0  0
  5 28  1  0  0  0  0
  6  7  1  0  0  0  0
  6  9  1  0  0  0  0
  7  8  1  0  0  0  0
  8 29  1  0  0  0  0
  8 30  1  0  0  0  0
  8 31  1  0  0  0  0
  9 10  1  0  0  0  0
  9 23  2  0  0  0  0
 10 11  1  0  0  0  0
 10 12  1  0  0  0  0
 10 32  1  0  0  0  0
 11 33  1  0  0  0  0
 12 13  1  0  0  0  0
 12 34  1  0  0  0  0
 12 35  1  0  0  0  0
 13 22  1  0  0  0  0
 13 14  1  0  0  0  0
 14 15  1  0  0  0  0
 14 16  2  0  0  0  0
 15 36  1  0  0  0  0
 15 37  1  0  0  0  0
 15 38  1  0  0  0  0
 16 17  1  0  0  0  0
 16 44  1  0  0  0  0
 17 22  2  0  0  0  0
 17 18  1  0  0  0  0
 18 19  2  0  0  0  0
 18 39  1  0  0  0  0
 19 20  1  0  0  0  0
 19 40  1  0  0  0  0
 20 21  2  0  0  0  0
 20 41  1  0  0  0  0
 21 22  1  0  0  0  0
 21 42  1  0  0  0  0
 23 43  1  0  0  0  0
M  CHG  1  16   1
M  END
> <s_m_source_file>
AV-unprocessed.smi

> <i_m_source_file_index>
1912

> <i_lp_mmshare_version>
43012

> <i_f3d_flags>
0

> <s_epik_input>
W0NIM11PYzFbY0hdW2NIXWMoT1tDSDNdKWMoW2NIXTEpW0NASF0oW09IXSlbQ0gyXW4oYyhuMilbQ0gzXSljKGMyMylbY0hdW2NIXVtjSF1bY0hdMw==

> <s_epik_cmdline>
J2VwaWtfcHl0aG9uJywgJy1waCcsICc3LjAnLCAnLXRuJywgJzgnLCAnLW1hJywgJzIwMCcsICctbWV0YWxfYmluZGluZycsICctaW1hZScsICc8aW5maWxlLm1hZT4nLCAnLW9tYWUnLCAnPG91dGZpbGUubWFlPic=

> <r_lp_tautomer_probability>
1

> <r_epik_Ionization_Penalty>
0.963869

> <r_epik_Ionization_Penalty_Charging>
0.963868

> <r_epik_Ionization_Penalty_Neutral>
1.34362e-06

> <r_epik_State_Penalty>
1.00924

> <r_epik_Charging_Adjusted_Penalty>
1.9731

> <i_epik_Tot_Q>
1

> <i_epik_Tot_abs_Q>
1

> <r_epik_Metal_State_Penalty>
4.98304

> <b_epik_Metal_Only>
0

> <s_lp_Force_Field>
OPLS_2005

> <r_lp_Energy>
21.5299

> <b_lp_Chiralities_Consistent>
1

> <s_lp_Variant>
AV-unprocessed.smi:1912-3

> <Gold.Version>
5.8.1

> <Gold.Id.Protein>
6NUR|6NUR_protein|mol2

> <Gold.PLP.Fitness>
56.6602

> <Gold.PLP.PLP>
-49.2213

> <Gold.PLP.part.hbond>
-2.8896

> <Gold.PLP.part.metal>
0.0000

> <Gold.PLP.part.buried>
0.0823

> <Gold.PLP.part.nonpolar>
-45.8724

> <Gold.PLP.part.repulsive>
0.1385

> <Gold.PLP.ligand.clash>
0.0000

> <Gold.PLP.ligand.torsion>
0.8051

> <Gold.PLP.Chemscore.Hbond>
3.0000

> <Gold.PLP.Chemscore.CHOScore>
0.0000

> <Gold.PLP.Chemscore.Metal>
0.0000

> <Gold.Chemscore.Hbonds>
donor molecule, donor type, donor heavy atom, donor atom, acceptor molecule, acceptor atom, score
      L1  H    16    44       P1  7948  1.60
      P1  H  7997  8008       L1     7  1.00

> <Gold.PLP.Chemscore.Internal.Correction>
0.0491

> <Gold.Rescore>
     Score         DG    S(hbond)    S(metal)    S(lipo)     H(rot)  DE(clash)    DE(int)     intcor
     17.51     -18.69       0.95        0.00     134.83       2.24       0.26       0.91       ----

> <Gold.Chemscore.Fitness>
17.5091

> <Gold.Chemscore.DG>
-18.6863

> <Gold.Chemscore.ZeroCoef>
-5.4800

> <Gold.Chemscore.Hbond>
0.9516

> <Gold.Chemscore.Metal>
0.0000

> <Gold.Chemscore.Lipo>
134.8261

> <Gold.Chemscore.Internal_Hbond>
0.0000

> <Gold.Chemscore.DEClash>
0.2625

> <Gold.Chemscore.DEInternal>
0.9147

> <Gold.Chemscore.Rot>
2.2448

> <Gold.Chemscore.Internal.Correction>
   9.000000E+99

> <Gold.Chemscore.Hbonds>
donor molecule, donor type, donor heavy atom, donor atom, acceptor molecule, acceptor atom, score
      L1  H    16    44       P1  7948  0.70
      P1  H  7997  8008       L1     7  0.10

> <Gold.Chemscore.Hbond.Weighted>
-3.1784

> <Gold.Chemscore.Metal.Weighted>
-0.0000

> <Gold.Chemscore.Lipo.Weighted>
-15.7747

> <Gold.Chemscore.Internal_Hbond.Weighted>
0.0000

> <Gold.Chemscore.DEClash.Weighted>
0.2625

> <Gold.Chemscore.DEInternal.Weighted>
0.9147

> <Gold.Chemscore.Rot.Weighted>
5.7467

> <Gold.Chemscore.Internal.Correction.Weighted>
   9.000000E+99

> <Gold.Protein.RotatedTorsions>
[ 6907 6896 6895 6894 ] final -179.01 input  -60.11 | X-H torsion
[ 7974 7965 7964 7962 ] final -158.44 input  175.53 | X-H torsion
[ 8008 7997 7996 7995 ] final  -68.73 input   59.86 | X-H torsion
[ 10167 10162 10161 10158 ] final   24.16 input  -65.29 | X-H torsion
[ 10718 10713 10712 10709 ] final  -40.92 input   66.30 | X-H torsion
[ 10763 10752 10751 10750 ] final -149.37 input  -60.55 | X-H torsion
[ 11005 11000 10999 10996 ] final  -69.56 input  -57.11 | X-H torsion

> <Gold.Protein.ActiveResidues>
 VAL166  LYS551  ARG553  GLY616  TRP617  ASP618  TYR619  PRO620  LYS621  CYS622 
 ASP623  PHE694  ASN695  SER759  ASP760  ASP761  ALA762  ILE779  LEU786  VAL792 
 PHE793  MET794  SER795  GLU796  ALA797  LYS798  CYS799  TRP800  GLU811  SER814 

> <Gold.Protein.RotatedAtoms>
  151.6464  133.3323  159.3141 H   0  0  0  0  0  0  0  0  0  0  0  0  # atno 6907 bound_to 6896
  150.7982  134.7061  159.6586 H   0  0  0  0  0  0  0  0  0  0  0  0  # atno 6908 bound_to 6896
  152.4071  134.6192  160.0097 H   0  0  0  0  0  0  0  0  0  0  0  0  # atno 6909 bound_to 6896
  144.7505  140.3827  143.6051 H   0  0  0  0  0  0  0  0  0  0  0  0  # atno 7974 bound_to 7965
  154.4888  140.0867  156.7548 H   0  0  0  0  0  0  0  0  0  0  0  0  # atno 8008 bound_to 7997
  155.4281  140.3448  155.4259 H   0  0  0  0  0  0  0  0  0  0  0  0  # atno 8009 bound_to 7997
  156.1301  140.1499  156.9066 H   0  0  0  0  0  0  0  0  0  0  0  0  # atno 8010 bound_to 7997
  140.5211  144.0001  150.6417 H   0  0  0  0  0  0  0  0  0  0  0  0  # atno 10167 bound_to 10162
  156.2761  130.4212  149.8386 H   0  0  0  0  0  0  0  0  0  0  0  0  # atno 10718 bound_to 10713
  154.8181  135.3311  154.7117 H   0  0  0  0  0  0  0  0  0  0  0  0  # atno 10763 bound_to 10752
  153.7755  135.6922  153.4903 H   0  0  0  0  0  0  0  0  0  0  0  0  # atno 10764 bound_to 10752
  153.2016  135.4514  155.0221 H   0  0  0  0  0  0  0  0  0  0  0  0  # atno 10765 bound_to 10752
  141.1556  133.6767  156.6618 H   0  0  0  0  0  0  0  0  0  0  0  0  # atno 11005 bound_to 11000
  145.6960  139.1650  143.2620 LP  0  0  0  0  0  0  0  0  0  0  0  0  # atno 17320 bound_to 7965
  146.1449  140.7006  142.9349 LP  0  0  0  0  0  0  0  0  0  0  0  0  # atno 17321 bound_to 7965
  140.3350  143.3054  152.0647 LP  0  0  0  0  0  0  0  0  0  0  0  0  # atno 17342 bound_to 10162
  139.4923  144.6482  151.6732 LP  0  0  0  0  0  0  0  0  0  0  0  0  # atno 17343 bound_to 10162
  156.5851  130.8482  151.3393 LP  0  0  0  0  0  0  0  0  0  0  0  0  # atno 17370 bound_to 10713
  157.7299  130.9678  150.1810 LP  0  0  0  0  0  0  0  0  0  0  0  0  # atno 17371 bound_to 10713
  140.3242  134.7983  157.4276 LP  0  0  0  0  0  0  0  0  0  0  0  0  # atno 17394 bound_to 11000
  140.1071  134.5395  155.8299 LP  0  0  0  0  0  0  0  0  0  0  0  0  # atno 17395 bound_to 11000

$$$$
