AV-unprocessed.smi:193|AV-procd|sdf|1509|dock1
  -GOLD-   2262019343D 1   1.00000     0.00000
 Structure written by MMmdl.
 62 66  0  0  0  0  0  0  0  0  2 V2000
  146.7868  135.3277  155.9919 C   0  0  0  0  0  0  0  0  0  0  0  0
  146.4609  136.0578  154.6797 C   0  0  1  0  0  0  0  0  0  0  0  0
  147.4383  137.2275  154.4508 C   0  0  0  0  0  0  0  0  0  0  0  0
  146.8264  138.3080  153.6736 N   0  0  0  0  0  0  0  0  0  0  0  0
  147.2665  139.5636  153.9343 C   0  0  0  0  0  0  0  0  0  0  0  0
  146.4664  140.6322  153.6756 N   0  0  0  0  0  0  0  0  0  0  0  0
  146.8892  141.8700  153.9512 C   0  0  0  0  0  0  0  0  0  0  0  0
  148.0515  142.2563  154.4818 N   0  0  0  0  0  0  0  0  0  0  0  0
  148.8563  141.1867  154.7436 C   0  0  0  0  0  0  0  0  0  0  0  0
  148.5447  139.8197  154.5016 C   0  0  0  0  0  0  0  0  0  0  0  0
  149.6084  139.0129  154.8864 N   0  0  0  0  0  0  0  0  0  0  0  0
  150.4969  139.8556  155.3383 C   0  0  0  0  0  0  0  0  0  0  0  0
  150.1239  141.1805  155.2987 N   0  0  0  0  0  0  0  0  0  0  0  0
  150.9129  142.3189  155.7439 C   0  0  0  0  0  0  0  0  0  0  0  0
  150.9138  142.5166  157.2799 C   0  0  0  0  0  0  0  0  0  0  0  0
  149.5689  142.6899  157.6932 O   0  0  0  0  0  0  0  0  0  0  0  0
  151.4797  141.2673  157.9837 C   0  0  0  0  0  0  0  0  0  0  0  0
  151.6539  141.4837  159.4975 C   0  0  0  0  0  0  0  0  0  0  0  0
  152.4718  142.6229  159.7347 O   0  0  0  0  0  0  0  0  0  0  0  0
  151.8929  143.8273  159.2473 C   0  0  0  0  0  0  0  0  0  0  0  0
  151.7241  143.7561  157.7191 C   0  0  0  0  0  0  0  0  0  0  0  0
  146.5143  138.1002  152.2606 C   0  0  0  0  0  0  0  0  0  0  0  0
  145.6394  136.8662  151.9945 C   0  0  0  0  0  0  0  0  0  0  0  0
  146.4336  135.6247  152.1499 N   0  3  2  0  0  0  0  0  0  0  0  0
  146.1085  134.6109  151.1217 C   0  0  1  0  0  0  0  0  0  0  0  0
  146.6213  133.2297  151.4567 C   0  0  0  0  0  0  0  0  0  0  0  0
  145.1470  133.5437  151.5959 C   0  0  2  0  0  0  0  0  0  0  0  0
  144.1446  132.9305  150.6432 C   0  0  0  0  0  0  0  0  0  0  0  0
  146.4206  135.0398  153.5160 C   0  0  0  0  0  0  0  0  0  0  0  0
  147.7910  134.9030  155.9726 H   0  0  0  0  0  0  0  0  0  0  0  0
  146.0840  134.5143  156.1754 H   0  0  0  0  0  0  0  0  0  0  0  0
  146.7296  136.0055  156.8442 H   0  0  0  0  0  0  0  0  0  0  0  0
  145.4617  136.4769  154.8096 H   0  0  0  0  0  0  0  0  0  0  0  0
  147.7315  137.6245  155.4241 H   0  0  0  0  0  0  0  0  0  0  0  0
  148.3540  136.8831  153.9683 H   0  0  0  0  0  0  0  0  0  0  0  0
  146.1963  142.6646  153.7161 H   0  0  0  0  0  0  0  0  0  0  0  0
  151.4539  139.5326  155.7219 H   0  0  0  0  0  0  0  0  0  0  0  0
  151.9324  142.1886  155.3783 H   0  0  0  0  0  0  0  0  0  0  0  0
  150.5272  143.2124  155.2512 H   0  0  0  0  0  0  0  0  0  0  0  0
  149.1593  143.3222  157.1226 H   0  0  0  0  0  0  0  0  0  0  0  0
  150.8410  140.4025  157.8006 H   0  0  0  0  0  0  0  0  0  0  0  0
  152.4532  141.0227  157.5569 H   0  0  0  0  0  0  0  0  0  0  0  0
  150.6890  141.6043  159.9924 H   0  0  0  0  0  0  0  0  0  0  0  0
  152.1298  140.6114  159.9456 H   0  0  0  0  0  0  0  0  0  0  0  0
  150.9370  144.0101  159.7405 H   0  0  0  0  0  0  0  0  0  0  0  0
  152.5459  144.6598  159.5098 H   0  0  0  0  0  0  0  0  0  0  0  0
  152.7144  143.7168  157.2637 H   0  0  0  0  0  0  0  0  0  0  0  0
  151.2579  144.6744  157.3600 H   0  0  0  0  0  0  0  0  0  0  0  0
  145.9899  138.9726  151.8697 H   0  0  0  0  0  0  0  0  0  0  0  0
  147.4444  138.0296  151.6945 H   0  0  0  0  0  0  0  0  0  0  0  0
  144.7383  136.8543  152.6090 H   0  0  0  0  0  0  0  0  0  0  0  0
  145.2917  136.9381  150.9629 H   0  0  0  0  0  0  0  0  0  0  0  0
  146.0914  134.9573  150.0895 H   0  0  0  0  0  0  0  0  0  0  0  0
  146.9262  132.5949  150.6270 H   0  0  0  0  0  0  0  0  0  0  0  0
  147.1946  133.1006  152.3731 H   0  0  0  0  0  0  0  0  0  0  0  0
  144.7763  133.6347  152.6157 H   0  0  0  0  0  0  0  0  0  0  0  0
  144.5643  132.8445  149.6404 H   0  0  0  0  0  0  0  0  0  0  0  0
  143.2492  133.5499  150.5932 H   0  0  0  0  0  0  0  0  0  0  0  0
  143.8615  131.9358  150.9876 H   0  0  0  0  0  0  0  0  0  0  0  0
  147.2751  134.3658  153.5876 H   0  0  0  0  0  0  0  0  0  0  0  0
  145.5314  134.4177  153.6305 H   0  0  0  0  0  0  0  0  0  0  0  0
  147.3892  135.8990  151.9705 H   0  0  0  0  0  0  0  0  0  0  0  0
  1  2  1  0  0  0  0
  1 30  1  0  0  0  0
  1 31  1  0  0  0  0
  1 32  1  0  0  0  0
  2 29  1  0  0  0  0
  2  3  1  0  0  0  0
  2 33  1  0  0  0  0
  3  4  1  0  0  0  0
  3 34  1  0  0  0  0
  3 35  1  0  0  0  0
  4  5  1  0  0  0  0
  4 22  1  0  0  0  0
  5 10  1  0  0  0  0
  5  6  2  0  0  0  0
  6  7  1  0  0  0  0
  7  8  2  0  0  0  0
  7 36  1  0  0  0  0
  8  9  1  0  0  0  0
  9 13  1  0  0  0  0
  9 10  2  0  0  0  0
 10 11  1  0  0  0  0
 11 12  2  0  0  0  0
 12 13  1  0  0  0  0
 12 37  1  0  0  0  0
 13 14  1  0  0  0  0
 14 15  1  0  0  0  0
 14 38  1  0  0  0  0
 14 39  1  0  0  0  0
 15 21  1  0  0  0  0
 15 16  1  0  0  0  0
 15 17  1  0  0  0  0
 16 40  1  0  0  0  0
 17 18  1  0  0  0  0
 17 41  1  0  0  0  0
 17 42  1  0  0  0  0
 18 19  1  0  0  0  0
 18 43  1  0  0  0  0
 18 44  1  0  0  0  0
 19 20  1  0  0  0  0
 20 21  1  0  0  0  0
 20 45  1  0  0  0  0
 20 46  1  0  0  0  0
 21 47  1  0  0  0  0
 21 48  1  0  0  0  0
 22 23  1  0  0  0  0
 22 49  1  0  0  0  0
 22 50  1  0  0  0  0
 23 24  1  0  0  0  0
 23 51  1  0  0  0  0
 23 52  1  0  0  0  0
 24 25  1  0  0  0  0
 24 29  1  0  0  0  0
 24 62  1  0  0  0  0
 25 27  1  0  0  0  0
 25 26  1  0  0  0  0
 25 53  1  0  0  0  0
 26 27  1  0  0  0  0
 26 54  1  0  0  0  0
 26 55  1  0  0  0  0
 27 28  1  0  0  0  0
 27 56  1  0  0  0  0
 28 57  1  0  0  0  0
 28 58  1  0  0  0  0
 28 59  1  0  0  0  0
 29 60  1  0  0  0  0
 29 61  1  0  0  0  0
M  CHG  1  24   1
M  END
> <s_m_source_file>
AV-unprocessed.smi

> <i_m_source_file_index>
193

> <i_lp_mmshare_version>
43012

> <i_f3d_flags>
0

> <s_epik_input>
W0NIM11bQ0BASF0xW0NIMl1bQ0BIXTFOKFtDSDJdMilbQ0gyXVtDSDJdTihbQ0gyXVtDQEhdMltDSDNdKWMobltjSF1uMyljKGMzNCluW2NIXW40W0NIMl1DNShbT0hdKVtDSDJdW0NIMl1PW0NIMl1bQ0gyXTU=

> <s_epik_cmdline>
J2VwaWtfcHl0aG9uJywgJy1waCcsICc3LjAnLCAnLXRuJywgJzgnLCAnLW1hJywgJzIwMCcsICctbWV0YWxfYmluZGluZycsICctaW1hZScsICc8aW5maWxlLm1hZT4nLCAnLW9tYWUnLCAnPG91dGZpbGUubWFlPic=

> <r_lp_tautomer_probability>
1

> <r_epik_Ionization_Penalty>
0.0540825

> <r_epik_Ionization_Penalty_Charging>
0.0538476

> <r_epik_Ionization_Penalty_Neutral>
0.000234891

> <r_epik_State_Penalty>
0.0200719

> <r_epik_Charging_Adjusted_Penalty>
0.0739194

> <i_epik_Tot_Q>
1

> <i_epik_Tot_abs_Q>
1

> <r_epik_Metal_State_Penalty>
0.0199414

> <b_epik_Metal_Only>
0

> <s_lp_Force_Field>
OPLS_2005

> <r_lp_Energy>
55.1026

> <b_lp_Chiralities_Consistent>
1

> <s_lp_Variant>
AV-unprocessed.smi:193-14

> <Gold.Version>
5.8.1

> <Gold.Id.Protein>
6NUR|6NUR_protein|mol2

> <Gold.PLP.Fitness>
50.0683

> <Gold.PLP.PLP>
-41.8020

> <Gold.PLP.part.hbond>
-2.1113

> <Gold.PLP.part.metal>
0.0000

> <Gold.PLP.part.buried>
-4.3156

> <Gold.PLP.part.nonpolar>
-38.3828

> <Gold.PLP.part.repulsive>
3.3843

> <Gold.PLP.ligand.clash>
0.1331

> <Gold.PLP.ligand.torsion>
1.2332

> <Gold.PLP.Chemscore.Hbond>
2.9913

> <Gold.PLP.Chemscore.CHOScore>
0.0000

> <Gold.PLP.Chemscore.Metal>
0.0000

> <Gold.Chemscore.Hbonds>
donor molecule, donor type, donor heavy atom, donor atom, acceptor molecule, acceptor atom, score
      L1  H    16    40       P1  8028  0.99
      L1  H    24    62       P1  7948  2.00

> <Gold.PLP.Chemscore.Internal.Correction>
1.8921

> <Gold.Rescore>
     Score         DG    S(hbond)    S(metal)    S(lipo)     H(rot)  DE(clash)    DE(int)     intcor
     12.96     -18.34       1.86        0.00     105.09       2.20       2.77       2.61       ----

> <Gold.Chemscore.Fitness>
12.9558

> <Gold.Chemscore.DG>
-18.3381

> <Gold.Chemscore.ZeroCoef>
-5.4800

> <Gold.Chemscore.Hbond>
1.8561

> <Gold.Chemscore.Metal>
0.0000

> <Gold.Chemscore.Lipo>
105.0885

> <Gold.Chemscore.Internal_Hbond>
0.0000

> <Gold.Chemscore.DEClash>
2.7732

> <Gold.Chemscore.DEInternal>
2.6090

> <Gold.Chemscore.Rot>
2.2018

> <Gold.Chemscore.Internal.Correction>
   9.000000E+99

> <Gold.Chemscore.Hbonds>
donor molecule, donor type, donor heavy atom, donor atom, acceptor molecule, acceptor atom, score
      L1  H    16    40       P1  8028  0.72
      L1  H    24    62       P1  7948  0.97

> <Gold.Chemscore.Hbond.Weighted>
-6.1993

> <Gold.Chemscore.Metal.Weighted>
-0.0000

> <Gold.Chemscore.Lipo.Weighted>
-12.2954

> <Gold.Chemscore.Internal_Hbond.Weighted>
0.0000

> <Gold.Chemscore.DEClash.Weighted>
2.7732

> <Gold.Chemscore.DEInternal.Weighted>
2.6090

> <Gold.Chemscore.Rot.Weighted>
5.6366

> <Gold.Chemscore.Internal.Correction.Weighted>
   9.000000E+99

> <Gold.Protein.RotatedTorsions>
[ 6907 6896 6895 6894 ] final  111.65 input  -60.11 | X-H torsion
[ 7974 7965 7964 7962 ] final  -35.81 input  175.53 | X-H torsion
[ 8008 7997 7996 7995 ] final    7.55 input   59.86 | X-H torsion
[ 10167 10162 10161 10158 ] final  109.96 input  -65.29 | X-H torsion
[ 10718 10713 10712 10709 ] final  -87.32 input   66.30 | X-H torsion
[ 10763 10752 10751 10750 ] final  102.10 input  -60.55 | X-H torsion
[ 11005 11000 10999 10996 ] final  -86.51 input  -57.11 | X-H torsion

> <Gold.Protein.ActiveResidues>
 VAL166  LYS551  ARG553  GLY616  TRP617  ASP618  TYR619  PRO620  LYS621  CYS622 
 ASP623  PHE694  ASN695  SER759  ASP760  ASP761  ALA762  ILE779  LEU786  VAL792 
 PHE793  MET794  SER795  GLU796  ALA797  LYS798  CYS799  TRP800  GLU811  SER814 

> <Gold.Protein.RotatedAtoms>
  152.4958  133.8627  159.7257 H   0  0  0  0  0  0  0  0  0  0  0  0  # atno 6907 bound_to 6896
  150.9134  133.6960  159.2856 H   0  0  0  0  0  0  0  0  0  0  0  0  # atno 6908 bound_to 6896
  151.4361  135.1019  159.9709 H   0  0  0  0  0  0  0  0  0  0  0  0  # atno 6909 bound_to 6896
  146.0714  140.6204  142.8950 H   0  0  0  0  0  0  0  0  0  0  0  0  # atno 7974 bound_to 7965
  154.7553  140.2774  155.6259 H   0  0  0  0  0  0  0  0  0  0  0  0  # atno 8008 bound_to 7997
  156.2904  140.2670  156.2244 H   0  0  0  0  0  0  0  0  0  0  0  0  # atno 8009 bound_to 7997
  155.0086  140.0372  157.2379 H   0  0  0  0  0  0  0  0  0  0  0  0  # atno 8010 bound_to 7997
  139.6726  144.7124  151.1661 H   0  0  0  0  0  0  0  0  0  0  0  0  # atno 10167 bound_to 10162
  155.9986  130.4796  150.4849 H   0  0  0  0  0  0  0  0  0  0  0  0  # atno 10718 bound_to 10713
  153.3352  135.4022  155.1527 H   0  0  0  0  0  0  0  0  0  0  0  0  # atno 10763 bound_to 10752
  154.8632  135.3620  154.5418 H   0  0  0  0  0  0  0  0  0  0  0  0  # atno 10764 bound_to 10752
  153.5859  135.7075  153.5503 H   0  0  0  0  0  0  0  0  0  0  0  0  # atno 10765 bound_to 10752
  141.1629  133.7458  156.9171 H   0  0  0  0  0  0  0  0  0  0  0  0  # atno 11005 bound_to 11000
  144.7234  140.4448  143.6991 LP  0  0  0  0  0  0  0  0  0  0  0  0  # atno 17320 bound_to 7965
  145.6384  139.1546  143.2930 LP  0  0  0  0  0  0  0  0  0  0  0  0  # atno 17321 bound_to 7965
  140.7623  143.5821  150.8884 LP  0  0  0  0  0  0  0  0  0  0  0  0  # atno 17342 bound_to 10162
  139.9488  143.6296  152.3034 LP  0  0  0  0  0  0  0  0  0  0  0  0  # atno 17343 bound_to 10162
  157.2850  131.0615  151.2172 LP  0  0  0  0  0  0  0  0  0  0  0  0  # atno 17370 bound_to 10713
  157.3205  130.6934  149.6266 LP  0  0  0  0  0  0  0  0  0  0  0  0  # atno 17371 bound_to 10713
  140.1477  134.9251  157.2551 LP  0  0  0  0  0  0  0  0  0  0  0  0  # atno 17394 bound_to 11000
  140.2761  134.3404  155.7358 LP  0  0  0  0  0  0  0  0  0  0  0  0  # atno 17395 bound_to 11000

$$$$
