AV-unprocessed.smi:34|AV-procd|sdf|230|dock9
  -GOLD-   2262015563D 1   1.00000     0.00000
 Structure written by MMmdl.
 55 59  0  0  0  0  0  0  0  0  1 V2000
  153.1111  140.2808  158.2333 O   0  0  0  0  0  0  0  0  0  0  0  0
  152.2650  141.1179  157.9174 C   0  0  0  0  0  0  0  0  0  0  0  0
  151.2209  140.8354  156.9485 N   0  0  0  0  0  0  0  0  0  0  0  0
  151.0556  139.7212  156.1981 C   0  0  0  0  0  0  0  0  0  0  0  0
  150.9490  139.7622  154.8435 N   0  0  0  0  0  0  0  0  0  0  0  0
  150.7813  138.6341  154.1466 C   0  0  0  0  0  0  0  0  0  0  0  0
  150.6897  137.3807  154.5971 N   0  0  0  0  0  0  0  0  0  0  0  0
  150.7926  137.3341  155.9566 C   0  0  0  0  0  0  0  0  0  0  0  0
  150.9766  138.4484  156.8206 C   0  0  0  0  0  0  0  0  0  0  0  0
  151.0408  138.0140  158.1383 N   0  0  0  0  0  0  0  0  0  0  0  0
  150.9053  136.7174  158.0519 C   0  0  0  0  0  0  0  0  0  0  0  0
  150.7361  136.2265  156.7731 N   0  0  0  0  0  0  0  0  0  0  0  0
  150.5579  134.8143  156.3081 C   0  0  1  0  0  0  0  0  0  0  0  0
  150.3978  134.0046  157.4356 O   0  0  0  0  0  0  0  0  0  0  0  0
  149.0072  133.7992  157.6591 C   0  0  2  0  0  0  0  0  0  0  0  0
  148.7708  132.6171  158.6053 C   0  0  0  0  0  0  0  0  0  0  0  0
  148.3003  133.1223  159.8438 O   0  0  0  0  0  0  0  0  0  0  0  0
  147.1371  133.7967  159.9026 C   0  0  0  0  0  0  0  0  0  0  0  0
  146.1900  133.5922  159.1405 O   0  0  0  0  0  0  0  0  0  0  0  0
  147.1167  134.8201  160.9875 C   0  0  0  0  0  0  0  0  0  0  0  0
  148.1235  134.7979  161.9808 C   0  0  0  0  0  0  0  0  0  0  0  0
  148.1299  135.7516  163.0171 C   0  0  0  0  0  0  0  0  0  0  0  0
  147.1304  136.7405  163.0720 C   0  0  0  0  0  0  0  0  0  0  0  0
  146.1238  136.7742  162.0894 C   0  0  0  0  0  0  0  0  0  0  0  0
  146.1148  135.8204  161.0530 C   0  0  0  0  0  0  0  0  0  0  0  0
  148.5053  133.5938  156.2327 C   0  0  2  0  0  0  0  0  0  0  0  0
  148.8863  132.3835  155.8133 F   0  0  0  0  0  0  0  0  0  0  0  0
  149.2557  134.6934  155.4917 C   0  0  2  0  0  0  0  0  0  0  0  0
  149.4648  134.3593  154.1345 O   0  0  0  0  0  0  0  0  0  0  0  0
  152.1977  142.4623  158.5811 C   0  0  0  0  0  0  0  0  0  0  0  0
  152.6289  142.6133  159.9182 C   0  0  0  0  0  0  0  0  0  0  0  0
  152.5826  143.8744  160.5438 C   0  0  0  0  0  0  0  0  0  0  0  0
  152.1128  144.9964  159.8354 C   0  0  0  0  0  0  0  0  0  0  0  0
  151.6934  144.8574  158.4990 C   0  0  0  0  0  0  0  0  0  0  0  0
  151.7385  143.5967  157.8723 C   0  0  0  0  0  0  0  0  0  0  0  0
  150.5410  141.5678  156.8065 H   0  0  0  0  0  0  0  0  0  0  0  0
  150.7093  138.7534  153.0756 H   0  0  0  0  0  0  0  0  0  0  0  0
  150.9240  136.0864  158.9288 H   0  0  0  0  0  0  0  0  0  0  0  0
  151.4731  134.5745  155.7652 H   0  0  0  0  0  0  0  0  0  0  0  0
  148.5583  134.7044  158.0727 H   0  0  0  0  0  0  0  0  0  0  0  0
  148.0192  131.9479  158.1847 H   0  0  0  0  0  0  0  0  0  0  0  0
  149.6875  132.0427  158.7457 H   0  0  0  0  0  0  0  0  0  0  0  0
  148.9022  134.0489  161.9588 H   0  0  0  0  0  0  0  0  0  0  0  0
  148.9034  135.7240  163.7704 H   0  0  0  0  0  0  0  0  0  0  0  0
  147.1359  137.4723  163.8664 H   0  0  0  0  0  0  0  0  0  0  0  0
  145.3563  137.5329  162.1305 H   0  0  0  0  0  0  0  0  0  0  0  0
  145.3283  135.8761  160.3146 H   0  0  0  0  0  0  0  0  0  0  0  0
  147.4216  133.6619  156.1338 H   0  0  0  0  0  0  0  0  0  0  0  0
  148.6918  135.6259  155.5527 H   0  0  0  0  0  0  0  0  0  0  0  0
  149.1316  135.0636  153.5991 H   0  0  0  0  0  0  0  0  0  0  0  0
  152.9930  141.7620  160.4752 H   0  0  0  0  0  0  0  0  0  0  0  0
  152.9089  143.9808  161.5679 H   0  0  0  0  0  0  0  0  0  0  0  0
  152.0781  145.9631  160.3155 H   0  0  0  0  0  0  0  0  0  0  0  0
  151.3389  145.7192  157.9528 H   0  0  0  0  0  0  0  0  0  0  0  0
  151.4214  143.5141  156.8429 H   0  0  0  0  0  0  0  0  0  0  0  0
  1  2  2  0  0  0  0
  2  3  1  0  0  0  0
  2 30  1  0  0  0  0
  3  4  1  0  0  0  0
  3 36  1  0  0  0  0
  4  9  1  0  0  0  0
  4  5  2  0  0  0  0
  5  6  1  0  0  0  0
  6  7  2  0  0  0  0
  6 37  1  0  0  0  0
  7  8  1  0  0  0  0
  8 12  1  0  0  0  0
  8  9  2  0  0  0  0
  9 10  1  0  0  0  0
 10 11  2  0  0  0  0
 11 12  1  0  0  0  0
 11 38  1  0  0  0  0
 12 13  1  0  0  0  0
 13 28  1  0  0  0  0
 13 14  1  0  0  0  0
 13 39  1  0  0  0  0
 14 15  1  0  0  0  0
 15 16  1  0  0  0  0
 15 26  1  0  0  0  0
 15 40  1  0  0  0  0
 16 17  1  0  0  0  0
 16 41  1  0  0  0  0
 16 42  1  0  0  0  0
 17 18  1  0  0  0  0
 18 19  2  0  0  0  0
 18 20  1  0  0  0  0
 20 25  1  0  0  0  0
 20 21  2  0  0  0  0
 21 22  1  0  0  0  0
 21 43  1  0  0  0  0
 22 23  2  0  0  0  0
 22 44  1  0  0  0  0
 23 24  1  0  0  0  0
 23 45  1  0  0  0  0
 24 25  2  0  0  0  0
 24 46  1  0  0  0  0
 25 47  1  0  0  0  0
 26 27  1  0  0  0  0
 26 28  1  0  0  0  0
 26 48  1  0  0  0  0
 28 29  1  0  0  0  0
 28 49  1  0  0  0  0
 29 50  1  0  0  0  0
 30 35  1  0  0  0  0
 30 31  2  0  0  0  0
 31 32  1  0  0  0  0
 31 51  1  0  0  0  0
 32 33  2  0  0  0  0
 32 52  1  0  0  0  0
 33 34  1  0  0  0  0
 33 53  1  0  0  0  0
 34 35  2  0  0  0  0
 34 54  1  0  0  0  0
 35 55  1  0  0  0  0
M  END
> <s_m_source_file>
AV-unprocessed.smi

> <i_m_source_file_index>
34

> <i_lp_mmshare_version>
43012

> <i_f3d_flags>
0

> <s_epik_input>
W2NIXTFbY0hdW2NIXVtjSF1bY0hdYzFDKD1PKVtOSF1jKG5bY0hdbjIpYyhjMjMpbltjSF1uM1tDQEBIXTRPW0NASF0oW0NAQEhdKEYpW0NASF00W09IXSlbQ0gyXU9DKD1PKWM1W2NIXVtjSF1bY0hdW2NIXVtjSF01

> <s_epik_cmdline>
J2VwaWtfcHl0aG9uJywgJy1waCcsICc3LjAnLCAnLXRuJywgJzgnLCAnLW1hJywgJzIwMCcsICctbWV0YWxfYmluZGluZycsICctaW1hZScsICc8aW5maWxlLm1hZT4nLCAnLW9tYWUnLCAnPG91dGZpbGUubWFlPic=

> <r_lp_tautomer_probability>
1

> <r_epik_Ionization_Penalty>
0.00257489

> <r_epik_Ionization_Penalty_Charging>
0

> <r_epik_Ionization_Penalty_Neutral>
0.00257489

> <r_epik_State_Penalty>
0.00519398

> <r_epik_Charging_Adjusted_Penalty>
0.00519398

> <i_epik_Tot_Q>
0

> <i_epik_Tot_abs_Q>
0

> <r_epik_Metal_State_Penalty>
0.335891

> <b_epik_Metal_Only>
0

> <s_epik_Chemistry_Notes>
This compound has an ester and may undergo hydrolysis at high or low pH. This compound contains an acetal/aminal-like group ( X-CH(R)-Y where X, Y are N, S, or O) that may be acid/base labile, releasing an aldehyde.

> <s_lp_Force_Field>
OPLS_2005

> <r_lp_Energy>
45.4918

> <b_lp_Chiralities_Consistent>
1

> <s_lp_Variant>
AV-unprocessed.smi:34-16

> <Gold.Version>
5.8.1

> <Gold.Id.Protein>
6NUR|6NUR_protein|mol2

> <Gold.PLP.Fitness>
64.0929

> <Gold.PLP.PLP>
-53.7241

> <Gold.PLP.part.hbond>
-4.0000

> <Gold.PLP.part.metal>
0.0000

> <Gold.PLP.part.buried>
-9.2196

> <Gold.PLP.part.nonpolar>
-40.7877

> <Gold.PLP.part.repulsive>
0.3417

> <Gold.PLP.ligand.clash>
0.0000

> <Gold.PLP.ligand.torsion>
2.1042

> <Gold.PLP.Chemscore.Hbond>
3.8317

> <Gold.PLP.Chemscore.CHOScore>
1.0000

> <Gold.PLP.Chemscore.Metal>
0.0000

> <Gold.Chemscore.Hbonds>
donor molecule, donor type, donor heavy atom, donor atom, acceptor molecule, acceptor atom, score
      L1  H    29    50       P1  7948  0.91
      P1  H  6896  6909       L1    14  0.51
      P1  H  7989  7998       L1     5  1.00
      P1  H  7997  8010       L1     1  0.91
      L1  C     6    37       P1  7957  0.99

> <Gold.PLP.Chemscore.Internal.Correction>
0.0819

> <Gold.Rescore>
     Score         DG    S(hbond)    S(metal)    S(lipo)     H(rot)  DE(clash)    DE(int)     intcor
     20.03     -22.37       2.58        0.00     130.34       2.72       0.29       2.06       ----

> <Gold.Chemscore.Fitness>
20.0252

> <Gold.Chemscore.DG>
-22.3685

> <Gold.Chemscore.ZeroCoef>
-5.4800

> <Gold.Chemscore.Hbond>
2.5765

> <Gold.Chemscore.Metal>
0.0000

> <Gold.Chemscore.Lipo>
130.3406

> <Gold.Chemscore.Internal_Hbond>
0.0000

> <Gold.Chemscore.DEClash>
0.2866

> <Gold.Chemscore.DEInternal>
2.0567

> <Gold.Chemscore.Rot>
2.7215

> <Gold.Chemscore.Internal.Correction>
   9.000000E+99

> <Gold.Chemscore.Hbonds>
donor molecule, donor type, donor heavy atom, donor atom, acceptor molecule, acceptor atom, score
      L1  H    29    50       P1  7948  0.26
      P1  H  6896  6909       L1    14  0.04
      P1  H  7989  7998       L1     5  0.26
      P1  H  7997  8010       L1     1  0.79

> <Gold.Chemscore.Hbond.Weighted>
-8.6057

> <Gold.Chemscore.Metal.Weighted>
-0.0000

> <Gold.Chemscore.Lipo.Weighted>
-15.2499

> <Gold.Chemscore.Internal_Hbond.Weighted>
0.0000

> <Gold.Chemscore.DEClash.Weighted>
0.2866

> <Gold.Chemscore.DEInternal.Weighted>
2.0567

> <Gold.Chemscore.Rot.Weighted>
6.9670

> <Gold.Chemscore.Internal.Correction.Weighted>
   9.000000E+99

> <Gold.Protein.RotatedTorsions>
[ 6907 6896 6895 6894 ] final    1.89 input  -60.11 | X-H torsion
[ 7974 7965 7964 7962 ] final  -70.41 input  175.53 | X-H torsion
[ 8008 7997 7996 7995 ] final   40.44 input   59.86 | X-H torsion
[ 10167 10162 10161 10158 ] final  -59.85 input  -65.29 | X-H torsion
[ 10718 10713 10712 10709 ] final   99.26 input   66.30 | X-H torsion
[ 10763 10752 10751 10750 ] final  111.16 input  -60.55 | X-H torsion
[ 11005 11000 10999 10996 ] final  -34.64 input  -57.11 | X-H torsion

> <Gold.Protein.ActiveResidues>
 VAL166  LYS551  ARG553  GLY616  TRP617  ASP618  TYR619  PRO620  LYS621  CYS622 
 ASP623  PHE694  ASN695  SER759  ASP760  ASP761  ALA762  ILE779  LEU786  VAL792 
 PHE793  MET794  SER795  GLU796  ALA797  LYS798  CYS799  TRP800  GLU811  SER814 

> <Gold.Protein.RotatedAtoms>
  151.5999  135.1048  160.0057 H   0  0  0  0  0  0  0  0  0  0  0  0  # atno 6907 bound_to 6896
  152.4263  133.7197  159.6537 H   0  0  0  0  0  0  0  0  0  0  0  0  # atno 6908 bound_to 6896
  150.8152  133.8278  159.3186 H   0  0  0  0  0  0  0  0  0  0  0  0  # atno 6909 bound_to 6896
  145.6913  140.9152  143.0780 H   0  0  0  0  0  0  0  0  0  0  0  0  # atno 7974 bound_to 7965
  155.2532  140.3354  155.4280 H   0  0  0  0  0  0  0  0  0  0  0  0  # atno 8008 bound_to 7997
  156.2207  140.1807  156.7528 H   0  0  0  0  0  0  0  0  0  0  0  0  # atno 8009 bound_to 7997
  154.5820  140.0652  156.9103 H   0  0  0  0  0  0  0  0  0  0  0  0  # atno 8010 bound_to 7997
  140.6109  143.2387  151.5711 H   0  0  0  0  0  0  0  0  0  0  0  0  # atno 10167 bound_to 10162
  157.6879  131.0664  150.4922 H   0  0  0  0  0  0  0  0  0  0  0  0  # atno 10718 bound_to 10713
  153.4593  135.3726  155.2329 H   0  0  0  0  0  0  0  0  0  0  0  0  # atno 10763 bound_to 10752
  154.8757  135.3904  154.3944 H   0  0  0  0  0  0  0  0  0  0  0  0  # atno 10764 bound_to 10752
  153.4515  135.7085  153.6170 H   0  0  0  0  0  0  0  0  0  0  0  0  # atno 10765 bound_to 10752
  140.9732  133.7097  156.1559 H   0  0  0  0  0  0  0  0  0  0  0  0  # atno 11005 bound_to 11000
  144.6996  139.8825  143.7448 LP  0  0  0  0  0  0  0  0  0  0  0  0  # atno 17320 bound_to 7965
  146.0879  139.3868  143.0424 LP  0  0  0  0  0  0  0  0  0  0  0  0  # atno 17321 bound_to 7965
  139.5360  144.2779  152.1253 LP  0  0  0  0  0  0  0  0  0  0  0  0  # atno 17342 bound_to 10162
  140.1978  144.4688  150.6446 LP  0  0  0  0  0  0  0  0  0  0  0  0  # atno 17343 bound_to 10162
  156.5247  130.4170  149.6232 LP  0  0  0  0  0  0  0  0  0  0  0  0  # atno 17370 bound_to 10713
  156.3122  130.7235  151.2130 LP  0  0  0  0  0  0  0  0  0  0  0  0  # atno 17371 bound_to 10713
  140.7297  134.4268  157.5567 LP  0  0  0  0  0  0  0  0  0  0  0  0  # atno 17394 bound_to 11000
  139.8920  134.8765  156.2290 LP  0  0  0  0  0  0  0  0  0  0  0  0  # atno 17395 bound_to 11000

$$$$
