AV-unprocessed.smi:586|AV-procd|sdf|3001|dock6
  -GOLD-   2262023503D 1   1.00000     0.00000
 Structure written by MMmdl.
 49 49  0  0  0  0  0  0  0  0  1 V2000
  148.6110  141.3885  154.3520 C   0  0  0  0  0  0  0  0  0  0  0  0
  149.7469  141.4991  155.3778 C   0  0  0  0  0  0  0  0  0  0  0  0
  149.2970  141.3697  156.8476 C   0  0  0  0  0  0  0  0  0  0  0  0
  149.8583  140.2205  157.5355 N   0  0  0  0  0  0  0  0  0  0  0  0
  149.1995  138.9909  157.6265 C   0  0  0  0  0  0  0  0  0  0  0  0
  147.9461  138.8856  157.0401 N   0  0  0  0  0  0  0  0  0  0  0  0
  149.7728  137.9081  158.2355 C   0  0  0  0  0  0  0  0  0  0  0  0
  149.0926  136.6806  158.3553 N   0  0  0  0  0  0  0  0  0  0  0  0
  147.9627  136.6698  159.3037 C   0  0  0  0  0  0  0  0  0  0  0  0
  148.2649  135.8250  160.5585 C   0  0  0  0  0  0  0  0  0  0  0  0
  147.1935  135.8687  161.4902 O   0  0  0  0  0  0  0  0  0  0  0  0
  147.3825  135.0478  162.6322 C   0  0  0  0  0  0  0  0  0  0  0  0
  149.4981  135.5142  157.7697 C   0  0  0  0  0  0  0  0  0  0  0  0
  149.0893  134.4383  158.2135 O   0  0  0  0  0  0  0  0  0  0  0  0
  150.4108  135.4555  156.4957 C   0  0  0  0  0  0  0  0  0  0  0  0
  149.8450  136.1941  155.2591 C   0  0  0  0  0  0  0  0  0  0  0  0
  150.5532  133.9699  156.0719 C   0  0  0  0  0  0  0  0  0  0  0  0
  151.8279  135.9678  156.8285 C   0  0  0  0  0  0  0  0  0  0  0  0
  151.0795  138.0357  158.8962 C   0  0  0  0  0  0  0  0  0  0  0  0
  151.6476  137.1570  159.5434 O   0  0  0  0  0  0  0  0  0  0  0  0
  151.6860  139.2812  158.7635 N   0  0  0  0  0  0  0  0  0  0  0  0
  151.1481  140.3774  158.1002 C   0  0  0  0  0  0  0  0  0  0  0  0
  151.8029  141.4179  158.0337 O   0  0  0  0  0  0  0  0  0  0  0  0
  152.5954  139.3986  159.1862 H   0  0  0  0  0  0  0  0  0  0  0  0
  149.0043  141.4180  153.3358 H   0  0  0  0  0  0  0  0  0  0  0  0
  147.9015  142.2100  154.4521 H   0  0  0  0  0  0  0  0  0  0  0  0
  148.0637  140.4527  154.4696 H   0  0  0  0  0  0  0  0  0  0  0  0
  150.4795  140.7188  155.1707 H   0  0  0  0  0  0  0  0  0  0  0  0
  150.2686  142.4450  155.2301 H   0  0  0  0  0  0  0  0  0  0  0  0
  149.5155  142.2736  157.4177 H   0  0  0  0  0  0  0  0  0  0  0  0
  148.2145  141.2564  156.9136 H   0  0  0  0  0  0  0  0  0  0  0  0
  147.5153  139.6640  156.5617 H   0  0  0  0  0  0  0  0  0  0  0  0
  147.4109  138.0299  157.0757 H   0  0  0  0  0  0  0  0  0  0  0  0
  147.7276  137.6898  159.6040 H   0  0  0  0  0  0  0  0  0  0  0  0
  147.0580  136.3023  158.8158 H   0  0  0  0  0  0  0  0  0  0  0  0
  148.3994  134.7812  160.2751 H   0  0  0  0  0  0  0  0  0  0  0  0
  149.1972  136.1365  161.0316 H   0  0  0  0  0  0  0  0  0  0  0  0
  146.4979  135.1028  163.2666 H   0  0  0  0  0  0  0  0  0  0  0  0
  148.2356  135.3690  163.2292 H   0  0  0  0  0  0  0  0  0  0  0  0
  147.5253  134.0039  162.3500 H   0  0  0  0  0  0  0  0  0  0  0  0
  150.3388  135.8689  154.3428 H   0  0  0  0  0  0  0  0  0  0  0  0
  150.0039  137.2705  155.3057 H   0  0  0  0  0  0  0  0  0  0  0  0
  148.7799  136.0041  155.1272 H   0  0  0  0  0  0  0  0  0  0  0  0
  149.5820  133.5159  155.8690 H   0  0  0  0  0  0  0  0  0  0  0  0
  151.0488  133.3685  156.8356 H   0  0  0  0  0  0  0  0  0  0  0  0
  151.1509  133.8661  155.1656 H   0  0  0  0  0  0  0  0  0  0  0  0
  152.5471  135.6584  156.0691 H   0  0  0  0  0  0  0  0  0  0  0  0
  152.1844  135.5851  157.7858 H   0  0  0  0  0  0  0  0  0  0  0  0
  151.8735  137.0544  156.8668 H   0  0  0  0  0  0  0  0  0  0  0  0
  1  2  1  0  0  0  0
  1 25  1  0  0  0  0
  1 26  1  0  0  0  0
  1 27  1  0  0  0  0
  2  3  1  0  0  0  0
  2 28  1  0  0  0  0
  2 29  1  0  0  0  0
  3  4  1  0  0  0  0
  3 30  1  0  0  0  0
  3 31  1  0  0  0  0
  4 22  1  0  0  0  0
  4  5  1  0  0  0  0
  5  6  1  0  0  0  0
  5  7  2  0  0  0  0
  6 32  1  0  0  0  0
  6 33  1  0  0  0  0
  7  8  1  0  0  0  0
  7 19  1  0  0  0  0
  8  9  1  0  0  0  0
  8 13  1  0  0  0  0
  9 10  1  0  0  0  0
  9 34  1  0  0  0  0
  9 35  1  0  0  0  0
 10 11  1  0  0  0  0
 10 36  1  0  0  0  0
 10 37  1  0  0  0  0
 11 12  1  0  0  0  0
 12 38  1  0  0  0  0
 12 39  1  0  0  0  0
 12 40  1  0  0  0  0
 13 14  2  0  0  0  0
 13 15  1  0  0  0  0
 15 16  1  0  0  0  0
 15 17  1  0  0  0  0
 15 18  1  0  0  0  0
 16 41  1  0  0  0  0
 16 42  1  0  0  0  0
 16 43  1  0  0  0  0
 17 44  1  0  0  0  0
 17 45  1  0  0  0  0
 17 46  1  0  0  0  0
 18 47  1  0  0  0  0
 18 48  1  0  0  0  0
 18 49  1  0  0  0  0
 19 20  2  0  0  0  0
 19 21  1  0  0  0  0
 21 24  1  0  0  0  0
 21 22  1  0  0  0  0
 22 23  2  0  0  0  0
M  END
> <s_m_source_file>
AV-unprocessed.smi

> <i_m_source_file_index>
586

> <i_lp_mmshare_version>
43012

> <i_f3d_flags>
0

> <s_epik_input>
W0NIM11bQ0gyXVtDSDJdbjFjKFtOSDJdKWMoYyg9TylbbkhdYzE9TylOKEMoPU8pQyhbQ0gzXSkoW0NIM10pW0NIM10pW0NIMl1bQ0gyXU9bQ0gzXQ==

> <s_epik_cmdline>
J2VwaWtfcHl0aG9uJywgJy1waCcsICc3LjAnLCAnLXRuJywgJzgnLCAnLW1hJywgJzIwMCcsICctbWV0YWxfYmluZGluZycsICctaW1hZScsICc8aW5maWxlLm1hZT4nLCAnLW9tYWUnLCAnPG91dGZpbGUubWFlPic=

> <r_lp_tautomer_probability>
1

> <r_epik_Ionization_Penalty>
2.71493e-05

> <r_epik_Ionization_Penalty_Charging>
5.25815e-06

> <r_epik_Ionization_Penalty_Neutral>
2.18912e-05

> <r_epik_State_Penalty>
-0

> <r_epik_Charging_Adjusted_Penalty>
5.25815e-06

> <i_epik_Tot_Q>
0

> <i_epik_Tot_abs_Q>
0

> <r_epik_Metal_State_Penalty>
-0

> <b_epik_Metal_Only>
0

> <s_epik_Chemistry_Notes>
This compound has an imine and may undergo hydrolysis.

> <s_lp_Force_Field>
OPLS_2005

> <r_lp_Energy>
40.2025

> <b_lp_Chiralities_Consistent>
1

> <s_lp_Variant>
AV-unprocessed.smi:586-1

> <Gold.Version>
5.8.1

> <Gold.Id.Protein>
6NUR|6NUR_protein|mol2

> <Gold.PLP.Fitness>
35.6532

> <Gold.PLP.PLP>
-31.8280

> <Gold.PLP.part.hbond>
-1.9952

> <Gold.PLP.part.metal>
0.0000

> <Gold.PLP.part.buried>
-5.4928

> <Gold.PLP.part.nonpolar>
-24.8807

> <Gold.PLP.part.repulsive>
0.1560

> <Gold.PLP.ligand.clash>
0.0000

> <Gold.PLP.ligand.torsion>
2.3055

> <Gold.PLP.Chemscore.Hbond>
1.8925

> <Gold.PLP.Chemscore.CHOScore>
0.0000

> <Gold.PLP.Chemscore.Metal>
0.0000

> <Gold.Chemscore.Hbonds>
donor molecule, donor type, donor heavy atom, donor atom, acceptor molecule, acceptor atom, score
      P1  H  6896  6908       L1    14  0.95
      P1  H  6896  6909       L1    20  0.96

> <Gold.PLP.Chemscore.Internal.Correction>
2.7588

> <Gold.Rescore>
     Score         DG    S(hbond)    S(metal)    S(lipo)     H(rot)  DE(clash)    DE(int)     intcor
      8.15     -11.49       1.25        0.00      61.43       2.08       0.08       3.27       ----

> <Gold.Chemscore.Fitness>
8.1462

> <Gold.Chemscore.DG>
-11.4933

> <Gold.Chemscore.ZeroCoef>
-5.4800

> <Gold.Chemscore.Hbond>
1.2461

> <Gold.Chemscore.Metal>
0.0000

> <Gold.Chemscore.Lipo>
61.4289

> <Gold.Chemscore.Internal_Hbond>
0.0000

> <Gold.Chemscore.DEClash>
0.0762

> <Gold.Chemscore.DEInternal>
3.2709

> <Gold.Chemscore.Rot>
2.0843

> <Gold.Chemscore.Internal.Correction>
   9.000000E+99

> <Gold.Chemscore.Hbonds>
donor molecule, donor type, donor heavy atom, donor atom, acceptor molecule, acceptor atom, score
      P1  H  6896  6908       L1    14  0.20
      P1  H  6896  6909       L1    20  0.91

> <Gold.Chemscore.Hbond.Weighted>
-4.1620

> <Gold.Chemscore.Metal.Weighted>
-0.0000

> <Gold.Chemscore.Lipo.Weighted>
-7.1872

> <Gold.Chemscore.Internal_Hbond.Weighted>
0.0000

> <Gold.Chemscore.DEClash.Weighted>
0.0762

> <Gold.Chemscore.DEInternal.Weighted>
3.2709

> <Gold.Chemscore.Rot.Weighted>
5.3359

> <Gold.Chemscore.Internal.Correction.Weighted>
   9.000000E+99

> <Gold.Protein.RotatedTorsions>
[ 6907 6896 6895 6894 ] final  126.98 input  -60.11 | X-H torsion
[ 7974 7965 7964 7962 ] final  104.64 input  175.53 | X-H torsion
[ 8008 7997 7996 7995 ] final -113.74 input   59.86 | X-H torsion
[ 10167 10162 10161 10158 ] final   -1.64 input  -65.29 | X-H torsion
[ 10718 10713 10712 10709 ] final -147.97 input   66.30 | X-H torsion
[ 10763 10752 10751 10750 ] final -158.49 input  -60.55 | X-H torsion
[ 11005 11000 10999 10996 ] final  103.69 input  -57.11 | X-H torsion

> <Gold.Protein.ActiveResidues>
 VAL166  LYS551  ARG553  GLY616  TRP617  ASP618  TYR619  PRO620  LYS621  CYS622 
 ASP623  PHE694  ASN695  SER759  ASP760  ASP761  ALA762  ILE779  LEU786  VAL792 
 PHE793  MET794  SER795  GLU796  ALA797  LYS798  CYS799  TRP800  GLU811  SER814 

> <Gold.Protein.RotatedAtoms>
  152.3854  133.6604  159.6194 H   0  0  0  0  0  0  0  0  0  0  0  0  # atno 6907 bound_to 6896
  150.7775  133.9043  159.3359 H   0  0  0  0  0  0  0  0  0  0  0  0  # atno 6908 bound_to 6896
  151.6841  135.0958  160.0273 H   0  0  0  0  0  0  0  0  0  0  0  0  # atno 6909 bound_to 6896
  145.3301  139.2489  143.3665 H   0  0  0  0  0  0  0  0  0  0  0  0  # atno 7974 bound_to 7965
  155.0254  140.0393  157.2453 H   0  0  0  0  0  0  0  0  0  0  0  0  # atno 8008 bound_to 7997
  154.7342  140.2736  155.6406 H   0  0  0  0  0  0  0  0  0  0  0  0  # atno 8009 bound_to 7997
  156.2849  140.2678  156.2051 H   0  0  0  0  0  0  0  0  0  0  0  0  # atno 8010 bound_to 7997
  140.6818  143.6751  150.8152 H   0  0  0  0  0  0  0  0  0  0  0  0  # atno 10167 bound_to 10162
  156.4143  130.7997  151.2217 H   0  0  0  0  0  0  0  0  0  0  0  0  # atno 10718 bound_to 10713
  154.7552  135.3103  154.8483 H   0  0  0  0  0  0  0  0  0  0  0  0  # atno 10763 bound_to 10752
  153.9259  135.6790  153.4751 H   0  0  0  0  0  0  0  0  0  0  0  0  # atno 10764 bound_to 10752
  153.1149  135.4849  154.9028 H   0  0  0  0  0  0  0  0  0  0  0  0  # atno 10765 bound_to 10752
  139.8785  134.9272  156.5248 H   0  0  0  0  0  0  0  0  0  0  0  0  # atno 11005 bound_to 11000
  146.3049  140.3877  142.8691 LP  0  0  0  0  0  0  0  0  0  0  0  0  # atno 17320 bound_to 7965
  144.8871  140.7475  143.5950 LP  0  0  0  0  0  0  0  0  0  0  0  0  # atno 17321 bound_to 7965
  140.0452  143.5305  152.2699 LP  0  0  0  0  0  0  0  0  0  0  0  0  # atno 17342 bound_to 10162
  139.6147  144.7617  151.2873 LP  0  0  0  0  0  0  0  0  0  0  0  0  # atno 17343 bound_to 10162
  157.7507  131.0248  150.3890 LP  0  0  0  0  0  0  0  0  0  0  0  0  # atno 17370 bound_to 10713
  156.4195  130.3950  149.6835 LP  0  0  0  0  0  0  0  0  0  0  0  0  # atno 17371 bound_to 10713
  140.8424  133.8195  155.9088 LP  0  0  0  0  0  0  0  0  0  0  0  0  # atno 17394 bound_to 11000
  140.9224  134.2125  157.4918 LP  0  0  0  0  0  0  0  0  0  0  0  0  # atno 17395 bound_to 11000

$$$$
