AV-unprocessed.smi:287|AV-procd|sdf|2207|dock1
  -GOLD-   2262022 33D 1   1.00000     0.00000
 Structure written by MMmdl.
 55 58  0  0  0  0  0  0  0  0  1 V2000
  151.9973  145.3958  158.8703 C   0  0  0  0  0  0  0  0  0  0  0  0
  152.0066  143.9155  158.6994 C   0  0  0  0  0  0  0  0  0  0  0  0
  151.4170  143.0641  157.8112 C   0  0  0  0  0  0  0  0  0  0  0  0
  151.7971  141.7374  158.1753 C   0  0  0  0  0  0  0  0  0  0  0  0
  151.3808  140.4541  157.4694 C   0  0  1  0  0  0  0  0  0  0  0  0
  152.0688  139.2513  158.1352 C   0  0  0  0  0  0  0  0  0  0  0  0
  149.9926  140.2011  157.5710 O   0  0  0  0  0  0  0  0  0  0  0  0
  151.7005  140.4777  155.9569 C   0  0  0  0  0  0  0  0  0  0  0  0
  151.8066  139.1433  155.3798 N   0  0  0  0  0  0  0  0  0  0  0  0
  150.7099  138.3718  155.2301 C   0  0  0  0  0  0  0  0  0  0  0  0
  149.5684  139.0325  154.9232 N   0  0  0  0  0  0  0  0  0  0  0  0
  148.4314  138.3571  154.7390 C   0  0  0  0  0  0  0  0  0  0  0  0
  148.2221  137.0420  154.8123 N   0  0  0  0  0  0  0  0  0  0  0  0
  149.3645  136.3672  155.1309 C   0  0  0  0  0  0  0  0  0  0  0  0
  150.6435  136.9527  155.3596 C   0  0  0  0  0  0  0  0  0  0  0  0
  151.5573  135.9512  155.6704 N   0  0  0  0  0  0  0  0  0  0  0  0
  150.8611  134.8489  155.6166 C   0  0  0  0  0  0  0  0  0  0  0  0
  149.5340  135.0064  155.2908 N   0  0  0  0  0  0  0  0  0  0  0  0
  148.5031  133.9347  155.1395 C   0  0  1  0  0  0  0  0  0  0  0  0
  147.7451  134.2133  154.0020 O   0  0  0  0  0  0  0  0  0  0  0  0
  147.5223  133.0140  153.2688 C   0  0  1  0  0  0  0  0  0  0  0  0
  147.2447  133.3504  151.7953 C   0  0  0  0  0  0  0  0  0  0  0  0
  147.0139  132.1667  151.0617 O   0  0  0  0  0  0  0  0  0  0  0  0
  148.8289  132.2489  153.4875 C   0  0  2  0  0  0  0  0  0  0  0  0
  148.7154  130.8617  153.2261 O   0  0  0  0  0  0  0  0  0  0  0  0
  149.1689  132.5633  154.9421 C   0  0  2  0  0  0  0  0  0  0  0  0
  148.6262  131.6098  155.8374 O   0  0  0  0  0  0  0  0  0  0  0  0
  152.6208  141.8960  159.2637 C   0  0  0  0  0  0  0  0  0  0  0  0
  153.3858  140.9501  160.1295 C   0  0  0  0  0  0  0  0  0  0  0  0
  152.7470  143.2121  159.5924 O   0  0  0  0  0  0  0  0  0  0  0  0
  147.8930  134.0036  156.0415 H   0  0  0  0  0  0  0  0  0  0  0  0
  146.6931  132.4627  153.7173 H   0  0  0  0  0  0  0  0  0  0  0  0
  149.6055  132.6582  152.8412 H   0  0  0  0  0  0  0  0  0  0  0  0
  150.2472  132.6175  155.0996 H   0  0  0  0  0  0  0  0  0  0  0  0
  151.4423  145.8771  158.0650 H   0  0  0  0  0  0  0  0  0  0  0  0
  153.0127  145.7924  158.8654 H   0  0  0  0  0  0  0  0  0  0  0  0
  151.5293  145.6722  159.8151 H   0  0  0  0  0  0  0  0  0  0  0  0
  150.7751  143.3592  156.9942 H   0  0  0  0  0  0  0  0  0  0  0  0
  153.1545  139.3371  158.0776 H   0  0  0  0  0  0  0  0  0  0  0  0
  151.7892  138.3125  157.6551 H   0  0  0  0  0  0  0  0  0  0  0  0
  151.8019  139.1756  159.1902 H   0  0  0  0  0  0  0  0  0  0  0  0
  149.6264  140.1834  156.7000 H   0  0  0  0  0  0  0  0  0  0  0  0
  150.8872  140.9952  155.4464 H   0  0  0  0  0  0  0  0  0  0  0  0
  152.6103  141.0459  155.7593 H   0  0  0  0  0  0  0  0  0  0  0  0
  152.7464  138.7812  155.3022 H   0  0  0  0  0  0  0  0  0  0  0  0
  147.5663  138.9555  154.4947 H   0  0  0  0  0  0  0  0  0  0  0  0
  151.3028  133.8816  155.8076 H   0  0  0  0  0  0  0  0  0  0  0  0
  146.3988  134.0317  151.6962 H   0  0  0  0  0  0  0  0  0  0  0  0
  148.1104  133.8434  151.3525 H   0  0  0  0  0  0  0  0  0  0  0  0
  147.8455  131.8298  150.7649 H   0  0  0  0  0  0  0  0  0  0  0  0
  148.8134  130.7228  152.2967 H   0  0  0  0  0  0  0  0  0  0  0  0
  148.0213  132.0548  156.4118 H   0  0  0  0  0  0  0  0  0  0  0  0
  153.9814  140.2673  159.5235 H   0  0  0  0  0  0  0  0  0  0  0  0
  152.7089  140.3564  160.7438 H   0  0  0  0  0  0  0  0  0  0  0  0
  154.0637  141.4844  160.7957 H   0  0  0  0  0  0  0  0  0  0  0  0
  1  2  1  0  0  0  0
  1 35  1  0  0  0  0
  1 36  1  0  0  0  0
  1 37  1  0  0  0  0
  2 30  1  0  0  0  0
  2  3  2  0  0  0  0
  3  4  1  0  0  0  0
  3 38  1  0  0  0  0
  4  5  1  0  0  0  0
  4 28  2  0  0  0  0
  5  6  1  0  0  0  0
  5  7  1  0  0  0  0
  5  8  1  0  0  0  0
  6 39  1  0  0  0  0
  6 40  1  0  0  0  0
  6 41  1  0  0  0  0
  7 42  1  0  0  0  0
  8  9  1  0  0  0  0
  8 43  1  0  0  0  0
  8 44  1  0  0  0  0
  9 10  1  0  0  0  0
  9 45  1  0  0  0  0
 10 15  1  0  0  0  0
 10 11  2  0  0  0  0
 11 12  1  0  0  0  0
 12 13  2  0  0  0  0
 12 46  1  0  0  0  0
 13 14  1  0  0  0  0
 14 18  1  0  0  0  0
 14 15  2  0  0  0  0
 15 16  1  0  0  0  0
 16 17  2  0  0  0  0
 17 18  1  0  0  0  0
 17 47  1  0  0  0  0
 18 19  1  0  0  0  0
 19 31  1  0  0  0  0
 19 26  1  0  0  0  0
 19 20  1  0  0  0  0
 20 21  1  0  0  0  0
 21 32  1  0  0  0  0
 21 22  1  0  0  0  0
 21 24  1  0  0  0  0
 22 23  1  0  0  0  0
 22 48  1  0  0  0  0
 22 49  1  0  0  0  0
 23 50  1  0  0  0  0
 24 33  1  0  0  0  0
 24 25  1  0  0  0  0
 24 26  1  0  0  0  0
 25 51  1  0  0  0  0
 26 34  1  0  0  0  0
 26 27  1  0  0  0  0
 27 52  1  0  0  0  0
 28 29  1  0  0  0  0
 28 30  1  0  0  0  0
 29 53  1  0  0  0  0
 29 54  1  0  0  0  0
 29 55  1  0  0  0  0
M  END
> <s_m_source_file>
AV-unprocessed.smi

> <i_m_source_file_index>
287

> <i_lp_mmshare_version>
43012

> <i_f3d_flags>
0

> <s_epik_input>
W0NIM11jMVtjSF1jKGMobzEpW0NIM10pW0NAQF0oW0NIM10pKFtPSF0pW0NIMl1bTkhdYyhuW2NIXW4yKWMoYzIzKW5bY0hdbjNbQ0BASF00T1tDQEhdKFtDSDJdW09IXSlbQ0BASF0oW09IXSlbQ0BIXTRbT0hd

> <s_epik_cmdline>
J2VwaWtfcHl0aG9uJywgJy1waCcsICc3LjAnLCAnLXRuJywgJzgnLCAnLW1hJywgJzIwMCcsICctbWV0YWxfYmluZGluZycsICctaW1hZScsICc8aW5maWxlLm1hZT4nLCAnLW9tYWUnLCAnPG91dGZpbGUubWFlPic=

> <r_lp_tautomer_probability>
1

> <r_epik_Ionization_Penalty>
0.000992612

> <r_epik_Ionization_Penalty_Charging>
0

> <r_epik_Ionization_Penalty_Neutral>
0.000992612

> <r_epik_State_Penalty>
-0

> <r_epik_Charging_Adjusted_Penalty>
0

> <i_epik_Tot_Q>
0

> <i_epik_Tot_abs_Q>
0

> <r_epik_Metal_State_Penalty>
-0

> <b_epik_Metal_Only>
0

> <s_epik_Chemistry_Notes>
This compound contains an acetal/aminal-like group ( X-CH(R)-Y where X, Y are N, S, or O) that may be acid/base labile, releasing an aldehyde.

> <s_lp_Force_Field>
OPLS_2005

> <r_lp_Energy>
44.3809

> <b_lp_Chiralities_Consistent>
1

> <s_lp_Variant>
AV-unprocessed.smi:287-31

> <Gold.Version>
5.8.1

> <Gold.Id.Protein>
6NUR|6NUR_protein|mol2

> <Gold.PLP.Fitness>
52.3455

> <Gold.PLP.PLP>
-47.8649

> <Gold.PLP.part.hbond>
-2.9720

> <Gold.PLP.part.metal>
0.0000

> <Gold.PLP.part.buried>
-7.8145

> <Gold.PLP.part.nonpolar>
-37.7240

> <Gold.PLP.part.repulsive>
0.5695

> <Gold.PLP.ligand.clash>
2.2354

> <Gold.PLP.ligand.torsion>
1.1858

> <Gold.PLP.Chemscore.Hbond>
3.0000

> <Gold.PLP.Chemscore.CHOScore>
0.0000

> <Gold.PLP.Chemscore.Metal>
0.0000

> <Gold.Chemscore.Hbonds>
donor molecule, donor type, donor heavy atom, donor atom, acceptor molecule, acceptor atom, score
      L1  H    23    50       P1 10747  1.00
      L1  H    25    51       P1 10747  1.00
      P1  H 10752 10765       L1    16  1.00

> <Gold.PLP.Chemscore.Internal.Correction>
0.0877

> <Gold.Rescore>
     Score         DG    S(hbond)    S(metal)    S(lipo)     H(rot)  DE(clash)    DE(int)     intcor
      8.27     -14.08       2.90        0.00     106.07       5.27       0.19       5.62       ----

> <Gold.Chemscore.Fitness>
8.2704

> <Gold.Chemscore.DG>
-14.0799

> <Gold.Chemscore.ZeroCoef>
-5.4800

> <Gold.Chemscore.Hbond>
2.8962

> <Gold.Chemscore.Metal>
0.0000

> <Gold.Chemscore.Lipo>
106.0726

> <Gold.Chemscore.Internal_Hbond>
0.0000

> <Gold.Chemscore.DEClash>
0.1867

> <Gold.Chemscore.DEInternal>
5.6228

> <Gold.Chemscore.Rot>
5.2672

> <Gold.Chemscore.Internal.Correction>
   9.000000E+99

> <Gold.Chemscore.Hbonds>
donor molecule, donor type, donor heavy atom, donor atom, acceptor molecule, acceptor atom, score
      L1  H    23    50       P1 10747  0.97
      L1  H    25    51       P1 10747  0.53
      P1  H 10752 10765       L1    16  0.35

> <Gold.Chemscore.Hbond.Weighted>
-9.6733

> <Gold.Chemscore.Metal.Weighted>
-0.0000

> <Gold.Chemscore.Lipo.Weighted>
-12.4105

> <Gold.Chemscore.Internal_Hbond.Weighted>
0.0000

> <Gold.Chemscore.DEClash.Weighted>
0.1867

> <Gold.Chemscore.DEInternal.Weighted>
5.6228

> <Gold.Chemscore.Rot.Weighted>
13.4839

> <Gold.Chemscore.Internal.Correction.Weighted>
   9.000000E+99

> <Gold.Protein.RotatedTorsions>
[ 6907 6896 6895 6894 ] final  100.52 input  -60.11 | X-H torsion
[ 7974 7965 7964 7962 ] final -156.16 input  175.53 | X-H torsion
[ 8008 7997 7996 7995 ] final  114.63 input   59.86 | X-H torsion
[ 10167 10162 10161 10158 ] final   93.46 input  -65.29 | X-H torsion
[ 10718 10713 10712 10709 ] final -130.77 input   66.30 | X-H torsion
[ 10763 10752 10751 10750 ] final -173.16 input  -60.55 | X-H torsion
[ 11005 11000 10999 10996 ] final  118.57 input  -57.11 | X-H torsion

> <Gold.Protein.ActiveResidues>
 VAL166  LYS551  ARG553  GLY616  TRP617  ASP618  TYR619  PRO620  LYS621  CYS622 
 ASP623  PHE694  ASN695  SER759  ASP760  ASP761  ALA762  ILE779  LEU786  VAL792 
 PHE793  MET794  SER795  GLU796  ALA797  LYS798  CYS799  TRP800  GLU811  SER814 

> <Gold.Protein.RotatedAtoms>
  152.5370  134.0265  159.8005 H   0  0  0  0  0  0  0  0  0  0  0  0  # atno 6907 bound_to 6896
  151.0443  133.5671  159.2655 H   0  0  0  0  0  0  0  0  0  0  0  0  # atno 6908 bound_to 6896
  151.2629  135.0667  159.9159 H   0  0  0  0  0  0  0  0  0  0  0  0  # atno 6909 bound_to 6896
  144.7606  140.4148  143.5979 H   0  0  0  0  0  0  0  0  0  0  0  0  # atno 7974 bound_to 7965
  156.2333  140.2955  156.0245 H   0  0  0  0  0  0  0  0  0  0  0  0  # atno 8008 bound_to 7997
  155.2164  140.0414  157.2958 H   0  0  0  0  0  0  0  0  0  0  0  0  # atno 8009 bound_to 7997
  154.6034  140.2433  155.7770 H   0  0  0  0  0  0  0  0  0  0  0  0  # atno 8010 bound_to 7997
  139.8177  144.6745  150.9558 H   0  0  0  0  0  0  0  0  0  0  0  0  # atno 10167 bound_to 10162
  156.2178  130.6959  151.0722 H   0  0  0  0  0  0  0  0  0  0  0  0  # atno 10718 bound_to 10713
  154.6111  135.2864  155.0431 H   0  0  0  0  0  0  0  0  0  0  0  0  # atno 10763 bound_to 10752
  154.1661  135.6480  153.5001 H   0  0  0  0  0  0  0  0  0  0  0  0  # atno 10764 bound_to 10752
  153.0195  135.5390  154.6865 H   0  0  0  0  0  0  0  0  0  0  0  0  # atno 10765 bound_to 10752
  139.9114  134.9621  156.7523 H   0  0  0  0  0  0  0  0  0  0  0  0  # atno 11005 bound_to 11000
  145.6633  139.1585  143.2796 LP  0  0  0  0  0  0  0  0  0  0  0  0  # atno 17320 bound_to 7965
  146.1664  140.6711  142.9253 LP  0  0  0  0  0  0  0  0  0  0  0  0  # atno 17321 bound_to 7965
  140.7815  143.4122  151.0975 LP  0  0  0  0  0  0  0  0  0  0  0  0  # atno 17342 bound_to 10162
  139.7784  143.8391  152.3133 LP  0  0  0  0  0  0  0  0  0  0  0  0  # atno 17343 bound_to 10162
  157.7072  131.0751  150.6627 LP  0  0  0  0  0  0  0  0  0  0  0  0  # atno 17370 bound_to 10713
  156.6688  130.4533  149.5663 LP  0  0  0  0  0  0  0  0  0  0  0  0  # atno 17371 bound_to 10713
  140.6763  133.9514  155.7885 LP  0  0  0  0  0  0  0  0  0  0  0  0  # atno 17394 bound_to 11000
  141.0542  134.0441  157.3744 LP  0  0  0  0  0  0  0  0  0  0  0  0  # atno 17395 bound_to 11000

$$$$
