AV-unprocessed.smi:1268|AV-procd|sdf|5325|dock10
  -GOLD-   22720 4453D 1   1.00000     0.00000
 Structure written by MMmdl.
 39 40  0  0  0  0  0  0  0  0  3 V2000
  145.1945  134.9442  153.4748 O   0  0  0  0  0  0  0  0  0  0  0  0
  145.9474  135.1730  152.5257 C   0  0  0  0  0  0  0  0  0  0  0  0
  146.5011  136.3845  152.3898 N   0  0  0  0  0  0  0  0  0  0  0  0
  146.3106  137.5053  153.3018 C   0  0  0  0  0  0  0  0  0  0  0  0
  146.6676  138.8327  152.6127 C   0  0  2  0  0  0  0  0  0  0  0  0
  147.7194  138.5835  151.7000 O   0  0  0  0  0  0  0  0  0  0  0  0
  147.1701  139.8786  153.6277 C   0  0  0  0  0  0  0  0  0  0  0  0
  146.1300  140.8804  153.9762 N   0  3  0  0  0  0  0  0  0  0  0  0
  146.6155  142.2757  153.8168 C   0  0  0  0  0  0  0  0  0  0  0  0
  145.4790  143.2884  154.0369 C   0  0  0  0  0  0  0  0  0  0  0  0
  144.8276  143.0932  155.4118 C   0  0  0  0  0  0  0  0  0  0  0  0
  144.3652  141.6392  155.5700 C   0  0  0  0  0  0  0  0  0  0  0  0
  145.5246  140.6604  155.3172 C   0  0  0  0  0  0  0  0  0  0  0  0
  146.3047  134.3031  151.5546 N   0  5  0  0  0  0  0  0  0  0  0  0
  145.4038  133.4360  151.0641 C   0  0  0  0  0  0  0  0  0  0  0  0
  144.6158  133.7147  150.0194 N   0  0  0  0  0  0  0  0  0  0  0  0
  143.7602  132.6668  149.6744 C   0  0  0  0  0  0  0  0  0  0  0  0
  143.9066  131.5608  150.4687 C   0  0  0  0  0  0  0  0  0  0  0  0
  145.1307  131.8042  151.6819 S   0  0  0  0  0  0  0  0  0  0  0  0
  147.1057  136.5317  151.5952 H   0  0  0  0  0  0  0  0  0  0  0  0
  145.2598  137.5094  153.5944 H   0  0  0  0  0  0  0  0  0  0  0  0
  146.8927  137.3749  154.2162 H   0  0  0  0  0  0  0  0  0  0  0  0
  145.7985  139.2075  152.0719 H   0  0  0  0  0  0  0  0  0  0  0  0
  148.3650  139.2685  151.7955 H   0  0  0  0  0  0  0  0  0  0  0  0
  147.5208  139.3932  154.5398 H   0  0  0  0  0  0  0  0  0  0  0  0
  148.0397  140.3809  153.2000 H   0  0  0  0  0  0  0  0  0  0  0  0
  147.4293  142.4618  154.5195 H   0  0  0  0  0  0  0  0  0  0  0  0
  147.0232  142.4121  152.8145 H   0  0  0  0  0  0  0  0  0  0  0  0
  145.8626  144.3050  153.9471 H   0  0  0  0  0  0  0  0  0  0  0  0
  144.7273  143.1707  153.2553 H   0  0  0  0  0  0  0  0  0  0  0  0
  145.5424  143.3411  156.1975 H   0  0  0  0  0  0  0  0  0  0  0  0
  143.9835  143.7735  155.5297 H   0  0  0  0  0  0  0  0  0  0  0  0
  143.9582  141.4854  156.5698 H   0  0  0  0  0  0  0  0  0  0  0  0
  143.5537  141.4339  154.8706 H   0  0  0  0  0  0  0  0  0  0  0  0
  145.1503  139.6412  155.4038 H   0  0  0  0  0  0  0  0  0  0  0  0
  146.2892  140.7811  156.0863 H   0  0  0  0  0  0  0  0  0  0  0  0
  143.0792  132.7948  148.8462 H   0  0  0  0  0  0  0  0  0  0  0  0
  143.3743  130.6233  150.4145 H   0  0  0  0  0  0  0  0  0  0  0  0
  145.3928  140.7621  153.2954 H   0  0  0  0  0  0  0  0  0  0  0  0
  1  2  2  0  0  0  0
  2  3  1  0  0  0  0
  2 14  1  0  0  0  0
  3  4  1  0  0  0  0
  3 20  1  0  0  0  0
  4  5  1  0  0  0  0
  4 21  1  0  0  0  0
  4 22  1  0  0  0  0
  5  6  1  0  0  0  0
  5  7  1  0  0  0  0
  5 23  1  0  0  0  0
  6 24  1  0  0  0  0
  7  8  1  0  0  0  0
  7 25  1  0  0  0  0
  7 26  1  0  0  0  0
  8 13  1  0  0  0  0
  8  9  1  0  0  0  0
  8 39  1  0  0  0  0
  9 10  1  0  0  0  0
  9 27  1  0  0  0  0
  9 28  1  0  0  0  0
 10 11  1  0  0  0  0
 10 29  1  0  0  0  0
 10 30  1  0  0  0  0
 11 12  1  0  0  0  0
 11 31  1  0  0  0  0
 11 32  1  0  0  0  0
 12 13  1  0  0  0  0
 12 33  1  0  0  0  0
 12 34  1  0  0  0  0
 13 35  1  0  0  0  0
 13 36  1  0  0  0  0
 14 15  1  0  0  0  0
 15 19  1  0  0  0  0
 15 16  2  0  0  0  0
 16 17  1  0  0  0  0
 17 18  2  0  0  0  0
 17 37  1  0  0  0  0
 18 19  1  0  0  0  0
 18 38  1  0  0  0  0
M  CHG  1   8   1
M  CHG  1  14  -1
M  END
> <s_m_source_file>
AV-unprocessed.smi

> <i_m_source_file_index>
1268

> <i_lp_mmshare_version>
43012

> <i_f3d_flags>
0

> <s_epik_input>
czFbY0hdW2NIXW5jMVtOSF1DKD1PKVtOSF1bQ0gyXVtDQEhdKFtPSF0pW0NIMl1OMltDSDJdW0NIMl1bQ0gyXVtDSDJdW0NIMl0y

> <s_epik_cmdline>
J2VwaWtfcHl0aG9uJywgJy1waCcsICc3LjAnLCAnLXRuJywgJzgnLCAnLW1hJywgJzIwMCcsICctbWV0YWxfYmluZGluZycsICctaW1hZScsICc8aW5maWxlLm1hZT4nLCAnLW9tYWUnLCAnPG91dGZpbGUubWFlPic=

> <r_lp_tautomer_probability>
0.999

> <r_epik_Ionization_Penalty>
6.36291

> <r_epik_Ionization_Penalty_Charging>
5.4816

> <r_epik_Ionization_Penalty_Neutral>
0.881305

> <r_epik_State_Penalty>
5.4805

> <r_epik_Charging_Adjusted_Penalty>
10.9621

> <i_epik_Tot_Q>
0

> <i_epik_Tot_abs_Q>
2

> <r_epik_Metal_State_Penalty>
1.48871

> <b_epik_Metal_Only>
1

> <s_lp_Force_Field>
OPLS_2005

> <r_lp_Energy>
11.3564

> <b_lp_Chiralities_Consistent>
1

> <s_lp_Variant>
AV-unprocessed.smi:1268-3

> <Gold.Version>
5.8.1

> <Gold.Id.Protein>
6NUR|6NUR_protein|mol2

> <Gold.PLP.Fitness>
43.5449

> <Gold.PLP.PLP>
-31.4776

> <Gold.PLP.part.hbond>
-4.6049

> <Gold.PLP.part.metal>
0.0000

> <Gold.PLP.part.buried>
-3.7831

> <Gold.PLP.part.nonpolar>
-24.3594

> <Gold.PLP.part.repulsive>
0.8324

> <Gold.PLP.ligand.clash>
0.0000

> <Gold.PLP.ligand.torsion>
2.7577

> <Gold.PLP.Chemscore.Hbond>
4.2400

> <Gold.PLP.Chemscore.CHOScore>
1.5894

> <Gold.PLP.Chemscore.Metal>
0.0000

> <Gold.Chemscore.Hbonds>
donor molecule, donor type, donor heavy atom, donor atom, acceptor molecule, acceptor atom, score
      L1  H     3    20       P1  7948  0.37
      L1  H     6    24       P1  7957  0.91
      L1  H     8    39       P1 10175  2.00
      P1  H  7954  7966       L1     6  0.94
      L1  C    17    37       P1 10186  0.33
      L1  C    18    38       P1 10952  0.51

> <Gold.PLP.Chemscore.Internal.Correction>
0.0946

> <Gold.Rescore>
     Score         DG    S(hbond)    S(metal)    S(lipo)     H(rot)  DE(clash)    DE(int)     intcor
     11.75     -15.01       2.39        0.00      67.45       2.48       0.54       2.72       ----

> <Gold.Chemscore.Fitness>
11.7485

> <Gold.Chemscore.DG>
-15.0068

> <Gold.Chemscore.ZeroCoef>
-5.4800

> <Gold.Chemscore.Hbond>
2.3929

> <Gold.Chemscore.Metal>
0.0000

> <Gold.Chemscore.Lipo>
67.4530

> <Gold.Chemscore.Internal_Hbond>
0.0000

> <Gold.Chemscore.DEClash>
0.5382

> <Gold.Chemscore.DEInternal>
2.7200

> <Gold.Chemscore.Rot>
2.4834

> <Gold.Chemscore.Internal.Correction>
   9.000000E+99

> <Gold.Chemscore.Hbonds>
donor molecule, donor type, donor heavy atom, donor atom, acceptor molecule, acceptor atom, score
      L1  H     3    20       P1  7948  0.36
      L1  H     6    24       P1  7957  0.84
      L1  H     8    39       P1 10175  0.78
      P1  H  7954  7966       L1     6  0.23

> <Gold.Chemscore.Hbond.Weighted>
-7.9923

> <Gold.Chemscore.Metal.Weighted>
-0.0000

> <Gold.Chemscore.Lipo.Weighted>
-7.8920

> <Gold.Chemscore.Internal_Hbond.Weighted>
0.0000

> <Gold.Chemscore.DEClash.Weighted>
0.5382

> <Gold.Chemscore.DEInternal.Weighted>
2.7200

> <Gold.Chemscore.Rot.Weighted>
6.3575

> <Gold.Chemscore.Internal.Correction.Weighted>
   9.000000E+99

> <Gold.Protein.RotatedTorsions>
[ 6907 6896 6895 6894 ] final -160.05 input  -60.11 | X-H torsion
[ 7974 7965 7964 7962 ] final  -22.20 input  175.53 | X-H torsion
[ 8008 7997 7996 7995 ] final   74.32 input   59.86 | X-H torsion
[ 10167 10162 10161 10158 ] final   72.20 input  -65.29 | X-H torsion
[ 10718 10713 10712 10709 ] final  -59.48 input   66.30 | X-H torsion
[ 10763 10752 10751 10750 ] final  121.54 input  -60.55 | X-H torsion
[ 11005 11000 10999 10996 ] final   38.10 input  -57.11 | X-H torsion

> <Gold.Protein.ActiveResidues>
 VAL166  LYS551  ARG553  GLY616  TRP617  ASP618  TYR619  PRO620  LYS621  CYS622 
 ASP623  PHE694  ASN695  SER759  ASP760  ASP761  ALA762  ILE779  LEU786  VAL792 
 PHE793  MET794  SER795  GLU796  ALA797  LYS798  CYS799  TRP800  GLU811  SER814 

> <Gold.Protein.RotatedAtoms>
  151.3430  133.3955  159.2672 H   0  0  0  0  0  0  0  0  0  0  0  0  # atno 6907 bound_to 6896
  150.9862  134.9208  159.7884 H   0  0  0  0  0  0  0  0  0  0  0  0  # atno 6908 bound_to 6896
  152.5233  134.3394  159.9264 H   0  0  0  0  0  0  0  0  0  0  0  0  # atno 6909 bound_to 6896
  146.1689  140.4446  142.8540 H   0  0  0  0  0  0  0  0  0  0  0  0  # atno 7974 bound_to 7965
  155.7966  140.3477  155.5379 H   0  0  0  0  0  0  0  0  0  0  0  0  # atno 8008 bound_to 7997
  155.8580  140.0967  157.1652 H   0  0  0  0  0  0  0  0  0  0  0  0  # atno 8009 bound_to 7997
  154.4010  140.1364  156.3913 H   0  0  0  0  0  0  0  0  0  0  0  0  # atno 8010 bound_to 7997
  140.0379  144.5413  150.7457 H   0  0  0  0  0  0  0  0  0  0  0  0  # atno 10167 bound_to 10162
  156.1058  130.4180  150.0721 H   0  0  0  0  0  0  0  0  0  0  0  0  # atno 10718 bound_to 10713
  153.6157  135.3422  155.2994 H   0  0  0  0  0  0  0  0  0  0  0  0  # atno 10763 bound_to 10752
  154.8610  135.4261  154.2262 H   0  0  0  0  0  0  0  0  0  0  0  0  # atno 10764 bound_to 10752
  153.3123  135.7032  153.7177 H   0  0  0  0  0  0  0  0  0  0  0  0  # atno 10765 bound_to 10752
  140.2160  134.3698  155.8027 H   0  0  0  0  0  0  0  0  0  0  0  0  # atno 11005 bound_to 11000
  144.8134  140.6425  143.6400 LP  0  0  0  0  0  0  0  0  0  0  0  0  # atno 17320 bound_to 7965
  145.4392  139.1538  143.3979 LP  0  0  0  0  0  0  0  0  0  0  0  0  # atno 17321 bound_to 7965
  140.7273  143.2650  151.4075 LP  0  0  0  0  0  0  0  0  0  0  0  0  # atno 17342 bound_to 10162
  139.6033  144.1250  152.2222 LP  0  0  0  0  0  0  0  0  0  0  0  0  # atno 17343 bound_to 10162
  156.8697  130.9520  151.3610 LP  0  0  0  0  0  0  0  0  0  0  0  0  # atno 17370 bound_to 10713
  157.6235  130.8673  149.9149 LP  0  0  0  0  0  0  0  0  0  0  0  0  # atno 17371 bound_to 10713
  141.2225  133.7168  156.8497 LP  0  0  0  0  0  0  0  0  0  0  0  0  # atno 17394 bound_to 11000
  140.1900  134.8972  157.3049 LP  0  0  0  0  0  0  0  0  0  0  0  0  # atno 17395 bound_to 11000

$$$$
