AV-unprocessed.smi:1643|AV-procd|sdf|6572|dock2
  -GOLD-   22720 7253D 1   1.00000     0.00000
 Structure written by MMmdl.
 54 56  0  0  0  0  0  0  0  0  2 V2000
  150.7497  131.6485  157.6293 C   0  0  0  0  0  0  0  0  0  0  0  0
  150.0615  133.0026  157.8219 C   0  0  0  0  0  0  0  0  0  0  0  0
  150.1639  133.5520  158.9188 O   0  0  0  0  0  0  0  0  0  0  0  0
  149.3783  133.5533  156.7881 N   0  0  0  0  0  0  0  0  0  0  0  0
  149.1908  132.8265  155.5236 C   0  0  0  0  0  0  0  0  0  0  0  0
  150.1667  133.3002  154.4233 C   0  0  0  0  0  0  0  0  0  0  0  0
  150.8934  134.6369  154.6959 C   0  0  0  0  0  0  0  0  0  0  0  0
  150.0079  135.8344  154.7894 N   0  3  2  0  0  0  0  0  0  0  0  0
  150.7178  137.0389  155.3007 C   0  0  0  0  0  0  0  0  0  0  0  0
  151.4045  137.8676  154.1948 C   0  0  2  0  0  0  0  0  0  0  0  0
  152.3153  137.0170  153.5282 O   0  0  0  0  0  0  0  0  0  0  0  0
  152.1600  139.0951  154.7443 C   0  0  0  0  0  0  0  0  0  0  0  0
  151.2616  140.1350  155.2130 N   0  0  0  0  0  0  0  0  0  0  0  0
  150.0977  140.5134  154.6506 C   0  0  0  0  0  0  0  0  0  0  0  0
  149.4262  141.4962  155.2426 N   0  0  0  0  0  0  0  0  0  0  0  0
  150.2490  141.7893  156.3167 C   0  0  0  0  0  0  0  0  0  0  0  0
  150.1097  142.7487  157.3432 C   0  0  0  0  0  0  0  0  0  0  0  0
  151.0900  142.8771  158.3528 C   0  0  0  0  0  0  0  0  0  0  0  0
  150.9011  143.9236  159.4370 C   0  0  0  0  0  0  0  0  0  0  0  0
  152.2321  142.0366  158.3453 C   0  0  0  0  0  0  0  0  0  0  0  0
  153.2983  142.1567  159.4198 C   0  0  0  0  0  0  0  0  0  0  0  0
  152.3867  141.0726  157.3271 C   0  0  0  0  0  0  0  0  0  0  0  0
  151.4047  140.9549  156.3277 C   0  0  0  0  0  0  0  0  0  0  0  0
  148.6958  135.6254  155.4688 C   0  0  0  0  0  0  0  0  0  0  0  0
  148.7698  134.8964  156.8365 C   0  0  0  0  0  0  0  0  0  0  0  0
  151.3567  131.6418  156.7236 H   0  0  0  0  0  0  0  0  0  0  0  0
  150.0134  130.8469  157.5697 H   0  0  0  0  0  0  0  0  0  0  0  0
  151.4097  131.4320  158.4701 H   0  0  0  0  0  0  0  0  0  0  0  0
  149.2862  131.7472  155.6532 H   0  0  0  0  0  0  0  0  0  0  0  0
  148.1590  132.9504  155.1940 H   0  0  0  0  0  0  0  0  0  0  0  0
  150.9309  132.5321  154.2987 H   0  0  0  0  0  0  0  0  0  0  0  0
  149.6440  133.3471  153.4673 H   0  0  0  0  0  0  0  0  0  0  0  0
  151.5002  134.5515  155.5987 H   0  0  0  0  0  0  0  0  0  0  0  0
  151.6002  134.7997  153.8827 H   0  0  0  0  0  0  0  0  0  0  0  0
  150.0119  137.6893  155.8194 H   0  0  0  0  0  0  0  0  0  0  0  0
  151.4492  136.7276  156.0487 H   0  0  0  0  0  0  0  0  0  0  0  0
  150.6752  138.1862  153.4506 H   0  0  0  0  0  0  0  0  0  0  0  0
  151.8676  136.6012  152.8065 H   0  0  0  0  0  0  0  0  0  0  0  0
  152.8014  138.8056  155.5773 H   0  0  0  0  0  0  0  0  0  0  0  0
  152.8152  139.5168  153.9808 H   0  0  0  0  0  0  0  0  0  0  0  0
  149.7233  140.0421  153.7535 H   0  0  0  0  0  0  0  0  0  0  0  0
  149.2399  143.3890  157.3479 H   0  0  0  0  0  0  0  0  0  0  0  0
  150.8603  143.4534  160.4197 H   0  0  0  0  0  0  0  0  0  0  0  0
  149.9754  144.4822  159.2945 H   0  0  0  0  0  0  0  0  0  0  0  0
  151.7260  144.6365  159.4275 H   0  0  0  0  0  0  0  0  0  0  0  0
  154.1120  141.4504  159.2533 H   0  0  0  0  0  0  0  0  0  0  0  0
  152.8742  141.9529  160.4032 H   0  0  0  0  0  0  0  0  0  0  0  0
  153.7237  143.1605  159.4265 H   0  0  0  0  0  0  0  0  0  0  0  0
  153.2529  140.4279  157.3089 H   0  0  0  0  0  0  0  0  0  0  0  0
  148.1999  136.5866  155.6084 H   0  0  0  0  0  0  0  0  0  0  0  0
  148.0362  135.0969  154.7814 H   0  0  0  0  0  0  0  0  0  0  0  0
  147.7644  134.7972  157.2474 H   0  0  0  0  0  0  0  0  0  0  0  0
  149.3140  135.5503  157.5175 H   0  0  0  0  0  0  0  0  0  0  0  0
  149.7573  136.0618  153.8378 H   0  0  0  0  0  0  0  0  0  0  0  0
  1  2  1  0  0  0  0
  1 26  1  0  0  0  0
  1 27  1  0  0  0  0
  1 28  1  0  0  0  0
  2  3  2  0  0  0  0
  2  4  1  0  0  0  0
  4 25  1  0  0  0  0
  4  5  1  0  0  0  0
  5  6  1  0  0  0  0
  5 29  1  0  0  0  0
  5 30  1  0  0  0  0
  6  7  1  0  0  0  0
  6 31  1  0  0  0  0
  6 32  1  0  0  0  0
  7  8  1  0  0  0  0
  7 33  1  0  0  0  0
  7 34  1  0  0  0  0
  8  9  1  0  0  0  0
  8 24  1  0  0  0  0
  8 54  1  0  0  0  0
  9 10  1  0  0  0  0
  9 35  1  0  0  0  0
  9 36  1  0  0  0  0
 10 11  1  0  0  0  0
 10 12  1  0  0  0  0
 10 37  1  0  0  0  0
 11 38  1  0  0  0  0
 12 13  1  0  0  0  0
 12 39  1  0  0  0  0
 12 40  1  0  0  0  0
 13 23  1  0  0  0  0
 13 14  1  0  0  0  0
 14 15  2  0  0  0  0
 14 41  1  0  0  0  0
 15 16  1  0  0  0  0
 16 23  2  0  0  0  0
 16 17  1  0  0  0  0
 17 18  2  0  0  0  0
 17 42  1  0  0  0  0
 18 19  1  0  0  0  0
 18 20  1  0  0  0  0
 19 43  1  0  0  0  0
 19 44  1  0  0  0  0
 19 45  1  0  0  0  0
 20 21  1  0  0  0  0
 20 22  2  0  0  0  0
 21 46  1  0  0  0  0
 21 47  1  0  0  0  0
 21 48  1  0  0  0  0
 22 23  1  0  0  0  0
 22 49  1  0  0  0  0
 24 25  1  0  0  0  0
 24 50  1  0  0  0  0
 24 51  1  0  0  0  0
 25 52  1  0  0  0  0
 25 53  1  0  0  0  0
M  CHG  1   8   1
M  END
> <s_m_source_file>
AV-unprocessed.smi

> <i_m_source_file_index>
1643

> <i_lp_mmshare_version>
43012

> <i_f3d_flags>
0

> <s_epik_input>
W0NIM11DKD1PKU4xW0NIMl1bQ0gyXVtDSDJdTihbQ0gyXVtDSDJdMSlbQ0gyXVtDQEhdKFtPSF0pW0NIMl1uKFtjSF1uMiljKGMyMylbY0hdYyhbQ0gzXSljKFtjSF0zKVtDSDNd

> <s_epik_cmdline>
J2VwaWtfcHl0aG9uJywgJy1waCcsICc3LjAnLCAnLXRuJywgJzgnLCAnLW1hJywgJzIwMCcsICctbWV0YWxfYmluZGluZycsICctaW1hZScsICc8aW5maWxlLm1hZT4nLCAnLW9tYWUnLCAnPG91dGZpbGUubWFlPic=

> <r_epik_Ionization_Penalty>
0.189467

> <r_epik_Ionization_Penalty_Charging>
0.101761

> <r_epik_Ionization_Penalty_Neutral>
0.0877056

> <r_epik_State_Penalty>
0.170758

> <r_epik_Charging_Adjusted_Penalty>
0.272519

> <i_epik_Tot_Q>
1

> <i_epik_Tot_abs_Q>
1

> <r_epik_Metal_State_Penalty>
0.0948013

> <b_epik_Metal_Only>
0

> <s_lp_Force_Field>
OPLS_2005

> <r_lp_Energy>
49.989

> <b_lp_Chiralities_Consistent>
1

> <s_lp_Variant>
AV-unprocessed.smi:1643-1

> <Gold.Version>
5.8.1

> <Gold.Id.Protein>
6NUR|6NUR_protein|mol2

> <Gold.PLP.Fitness>
53.9842

> <Gold.PLP.PLP>
-38.5700

> <Gold.PLP.part.hbond>
-4.0000

> <Gold.PLP.part.metal>
0.0000

> <Gold.PLP.part.buried>
-0.6357

> <Gold.PLP.part.nonpolar>
-34.1383

> <Gold.PLP.part.repulsive>
0.2281

> <Gold.PLP.ligand.clash>
0.0000

> <Gold.PLP.ligand.torsion>
0.8351

> <Gold.PLP.Chemscore.Hbond>
5.0000

> <Gold.PLP.Chemscore.CHOScore>
0.6607

> <Gold.PLP.Chemscore.Metal>
0.0000

> <Gold.Chemscore.Hbonds>
donor molecule, donor type, donor heavy atom, donor atom, acceptor molecule, acceptor atom, score
      L1  H     8    54       P1  7948  1.62
      L1  H    11    38       P1  7949  1.00
      P1  H 10752 10765       L1    11  0.82
      L1  C    14    41       P1  7957  0.84

> <Gold.PLP.Chemscore.Internal.Correction>
0.1023

> <Gold.Rescore>
     Score         DG    S(hbond)    S(metal)    S(lipo)     H(rot)  DE(clash)    DE(int)     intcor
     22.45     -24.34       3.53        0.00     106.70       2.12       0.05       1.84       ----

> <Gold.Chemscore.Fitness>
22.4510

> <Gold.Chemscore.DG>
-24.3430

> <Gold.Chemscore.ZeroCoef>
-5.4800

> <Gold.Chemscore.Hbond>
3.5332

> <Gold.Chemscore.Metal>
0.0000

> <Gold.Chemscore.Lipo>
106.6972

> <Gold.Chemscore.Internal_Hbond>
0.0000

> <Gold.Chemscore.DEClash>
0.0501

> <Gold.Chemscore.DEInternal>
1.8420

> <Gold.Chemscore.Rot>
2.1178

> <Gold.Chemscore.Internal.Correction>
   9.000000E+99

> <Gold.Chemscore.Hbonds>
donor molecule, donor type, donor heavy atom, donor atom, acceptor molecule, acceptor atom, score
      L1  H     8    54       P1  7948  0.24
      L1  H    11    38       P1  7949  0.99
      P1  H 10752 10765       L1    11  0.13

> <Gold.Chemscore.Hbond.Weighted>
-11.8010

> <Gold.Chemscore.Metal.Weighted>
-0.0000

> <Gold.Chemscore.Lipo.Weighted>
-12.4836

> <Gold.Chemscore.Internal_Hbond.Weighted>
0.0000

> <Gold.Chemscore.DEClash.Weighted>
0.0501

> <Gold.Chemscore.DEInternal.Weighted>
1.8420

> <Gold.Chemscore.Rot.Weighted>
5.4215

> <Gold.Chemscore.Internal.Correction.Weighted>
   9.000000E+99

> <Gold.Protein.RotatedTorsions>
[ 6907 6896 6895 6894 ] final  -92.35 input  -60.11 | X-H torsion
[ 7974 7965 7964 7962 ] final -153.91 input  175.53 | X-H torsion
[ 8008 7997 7996 7995 ] final  -13.60 input   59.86 | X-H torsion
[ 10167 10162 10161 10158 ] final -165.65 input  -65.29 | X-H torsion
[ 10718 10713 10712 10709 ] final   36.55 input   66.30 | X-H torsion
[ 10763 10752 10751 10750 ] final  151.70 input  -60.55 | X-H torsion
[ 11005 11000 10999 10996 ] final   94.82 input  -57.11 | X-H torsion

> <Gold.Protein.ActiveResidues>
 VAL166  LYS551  ARG553  GLY616  TRP617  ASP618  TYR619  PRO620  LYS621  CYS622 
 ASP623  PHE694  ASN695  SER759  ASP760  ASP761  ALA762  ILE779  LEU786  VAL792 
 PHE793  MET794  SER795  GLU796  ALA797  LYS798  CYS799  TRP800  GLU811  SER814 

> <Gold.Protein.RotatedAtoms>
  150.6905  134.2135  159.4368 H   0  0  0  0  0  0  0  0  0  0  0  0  # atno 6907 bound_to 6896
  152.0095  134.9881  160.0577 H   0  0  0  0  0  0  0  0  0  0  0  0  # atno 6908 bound_to 6896
  152.1502  133.4482  159.4846 H   0  0  0  0  0  0  0  0  0  0  0  0  # atno 6909 bound_to 6896
  144.7716  140.4461  143.5903 H   0  0  0  0  0  0  0  0  0  0  0  0  # atno 7974 bound_to 7965
  154.5279  140.2245  155.8857 H   0  0  0  0  0  0  0  0  0  0  0  0  # atno 8008 bound_to 7997
  156.1733  140.3117  155.8977 H   0  0  0  0  0  0  0  0  0  0  0  0  # atno 8009 bound_to 7997
  155.3513  140.0456  157.3037 H   0  0  0  0  0  0  0  0  0  0  0  0  # atno 8010 bound_to 7997
  139.6168  144.0705  152.1895 H   0  0  0  0  0  0  0  0  0  0  0  0  # atno 10167 bound_to 10162
  157.3362  130.7524  149.6880 H   0  0  0  0  0  0  0  0  0  0  0  0  # atno 10718 bound_to 10713
  154.1081  135.2841  155.3237 H   0  0  0  0  0  0  0  0  0  0  0  0  # atno 10763 bound_to 10752
  154.6509  135.5369  153.7903 H   0  0  0  0  0  0  0  0  0  0  0  0  # atno 10764 bound_to 10752
  153.0355  135.6510  154.1241 H   0  0  0  0  0  0  0  0  0  0  0  0  # atno 10765 bound_to 10752
  139.8795  134.8866  156.3921 H   0  0  0  0  0  0  0  0  0  0  0  0  # atno 11005 bound_to 11000
  145.6306  139.1536  143.2971 LP  0  0  0  0  0  0  0  0  0  0  0  0  # atno 17320 bound_to 7965
  146.1867  140.6410  142.9164 LP  0  0  0  0  0  0  0  0  0  0  0  0  # atno 17321 bound_to 7965
  140.0336  144.6061  150.7467 LP  0  0  0  0  0  0  0  0  0  0  0  0  # atno 17342 bound_to 10162
  140.7356  143.2742  151.3792 LP  0  0  0  0  0  0  0  0  0  0  0  0  # atno 17343 bound_to 10162
  155.9702  130.4181  150.4310 LP  0  0  0  0  0  0  0  0  0  0  0  0  # atno 17370 bound_to 10713
  157.2350  131.0513  151.2470 LP  0  0  0  0  0  0  0  0  0  0  0  0  # atno 17371 bound_to 10713
  140.9326  133.7569  156.0044 LP  0  0  0  0  0  0  0  0  0  0  0  0  # atno 17394 bound_to 11000
  140.8313  134.3175  157.5348 LP  0  0  0  0  0  0  0  0  0  0  0  0  # atno 17395 bound_to 11000

$$$$
