AV-unprocessed.smi:1780|AV-procd|sdf|7186|dock4
  -GOLD-   22720 8423D 1   1.00000     0.00000
 Structure written by MMmdl.
 44 45  0  0  0  0  0  0  0  0  2 V2000
  146.3177  129.7834  151.5565 C   0  0  0  0  0  0  0  0  0  0  0  0
  144.9669  130.3933  151.1630 C   0  0  0  0  0  0  0  0  0  0  0  0
  145.0191  131.8420  151.1269 N   0  0  0  0  0  0  0  0  0  0  0  0
  146.1012  132.6637  151.3738 C   0  0  0  0  0  0  0  0  0  0  0  0
  145.6407  133.9398  151.2103 C   0  0  0  0  0  0  0  0  0  0  0  0
  146.3324  135.1702  151.3443 N   0  0  0  0  0  0  0  0  0  0  0  0
  145.8146  136.3636  151.6772 C   0  0  0  0  0  0  0  0  0  0  0  0
  144.6275  136.5788  151.9228 O   0  0  0  0  0  0  0  0  0  0  0  0
  146.7606  137.3123  151.7208 N   0  0  0  0  0  0  0  0  0  0  0  0
  146.5235  138.7100  152.0702 C   0  0  0  0  0  0  0  0  0  0  0  0
  146.4738  138.9564  153.6024 C   0  0  1  0  0  0  0  0  0  0  0  0
  147.8364  138.5978  154.2443 C   0  0  0  0  0  0  0  0  0  0  0  0
  146.0292  140.3599  153.8891 N   0  3  0  0  0  0  0  0  0  0  0  0
  145.6510  140.5596  155.3151 C   0  0  0  0  0  0  0  0  0  0  0  0
  145.1094  141.9789  155.5492 C   0  0  0  0  0  0  0  0  0  0  0  0
  146.0941  142.9279  155.1680 O   0  0  0  0  0  0  0  0  0  0  0  0
  146.4064  142.8278  153.7866 C   0  0  0  0  0  0  0  0  0  0  0  0
  146.9758  141.4326  153.4743 C   0  0  0  0  0  0  0  0  0  0  0  0
  144.2691  133.8157  150.8680 C   0  0  0  0  0  0  0  0  0  0  0  0
  143.9013  132.5446  150.8165 N   0  0  0  0  0  0  0  0  0  0  0  0
  146.2620  128.6948  151.5695 H   0  0  0  0  0  0  0  0  0  0  0  0
  146.6257  130.1116  152.5497 H   0  0  0  0  0  0  0  0  0  0  0  0
  147.0986  130.0689  150.8512 H   0  0  0  0  0  0  0  0  0  0  0  0
  144.6632  130.0301  150.1804 H   0  0  0  0  0  0  0  0  0  0  0  0
  144.1919  130.0873  151.8671 H   0  0  0  0  0  0  0  0  0  0  0  0
  147.0720  132.2702  151.6368 H   0  0  0  0  0  0  0  0  0  0  0  0
  147.3274  135.1341  151.1777 H   0  0  0  0  0  0  0  0  0  0  0  0
  147.7108  137.0493  151.5019 H   0  0  0  0  0  0  0  0  0  0  0  0
  147.3242  139.3042  151.6287 H   0  0  0  0  0  0  0  0  0  0  0  0
  145.6071  139.0271  151.5743 H   0  0  0  0  0  0  0  0  0  0  0  0
  145.7351  138.2853  154.0438 H   0  0  0  0  0  0  0  0  0  0  0  0
  148.1456  137.5824  153.9969 H   0  0  0  0  0  0  0  0  0  0  0  0
  147.7978  138.6333  155.3331 H   0  0  0  0  0  0  0  0  0  0  0  0
  148.6259  139.2701  153.9066 H   0  0  0  0  0  0  0  0  0  0  0  0
  144.8915  139.8455  155.6272 H   0  0  0  0  0  0  0  0  0  0  0  0
  146.5214  140.3895  155.9508 H   0  0  0  0  0  0  0  0  0  0  0  0
  144.1864  142.1434  154.9905 H   0  0  0  0  0  0  0  0  0  0  0  0
  144.8733  142.1212  156.6037 H   0  0  0  0  0  0  0  0  0  0  0  0
  145.5182  143.0293  153.1854 H   0  0  0  0  0  0  0  0  0  0  0  0
  147.1389  143.5953  153.5356 H   0  0  0  0  0  0  0  0  0  0  0  0
  147.9312  141.2951  153.9835 H   0  0  0  0  0  0  0  0  0  0  0  0
  147.1653  141.3924  152.4021 H   0  0  0  0  0  0  0  0  0  0  0  0
  143.5440  134.5878  150.6576 H   0  0  0  0  0  0  0  0  0  0  0  0
  145.1939  140.5073  153.3408 H   0  0  0  0  0  0  0  0  0  0  0  0
  1  2  1  0  0  0  0
  1 21  1  0  0  0  0
  1 22  1  0  0  0  0
  1 23  1  0  0  0  0
  2  3  1  0  0  0  0
  2 24  1  0  0  0  0
  2 25  1  0  0  0  0
  3 20  1  0  0  0  0
  3  4  1  0  0  0  0
  4  5  2  0  0  0  0
  4 26  1  0  0  0  0
  5  6  1  0  0  0  0
  5 19  1  0  0  0  0
  6  7  1  0  0  0  0
  6 27  1  0  0  0  0
  7  8  2  0  0  0  0
  7  9  1  0  0  0  0
  9 10  1  0  0  0  0
  9 28  1  0  0  0  0
 10 11  1  0  0  0  0
 10 29  1  0  0  0  0
 10 30  1  0  0  0  0
 11 12  1  0  0  0  0
 11 13  1  0  0  0  0
 11 31  1  0  0  0  0
 12 32  1  0  0  0  0
 12 33  1  0  0  0  0
 12 34  1  0  0  0  0
 13 18  1  0  0  0  0
 13 14  1  0  0  0  0
 13 44  1  0  0  0  0
 14 15  1  0  0  0  0
 14 35  1  0  0  0  0
 14 36  1  0  0  0  0
 15 16  1  0  0  0  0
 15 37  1  0  0  0  0
 15 38  1  0  0  0  0
 16 17  1  0  0  0  0
 17 18  1  0  0  0  0
 17 39  1  0  0  0  0
 17 40  1  0  0  0  0
 18 41  1  0  0  0  0
 18 42  1  0  0  0  0
 19 20  2  0  0  0  0
 19 43  1  0  0  0  0
M  CHG  1  13   1
M  END
> <s_m_source_file>
AV-unprocessed.smi

> <i_m_source_file_index>
1780

> <i_lp_mmshare_version>
43012

> <i_f3d_flags>
0

> <s_epik_input>
W0NIM11bQ0gyXW4xW2NIXWMoW2NIXW4xKVtOSF1DKD1PKVtOSF1bQ0gyXVtDQEhdKFtDSDNdKU4yW0NIMl1bQ0gyXU9bQ0gyXVtDSDJdMg==

> <s_epik_cmdline>
J2VwaWtfcHl0aG9uJywgJy1waCcsICc3LjAnLCAnLXRuJywgJzgnLCAnLW1hJywgJzIwMCcsICctbWV0YWxfYmluZGluZycsICctaW1hZScsICc8aW5maWxlLm1hZT4nLCAnLW9tYWUnLCAnPG91dGZpbGUubWFlPic=

> <r_lp_tautomer_probability>
1

> <r_epik_Ionization_Penalty>
0.64612

> <r_epik_Ionization_Penalty_Charging>
0.645968

> <r_epik_Ionization_Penalty_Neutral>
0.000152026

> <r_epik_State_Penalty>
0.664063

> <r_epik_Charging_Adjusted_Penalty>
1.31003

> <i_epik_Tot_Q>
1

> <i_epik_Tot_abs_Q>
1

> <r_epik_Metal_State_Penalty>
0.664075

> <b_epik_Metal_Only>
0

> <s_lp_Force_Field>
OPLS_2005

> <r_lp_Energy>
24.1412

> <b_lp_Chiralities_Consistent>
1

> <s_lp_Variant>
AV-unprocessed.smi:1780-4

> <Gold.Version>
5.8.1

> <Gold.Id.Protein>
6NUR|6NUR_protein|mol2

> <Gold.PLP.Fitness>
46.4667

> <Gold.PLP.PLP>
-33.4589

> <Gold.PLP.part.hbond>
-2.6966

> <Gold.PLP.part.metal>
0.0000

> <Gold.PLP.part.buried>
-5.9483

> <Gold.PLP.part.nonpolar>
-24.9769

> <Gold.PLP.part.repulsive>
1.0474

> <Gold.PLP.ligand.clash>
0.0000

> <Gold.PLP.ligand.torsion>
0.4208

> <Gold.PLP.Chemscore.Hbond>
3.6556

> <Gold.PLP.Chemscore.CHOScore>
0.9307

> <Gold.PLP.Chemscore.Metal>
0.0000

> <Gold.Chemscore.Hbonds>
donor molecule, donor type, donor heavy atom, donor atom, acceptor molecule, acceptor atom, score
      L1  H     6    27       P1  7948  0.72
      L1  H     9    28       P1  7948  0.91
      L1  H    13    44       P1 10175  2.00
      L1  C     4    26       P1 10747  0.49
      L1  C    19    43       P1 10186  0.42

> <Gold.PLP.Chemscore.Internal.Correction>
0.0903

> <Gold.Rescore>
     Score         DG    S(hbond)    S(metal)    S(lipo)     H(rot)  DE(clash)    DE(int)     intcor
     17.10     -18.66       2.78        0.00      69.77       1.67       0.12       1.44       ----

> <Gold.Chemscore.Fitness>
17.1045

> <Gold.Chemscore.DG>
-18.6612

> <Gold.Chemscore.ZeroCoef>
-5.4800

> <Gold.Chemscore.Hbond>
2.7830

> <Gold.Chemscore.Metal>
0.0000

> <Gold.Chemscore.Lipo>
69.7709

> <Gold.Chemscore.Internal_Hbond>
0.0000

> <Gold.Chemscore.DEClash>
0.1152

> <Gold.Chemscore.DEInternal>
1.4415

> <Gold.Chemscore.Rot>
1.6708

> <Gold.Chemscore.Internal.Correction>
   9.000000E+99

> <Gold.Chemscore.Hbonds>
donor molecule, donor type, donor heavy atom, donor atom, acceptor molecule, acceptor atom, score
      L1  H     6    27       P1  7948  0.37
      L1  H     9    28       P1  7948  0.82
      L1  H    13    44       P1 10175  0.98

> <Gold.Chemscore.Hbond.Weighted>
-9.2953

> <Gold.Chemscore.Metal.Weighted>
-0.0000

> <Gold.Chemscore.Lipo.Weighted>
-8.1632

> <Gold.Chemscore.Internal_Hbond.Weighted>
0.0000

> <Gold.Chemscore.DEClash.Weighted>
0.1152

> <Gold.Chemscore.DEInternal.Weighted>
1.4415

> <Gold.Chemscore.Rot.Weighted>
4.2773

> <Gold.Chemscore.Internal.Correction.Weighted>
   9.000000E+99

> <Gold.Protein.RotatedTorsions>
[ 6907 6896 6895 6894 ] final  121.41 input  -60.11 | X-H torsion
[ 7974 7965 7964 7962 ] final   44.59 input  175.53 | X-H torsion
[ 8008 7997 7996 7995 ] final   29.04 input   59.86 | X-H torsion
[ 10167 10162 10161 10158 ] final -103.31 input  -65.29 | X-H torsion
[ 10718 10713 10712 10709 ] final  -18.77 input   66.30 | X-H torsion
[ 10763 10752 10751 10750 ] final  -48.10 input  -60.55 | X-H torsion
[ 11005 11000 10999 10996 ] final -157.15 input  -57.11 | X-H torsion

> <Gold.Protein.ActiveResidues>
 VAL166  LYS551  ARG553  GLY616  TRP617  ASP618  TYR619  PRO620  LYS621  CYS622 
 ASP623  PHE694  ASN695  SER759  ASP760  ASP761  ALA762  ILE779  LEU786  VAL792 
 PHE793  MET794  SER795  GLU796  ALA797  LYS798  CYS799  TRP800  GLU811  SER814 

> <Gold.Protein.RotatedAtoms>
  152.4324  133.7301  159.6581 H   0  0  0  0  0  0  0  0  0  0  0  0  # atno 6907 bound_to 6896
  150.8204  133.8252  159.3147 H   0  0  0  0  0  0  0  0  0  0  0  0  # atno 6908 bound_to 6896
  151.5936  135.1054  160.0096 H   0  0  0  0  0  0  0  0  0  0  0  0  # atno 6909 bound_to 6896
  146.0555  139.5057  142.9691 H   0  0  0  0  0  0  0  0  0  0  0  0  # atno 7974 bound_to 7965
  155.0682  140.3197  155.4639 H   0  0  0  0  0  0  0  0  0  0  0  0  # atno 8008 bound_to 7997
  156.2797  140.2116  156.5754 H   0  0  0  0  0  0  0  0  0  0  0  0  # atno 8009 bound_to 7997
  154.7077  140.0501  157.0507 H   0  0  0  0  0  0  0  0  0  0  0  0  # atno 8010 bound_to 7997
  140.2213  143.3674  152.0967 H   0  0  0  0  0  0  0  0  0  0  0  0  # atno 10167 bound_to 10162
  156.5549  130.4711  149.6434 H   0  0  0  0  0  0  0  0  0  0  0  0  # atno 10718 bound_to 10713
  154.0722  135.6603  153.4826 H   0  0  0  0  0  0  0  0  0  0  0  0  # atno 10763 bound_to 10752
  153.0386  135.5160  154.7555 H   0  0  0  0  0  0  0  0  0  0  0  0  # atno 10764 bound_to 10752
  154.6625  135.3017  154.9816 H   0  0  0  0  0  0  0  0  0  0  0  0  # atno 10765 bound_to 10752
  140.6677  134.4281  157.5232 H   0  0  0  0  0  0  0  0  0  0  0  0  # atno 11005 bound_to 11000
  145.6652  141.0230  143.1687 LP  0  0  0  0  0  0  0  0  0  0  0  0  # atno 17320 bound_to 7965
  144.7145  139.8246  143.7403 LP  0  0  0  0  0  0  0  0  0  0  0  0  # atno 17321 bound_to 7965
  139.5143  144.6946  151.5667 LP  0  0  0  0  0  0  0  0  0  0  0  0  # atno 17342 bound_to 10162
  140.6253  143.9181  150.6559 LP  0  0  0  0  0  0  0  0  0  0  0  0  # atno 17343 bound_to 10162
  156.2851  130.7093  151.1927 LP  0  0  0  0  0  0  0  0  0  0  0  0  # atno 17370 bound_to 10713
  157.7380  131.0545  150.5320 LP  0  0  0  0  0  0  0  0  0  0  0  0  # atno 17371 bound_to 10713
  139.8992  134.8597  156.1971 LP  0  0  0  0  0  0  0  0  0  0  0  0  # atno 17394 bound_to 11000
  141.0416  133.6935  156.1608 LP  0  0  0  0  0  0  0  0  0  0  0  0  # atno 17395 bound_to 11000

$$$$
