AV-unprocessed.smi:3251|AV-procd|sdf|12437|dock3
  -GOLD-   2272018323D 1   1.00000     0.00000
 Structure written by MMmdl.
 40 41  0  0  0  0  0  0  0  0  1 V2000
  151.9491  145.3336  159.4558 C   0  0  0  0  0  0  0  0  0  0  0  0
  152.4651  144.0987  160.1355 C   0  0  0  0  0  0  0  0  0  0  0  0
  152.6743  143.8899  161.5284 C   0  0  0  0  0  0  0  0  0  0  0  0
  153.1346  142.6806  161.8044 N   0  0  0  0  0  0  0  0  0  0  0  0
  153.2337  142.0758  160.6018 N   0  0  0  0  0  0  0  0  0  0  0  0
  153.6914  140.7002  160.5229 C   0  0  0  0  0  0  0  0  0  0  0  0
  153.1262  139.9831  159.2869 C   0  0  0  0  0  0  0  0  0  0  0  0
  153.1643  138.5377  159.4899 N   0  0  0  0  0  0  0  0  0  0  0  0
  154.4535  138.0528  160.0109 C   0  0  2  0  0  0  0  0  0  0  0  0
  155.4445  137.8808  158.8495 C   0  0  0  0  0  0  0  0  0  0  0  0
  154.3194  136.7211  160.7844 C   0  0  0  0  0  0  0  0  0  0  0  0
  154.0394  135.6968  160.1584 O   0  0  0  0  0  0  0  0  0  0  0  0
  154.5071  136.7062  162.1218 N   0  0  0  0  0  0  0  0  0  0  0  0
  154.3819  135.5462  163.0039 C   0  0  0  0  0  0  0  0  0  0  0  0
  154.4390  136.0977  164.4287 C   0  0  0  0  0  0  0  0  0  0  0  0
  155.2158  137.3992  164.2925 C   0  0  0  0  0  0  0  0  0  0  0  0
  154.8623  137.8976  162.8914 C   0  0  0  0  0  0  0  0  0  0  0  0
  152.8367  142.9086  159.5772 C   0  0  0  0  0  0  0  0  0  0  0  0
  152.1009  146.2245  160.0655 H   0  0  0  0  0  0  0  0  0  0  0  0
  150.8807  145.2612  159.2519 H   0  0  0  0  0  0  0  0  0  0  0  0
  152.4482  145.5083  158.5026 H   0  0  0  0  0  0  0  0  0  0  0  0
  152.5040  144.5781  162.3432 H   0  0  0  0  0  0  0  0  0  0  0  0
  154.7822  140.6876  160.5187 H   0  0  0  0  0  0  0  0  0  0  0  0
  153.3772  140.1809  161.4293 H   0  0  0  0  0  0  0  0  0  0  0  0
  152.0914  140.2840  159.1204 H   0  0  0  0  0  0  0  0  0  0  0  0
  153.6897  140.2886  158.4047 H   0  0  0  0  0  0  0  0  0  0  0  0
  152.9025  138.0695  158.6345 H   0  0  0  0  0  0  0  0  0  0  0  0
  154.8463  138.8327  160.6627 H   0  0  0  0  0  0  0  0  0  0  0  0
  156.4181  137.5410  159.2047 H   0  0  0  0  0  0  0  0  0  0  0  0
  155.6011  138.8246  158.3266 H   0  0  0  0  0  0  0  0  0  0  0  0
  155.0848  137.1541  158.1196 H   0  0  0  0  0  0  0  0  0  0  0  0
  153.4553  134.9961  162.8356 H   0  0  0  0  0  0  0  0  0  0  0  0
  155.2205  134.8715  162.8251 H   0  0  0  0  0  0  0  0  0  0  0  0
  153.4283  136.3123  164.7786 H   0  0  0  0  0  0  0  0  0  0  0  0
  154.8964  135.4028  165.1333 H   0  0  0  0  0  0  0  0  0  0  0  0
  154.9733  138.1215  165.0725 H   0  0  0  0  0  0  0  0  0  0  0  0
  156.2855  137.1930  164.3482 H   0  0  0  0  0  0  0  0  0  0  0  0
  155.6949  138.4428  162.4439 H   0  0  0  0  0  0  0  0  0  0  0  0
  154.0006  138.5655  162.9286 H   0  0  0  0  0  0  0  0  0  0  0  0
  152.8436  142.5852  158.5466 H   0  0  0  0  0  0  0  0  0  0  0  0
  1  2  1  0  0  0  0
  1 19  1  0  0  0  0
  1 20  1  0  0  0  0
  1 21  1  0  0  0  0
  2 18  2  0  0  0  0
  2  3  1  0  0  0  0
  3  4  2  0  0  0  0
  3 22  1  0  0  0  0
  4  5  1  0  0  0  0
  5  6  1  0  0  0  0
  5 18  1  0  0  0  0
  6  7  1  0  0  0  0
  6 23  1  0  0  0  0
  6 24  1  0  0  0  0
  7  8  1  0  0  0  0
  7 25  1  0  0  0  0
  7 26  1  0  0  0  0
  8  9  1  0  0  0  0
  8 27  1  0  0  0  0
  9 10  1  0  0  0  0
  9 11  1  0  0  0  0
  9 28  1  0  0  0  0
 10 29  1  0  0  0  0
 10 30  1  0  0  0  0
 10 31  1  0  0  0  0
 11 12  2  0  0  0  0
 11 13  1  0  0  0  0
 13 17  1  0  0  0  0
 13 14  1  0  0  0  0
 14 15  1  0  0  0  0
 14 32  1  0  0  0  0
 14 33  1  0  0  0  0
 15 16  1  0  0  0  0
 15 34  1  0  0  0  0
 15 35  1  0  0  0  0
 16 17  1  0  0  0  0
 16 36  1  0  0  0  0
 16 37  1  0  0  0  0
 17 38  1  0  0  0  0
 17 39  1  0  0  0  0
 18 40  1  0  0  0  0
M  END
> <s_m_source_file>
AV-unprocessed.smi

> <i_m_source_file_index>
3251

> <i_lp_mmshare_version>
43012

> <i_f3d_flags>
0

> <s_epik_input>
W0NIM11jMVtjSF1ubihbY0hdMSlbQ0gyXVtDSDJdW05IXVtDQEhdKFtDSDNdKUMoPU8pTjJbQ0gyXVtDSDJdW0NIMl1bQ0gyXTI=

> <s_epik_cmdline>
J2VwaWtfcHl0aG9uJywgJy1waCcsICc3LjAnLCAnLXRuJywgJzgnLCAnLW1hJywgJzIwMCcsICctbWV0YWxfYmluZGluZycsICctaW1hZScsICc8aW5maWxlLm1hZT4nLCAnLW9tYWUnLCAnPG91dGZpbGUubWFlPic=

> <r_lp_tautomer_probability>
1

> <r_epik_Ionization_Penalty>
0.734676

> <r_epik_Ionization_Penalty_Charging>
0

> <r_epik_Ionization_Penalty_Neutral>
0.734676

> <r_epik_State_Penalty>
0.75825

> <r_epik_Charging_Adjusted_Penalty>
0.75825

> <i_epik_Tot_Q>
0

> <i_epik_Tot_abs_Q>
0

> <r_epik_Metal_State_Penalty>
0.756914

> <b_epik_Metal_Only>
0

> <s_lp_Force_Field>
OPLS_2005

> <r_lp_Energy>
32.0163

> <b_lp_Chiralities_Consistent>
1

> <s_lp_Variant>
AV-unprocessed.smi:3251-3

> <Gold.Version>
5.8.1

> <Gold.Id.Protein>
6NUR|6NUR_protein|mol2

> <Gold.PLP.Fitness>
44.3912

> <Gold.PLP.PLP>
-43.1095

> <Gold.PLP.part.hbond>
-1.0000

> <Gold.PLP.part.metal>
0.0000

> <Gold.PLP.part.buried>
-5.4765

> <Gold.PLP.part.nonpolar>
-36.5739

> <Gold.PLP.part.repulsive>
0.0727

> <Gold.PLP.ligand.clash>
0.0000

> <Gold.PLP.ligand.torsion>
0.8933

> <Gold.PLP.Chemscore.Hbond>
1.0000

> <Gold.PLP.Chemscore.CHOScore>
0.0000

> <Gold.PLP.Chemscore.Metal>
0.0000

> <Gold.Chemscore.Hbonds>
donor molecule, donor type, donor heavy atom, donor atom, acceptor molecule, acceptor atom, score
      P1  H  6896  6909       L1    12  1.00

> <Gold.PLP.Chemscore.Internal.Correction>
0.0684

> <Gold.Rescore>
     Score         DG    S(hbond)    S(metal)    S(lipo)     H(rot)  DE(clash)    DE(int)     intcor
     16.38     -17.16       1.00        0.00     108.39       1.70       0.06       0.72       ----

> <Gold.Chemscore.Fitness>
16.3777

> <Gold.Chemscore.DG>
-17.1613

> <Gold.Chemscore.ZeroCoef>
-5.4800

> <Gold.Chemscore.Hbond>
0.9998

> <Gold.Chemscore.Metal>
0.0000

> <Gold.Chemscore.Lipo>
108.3887

> <Gold.Chemscore.Internal_Hbond>
0.0000

> <Gold.Chemscore.DEClash>
0.0637

> <Gold.Chemscore.DEInternal>
0.7198

> <Gold.Chemscore.Rot>
1.6951

> <Gold.Chemscore.Internal.Correction>
   9.000000E+99

> <Gold.Chemscore.Hbonds>
donor molecule, donor type, donor heavy atom, donor atom, acceptor molecule, acceptor atom, score
      P1  H  6896  6909       L1    12  1.00

> <Gold.Chemscore.Hbond.Weighted>
-3.3393

> <Gold.Chemscore.Metal.Weighted>
-0.0000

> <Gold.Chemscore.Lipo.Weighted>
-12.6815

> <Gold.Chemscore.Internal_Hbond.Weighted>
0.0000

> <Gold.Chemscore.DEClash.Weighted>
0.0637

> <Gold.Chemscore.DEInternal.Weighted>
0.7198

> <Gold.Chemscore.Rot.Weighted>
4.3395

> <Gold.Chemscore.Internal.Correction.Weighted>
   9.000000E+99

> <Gold.Protein.RotatedTorsions>
[ 6907 6896 6895 6894 ] final  171.32 input  -60.11 | X-H torsion
[ 7974 7965 7964 7962 ] final -105.54 input  175.53 | X-H torsion
[ 8008 7997 7996 7995 ] final  -94.79 input   59.86 | X-H torsion
[ 10167 10162 10161 10158 ] final -106.73 input  -65.29 | X-H torsion
[ 10718 10713 10712 10709 ] final   92.77 input   66.30 | X-H torsion
[ 10763 10752 10751 10750 ] final  160.39 input  -60.55 | X-H torsion
[ 11005 11000 10999 10996 ] final   43.61 input  -57.11 | X-H torsion

> <Gold.Protein.ActiveResidues>
 VAL166  LYS551  ARG553  GLY616  TRP617  ASP618  TYR619  PRO620  LYS621  CYS622 
 ASP623  PHE694  ASN695  SER759  ASP760  ASP761  ALA762  ILE779  LEU786  VAL792 
 PHE793  MET794  SER795  GLU796  ALA797  LYS798  CYS799  TRP800  GLU811  SER814 

> <Gold.Protein.RotatedAtoms>
  151.8021  133.3371  159.3529 H   0  0  0  0  0  0  0  0  0  0  0  0  # atno 6907 bound_to 6896
  150.7355  134.5744  159.5916 H   0  0  0  0  0  0  0  0  0  0  0  0  # atno 6908 bound_to 6896
  152.3135  134.7469  160.0382 H   0  0  0  0  0  0  0  0  0  0  0  0  # atno 6909 bound_to 6896
  145.2291  140.9164  143.3215 H   0  0  0  0  0  0  0  0  0  0  0  0  # atno 7974 bound_to 7965
  154.7529  140.0486  157.0909 H   0  0  0  0  0  0  0  0  0  0  0  0  # atno 8008 bound_to 7997
  155.0034  140.3127  155.4839 H   0  0  0  0  0  0  0  0  0  0  0  0  # atno 8009 bound_to 7997
  156.2889  140.2197  156.5145 H   0  0  0  0  0  0  0  0  0  0  0  0  # atno 8010 bound_to 7997
  140.1846  143.3940  152.1254 H   0  0  0  0  0  0  0  0  0  0  0  0  # atno 10167 bound_to 10162
  157.6957  131.0455  150.3932 H   0  0  0  0  0  0  0  0  0  0  0  0  # atno 10718 bound_to 10713
  154.2467  135.2773  155.2832 H   0  0  0  0  0  0  0  0  0  0  0  0  # atno 10763 bound_to 10752
  154.5499  135.5678  153.6916 H   0  0  0  0  0  0  0  0  0  0  0  0  # atno 10764 bound_to 10752
  152.9988  135.6272  154.2613 H   0  0  0  0  0  0  0  0  0  0  0  0  # atno 10765 bound_to 10752
  140.1628  134.4319  155.8306 H   0  0  0  0  0  0  0  0  0  0  0  0  # atno 11005 bound_to 11000
  144.9693  139.3897  143.6317 LP  0  0  0  0  0  0  0  0  0  0  0  0  # atno 17320 bound_to 7965
  146.3357  139.8783  142.8828 LP  0  0  0  0  0  0  0  0  0  0  0  0  # atno 17321 bound_to 7965
  139.5281  144.7127  151.5153 LP  0  0  0  0  0  0  0  0  0  0  0  0  # atno 17342 bound_to 10162
  140.6497  143.8722  150.6773 LP  0  0  0  0  0  0  0  0  0  0  0  0  # atno 17343 bound_to 10162
  156.4334  130.3976  149.6745 LP  0  0  0  0  0  0  0  0  0  0  0  0  # atno 17370 bound_to 10713
  156.3955  130.7648  151.2652 LP  0  0  0  0  0  0  0  0  0  0  0  0  # atno 17371 bound_to 10713
  141.2211  133.6921  156.7625 LP  0  0  0  0  0  0  0  0  0  0  0  0  # atno 17394 bound_to 11000
  140.2469  134.8570  157.3629 LP  0  0  0  0  0  0  0  0  0  0  0  0  # atno 17395 bound_to 11000

$$$$
