AV-unprocessed.smi:614|AV-procd|sdf|3068|dock8
  -GOLD-   2262023593D 1   1.00000     0.00000
 Structure written by MMmdl.
 44 45  0  0  0  0  0  0  0  0  1 V2000
  151.5311  130.4336  155.4674 C   0  0  0  0  0  0  0  0  0  0  0  0
  151.0580  131.7918  155.3067 N   0  0  0  0  0  0  0  0  0  0  0  0
  151.5223  132.9426  155.9113 C   0  0  0  0  0  0  0  0  0  0  0  0
  150.7679  133.9824  155.4456 C   0  0  0  0  0  0  0  0  0  0  0  0
  149.8599  133.3527  154.5501 C   0  0  0  0  0  0  0  0  0  0  0  0
  148.8944  134.1148  153.8435 N   0  0  0  0  0  0  0  0  0  0  0  0
  147.5746  133.8798  153.7468 C   0  0  0  0  0  0  0  0  0  0  0  0
  146.9794  132.9604  154.3087 O   0  0  0  0  0  0  0  0  0  0  0  0
  146.9832  134.7873  152.9515 N   0  0  0  0  0  0  0  0  0  0  0  0
  145.5682  134.8946  152.5626 C   0  0  1  0  0  0  0  0  0  0  0  0
  144.6746  134.9166  153.8295 C   0  0  0  0  0  0  0  0  0  0  0  0
  145.3506  136.2236  151.7810 C   0  0  0  0  0  0  0  0  0  0  0  0
  143.9892  136.6009  151.7321 O   0  0  0  0  0  0  0  0  0  0  0  0
  145.2289  133.6401  151.6814 C   0  0  0  0  0  0  0  0  0  0  0  0
  146.1917  133.4499  150.4771 C   0  0  0  0  0  0  0  0  0  0  0  0
  145.8702  132.1832  149.6681 C   0  0  0  0  0  0  0  0  0  0  0  0
  144.4184  132.1910  149.1748 C   0  0  0  0  0  0  0  0  0  0  0  0
  143.4484  132.3579  150.3508 C   0  0  0  0  0  0  0  0  0  0  0  0
  143.7655  133.6241  151.1626 C   0  0  0  0  0  0  0  0  0  0  0  0
  150.0323  132.0406  154.4658 N   0  0  0  0  0  0  0  0  0  0  0  0
  152.2408  130.3795  156.2934 H   0  0  0  0  0  0  0  0  0  0  0  0
  152.0249  130.1065  154.5520 H   0  0  0  0  0  0  0  0  0  0  0  0
  150.6916  129.7703  155.6785 H   0  0  0  0  0  0  0  0  0  0  0  0
  152.3424  132.9266  156.6140 H   0  0  0  0  0  0  0  0  0  0  0  0
  150.8554  135.0272  155.7048 H   0  0  0  0  0  0  0  0  0  0  0  0
  149.2502  134.9153  153.3425 H   0  0  0  0  0  0  0  0  0  0  0  0
  147.5857  135.4926  152.5541 H   0  0  0  0  0  0  0  0  0  0  0  0
  143.6232  134.7827  153.5735 H   0  0  0  0  0  0  0  0  0  0  0  0
  144.7506  135.8626  154.3657 H   0  0  0  0  0  0  0  0  0  0  0  0
  144.9450  134.1341  154.5379 H   0  0  0  0  0  0  0  0  0  0  0  0
  145.8996  137.0451  152.2412 H   0  0  0  0  0  0  0  0  0  0  0  0
  145.7268  136.1503  150.7606 H   0  0  0  0  0  0  0  0  0  0  0  0
  143.8527  137.1303  150.9613 H   0  0  0  0  0  0  0  0  0  0  0  0
  145.3498  132.7570  152.3106 H   0  0  0  0  0  0  0  0  0  0  0  0
  146.1457  134.3147  149.8144 H   0  0  0  0  0  0  0  0  0  0  0  0
  147.2245  133.3761  150.8144 H   0  0  0  0  0  0  0  0  0  0  0  0
  146.5490  132.1032  148.8187 H   0  0  0  0  0  0  0  0  0  0  0  0
  146.0433  131.3011  150.2860 H   0  0  0  0  0  0  0  0  0  0  0  0
  144.2760  133.0045  148.4623 H   0  0  0  0  0  0  0  0  0  0  0  0
  144.2007  131.2667  148.6390 H   0  0  0  0  0  0  0  0  0  0  0  0
  142.4232  132.4006  149.9818 H   0  0  0  0  0  0  0  0  0  0  0  0
  143.5065  131.4836  151.0004 H   0  0  0  0  0  0  0  0  0  0  0  0
  143.0606  133.6726  151.9915 H   0  0  0  0  0  0  0  0  0  0  0  0
  143.5745  134.5016  150.5441 H   0  0  0  0  0  0  0  0  0  0  0  0
  1  2  1  0  0  0  0
  1 21  1  0  0  0  0
  1 22  1  0  0  0  0
  1 23  1  0  0  0  0
  2 20  1  0  0  0  0
  2  3  1  0  0  0  0
  3  4  2  0  0  0  0
  3 24  1  0  0  0  0
  4  5  1  0  0  0  0
  4 25  1  0  0  0  0
  5  6  1  0  0  0  0
  5 20  2  0  0  0  0
  6  7  1  0  0  0  0
  6 26  1  0  0  0  0
  7  8  2  0  0  0  0
  7  9  1  0  0  0  0
  9 10  1  0  0  0  0
  9 27  1  0  0  0  0
 10 11  1  0  0  0  0
 10 12  1  0  0  0  0
 10 14  1  0  0  0  0
 11 28  1  0  0  0  0
 11 29  1  0  0  0  0
 11 30  1  0  0  0  0
 12 13  1  0  0  0  0
 12 31  1  0  0  0  0
 12 32  1  0  0  0  0
 13 33  1  0  0  0  0
 14 19  1  0  0  0  0
 14 15  1  0  0  0  0
 14 34  1  0  0  0  0
 15 16  1  0  0  0  0
 15 35  1  0  0  0  0
 15 36  1  0  0  0  0
 16 17  1  0  0  0  0
 16 37  1  0  0  0  0
 16 38  1  0  0  0  0
 17 18  1  0  0  0  0
 17 39  1  0  0  0  0
 17 40  1  0  0  0  0
 18 19  1  0  0  0  0
 18 41  1  0  0  0  0
 18 42  1  0  0  0  0
 19 43  1  0  0  0  0
 19 44  1  0  0  0  0
M  END
> <s_m_source_file>
AV-unprocessed.smi

> <i_m_source_file_index>
614

> <i_lp_mmshare_version>
43012

> <i_f3d_flags>
0

> <s_epik_input>
W0NIM11uMVtjSF1bY0hdYyhuMSlbTkhdQyg9TylbTkhdW0NAQF0oW0NIM10pKFtDSDJdW09IXSlbQ0hdMltDSDJdW0NIMl1bQ0gyXVtDSDJdW0NIMl0y

> <s_epik_cmdline>
J2VwaWtfcHl0aG9uJywgJy1waCcsICc3LjAnLCAnLXRuJywgJzgnLCAnLW1hJywgJzIwMCcsICctbWV0YWxfYmluZGluZycsICctaW1hZScsICc8aW5maWxlLm1hZT4nLCAnLW9tYWUnLCAnPG91dGZpbGUubWFlPic=

> <r_lp_tautomer_probability>
1

> <r_epik_Ionization_Penalty>
3.66621e-05

> <r_epik_Ionization_Penalty_Charging>
0

> <r_epik_Ionization_Penalty_Neutral>
3.66621e-05

> <r_epik_State_Penalty>
-0

> <r_epik_Charging_Adjusted_Penalty>
0

> <i_epik_Tot_Q>
0

> <i_epik_Tot_abs_Q>
0

> <r_epik_Metal_State_Penalty>
-0

> <b_epik_Metal_Only>
0

> <s_lp_Force_Field>
OPLS_2005

> <r_lp_Energy>
18.5246

> <b_lp_Chiralities_Consistent>
1

> <s_lp_Variant>
AV-unprocessed.smi:614-1

> <Gold.Version>
5.8.1

> <Gold.Id.Protein>
6NUR|6NUR_protein|mol2

> <Gold.PLP.Fitness>
41.6924

> <Gold.PLP.PLP>
-34.4569

> <Gold.PLP.part.hbond>
-3.0000

> <Gold.PLP.part.metal>
0.0000

> <Gold.PLP.part.buried>
-4.5991

> <Gold.PLP.part.nonpolar>
-27.5174

> <Gold.PLP.part.repulsive>
0.0659

> <Gold.PLP.ligand.clash>
0.0000

> <Gold.PLP.ligand.torsion>
0.7862

> <Gold.PLP.Chemscore.Hbond>
2.9280

> <Gold.PLP.Chemscore.CHOScore>
0.0000

> <Gold.PLP.Chemscore.Metal>
0.0000

> <Gold.Chemscore.Hbonds>
donor molecule, donor type, donor heavy atom, donor atom, acceptor molecule, acceptor atom, score
      L1  H     6    26       P1  7948  0.66
      L1  H     9    27       P1  7948  1.00
      L1  H    13    33       P1 10171  1.00

> <Gold.PLP.Chemscore.Internal.Correction>
0.0240

> <Gold.Rescore>
     Score         DG    S(hbond)    S(metal)    S(lipo)     H(rot)  DE(clash)    DE(int)     intcor
     16.54     -17.38       2.32        0.00      80.91       2.07       0.05       0.79       ----

> <Gold.Chemscore.Fitness>
16.5433

> <Gold.Chemscore.DG>
-17.3809

> <Gold.Chemscore.ZeroCoef>
-5.4800

> <Gold.Chemscore.Hbond>
2.3164

> <Gold.Chemscore.Metal>
0.0000

> <Gold.Chemscore.Lipo>
80.9053

> <Gold.Chemscore.Internal_Hbond>
0.0000

> <Gold.Chemscore.DEClash>
0.0476

> <Gold.Chemscore.DEInternal>
0.7901

> <Gold.Chemscore.Rot>
2.0710

> <Gold.Chemscore.Internal.Correction>
   9.000000E+99

> <Gold.Chemscore.Hbonds>
donor molecule, donor type, donor heavy atom, donor atom, acceptor molecule, acceptor atom, score
      L1  H     6    26       P1  7948  0.07
      L1  H     9    27       P1  7948  0.99
      L1  H    13    33       P1 10171  1.00

> <Gold.Chemscore.Hbond.Weighted>
-7.7367

> <Gold.Chemscore.Metal.Weighted>
-0.0000

> <Gold.Chemscore.Lipo.Weighted>
-9.4659

> <Gold.Chemscore.Internal_Hbond.Weighted>
0.0000

> <Gold.Chemscore.DEClash.Weighted>
0.0476

> <Gold.Chemscore.DEInternal.Weighted>
0.7901

> <Gold.Chemscore.Rot.Weighted>
5.3017

> <Gold.Chemscore.Internal.Correction.Weighted>
   9.000000E+99

> <Gold.Protein.RotatedTorsions>
[ 6907 6896 6895 6894 ] final   12.25 input  -60.11 | X-H torsion
[ 7974 7965 7964 7962 ] final   41.98 input  175.53 | X-H torsion
[ 8008 7997 7996 7995 ] final -112.75 input   59.86 | X-H torsion
[ 10167 10162 10161 10158 ] final  156.12 input  -65.29 | X-H torsion
[ 10718 10713 10712 10709 ] final   55.03 input   66.30 | X-H torsion
[ 10763 10752 10751 10750 ] final -136.43 input  -60.55 | X-H torsion
[ 11005 11000 10999 10996 ] final  -30.41 input  -57.11 | X-H torsion

> <Gold.Protein.ActiveResidues>
 VAL166  LYS551  ARG553  GLY616  TRP617  ASP618  TYR619  PRO620  LYS621  CYS622 
 ASP623  PHE694  ASN695  SER759  ASP760  ASP761  ALA762  ILE779  LEU786  VAL792 
 PHE793  MET794  SER795  GLU796  ALA797  LYS798  CYS799  TRP800  GLU811  SER814 

> <Gold.Protein.RotatedAtoms>
  151.7673  135.0795  160.0354 H   0  0  0  0  0  0  0  0  0  0  0  0  # atno 6907 bound_to 6896
  152.3313  133.5957  159.5820 H   0  0  0  0  0  0  0  0  0  0  0  0  # atno 6908 bound_to 6896
  150.7424  133.9780  159.3609 H   0  0  0  0  0  0  0  0  0  0  0  0  # atno 6909 bound_to 6896
  146.0779  139.5353  142.9556 H   0  0  0  0  0  0  0  0  0  0  0  0  # atno 7974 bound_to 7965
  155.0101  140.0393  157.2395 H   0  0  0  0  0  0  0  0  0  0  0  0  # atno 8008 bound_to 7997
  154.7468  140.2759  155.6303 H   0  0  0  0  0  0  0  0  0  0  0  0  # atno 8009 bound_to 7997
  156.2876  140.2655  156.2210 H   0  0  0  0  0  0  0  0  0  0  0  0  # atno 8010 bound_to 7997
  139.4821  144.5038  151.8129 H   0  0  0  0  0  0  0  0  0  0  0  0  # atno 10167 bound_to 10162
  157.5310  130.8630  149.8687 H   0  0  0  0  0  0  0  0  0  0  0  0  # atno 10718 bound_to 10713
  154.8684  135.3673  154.5059 H   0  0  0  0  0  0  0  0  0  0  0  0  # atno 10763 bound_to 10752
  153.5697  135.7021  153.5515 H   0  0  0  0  0  0  0  0  0  0  0  0  # atno 10764 bound_to 10752
  153.3553  135.4061  155.1640 H   0  0  0  0  0  0  0  0  0  0  0  0  # atno 10765 bound_to 10752
  140.9380  133.7296  156.1034 H   0  0  0  0  0  0  0  0  0  0  0  0  # atno 11005 bound_to 11000
  145.6273  141.0311  143.1882 LP  0  0  0  0  0  0  0  0  0  0  0  0  # atno 17320 bound_to 7965
  144.7273  139.7834  143.7360 LP  0  0  0  0  0  0  0  0  0  0  0  0  # atno 17321 bound_to 7965
  140.4533  144.1824  150.5899 LP  0  0  0  0  0  0  0  0  0  0  0  0  # atno 17342 bound_to 10162
  140.4561  143.2467  151.9282 LP  0  0  0  0  0  0  0  0  0  0  0  0  # atno 17343 bound_to 10162
  156.0422  130.3736  150.1406 LP  0  0  0  0  0  0  0  0  0  0  0  0  # atno 17370 bound_to 10713
  156.9591  130.9799  151.3483 LP  0  0  0  0  0  0  0  0  0  0  0  0  # atno 17371 bound_to 10713
  140.7772  134.3766  157.5495 LP  0  0  0  0  0  0  0  0  0  0  0  0  # atno 17394 bound_to 11000
  139.8813  134.9059  156.2910 LP  0  0  0  0  0  0  0  0  0  0  0  0  # atno 17395 bound_to 11000

$$$$
