AV-unprocessed.smi:1587|AV-procd|sdf|6387|dock7
  -GOLD-   22720 7 23D 1   1.00000     0.00000
 Structure written by MMmdl.
 36 37  0  0  0  0  0  0  0  0  1 V2000
  144.5904  136.8044  152.0845 O   0  0  0  0  0  0  0  0  0  0  0  0
  145.7923  136.5378  152.0633 C   0  0  0  0  0  0  0  0  0  0  0  0
  146.7424  137.3787  152.4977 N   0  0  0  0  0  0  0  0  0  0  0  0
  146.4959  138.7037  153.0536 C   0  0  0  0  0  0  0  0  0  0  0  0
  146.7301  138.7274  154.5759 C   0  0  0  0  0  0  0  0  0  0  0  0
  148.0692  139.1453  154.9861 N   0  0  0  0  0  0  0  0  0  0  0  0
  149.1189  138.2910  154.4344 C   0  0  0  0  0  0  0  0  0  0  0  0
  150.5232  138.7644  154.8495 C   0  0  0  0  0  0  0  0  0  0  0  0
  150.7094  140.1199  154.4557 O   0  0  0  0  0  0  0  0  0  0  0  0
  149.7327  140.9915  155.0154 C   0  0  0  0  0  0  0  0  0  0  0  0
  148.3281  140.5268  154.5938 C   0  0  0  0  0  0  0  0  0  0  0  0
  146.3271  135.3886  151.6140 N   0  0  0  0  0  0  0  0  0  0  0  0
  145.6561  134.2635  151.0643 C   0  0  0  0  0  0  0  0  0  0  0  0
  146.4995  133.2830  150.4942 C   0  0  0  0  0  0  0  0  0  0  0  0
  145.9314  132.1290  149.9204 C   0  0  0  0  0  0  0  0  0  0  0  0
  144.5326  131.9848  149.9311 C   0  0  0  0  0  0  0  0  0  0  0  0
  143.7653  133.0079  150.5178 C   0  0  0  0  0  0  0  0  0  0  0  0
  144.3076  134.1148  151.0682 N   0  0  0  0  0  0  0  0  0  0  0  0
  147.7052  137.0807  152.4430 H   0  0  0  0  0  0  0  0  0  0  0  0
  147.1294  139.4410  152.5575 H   0  0  0  0  0  0  0  0  0  0  0  0
  145.4657  138.9663  152.8160 H   0  0  0  0  0  0  0  0  0  0  0  0
  145.9835  139.3656  155.0512 H   0  0  0  0  0  0  0  0  0  0  0  0
  146.5491  137.7218  154.9582 H   0  0  0  0  0  0  0  0  0  0  0  0
  148.9873  137.2630  154.7699 H   0  0  0  0  0  0  0  0  0  0  0  0
  149.0508  138.2769  153.3455 H   0  0  0  0  0  0  0  0  0  0  0  0
  150.6585  138.6703  155.9280 H   0  0  0  0  0  0  0  0  0  0  0  0
  151.2868  138.1473  154.3758 H   0  0  0  0  0  0  0  0  0  0  0  0
  149.8256  141.0046  156.1026 H   0  0  0  0  0  0  0  0  0  0  0  0
  149.9183  142.0069  154.6656 H   0  0  0  0  0  0  0  0  0  0  0  0
  148.2246  140.6301  153.5125 H   0  0  0  0  0  0  0  0  0  0  0  0
  147.5832  141.1854  155.0419 H   0  0  0  0  0  0  0  0  0  0  0  0
  147.3316  135.3094  151.6699 H   0  0  0  0  0  0  0  0  0  0  0  0
  147.5725  133.4090  150.4949 H   0  0  0  0  0  0  0  0  0  0  0  0
  146.5585  131.3681  149.4801 H   0  0  0  0  0  0  0  0  0  0  0  0
  144.0598  131.1141  149.5012 H   0  0  0  0  0  0  0  0  0  0  0  0
  142.6881  132.9365  150.5457 H   0  0  0  0  0  0  0  0  0  0  0  0
  1  2  2  0  0  0  0
  2  3  1  0  0  0  0
  2 12  1  0  0  0  0
  3  4  1  0  0  0  0
  3 19  1  0  0  0  0
  4  5  1  0  0  0  0
  4 20  1  0  0  0  0
  4 21  1  0  0  0  0
  5  6  1  0  0  0  0
  5 22  1  0  0  0  0
  5 23  1  0  0  0  0
  6 11  1  0  0  0  0
  6  7  1  0  0  0  0
  7  8  1  0  0  0  0
  7 24  1  0  0  0  0
  7 25  1  0  0  0  0
  8  9  1  0  0  0  0
  8 26  1  0  0  0  0
  8 27  1  0  0  0  0
  9 10  1  0  0  0  0
 10 11  1  0  0  0  0
 10 28  1  0  0  0  0
 10 29  1  0  0  0  0
 11 30  1  0  0  0  0
 11 31  1  0  0  0  0
 12 13  1  0  0  0  0
 12 32  1  0  0  0  0
 13 18  1  0  0  0  0
 13 14  2  0  0  0  0
 14 15  1  0  0  0  0
 14 33  1  0  0  0  0
 15 16  2  0  0  0  0
 15 34  1  0  0  0  0
 16 17  1  0  0  0  0
 16 35  1  0  0  0  0
 17 18  2  0  0  0  0
 17 36  1  0  0  0  0
M  END
> <s_m_source_file>
AV-unprocessed.smi

> <i_m_source_file_index>
1587

> <i_lp_mmshare_version>
43012

> <i_f3d_flags>
0

> <s_epik_input>
bjFbY0hdW2NIXVtjSF1bY0hdYzFbTkhdQyg9TylbTkhdW0NIMl1bQ0gyXU4yW0NIMl1bQ0gyXU9bQ0gyXVtDSDJdMg==

> <s_epik_cmdline>
J2VwaWtfcHl0aG9uJywgJy1waCcsICc3LjAnLCAnLXRuJywgJzgnLCAnLW1hJywgJzIwMCcsICctbWV0YWxfYmluZGluZycsICctaW1hZScsICc8aW5maWxlLm1hZT4nLCAnLW9tYWUnLCAnPG91dGZpbGUubWFlPic=

> <r_epik_Ionization_Penalty>
0.266037

> <r_epik_Ionization_Penalty_Charging>
0

> <r_epik_Ionization_Penalty_Neutral>
0.266037

> <r_epik_State_Penalty>
0.257924

> <r_epik_Charging_Adjusted_Penalty>
0.257924

> <i_epik_Tot_Q>
0

> <i_epik_Tot_abs_Q>
0

> <r_epik_Metal_State_Penalty>
0.257923

> <b_epik_Metal_Only>
0

> <s_lp_Force_Field>
OPLS_2005

> <r_lp_Energy>
22.0776

> <b_lp_Chiralities_Consistent>
1

> <s_lp_Variant>
AV-unprocessed.smi:1587-1

> <Gold.Version>
5.8.1

> <Gold.Id.Protein>
6NUR|6NUR_protein|mol2

> <Gold.PLP.Fitness>
41.5985

> <Gold.PLP.PLP>
-30.4237

> <Gold.PLP.part.hbond>
-2.9475

> <Gold.PLP.part.metal>
0.0000

> <Gold.PLP.part.buried>
-4.3070

> <Gold.PLP.part.nonpolar>
-24.8407

> <Gold.PLP.part.repulsive>
1.6359

> <Gold.PLP.ligand.clash>
0.0000

> <Gold.PLP.ligand.torsion>
0.3187

> <Gold.PLP.Chemscore.Hbond>
2.9353

> <Gold.PLP.Chemscore.CHOScore>
0.9973

> <Gold.PLP.Chemscore.Metal>
0.0000

> <Gold.Chemscore.Hbonds>
donor molecule, donor type, donor heavy atom, donor atom, acceptor molecule, acceptor atom, score
      L1  H     3    19       P1  7948  1.00
      L1  H    12    32       P1  7948  0.94
      P1  H  7989  7998       L1     9  0.99
      L1  C    17    36       P1 10186  1.00

> <Gold.PLP.Chemscore.Internal.Correction>
0.0144

> <Gold.Rescore>
     Score         DG    S(hbond)    S(metal)    S(lipo)     H(rot)  DE(clash)    DE(int)     intcor
     17.62     -19.29       2.87        0.00      69.92       1.55       0.03       1.64       ----

> <Gold.Chemscore.Fitness>
17.6153

> <Gold.Chemscore.DG>
-19.2857

> <Gold.Chemscore.ZeroCoef>
-5.4800

> <Gold.Chemscore.Hbond>
2.8710

> <Gold.Chemscore.Metal>
0.0000

> <Gold.Chemscore.Lipo>
69.9184

> <Gold.Chemscore.Internal_Hbond>
0.0000

> <Gold.Chemscore.DEClash>
0.0267

> <Gold.Chemscore.DEInternal>
1.6436

> <Gold.Chemscore.Rot>
1.5484

> <Gold.Chemscore.Internal.Correction>
   9.000000E+99

> <Gold.Chemscore.Hbonds>
donor molecule, donor type, donor heavy atom, donor atom, acceptor molecule, acceptor atom, score
      L1  H     3    19       P1  7948  0.97
      L1  H    12    32       P1  7948  0.87
      P1  H  7989  7998       L1     9  0.72

> <Gold.Chemscore.Hbond.Weighted>
-9.5891

> <Gold.Chemscore.Metal.Weighted>
-0.0000

> <Gold.Chemscore.Lipo.Weighted>
-8.1805

> <Gold.Chemscore.Internal_Hbond.Weighted>
0.0000

> <Gold.Chemscore.DEClash.Weighted>
0.0267

> <Gold.Chemscore.DEInternal.Weighted>
1.6436

> <Gold.Chemscore.Rot.Weighted>
3.9639

> <Gold.Chemscore.Internal.Correction.Weighted>
   9.000000E+99

> <Gold.Protein.RotatedTorsions>
[ 6907 6896 6895 6894 ] final   90.50 input  -60.11 | X-H torsion
[ 7974 7965 7964 7962 ] final  -98.51 input  175.53 | X-H torsion
[ 8008 7997 7996 7995 ] final -110.12 input   59.86 | X-H torsion
[ 10167 10162 10161 10158 ] final -179.17 input  -65.29 | X-H torsion
[ 10718 10713 10712 10709 ] final  -74.28 input   66.30 | X-H torsion
[ 10763 10752 10751 10750 ] final  126.61 input  -60.55 | X-H torsion
[ 11005 11000 10999 10996 ] final  133.71 input  -57.11 | X-H torsion

> <Gold.Protein.ActiveResidues>
 VAL166  LYS551  ARG553  GLY616  TRP617  ASP618  TYR619  PRO620  LYS621  CYS622 
 ASP623  PHE694  ASN695  SER759  ASP760  ASP761  ALA762  ILE779  LEU786  VAL792 
 PHE793  MET794  SER795  GLU796  ALA797  LYS798  CYS799  TRP800  GLU811  SER814 

> <Gold.Protein.RotatedAtoms>
  152.5445  134.1801  159.8631 H   0  0  0  0  0  0  0  0  0  0  0  0  # atno 6907 bound_to 6896
  151.1805  133.4721  159.2601 H   0  0  0  0  0  0  0  0  0  0  0  0  # atno 6908 bound_to 6896
  151.1184  135.0077  159.8582 H   0  0  0  0  0  0  0  0  0  0  0  0  # atno 6909 bound_to 6896
  145.3197  140.9419  143.2722 H   0  0  0  0  0  0  0  0  0  0  0  0  # atno 7974 bound_to 7965
  154.9697  140.0398  157.2228 H   0  0  0  0  0  0  0  0  0  0  0  0  # atno 8008 bound_to 7997
  154.7813  140.2819  155.6039 H   0  0  0  0  0  0  0  0  0  0  0  0  # atno 8009 bound_to 7997
  156.2936  140.2591  156.2639 H   0  0  0  0  0  0  0  0  0  0  0  0  # atno 8010 bound_to 7997
  139.5398  144.2394  152.0872 H   0  0  0  0  0  0  0  0  0  0  0  0  # atno 10167 bound_to 10162
  156.0248  130.4413  150.2869 H   0  0  0  0  0  0  0  0  0  0  0  0  # atno 10718 bound_to 10713
  153.6960  135.3291  155.3213 H   0  0  0  0  0  0  0  0  0  0  0  0  # atno 10763 bound_to 10752
  154.8426  135.4443  154.1459 H   0  0  0  0  0  0  0  0  0  0  0  0  # atno 10764 bound_to 10752
  153.2514  135.6981  153.7754 H   0  0  0  0  0  0  0  0  0  0  0  0  # atno 10765 bound_to 10752
  139.9869  134.9529  156.9764 H   0  0  0  0  0  0  0  0  0  0  0  0  # atno 11005 bound_to 11000
  144.8949  139.4725  143.6660 LP  0  0  0  0  0  0  0  0  0  0  0  0  # atno 17320 bound_to 7965
  146.3087  139.7669  142.9036 LP  0  0  0  0  0  0  0  0  0  0  0  0  # atno 17321 bound_to 7965
  140.1871  144.4788  150.6498 LP  0  0  0  0  0  0  0  0  0  0  0  0  # atno 17342 bound_to 10162
  140.6623  143.2256  151.5827 LP  0  0  0  0  0  0  0  0  0  0  0  0  # atno 17343 bound_to 10162
  157.0972  131.0186  151.3099 LP  0  0  0  0  0  0  0  0  0  0  0  0  # atno 17370 bound_to 10713
  157.4808  130.7764  149.7412 LP  0  0  0  0  0  0  0  0  0  0  0  0  # atno 17371 bound_to 10713
  140.4985  134.1121  155.7246 LP  0  0  0  0  0  0  0  0  0  0  0  0  # atno 17394 bound_to 11000
  141.1532  133.8930  157.2044 LP  0  0  0  0  0  0  0  0  0  0  0  0  # atno 17395 bound_to 11000

$$$$
