AV-unprocessed.smi:989|AV-procd|sdf|4325|dock2
  -GOLD-   22720 2233D 1   1.00000     0.00000
 Structure written by MMmdl.
 26 27  0  0  0  0  0  0  0  0  2 V2000
  153.8932  135.4589  157.5004 O   0  0  0  0  0  0  0  0  0  0  0  0
  154.1278  136.2660  158.4267 C   0  0  0  0  0  0  0  0  0  0  0  0
  153.7773  136.1233  159.6194 O   0  5  0  0  0  0  0  0  0  0  0  0
  154.8880  137.5446  158.0644 C   0  0  0  0  0  0  0  0  0  0  0  0
  154.7095  138.5377  159.1780 C   0  0  0  0  0  0  0  0  0  0  0  0
  155.2076  138.4403  160.4553 C   0  0  0  0  0  0  0  0  0  0  0  0
  154.7703  139.8111  161.4376 S   0  0  0  0  0  0  0  0  0  0  0  0
  153.8890  140.4705  160.0568 C   0  0  0  0  0  0  0  0  0  0  0  0
  153.2001  141.7209  160.0356 N   0  0  0  0  0  0  0  0  0  0  0  0
  152.4894  142.0733  158.7928 C   0  0  0  0  0  0  0  0  0  0  0  0
  152.5205  143.5811  158.5334 C   0  0  0  0  0  0  0  0  0  0  0  0
  152.0517  144.3167  159.7863 C   0  0  0  0  0  0  0  0  0  0  0  0
  152.6813  143.7619  160.9795 N   0  0  0  0  0  0  0  0  0  0  0  0
  153.1319  142.5020  161.1516 C   0  0  0  0  0  0  0  0  0  0  0  0
  153.5006  142.1337  162.2666 O   0  0  0  0  0  0  0  0  0  0  0  0
  153.9559  139.6983  158.9669 N   0  0  0  0  0  0  0  0  0  0  0  0
  155.9432  137.3200  157.9014 H   0  0  0  0  0  0  0  0  0  0  0  0
  154.4995  137.9386  157.1246 H   0  0  0  0  0  0  0  0  0  0  0  0
  155.8146  137.6496  160.8701 H   0  0  0  0  0  0  0  0  0  0  0  0
  152.9257  141.5616  157.9336 H   0  0  0  0  0  0  0  0  0  0  0  0
  151.4578  141.7278  158.8742 H   0  0  0  0  0  0  0  0  0  0  0  0
  153.5397  143.8854  158.2906 H   0  0  0  0  0  0  0  0  0  0  0  0
  151.9003  143.8422  157.6755 H   0  0  0  0  0  0  0  0  0  0  0  0
  152.2753  145.3813  159.7141 H   0  0  0  0  0  0  0  0  0  0  0  0
  150.9708  144.2217  159.8953 H   0  0  0  0  0  0  0  0  0  0  0  0
  152.6852  144.3592  161.7938 H   0  0  0  0  0  0  0  0  0  0  0  0
  1  2  2  0  0  0  0
  2  3  1  0  0  0  0
  2  4  1  0  0  0  0
  4  5  1  0  0  0  0
  4 17  1  0  0  0  0
  4 18  1  0  0  0  0
  5 16  1  0  0  0  0
  5  6  2  0  0  0  0
  6  7  1  0  0  0  0
  6 19  1  0  0  0  0
  7  8  1  0  0  0  0
  8  9  1  0  0  0  0
  8 16  2  0  0  0  0
  9 14  1  0  0  0  0
  9 10  1  0  0  0  0
 10 11  1  0  0  0  0
 10 20  1  0  0  0  0
 10 21  1  0  0  0  0
 11 12  1  0  0  0  0
 11 22  1  0  0  0  0
 11 23  1  0  0  0  0
 12 13  1  0  0  0  0
 12 24  1  0  0  0  0
 12 25  1  0  0  0  0
 13 14  1  0  0  0  0
 13 26  1  0  0  0  0
 14 15  2  0  0  0  0
M  CHG  1   3  -1
M  END
> <s_m_source_file>
AV-unprocessed.smi

> <i_m_source_file_index>
989

> <i_lp_mmshare_version>
43012

> <i_f3d_flags>
0

> <s_epik_input>
Tz1DKFtPSF0pW0NIMl1jMVtjSF1zYyhuMSlOMltDSDJdW0NIMl1bQ0gyXVtOSF1DMj1P

> <s_epik_cmdline>
J2VwaWtfcHl0aG9uJywgJy1waCcsICc3LjAnLCAnLXRuJywgJzgnLCAnLW1hJywgJzIwMCcsICctbWV0YWxfYmluZGluZycsICctaW1hZScsICc8aW5maWxlLm1hZT4nLCAnLW9tYWUnLCAnPG91dGZpbGUubWFlPic=

> <r_lp_tautomer_probability>
1

> <r_epik_Ionization_Penalty>
0.00100312

> <r_epik_Ionization_Penalty_Charging>
0.000722293

> <r_epik_Ionization_Penalty_Neutral>
0.000280832

> <r_epik_State_Penalty>
0.000460635

> <r_epik_Charging_Adjusted_Penalty>
0.00118293

> <i_epik_Tot_Q>
-1

> <i_epik_Tot_abs_Q>
1

> <r_epik_Metal_State_Penalty>
-0

> <b_epik_Metal_Only>
0

> <s_lp_Force_Field>
OPLS_2005

> <r_lp_Energy>
35.7011

> <b_lp_Chiralities_Consistent>
1

> <s_lp_Variant>
AV-unprocessed.smi:989-1

> <Gold.Version>
5.8.1

> <Gold.Id.Protein>
6NUR|6NUR_protein|mol2

> <Gold.PLP.Fitness>
41.8033

> <Gold.PLP.PLP>
-27.3473

> <Gold.PLP.part.hbond>
-3.1351

> <Gold.PLP.part.metal>
0.0000

> <Gold.PLP.part.buried>
-3.5883

> <Gold.PLP.part.nonpolar>
-20.7713

> <Gold.PLP.part.repulsive>
0.0653

> <Gold.PLP.ligand.clash>
0.0000

> <Gold.PLP.ligand.torsion>
0.2758

> <Gold.PLP.Chemscore.Hbond>
5.0000

> <Gold.PLP.Chemscore.CHOScore>
0.0000

> <Gold.PLP.Chemscore.Metal>
0.0000

> <Gold.Chemscore.Hbonds>
donor molecule, donor type, donor heavy atom, donor atom, acceptor molecule, acceptor atom, score
      P1  H  6896  6907       L1     3  2.00
      P1  H  7997  8009       L1    16  0.75
      P1  H 10752 10764       L1     1  1.59

> <Gold.PLP.Chemscore.Internal.Correction>
0.0076

> <Gold.Rescore>
     Score         DG    S(hbond)    S(metal)    S(lipo)     H(rot)  DE(clash)    DE(int)     intcor
     13.10     -16.43       2.68        0.00      50.85       1.54       0.26       3.07       ----

> <Gold.Chemscore.Fitness>
13.0969

> <Gold.Chemscore.DG>
-16.4265

> <Gold.Chemscore.ZeroCoef>
-5.4800

> <Gold.Chemscore.Hbond>
2.6753

> <Gold.Chemscore.Metal>
0.0000

> <Gold.Chemscore.Lipo>
50.8518

> <Gold.Chemscore.Internal_Hbond>
0.0000

> <Gold.Chemscore.DEClash>
0.2566

> <Gold.Chemscore.DEInternal>
3.0731

> <Gold.Chemscore.Rot>
1.5386

> <Gold.Chemscore.Internal.Correction>
   9.000000E+99

> <Gold.Chemscore.Hbonds>
donor molecule, donor type, donor heavy atom, donor atom, acceptor molecule, acceptor atom, score
      P1  H  6896  6907       L1     3  0.88
      P1  H  7997  8009       L1    16  0.10
      P1  H 10752 10764       L1     1  0.79

> <Gold.Chemscore.Hbond.Weighted>
-8.9357

> <Gold.Chemscore.Metal.Weighted>
-0.0000

> <Gold.Chemscore.Lipo.Weighted>
-5.9497

> <Gold.Chemscore.Internal_Hbond.Weighted>
0.0000

> <Gold.Chemscore.DEClash.Weighted>
0.2566

> <Gold.Chemscore.DEInternal.Weighted>
3.0731

> <Gold.Chemscore.Rot.Weighted>
3.9388

> <Gold.Chemscore.Internal.Correction.Weighted>
   9.000000E+99

> <Gold.Protein.RotatedTorsions>
[ 6907 6896 6895 6894 ] final   62.52 input  -60.11 | X-H torsion
[ 7974 7965 7964 7962 ] final  -69.97 input  175.53 | X-H torsion
[ 8008 7997 7996 7995 ] final  152.41 input   59.86 | X-H torsion
[ 10167 10162 10161 10158 ] final  -37.64 input  -65.29 | X-H torsion
[ 10718 10713 10712 10709 ] final  149.62 input   66.30 | X-H torsion
[ 10763 10752 10751 10750 ] final    9.78 input  -60.55 | X-H torsion
[ 11005 11000 10999 10996 ] final   67.90 input  -57.11 | X-H torsion

> <Gold.Protein.ActiveResidues>
 VAL166  LYS551  ARG553  GLY616  TRP617  ASP618  TYR619  PRO620  LYS621  CYS622 
 ASP623  PHE694  ASN695  SER759  ASP760  ASP761  ALA762  ILE779  LEU786  VAL792 
 PHE793  MET794  SER795  GLU796  ALA797  LYS798  CYS799  TRP800  GLU811  SER814 

> <Gold.Protein.RotatedAtoms>
  152.4179  134.6008  159.9999 H   0  0  0  0  0  0  0  0  0  0  0  0  # atno 6907 bound_to 6896
  151.6166  133.3337  159.3087 H   0  0  0  0  0  0  0  0  0  0  0  0  # atno 6908 bound_to 6896
  150.8067  134.7236  159.6717 H   0  0  0  0  0  0  0  0  0  0  0  0  # atno 6909 bound_to 6896
  145.6970  140.9131  143.0751 H   0  0  0  0  0  0  0  0  0  0  0  0  # atno 7974 bound_to 7965
  156.2630  140.2021  156.6329 H   0  0  0  0  0  0  0  0  0  0  0  0  # atno 8008 bound_to 7997
  154.6669  140.0554  157.0147 H   0  0  0  0  0  0  0  0  0  0  0  0  # atno 8009 bound_to 7997
  155.1194  140.3223  155.4504 H   0  0  0  0  0  0  0  0  0  0  0  0  # atno 8010 bound_to 7997
  140.7113  143.3329  151.2529 H   0  0  0  0  0  0  0  0  0  0  0  0  # atno 10167 bound_to 10162
  157.2938  131.0858  151.1442 H   0  0  0  0  0  0  0  0  0  0  0  0  # atno 10718 bound_to 10713
  153.2103  135.6868  153.8122 H   0  0  0  0  0  0  0  0  0  0  0  0  # atno 10763 bound_to 10752
  153.7357  135.3246  155.3295 H   0  0  0  0  0  0  0  0  0  0  0  0  # atno 10764 bound_to 10752
  154.8218  135.4646  154.0907 H   0  0  0  0  0  0  0  0  0  0  0  0  # atno 10765 bound_to 10752
  139.9743  134.6848  156.0384 H   0  0  0  0  0  0  0  0  0  0  0  0  # atno 11005 bound_to 11000
  144.6980  139.8897  143.7452 LP  0  0  0  0  0  0  0  0  0  0  0  0  # atno 17320 bound_to 7965
  146.0832  139.3819  143.0452 LP  0  0  0  0  0  0  0  0  0  0  0  0  # atno 17321 bound_to 7965
  139.6816  143.9845  152.2811 LP  0  0  0  0  0  0  0  0  0  0  0  0  # atno 17342 bound_to 10162
  139.9477  144.6641  150.8203 LP  0  0  0  0  0  0  0  0  0  0  0  0  # atno 17343 bound_to 10162
  157.2828  130.6758  149.6074 LP  0  0  0  0  0  0  0  0  0  0  0  0  # atno 17370 bound_to 10713
  155.9668  130.4445  150.5462 LP  0  0  0  0  0  0  0  0  0  0  0  0  # atno 17371 bound_to 10713
  141.1421  133.6562  156.3761 LP  0  0  0  0  0  0  0  0  0  0  0  0  # atno 17394 bound_to 11000
  140.5227  134.6289  157.5323 LP  0  0  0  0  0  0  0  0  0  0  0  0  # atno 17395 bound_to 11000

$$$$
