AV-unprocessed.smi:1385|AV-procd|sdf|5631|dock10
  -GOLD-   22720 5243D 1   1.00000     0.00000
 Structure written by MMmdl.
 37 38  0  0  0  0  0  0  0  0  2 V2000
  158.6043  136.4336  151.3992 C   0  0  0  0  0  0  0  0  0  0  0  0
  157.4331  136.9349  152.1727 C   0  0  0  0  0  0  0  0  0  0  0  0
  156.3237  136.2140  152.3520 N   0  0  0  0  0  0  0  0  0  0  0  0
  155.3752  136.8927  153.1033 N   0  0  0  0  0  0  0  0  0  0  0  0
  155.7742  138.1191  153.4704 C   0  0  0  0  0  0  0  0  0  0  0  0
  155.0039  138.9393  154.2039 N   0  5  0  0  0  0  0  0  0  0  0  0
  153.7104  138.6208  154.4373 C   0  0  0  0  0  0  0  0  0  0  0  0
  153.1292  137.6019  154.0564 O   0  0  0  0  0  0  0  0  0  0  0  0
  153.0501  139.5393  155.1570 N   0  0  0  0  0  0  0  0  0  0  0  0
  151.6515  139.4624  155.5698 C   0  0  0  0  0  0  0  0  0  0  0  0
  150.7570  139.2053  154.3497 C   0  0  0  0  0  0  0  0  0  0  0  0
  149.2692  139.2346  154.7404 C   0  0  0  0  0  0  0  0  0  0  0  0
  148.9160  140.5265  155.3387 N   0  0  0  0  0  0  0  0  0  0  0  0
  147.4569  140.5671  155.5858 C   0  0  0  0  0  0  0  0  0  0  0  0
  146.5981  140.4512  154.3211 C   0  0  0  0  0  0  0  0  0  0  0  0
  145.2722  140.4641  154.4793 N   0  0  0  0  0  0  0  0  0  0  0  0
  147.1271  140.3580  153.2156 O   0  0  0  0  0  0  0  0  0  0  0  0
  149.7023  140.7530  156.5608 C   0  0  0  0  0  0  0  0  0  0  0  0
  151.2078  140.7701  156.2445 C   0  0  0  0  0  0  0  0  0  0  0  0
  157.3992  138.5240  152.9180 S   0  0  0  0  0  0  0  0  0  0  0  0
  158.4220  136.5500  150.3309 H   0  0  0  0  0  0  0  0  0  0  0  0
  158.7767  135.3786  151.6143 H   0  0  0  0  0  0  0  0  0  0  0  0
  159.5007  136.9941  151.6651 H   0  0  0  0  0  0  0  0  0  0  0  0
  153.5664  140.3562  155.4485 H   0  0  0  0  0  0  0  0  0  0  0  0
  151.5232  138.6346  156.2697 H   0  0  0  0  0  0  0  0  0  0  0  0
  150.9453  139.9574  153.5816 H   0  0  0  0  0  0  0  0  0  0  0  0
  151.0025  138.2404  153.9046 H   0  0  0  0  0  0  0  0  0  0  0  0
  148.6685  139.0646  153.8459 H   0  0  0  0  0  0  0  0  0  0  0  0
  149.0446  138.4209  155.4324 H   0  0  0  0  0  0  0  0  0  0  0  0
  147.1770  139.7367  156.2359 H   0  0  0  0  0  0  0  0  0  0  0  0
  147.1993  141.4808  156.1253 H   0  0  0  0  0  0  0  0  0  0  0  0
  144.6668  140.3868  153.6751 H   0  0  0  0  0  0  0  0  0  0  0  0
  144.8803  140.5478  155.4060 H   0  0  0  0  0  0  0  0  0  0  0  0
  149.4460  141.7085  157.0180 H   0  0  0  0  0  0  0  0  0  0  0  0
  149.4810  139.9801  157.2988 H   0  0  0  0  0  0  0  0  0  0  0  0
  151.7731  140.9284  157.1638 H   0  0  0  0  0  0  0  0  0  0  0  0
  151.4316  141.6184  155.5956 H   0  0  0  0  0  0  0  0  0  0  0  0
  1  2  1  0  0  0  0
  1 21  1  0  0  0  0
  1 22  1  0  0  0  0
  1 23  1  0  0  0  0
  2 20  1  0  0  0  0
  2  3  2  0  0  0  0
  3  4  1  0  0  0  0
  4  5  2  0  0  0  0
  5  6  1  0  0  0  0
  5 20  1  0  0  0  0
  6  7  1  0  0  0  0
  7  8  2  0  0  0  0
  7  9  1  0  0  0  0
  9 10  1  0  0  0  0
  9 24  1  0  0  0  0
 10 19  1  0  0  0  0
 10 11  1  0  0  0  0
 10 25  1  0  0  0  0
 11 12  1  0  0  0  0
 11 26  1  0  0  0  0
 11 27  1  0  0  0  0
 12 13  1  0  0  0  0
 12 28  1  0  0  0  0
 12 29  1  0  0  0  0
 13 14  1  0  0  0  0
 13 18  1  0  0  0  0
 14 15  1  0  0  0  0
 14 30  1  0  0  0  0
 14 31  1  0  0  0  0
 15 16  1  0  0  0  0
 15 17  2  0  0  0  0
 16 32  1  0  0  0  0
 16 33  1  0  0  0  0
 18 19  1  0  0  0  0
 18 34  1  0  0  0  0
 18 35  1  0  0  0  0
 19 36  1  0  0  0  0
 19 37  1  0  0  0  0
M  CHG  1   6  -1
M  END
> <s_m_source_file>
AV-unprocessed.smi

> <i_m_source_file_index>
1385

> <i_lp_mmshare_version>
43012

> <i_f3d_flags>
0

> <s_epik_input>
W0NIM11jMW5uYyhzMSlbTkhdQyg9TylbTkhdW0NIXTJbQ0gyXVtDSDJdTihbQ0gyXVtDSDJdMilbQ0gyXUMoPU8pW05IMl0=

> <s_epik_cmdline>
J2VwaWtfcHl0aG9uJywgJy1waCcsICc3LjAnLCAnLXRuJywgJzgnLCAnLW1hJywgJzIwMCcsICctbWV0YWxfYmluZGluZycsICctaW1hZScsICc8aW5maWxlLm1hZT4nLCAnLW9tYWUnLCAnPG91dGZpbGUubWFlPic=

> <r_lp_tautomer_probability>
1

> <r_epik_Ionization_Penalty>
3.72698

> <r_epik_Ionization_Penalty_Charging>
3.38897

> <r_epik_Ionization_Penalty_Neutral>
0.338006

> <r_epik_State_Penalty>
3.53372

> <r_epik_Charging_Adjusted_Penalty>
6.92269

> <i_epik_Tot_Q>
-1

> <i_epik_Tot_abs_Q>
1

> <r_epik_Metal_State_Penalty>
0.657042

> <b_epik_Metal_Only>
1

> <s_lp_Force_Field>
OPLS_2005

> <r_lp_Energy>
7.29134

> <b_lp_Chiralities_Consistent>
1

> <s_lp_Variant>
AV-unprocessed.smi:1385-4

> <Gold.Version>
5.8.1

> <Gold.Id.Protein>
6NUR|6NUR_protein|mol2

> <Gold.PLP.Fitness>
39.3182

> <Gold.PLP.PLP>
-28.6882

> <Gold.PLP.part.hbond>
-4.3652

> <Gold.PLP.part.metal>
0.0000

> <Gold.PLP.part.buried>
-1.3878

> <Gold.PLP.part.nonpolar>
-25.2088

> <Gold.PLP.part.repulsive>
3.7379

> <Gold.PLP.ligand.clash>
0.0000

> <Gold.PLP.ligand.torsion>
0.0700

> <Gold.PLP.Chemscore.Hbond>
3.5840

> <Gold.PLP.Chemscore.CHOScore>
0.0000

> <Gold.PLP.Chemscore.Metal>
0.0000

> <Gold.Chemscore.Hbonds>
donor molecule, donor type, donor heavy atom, donor atom, acceptor molecule, acceptor atom, score
      L1  H    16    32       P1 10175  1.00
      P1  H  7997  8009       L1     6  1.66
      P1  H 10752 10763       L1     8  0.35
      P1  H 10752 10765       L1     4  0.75

> <Gold.PLP.Chemscore.Internal.Correction>
0.0180

> <Gold.Rescore>
     Score         DG    S(hbond)    S(metal)    S(lipo)     H(rot)  DE(clash)    DE(int)     intcor
      8.63     -14.85       1.73        0.00      74.73       2.02       2.00       4.22       ----

> <Gold.Chemscore.Fitness>
8.6253

> <Gold.Chemscore.DG>
-14.8536

> <Gold.Chemscore.ZeroCoef>
-5.4800

> <Gold.Chemscore.Hbond>
1.7340

> <Gold.Chemscore.Metal>
0.0000

> <Gold.Chemscore.Lipo>
74.7328

> <Gold.Chemscore.Internal_Hbond>
0.0000

> <Gold.Chemscore.DEClash>
2.0036

> <Gold.Chemscore.DEInternal>
4.2247

> <Gold.Chemscore.Rot>
2.0163

> <Gold.Chemscore.Internal.Correction>
   9.000000E+99

> <Gold.Chemscore.Hbonds>
donor molecule, donor type, donor heavy atom, donor atom, acceptor molecule, acceptor atom, score
      L1  H    16    32       P1 10175  0.95
      P1  H  7997  8009       L1     6  0.25
      P1  H 10752 10763       L1     8  0.34
      P1  H 10752 10765       L1     4  0.13

> <Gold.Chemscore.Hbond.Weighted>
-5.7916

> <Gold.Chemscore.Metal.Weighted>
-0.0000

> <Gold.Chemscore.Lipo.Weighted>
-8.7437

> <Gold.Chemscore.Internal_Hbond.Weighted>
0.0000

> <Gold.Chemscore.DEClash.Weighted>
2.0036

> <Gold.Chemscore.DEInternal.Weighted>
4.2247

> <Gold.Chemscore.Rot.Weighted>
5.1617

> <Gold.Chemscore.Internal.Correction.Weighted>
   9.000000E+99

> <Gold.Protein.RotatedTorsions>
[ 6907 6896 6895 6894 ] final -122.86 input  -60.11 | X-H torsion
[ 7974 7965 7964 7962 ] final  119.18 input  175.53 | X-H torsion
[ 8008 7997 7996 7995 ] final  -78.27 input   59.86 | X-H torsion
[ 10167 10162 10161 10158 ] final  -69.73 input  -65.29 | X-H torsion
[ 10718 10713 10712 10709 ] final  135.09 input   66.30 | X-H torsion
[ 10763 10752 10751 10750 ] final   24.92 input  -60.55 | X-H torsion
[ 11005 11000 10999 10996 ] final  -75.00 input  -57.11 | X-H torsion

> <Gold.Protein.ActiveResidues>
 VAL166  LYS551  ARG553  GLY616  TRP617  ASP618  TYR619  PRO620  LYS621  CYS622 
 ASP623  PHE694  ASN695  SER759  ASP760  ASP761  ALA762  ILE779  LEU786  VAL792 
 PHE793  MET794  SER795  GLU796  ALA797  LYS798  CYS799  TRP800  GLU811  SER814 

> <Gold.Protein.RotatedAtoms>
  150.8616  133.7635  159.2990 H   0  0  0  0  0  0  0  0  0  0  0  0  # atno 6907 bound_to 6896
  151.5275  135.1066  159.9904 H   0  0  0  0  0  0  0  0  0  0  0  0  # atno 6908 bound_to 6896
  152.4630  133.7819  159.6911 H   0  0  0  0  0  0  0  0  0  0  0  0  # atno 6909 bound_to 6896
  145.1462  139.3238  143.4590 H   0  0  0  0  0  0  0  0  0  0  0  0  # atno 7974 bound_to 7965
  154.5673  140.0697  156.8911 H   0  0  0  0  0  0  0  0  0  0  0  0  # atno 8008 bound_to 7997
  155.2699  140.3364  155.4248 H   0  0  0  0  0  0  0  0  0  0  0  0  # atno 8009 bound_to 7997
  156.2091  140.1752  156.7720 H   0  0  0  0  0  0  0  0  0  0  0  0  # atno 8010 bound_to 7997
  140.5408  143.2315  151.7093 H   0  0  0  0  0  0  0  0  0  0  0  0  # atno 10167 bound_to 10162
  157.4606  131.1073  150.9925 H   0  0  0  0  0  0  0  0  0  0  0  0  # atno 10718 bound_to 10713
  153.0728  135.6594  154.0209 H   0  0  0  0  0  0  0  0  0  0  0  0  # atno 10763 bound_to 10752
  153.9851  135.2951  155.3418 H   0  0  0  0  0  0  0  0  0  0  0  0  # atno 10764 bound_to 10752
  154.7108  135.5206  153.8734 H   0  0  0  0  0  0  0  0  0  0  0  0  # atno 10765 bound_to 10752
  141.1641  133.6931  156.7451 H   0  0  0  0  0  0  0  0  0  0  0  0  # atno 11005 bound_to 11000
  146.3500  140.1519  142.8592 LP  0  0  0  0  0  0  0  0  0  0  0  0  # atno 17320 bound_to 7965
  145.0479  140.8995  143.5013 LP  0  0  0  0  0  0  0  0  0  0  0  0  # atno 17321 bound_to 7965
  139.4988  144.3972  152.0219 LP  0  0  0  0  0  0  0  0  0  0  0  0  # atno 17342 bound_to 10162
  140.3081  144.3570  150.6041 LP  0  0  0  0  0  0  0  0  0  0  0  0  # atno 17343 bound_to 10162
  157.0723  130.5869  149.5405 LP  0  0  0  0  0  0  0  0  0  0  0  0  # atno 17370 bound_to 10713
  156.0027  130.5108  150.7720 LP  0  0  0  0  0  0  0  0  0  0  0  0  # atno 17371 bound_to 10713
  140.2646  134.8440  157.3790 LP  0  0  0  0  0  0  0  0  0  0  0  0  # atno 17394 bound_to 11000
  140.1579  134.4766  155.7915 LP  0  0  0  0  0  0  0  0  0  0  0  0  # atno 17395 bound_to 11000

$$$$
