AV-unprocessed.smi:215|AV-procd|sdf|1654|dock3
  -GOLD-   2262020 43D 1   1.00000     0.00000
 Structure written by MMmdl.
 59 62  0  0  0  0  0  0  0  0  2 V2000
  148.3025  135.2418  154.8693 C   0  0  0  0  0  0  0  0  0  0  0  0
  147.1124  136.2158  154.9840 C   0  0  2  0  0  0  0  0  0  0  0  0
  145.9741  136.0091  153.9663 C   0  0  2  0  0  0  0  0  0  0  0  0
  146.4002  135.4720  152.6344 N   0  3  1  0  0  0  0  0  0  0  0  0
  146.6503  134.0102  152.6892 C   0  0  0  0  0  0  0  0  0  0  0  0
  145.5496  135.8728  151.4767 C   0  0  0  0  0  0  0  0  0  0  0  0
  144.3172  134.9704  151.2860 C   0  0  0  0  0  0  0  0  0  0  0  0
  143.8612  135.0362  149.9515 O   0  0  0  0  0  0  0  0  0  0  0  0
  145.2911  137.3849  153.9163 C   0  0  0  0  0  0  0  0  0  0  0  0
  146.3712  138.3947  154.3258 C   0  0  0  0  0  0  0  0  0  0  0  0
  147.4774  137.6284  154.8891 N   0  0  0  0  0  0  0  0  0  0  0  0
  148.2118  138.2454  155.8517 C   0  0  0  0  0  0  0  0  0  0  0  0
  148.5065  137.5903  157.0056 N   0  0  0  0  0  0  0  0  0  0  0  0
  149.2204  138.1901  157.9624 C   0  0  0  0  0  0  0  0  0  0  0  0
  149.7358  139.4200  157.9702 N   0  0  0  0  0  0  0  0  0  0  0  0
  149.4510  140.0829  156.8131 C   0  0  0  0  0  0  0  0  0  0  0  0
  148.6954  139.5783  155.7167 C   0  0  0  0  0  0  0  0  0  0  0  0
  148.6066  140.5449  154.7215 N   0  0  0  0  0  0  0  0  0  0  0  0
  149.2639  141.5636  155.2057 C   0  0  0  0  0  0  0  0  0  0  0  0
  149.8305  141.3613  156.4439 N   0  0  0  0  0  0  0  0  0  0  0  0
  150.5757  142.3113  157.2169 C   0  0  0  0  0  0  0  0  0  0  0  0
  152.0001  142.0122  157.6907 C   0  0  0  0  0  0  0  0  0  0  0  0
  151.7425  142.8411  158.9686 C   0  0  0  0  0  0  0  0  0  0  0  0
  152.3046  142.2358  160.2656 C   0  0  0  0  0  0  0  0  0  0  0  0
  151.6900  142.8030  161.4048 O   0  0  0  0  0  0  0  0  0  0  0  0
  152.1517  144.3255  158.8829 C   0  0  0  0  0  0  0  0  0  0  0  0
  151.7104  145.0499  160.0136 O   0  0  0  0  0  0  0  0  0  0  0  0
  150.2497  142.5531  158.6924 C   0  0  0  0  0  0  0  0  0  0  0  0
  146.6682  136.0731  155.9705 H   0  0  0  0  0  0  0  0  0  0  0  0
  145.2871  135.2799  154.3986 H   0  0  0  0  0  0  0  0  0  0  0  0
  147.9589  134.2071  154.8706 H   0  0  0  0  0  0  0  0  0  0  0  0
  148.9944  135.3508  155.7036 H   0  0  0  0  0  0  0  0  0  0  0  0
  148.8737  135.4044  153.9564 H   0  0  0  0  0  0  0  0  0  0  0  0
  145.7211  133.4573  152.8299 H   0  0  0  0  0  0  0  0  0  0  0  0
  147.3212  133.7592  153.5113 H   0  0  0  0  0  0  0  0  0  0  0  0
  147.1271  133.6478  151.7801 H   0  0  0  0  0  0  0  0  0  0  0  0
  145.2300  136.9084  151.5977 H   0  0  0  0  0  0  0  0  0  0  0  0
  146.1235  135.8358  150.5525 H   0  0  0  0  0  0  0  0  0  0  0  0
  144.5119  133.9347  151.5607 H   0  0  0  0  0  0  0  0  0  0  0  0
  143.5117  135.3151  151.9351 H   0  0  0  0  0  0  0  0  0  0  0  0
  142.9159  135.0627  149.9563 H   0  0  0  0  0  0  0  0  0  0  0  0
  144.8308  137.6209  152.9567 H   0  0  0  0  0  0  0  0  0  0  0  0
  144.4950  137.4084  154.6614 H   0  0  0  0  0  0  0  0  0  0  0  0
  146.7288  138.9394  153.4516 H   0  0  0  0  0  0  0  0  0  0  0  0
  145.9767  139.1243  155.0348 H   0  0  0  0  0  0  0  0  0  0  0  0
  149.4070  137.5992  158.8471 H   0  0  0  0  0  0  0  0  0  0  0  0
  149.3610  142.4929  154.6631 H   0  0  0  0  0  0  0  0  0  0  0  0
  150.5430  143.2471  156.6567 H   0  0  0  0  0  0  0  0  0  0  0  0
  152.1585  140.9523  157.8996 H   0  0  0  0  0  0  0  0  0  0  0  0
  152.7838  142.4029  157.0408 H   0  0  0  0  0  0  0  0  0  0  0  0
  152.1756  141.1537  160.2938 H   0  0  0  0  0  0  0  0  0  0  0  0
  153.3768  142.4166  160.3435 H   0  0  0  0  0  0  0  0  0  0  0  0
  152.3519  143.2481  161.9118 H   0  0  0  0  0  0  0  0  0  0  0  0
  153.2325  144.4376  158.7951 H   0  0  0  0  0  0  0  0  0  0  0  0
  151.7274  144.8012  157.9986 H   0  0  0  0  0  0  0  0  0  0  0  0
  150.9243  145.5198  159.7805 H   0  0  0  0  0  0  0  0  0  0  0  0
  149.5747  143.3905  158.8712 H   0  0  0  0  0  0  0  0  0  0  0  0
  149.8887  141.6513  159.1904 H   0  0  0  0  0  0  0  0  0  0  0  0
  147.3022  135.8936  152.4625 H   0  0  0  0  0  0  0  0  0  0  0  0
  1  2  1  0  0  0  0
  1 31  1  0  0  0  0
  1 32  1  0  0  0  0
  1 33  1  0  0  0  0
  2 29  1  0  0  0  0
  2 11  1  0  0  0  0
  2  3  1  0  0  0  0
  3 30  1  0  0  0  0
  3  4  1  0  0  0  0
  3  9  1  0  0  0  0
  4  5  1  0  0  0  0
  4  6  1  0  0  0  0
  4 59  1  0  0  0  0
  5 34  1  0  0  0  0
  5 35  1  0  0  0  0
  5 36  1  0  0  0  0
  6  7  1  0  0  0  0
  6 37  1  0  0  0  0
  6 38  1  0  0  0  0
  7  8  1  0  0  0  0
  7 39  1  0  0  0  0
  7 40  1  0  0  0  0
  8 41  1  0  0  0  0
  9 10  1  0  0  0  0
  9 42  1  0  0  0  0
  9 43  1  0  0  0  0
 10 11  1  0  0  0  0
 10 44  1  0  0  0  0
 10 45  1  0  0  0  0
 11 12  1  0  0  0  0
 12 17  1  0  0  0  0
 12 13  2  0  0  0  0
 13 14  1  0  0  0  0
 14 15  2  0  0  0  0
 14 46  1  0  0  0  0
 15 16  1  0  0  0  0
 16 20  1  0  0  0  0
 16 17  2  0  0  0  0
 17 18  1  0  0  0  0
 18 19  2  0  0  0  0
 19 20  1  0  0  0  0
 19 47  1  0  0  0  0
 20 21  1  0  0  0  0
 21 28  1  0  0  0  0
 21 22  1  0  0  0  0
 21 48  1  0  0  0  0
 22 23  1  0  0  0  0
 22 49  1  0  0  0  0
 22 50  1  0  0  0  0
 23 24  1  0  0  0  0
 23 26  1  0  0  0  0
 23 28  1  0  0  0  0
 24 25  1  0  0  0  0
 24 51  1  0  0  0  0
 24 52  1  0  0  0  0
 25 53  1  0  0  0  0
 26 27  1  0  0  0  0
 26 54  1  0  0  0  0
 26 55  1  0  0  0  0
 27 56  1  0  0  0  0
 28 57  1  0  0  0  0
 28 58  1  0  0  0  0
M  CHG  1   4   1
M  END
> <s_m_source_file>
AV-unprocessed.smi

> <i_m_source_file_index>
215

> <i_lp_mmshare_version>
43012

> <i_f3d_flags>
0

> <s_epik_input>
W09IXVtDSDJdW0NIMl1OKFtDSDNdKVtDQEBIXShbQ0BIXTFbQ0gzXSlbQ0gyXVtDSDJdTjFjKG5bY0hdbjIpYyhjMjMpbltjSF1uM1tDSF0oW0NIMl00KVtDSDJdQzQoW0NIMl1bT0hdKVtDSDJdW09IXQ==

> <s_epik_cmdline>
J2VwaWtfcHl0aG9uJywgJy1waCcsICc3LjAnLCAnLXRuJywgJzgnLCAnLW1hJywgJzIwMCcsICctbWV0YWxfYmluZGluZycsICctaW1hZScsICc8aW5maWxlLm1hZT4nLCAnLW9tYWUnLCAnPG91dGZpbGUubWFlPic=

> <r_lp_tautomer_probability>
1

> <r_epik_Ionization_Penalty>
0.0036237

> <r_epik_Ionization_Penalty_Charging>
0.0032725

> <r_epik_Ionization_Penalty_Neutral>
0.000351196

> <r_epik_State_Penalty>
-0

> <r_epik_Charging_Adjusted_Penalty>
0.0032725

> <i_epik_Tot_Q>
1

> <i_epik_Tot_abs_Q>
1

> <r_epik_Metal_State_Penalty>
-0

> <b_epik_Metal_Only>
0

> <s_lp_Force_Field>
OPLS_2005

> <r_lp_Energy>
70.2974

> <b_lp_Chiralities_Consistent>
1

> <s_lp_Variant>
AV-unprocessed.smi:215-5

> <Gold.Version>
5.8.1

> <Gold.Id.Protein>
6NUR|6NUR_protein|mol2

> <Gold.PLP.Fitness>
44.2404

> <Gold.PLP.PLP>
-32.9493

> <Gold.PLP.part.hbond>
-3.3795

> <Gold.PLP.part.metal>
0.0000

> <Gold.PLP.part.buried>
-8.0596

> <Gold.PLP.part.nonpolar>
-23.8711

> <Gold.PLP.part.repulsive>
0.1725

> <Gold.PLP.ligand.clash>
0.0042

> <Gold.PLP.ligand.torsion>
1.3264

> <Gold.PLP.Chemscore.Hbond>
3.4587

> <Gold.PLP.Chemscore.CHOScore>
0.8641

> <Gold.PLP.Chemscore.Metal>
0.0000

> <Gold.Chemscore.Hbonds>
donor molecule, donor type, donor heavy atom, donor atom, acceptor molecule, acceptor atom, score
      L1  H     4    59       P1  7948  2.00
      L1  H     8    41       P1 10186  0.99
      P1  H  6933  6945       L1    25  0.43
      L1  C    19    47       P1  8028  0.89

> <Gold.PLP.Chemscore.Internal.Correction>
0.9797

> <Gold.Rescore>
     Score         DG    S(hbond)    S(metal)    S(lipo)     H(rot)  DE(clash)    DE(int)     intcor
      5.85      -7.70       1.53        0.00      80.58       4.81       0.17       1.67       ----

> <Gold.Chemscore.Fitness>
5.8532

> <Gold.Chemscore.DG>
-7.6965

> <Gold.Chemscore.ZeroCoef>
-5.4800

> <Gold.Chemscore.Hbond>
1.5275

> <Gold.Chemscore.Metal>
0.0000

> <Gold.Chemscore.Lipo>
80.5787

> <Gold.Chemscore.Internal_Hbond>
0.0000

> <Gold.Chemscore.DEClash>
0.1726

> <Gold.Chemscore.DEInternal>
1.6707

> <Gold.Chemscore.Rot>
4.8098

> <Gold.Chemscore.Internal.Correction>
   9.000000E+99

> <Gold.Chemscore.Hbonds>
donor molecule, donor type, donor heavy atom, donor atom, acceptor molecule, acceptor atom, score
      L1  H     4    59       P1  7948  1.00
      L1  H     8    41       P1 10186  0.27
      P1  H  6933  6945       L1    25  0.40

> <Gold.Chemscore.Hbond.Weighted>
-5.1018

> <Gold.Chemscore.Metal.Weighted>
-0.0000

> <Gold.Chemscore.Lipo.Weighted>
-9.4277

> <Gold.Chemscore.Internal_Hbond.Weighted>
0.0000

> <Gold.Chemscore.DEClash.Weighted>
0.1726

> <Gold.Chemscore.DEInternal.Weighted>
1.6707

> <Gold.Chemscore.Rot.Weighted>
12.3130

> <Gold.Chemscore.Internal.Correction.Weighted>
   9.000000E+99

> <Gold.Protein.RotatedTorsions>
[ 6907 6896 6895 6894 ] final -155.89 input  -60.11 | X-H torsion
[ 7974 7965 7964 7962 ] final -120.62 input  175.53 | X-H torsion
[ 8008 7997 7996 7995 ] final   76.48 input   59.86 | X-H torsion
[ 10167 10162 10161 10158 ] final  -10.24 input  -65.29 | X-H torsion
[ 10718 10713 10712 10709 ] final  133.74 input   66.30 | X-H torsion
[ 10763 10752 10751 10750 ] final   91.80 input  -60.55 | X-H torsion
[ 11005 11000 10999 10996 ] final  -43.08 input  -57.11 | X-H torsion

> <Gold.Protein.ActiveResidues>
 VAL166  LYS551  ARG553  GLY616  TRP617  ASP618  TYR619  PRO620  LYS621  CYS622 
 ASP623  PHE694  ASN695  SER759  ASP760  ASP761  ALA762  ILE779  LEU786  VAL792 
 PHE793  MET794  SER795  GLU796  ALA797  LYS798  CYS799  TRP800  GLU811  SER814 

> <Gold.Protein.RotatedAtoms>
  151.2794  133.4217  159.2625 H   0  0  0  0  0  0  0  0  0  0  0  0  # atno 6907 bound_to 6896
  151.0374  134.9583  159.8154 H   0  0  0  0  0  0  0  0  0  0  0  0  # atno 6908 bound_to 6896
  152.5358  134.2753  159.9039 H   0  0  0  0  0  0  0  0  0  0  0  0  # atno 6909 bound_to 6896
  145.0494  140.8206  143.4218 H   0  0  0  0  0  0  0  0  0  0  0  0  # atno 7974 bound_to 7965
  155.8279  140.3467  155.5554 H   0  0  0  0  0  0  0  0  0  0  0  0  # atno 8008 bound_to 7997
  155.8273  140.0922  157.1833 H   0  0  0  0  0  0  0  0  0  0  0  0  # atno 8009 bound_to 7997
  154.4004  140.1419  156.3559 H   0  0  0  0  0  0  0  0  0  0  0  0  # atno 8010 bound_to 7997
  140.7109  143.5769  150.9033 H   0  0  0  0  0  0  0  0  0  0  0  0  # atno 10167 bound_to 10162
  157.4742  131.1082  150.9764 H   0  0  0  0  0  0  0  0  0  0  0  0  # atno 10718 bound_to 10713
  153.2121  135.4384  155.0392 H   0  0  0  0  0  0  0  0  0  0  0  0  # atno 10763 bound_to 10752
  154.8206  135.3335  154.7052 H   0  0  0  0  0  0  0  0  0  0  0  0  # atno 10764 bound_to 10752
  153.7490  135.6999  153.5006 H   0  0  0  0  0  0  0  0  0  0  0  0  # atno 10765 bound_to 10752
  141.0359  133.6800  156.2683 H   0  0  0  0  0  0  0  0  0  0  0  0  # atno 11005 bound_to 11000
  145.1547  139.2494  143.5423 LP  0  0  0  0  0  0  0  0  0  0  0  0  # atno 17320 bound_to 7965
  146.3516  140.1258  142.8599 LP  0  0  0  0  0  0  0  0  0  0  0  0  # atno 17321 bound_to 7965
  139.9495  143.6288  152.3033 LP  0  0  0  0  0  0  0  0  0  0  0  0  # atno 17342 bound_to 10162
  139.6802  144.7656  151.1623 LP  0  0  0  0  0  0  0  0  0  0  0  0  # atno 17343 bound_to 10162
  157.0519  130.5790  149.5371 LP  0  0  0  0  0  0  0  0  0  0  0  0  # atno 17370 bound_to 10713
  156.0088  130.5178  150.7921 LP  0  0  0  0  0  0  0  0  0  0  0  0  # atno 17371 bound_to 10713
  140.6322  134.5252  157.5561 LP  0  0  0  0  0  0  0  0  0  0  0  0  # atno 17394 bound_to 11000
  139.9241  134.8091  156.1123 LP  0  0  0  0  0  0  0  0  0  0  0  0  # atno 17395 bound_to 11000

$$$$
