AV-unprocessed.smi:47|AV-procd|sdf|440|dock1
  -GOLD-   2262016313D 1   1.00000     0.00000
 Structure written by MMmdl.
 32 34  0  0  0  0  0  0  0  0  2 V2000
  145.2695  140.0986  154.4114 O   0  0  0  0  0  0  0  0  0  0  0  0
  146.4470  140.6239  153.8367 C   0  0  2  0  0  0  0  0  0  0  0  0
  147.4121  139.5211  153.3861 C   0  0  0  0  0  0  0  0  0  0  0  0
  148.7711  140.0845  153.5180 N   0  3  0  0  0  0  0  0  0  0  0  0
  148.6680  141.3817  154.2194 C   0  0  2  0  0  0  0  0  0  0  0  0
  149.8011  141.3972  155.2018 C   0  0  0  0  0  0  0  0  0  0  0  0
  150.7855  140.4976  155.2724 N   0  0  0  0  0  0  0  0  0  0  0  0
  151.5800  140.9081  156.3261 N   0  0  0  0  0  0  0  0  0  0  0  0
  151.0170  142.0215  156.8173 C   0  0  0  0  0  0  0  0  0  0  0  0
  151.5478  142.7792  157.9529 C   0  0  0  0  0  0  0  0  0  0  0  0
  152.2364  142.1182  158.9968 C   0  0  0  0  0  0  0  0  0  0  0  0
  152.7501  142.8467  160.0873 C   0  0  0  0  0  0  0  0  0  0  0  0
  152.5831  144.2428  160.1449 C   0  0  0  0  0  0  0  0  0  0  0  0
  151.9012  144.9102  159.1105 C   0  0  0  0  0  0  0  0  0  0  0  0
  151.3860  144.1828  158.0200 C   0  0  0  0  0  0  0  0  0  0  0  0
  149.9052  142.3520  156.1361 N   0  0  0  0  0  0  0  0  0  0  0  0
  147.2711  141.4211  154.8429 C   0  0  0  0  0  0  0  0  0  0  0  0
  146.1877  141.2587  152.9882 H   0  0  0  0  0  0  0  0  0  0  0  0
  148.7836  142.1835  153.4884 H   0  0  0  0  0  0  0  0  0  0  0  0
  149.2905  143.1363  156.2995 H   0  0  0  0  0  0  0  0  0  0  0  0
  144.5368  140.3097  153.8524 H   0  0  0  0  0  0  0  0  0  0  0  0
  147.3462  138.6557  154.0476 H   0  0  0  0  0  0  0  0  0  0  0  0
  147.2128  139.1826  152.3692 H   0  0  0  0  0  0  0  0  0  0  0  0
  149.3352  139.4516  154.0680 H   0  0  0  0  0  0  0  0  0  0  0  0
  152.3763  141.0476  158.9744 H   0  0  0  0  0  0  0  0  0  0  0  0
  153.2732  142.3335  160.8809 H   0  0  0  0  0  0  0  0  0  0  0  0
  152.9778  144.8011  160.9812 H   0  0  0  0  0  0  0  0  0  0  0  0
  151.7732  145.9818  159.1526 H   0  0  0  0  0  0  0  0  0  0  0  0
  150.8678  144.7156  157.2363 H   0  0  0  0  0  0  0  0  0  0  0  0
  146.9027  142.4337  155.0103 H   0  0  0  0  0  0  0  0  0  0  0  0
  147.2742  140.9014  155.8032 H   0  0  0  0  0  0  0  0  0  0  0  0
  149.1938  140.2175  152.6106 H   0  0  0  0  0  0  0  0  0  0  0  0
  1  2  1  0  0  0  0
  1 21  1  0  0  0  0
  2 18  1  0  0  0  0
  2 17  1  0  0  0  0
  2  3  1  0  0  0  0
  3  4  1  0  0  0  0
  3 22  1  0  0  0  0
  3 23  1  0  0  0  0
  4  5  1  0  0  0  0
  4 24  1  0  0  0  0
  4 32  1  0  0  0  0
  5 19  1  0  0  0  0
  5 17  1  0  0  0  0
  5  6  1  0  0  0  0
  6  7  2  0  0  0  0
  6 16  1  0  0  0  0
  7  8  1  0  0  0  0
  8  9  2  0  0  0  0
  9 16  1  0  0  0  0
  9 10  1  0  0  0  0
 10 15  1  0  0  0  0
 10 11  2  0  0  0  0
 11 12  1  0  0  0  0
 11 25  1  0  0  0  0
 12 13  2  0  0  0  0
 12 26  1  0  0  0  0
 13 14  1  0  0  0  0
 13 27  1  0  0  0  0
 14 15  2  0  0  0  0
 14 28  1  0  0  0  0
 15 29  1  0  0  0  0
 16 20  1  0  0  0  0
 17 30  1  0  0  0  0
 17 31  1  0  0  0  0
M  CHG  1   4   1
M  END
> <s_m_source_file>
AV-unprocessed.smi

> <i_m_source_file_index>
47

> <i_lp_mmshare_version>
43012

> <i_f3d_flags>
0

> <s_epik_input>
W09IXVtDQEhdMVtDSDJdW05IXVtDQEBIXShbQ0gyXTEpYzJuW25IXWMobjIpLWMzW2NIXVtjSF1bY0hdW2NIXVtjSF0z

> <s_epik_cmdline>
J2VwaWtfcHl0aG9uJywgJy1waCcsICc3LjAnLCAnLXRuJywgJzgnLCAnLW1hJywgJzIwMCcsICctbWV0YWxfYmluZGluZycsICctaW1hZScsICc8aW5maWxlLm1hZT4nLCAnLW9tYWUnLCAnPG91dGZpbGUubWFlPic=

> <r_lp_tautomer_probability>
0.0517155

> <r_epik_Ionization_Penalty>
2.45729

> <r_epik_Ionization_Penalty_Charging>
0.0688988

> <r_epik_Ionization_Penalty_Neutral>
2.3884

> <r_epik_State_Penalty>
2.69236

> <r_epik_Charging_Adjusted_Penalty>
2.76126

> <i_epik_Tot_Q>
1

> <i_epik_Tot_abs_Q>
1

> <r_epik_Metal_State_Penalty>
3.18974

> <b_epik_Metal_Only>
0

> <s_lp_Force_Field>
OPLS_2005

> <r_lp_Energy>
28.8935

> <b_lp_Chiralities_Consistent>
1

> <s_lp_Variant>
AV-unprocessed.smi:47-18

> <Gold.Version>
5.8.1

> <Gold.Id.Protein>
6NUR|6NUR_protein|mol2

> <Gold.PLP.Fitness>
48.2615

> <Gold.PLP.PLP>
-38.0783

> <Gold.PLP.part.hbond>
-3.9217

> <Gold.PLP.part.metal>
0.0000

> <Gold.PLP.part.buried>
-2.9682

> <Gold.PLP.part.nonpolar>
-30.9430

> <Gold.PLP.part.repulsive>
0.3081

> <Gold.PLP.ligand.clash>
0.0000

> <Gold.PLP.ligand.torsion>
0.5258

> <Gold.PLP.Chemscore.Hbond>
3.7408

> <Gold.PLP.Chemscore.CHOScore>
0.0000

> <Gold.PLP.Chemscore.Metal>
0.0000

> <Gold.Chemscore.Hbonds>
donor molecule, donor type, donor heavy atom, donor atom, acceptor molecule, acceptor atom, score
      L1  H     1    21       P1 10175  1.00
      L1  H     4    32       P1  7957  0.98
      L1  H    16    20       P1  8028  0.83
      P1  H  7989  7998       L1     7  0.89

> <Gold.PLP.Chemscore.Internal.Correction>
0.0125

> <Gold.Rescore>
     Score         DG    S(hbond)    S(metal)    S(lipo)     H(rot)  DE(clash)    DE(int)     intcor
     22.13     -22.54       2.93        0.00      94.87       1.50       0.15       0.27       ----

> <Gold.Chemscore.Fitness>
22.1256

> <Gold.Chemscore.DG>
-22.5444

> <Gold.Chemscore.ZeroCoef>
-5.4800

> <Gold.Chemscore.Hbond>
2.9330

> <Gold.Chemscore.Metal>
0.0000

> <Gold.Chemscore.Lipo>
94.8672

> <Gold.Chemscore.Internal_Hbond>
0.0000

> <Gold.Chemscore.DEClash>
0.1489

> <Gold.Chemscore.DEInternal>
0.2699

> <Gold.Chemscore.Rot>
1.4966

> <Gold.Chemscore.Internal.Correction>
   9.000000E+99

> <Gold.Chemscore.Hbonds>
donor molecule, donor type, donor heavy atom, donor atom, acceptor molecule, acceptor atom, score
      L1  H     1    21       P1 10175  0.99
      L1  H     4    32       P1  7957  0.91
      L1  H    16    20       P1  8028  0.83
      P1  H  7989  7998       L1     7  0.13

> <Gold.Chemscore.Hbond.Weighted>
-9.7961

> <Gold.Chemscore.Metal.Weighted>
-0.0000

> <Gold.Chemscore.Lipo.Weighted>
-11.0995

> <Gold.Chemscore.Internal_Hbond.Weighted>
0.0000

> <Gold.Chemscore.DEClash.Weighted>
0.1489

> <Gold.Chemscore.DEInternal.Weighted>
0.2699

> <Gold.Chemscore.Rot.Weighted>
3.8312

> <Gold.Chemscore.Internal.Correction.Weighted>
   9.000000E+99

> <Gold.Protein.RotatedTorsions>
[ 6907 6896 6895 6894 ] final  -80.46 input  -60.11 | X-H torsion
[ 7974 7965 7964 7962 ] final  -20.99 input  175.53 | X-H torsion
[ 8008 7997 7996 7995 ] final -153.17 input   59.86 | X-H torsion
[ 10167 10162 10161 10158 ] final   -6.80 input  -65.29 | X-H torsion
[ 10718 10713 10712 10709 ] final  140.42 input   66.30 | X-H torsion
[ 10763 10752 10751 10750 ] final -121.56 input  -60.55 | X-H torsion
[ 11005 11000 10999 10996 ] final -144.90 input  -57.11 | X-H torsion

> <Gold.Protein.ActiveResidues>
 VAL166  LYS551  ARG553  GLY616  TRP617  ASP618  TYR619  PRO620  LYS621  CYS622 
 ASP623  PHE694  ASN695  SER759  ASP760  ASP761  ALA762  ILE779  LEU786  VAL792 
 PHE793  MET794  SER795  GLU796  ALA797  LYS798  CYS799  TRP800  GLU811  SER814 

> <Gold.Protein.RotatedAtoms>
  150.6929  134.3966  159.5099 H   0  0  0  0  0  0  0  0  0  0  0  0  # atno 6907 bound_to 6896
  152.1746  134.8803  160.0541 H   0  0  0  0  0  0  0  0  0  0  0  0  # atno 6908 bound_to 6896
  151.9816  133.3725  159.4146 H   0  0  0  0  0  0  0  0  0  0  0  0  # atno 6909 bound_to 6896
  146.1758  140.4279  142.8514 H   0  0  0  0  0  0  0  0  0  0  0  0  # atno 7974 bound_to 7965
  155.6667  140.0728  157.2535 H   0  0  0  0  0  0  0  0  0  0  0  0  # atno 8008 bound_to 7997
  154.4131  140.1706  156.1886 H   0  0  0  0  0  0  0  0  0  0  0  0  # atno 8009 bound_to 7997
  155.9651  140.3366  155.6528 H   0  0  0  0  0  0  0  0  0  0  0  0  # atno 8010 bound_to 7997
  140.7008  143.6153  150.8664 H   0  0  0  0  0  0  0  0  0  0  0  0  # atno 10167 bound_to 10162
  157.4034  131.1019  151.0528 H   0  0  0  0  0  0  0  0  0  0  0  0  # atno 10718 bound_to 10713
  154.8671  135.4163  154.2640 H   0  0  0  0  0  0  0  0  0  0  0  0  # atno 10763 bound_to 10752
  153.3562  135.7001  153.6754 H   0  0  0  0  0  0  0  0  0  0  0  0  # atno 10764 bound_to 10752
  153.5673  135.3598  155.2796 H   0  0  0  0  0  0  0  0  0  0  0  0  # atno 10765 bound_to 10752
  140.7977  134.2893  157.4990 H   0  0  0  0  0  0  0  0  0  0  0  0  # atno 11005 bound_to 11000
  144.8233  140.6587  143.6338 LP  0  0  0  0  0  0  0  0  0  0  0  0  # atno 17320 bound_to 7965
  145.4216  139.1563  143.4071 LP  0  0  0  0  0  0  0  0  0  0  0  0  # atno 17321 bound_to 7965
  139.9875  143.5883  152.2922 LP  0  0  0  0  0  0  0  0  0  0  0  0  # atno 17342 bound_to 10162
  139.6526  144.7661  151.2117 LP  0  0  0  0  0  0  0  0  0  0  0  0  # atno 17343 bound_to 10162
  157.1518  130.6187  149.5584 LP  0  0  0  0  0  0  0  0  0  0  0  0  # atno 17370 bound_to 10713
  155.9830  130.4846  150.6909 LP  0  0  0  0  0  0  0  0  0  0  0  0  # atno 17371 bound_to 10713
  139.8724  134.9411  156.3789 LP  0  0  0  0  0  0  0  0  0  0  0  0  # atno 17394 bound_to 11000
  140.9326  133.7569  156.0044 LP  0  0  0  0  0  0  0  0  0  0  0  0  # atno 17395 bound_to 11000

$$$$
