AV-unprocessed.smi:2801|AV-procd|sdf|10797|dock1
  -GOLD-   2272015233D 1   1.00000     0.00000
 Structure written by MMmdl.
 32 32  0  0  0  0  0  0  0  0  3 V2000
  153.4823  141.4976  160.3644 C   0  0  0  0  0  0  0  0  0  0  0  0
  152.4291  142.5900  160.5610 C   0  0  0  0  0  0  0  0  0  0  0  0
  151.3951  142.3992  159.6031 O   0  0  0  0  0  0  0  0  0  0  0  0
  151.7798  142.5812  158.2422 C   0  0  2  0  0  0  0  0  0  0  0  0
  151.6275  144.0762  157.9038 C   0  0  0  0  0  0  0  0  0  0  0  0
  152.5509  144.9718  158.7389 C   0  0  0  0  0  0  0  0  0  0  0  0
  150.9034  141.7119  157.3254 C   0  0  0  0  0  0  0  0  0  0  0  0
  149.6777  141.7933  157.4018 O   0  0  0  0  0  0  0  0  0  0  0  0
  151.5701  140.8803  156.5040 N   0  0  0  0  0  0  0  0  0  0  0  0
  151.0701  139.9517  155.5474 C   0  0  0  0  0  0  0  0  0  0  0  0
  149.7563  140.0015  155.0139 C   0  0  0  0  0  0  0  0  0  0  0  0
  149.3592  139.0454  154.0576 C   0  0  0  0  0  0  0  0  0  0  0  0
  150.2286  138.0979  153.6489 N   0  3  0  0  0  0  0  0  0  0  0  0
  151.4914  138.0170  154.1167 C   0  0  0  0  0  0  0  0  0  0  0  0
  151.9483  138.9432  155.0761 C   0  0  0  0  0  0  0  0  0  0  0  0
  153.2330  138.8461  155.5331 O   0  5  0  0  0  0  0  0  0  0  0  0
  154.2956  141.6063  161.0819 H   0  0  0  0  0  0  0  0  0  0  0  0
  153.9106  141.5440  159.3627 H   0  0  0  0  0  0  0  0  0  0  0  0
  153.0476  140.5067  160.4978 H   0  0  0  0  0  0  0  0  0  0  0  0
  152.0202  142.5318  161.5707 H   0  0  0  0  0  0  0  0  0  0  0  0
  152.8953  143.5695  160.4494 H   0  0  0  0  0  0  0  0  0  0  0  0
  152.8284  142.3022  158.1178 H   0  0  0  0  0  0  0  0  0  0  0  0
  151.8489  144.2390  156.8480 H   0  0  0  0  0  0  0  0  0  0  0  0
  150.5930  144.3896  158.0517 H   0  0  0  0  0  0  0  0  0  0  0  0
  152.4286  146.0193  158.4633 H   0  0  0  0  0  0  0  0  0  0  0  0
  153.5979  144.7082  158.5867 H   0  0  0  0  0  0  0  0  0  0  0  0
  152.3334  144.8812  159.8034 H   0  0  0  0  0  0  0  0  0  0  0  0
  152.5746  140.8685  156.6121 H   0  0  0  0  0  0  0  0  0  0  0  0
  149.0464  140.7586  155.3061 H   0  0  0  0  0  0  0  0  0  0  0  0
  148.3790  139.0153  153.6054 H   0  0  0  0  0  0  0  0  0  0  0  0
  152.0964  137.2196  153.7100 H   0  0  0  0  0  0  0  0  0  0  0  0
  149.9212  137.4171  152.9545 H   0  0  0  0  0  0  0  0  0  0  0  0
  1  2  1  0  0  0  0
  1 17  1  0  0  0  0
  1 18  1  0  0  0  0
  1 19  1  0  0  0  0
  2  3  1  0  0  0  0
  2 20  1  0  0  0  0
  2 21  1  0  0  0  0
  3  4  1  0  0  0  0
  4  5  1  0  0  0  0
  4  7  1  0  0  0  0
  4 22  1  0  0  0  0
  5  6  1  0  0  0  0
  5 23  1  0  0  0  0
  5 24  1  0  0  0  0
  6 25  1  0  0  0  0
  6 26  1  0  0  0  0
  6 27  1  0  0  0  0
  7  8  2  0  0  0  0
  7  9  1  0  0  0  0
  9 28  1  0  0  0  0
  9 10  1  0  0  0  0
 10 11  2  0  0  0  0
 10 15  1  0  0  0  0
 11 12  1  0  0  0  0
 11 29  1  0  0  0  0
 12 13  2  0  0  0  0
 12 30  1  0  0  0  0
 13 14  1  0  0  0  0
 13 32  1  0  0  0  0
 14 15  2  0  0  0  0
 14 31  1  0  0  0  0
 15 16  1  0  0  0  0
M  CHG  1  13   1
M  CHG  1  16  -1
M  END
> <s_m_source_file>
AV-unprocessed.smi

> <i_m_source_file_index>
2801

> <i_lp_mmshare_version>
43012

> <i_f3d_flags>
0

> <s_epik_input>
W0NIM11bQ0gyXU9bQ0BIXShbQ0gyXVtDSDNdKUMoPU8pW05IXWMxW2NIXVtjSF1uW2NIXWMxW09IXQ==

> <s_epik_cmdline>
J2VwaWtfcHl0aG9uJywgJy1waCcsICc3LjAnLCAnLXRuJywgJzgnLCAnLW1hJywgJzIwMCcsICctbWV0YWxfYmluZGluZycsICctaW1hZScsICc8aW5maWxlLm1hZT4nLCAnLW9tYWUnLCAnPG91dGZpbGUubWFlPic=

> <r_lp_tautomer_probability>
0.56342

> <r_epik_Ionization_Penalty>
0.0170685

> <r_epik_Ionization_Penalty_Charging>
0.0170685

> <r_epik_Ionization_Penalty_Neutral>
1.5328e-09

> <r_epik_State_Penalty>
0.331557

> <r_epik_Charging_Adjusted_Penalty>
0.348625

> <i_epik_Tot_Q>
0

> <i_epik_Tot_abs_Q>
2

> <r_epik_Metal_State_Penalty>
0.590147

> <b_epik_Metal_Only>
0

> <s_lp_Force_Field>
OPLS_2005

> <r_lp_Energy>
9.87866

> <b_lp_Chiralities_Consistent>
1

> <s_lp_Variant>
AV-unprocessed.smi:2801-1

> <Gold.Version>
5.8.1

> <Gold.Id.Protein>
6NUR|6NUR_protein|mol2

> <Gold.PLP.Fitness>
50.0487

> <Gold.PLP.PLP>
-38.9444

> <Gold.PLP.part.hbond>
-3.2780

> <Gold.PLP.part.metal>
0.0000

> <Gold.PLP.part.buried>
-4.1812

> <Gold.PLP.part.nonpolar>
-31.1903

> <Gold.PLP.part.repulsive>
0.3106

> <Gold.PLP.ligand.clash>
0.0000

> <Gold.PLP.ligand.torsion>
0.4863

> <Gold.PLP.Chemscore.Hbond>
4.0000

> <Gold.PLP.Chemscore.CHOScore>
0.0000

> <Gold.PLP.Chemscore.Metal>
0.0000

> <Gold.Chemscore.Hbonds>
donor molecule, donor type, donor heavy atom, donor atom, acceptor molecule, acceptor atom, score
      L1  H    13    32       P1  7948  2.00
      P1  H  7997  8010       L1    16  2.00

> <Gold.PLP.Chemscore.Internal.Correction>
0.0770

> <Gold.Rescore>
     Score         DG    S(hbond)    S(metal)    S(lipo)     H(rot)  DE(clash)    DE(int)     intcor
     16.92     -18.59       1.89        0.00      92.91       1.59       0.00       1.66       ----

> <Gold.Chemscore.Fitness>
16.9248

> <Gold.Chemscore.DG>
-18.5862

> <Gold.Chemscore.ZeroCoef>
-5.4800

> <Gold.Chemscore.Hbond>
1.8904

> <Gold.Chemscore.Metal>
0.0000

> <Gold.Chemscore.Lipo>
92.9144

> <Gold.Chemscore.Internal_Hbond>
0.0000

> <Gold.Chemscore.DEClash>
0.0000

> <Gold.Chemscore.DEInternal>
1.6614

> <Gold.Chemscore.Rot>
1.5933

> <Gold.Chemscore.Internal.Correction>
   9.000000E+99

> <Gold.Chemscore.Hbonds>
donor molecule, donor type, donor heavy atom, donor atom, acceptor molecule, acceptor atom, score
      L1  H    13    32       P1  7948  0.26
      P1  H  7997  8010       L1    16  0.95

> <Gold.Chemscore.Hbond.Weighted>
-6.3140

> <Gold.Chemscore.Metal.Weighted>
-0.0000

> <Gold.Chemscore.Lipo.Weighted>
-10.8710

> <Gold.Chemscore.Internal_Hbond.Weighted>
0.0000

> <Gold.Chemscore.DEClash.Weighted>
0.0000

> <Gold.Chemscore.DEInternal.Weighted>
1.6614

> <Gold.Chemscore.Rot.Weighted>
4.0789

> <Gold.Chemscore.Internal.Correction.Weighted>
   9.000000E+99

> <Gold.Protein.RotatedTorsions>
[ 6907 6896 6895 6894 ] final -134.23 input  -60.11 | X-H torsion
[ 7974 7965 7964 7962 ] final  149.49 input  175.53 | X-H torsion
[ 8008 7997 7996 7995 ] final   82.26 input   59.86 | X-H torsion
[ 10167 10162 10161 10158 ] final  -80.28 input  -65.29 | X-H torsion
[ 10718 10713 10712 10709 ] final  -21.64 input   66.30 | X-H torsion
[ 10763 10752 10751 10750 ] final  137.78 input  -60.55 | X-H torsion
[ 11005 11000 10999 10996 ] final  174.89 input  -57.11 | X-H torsion

> <Gold.Protein.ActiveResidues>
 VAL166  LYS551  ARG553  GLY616  TRP617  ASP618  TYR619  PRO620  LYS621  CYS622 
 ASP623  PHE694  ASN695  SER759  ASP760  ASP761  ALA762  ILE779  LEU786  VAL792 
 PHE793  MET794  SER795  GLU796  ALA797  LYS798  CYS799  TRP800  GLU811  SER814 

> <Gold.Protein.RotatedAtoms>
  150.9834  133.6223  159.2718 H   0  0  0  0  0  0  0  0  0  0  0  0  # atno 6907 bound_to 6896
  151.3469  135.0875  159.9400 H   0  0  0  0  0  0  0  0  0  0  0  0  # atno 6908 bound_to 6896
  152.5223  133.9434  159.7691 H   0  0  0  0  0  0  0  0  0  0  0  0  # atno 6909 bound_to 6896
  144.8434  139.6286  143.6006 H   0  0  0  0  0  0  0  0  0  0  0  0  # atno 7974 bound_to 7965
  155.9083  140.3429  155.6079 H   0  0  0  0  0  0  0  0  0  0  0  0  # atno 8008 bound_to 7997
  155.7418  140.0808  157.2261 H   0  0  0  0  0  0  0  0  0  0  0  0  # atno 8009 bound_to 7997
  154.4052  140.1569  156.2612 H   0  0  0  0  0  0  0  0  0  0  0  0  # atno 8010 bound_to 7997
  140.4517  143.2481  151.8479 H   0  0  0  0  0  0  0  0  0  0  0  0  # atno 10167 bound_to 10162
  156.5154  130.4620  149.6625 H   0  0  0  0  0  0  0  0  0  0  0  0  # atno 10718 bound_to 10713
  153.8787  135.3047  155.3444 H   0  0  0  0  0  0  0  0  0  0  0  0  # atno 10763 bound_to 10752
  154.7772  135.4855  153.9771 H   0  0  0  0  0  0  0  0  0  0  0  0  # atno 10764 bound_to 10752
  153.1364  135.6815  153.9193 H   0  0  0  0  0  0  0  0  0  0  0  0  # atno 10765 bound_to 10752
  140.3562  134.7152  157.4301 H   0  0  0  0  0  0  0  0  0  0  0  0  # atno 11005 bound_to 11000
  146.2723  139.6666  142.9287 LP  0  0  0  0  0  0  0  0  0  0  0  0  # atno 17320 bound_to 7965
  145.4646  141.0434  143.2732 LP  0  0  0  0  0  0  0  0  0  0  0  0  # atno 17321 bound_to 7965
  139.4797  144.5112  151.8930 LP  0  0  0  0  0  0  0  0  0  0  0  0  # atno 17342 bound_to 10162
  140.4199  144.2257  150.5887 LP  0  0  0  0  0  0  0  0  0  0  0  0  # atno 17343 bound_to 10162
  156.3200  130.7275  151.2185 LP  0  0  0  0  0  0  0  0  0  0  0  0  # atno 17370 bound_to 10713
  157.7444  131.0458  150.4862 LP  0  0  0  0  0  0  0  0  0  0  0  0  # atno 17371 bound_to 10713
  140.0663  134.5925  155.8691 LP  0  0  0  0  0  0  0  0  0  0  0  0  # atno 17394 bound_to 11000
  141.1998  133.6608  156.5861 LP  0  0  0  0  0  0  0  0  0  0  0  0  # atno 17395 bound_to 11000

$$$$
