AV-unprocessed.smi:1207|AV-procd|sdf|5049|dock7
  -GOLD-   22720 4 73D 1   1.00000     0.00000
 Structure written by MMmdl.
 51 53  0  0  0  0  0  0  0  0  1 V2000
  152.8447  140.8931  158.9624 C   0  0  0  0  0  0  0  0  0  0  0  0
  151.8875  140.8618  157.7839 C   0  0  0  0  0  0  0  0  0  0  0  0
  151.8095  139.6936  156.9928 C   0  0  0  0  0  0  0  0  0  0  0  0
  150.9326  139.6239  155.8880 C   0  0  0  0  0  0  0  0  0  0  0  0
  150.6997  138.5969  154.9893 N   0  0  0  0  0  0  0  0  0  0  0  0
  149.7784  139.1380  154.1977 C   0  0  0  0  0  0  0  0  0  0  0  0
  149.3854  140.3953  154.4775 N   0  0  0  0  0  0  0  0  0  0  0  0
  148.3998  141.1813  153.7563 C   0  0  0  0  0  0  0  0  0  0  0  0
  146.9831  141.0349  154.3431 C   0  0  2  0  0  0  0  0  0  0  0  0
  146.3484  139.9159  153.7557 O   0  0  0  0  0  0  0  0  0  0  0  0
  146.1225  142.2844  154.0625 C   0  0  0  0  0  0  0  0  0  0  0  0
  145.2627  142.7220  155.1653 N   0  0  0  0  0  0  0  0  0  0  0  0
  144.3121  141.6664  155.5050 C   0  0  0  0  0  0  0  0  0  0  0  0
  144.5640  143.9769  154.8698 C   0  0  0  0  0  0  0  0  0  0  0  0
  144.3492  144.8307  156.0939 C   0  0  0  0  0  0  0  0  0  0  0  0
  144.6922  144.5339  157.4438 C   0  0  0  0  0  0  0  0  0  0  0  0
  145.3582  143.3029  157.9874 C   0  0  0  0  0  0  0  0  0  0  0  0
  144.3527  145.5123  158.2666 N   0  0  0  0  0  0  0  0  0  0  0  0
  143.7650  146.4982  157.4679 O   0  0  0  0  0  0  0  0  0  0  0  0
  143.7728  146.0682  156.1805 C   0  0  0  0  0  0  0  0  0  0  0  0
  143.1843  146.9844  155.1612 C   0  0  0  0  0  0  0  0  0  0  0  0
  150.1272  140.7634  155.5952 C   0  0  0  0  0  0  0  0  0  0  0  0
  150.1969  141.9317  156.3745 C   0  0  0  0  0  0  0  0  0  0  0  0
  151.0802  141.9854  157.4730 C   0  0  0  0  0  0  0  0  0  0  0  0
  151.1501  143.2533  158.3054 C   0  0  0  0  0  0  0  0  0  0  0  0
  153.3670  139.9430  159.0768 H   0  0  0  0  0  0  0  0  0  0  0  0
  152.3049  141.0908  159.8887 H   0  0  0  0  0  0  0  0  0  0  0  0
  153.5941  141.6727  158.8243 H   0  0  0  0  0  0  0  0  0  0  0  0
  152.4253  138.8382  157.2282 H   0  0  0  0  0  0  0  0  0  0  0  0
  149.3644  138.5894  153.3642 H   0  0  0  0  0  0  0  0  0  0  0  0
  148.7117  142.2261  153.7880 H   0  0  0  0  0  0  0  0  0  0  0  0
  148.4147  140.8851  152.7064 H   0  0  0  0  0  0  0  0  0  0  0  0
  147.0756  140.8537  155.4126 H   0  0  0  0  0  0  0  0  0  0  0  0
  145.4962  140.1859  153.4486 H   0  0  0  0  0  0  0  0  0  0  0  0
  146.7707  143.1109  153.7675 H   0  0  0  0  0  0  0  0  0  0  0  0
  145.5061  142.0689  153.1881 H   0  0  0  0  0  0  0  0  0  0  0  0
  143.7079  141.9390  156.3703 H   0  0  0  0  0  0  0  0  0  0  0  0
  144.8332  140.7422  155.7564 H   0  0  0  0  0  0  0  0  0  0  0  0
  143.6392  141.4597  154.6718 H   0  0  0  0  0  0  0  0  0  0  0  0
  145.1311  144.5593  154.1470 H   0  0  0  0  0  0  0  0  0  0  0  0
  143.6166  143.7562  154.3764 H   0  0  0  0  0  0  0  0  0  0  0  0
  144.6952  142.4404  157.9203 H   0  0  0  0  0  0  0  0  0  0  0  0
  145.6412  143.4239  159.0335 H   0  0  0  0  0  0  0  0  0  0  0  0
  146.2632  143.0704  157.4262 H   0  0  0  0  0  0  0  0  0  0  0  0
  142.5429  146.4344  154.4722 H   0  0  0  0  0  0  0  0  0  0  0  0
  143.9702  147.4647  154.5780 H   0  0  0  0  0  0  0  0  0  0  0  0
  142.5851  147.7646  155.6309 H   0  0  0  0  0  0  0  0  0  0  0  0
  149.5779  142.7807  156.1244 H   0  0  0  0  0  0  0  0  0  0  0  0
  150.4864  144.0239  157.9124 H   0  0  0  0  0  0  0  0  0  0  0  0
  152.1635  143.6547  158.3066 H   0  0  0  0  0  0  0  0  0  0  0  0
  150.8557  143.0504  159.3352 H   0  0  0  0  0  0  0  0  0  0  0  0
  1  2  1  0  0  0  0
  1 26  1  0  0  0  0
  1 27  1  0  0  0  0
  1 28  1  0  0  0  0
  2 24  1  0  0  0  0
  2  3  2  0  0  0  0
  3  4  1  0  0  0  0
  3 29  1  0  0  0  0
  4 22  2  0  0  0  0
  4  5  1  0  0  0  0
  5  6  2  0  0  0  0
  6  7  1  0  0  0  0
  6 30  1  0  0  0  0
  7  8  1  0  0  0  0
  7 22  1  0  0  0  0
  8  9  1  0  0  0  0
  8 31  1  0  0  0  0
  8 32  1  0  0  0  0
  9 10  1  0  0  0  0
  9 11  1  0  0  0  0
  9 33  1  0  0  0  0
 10 34  1  0  0  0  0
 11 12  1  0  0  0  0
 11 35  1  0  0  0  0
 11 36  1  0  0  0  0
 12 13  1  0  0  0  0
 12 14  1  0  0  0  0
 13 37  1  0  0  0  0
 13 38  1  0  0  0  0
 13 39  1  0  0  0  0
 14 15  1  0  0  0  0
 14 40  1  0  0  0  0
 14 41  1  0  0  0  0
 15 20  2  0  0  0  0
 15 16  1  0  0  0  0
 16 17  1  0  0  0  0
 16 18  2  0  0  0  0
 17 42  1  0  0  0  0
 17 43  1  0  0  0  0
 17 44  1  0  0  0  0
 18 19  1  0  0  0  0
 19 20  1  0  0  0  0
 20 21  1  0  0  0  0
 21 45  1  0  0  0  0
 21 46  1  0  0  0  0
 21 47  1  0  0  0  0
 22 23  1  0  0  0  0
 23 24  2  0  0  0  0
 23 48  1  0  0  0  0
 24 25  1  0  0  0  0
 25 49  1  0  0  0  0
 25 50  1  0  0  0  0
 25 51  1  0  0  0  0
M  END
> <s_m_source_file>
AV-unprocessed.smi

> <i_m_source_file_index>
1207

> <i_lp_mmshare_version>
43012

> <i_f3d_flags>
0

> <s_epik_input>
W0NIM11jKFtjSF0xKWMoW0NIM10pW2NIXWMoYzEyKW4oW2NIXW4yKVtDSDJdW0NASF0oW09IXSlbQ0gyXU4oW0NIM10pW0NIMl1jM2MoW0NIM10pbm9jM1tDSDNd

> <s_epik_cmdline>
J2VwaWtfcHl0aG9uJywgJy1waCcsICc3LjAnLCAnLXRuJywgJzgnLCAnLW1hJywgJzIwMCcsICctbWV0YWxfYmluZGluZycsICctaW1hZScsICc8aW5maWxlLm1hZT4nLCAnLW9tYWUnLCAnPG91dGZpbGUubWFlPic=

> <r_epik_Ionization_Penalty>
0.374039

> <r_epik_Ionization_Penalty_Charging>
0

> <r_epik_Ionization_Penalty_Neutral>
0.374039

> <r_epik_State_Penalty>
0.350767

> <r_epik_Charging_Adjusted_Penalty>
0.350767

> <i_epik_Tot_Q>
0

> <i_epik_Tot_abs_Q>
0

> <r_epik_Metal_State_Penalty>
0.343187

> <b_epik_Metal_Only>
0

> <s_lp_Force_Field>
OPLS_2005

> <r_lp_Energy>
17.2157

> <b_lp_Chiralities_Consistent>
1

> <s_lp_Variant>
AV-unprocessed.smi:1207-1

> <Gold.Version>
5.8.1

> <Gold.Id.Protein>
6NUR|6NUR_protein|mol2

> <Gold.PLP.Fitness>
43.3209

> <Gold.PLP.PLP>
-39.7861

> <Gold.PLP.part.hbond>
-1.0000

> <Gold.PLP.part.metal>
0.0000

> <Gold.PLP.part.buried>
-2.4188

> <Gold.PLP.part.nonpolar>
-36.3784

> <Gold.PLP.part.repulsive>
0.4809

> <Gold.PLP.ligand.clash>
0.0000

> <Gold.PLP.ligand.torsion>
1.6567

> <Gold.PLP.Chemscore.Hbond>
1.0000

> <Gold.PLP.Chemscore.CHOScore>
1.2219

> <Gold.PLP.Chemscore.Metal>
0.0000

> <Gold.Chemscore.Hbonds>
donor molecule, donor type, donor heavy atom, donor atom, acceptor molecule, acceptor atom, score
      L1  H    10    34       P1 10175  0.88
      L1  C     6    30       P1  7948  0.35
      L1  C     6    30       P1  7957  0.43

> <Gold.PLP.Chemscore.Internal.Correction>
0.1826

> <Gold.Rescore>
     Score         DG    S(hbond)    S(metal)    S(lipo)     H(rot)  DE(clash)    DE(int)     intcor
     11.84     -15.08       0.96        0.00     106.63       2.38       0.27       2.96       ----

> <Gold.Chemscore.Fitness>
11.8420

> <Gold.Chemscore.DG>
-15.0753

> <Gold.Chemscore.ZeroCoef>
-5.4800

> <Gold.Chemscore.Hbond>
0.9585

> <Gold.Chemscore.Metal>
0.0000

> <Gold.Chemscore.Lipo>
106.6285

> <Gold.Chemscore.Internal_Hbond>
0.0000

> <Gold.Chemscore.DEClash>
0.2748

> <Gold.Chemscore.DEInternal>
2.9585

> <Gold.Chemscore.Rot>
2.3756

> <Gold.Chemscore.Internal.Correction>
   9.000000E+99

> <Gold.Chemscore.Hbonds>
donor molecule, donor type, donor heavy atom, donor atom, acceptor molecule, acceptor atom, score
      L1  H    10    34       P1 10175  0.85

> <Gold.Chemscore.Hbond.Weighted>
-3.2013

> <Gold.Chemscore.Metal.Weighted>
-0.0000

> <Gold.Chemscore.Lipo.Weighted>
-12.4755

> <Gold.Chemscore.Internal_Hbond.Weighted>
0.0000

> <Gold.Chemscore.DEClash.Weighted>
0.2748

> <Gold.Chemscore.DEInternal.Weighted>
2.9585

> <Gold.Chemscore.Rot.Weighted>
6.0816

> <Gold.Chemscore.Internal.Correction.Weighted>
   9.000000E+99

> <Gold.Protein.RotatedTorsions>
[ 6907 6896 6895 6894 ] final  105.51 input  -60.11 | X-H torsion
[ 7974 7965 7964 7962 ] final  128.52 input  175.53 | X-H torsion
[ 8008 7997 7996 7995 ] final  -73.90 input   59.86 | X-H torsion
[ 10167 10162 10161 10158 ] final -141.35 input  -65.29 | X-H torsion
[ 10718 10713 10712 10709 ] final -172.22 input   66.30 | X-H torsion
[ 10763 10752 10751 10750 ] final -176.45 input  -60.55 | X-H torsion
[ 11005 11000 10999 10996 ] final  149.42 input  -57.11 | X-H torsion

> <Gold.Protein.ActiveResidues>
 VAL166  LYS551  ARG553  GLY616  TRP617  ASP618  TYR619  PRO620  LYS621  CYS622 
 ASP623  PHE694  ASN695  SER759  ASP760  ASP761  ALA762  ILE779  LEU786  VAL792 
 PHE793  MET794  SER795  GLU796  ALA797  LYS798  CYS799  TRP800  GLU811  SER814 

> <Gold.Protein.RotatedAtoms>
  152.5228  133.9518  159.7675 H   0  0  0  0  0  0  0  0  0  0  0  0  # atno 6907 bound_to 6896
  150.9826  133.6221  159.2727 H   0  0  0  0  0  0  0  0  0  0  0  0  # atno 6908 bound_to 6896
  151.3393  135.0866  159.9418 H   0  0  0  0  0  0  0  0  0  0  0  0  # atno 6909 bound_to 6896
  145.0386  139.3982  143.5113 H   0  0  0  0  0  0  0  0  0  0  0  0  # atno 7974 bound_to 7965
  154.5286  140.0771  156.8304 H   0  0  0  0  0  0  0  0  0  0  0  0  # atno 8008 bound_to 7997
  155.3423  140.3408  155.4221 H   0  0  0  0  0  0  0  0  0  0  0  0  # atno 8009 bound_to 7997
  156.1757  140.1635  156.8353 H   0  0  0  0  0  0  0  0  0  0  0  0  # atno 8010 bound_to 7997
  139.8193  143.7596  152.2666 H   0  0  0  0  0  0  0  0  0  0  0  0  # atno 10167 bound_to 10162
  156.7523  130.9383  151.3115 H   0  0  0  0  0  0  0  0  0  0  0  0  # atno 10718 bound_to 10713
  154.5722  135.2829  155.0816 H   0  0  0  0  0  0  0  0  0  0  0  0  # atno 10763 bound_to 10752
  154.2184  135.6395  153.5141 H   0  0  0  0  0  0  0  0  0  0  0  0  # atno 10764 bound_to 10752
  153.0061  135.5508  154.6349 H   0  0  0  0  0  0  0  0  0  0  0  0  # atno 10765 bound_to 10752
  140.1044  134.8963  157.1843 H   0  0  0  0  0  0  0  0  0  0  0  0  # atno 11005 bound_to 11000
  146.3507  139.9975  142.8679 LP  0  0  0  0  0  0  0  0  0  0  0  0  # atno 17320 bound_to 7965
  145.1676  140.9705  143.4340 LP  0  0  0  0  0  0  0  0  0  0  0  0  # atno 17321 bound_to 7965
  139.7769  144.7458  151.0144 LP  0  0  0  0  0  0  0  0  0  0  0  0  # atno 17342 bound_to 10162
  140.7814  143.4584  151.0313 LP  0  0  0  0  0  0  0  0  0  0  0  0  # atno 17343 bound_to 10162
  157.6771  130.9105  150.0177 LP  0  0  0  0  0  0  0  0  0  0  0  0  # atno 17370 bound_to 10713
  156.1393  130.3642  149.9608 LP  0  0  0  0  0  0  0  0  0  0  0  0  # atno 17371 bound_to 10713
  140.3176  134.2952  155.7253 LP  0  0  0  0  0  0  0  0  0  0  0  0  # atno 17394 bound_to 11000
  141.2114  133.7690  156.9866 LP  0  0  0  0  0  0  0  0  0  0  0  0  # atno 17395 bound_to 11000

$$$$
