AV-unprocessed.smi:1698|AV-procd|sdf|6813|dock1
  -GOLD-   22720 7593D 1   1.00000     0.00000
 Structure written by MMmdl.
 28 29  0  0  0  0  0  0  0  0  1 V2000
  146.6280  132.9042  153.8413 O   0  0  0  0  0  0  0  0  0  0  0  0
  147.2627  133.7228  153.1791 C   0  0  0  0  0  0  0  0  0  0  0  0
  146.9268  134.1244  151.9384 N   0  0  0  0  0  0  0  0  0  0  0  0
  145.8130  133.7085  151.1668 C   0  0  0  0  0  0  0  0  0  0  0  0
  145.7989  132.5697  150.3165 C   0  0  0  0  0  0  0  0  0  0  0  0
  144.6240  132.4259  149.7203 N   0  0  0  0  0  0  0  0  0  0  0  0
  143.8880  133.4619  150.1823 N   0  0  0  0  0  0  0  0  0  0  0  0
  144.5707  134.2691  151.0653 C   0  0  0  0  0  0  0  0  0  0  0  0
  148.3759  134.3003  153.6662 N   0  0  0  0  0  0  0  0  0  0  0  0
  149.0112  134.0907  154.9682 C   0  0  2  0  0  0  0  0  0  0  0  0
  150.3317  134.8770  155.0684 C   0  0  0  0  0  0  0  0  0  0  0  0
  151.1253  134.3588  156.2748 C   0  0  0  0  0  0  0  0  0  0  0  0
  150.6755  132.5913  156.4596 S   0  0  0  0  0  0  0  0  0  0  0  0
  151.7745  131.7465  155.9686 O   0  0  0  0  0  0  0  0  0  0  0  0
  150.1007  132.3846  157.7976 O   0  0  0  0  0  0  0  0  0  0  0  0
  149.3302  132.6074  155.2168 C   0  0  0  0  0  0  0  0  0  0  0  0
  142.9319  133.6035  149.8888 H   0  0  0  0  0  0  0  0  0  0  0  0
  147.5322  134.8049  151.5035 H   0  0  0  0  0  0  0  0  0  0  0  0
  146.5860  131.8578  150.1156 H   0  0  0  0  0  0  0  0  0  0  0  0
  144.1200  135.1378  151.5217 H   0  0  0  0  0  0  0  0  0  0  0  0
  148.8274  134.9742  153.0646 H   0  0  0  0  0  0  0  0  0  0  0  0
  148.3574  134.4496  155.7652 H   0  0  0  0  0  0  0  0  0  0  0  0
  150.9207  134.7055  154.1660 H   0  0  0  0  0  0  0  0  0  0  0  0
  150.1602  135.9517  155.1350 H   0  0  0  0  0  0  0  0  0  0  0  0
  152.2033  134.4631  156.1513 H   0  0  0  0  0  0  0  0  0  0  0  0
  150.8273  134.8775  157.1863 H   0  0  0  0  0  0  0  0  0  0  0  0
  148.4765  132.0362  155.5819 H   0  0  0  0  0  0  0  0  0  0  0  0
  149.7078  132.1282  154.3128 H   0  0  0  0  0  0  0  0  0  0  0  0
  1  2  2  0  0  0  0
  2  3  1  0  0  0  0
  2  9  1  0  0  0  0
  3  4  1  0  0  0  0
  3 18  1  0  0  0  0
  4  8  2  0  0  0  0
  4  5  1  0  0  0  0
  5  6  2  0  0  0  0
  5 19  1  0  0  0  0
  6  7  1  0  0  0  0
  7 17  1  0  0  0  0
  7  8  1  0  0  0  0
  8 20  1  0  0  0  0
  9 10  1  0  0  0  0
  9 21  1  0  0  0  0
 10 16  1  0  0  0  0
 10 11  1  0  0  0  0
 10 22  1  0  0  0  0
 11 12  1  0  0  0  0
 11 23  1  0  0  0  0
 11 24  1  0  0  0  0
 12 13  1  0  0  0  0
 12 25  1  0  0  0  0
 12 26  1  0  0  0  0
 13 14  2  0  0  0  0
 13 15  2  0  0  0  0
 13 16  1  0  0  0  0
 16 27  1  0  0  0  0
 16 28  1  0  0  0  0
M  END
> <s_m_source_file>
AV-unprocessed.smi

> <i_m_source_file_index>
1698

> <i_lp_mmshare_version>
43012

> <i_f3d_flags>
0

> <s_epik_input>
Tz1TMSg9TylbQ0gyXVtDSDJdW0NASF0oW0NIMl0xKVtOSF1DKD1PKVtOSF1jMltjSF1uW25IXVtjSF0y

> <s_epik_cmdline>
J2VwaWtfcHl0aG9uJywgJy1waCcsICc3LjAnLCAnLXRuJywgJzgnLCAnLW1hJywgJzIwMCcsICctbWV0YWxfYmluZGluZycsICctaW1hZScsICc8aW5maWxlLm1hZT4nLCAnLW9tYWUnLCAnPG91dGZpbGUubWFlPic=

> <r_lp_tautomer_probability>
1

> <r_epik_Ionization_Penalty>
3.85517e-05

> <r_epik_Ionization_Penalty_Charging>
0

> <r_epik_Ionization_Penalty_Neutral>
3.85517e-05

> <r_epik_State_Penalty>
-0

> <r_epik_Charging_Adjusted_Penalty>
0

> <i_epik_Tot_Q>
0

> <i_epik_Tot_abs_Q>
0

> <r_epik_Metal_State_Penalty>
-0

> <b_epik_Metal_Only>
0

> <s_lp_Force_Field>
OPLS_2005

> <r_lp_Energy>
17.454

> <b_lp_Chiralities_Consistent>
1

> <s_lp_Variant>
AV-unprocessed.smi:1698-1

> <Gold.Version>
5.8.1

> <Gold.Id.Protein>
6NUR|6NUR_protein|mol2

> <Gold.PLP.Fitness>
34.7936

> <Gold.PLP.PLP>
-22.5731

> <Gold.PLP.part.hbond>
-3.7494

> <Gold.PLP.part.metal>
0.0000

> <Gold.PLP.part.buried>
-4.2389

> <Gold.PLP.part.nonpolar>
-15.3684

> <Gold.PLP.part.repulsive>
0.3202

> <Gold.PLP.ligand.clash>
0.0000

> <Gold.PLP.ligand.torsion>
0.7697

> <Gold.PLP.Chemscore.Hbond>
3.7080

> <Gold.PLP.Chemscore.CHOScore>
0.8783

> <Gold.PLP.Chemscore.Metal>
0.0000

> <Gold.Chemscore.Hbonds>
donor molecule, donor type, donor heavy atom, donor atom, acceptor molecule, acceptor atom, score
      L1  H     3    18       P1  7948  0.91
      L1  H     7    17       P1 10186  0.78
      L1  H     9    21       P1  7948  1.00
      P1  H  6896  6908       L1    15  0.98
      L1  C     5    19       P1 10747  0.86

> <Gold.PLP.Chemscore.Internal.Correction>
0.0012

> <Gold.Rescore>
     Score         DG    S(hbond)    S(metal)    S(lipo)     H(rot)  DE(clash)    DE(int)     intcor
     17.80     -19.29       3.63        0.00      36.23       1.00       0.02       1.47       ----

> <Gold.Chemscore.Fitness>
17.8036

> <Gold.Chemscore.DG>
-19.2881

> <Gold.Chemscore.ZeroCoef>
-5.4800

> <Gold.Chemscore.Hbond>
3.6315

> <Gold.Chemscore.Metal>
0.0000

> <Gold.Chemscore.Lipo>
36.2302

> <Gold.Chemscore.Internal_Hbond>
0.0000

> <Gold.Chemscore.DEClash>
0.0174

> <Gold.Chemscore.DEInternal>
1.4671

> <Gold.Chemscore.Rot>
1.0000

> <Gold.Chemscore.Internal.Correction>
   9.000000E+99

> <Gold.Chemscore.Hbonds>
donor molecule, donor type, donor heavy atom, donor atom, acceptor molecule, acceptor atom, score
      L1  H     3    18       P1  7948  0.35
      L1  H     7    17       P1 10186  0.77
      L1  H     9    21       P1  7948  0.30
      P1  H  6896  6908       L1    15  0.76

> <Gold.Chemscore.Hbond.Weighted>
-12.1292

> <Gold.Chemscore.Metal.Weighted>
-0.0000

> <Gold.Chemscore.Lipo.Weighted>
-4.2389

> <Gold.Chemscore.Internal_Hbond.Weighted>
0.0000

> <Gold.Chemscore.DEClash.Weighted>
0.0174

> <Gold.Chemscore.DEInternal.Weighted>
1.4671

> <Gold.Chemscore.Rot.Weighted>
2.5600

> <Gold.Chemscore.Internal.Correction.Weighted>
   9.000000E+99

> <Gold.Protein.RotatedTorsions>
[ 6907 6896 6895 6894 ] final   97.55 input  -60.11 | X-H torsion
[ 7974 7965 7964 7962 ] final   28.69 input  175.53 | X-H torsion
[ 8008 7997 7996 7995 ] final  -45.26 input   59.86 | X-H torsion
[ 10167 10162 10161 10158 ] final  -51.37 input  -65.29 | X-H torsion
[ 10718 10713 10712 10709 ] final   51.41 input   66.30 | X-H torsion
[ 10763 10752 10751 10750 ] final   55.62 input  -60.55 | X-H torsion
[ 11005 11000 10999 10996 ] final  110.88 input  -57.11 | X-H torsion

> <Gold.Protein.ActiveResidues>
 VAL166  LYS551  ARG553  GLY616  TRP617  ASP618  TYR619  PRO620  LYS621  CYS622 
 ASP623  PHE694  ASN695  SER759  ASP760  ASP761  ALA762  ILE779  LEU786  VAL792 
 PHE793  MET794  SER795  GLU796  ALA797  LYS798  CYS799  TRP800  GLU811  SER814 

> <Gold.Protein.RotatedAtoms>
  152.5422  134.0717  159.8196 H   0  0  0  0  0  0  0  0  0  0  0  0  # atno 6907 bound_to 6896
  151.0830  133.5367  159.2627 H   0  0  0  0  0  0  0  0  0  0  0  0  # atno 6908 bound_to 6896
  151.2187  135.0518  159.8995 H   0  0  0  0  0  0  0  0  0  0  0  0  # atno 6909 bound_to 6896
  146.1714  139.7022  142.8964 H   0  0  0  0  0  0  0  0  0  0  0  0  # atno 7974 bound_to 7965
  154.4000  140.1401  156.3818 H   0  0  0  0  0  0  0  0  0  0  0  0  # atno 8008 bound_to 7997
  155.7997  140.3476  155.5375 H   0  0  0  0  0  0  0  0  0  0  0  0  # atno 8009 bound_to 7997
  155.8496  140.0939  157.1673 H   0  0  0  0  0  0  0  0  0  0  0  0  # atno 8010 bound_to 7997
  140.6591  143.2622  151.4494 H   0  0  0  0  0  0  0  0  0  0  0  0  # atno 10167 bound_to 10162
  157.4978  130.8418  149.8279 H   0  0  0  0  0  0  0  0  0  0  0  0  # atno 10718 bound_to 10713
  152.9819  135.5704  154.5096 H   0  0  0  0  0  0  0  0  0  0  0  0  # atno 10763 bound_to 10752
  154.4602  135.2781  155.1720 H   0  0  0  0  0  0  0  0  0  0  0  0  # atno 10764 bound_to 10752
  154.3311  135.6249  153.5605 H   0  0  0  0  0  0  0  0  0  0  0  0  # atno 10765 bound_to 10752
  139.8891  134.9495  156.6347 H   0  0  0  0  0  0  0  0  0  0  0  0  # atno 11005 bound_to 11000
  145.4328  141.0416  143.2901 LP  0  0  0  0  0  0  0  0  0  0  0  0  # atno 17320 bound_to 7965
  144.8170  139.5860  143.7004 LP  0  0  0  0  0  0  0  0  0  0  0  0  # atno 17321 bound_to 7965
  139.5821  144.1687  152.1981 LP  0  0  0  0  0  0  0  0  0  0  0  0  # atno 17342 bound_to 10162
  140.1015  144.5535  150.6985 LP  0  0  0  0  0  0  0  0  0  0  0  0  # atno 17343 bound_to 10162
  156.0211  130.3795  150.1960 LP  0  0  0  0  0  0  0  0  0  0  0  0  # atno 17370 bound_to 10713
  157.0150  130.9962  151.3355 LP  0  0  0  0  0  0  0  0  0  0  0  0  # atno 17371 bound_to 10713
  140.7640  133.8794  155.8440 LP  0  0  0  0  0  0  0  0  0  0  0  0  # atno 17394 bound_to 11000
  140.9898  134.1293  157.4418 LP  0  0  0  0  0  0  0  0  0  0  0  0  # atno 17395 bound_to 11000

$$$$
