AV-unprocessed.smi:2790|AV-procd|sdf|10770|dock8
  -GOLD-   2272015203D 1   1.00000     0.00000
 Structure written by MMmdl.
 46 47  0  0  0  0  0  0  0  0  4 V2000
  145.8161  136.5984  162.2916 C   0  0  0  0  0  0  0  0  0  0  0  0
  146.5836  135.7168  161.3840 N   0  3  0  0  0  0  0  0  0  0  0  0
  147.5782  134.8971  162.1091 C   0  0  0  0  0  0  0  0  0  0  0  0
  147.1609  136.4389  160.2217 C   0  0  0  0  0  0  0  0  0  0  0  0
  148.0462  135.4841  159.4156 C   0  0  0  0  0  0  0  0  0  0  0  0
  147.6234  134.3481  159.1821 O   0  0  0  0  0  0  0  0  0  0  0  0
  149.2184  136.0812  159.0684 N   0  5  0  0  0  0  0  0  0  0  0  0
  149.3450  137.4928  158.6985 C   0  0  0  0  0  0  0  0  0  0  0  0
  149.3770  137.6841  157.1323 C   0  0  0  0  0  0  0  0  0  0  0  0
  149.5037  139.2034  156.8149 C   0  0  0  0  0  0  0  0  0  0  0  0
  148.5225  140.1350  157.2551 C   0  0  0  0  0  0  0  0  0  0  0  0
  148.6521  141.5039  156.9485 C   0  0  0  0  0  0  0  0  0  0  0  0
  149.7090  141.9356  156.2316 N   0  3  0  0  0  0  0  0  0  0  0  0
  150.6682  141.1026  155.7808 C   0  0  0  0  0  0  0  0  0  0  0  0
  150.5901  139.7234  156.0578 C   0  0  0  0  0  0  0  0  0  0  0  0
  150.6124  136.9431  156.5014 C   0  0  0  0  0  0  0  0  0  0  0  0
  150.5238  135.4023  156.4199 C   0  0  0  0  0  0  0  0  0  0  0  0
  149.2545  134.9467  155.6969 C   0  0  0  0  0  0  0  0  0  0  0  0
  148.0166  135.5424  156.3706 C   0  0  0  0  0  0  0  0  0  0  0  0
  148.0999  137.0828  156.4347 C   0  0  0  0  0  0  0  0  0  0  0  0
  146.4669  137.3348  162.7647 H   0  0  0  0  0  0  0  0  0  0  0  0
  145.3320  136.0153  163.0753 H   0  0  0  0  0  0  0  0  0  0  0  0
  145.0357  137.1304  161.7466 H   0  0  0  0  0  0  0  0  0  0  0  0
  148.3487  135.5249  162.5585 H   0  0  0  0  0  0  0  0  0  0  0  0
  148.0600  134.1909  161.4320 H   0  0  0  0  0  0  0  0  0  0  0  0
  147.0989  134.3216  162.9017 H   0  0  0  0  0  0  0  0  0  0  0  0
  146.3814  136.8615  159.5843 H   0  0  0  0  0  0  0  0  0  0  0  0
  147.7678  137.2841  160.5511 H   0  0  0  0  0  0  0  0  0  0  0  0
  148.5295  138.0963  159.1001 H   0  0  0  0  0  0  0  0  0  0  0  0
  150.2500  137.9186  159.1307 H   0  0  0  0  0  0  0  0  0  0  0  0
  147.6563  139.8157  157.8132 H   0  0  0  0  0  0  0  0  0  0  0  0
  147.9414  142.2600  157.2488 H   0  0  0  0  0  0  0  0  0  0  0  0
  151.4635  141.5599  155.2104 H   0  0  0  0  0  0  0  0  0  0  0  0
  151.3656  139.0840  155.6672 H   0  0  0  0  0  0  0  0  0  0  0  0
  150.7338  137.3008  155.4775 H   0  0  0  0  0  0  0  0  0  0  0  0
  151.5481  137.1965  157.0027 H   0  0  0  0  0  0  0  0  0  0  0  0
  151.3979  135.0153  155.8955 H   0  0  0  0  0  0  0  0  0  0  0  0
  150.5571  134.9638  157.4177 H   0  0  0  0  0  0  0  0  0  0  0  0
  149.2924  135.2586  154.6525 H   0  0  0  0  0  0  0  0  0  0  0  0
  149.1940  133.8581  155.6961 H   0  0  0  0  0  0  0  0  0  0  0  0
  147.1250  135.2492  155.8160 H   0  0  0  0  0  0  0  0  0  0  0  0
  147.8987  135.1225  157.3699 H   0  0  0  0  0  0  0  0  0  0  0  0
  147.1733  137.4535  156.8768 H   0  0  0  0  0  0  0  0  0  0  0  0
  148.0815  137.4314  155.4009 H   0  0  0  0  0  0  0  0  0  0  0  0
  145.9158  135.0695  160.9888 H   0  0  0  0  0  0  0  0  0  0  0  0
  149.7825  142.9303  156.0171 H   0  0  0  0  0  0  0  0  0  0  0  0
  1  2  1  0  0  0  0
  1 21  1  0  0  0  0
  1 22  1  0  0  0  0
  1 23  1  0  0  0  0
  2  3  1  0  0  0  0
  2  4  1  0  0  0  0
  2 45  1  0  0  0  0
  3 24  1  0  0  0  0
  3 25  1  0  0  0  0
  3 26  1  0  0  0  0
  4  5  1  0  0  0  0
  4 27  1  0  0  0  0
  4 28  1  0  0  0  0
  5  6  2  0  0  0  0
  5  7  1  0  0  0  0
  7  8  1  0  0  0  0
  8  9  1  0  0  0  0
  8 29  1  0  0  0  0
  8 30  1  0  0  0  0
  9 20  1  0  0  0  0
  9 10  1  0  0  0  0
  9 16  1  0  0  0  0
 10 15  1  0  0  0  0
 10 11  2  0  0  0  0
 11 12  1  0  0  0  0
 11 31  1  0  0  0  0
 12 13  2  0  0  0  0
 12 32  1  0  0  0  0
 13 14  1  0  0  0  0
 13 46  1  0  0  0  0
 14 15  2  0  0  0  0
 14 33  1  0  0  0  0
 15 34  1  0  0  0  0
 16 17  1  0  0  0  0
 16 35  1  0  0  0  0
 16 36  1  0  0  0  0
 17 18  1  0  0  0  0
 17 37  1  0  0  0  0
 17 38  1  0  0  0  0
 18 19  1  0  0  0  0
 18 39  1  0  0  0  0
 18 40  1  0  0  0  0
 19 20  1  0  0  0  0
 19 41  1  0  0  0  0
 19 42  1  0  0  0  0
 20 43  1  0  0  0  0
 20 44  1  0  0  0  0
M  CHG  1   2   1
M  CHG  1   7  -1
M  CHG  1  13   1
M  END
> <s_m_source_file>
AV-unprocessed.smi

> <i_m_source_file_index>
2790

> <i_lp_mmshare_version>
43012

> <i_f3d_flags>
0

> <s_epik_input>
W0NIM11OKFtDSDNdKVtDSDJdQyg9TylbTkhdW0NIMl1DMShbQ0gyXVtDSDJdW0NIMl1bQ0gyXVtDSDJdMSljMltjSF1bY0hdbltjSF1bY0hdMg==

> <s_epik_cmdline>
J2VwaWtfcHl0aG9uJywgJy1waCcsICc3LjAnLCAnLXRuJywgJzgnLCAnLW1hJywgJzIwMCcsICctbWV0YWxfYmluZGluZycsICctaW1hZScsICc8aW5maWxlLm1hZT4nLCAnLW9tYWUnLCAnPG91dGZpbGUubWFlPic=

> <r_epik_Ionization_Penalty>
6.72126

> <r_epik_Ionization_Penalty_Charging>
6.72126

> <r_epik_Ionization_Penalty_Neutral>
0

> <r_epik_State_Penalty>
7.43246

> <r_epik_Charging_Adjusted_Penalty>
14.1537

> <i_epik_Tot_Q>
1

> <i_epik_Tot_abs_Q>
3

> <r_epik_Metal_State_Penalty>
3.42758

> <b_epik_Metal_Only>
1

> <s_lp_Force_Field>
OPLS_2005

> <r_lp_Energy>
31.5627

> <b_lp_Chiralities_Consistent>
1

> <s_lp_Variant>
AV-unprocessed.smi:2790-5

> <Gold.Version>
5.8.1

> <Gold.Id.Protein>
6NUR|6NUR_protein|mol2

> <Gold.PLP.Fitness>
33.9339

> <Gold.PLP.PLP>
-23.2429

> <Gold.PLP.part.hbond>
-2.0000

> <Gold.PLP.part.metal>
0.0000

> <Gold.PLP.part.buried>
-5.5614

> <Gold.PLP.part.nonpolar>
-15.7299

> <Gold.PLP.part.repulsive>
0.1355

> <Gold.PLP.ligand.clash>
0.0000

> <Gold.PLP.ligand.torsion>
0.6947

> <Gold.PLP.Chemscore.Hbond>
4.0000

> <Gold.PLP.Chemscore.CHOScore>
0.0000

> <Gold.PLP.Chemscore.Metal>
0.0000

> <Gold.Chemscore.Hbonds>
donor molecule, donor type, donor heavy atom, donor atom, acceptor molecule, acceptor atom, score
      L1  H    13    46       P1  8028  1.97
      P1  H  6896  6909       L1     7  1.62

> <Gold.PLP.Chemscore.Internal.Correction>
0.0804

> <Gold.Rescore>
     Score         DG    S(hbond)    S(metal)    S(lipo)     H(rot)  DE(clash)    DE(int)     intcor
     10.65     -13.97       1.74        0.00      59.57       1.67       0.00       3.32       ----

> <Gold.Chemscore.Fitness>
10.6528

> <Gold.Chemscore.DG>
-13.9697

> <Gold.Chemscore.ZeroCoef>
-5.4800

> <Gold.Chemscore.Hbond>
1.7383

> <Gold.Chemscore.Metal>
0.0000

> <Gold.Chemscore.Lipo>
59.5688

> <Gold.Chemscore.Internal_Hbond>
0.0000

> <Gold.Chemscore.DEClash>
0.0000

> <Gold.Chemscore.DEInternal>
3.3169

> <Gold.Chemscore.Rot>
1.6741

> <Gold.Chemscore.Internal.Correction>
   9.000000E+99

> <Gold.Chemscore.Hbonds>
donor molecule, donor type, donor heavy atom, donor atom, acceptor molecule, acceptor atom, score
      L1  H    13    46       P1  8028  0.87
      P1  H  6896  6909       L1     7  0.44

> <Gold.Chemscore.Hbond.Weighted>
-5.8060

> <Gold.Chemscore.Metal.Weighted>
-0.0000

> <Gold.Chemscore.Lipo.Weighted>
-6.9695

> <Gold.Chemscore.Internal_Hbond.Weighted>
0.0000

> <Gold.Chemscore.DEClash.Weighted>
0.0000

> <Gold.Chemscore.DEInternal.Weighted>
3.3169

> <Gold.Chemscore.Rot.Weighted>
4.2858

> <Gold.Chemscore.Internal.Correction.Weighted>
   9.000000E+99

> <Gold.Protein.RotatedTorsions>
[ 6907 6896 6895 6894 ] final   60.31 input  -60.11 | X-H torsion
[ 7974 7965 7964 7962 ] final  142.58 input  175.53 | X-H torsion
[ 8008 7997 7996 7995 ] final  116.91 input   59.86 | X-H torsion
[ 10167 10162 10161 10158 ] final  -53.76 input  -65.29 | X-H torsion
[ 10718 10713 10712 10709 ] final   71.52 input   66.30 | X-H torsion
[ 10763 10752 10751 10750 ] final  115.35 input  -60.55 | X-H torsion
[ 11005 11000 10999 10996 ] final  -55.76 input  -57.11 | X-H torsion

> <Gold.Protein.ActiveResidues>
 VAL166  LYS551  ARG553  GLY616  TRP617  ASP618  TYR619  PRO620  LYS621  CYS622 
 ASP623  PHE694  ASN695  SER759  ASP760  ASP761  ALA762  ILE779  LEU786  VAL792 
 PHE793  MET794  SER795  GLU796  ALA797  LYS798  CYS799  TRP800  GLU811  SER814 

> <Gold.Protein.RotatedAtoms>
  152.3992  134.6314  160.0076 H   0  0  0  0  0  0  0  0  0  0  0  0  # atno 6907 bound_to 6896
  151.6525  133.3315  159.3163 H   0  0  0  0  0  0  0  0  0  0  0  0  # atno 6908 bound_to 6896
  150.7895  134.6950  159.6562 H   0  0  0  0  0  0  0  0  0  0  0  0  # atno 6909 bound_to 6896
  144.8995  139.5443  143.5760 H   0  0  0  0  0  0  0  0  0  0  0  0  # atno 7974 bound_to 7965
  156.2465  140.2907  156.0596 H   0  0  0  0  0  0  0  0  0  0  0  0  # atno 8008 bound_to 7997
  155.1790  140.0404  157.2895 H   0  0  0  0  0  0  0  0  0  0  0  0  # atno 8009 bound_to 7997
  154.6273  140.2490  155.7483 H   0  0  0  0  0  0  0  0  0  0  0  0  # atno 8010 bound_to 7997
  140.6467  143.2540  151.4839 H   0  0  0  0  0  0  0  0  0  0  0  0  # atno 10167 bound_to 10162
  157.6456  130.9532  150.0801 H   0  0  0  0  0  0  0  0  0  0  0  0  # atno 10718 bound_to 10713
  153.5209  135.3598  155.2631 H   0  0  0  0  0  0  0  0  0  0  0  0  # atno 10763 bound_to 10752
  154.8735  135.4045  154.3261 H   0  0  0  0  0  0  0  0  0  0  0  0  # atno 10764 bound_to 10752
  153.3931  135.7072  153.6547 H   0  0  0  0  0  0  0  0  0  0  0  0  # atno 10765 bound_to 10752
  141.1089  133.6611  156.4518 H   0  0  0  0  0  0  0  0  0  0  0  0  # atno 11005 bound_to 11000
  146.3100  139.7714  142.9027 LP  0  0  0  0  0  0  0  0  0  0  0  0  # atno 17320 bound_to 7965
  145.3641  141.0331  143.3268 LP  0  0  0  0  0  0  0  0  0  0  0  0  # atno 17321 bound_to 7965
  139.5678  144.2000  152.1792 LP  0  0  0  0  0  0  0  0  0  0  0  0  # atno 17342 bound_to 10162
  140.1287  144.5308  150.6816 LP  0  0  0  0  0  0  0  0  0  0  0  0  # atno 17343 bound_to 10162
  156.1780  130.3649  149.9074 LP  0  0  0  0  0  0  0  0  0  0  0  0  # atno 17370 bound_to 10713
  156.7033  130.8942  151.3602 LP  0  0  0  0  0  0  0  0  0  0  0  0  # atno 17371 bound_to 10713
  140.4829  134.6648  157.5178 LP  0  0  0  0  0  0  0  0  0  0  0  0  # atno 17394 bound_to 11000
  139.9972  134.6892  155.9590 LP  0  0  0  0  0  0  0  0  0  0  0  0  # atno 17395 bound_to 11000

$$$$
