AV-unprocessed.smi:2001|AV-procd|sdf|8109|dock2
  -GOLD-   2272010333D 1   1.00000     0.00000
 Structure written by MMmdl.
 50 51  0  0  0  0  0  0  0  0  3 V2000
  148.2041  127.4784  151.8483 C   0  0  0  0  0  0  0  0  0  0  0  0
  147.1872  128.2729  151.2639 O   0  0  0  0  0  0  0  0  0  0  0  0
  146.2677  128.7687  152.2224 C   0  0  0  0  0  0  0  0  0  0  0  0
  145.1565  129.5397  151.4940 C   0  0  0  0  0  0  0  0  0  0  0  0
  145.3668  130.9887  151.5719 N   0  0  0  0  0  0  0  0  0  0  0  0
  146.3383  131.3698  152.4818 N   0  0  0  0  0  0  0  0  0  0  0  0
  146.6281  132.6202  152.6471 C   0  0  0  0  0  0  0  0  0  0  0  0
  147.6792  133.0336  153.6317 C   0  0  0  0  0  0  0  0  0  0  0  0
  148.2454  132.1021  154.2201 O   0  0  0  0  0  0  0  0  0  0  0  0
  147.9354  134.3648  153.8117 N   0  5  0  0  0  0  0  0  0  0  0  0
  147.3028  135.2202  154.8140 C   0  0  0  0  0  0  0  0  0  0  0  0
  148.3859  135.9768  155.6071 C   0  0  0  0  0  0  0  0  0  0  0  0
  149.0679  137.0075  154.7797 N   0  3  1  0  0  0  0  0  0  0  0  0
  148.3927  138.3268  154.8294 C   0  0  0  0  0  0  0  0  0  0  0  0
  149.0868  139.3236  153.8822 C   0  0  1  0  0  0  0  0  0  0  0  0
  148.4661  140.7227  153.9619 C   0  0  0  0  0  0  0  0  0  0  0  0
  150.4618  139.4261  154.2373 O   0  0  0  0  0  0  0  0  0  0  0  0
  151.1521  138.1865  154.1183 C   0  0  1  0  0  0  0  0  0  0  0  0
  152.6327  138.4295  154.4303 C   0  0  0  0  0  0  0  0  0  0  0  0
  150.5155  137.1649  155.0785 C   0  0  0  0  0  0  0  0  0  0  0  0
  145.9361  133.6453  151.8749 C   0  0  0  0  0  0  0  0  0  0  0  0
  144.9952  133.2572  150.9867 C   0  0  0  0  0  0  0  0  0  0  0  0
  144.6557  131.8489  150.7835 C   0  0  0  0  0  0  0  0  0  0  0  0
  143.8094  131.4708  149.9737 O   0  0  0  0  0  0  0  0  0  0  0  0
  148.8832  127.1241  151.0730 H   0  0  0  0  0  0  0  0  0  0  0  0
  147.7831  126.6067  152.3510 H   0  0  0  0  0  0  0  0  0  0  0  0
  148.7871  128.0517  152.5701 H   0  0  0  0  0  0  0  0  0  0  0  0
  145.8390  127.9419  152.7911 H   0  0  0  0  0  0  0  0  0  0  0  0
  146.7844  129.4216  152.9278 H   0  0  0  0  0  0  0  0  0  0  0  0
  145.0990  129.2183  150.4525 H   0  0  0  0  0  0  0  0  0  0  0  0
  144.1901  129.2803  151.9303 H   0  0  0  0  0  0  0  0  0  0  0  0
  146.6225  135.9482  154.3704 H   0  0  0  0  0  0  0  0  0  0  0  0
  146.6987  134.6361  155.5089 H   0  0  0  0  0  0  0  0  0  0  0  0
  147.9026  136.4571  156.4597 H   0  0  0  0  0  0  0  0  0  0  0  0
  149.1200  135.2868  156.0269 H   0  0  0  0  0  0  0  0  0  0  0  0
  147.3470  138.2152  154.5392 H   0  0  0  0  0  0  0  0  0  0  0  0
  148.4050  138.7025  155.8542 H   0  0  0  0  0  0  0  0  0  0  0  0
  149.0084  138.9681  152.8533 H   0  0  0  0  0  0  0  0  0  0  0  0
  147.4123  140.7009  153.6831 H   0  0  0  0  0  0  0  0  0  0  0  0
  148.9736  141.4133  153.2880 H   0  0  0  0  0  0  0  0  0  0  0  0
  148.5370  141.1297  154.9712 H   0  0  0  0  0  0  0  0  0  0  0  0
  151.0693  137.8263  153.0913 H   0  0  0  0  0  0  0  0  0  0  0  0
  153.2093  137.5088  154.3373 H   0  0  0  0  0  0  0  0  0  0  0  0
  152.7667  138.8076  155.4442 H   0  0  0  0  0  0  0  0  0  0  0  0
  153.0608  139.1592  153.7427 H   0  0  0  0  0  0  0  0  0  0  0  0
  150.6405  137.4906  156.1127 H   0  0  0  0  0  0  0  0  0  0  0  0
  151.0278  136.2067  154.9835 H   0  0  0  0  0  0  0  0  0  0  0  0
  146.1591  134.6952  151.9943 H   0  0  0  0  0  0  0  0  0  0  0  0
  144.4777  134.0078  150.4075 H   0  0  0  0  0  0  0  0  0  0  0  0
  148.9931  136.6890  153.8240 H   0  0  0  0  0  0  0  0  0  0  0  0
  1  2  1  0  0  0  0
  1 25  1  0  0  0  0
  1 26  1  0  0  0  0
  1 27  1  0  0  0  0
  2  3  1  0  0  0  0
  3  4  1  0  0  0  0
  3 28  1  0  0  0  0
  3 29  1  0  0  0  0
  4  5  1  0  0  0  0
  4 30  1  0  0  0  0
  4 31  1  0  0  0  0
  5 23  1  0  0  0  0
  5  6  1  0  0  0  0
  6  7  2  0  0  0  0
  7  8  1  0  0  0  0
  7 21  1  0  0  0  0
  8  9  2  0  0  0  0
  8 10  1  0  0  0  0
 10 11  1  0  0  0  0
 11 12  1  0  0  0  0
 11 32  1  0  0  0  0
 11 33  1  0  0  0  0
 12 13  1  0  0  0  0
 12 34  1  0  0  0  0
 12 35  1  0  0  0  0
 13 20  1  0  0  0  0
 13 14  1  0  0  0  0
 13 50  1  0  0  0  0
 14 15  1  0  0  0  0
 14 36  1  0  0  0  0
 14 37  1  0  0  0  0
 15 16  1  0  0  0  0
 15 17  1  0  0  0  0
 15 38  1  0  0  0  0
 16 39  1  0  0  0  0
 16 40  1  0  0  0  0
 16 41  1  0  0  0  0
 17 18  1  0  0  0  0
 18 19  1  0  0  0  0
 18 20  1  0  0  0  0
 18 42  1  0  0  0  0
 19 43  1  0  0  0  0
 19 44  1  0  0  0  0
 19 45  1  0  0  0  0
 20 46  1  0  0  0  0
 20 47  1  0  0  0  0
 21 22  2  0  0  0  0
 21 48  1  0  0  0  0
 22 23  1  0  0  0  0
 22 49  1  0  0  0  0
 23 24  2  0  0  0  0
M  CHG  1  10  -1
M  CHG  1  13   1
M  END
> <s_m_source_file>
AV-unprocessed.smi

> <i_m_source_file_index>
2001

> <i_lp_mmshare_version>
43012

> <i_f3d_flags>
0

> <s_epik_input>
W0NIM11PW0NIMl1bQ0gyXW4xbmMoW2NIXVtjSF1jMT1PKUMoPU8pW05IXVtDSDJdW0NIMl1OMltDSDJdW0NAQEhdKFtDSDNdKU9bQ0BASF0oW0NIM10pW0NIMl0y

> <s_epik_cmdline>
J2VwaWtfcHl0aG9uJywgJy1waCcsICc3LjAnLCAnLXRuJywgJzgnLCAnLW1hJywgJzIwMCcsICctbWV0YWxfYmluZGluZycsICctaW1hZScsICc8aW5maWxlLm1hZT4nLCAnLW9tYWUnLCAnPG91dGZpbGUubWFlPic=

> <r_lp_tautomer_probability>
1

> <r_epik_Ionization_Penalty>
6.90846

> <r_epik_Ionization_Penalty_Charging>
6.90846

> <r_epik_Ionization_Penalty_Neutral>
1.08445e-11

> <r_epik_State_Penalty>
7.54671

> <r_epik_Charging_Adjusted_Penalty>
14.4552

> <i_epik_Tot_Q>
0

> <i_epik_Tot_abs_Q>
2

> <r_epik_Metal_State_Penalty>
3.46181

> <b_epik_Metal_Only>
1

> <s_lp_Force_Field>
OPLS_2005

> <r_lp_Energy>
40.5373

> <b_lp_Chiralities_Consistent>
1

> <s_lp_Variant>
AV-unprocessed.smi:2001-8

> <Gold.Version>
5.8.1

> <Gold.Id.Protein>
6NUR|6NUR_protein|mol2

> <Gold.PLP.Fitness>
47.3161

> <Gold.PLP.PLP>
-38.9401

> <Gold.PLP.part.hbond>
-2.9833

> <Gold.PLP.part.metal>
0.0000

> <Gold.PLP.part.buried>
-8.0679

> <Gold.PLP.part.nonpolar>
-30.7427

> <Gold.PLP.part.repulsive>
2.5171

> <Gold.PLP.ligand.clash>
0.0000

> <Gold.PLP.ligand.torsion>
1.6645

> <Gold.PLP.Chemscore.Hbond>
3.8000

> <Gold.PLP.Chemscore.CHOScore>
0.0000

> <Gold.PLP.Chemscore.Metal>
0.0000

> <Gold.Chemscore.Hbonds>
donor molecule, donor type, donor heavy atom, donor atom, acceptor molecule, acceptor atom, score
      L1  H    13    50       P1  7948  2.00
      P1  H  7989  7998       L1    17  1.00
      P1  H 10785 10796       L1    24  0.78

> <Gold.PLP.Chemscore.Internal.Correction>
0.3050

> <Gold.Rescore>
     Score         DG    S(hbond)    S(metal)    S(lipo)     H(rot)  DE(clash)    DE(int)     intcor
     15.39     -19.12       2.52        0.00      88.83       2.02       2.24       1.49       ----

> <Gold.Chemscore.Fitness>
15.3939

> <Gold.Chemscore.DG>
-19.1178

> <Gold.Chemscore.ZeroCoef>
-5.4800

> <Gold.Chemscore.Hbond>
2.5180

> <Gold.Chemscore.Metal>
0.0000

> <Gold.Chemscore.Lipo>
88.8350

> <Gold.Chemscore.Internal_Hbond>
0.0000

> <Gold.Chemscore.DEClash>
2.2365

> <Gold.Chemscore.DEInternal>
1.4873

> <Gold.Chemscore.Rot>
2.0179

> <Gold.Chemscore.Internal.Correction>
   9.000000E+99

> <Gold.Chemscore.Hbonds>
donor molecule, donor type, donor heavy atom, donor atom, acceptor molecule, acceptor atom, score
      L1  H    13    50       P1  7948  0.96
      P1  H  7989  7998       L1    17  0.62
      P1  H 10785 10796       L1    24  0.77

> <Gold.Chemscore.Hbond.Weighted>
-8.4100

> <Gold.Chemscore.Metal.Weighted>
-0.0000

> <Gold.Chemscore.Lipo.Weighted>
-10.3937

> <Gold.Chemscore.Internal_Hbond.Weighted>
0.0000

> <Gold.Chemscore.DEClash.Weighted>
2.2365

> <Gold.Chemscore.DEInternal.Weighted>
1.4873

> <Gold.Chemscore.Rot.Weighted>
5.1659

> <Gold.Chemscore.Internal.Correction.Weighted>
   9.000000E+99

> <Gold.Protein.RotatedTorsions>
[ 6907 6896 6895 6894 ] final   58.35 input  -60.11 | X-H torsion
[ 7974 7965 7964 7962 ] final -178.69 input  175.53 | X-H torsion
[ 8008 7997 7996 7995 ] final  -57.19 input   59.86 | X-H torsion
[ 10167 10162 10161 10158 ] final -113.21 input  -65.29 | X-H torsion
[ 10718 10713 10712 10709 ] final -117.24 input   66.30 | X-H torsion
[ 10763 10752 10751 10750 ] final -120.76 input  -60.55 | X-H torsion
[ 11005 11000 10999 10996 ] final   44.78 input  -57.11 | X-H torsion

> <Gold.Protein.ActiveResidues>
 VAL166  LYS551  ARG553  GLY616  TRP617  ASP618  TYR619  PRO620  LYS621  CYS622 
 ASP623  PHE694  ASN695  SER759  ASP760  ASP761  ALA762  ILE779  LEU786  VAL792 
 PHE793  MET794  SER795  GLU796  ALA797  LYS798  CYS799  TRP800  GLU811  SER814 

> <Gold.Protein.RotatedAtoms>
  152.3816  134.6581  160.0140 H   0  0  0  0  0  0  0  0  0  0  0  0  # atno 6907 bound_to 6896
  151.6843  133.3306  159.3235 H   0  0  0  0  0  0  0  0  0  0  0  0  # atno 6908 bound_to 6896
  150.7752  134.6690  159.6425 H   0  0  0  0  0  0  0  0  0  0  0  0  # atno 6909 bound_to 6896
  144.7132  140.0830  143.6425 H   0  0  0  0  0  0  0  0  0  0  0  0  # atno 7974 bound_to 7965
  154.4258  140.1112  156.5758 H   0  0  0  0  0  0  0  0  0  0  0  0  # atno 8008 bound_to 7997
  155.6164  140.3494  155.4619 H   0  0  0  0  0  0  0  0  0  0  0  0  # atno 8009 bound_to 7997
  156.0059  140.1209  157.0491 H   0  0  0  0  0  0  0  0  0  0  0  0  # atno 8010 bound_to 7997
  140.1143  143.4499  152.1732 H   0  0  0  0  0  0  0  0  0  0  0  0  # atno 10167 bound_to 10162
  156.1020  130.6179  150.9138 H   0  0  0  0  0  0  0  0  0  0  0  0  # atno 10718 bound_to 10713
  154.8652  135.4191  154.2512 H   0  0  0  0  0  0  0  0  0  0  0  0  # atno 10763 bound_to 10752
  153.3458  135.6996  153.6835 H   0  0  0  0  0  0  0  0  0  0  0  0  # atno 10764 bound_to 10752
  153.5795  135.3575  155.2842 H   0  0  0  0  0  0  0  0  0  0  0  0  # atno 10765 bound_to 10752
  140.1520  134.4450  155.8375 H   0  0  0  0  0  0  0  0  0  0  0  0  # atno 11005 bound_to 11000
  145.9686  139.2853  143.1112 LP  0  0  0  0  0  0  0  0  0  0  0  0  # atno 17320 bound_to 7965
  145.9142  140.9159  143.0438 LP  0  0  0  0  0  0  0  0  0  0  0  0  # atno 17321 bound_to 7965
  139.5602  144.7400  151.4177 LP  0  0  0  0  0  0  0  0  0  0  0  0  # atno 17342 bound_to 10162
  140.6908  143.7866  150.7252 LP  0  0  0  0  0  0  0  0  0  0  0  0  # atno 17343 bound_to 10162
  157.6191  131.0931  150.8655 LP  0  0  0  0  0  0  0  0  0  0  0  0  # atno 17370 bound_to 10713
  156.8782  130.5170  149.5292 LP  0  0  0  0  0  0  0  0  0  0  0  0  # atno 17371 bound_to 10713
  141.2200  133.6876  156.7438 LP  0  0  0  0  0  0  0  0  0  0  0  0  # atno 17394 bound_to 11000
  140.2593  134.8479  157.3743 LP  0  0  0  0  0  0  0  0  0  0  0  0  # atno 17395 bound_to 11000

$$$$
