AV-unprocessed.smi:1929|AV-procd|sdf|7802|dock2
  -GOLD-   22720 9543D 1   1.00000     0.00000
 Structure written by MMmdl.
 43 44  0  0  0  0  0  0  0  0  2 V2000
  155.5284  129.7544  155.1710 C   0  0  0  0  0  0  0  0  0  0  0  0
  154.2721  130.3791  155.5545 N   0  0  0  0  0  0  0  0  0  0  0  0
  154.0207  130.8828  156.7712 C   0  0  0  0  0  0  0  0  0  0  0  0
  154.8372  130.8654  157.6922 O   0  0  0  0  0  0  0  0  0  0  0  0
  152.6380  131.5112  156.9833 C   0  0  0  0  0  0  0  0  0  0  0  0
  151.7520  131.4616  155.7976 N   0  0  0  0  0  0  0  0  0  0  0  0
  150.6570  132.4210  155.9753 C   0  0  0  0  0  0  0  0  0  0  0  0
  149.7882  132.4940  154.7079 C   0  0  0  0  0  0  0  0  0  0  0  0
  149.2079  131.1174  154.3564 C   0  0  0  0  0  0  0  0  0  0  0  0
  148.4786  131.1930  153.0939 N   0  0  0  0  0  0  0  0  0  0  0  0
  147.3035  131.8138  152.9165 C   0  0  0  0  0  0  0  0  0  0  0  0
  146.6958  132.3866  153.8206 O   0  0  0  0  0  0  0  0  0  0  0  0
  146.8843  131.7070  151.6434 N   0  0  0  0  0  0  0  0  0  0  0  0
  145.7065  132.2348  151.0468 C   0  0  0  0  0  0  0  0  0  0  0  0
  144.7299  132.7829  151.9081 C   0  0  0  0  0  0  0  0  0  0  0  0
  143.5377  133.3053  151.3669 C   0  0  0  0  0  0  0  0  0  0  0  0
  143.3331  133.2704  150.0328 N   0  3  0  0  0  0  0  0  0  0  0  0
  144.2298  132.7451  149.1708 C   0  0  0  0  0  0  0  0  0  0  0  0
  145.4405  132.2075  149.6537 C   0  0  0  0  0  0  0  0  0  0  0  0
  150.3582  130.1010  154.2697 C   0  0  0  0  0  0  0  0  0  0  0  0
  151.2143  130.1156  155.5487 C   0  0  0  0  0  0  0  0  0  0  0  0
  155.4881  129.4498  154.1253 H   0  0  0  0  0  0  0  0  0  0  0  0
  155.7227  128.8689  155.7775 H   0  0  0  0  0  0  0  0  0  0  0  0
  156.3602  130.4495  155.2918 H   0  0  0  0  0  0  0  0  0  0  0  0
  153.5494  130.4362  154.8516 H   0  0  0  0  0  0  0  0  0  0  0  0
  152.1425  131.0354  157.8322 H   0  0  0  0  0  0  0  0  0  0  0  0
  152.8033  132.5516  157.2673 H   0  0  0  0  0  0  0  0  0  0  0  0
  150.0462  132.1460  156.8372 H   0  0  0  0  0  0  0  0  0  0  0  0
  151.0637  133.4125  156.1786 H   0  0  0  0  0  0  0  0  0  0  0  0
  148.9816  133.2131  154.8562 H   0  0  0  0  0  0  0  0  0  0  0  0
  150.3898  132.8702  153.8786 H   0  0  0  0  0  0  0  0  0  0  0  0
  148.5237  130.8184  155.1530 H   0  0  0  0  0  0  0  0  0  0  0  0
  148.9041  130.7389  152.2987 H   0  0  0  0  0  0  0  0  0  0  0  0
  147.4569  131.1368  151.0381 H   0  0  0  0  0  0  0  0  0  0  0  0
  144.8920  132.8089  152.9762 H   0  0  0  0  0  0  0  0  0  0  0  0
  142.7469  133.7455  151.9571 H   0  0  0  0  0  0  0  0  0  0  0  0
  143.9521  132.7651  148.1271 H   0  0  0  0  0  0  0  0  0  0  0  0
  146.1319  131.7764  148.9466 H   0  0  0  0  0  0  0  0  0  0  0  0
  149.9623  129.0978  154.1074 H   0  0  0  0  0  0  0  0  0  0  0  0
  150.9905  130.3258  153.4091 H   0  0  0  0  0  0  0  0  0  0  0  0
  152.0189  129.3914  155.4218 H   0  0  0  0  0  0  0  0  0  0  0  0
  150.6227  129.7830  156.4035 H   0  0  0  0  0  0  0  0  0  0  0  0
  142.4631  133.6528  149.6609 H   0  0  0  0  0  0  0  0  0  0  0  0
  1  2  1  0  0  0  0
  1 22  1  0  0  0  0
  1 23  1  0  0  0  0
  1 24  1  0  0  0  0
  2  3  1  0  0  0  0
  2 25  1  0  0  0  0
  3  4  2  0  0  0  0
  3  5  1  0  0  0  0
  5  6  1  0  0  0  0
  5 26  1  0  0  0  0
  5 27  1  0  0  0  0
  6 21  1  0  0  0  0
  6  7  1  0  0  0  0
  7  8  1  0  0  0  0
  7 28  1  0  0  0  0
  7 29  1  0  0  0  0
  8  9  1  0  0  0  0
  8 30  1  0  0  0  0
  8 31  1  0  0  0  0
  9 10  1  0  0  0  0
  9 20  1  0  0  0  0
  9 32  1  0  0  0  0
 10 11  1  0  0  0  0
 10 33  1  0  0  0  0
 11 12  2  0  0  0  0
 11 13  1  0  0  0  0
 13 14  1  0  0  0  0
 13 34  1  0  0  0  0
 14 19  1  0  0  0  0
 14 15  2  0  0  0  0
 15 16  1  0  0  0  0
 15 35  1  0  0  0  0
 16 17  2  0  0  0  0
 16 36  1  0  0  0  0
 17 18  1  0  0  0  0
 17 43  1  0  0  0  0
 18 19  2  0  0  0  0
 18 37  1  0  0  0  0
 19 38  1  0  0  0  0
 20 21  1  0  0  0  0
 20 39  1  0  0  0  0
 20 40  1  0  0  0  0
 21 41  1  0  0  0  0
 21 42  1  0  0  0  0
M  CHG  1  17   1
M  END
> <s_m_source_file>
AV-unprocessed.smi

> <i_m_source_file_index>
1929

> <i_lp_mmshare_version>
43012

> <i_f3d_flags>
0

> <s_epik_input>
W0NIM11bTkhdQyg9TylbQ0gyXU4xW0NIMl1bQ0gyXVtDSF0oW0NIMl1bQ0gyXTEpW05IXUMoPU8pW05IXWMyW2NIXVtjSF1uW2NIXVtjSF0y

> <s_epik_cmdline>
J2VwaWtfcHl0aG9uJywgJy1waCcsICc3LjAnLCAnLXRuJywgJzgnLCAnLW1hJywgJzIwMCcsICctbWV0YWxfYmluZGluZycsICctaW1hZScsICc8aW5maWxlLm1hZT4nLCAnLW9tYWUnLCAnPG91dGZpbGUubWFlPic=

> <r_epik_Ionization_Penalty>
1.15133

> <r_epik_Ionization_Penalty_Charging>
0.995513

> <r_epik_Ionization_Penalty_Neutral>
0.155816

> <r_epik_State_Penalty>
1.22166

> <r_epik_Charging_Adjusted_Penalty>
2.21717

> <i_epik_Tot_Q>
1

> <i_epik_Tot_abs_Q>
1

> <r_epik_Metal_State_Penalty>
1.32497

> <b_epik_Metal_Only>
0

> <s_lp_Force_Field>
OPLS_2005

> <r_lp_Energy>
25.1405

> <b_lp_Chiralities_Consistent>
1

> <s_lp_Variant>
AV-unprocessed.smi:1929-4

> <Gold.Version>
5.8.1

> <Gold.Id.Protein>
6NUR|6NUR_protein|mol2

> <Gold.PLP.Fitness>
46.9873

> <Gold.PLP.PLP>
-35.9017

> <Gold.PLP.part.hbond>
-3.0000

> <Gold.PLP.part.metal>
0.0000

> <Gold.PLP.part.buried>
-6.0720

> <Gold.PLP.part.nonpolar>
-27.0004

> <Gold.PLP.part.repulsive>
0.1770

> <Gold.PLP.ligand.clash>
0.0000

> <Gold.PLP.ligand.torsion>
0.2569

> <Gold.PLP.Chemscore.Hbond>
3.8640

> <Gold.PLP.Chemscore.CHOScore>
0.0000

> <Gold.PLP.Chemscore.Metal>
0.0000

> <Gold.Chemscore.Hbonds>
donor molecule, donor type, donor heavy atom, donor atom, acceptor molecule, acceptor atom, score
      L1  H    10    33       P1 10747  0.85
      L1  H    13    34       P1 10747  0.99
      L1  H    17    43       P1 10186  2.00

> <Gold.PLP.Chemscore.Internal.Correction>
0.0073

> <Gold.Rescore>
     Score         DG    S(hbond)    S(metal)    S(lipo)     H(rot)  DE(clash)    DE(int)     intcor
     17.30     -19.07       2.54        0.00      80.56       1.69       0.03       1.74       ----

> <Gold.Chemscore.Fitness>
17.2957

> <Gold.Chemscore.DG>
-19.0700

> <Gold.Chemscore.ZeroCoef>
-5.4800

> <Gold.Chemscore.Hbond>
2.5410

> <Gold.Chemscore.Metal>
0.0000

> <Gold.Chemscore.Lipo>
80.5551

> <Gold.Chemscore.Internal_Hbond>
0.0000

> <Gold.Chemscore.DEClash>
0.0307

> <Gold.Chemscore.DEInternal>
1.7435

> <Gold.Chemscore.Rot>
1.6883

> <Gold.Chemscore.Internal.Correction>
   9.000000E+99

> <Gold.Chemscore.Hbonds>
donor molecule, donor type, donor heavy atom, donor atom, acceptor molecule, acceptor atom, score
      L1  H    10    33       P1 10747  0.36
      L1  H    13    34       P1 10747  0.94
      L1  H    17    43       P1 10186  1.00

> <Gold.Chemscore.Hbond.Weighted>
-8.4871

> <Gold.Chemscore.Metal.Weighted>
-0.0000

> <Gold.Chemscore.Lipo.Weighted>
-9.4249

> <Gold.Chemscore.Internal_Hbond.Weighted>
0.0000

> <Gold.Chemscore.DEClash.Weighted>
0.0307

> <Gold.Chemscore.DEInternal.Weighted>
1.7435

> <Gold.Chemscore.Rot.Weighted>
4.3221

> <Gold.Chemscore.Internal.Correction.Weighted>
   9.000000E+99

> <Gold.Protein.RotatedTorsions>
[ 6907 6896 6895 6894 ] final  121.75 input  -60.11 | X-H torsion
[ 7974 7965 7964 7962 ] final  -33.47 input  175.53 | X-H torsion
[ 8008 7997 7996 7995 ] final -109.10 input   59.86 | X-H torsion
[ 10167 10162 10161 10158 ] final  -98.97 input  -65.29 | X-H torsion
[ 10718 10713 10712 10709 ] final  -70.06 input   66.30 | X-H torsion
[ 10763 10752 10751 10750 ] final  -35.81 input  -60.55 | X-H torsion
[ 11005 11000 10999 10996 ] final -119.87 input  -57.11 | X-H torsion

> <Gold.Protein.ActiveResidues>
 VAL166  LYS551  ARG553  GLY616  TRP617  ASP618  TYR619  PRO620  LYS621  CYS622 
 ASP623  PHE694  ASN695  SER759  ASP760  ASP761  ALA762  ILE779  LEU786  VAL792 
 PHE793  MET794  SER795  GLU796  ALA797  LYS798  CYS799  TRP800  GLU811  SER814 

> <Gold.Protein.RotatedAtoms>
  152.4297  133.7257  159.6558 H   0  0  0  0  0  0  0  0  0  0  0  0  # atno 6907 bound_to 6896
  150.8176  133.8299  159.3159 H   0  0  0  0  0  0  0  0  0  0  0  0  # atno 6908 bound_to 6896
  151.5991  135.1050  160.0108 H   0  0  0  0  0  0  0  0  0  0  0  0  # atno 6909 bound_to 6896
  146.0908  140.5920  142.8865 H   0  0  0  0  0  0  0  0  0  0  0  0  # atno 7974 bound_to 7965
  154.9543  140.0400  157.2159 H   0  0  0  0  0  0  0  0  0  0  0  0  # atno 8008 bound_to 7997
  154.7949  140.2842  155.5942 H   0  0  0  0  0  0  0  0  0  0  0  0  # atno 8009 bound_to 7997
  156.2954  140.2566  156.2805 H   0  0  0  0  0  0  0  0  0  0  0  0  # atno 8010 bound_to 7997
  140.2674  143.3367  152.0567 H   0  0  0  0  0  0  0  0  0  0  0  0  # atno 10167 bound_to 10162
  156.0425  130.4324  150.2240 H   0  0  0  0  0  0  0  0  0  0  0  0  # atno 10718 bound_to 10713
  153.8693  135.6832  153.4776 H   0  0  0  0  0  0  0  0  0  0  0  0  # atno 10763 bound_to 10752
  153.1296  135.4703  154.9326 H   0  0  0  0  0  0  0  0  0  0  0  0  # atno 10764 bound_to 10752
  154.7722  135.3242  154.8117 H   0  0  0  0  0  0  0  0  0  0  0  0  # atno 10765 bound_to 10752
  141.0184  134.0160  157.3317 H   0  0  0  0  0  0  0  0  0  0  0  0  # atno 11005 bound_to 11000
  144.7358  140.4805  143.6904 LP  0  0  0  0  0  0  0  0  0  0  0  0  # atno 17320 bound_to 7965
  145.6043  139.1507  143.3111 LP  0  0  0  0  0  0  0  0  0  0  0  0  # atno 17321 bound_to 7965
  139.4999  144.6679  151.6313 LP  0  0  0  0  0  0  0  0  0  0  0  0  # atno 17342 bound_to 10162
  140.5917  143.9768  150.6329 LP  0  0  0  0  0  0  0  0  0  0  0  0  # atno 17343 bound_to 10162
  157.0333  131.0014  151.3305 LP  0  0  0  0  0  0  0  0  0  0  0  0  # atno 17370 bound_to 10713
  157.5262  130.8029  149.7864 LP  0  0  0  0  0  0  0  0  0  0  0  0  # atno 17371 bound_to 10713
  139.9131  135.0193  156.7773 LP  0  0  0  0  0  0  0  0  0  0  0  0  # atno 17394 bound_to 11000
  140.6615  133.9641  155.7807 LP  0  0  0  0  0  0  0  0  0  0  0  0  # atno 17395 bound_to 11000

$$$$
