AV-unprocessed.smi:580|AV-procd|sdf|2990|dock10
  -GOLD-   2262023493D 1   1.00000     0.00000
 Structure written by MMmdl.
 36 37  0  0  0  0  0  0  0  0  1 V2000
  153.7647  137.8070  157.0318 C   0  0  0  0  0  0  0  0  0  0  0  0
  152.7285  138.2464  156.0550 C   0  0  0  0  0  0  0  0  0  0  0  0
  151.7141  137.5897  155.4167 C   0  0  0  0  0  0  0  0  0  0  0  0
  151.1186  138.6103  154.6287 C   0  0  0  0  0  0  0  0  0  0  0  0
  150.0052  138.3301  153.7962 N   0  0  0  0  0  0  0  0  0  0  0  0
  148.7803  138.8798  153.8534 C   0  0  0  0  0  0  0  0  0  0  0  0
  148.4209  139.7288  154.6696 O   0  0  0  0  0  0  0  0  0  0  0  0
  147.9791  138.3809  152.9009 N   0  0  0  0  0  0  0  0  0  0  0  0
  146.5817  138.7538  152.6859 C   0  0  2  0  0  0  0  0  0  0  0  0
  145.6390  137.9735  153.6260 C   0  0  0  0  0  0  0  0  0  0  0  0
  145.5561  136.4811  153.2597 C   0  0  0  0  0  0  0  0  0  0  0  0
  145.1433  136.2790  151.7892 C   0  0  2  0  0  0  0  0  0  0  0  0
  145.0645  134.7892  151.4271 C   0  0  0  0  0  0  0  0  0  0  0  0
  146.1029  137.0360  150.8514 C   0  0  0  0  0  0  0  0  0  0  0  0
  146.1912  138.5300  151.2122 C   0  0  0  0  0  0  0  0  0  0  0  0
  151.7159  139.7836  154.7720 N   0  0  0  0  0  0  0  0  0  0  0  0
  152.7511  139.5562  155.6866 O   0  0  0  0  0  0  0  0  0  0  0  0
  153.4911  136.8554  157.4879 H   0  0  0  0  0  0  0  0  0  0  0  0
  153.8831  138.5410  157.8291 H   0  0  0  0  0  0  0  0  0  0  0  0
  154.7295  137.6817  156.5403 H   0  0  0  0  0  0  0  0  0  0  0  0
  151.4440  136.5476  155.5023 H   0  0  0  0  0  0  0  0  0  0  0  0
  150.1585  137.6373  153.0785 H   0  0  0  0  0  0  0  0  0  0  0  0
  148.3608  137.6859  152.2763 H   0  0  0  0  0  0  0  0  0  0  0  0
  146.4800  139.8197  152.8981 H   0  0  0  0  0  0  0  0  0  0  0  0
  145.9540  138.0863  154.6640 H   0  0  0  0  0  0  0  0  0  0  0  0
  144.6401  138.4079  153.5679 H   0  0  0  0  0  0  0  0  0  0  0  0
  146.5203  136.0052  153.4426 H   0  0  0  0  0  0  0  0  0  0  0  0
  144.8415  135.9858  153.9181 H   0  0  0  0  0  0  0  0  0  0  0  0
  144.1455  136.7010  151.6600 H   0  0  0  0  0  0  0  0  0  0  0  0
  146.0346  134.3029  151.5352 H   0  0  0  0  0  0  0  0  0  0  0  0
  144.7366  134.6525  150.3963 H   0  0  0  0  0  0  0  0  0  0  0  0
  144.3560  134.2658  152.0698 H   0  0  0  0  0  0  0  0  0  0  0  0
  147.0961  136.5877  150.8992 H   0  0  0  0  0  0  0  0  0  0  0  0
  145.7711  136.9323  149.8178 H   0  0  0  0  0  0  0  0  0  0  0  0
  145.2232  138.9969  151.0257 H   0  0  0  0  0  0  0  0  0  0  0  0
  146.9000  139.0327  150.5531 H   0  0  0  0  0  0  0  0  0  0  0  0
  1  2  1  0  0  0  0
  1 18  1  0  0  0  0
  1 19  1  0  0  0  0
  1 20  1  0  0  0  0
  2 17  1  0  0  0  0
  2  3  2  0  0  0  0
  3  4  1  0  0  0  0
  3 21  1  0  0  0  0
  4  5  1  0  0  0  0
  4 16  2  0  0  0  0
  5  6  1  0  0  0  0
  5 22  1  0  0  0  0
  6  7  2  0  0  0  0
  6  8  1  0  0  0  0
  8  9  1  0  0  0  0
  8 23  1  0  0  0  0
  9 15  1  0  0  0  0
  9 10  1  0  0  0  0
  9 24  1  0  0  0  0
 10 11  1  0  0  0  0
 10 25  1  0  0  0  0
 10 26  1  0  0  0  0
 11 12  1  0  0  0  0
 11 27  1  0  0  0  0
 11 28  1  0  0  0  0
 12 13  1  0  0  0  0
 12 14  1  0  0  0  0
 12 29  1  0  0  0  0
 13 30  1  0  0  0  0
 13 31  1  0  0  0  0
 13 32  1  0  0  0  0
 14 15  1  0  0  0  0
 14 33  1  0  0  0  0
 14 34  1  0  0  0  0
 15 35  1  0  0  0  0
 15 36  1  0  0  0  0
 16 17  1  0  0  0  0
M  END
> <s_m_source_file>
AV-unprocessed.smi

> <i_m_source_file_index>
580

> <i_lp_mmshare_version>
43012

> <i_f3d_flags>
0

> <s_epik_input>
W0NIM11jMVtjSF1jKG5vMSlbTkhdQyg9TylbTkhdW0NAQEhdMltDSDJdW0NIMl1bQ0BASF0oW0NIM10pW0NIMl1bQ0gyXTI=

> <s_epik_cmdline>
J2VwaWtfcHl0aG9uJywgJy1waCcsICc3LjAnLCAnLXRuJywgJzgnLCAnLW1hJywgJzIwMCcsICctbWV0YWxfYmluZGluZycsICctaW1hZScsICc8aW5maWxlLm1hZT4nLCAnLW9tYWUnLCAnPG91dGZpbGUubWFlPic=

> <r_lp_tautomer_probability>
1

> <r_epik_Ionization_Penalty>
2.357e-05

> <r_epik_Ionization_Penalty_Charging>
0

> <r_epik_Ionization_Penalty_Neutral>
2.357e-05

> <r_epik_State_Penalty>
-0

> <r_epik_Charging_Adjusted_Penalty>
0

> <i_epik_Tot_Q>
0

> <i_epik_Tot_abs_Q>
0

> <r_epik_Metal_State_Penalty>
-0

> <b_epik_Metal_Only>
0

> <s_lp_Force_Field>
OPLS_2005

> <r_lp_Energy>
6.11035

> <b_lp_Chiralities_Consistent>
1

> <s_lp_Variant>
AV-unprocessed.smi:580-2

> <Gold.Version>
5.8.1

> <Gold.Id.Protein>
6NUR|6NUR_protein|mol2

> <Gold.PLP.Fitness>
34.5452

> <Gold.PLP.PLP>
-25.9586

> <Gold.PLP.part.hbond>
-5.6862

> <Gold.PLP.part.metal>
0.0000

> <Gold.PLP.part.buried>
4.8423

> <Gold.PLP.part.nonpolar>
-26.4045

> <Gold.PLP.part.repulsive>
0.2822

> <Gold.PLP.ligand.clash>
0.0000

> <Gold.PLP.ligand.torsion>
0.9081

> <Gold.PLP.Chemscore.Hbond>
3.4656

> <Gold.PLP.Chemscore.CHOScore>
0.0000

> <Gold.PLP.Chemscore.Metal>
0.0000

> <Gold.Chemscore.Hbonds>
donor molecule, donor type, donor heavy atom, donor atom, acceptor molecule, acceptor atom, score
      L1  H     5    22       P1  7948  0.45
      L1  H     8    23       P1  7948  1.00
      P1  H  7989  7998       L1    16  1.00
      P1  H  7997  8010       L1    17  1.00

> <Gold.PLP.Chemscore.Internal.Correction>
0.0060

> <Gold.Rescore>
     Score         DG    S(hbond)    S(metal)    S(lipo)     H(rot)  DE(clash)    DE(int)     intcor
     16.54     -20.17       3.06        0.00      60.17       1.00       2.78       0.85       ----

> <Gold.Chemscore.Fitness>
16.5436

> <Gold.Chemscore.DG>
-20.1711

> <Gold.Chemscore.ZeroCoef>
-5.4800

> <Gold.Chemscore.Hbond>
3.0572

> <Gold.Chemscore.Metal>
0.0000

> <Gold.Chemscore.Lipo>
60.1717

> <Gold.Chemscore.Internal_Hbond>
0.0000

> <Gold.Chemscore.DEClash>
2.7823

> <Gold.Chemscore.DEInternal>
0.8452

> <Gold.Chemscore.Rot>
1.0000

> <Gold.Chemscore.Internal.Correction>
   9.000000E+99

> <Gold.Chemscore.Hbonds>
donor molecule, donor type, donor heavy atom, donor atom, acceptor molecule, acceptor atom, score
      L1  H     5    22       P1  7948  0.08
      L1  H     8    23       P1  7948  0.98
      P1  H  7989  7998       L1    16  0.93
      P1  H  7997  8010       L1    17  0.40

> <Gold.Chemscore.Hbond.Weighted>
-10.2110

> <Gold.Chemscore.Metal.Weighted>
-0.0000

> <Gold.Chemscore.Lipo.Weighted>
-7.0401

> <Gold.Chemscore.Internal_Hbond.Weighted>
0.0000

> <Gold.Chemscore.DEClash.Weighted>
2.7823

> <Gold.Chemscore.DEInternal.Weighted>
0.8452

> <Gold.Chemscore.Rot.Weighted>
2.5600

> <Gold.Chemscore.Internal.Correction.Weighted>
   9.000000E+99

> <Gold.Protein.RotatedTorsions>
[ 6907 6896 6895 6894 ] final -127.99 input  -60.11 | X-H torsion
[ 7974 7965 7964 7962 ] final -125.06 input  175.53 | X-H torsion
[ 8008 7997 7996 7995 ] final   77.12 input   59.86 | X-H torsion
[ 10167 10162 10161 10158 ] final -174.13 input  -65.29 | X-H torsion
[ 10718 10713 10712 10709 ] final    2.65 input   66.30 | X-H torsion
[ 10763 10752 10751 10750 ] final  -37.19 input  -60.55 | X-H torsion
[ 11005 11000 10999 10996 ] final -127.50 input  -57.11 | X-H torsion

> <Gold.Protein.ActiveResidues>
 VAL166  LYS551  ARG553  GLY616  TRP617  ASP618  TYR619  PRO620  LYS621  CYS622 
 ASP623  PHE694  ASN695  SER759  ASP760  ASP761  ALA762  ILE779  LEU786  VAL792 
 PHE793  MET794  SER795  GLU796  ALA797  LYS798  CYS799  TRP800  GLU811  SER814 

> <Gold.Protein.RotatedAtoms>
  150.9131  133.6973  159.2849 H   0  0  0  0  0  0  0  0  0  0  0  0  # atno 6907 bound_to 6896
  151.4453  135.1023  159.9691 H   0  0  0  0  0  0  0  0  0  0  0  0  # atno 6908 bound_to 6896
  152.4940  133.8530  159.7266 H   0  0  0  0  0  0  0  0  0  0  0  0  # atno 6909 bound_to 6896
  145.0016  140.7825  143.4493 H   0  0  0  0  0  0  0  0  0  0  0  0  # atno 7974 bound_to 7965
  155.8371  140.3464  155.5608 H   0  0  0  0  0  0  0  0  0  0  0  0  # atno 8008 bound_to 7997
  155.8181  140.0909  157.1885 H   0  0  0  0  0  0  0  0  0  0  0  0  # atno 8009 bound_to 7997
  154.4004  140.1435  156.3454 H   0  0  0  0  0  0  0  0  0  0  0  0  # atno 8010 bound_to 7997
  139.5650  144.1777  152.1299 H   0  0  0  0  0  0  0  0  0  0  0  0  # atno 10167 bound_to 10162
  156.8662  130.5604  149.5660 H   0  0  0  0  0  0  0  0  0  0  0  0  # atno 10718 bound_to 10713
  153.8923  135.6811  153.4760 H   0  0  0  0  0  0  0  0  0  0  0  0  # atno 10763 bound_to 10752
  153.1174  135.4755  154.9137 H   0  0  0  0  0  0  0  0  0  0  0  0  # atno 10764 bound_to 10752
  154.7616  135.3212  154.8320 H   0  0  0  0  0  0  0  0  0  0  0  0  # atno 10765 bound_to 10752
  140.9594  134.0957  157.3983 H   0  0  0  0  0  0  0  0  0  0  0  0  # atno 11005 bound_to 11000
  145.2146  139.2188  143.5125 LP  0  0  0  0  0  0  0  0  0  0  0  0  # atno 17320 bound_to 7965
  146.3453  140.1991  142.8589 LP  0  0  0  0  0  0  0  0  0  0  0  0  # atno 17321 bound_to 7965
  140.1298  144.5299  150.6810 LP  0  0  0  0  0  0  0  0  0  0  0  0  # atno 17342 bound_to 10162
  140.6933  143.2389  151.5070 LP  0  0  0  0  0  0  0  0  0  0  0  0  # atno 17343 bound_to 10162
  156.0751  130.5775  150.9457 LP  0  0  0  0  0  0  0  0  0  0  0  0  # atno 17370 bound_to 10713
  157.6222  131.0929  150.8601 LP  0  0  0  0  0  0  0  0  0  0  0  0  # atno 17371 bound_to 10713
  139.8873  135.0088  156.6551 LP  0  0  0  0  0  0  0  0  0  0  0  0  # atno 17394 bound_to 11000
  140.7489  133.8914  155.8332 LP  0  0  0  0  0  0  0  0  0  0  0  0  # atno 17395 bound_to 11000

$$$$
