AV-unprocessed.smi:3339|AV-procd|sdf|12877|dock5
  -GOLD-   2272019283D 1   1.00000     0.00000
 Structure written by MMmdl.
 39 40  0  0  0  0  0  0  0  0  1 V2000
  148.4081  139.1725  154.0899 C   0  0  0  0  0  0  0  0  0  0  0  0
  149.8523  139.2254  154.6019 C   0  0  0  0  0  0  0  0  0  0  0  0
  149.9925  138.5068  155.9541 C   0  0  0  0  0  0  0  0  0  0  0  0
  150.2022  140.5988  154.7190 O   0  0  0  0  0  0  0  0  0  0  0  0
  149.2936  141.3811  155.4819 C   0  0  0  0  0  0  0  0  0  0  0  0
  149.8674  141.5700  156.8966 C   0  0  2  0  0  0  0  0  0  0  0  0
  149.1633  142.6402  157.4951 O   0  0  0  0  0  0  0  0  0  0  0  0
  151.3629  141.9470  156.8659 C   0  0  0  0  0  0  0  0  0  0  0  0
  151.9817  141.8016  158.1822 N   0  0  0  0  0  0  0  0  0  0  0  0
  152.7256  140.7558  158.6133 C   0  0  0  0  0  0  0  0  0  0  0  0
  153.0020  139.7493  157.9612 O   0  0  0  0  0  0  0  0  0  0  0  0
  153.1258  141.0196  159.8790 N   0  0  0  0  0  0  0  0  0  0  0  0
  153.9593  140.1753  160.7263 C   0  0  0  0  0  0  0  0  0  0  0  0
  152.6444  142.2786  160.2607 C   0  0  0  0  0  0  0  0  0  0  0  0
  152.8002  143.0042  161.4541 C   0  0  0  0  0  0  0  0  0  0  0  0
  152.1845  144.2763  161.5213 C   0  0  0  0  0  0  0  0  0  0  0  0
  151.4462  144.7859  160.4213 C   0  0  0  0  0  0  0  0  0  0  0  0
  151.3062  144.0339  159.2313 C   0  0  0  0  0  0  0  0  0  0  0  0
  151.9252  142.7722  159.1929 C   0  0  0  0  0  0  0  0  0  0  0  0
  148.0768  138.1431  153.9504 H   0  0  0  0  0  0  0  0  0  0  0  0
  148.3159  139.6827  153.1306 H   0  0  0  0  0  0  0  0  0  0  0  0
  147.7229  139.6531  154.7891 H   0  0  0  0  0  0  0  0  0  0  0  0
  150.4901  138.7404  153.8611 H   0  0  0  0  0  0  0  0  0  0  0  0
  149.6477  137.4750  155.8833 H   0  0  0  0  0  0  0  0  0  0  0  0
  149.4022  139.0023  156.7256 H   0  0  0  0  0  0  0  0  0  0  0  0
  151.0274  138.4764  156.2934 H   0  0  0  0  0  0  0  0  0  0  0  0
  149.1840  142.3531  155.0016 H   0  0  0  0  0  0  0  0  0  0  0  0
  148.3020  140.9259  155.5161 H   0  0  0  0  0  0  0  0  0  0  0  0
  149.7211  140.6552  157.4730 H   0  0  0  0  0  0  0  0  0  0  0  0
  148.8617  143.2211  156.8132 H   0  0  0  0  0  0  0  0  0  0  0  0
  151.9011  141.2871  156.1850 H   0  0  0  0  0  0  0  0  0  0  0  0
  151.5081  142.9540  156.4708 H   0  0  0  0  0  0  0  0  0  0  0  0
  153.5712  140.1521  161.7451 H   0  0  0  0  0  0  0  0  0  0  0  0
  154.9772  140.5640  160.7559 H   0  0  0  0  0  0  0  0  0  0  0  0
  153.9977  139.1476  160.3624 H   0  0  0  0  0  0  0  0  0  0  0  0
  153.3670  142.6115  162.2853 H   0  0  0  0  0  0  0  0  0  0  0  0
  152.2796  144.8676  162.4200 H   0  0  0  0  0  0  0  0  0  0  0  0
  150.9872  145.7610  160.4929 H   0  0  0  0  0  0  0  0  0  0  0  0
  150.7494  144.4180  158.3892 H   0  0  0  0  0  0  0  0  0  0  0  0
  1  2  1  0  0  0  0
  1 20  1  0  0  0  0
  1 21  1  0  0  0  0
  1 22  1  0  0  0  0
  2  3  1  0  0  0  0
  2  4  1  0  0  0  0
  2 23  1  0  0  0  0
  3 24  1  0  0  0  0
  3 25  1  0  0  0  0
  3 26  1  0  0  0  0
  4  5  1  0  0  0  0
  5  6  1  0  0  0  0
  5 27  1  0  0  0  0
  5 28  1  0  0  0  0
  6  7  1  0  0  0  0
  6  8  1  0  0  0  0
  6 29  1  0  0  0  0
  7 30  1  0  0  0  0
  8  9  1  0  0  0  0
  8 31  1  0  0  0  0
  8 32  1  0  0  0  0
  9 19  1  0  0  0  0
  9 10  1  0  0  0  0
 10 11  2  0  0  0  0
 10 12  1  0  0  0  0
 12 13  1  0  0  0  0
 12 14  1  0  0  0  0
 13 33  1  0  0  0  0
 13 34  1  0  0  0  0
 13 35  1  0  0  0  0
 14 19  2  0  0  0  0
 14 15  1  0  0  0  0
 15 16  2  0  0  0  0
 15 36  1  0  0  0  0
 16 17  1  0  0  0  0
 16 37  1  0  0  0  0
 17 18  2  0  0  0  0
 17 38  1  0  0  0  0
 18 19  1  0  0  0  0
 18 39  1  0  0  0  0
M  END
> <s_m_source_file>
AV-unprocessed.smi

> <i_m_source_file_index>
3339

> <i_lp_mmshare_version>
43012

> <i_f3d_flags>
0

> <s_epik_input>
W0NIM11bQ0hdKFtDSDNdKU9bQ0gyXVtDQEhdKFtPSF0pW0NIMl1uKGMoPU8pbjFbQ0gzXSljKGMxMilbY0hdW2NIXVtjSF1bY0hdMg==

> <s_epik_cmdline>
J2VwaWtfcHl0aG9uJywgJy1waCcsICc3LjAnLCAnLXRuJywgJzgnLCAnLW1hJywgJzIwMCcsICctbWV0YWxfYmluZGluZycsICctaW1hZScsICc8aW5maWxlLm1hZT4nLCAnLW9tYWUnLCAnPG91dGZpbGUubWFlPic=

> <r_lp_tautomer_probability>
1

> <r_epik_Ionization_Penalty>
3.68683e-07

> <r_epik_Ionization_Penalty_Charging>
2.29158e-09

> <r_epik_Ionization_Penalty_Neutral>
3.66391e-07

> <r_epik_State_Penalty>
-0

> <r_epik_Charging_Adjusted_Penalty>
2.29158e-09

> <i_epik_Tot_Q>
0

> <i_epik_Tot_abs_Q>
0

> <r_epik_Metal_State_Penalty>
-0

> <b_epik_Metal_Only>
0

> <s_lp_Force_Field>
OPLS_2005

> <r_lp_Energy>
41.4945

> <b_lp_Chiralities_Consistent>
1

> <s_lp_Variant>
AV-unprocessed.smi:3339-1

> <Gold.Version>
5.8.1

> <Gold.Id.Protein>
6NUR|6NUR_protein|mol2

> <Gold.PLP.Fitness>
50.4003

> <Gold.PLP.PLP>
-43.1060

> <Gold.PLP.part.hbond>
-3.0000

> <Gold.PLP.part.metal>
0.0000

> <Gold.PLP.part.buried>
-5.6341

> <Gold.PLP.part.nonpolar>
-34.0362

> <Gold.PLP.part.repulsive>
0.0943

> <Gold.PLP.ligand.clash>
0.0000

> <Gold.PLP.ligand.torsion>
0.8609

> <Gold.PLP.Chemscore.Hbond>
2.9920

> <Gold.PLP.Chemscore.CHOScore>
0.0000

> <Gold.PLP.Chemscore.Metal>
0.0000

> <Gold.Chemscore.Hbonds>
donor molecule, donor type, donor heavy atom, donor atom, acceptor molecule, acceptor atom, score
      L1  H     7    30       P1  8028  1.00
      P1  H  7989  7998       L1     4  0.90
      P1  H  7997  8008       L1    11  0.96

> <Gold.PLP.Chemscore.Internal.Correction>
0.0400

> <Gold.Rescore>
     Score         DG    S(hbond)    S(metal)    S(lipo)     H(rot)  DE(clash)    DE(int)     intcor
     20.60     -22.30       2.78        0.00     110.94       2.13       0.91       0.79       ----

> <Gold.Chemscore.Fitness>
20.6035

> <Gold.Chemscore.DG>
-22.3009

> <Gold.Chemscore.ZeroCoef>
-5.4800

> <Gold.Chemscore.Hbond>
2.7836

> <Gold.Chemscore.Metal>
0.0000

> <Gold.Chemscore.Lipo>
110.9416

> <Gold.Chemscore.Internal_Hbond>
0.0000

> <Gold.Chemscore.DEClash>
0.9071

> <Gold.Chemscore.DEInternal>
0.7904

> <Gold.Chemscore.Rot>
2.1314

> <Gold.Chemscore.Internal.Correction>
   9.000000E+99

> <Gold.Chemscore.Hbonds>
donor molecule, donor type, donor heavy atom, donor atom, acceptor molecule, acceptor atom, score
      L1  H     7    30       P1  8028  0.81
      P1  H  7989  7998       L1     4  0.49
      P1  H  7997  8008       L1    11  0.60

> <Gold.Chemscore.Hbond.Weighted>
-9.2972

> <Gold.Chemscore.Metal.Weighted>
-0.0000

> <Gold.Chemscore.Lipo.Weighted>
-12.9802

> <Gold.Chemscore.Internal_Hbond.Weighted>
0.0000

> <Gold.Chemscore.DEClash.Weighted>
0.9071

> <Gold.Chemscore.DEInternal.Weighted>
0.7904

> <Gold.Chemscore.Rot.Weighted>
5.4564

> <Gold.Chemscore.Internal.Correction.Weighted>
   9.000000E+99

> <Gold.Protein.RotatedTorsions>
[ 6907 6896 6895 6894 ] final  -52.77 input  -60.11 | X-H torsion
[ 7974 7965 7964 7962 ] final   60.53 input  175.53 | X-H torsion
[ 8008 7997 7996 7995 ] final  -97.00 input   59.86 | X-H torsion
[ 10167 10162 10161 10158 ] final   97.34 input  -65.29 | X-H torsion
[ 10718 10713 10712 10709 ] final -123.08 input   66.30 | X-H torsion
[ 10763 10752 10751 10750 ] final   25.00 input  -60.55 | X-H torsion
[ 11005 11000 10999 10996 ] final  -80.40 input  -57.11 | X-H torsion

> <Gold.Protein.ActiveResidues>
 VAL166  LYS551  ARG553  GLY616  TRP617  ASP618  TYR619  PRO620  LYS621  CYS622 
 ASP623  PHE694  ASN695  SER759  ASP760  ASP761  ALA762  ILE779  LEU786  VAL792 
 PHE793  MET794  SER795  GLU796  ALA797  LYS798  CYS799  TRP800  GLU811  SER814 

> <Gold.Protein.RotatedAtoms>
  150.8488  134.7805  159.6991 H   0  0  0  0  0  0  0  0  0  0  0  0  # atno 6907 bound_to 6896
  152.4558  134.5292  159.9815 H   0  0  0  0  0  0  0  0  0  0  0  0  # atno 6908 bound_to 6896
  151.5417  133.3394  159.2972 H   0  0  0  0  0  0  0  0  0  0  0  0  # atno 6909 bound_to 6896
  145.8950  139.3538  143.0627 H   0  0  0  0  0  0  0  0  0  0  0  0  # atno 7974 bound_to 7965
  154.7820  140.0466  157.1134 H   0  0  0  0  0  0  0  0  0  0  0  0  # atno 8008 bound_to 7997
  154.9694  140.3087  155.4975 H   0  0  0  0  0  0  0  0  0  0  0  0  # atno 8009 bound_to 7997
  156.2938  140.2256  156.4785 H   0  0  0  0  0  0  0  0  0  0  0  0  # atno 8010 bound_to 7997
  139.7810  144.6888  151.0022 H   0  0  0  0  0  0  0  0  0  0  0  0  # atno 10167 bound_to 10162
  156.1472  130.6508  150.9860 H   0  0  0  0  0  0  0  0  0  0  0  0  # atno 10718 bound_to 10713
  153.0723  135.6593  154.0221 H   0  0  0  0  0  0  0  0  0  0  0  0  # atno 10763 bound_to 10752
  153.9863  135.2950  155.3417 H   0  0  0  0  0  0  0  0  0  0  0  0  # atno 10764 bound_to 10752
  154.7101  135.5208  153.8724 H   0  0  0  0  0  0  0  0  0  0  0  0  # atno 10765 bound_to 10752
  141.1668  133.7149  156.8267 H   0  0  0  0  0  0  0  0  0  0  0  0  # atno 11005 bound_to 11000
  145.8862  140.9332  143.0576 LP  0  0  0  0  0  0  0  0  0  0  0  0  # atno 17320 bound_to 7965
  144.6732  140.0845  143.7468 LP  0  0  0  0  0  0  0  0  0  0  0  0  # atno 17321 bound_to 7965
  140.7818  143.4483  151.0450 LP  0  0  0  0  0  0  0  0  0  0  0  0  # atno 17342 bound_to 10162
  139.8163  143.7881  152.3174 LP  0  0  0  0  0  0  0  0  0  0  0  0  # atno 17343 bound_to 10162
  157.6627  131.0878  150.7802 LP  0  0  0  0  0  0  0  0  0  0  0  0  # atno 17370 bound_to 10713
  156.7872  130.4878  149.5391 LP  0  0  0  0  0  0  0  0  0  0  0  0  # atno 17371 bound_to 10713
  140.2080  134.8848  157.3243 LP  0  0  0  0  0  0  0  0  0  0  0  0  # atno 17394 bound_to 11000
  140.2117  134.4131  155.7609 LP  0  0  0  0  0  0  0  0  0  0  0  0  # atno 17395 bound_to 11000

$$$$
