AV-unprocessed.smi:1796|AV-procd|sdf|7251|dock5
  -GOLD-   22720 8503D 1   1.00000     0.00000
 Structure written by MMmdl.
 42 43  0  0  0  0  0  0  0  0  1 V2000
  152.2416  144.2725  161.7970 C   0  0  0  0  0  0  0  0  0  0  0  0
  152.6437  142.9900  161.0640 C   0  0  0  0  0  0  0  0  0  0  0  0
  152.9723  142.0160  161.7414 O   0  0  0  0  0  0  0  0  0  0  0  0
  152.6290  142.9686  159.7097 N   0  0  0  0  0  0  0  0  0  0  0  0
  152.1697  144.1039  158.8991 C   0  0  0  0  0  0  0  0  0  0  0  0
  150.8400  143.7279  158.2189 C   0  0  0  0  0  0  0  0  0  0  0  0
  150.9844  142.4352  157.3928 C   0  0  0  0  0  0  0  0  0  0  0  0
  151.6186  141.2997  158.2272 C   0  0  1  0  0  0  0  0  0  0  0  0
  151.8768  140.0504  157.3779 C   0  0  0  0  0  0  0  0  0  0  0  0
  153.0144  139.5889  157.2855 O   0  0  0  0  0  0  0  0  0  0  0  0
  150.8006  139.4926  156.8006 N   0  0  0  0  0  0  0  0  0  0  0  0
  150.7757  138.2052  156.1076 C   0  0  2  0  0  0  0  0  0  0  0  0
  150.2806  138.4120  154.6699 C   0  0  0  0  0  0  0  0  0  0  0  0
  149.8855  137.2071  156.8777 C   0  0  0  0  0  0  0  0  0  0  0  0
  150.0247  135.8446  156.3920 N   0  0  0  0  0  0  0  0  0  0  0  0
  149.8360  135.3701  155.1105 C   0  0  0  0  0  0  0  0  0  0  0  0
  150.0494  134.0220  155.1408 C   0  0  0  0  0  0  0  0  0  0  0  0
  150.3745  133.7628  156.5017 C   0  0  0  0  0  0  0  0  0  0  0  0
  150.3612  134.8559  157.2478 N   0  0  0  0  0  0  0  0  0  0  0  0
  152.9291  141.7959  158.8787 C   0  0  0  0  0  0  0  0  0  0  0  0
  152.8794  145.1056  161.5002 H   0  0  0  0  0  0  0  0  0  0  0  0
  152.3411  144.1455  162.8757 H   0  0  0  0  0  0  0  0  0  0  0  0
  151.2027  144.5285  161.5868 H   0  0  0  0  0  0  0  0  0  0  0  0
  152.0416  145.0163  159.4831 H   0  0  0  0  0  0  0  0  0  0  0  0
  152.9235  144.3372  158.1458 H   0  0  0  0  0  0  0  0  0  0  0  0
  150.0703  143.5902  158.9793 H   0  0  0  0  0  0  0  0  0  0  0  0
  150.5008  144.5436  157.5797 H   0  0  0  0  0  0  0  0  0  0  0  0
  150.0089  142.1284  157.0135 H   0  0  0  0  0  0  0  0  0  0  0  0
  151.6030  142.6438  156.5184 H   0  0  0  0  0  0  0  0  0  0  0  0
  150.9233  141.0338  159.0260 H   0  0  0  0  0  0  0  0  0  0  0  0
  149.9116  139.9555  156.9227 H   0  0  0  0  0  0  0  0  0  0  0  0
  151.7828  137.7891  156.0461 H   0  0  0  0  0  0  0  0  0  0  0  0
  150.2695  137.4699  154.1209 H   0  0  0  0  0  0  0  0  0  0  0  0
  150.9282  139.1009  154.1265 H   0  0  0  0  0  0  0  0  0  0  0  0
  149.2692  138.8195  154.6517 H   0  0  0  0  0  0  0  0  0  0  0  0
  150.1289  137.2212  157.9411 H   0  0  0  0  0  0  0  0  0  0  0  0
  148.8363  137.4949  156.7948 H   0  0  0  0  0  0  0  0  0  0  0  0
  149.5577  136.0222  154.2957 H   0  0  0  0  0  0  0  0  0  0  0  0
  149.9814  133.3270  154.3171 H   0  0  0  0  0  0  0  0  0  0  0  0
  150.6176  132.8187  156.9665 H   0  0  0  0  0  0  0  0  0  0  0  0
  153.6499  142.0867  158.1124 H   0  0  0  0  0  0  0  0  0  0  0  0
  153.4095  140.9870  159.4282 H   0  0  0  0  0  0  0  0  0  0  0  0
  1  2  1  0  0  0  0
  1 21  1  0  0  0  0
  1 22  1  0  0  0  0
  1 23  1  0  0  0  0
  2  3  2  0  0  0  0
  2  4  1  0  0  0  0
  4 20  1  0  0  0  0
  4  5  1  0  0  0  0
  5  6  1  0  0  0  0
  5 24  1  0  0  0  0
  5 25  1  0  0  0  0
  6  7  1  0  0  0  0
  6 26  1  0  0  0  0
  6 27  1  0  0  0  0
  7  8  1  0  0  0  0
  7 28  1  0  0  0  0
  7 29  1  0  0  0  0
  8  9  1  0  0  0  0
  8 20  1  0  0  0  0
  8 30  1  0  0  0  0
  9 10  2  0  0  0  0
  9 11  1  0  0  0  0
 11 12  1  0  0  0  0
 11 31  1  0  0  0  0
 12 13  1  0  0  0  0
 12 14  1  0  0  0  0
 12 32  1  0  0  0  0
 13 33  1  0  0  0  0
 13 34  1  0  0  0  0
 13 35  1  0  0  0  0
 14 15  1  0  0  0  0
 14 36  1  0  0  0  0
 14 37  1  0  0  0  0
 15 19  1  0  0  0  0
 15 16  1  0  0  0  0
 16 17  2  0  0  0  0
 16 38  1  0  0  0  0
 17 18  1  0  0  0  0
 17 39  1  0  0  0  0
 18 19  2  0  0  0  0
 18 40  1  0  0  0  0
 20 41  1  0  0  0  0
 20 42  1  0  0  0  0
M  END
> <s_m_source_file>
AV-unprocessed.smi

> <i_m_source_file_index>
1796

> <i_lp_mmshare_version>
43012

> <i_f3d_flags>
0

> <s_epik_input>
W0NIM11DKD1PKU4xW0NIMl1bQ0gyXVtDSDJdW0NASF0oW0NIMl0xKUMoPU8pW05IXVtDQEhdKFtDSDNdKVtDSDJdbjJbY0hdW2NIXVtjSF1uMg==

> <s_epik_cmdline>
J2VwaWtfcHl0aG9uJywgJy1waCcsICc3LjAnLCAnLXRuJywgJzgnLCAnLW1hJywgJzIwMCcsICctbWV0YWxfYmluZGluZycsICctaW1hZScsICc8aW5maWxlLm1hZT4nLCAnLW9tYWUnLCAnPG91dGZpbGUubWFlPic=

> <r_lp_tautomer_probability>
1

> <r_epik_Ionization_Penalty>
0.000315051

> <r_epik_Ionization_Penalty_Charging>
0

> <r_epik_Ionization_Penalty_Neutral>
0.000315051

> <r_epik_State_Penalty>
-0

> <r_epik_Charging_Adjusted_Penalty>
0

> <i_epik_Tot_Q>
0

> <i_epik_Tot_abs_Q>
0

> <r_epik_Metal_State_Penalty>
-0

> <b_epik_Metal_Only>
0

> <s_lp_Force_Field>
OPLS_2005

> <r_lp_Energy>
23.171

> <b_lp_Chiralities_Consistent>
1

> <s_lp_Variant>
AV-unprocessed.smi:1796-1

> <Gold.Version>
5.8.1

> <Gold.Id.Protein>
6NUR|6NUR_protein|mol2

> <Gold.PLP.Fitness>
44.2883

> <Gold.PLP.PLP>
-37.7057

> <Gold.PLP.part.hbond>
-2.0000

> <Gold.PLP.part.metal>
0.0000

> <Gold.PLP.part.buried>
-4.7044

> <Gold.PLP.part.nonpolar>
-31.5728

> <Gold.PLP.part.repulsive>
0.0860

> <Gold.PLP.ligand.clash>
0.0000

> <Gold.PLP.ligand.torsion>
0.1013

> <Gold.PLP.Chemscore.Hbond>
1.2501

> <Gold.PLP.Chemscore.CHOScore>
1.0000

> <Gold.PLP.Chemscore.Metal>
0.0000

> <Gold.Chemscore.Hbonds>
donor molecule, donor type, donor heavy atom, donor atom, acceptor molecule, acceptor atom, score
      P1  H  6896  6908       L1    19  0.30
      P1  H  7997  8010       L1    10  1.00
      L1  C    16    38       P1  7948  1.00

> <Gold.PLP.Chemscore.Internal.Correction>
0.0347

> <Gold.Rescore>
     Score         DG    S(hbond)    S(metal)    S(lipo)     H(rot)  DE(clash)    DE(int)     intcor
     16.52     -16.64       1.47        0.00      89.24       1.63       0.00       0.12       ----

> <Gold.Chemscore.Fitness>
16.5212

> <Gold.Chemscore.DG>
-16.6428

> <Gold.Chemscore.ZeroCoef>
-5.4800

> <Gold.Chemscore.Hbond>
1.4684

> <Gold.Chemscore.Metal>
0.0000

> <Gold.Chemscore.Lipo>
89.2356

> <Gold.Chemscore.Internal_Hbond>
0.0000

> <Gold.Chemscore.DEClash>
0.0029

> <Gold.Chemscore.DEInternal>
0.1188

> <Gold.Chemscore.Rot>
1.6336

> <Gold.Chemscore.Internal.Correction>
   9.000000E+99

> <Gold.Chemscore.Hbonds>
donor molecule, donor type, donor heavy atom, donor atom, acceptor molecule, acceptor atom, score
      P1  H  6896  6908       L1    19  0.17
      P1  H  7997  8010       L1    10  0.98

> <Gold.Chemscore.Hbond.Weighted>
-4.9044

> <Gold.Chemscore.Metal.Weighted>
-0.0000

> <Gold.Chemscore.Lipo.Weighted>
-10.4406

> <Gold.Chemscore.Internal_Hbond.Weighted>
0.0000

> <Gold.Chemscore.DEClash.Weighted>
0.0029

> <Gold.Chemscore.DEInternal.Weighted>
0.1188

> <Gold.Chemscore.Rot.Weighted>
4.1821

> <Gold.Chemscore.Internal.Correction.Weighted>
   9.000000E+99

> <Gold.Protein.RotatedTorsions>
[ 6907 6896 6895 6894 ] final  142.36 input  -60.11 | X-H torsion
[ 7974 7965 7964 7962 ] final   32.59 input  175.53 | X-H torsion
[ 8008 7997 7996 7995 ] final   60.77 input   59.86 | X-H torsion
[ 10167 10162 10161 10158 ] final   24.51 input  -65.29 | X-H torsion
[ 10718 10713 10712 10709 ] final -167.81 input   66.30 | X-H torsion
[ 10763 10752 10751 10750 ] final -155.24 input  -60.55 | X-H torsion
[ 11005 11000 10999 10996 ] final   71.87 input  -57.11 | X-H torsion

> <Gold.Protein.ActiveResidues>
 VAL166  LYS551  ARG553  GLY616  TRP617  ASP618  TYR619  PRO620  LYS621  CYS622 
 ASP623  PHE694  ASN695  SER759  ASP760  ASP761  ALA762  ILE779  LEU786  VAL792 
 PHE793  MET794  SER795  GLU796  ALA797  LYS798  CYS799  TRP800  GLU811  SER814 

> <Gold.Protein.RotatedAtoms>
  152.2196  133.4973  159.5154 H   0  0  0  0  0  0  0  0  0  0  0  0  # atno 6907 bound_to 6896
  150.7009  134.1359  159.4096 H   0  0  0  0  0  0  0  0  0  0  0  0  # atno 6908 bound_to 6896
  151.9280  135.0269  160.0578 H   0  0  0  0  0  0  0  0  0  0  0  0  # atno 6909 bound_to 6896
  146.1476  139.6506  142.9120 H   0  0  0  0  0  0  0  0  0  0  0  0  # atno 7974 bound_to 7965
  155.5877  140.3492  155.4557 H   0  0  0  0  0  0  0  0  0  0  0  0  # atno 8008 bound_to 7997
  156.0325  140.1278  157.0267 H   0  0  0  0  0  0  0  0  0  0  0  0  # atno 8009 bound_to 7997
  154.4358  140.1040  156.6106 H   0  0  0  0  0  0  0  0  0  0  0  0  # atno 8010 bound_to 7997
  140.5182  144.0047  150.6404 H   0  0  0  0  0  0  0  0  0  0  0  0  # atno 10167 bound_to 10162
  156.6877  130.9147  151.3065 H   0  0  0  0  0  0  0  0  0  0  0  0  # atno 10718 bound_to 10713
  154.7801  135.3172  154.8007 H   0  0  0  0  0  0  0  0  0  0  0  0  # atno 10763 bound_to 10752
  153.8721  135.6843  153.4778 H   0  0  0  0  0  0  0  0  0  0  0  0  # atno 10764 bound_to 10752
  153.1435  135.4729  154.9469 H   0  0  0  0  0  0  0  0  0  0  0  0  # atno 10765 bound_to 10752
  139.9520  134.7209  156.0839 H   0  0  0  0  0  0  0  0  0  0  0  0  # atno 11005 bound_to 11000
  145.4900  141.0438  143.2598 LP  0  0  0  0  0  0  0  0  0  0  0  0  # atno 17320 bound_to 7965
  144.7865  139.6416  143.7132 LP  0  0  0  0  0  0  0  0  0  0  0  0  # atno 17321 bound_to 7965
  140.3388  143.3032  152.0610 LP  0  0  0  0  0  0  0  0  0  0  0  0  # atno 17342 bound_to 10162
  139.4915  144.6457  151.6784 LP  0  0  0  0  0  0  0  0  0  0  0  0  # atno 17343 bound_to 10162
  157.7020  130.9343  150.0815 LP  0  0  0  0  0  0  0  0  0  0  0  0  # atno 17370 bound_to 10713
  156.1820  130.3650  149.9022 LP  0  0  0  0  0  0  0  0  0  0  0  0  # atno 17371 bound_to 10713
  141.1185  133.6620  156.3155 LP  0  0  0  0  0  0  0  0  0  0  0  0  # atno 17394 bound_to 11000
  140.5696  134.5854  157.5454 LP  0  0  0  0  0  0  0  0  0  0  0  0  # atno 17395 bound_to 11000

$$$$
