AV-unprocessed.smi:540|AV-procd|sdf|2870|dock3
  -GOLD-   2262023363D 1   1.00000     0.00000
 Structure written by MMmdl.
 48 50  0  0  0  0  0  0  0  0  2 V2000
  148.1576  141.4676  155.0894 C   0  0  0  0  0  0  0  0  0  0  0  0
  149.1199  140.3966  154.5717 C   0  0  0  0  0  0  0  0  0  0  0  0
  150.4453  140.8718  154.7207 O   0  0  0  0  0  0  0  0  0  0  0  0
  151.2954  139.9484  155.3799 C   0  0  0  0  0  0  0  0  0  0  0  0
  151.2102  140.1618  156.8976 C   0  0  0  0  0  0  0  0  0  0  0  0
  152.3733  139.6067  157.5897 N   0  0  0  0  0  0  0  0  0  0  0  0
  153.2281  140.2458  158.4352 C   0  0  0  0  0  0  0  0  0  0  0  0
  153.0679  141.5863  158.7939 N   0  0  0  0  0  0  0  0  0  0  0  0
  152.5682  142.6103  157.8787 C   0  0  0  0  0  0  0  0  0  0  0  0
  151.4308  143.4268  158.5176 C   0  0  0  0  0  0  0  0  0  0  0  0
  151.8943  144.0925  159.8252 C   0  0  0  0  0  0  0  0  0  0  0  0
  150.7503  144.8405  160.5235 C   0  0  0  0  0  0  0  0  0  0  0  0
  152.5278  143.0307  160.7408 C   0  0  0  0  0  0  0  0  0  0  0  0
  153.6096  142.2360  159.9873 C   0  0  0  0  0  0  0  0  0  0  0  0
  154.2568  139.5051  158.8509 N   0  0  0  0  0  0  0  0  0  0  0  0
  154.0299  138.2830  158.2386 C   0  0  0  0  0  0  0  0  0  0  0  0
  152.9098  138.3179  157.4671 C   0  0  0  0  0  0  0  0  0  0  0  0
  152.4403  137.1708  156.6543 C   0  0  0  0  0  0  0  0  0  0  0  0
  151.4345  137.2520  155.9528 O   0  0  0  0  0  0  0  0  0  0  0  0
  153.2498  136.0731  156.7905 N   0  5  0  0  0  0  0  0  0  0  0  0
  154.3868  135.9951  157.5646 C   0  0  0  0  0  0  0  0  0  0  0  0
  155.0622  134.9669  157.6260 O   0  0  0  0  0  0  0  0  0  0  0  0
  154.7910  137.0837  158.2911 N   0  0  0  0  0  0  0  0  0  0  0  0
  156.0003  137.0321  159.1181 C   0  0  0  0  0  0  0  0  0  0  0  0
  147.1216  141.1434  154.9903 H   0  0  0  0  0  0  0  0  0  0  0  0
  148.2731  142.3974  154.5318 H   0  0  0  0  0  0  0  0  0  0  0  0
  148.3430  141.6834  156.1420 H   0  0  0  0  0  0  0  0  0  0  0  0
  148.9858  139.4711  155.1335 H   0  0  0  0  0  0  0  0  0  0  0  0
  148.9121  140.1822  153.5226 H   0  0  0  0  0  0  0  0  0  0  0  0
  150.9971  138.9288  155.1322 H   0  0  0  0  0  0  0  0  0  0  0  0
  152.3247  140.0783  155.0431 H   0  0  0  0  0  0  0  0  0  0  0  0
  151.1125  141.2197  157.1183 H   0  0  0  0  0  0  0  0  0  0  0  0
  150.2974  139.7224  157.2920 H   0  0  0  0  0  0  0  0  0  0  0  0
  153.3890  143.2654  157.5839 H   0  0  0  0  0  0  0  0  0  0  0  0
  152.2053  142.1376  156.9654 H   0  0  0  0  0  0  0  0  0  0  0  0
  151.0819  144.1840  157.8151 H   0  0  0  0  0  0  0  0  0  0  0  0
  150.5811  142.7711  158.7139 H   0  0  0  0  0  0  0  0  0  0  0  0
  152.6653  144.8226  159.5747 H   0  0  0  0  0  0  0  0  0  0  0  0
  149.9423  144.1622  160.7990 H   0  0  0  0  0  0  0  0  0  0  0  0
  150.3323  145.6108  159.8748 H   0  0  0  0  0  0  0  0  0  0  0  0
  151.0995  145.3293  161.4333 H   0  0  0  0  0  0  0  0  0  0  0  0
  152.9655  143.5070  161.6187 H   0  0  0  0  0  0  0  0  0  0  0  0
  151.7586  142.3512  161.1088 H   0  0  0  0  0  0  0  0  0  0  0  0
  154.0783  141.5018  160.6415 H   0  0  0  0  0  0  0  0  0  0  0  0
  154.4128  142.9086  159.6838 H   0  0  0  0  0  0  0  0  0  0  0  0
  155.9360  136.2202  159.8438 H   0  0  0  0  0  0  0  0  0  0  0  0
  156.1686  137.9524  159.6766 H   0  0  0  0  0  0  0  0  0  0  0  0
  156.8789  136.8625  158.4946 H   0  0  0  0  0  0  0  0  0  0  0  0
  1  2  1  0  0  0  0
  1 25  1  0  0  0  0
  1 26  1  0  0  0  0
  1 27  1  0  0  0  0
  2  3  1  0  0  0  0
  2 28  1  0  0  0  0
  2 29  1  0  0  0  0
  3  4  1  0  0  0  0
  4  5  1  0  0  0  0
  4 30  1  0  0  0  0
  4 31  1  0  0  0  0
  5  6  1  0  0  0  0
  5 32  1  0  0  0  0
  5 33  1  0  0  0  0
  6 17  1  0  0  0  0
  6  7  1  0  0  0  0
  7  8  1  0  0  0  0
  7 15  2  0  0  0  0
  8 14  1  0  0  0  0
  8  9  1  0  0  0  0
  9 10  1  0  0  0  0
  9 34  1  0  0  0  0
  9 35  1  0  0  0  0
 10 11  1  0  0  0  0
 10 36  1  0  0  0  0
 10 37  1  0  0  0  0
 11 12  1  0  0  0  0
 11 13  1  0  0  0  0
 11 38  1  0  0  0  0
 12 39  1  0  0  0  0
 12 40  1  0  0  0  0
 12 41  1  0  0  0  0
 13 14  1  0  0  0  0
 13 42  1  0  0  0  0
 13 43  1  0  0  0  0
 14 44  1  0  0  0  0
 14 45  1  0  0  0  0
 15 16  1  0  0  0  0
 16 23  1  0  0  0  0
 16 17  2  0  0  0  0
 17 18  1  0  0  0  0
 18 19  2  0  0  0  0
 18 20  1  0  0  0  0
 20 21  1  0  0  0  0
 21 22  2  0  0  0  0
 21 23  1  0  0  0  0
 23 24  1  0  0  0  0
 24 46  1  0  0  0  0
 24 47  1  0  0  0  0
 24 48  1  0  0  0  0
M  CHG  1  20  -1
M  END
> <s_m_source_file>
AV-unprocessed.smi

> <i_m_source_file_index>
540

> <i_lp_mmshare_version>
43012

> <i_f3d_flags>
0

> <s_epik_input>
W0NIM11uMWMoPU8pW25IXWMoPU8pYyhjMTIpbihbQ0gyXVtDSDJdT1tDSDJdW0NIM10pYyhuMilOM1tDSDJdW0NIMl1bQ0hdKFtDSDNdKVtDSDJdW0NIMl0z

> <s_epik_cmdline>
J2VwaWtfcHl0aG9uJywgJy1waCcsICc3LjAnLCAnLXRuJywgJzgnLCAnLW1hJywgJzIwMCcsICctbWV0YWxfYmluZGluZycsICctaW1hZScsICc8aW5maWxlLm1hZT4nLCAnLW9tYWUnLCAnPG91dGZpbGUubWFlPic=

> <r_lp_tautomer_probability>
1

> <r_epik_Ionization_Penalty>
5.11981

> <r_epik_Ionization_Penalty_Charging>
0.0737583

> <r_epik_Ionization_Penalty_Neutral>
5.04605

> <r_epik_State_Penalty>
5.03218

> <r_epik_Charging_Adjusted_Penalty>
5.10594

> <i_epik_Tot_Q>
-1

> <i_epik_Tot_abs_Q>
1

> <r_epik_Metal_State_Penalty>
1.14277

> <b_epik_Metal_Only>
1

> <s_lp_Force_Field>
OPLS_2005

> <r_lp_Energy>
41.1943

> <b_lp_Chiralities_Consistent>
1

> <s_lp_Variant>
AV-unprocessed.smi:540-2

> <Gold.Version>
5.8.1

> <Gold.Id.Protein>
6NUR|6NUR_protein|mol2

> <Gold.PLP.Fitness>
39.8021

> <Gold.PLP.PLP>
-34.1456

> <Gold.PLP.part.hbond>
-2.1049

> <Gold.PLP.part.metal>
0.0000

> <Gold.PLP.part.buried>
-4.8405

> <Gold.PLP.part.nonpolar>
-26.9976

> <Gold.PLP.part.repulsive>
0.1260

> <Gold.PLP.ligand.clash>
1.1005

> <Gold.PLP.ligand.torsion>
1.0620

> <Gold.PLP.Chemscore.Hbond>
2.7843

> <Gold.PLP.Chemscore.CHOScore>
0.0000

> <Gold.PLP.Chemscore.Metal>
0.0000

> <Gold.Chemscore.Hbonds>
donor molecule, donor type, donor heavy atom, donor atom, acceptor molecule, acceptor atom, score
      P1  H  7989  7998       L1     3  0.23
      P1  H  7997  8010       L1    15  0.18
      P1  H 10752 10765       L1    20  2.00

> <Gold.PLP.Chemscore.Internal.Correction>
0.5281

> <Gold.Rescore>
     Score         DG    S(hbond)    S(metal)    S(lipo)     H(rot)  DE(clash)    DE(int)     intcor
     10.64     -13.34       0.34        0.00      91.37       1.55       0.58       2.12       ----

> <Gold.Chemscore.Fitness>
10.6427

> <Gold.Chemscore.DG>
-13.3437

> <Gold.Chemscore.ZeroCoef>
-5.4800

> <Gold.Chemscore.Hbond>
0.3442

> <Gold.Chemscore.Metal>
0.0000

> <Gold.Chemscore.Lipo>
91.3742

> <Gold.Chemscore.Internal_Hbond>
0.0000

> <Gold.Chemscore.DEClash>
0.5782

> <Gold.Chemscore.DEInternal>
2.1227

> <Gold.Chemscore.Rot>
1.5534

> <Gold.Chemscore.Internal.Correction>
   9.000000E+99

> <Gold.Chemscore.Hbonds>
donor molecule, donor type, donor heavy atom, donor atom, acceptor molecule, acceptor atom, score
      P1  H 10752 10765       L1    20  0.55

> <Gold.Chemscore.Hbond.Weighted>
-1.1497

> <Gold.Chemscore.Metal.Weighted>
-0.0000

> <Gold.Chemscore.Lipo.Weighted>
-10.6908

> <Gold.Chemscore.Internal_Hbond.Weighted>
0.0000

> <Gold.Chemscore.DEClash.Weighted>
0.5782

> <Gold.Chemscore.DEInternal.Weighted>
2.1227

> <Gold.Chemscore.Rot.Weighted>
3.9768

> <Gold.Chemscore.Internal.Correction.Weighted>
   9.000000E+99

> <Gold.Protein.RotatedTorsions>
[ 6907 6896 6895 6894 ] final   58.26 input  -60.11 | X-H torsion
[ 7974 7965 7964 7962 ] final   14.31 input  175.53 | X-H torsion
[ 8008 7997 7996 7995 ] final   -5.81 input   59.86 | X-H torsion
[ 10167 10162 10161 10158 ] final   66.79 input  -65.29 | X-H torsion
[ 10718 10713 10712 10709 ] final  158.66 input   66.30 | X-H torsion
[ 10763 10752 10751 10750 ] final -122.37 input  -60.55 | X-H torsion
[ 11005 11000 10999 10996 ] final   84.48 input  -57.11 | X-H torsion

> <Gold.Protein.ActiveResidues>
 VAL166  LYS551  ARG553  GLY616  TRP617  ASP618  TYR619  PRO620  LYS621  CYS622 
 ASP623  PHE694  ASN695  SER759  ASP760  ASP761  ALA762  ILE779  LEU786  VAL792 
 PHE793  MET794  SER795  GLU796  ALA797  LYS798  CYS799  TRP800  GLU811  SER814 

> <Gold.Protein.RotatedAtoms>
  152.3808  134.6593  160.0143 H   0  0  0  0  0  0  0  0  0  0  0  0  # atno 6907 bound_to 6896
  151.6857  133.3306  159.3238 H   0  0  0  0  0  0  0  0  0  0  0  0  # atno 6908 bound_to 6896
  150.7746  134.6678  159.6419 H   0  0  0  0  0  0  0  0  0  0  0  0  # atno 6909 bound_to 6896
  146.2308  139.9059  142.8532 H   0  0  0  0  0  0  0  0  0  0  0  0  # atno 7974 bound_to 7965
  154.6001  140.2449  155.7804 H   0  0  0  0  0  0  0  0  0  0  0  0  # atno 8008 bound_to 7997
  156.2305  140.2968  156.0128 H   0  0  0  0  0  0  0  0  0  0  0  0  # atno 8009 bound_to 7997
  155.2226  140.0401  157.2941 H   0  0  0  0  0  0  0  0  0  0  0  0  # atno 8010 bound_to 7997
  140.0966  144.4941  150.7064 H   0  0  0  0  0  0  0  0  0  0  0  0  # atno 10167 bound_to 10162
  157.1749  131.0618  151.2163 H   0  0  0  0  0  0  0  0  0  0  0  0  # atno 10718 bound_to 10713
  154.8688  135.4135  154.2771 H   0  0  0  0  0  0  0  0  0  0  0  0  # atno 10763 bound_to 10752
  153.3670  135.7006  153.6673 H   0  0  0  0  0  0  0  0  0  0  0  0  # atno 10764 bound_to 10752
  153.5550  135.3621  155.2747 H   0  0  0  0  0  0  0  0  0  0  0  0  # atno 10765 bound_to 10752
  139.8999  134.8219  156.2451 H   0  0  0  0  0  0  0  0  0  0  0  0  # atno 11005 bound_to 11000
  145.2277  140.9960  143.4009 LP  0  0  0  0  0  0  0  0  0  0  0  0  # atno 17320 bound_to 7965
  144.9557  139.4034  143.6381 LP  0  0  0  0  0  0  0  0  0  0  0  0  # atno 17321 bound_to 7965
  140.7000  143.2428  151.4891 LP  0  0  0  0  0  0  0  0  0  0  0  0  # atno 17342 bound_to 10162
  139.5694  144.1963  152.1814 LP  0  0  0  0  0  0  0  0  0  0  0  0  # atno 17343 bound_to 10162
  157.4008  130.7332  149.6766 LP  0  0  0  0  0  0  0  0  0  0  0  0  # atno 17370 bound_to 10713
  155.9733  130.4121  150.4015 LP  0  0  0  0  0  0  0  0  0  0  0  0  # atno 17371 bound_to 10713
  141.0260  133.7015  156.1348 LP  0  0  0  0  0  0  0  0  0  0  0  0  # atno 17394 bound_to 11000
  140.7166  134.4404  157.5578 LP  0  0  0  0  0  0  0  0  0  0  0  0  # atno 17395 bound_to 11000

$$$$
