AV-unprocessed.smi:1|AV-procd|sdf|9|dock9
  -GOLD-   2262015 93D 1   1.00000     0.00000
 Structure written by MMmdl.
 57 62  0  0  0  0  0  0  0  0  1 V2000
  152.4462  139.8323  158.1674 O   0  0  0  0  0  0  0  0  0  0  0  0
  151.4894  140.5785  158.3917 C   0  0  0  0  0  0  0  0  0  0  0  0
  150.1314  140.3107  158.2822 N   0  0  0  0  0  0  0  0  0  0  0  0
  149.7056  139.0840  158.2895 C   0  0  0  0  0  0  0  0  0  0  0  0
  150.3653  137.8529  158.4006 N   0  0  0  0  0  0  0  0  0  0  0  0
  149.7542  136.5891  158.4052 C   0  0  0  0  0  0  0  0  0  0  0  0
  148.4687  136.3800  158.3024 N   0  0  0  0  0  0  0  0  0  0  0  0
  147.7680  137.5723  158.1880 C   0  0  0  0  0  0  0  0  0  0  0  0
  148.2486  138.8634  158.1708 C   0  0  0  0  0  0  0  0  0  0  0  0
  147.2075  139.7759  158.0400 N   0  0  0  0  0  0  0  0  0  0  0  0
  146.1357  138.9894  157.9884 C   0  0  0  0  0  0  0  0  0  0  0  0
  146.3841  137.6673  158.0809 N   0  0  0  0  0  0  0  0  0  0  0  0
  145.4044  136.5309  158.0629 C   0  0  2  0  0  0  0  0  0  0  0  0
  144.7038  136.5624  156.8560 O   0  0  0  0  0  0  0  0  0  0  0  0
  143.4401  137.1853  157.0502 C   0  0  1  0  0  0  0  0  0  0  0  0
  142.4763  136.7927  155.9272 C   0  0  0  0  0  0  0  0  0  0  0  0
  143.2278  136.2679  154.8454 O   0  0  0  0  0  0  0  0  0  0  0  0
  142.6200  135.5397  153.8901 C   0  0  0  0  0  0  0  0  0  0  0  0
  141.4523  135.1519  153.9669 O   0  0  0  0  0  0  0  0  0  0  0  0
  143.5103  135.2491  152.7292 C   0  0  0  0  0  0  0  0  0  0  0  0
  143.2787  134.0908  151.9512 C   0  0  0  0  0  0  0  0  0  0  0  0
  144.1035  133.7895  150.8500 C   0  0  0  0  0  0  0  0  0  0  0  0
  145.1698  134.6435  150.5128 C   0  0  0  0  0  0  0  0  0  0  0  0
  145.4102  135.7993  151.2783 C   0  0  0  0  0  0  0  0  0  0  0  0
  144.5869  136.1019  152.3804 C   0  0  0  0  0  0  0  0  0  0  0  0
  143.0275  136.6657  158.4266 C   0  0  2  0  0  0  0  0  0  0  0  0
  142.1221  137.5406  159.0763 O   0  0  0  0  0  0  0  0  0  0  0  0
  142.9862  138.5897  160.0478 S   0  0  0  0  0  0  0  0  0  0  0  0
  143.0345  139.9012  159.3839 O   0  0  0  0  0  0  0  0  0  0  0  0
  142.5249  138.4193  161.4338 O   0  0  0  0  0  0  0  0  0  0  0  0
  144.4902  137.8801  159.9048 O   0  0  0  0  0  0  0  0  0  0  0  0
  144.3596  136.6586  159.1918 C   0  0  2  0  0  0  0  0  0  0  0  0
  151.7783  141.9646  158.8677 C   0  0  0  0  0  0  0  0  0  0  0  0
  151.4064  143.0741  158.0792 C   0  0  0  0  0  0  0  0  0  0  0  0
  151.6908  144.3811  158.5203 C   0  0  0  0  0  0  0  0  0  0  0  0
  152.3491  144.5827  159.7490 C   0  0  0  0  0  0  0  0  0  0  0  0
  152.7234  143.4769  160.5370 C   0  0  0  0  0  0  0  0  0  0  0  0
  152.4399  142.1689  160.0972 C   0  0  0  0  0  0  0  0  0  0  0  0
  150.4547  135.7585  158.5046 H   0  0  0  0  0  0  0  0  0  0  0  0
  145.1406  139.3945  157.8814 H   0  0  0  0  0  0  0  0  0  0  0  0
  146.0218  135.6343  158.1274 H   0  0  0  0  0  0  0  0  0  0  0  0
  143.5674  138.2686  157.0851 H   0  0  0  0  0  0  0  0  0  0  0  0
  141.7463  136.0656  156.2856 H   0  0  0  0  0  0  0  0  0  0  0  0
  141.9284  137.6707  155.5825 H   0  0  0  0  0  0  0  0  0  0  0  0
  142.4661  133.4201  152.1909 H   0  0  0  0  0  0  0  0  0  0  0  0
  143.9173  132.9016  150.2638 H   0  0  0  0  0  0  0  0  0  0  0  0
  145.8022  134.4128  149.6683 H   0  0  0  0  0  0  0  0  0  0  0  0
  146.2283  136.4556  151.0203 H   0  0  0  0  0  0  0  0  0  0  0  0
  144.7995  136.9970  152.9468 H   0  0  0  0  0  0  0  0  0  0  0  0
  142.6199  135.6563  158.3580 H   0  0  0  0  0  0  0  0  0  0  0  0
  144.4356  135.8162  159.8799 H   0  0  0  0  0  0  0  0  0  0  0  0
  150.9040  142.9268  157.1340 H   0  0  0  0  0  0  0  0  0  0  0  0
  151.4059  145.2288  157.9151 H   0  0  0  0  0  0  0  0  0  0  0  0
  152.5683  145.5852  160.0857 H   0  0  0  0  0  0  0  0  0  0  0  0
  153.2301  143.6317  161.4781 H   0  0  0  0  0  0  0  0  0  0  0  0
  152.7333  141.3255  160.7055 H   0  0  0  0  0  0  0  0  0  0  0  0
  151.3710  137.8788  158.4880 H   0  0  0  0  0  0  0  0  0  0  0  0
  1  2  2  0  0  0  0
  2  3  1  0  0  0  0
  2 33  1  0  0  0  0
  3  4  2  0  0  0  0
  4  9  1  0  0  0  0
  4  5  1  0  0  0  0
  5  6  1  0  0  0  0
  5 57  1  0  0  0  0
  6  7  2  0  0  0  0
  6 39  1  0  0  0  0
  7  8  1  0  0  0  0
  8 12  1  0  0  0  0
  8  9  2  0  0  0  0
  9 10  1  0  0  0  0
 10 11  2  0  0  0  0
 11 12  1  0  0  0  0
 11 40  1  0  0  0  0
 12 13  1  0  0  0  0
 13 32  1  0  0  0  0
 13 14  1  0  0  0  0
 13 41  1  0  0  0  0
 14 15  1  0  0  0  0
 15 16  1  0  0  0  0
 15 26  1  0  0  0  0
 15 42  1  0  0  0  0
 16 17  1  0  0  0  0
 16 43  1  0  0  0  0
 16 44  1  0  0  0  0
 17 18  1  0  0  0  0
 18 19  2  0  0  0  0
 18 20  1  0  0  0  0
 20 25  1  0  0  0  0
 20 21  2  0  0  0  0
 21 22  1  0  0  0  0
 21 45  1  0  0  0  0
 22 23  2  0  0  0  0
 22 46  1  0  0  0  0
 23 24  1  0  0  0  0
 23 47  1  0  0  0  0
 24 25  2  0  0  0  0
 24 48  1  0  0  0  0
 25 49  1  0  0  0  0
 26 32  1  0  0  0  0
 26 27  1  0  0  0  0
 26 50  1  0  0  0  0
 27 28  1  0  0  0  0
 28 29  2  0  0  0  0
 28 30  2  0  0  0  0
 28 31  1  0  0  0  0
 31 32  1  0  0  0  0
 32 51  1  0  0  0  0
 33 38  1  0  0  0  0
 33 34  2  0  0  0  0
 34 35  1  0  0  0  0
 34 52  1  0  0  0  0
 35 36  2  0  0  0  0
 35 53  1  0  0  0  0
 36 37  1  0  0  0  0
 36 54  1  0  0  0  0
 37 38  2  0  0  0  0
 37 55  1  0  0  0  0
 38 56  1  0  0  0  0
M  END
> <s_m_source_file>
AV-unprocessed.smi

> <i_m_source_file_index>
1

> <i_lp_mmshare_version>
43012

> <i_f3d_flags>
0

> <s_epik_input>
W2NIXTFbY0hdW2NIXVtjSF1bY0hdYzFDKD1PKVtOSF1jKG5bY0hdbjIpYyhjMjMpbltjSF1uM1tDQEBIXShbQ0BIXShbQ0BIXTQ1KU9TKE81KSg9Tyk9TylPW0NASF00W0NIMl1PQyg9TyljNltjSF1bY0hdW2NIXVtjSF1bY0hdNg==

> <s_epik_cmdline>
J2VwaWtfcHl0aG9uJywgJy1waCcsICc3LjAnLCAnLXRuJywgJzgnLCAnLW1hJywgJzIwMCcsICctbWV0YWxfYmluZGluZycsICctaW1hZScsICc8aW5maWxlLm1hZT4nLCAnLW9tYWUnLCAnPG91dGZpbGUubWFlPic=

> <r_epik_Ionization_Penalty>
0.122545

> <r_epik_Ionization_Penalty_Charging>
0.122545

> <r_epik_Ionization_Penalty_Neutral>
7.8935e-16

> <r_epik_State_Penalty>
2.69178

> <r_epik_Charging_Adjusted_Penalty>
2.81433

> <i_epik_Tot_Q>
0

> <i_epik_Tot_abs_Q>
0

> <r_epik_Metal_State_Penalty>
3.02665

> <b_epik_Metal_Only>
0

> <s_epik_Chemistry_Notes>
This compound has an ester and may undergo hydrolysis at high or low pH. This compound contains an acetal/aminal-like group ( X-CH(R)-Y where X, Y are N, S, or O) that may be acid/base labile, releasing an aldehyde.

> <s_lp_Force_Field>
OPLS_2005

> <r_lp_Energy>
57.7872

> <b_lp_Chiralities_Consistent>
1

> <s_lp_Variant>
AV-unprocessed.smi:1-9

> <Gold.Version>
5.8.1

> <Gold.Id.Protein>
6NUR|6NUR_protein|mol2

> <Gold.PLP.Fitness>
48.0756

> <Gold.PLP.PLP>
-46.8318

> <Gold.PLP.part.hbond>
-3.5674

> <Gold.PLP.part.metal>
0.0000

> <Gold.PLP.part.buried>
-6.8836

> <Gold.PLP.part.nonpolar>
-37.0090

> <Gold.PLP.part.repulsive>
0.2527

> <Gold.PLP.ligand.clash>
0.0000

> <Gold.PLP.ligand.torsion>
2.3964

> <Gold.PLP.Chemscore.Hbond>
1.9600

> <Gold.PLP.Chemscore.CHOScore>
0.0000

> <Gold.PLP.Chemscore.Metal>
0.0000

> <Gold.Chemscore.Hbonds>
donor molecule, donor type, donor heavy atom, donor atom, acceptor molecule, acceptor atom, score
      P1  H 11000 11005       L1    19  0.44

> <Gold.PLP.Chemscore.Internal.Correction>
0.1567

> <Gold.Rescore>
     Score         DG    S(hbond)    S(metal)    S(lipo)     H(rot)  DE(clash)    DE(int)     intcor
     13.41     -18.71       1.87        0.00     106.34       2.13       1.32       3.99       ----

> <Gold.Chemscore.Fitness>
13.4056

> <Gold.Chemscore.DG>
-18.7145

> <Gold.Chemscore.ZeroCoef>
-5.4800

> <Gold.Chemscore.Hbond>
1.8724

> <Gold.Chemscore.Metal>
0.0000

> <Gold.Chemscore.Lipo>
106.3411

> <Gold.Chemscore.Internal_Hbond>
0.0000

> <Gold.Chemscore.DEClash>
1.3238

> <Gold.Chemscore.DEInternal>
3.9851

> <Gold.Chemscore.Rot>
2.1333

> <Gold.Chemscore.Internal.Correction>
   9.000000E+99

> <Gold.Chemscore.Hbonds>
donor molecule, donor type, donor heavy atom, donor atom, acceptor molecule, acceptor atom, score
      P1  H  7997  8009       L1     1  0.07
      P1  H 11000 11005       L1    19  0.41

> <Gold.Chemscore.Hbond.Weighted>
-6.2539

> <Gold.Chemscore.Metal.Weighted>
-0.0000

> <Gold.Chemscore.Lipo.Weighted>
-12.4419

> <Gold.Chemscore.Internal_Hbond.Weighted>
0.0000

> <Gold.Chemscore.DEClash.Weighted>
1.3238

> <Gold.Chemscore.DEInternal.Weighted>
3.9851

> <Gold.Chemscore.Rot.Weighted>
5.4614

> <Gold.Chemscore.Internal.Correction.Weighted>
   9.000000E+99

> <Gold.Protein.RotatedTorsions>
[ 6907 6896 6895 6894 ] final  140.33 input  -60.11 | X-H torsion
[ 7974 7965 7964 7962 ] final  169.45 input  175.53 | X-H torsion
[ 8008 7997 7996 7995 ] final  172.66 input   59.86 | X-H torsion
[ 10167 10162 10161 10158 ] final  165.07 input  -65.29 | X-H torsion
[ 10718 10713 10712 10709 ] final  105.81 input   66.30 | X-H torsion
[ 10763 10752 10751 10750 ] final -166.36 input  -60.55 | X-H torsion
[ 11005 11000 10999 10996 ] final   11.52 input  -57.11 | X-H torsion

> <Gold.Protein.ActiveResidues>
 VAL166  LYS551  ARG553  GLY616  TRP617  ASP618  TYR619  PRO620  LYS621  CYS622 
 ASP623  PHE694  ASN695  SER759  ASP760  ASP761  ALA762  ILE779  LEU786  VAL792 
 PHE793  MET794  SER795  GLU796  ALA797  LYS798  CYS799  TRP800  GLU811  SER814 

> <Gold.Protein.RotatedAtoms>
  152.2443  133.5161  159.5287 H   0  0  0  0  0  0  0  0  0  0  0  0  # atno 6907 bound_to 6896
  150.7073  134.1047  159.3987 H   0  0  0  0  0  0  0  0  0  0  0  0  # atno 6908 bound_to 6896
  151.8968  135.0394  160.0553 H   0  0  0  0  0  0  0  0  0  0  0  0  # atno 6909 bound_to 6896
  144.7355  139.9056  143.6412 H   0  0  0  0  0  0  0  0  0  0  0  0  # atno 7974 bound_to 7965
  156.1152  140.1480  156.9282 H   0  0  0  0  0  0  0  0  0  0  0  0  # atno 8008 bound_to 7997
  154.4795  140.0883  156.7387 H   0  0  0  0  0  0  0  0  0  0  0  0  # atno 8009 bound_to 7997
  155.4526  140.3435  155.4305 H   0  0  0  0  0  0  0  0  0  0  0  0  # atno 8010 bound_to 7997
  139.4899  144.4170  151.9232 H   0  0  0  0  0  0  0  0  0  0  0  0  # atno 10167 bound_to 10162
  157.6692  131.0836  150.5913 H   0  0  0  0  0  0  0  0  0  0  0  0  # atno 10718 bound_to 10713
  154.6840  135.2959  154.9573 H   0  0  0  0  0  0  0  0  0  0  0  0  # atno 10763 bound_to 10752
  154.0558  135.6638  153.4810 H   0  0  0  0  0  0  0  0  0  0  0  0  # atno 10764 bound_to 10752
  153.0567  135.5140  154.7898 H   0  0  0  0  0  0  0  0  0  0  0  0  # atno 10765 bound_to 10752
  140.5023  134.0733  155.7797 H   0  0  0  0  0  0  0  0  0  0  0  0  # atno 11005 bound_to 11000
  146.1039  139.4037  143.0329 LP  0  0  0  0  0  0  0  0  0  0  0  0  # atno 17320 bound_to 7965
  145.7539  140.9962  143.1236 LP  0  0  0  0  0  0  0  0  0  0  0  0  # atno 17321 bound_to 7965
  140.3613  144.2970  150.5933 LP  0  0  0  0  0  0  0  0  0  0  0  0  # atno 17342 bound_to 10162
  140.5400  143.2225  151.8100 LP  0  0  0  0  0  0  0  0  0  0  0  0  # atno 17343 bound_to 10162
  156.6213  130.4406  149.5821 LP  0  0  0  0  0  0  0  0  0  0  0  0  # atno 17370 bound_to 10713
  156.2353  130.6819  151.1504 LP  0  0  0  0  0  0  0  0  0  0  0  0  # atno 17371 bound_to 10713
  141.1429  133.9107  157.2284 LP  0  0  0  0  0  0  0  0  0  0  0  0  # atno 17394 bound_to 11000
  139.9706  135.0129  156.9502 LP  0  0  0  0  0  0  0  0  0  0  0  0  # atno 17395 bound_to 11000

$$$$
