AV-unprocessed.smi:33|AV-procd|sdf|211|dock9
  -GOLD-   2262015513D 1   1.00000     0.00000
 Structure written by MMmdl.
 67 72  0  0  0  0  0  0  0  0  1 V2000
  151.3598  144.1987  157.6487 O   0  0  0  0  0  0  0  0  0  0  0  0
  151.6233  143.1276  158.1988 C   0  0  0  0  0  0  0  0  0  0  0  0
  151.4821  141.9282  157.6012 O   0  0  0  0  0  0  0  0  0  0  0  0
  150.9659  141.8504  156.2825 C   0  0  0  0  0  0  0  0  0  0  0  0
  149.4543  141.5753  156.3371 C   0  0  2  0  0  0  0  0  0  0  0  0
  149.2334  140.3372  156.9972 O   0  0  0  0  0  0  0  0  0  0  0  0
  149.2521  139.2937  156.0709 C   0  0  1  0  0  0  0  0  0  0  0  0
  148.1461  138.3637  156.4406 N   0  0  0  0  0  0  0  0  0  0  0  0
  146.7864  138.5764  156.3639 C   0  0  0  0  0  0  0  0  0  0  0  0
  146.0424  137.5829  156.7703 N   0  0  0  0  0  0  0  0  0  0  0  0
  146.9597  136.6157  157.1608 C   0  0  0  0  0  0  0  0  0  0  0  0
  146.8478  135.3067  157.7011 C   0  0  0  0  0  0  0  0  0  0  0  0
  145.6568  134.7138  157.9493 N   0  0  0  0  0  0  0  0  0  0  0  0
  145.4507  134.1729  159.3008 C   0  0  0  0  0  0  0  0  0  0  0  0
  144.6404  133.2603  159.4733 O   0  0  0  0  0  0  0  0  0  0  0  0
  146.2515  134.6918  160.4615 C   0  0  0  0  0  0  0  0  0  0  0  0
  146.6881  133.8056  161.4706 C   0  0  0  0  0  0  0  0  0  0  0  0
  147.4266  134.2881  162.5684 C   0  0  0  0  0  0  0  0  0  0  0  0
  147.7169  135.6616  162.6739 C   0  0  0  0  0  0  0  0  0  0  0  0
  147.2601  136.5547  161.6862 C   0  0  0  0  0  0  0  0  0  0  0  0
  146.5220  136.0732  160.5879 C   0  0  0  0  0  0  0  0  0  0  0  0
  144.6849  134.6681  156.8467 C   0  0  0  0  0  0  0  0  0  0  0  0
  143.4828  134.5700  157.1008 O   0  0  0  0  0  0  0  0  0  0  0  0
  145.1389  134.7961  155.4200 C   0  0  0  0  0  0  0  0  0  0  0  0
  144.3548  135.5163  154.4921 C   0  0  0  0  0  0  0  0  0  0  0  0
  144.7671  135.6295  153.1503 C   0  0  0  0  0  0  0  0  0  0  0  0
  145.9556  135.0075  152.7233 C   0  0  0  0  0  0  0  0  0  0  0  0
  146.7276  134.2644  153.6364 C   0  0  0  0  0  0  0  0  0  0  0  0
  146.3165  134.1513  154.9787 C   0  0  0  0  0  0  0  0  0  0  0  0
  147.9927  134.6305  157.9784 N   0  0  0  0  0  0  0  0  0  0  0  0
  149.1763  135.2026  157.7372 C   0  0  0  0  0  0  0  0  0  0  0  0
  149.4327  136.4130  157.2345 N   0  0  0  0  0  0  0  0  0  0  0  0
  148.2829  137.0949  156.9594 C   0  0  0  0  0  0  0  0  0  0  0  0
  149.0038  139.8916  154.6745 C   0  0  2  0  0  0  0  0  0  0  0  0
  150.1072  139.7012  153.8119 O   0  0  0  0  0  0  0  0  0  0  0  0
  148.8087  141.3736  154.9653 C   0  0  1  0  0  0  0  0  0  0  0  0
  147.5044  141.6403  155.0500 F   0  0  0  0  0  0  0  0  0  0  0  0
  152.1312  143.0244  159.5974 C   0  0  0  0  0  0  0  0  0  0  0  0
  151.8203  144.0468  160.5240 C   0  0  0  0  0  0  0  0  0  0  0  0
  152.2874  143.9793  161.8510 C   0  0  0  0  0  0  0  0  0  0  0  0
  153.0727  142.8887  162.2673 C   0  0  0  0  0  0  0  0  0  0  0  0
  153.3893  141.8650  161.3552 C   0  0  0  0  0  0  0  0  0  0  0  0
  152.9216  141.9301  160.0281 C   0  0  0  0  0  0  0  0  0  0  0  0
  151.1749  142.7698  155.7343 H   0  0  0  0  0  0  0  0  0  0  0  0
  151.4687  141.0377  155.7566 H   0  0  0  0  0  0  0  0  0  0  0  0
  148.9635  142.3732  156.8960 H   0  0  0  0  0  0  0  0  0  0  0  0
  150.1731  138.7146  156.1504 H   0  0  0  0  0  0  0  0  0  0  0  0
  146.3614  139.4990  155.9964 H   0  0  0  0  0  0  0  0  0  0  0  0
  146.4712  132.7496  161.3998 H   0  0  0  0  0  0  0  0  0  0  0  0
  147.7688  133.6036  163.3305 H   0  0  0  0  0  0  0  0  0  0  0  0
  148.2836  136.0310  163.5160 H   0  0  0  0  0  0  0  0  0  0  0  0
  147.4743  137.6097  161.7712 H   0  0  0  0  0  0  0  0  0  0  0  0
  146.1722  136.7688  159.8387 H   0  0  0  0  0  0  0  0  0  0  0  0
  143.4411  135.9983  154.8091 H   0  0  0  0  0  0  0  0  0  0  0  0
  144.1704  136.1932  152.4486 H   0  0  0  0  0  0  0  0  0  0  0  0
  146.2712  135.0946  151.6941 H   0  0  0  0  0  0  0  0  0  0  0  0
  147.6348  133.7798  153.3074 H   0  0  0  0  0  0  0  0  0  0  0  0
  146.9145  133.5744  155.6694 H   0  0  0  0  0  0  0  0  0  0  0  0
  150.0419  134.6054  157.9830 H   0  0  0  0  0  0  0  0  0  0  0  0
  148.1219  139.4521  154.2049 H   0  0  0  0  0  0  0  0  0  0  0  0
  149.7826  139.5766  152.9330 H   0  0  0  0  0  0  0  0  0  0  0  0
  149.2105  142.0326  154.1942 H   0  0  0  0  0  0  0  0  0  0  0  0
  151.2191  144.8943  160.2277 H   0  0  0  0  0  0  0  0  0  0  0  0
  152.0427  144.7660  162.5493 H   0  0  0  0  0  0  0  0  0  0  0  0
  153.4319  142.8374  163.2845 H   0  0  0  0  0  0  0  0  0  0  0  0
  153.9929  141.0279  161.6736 H   0  0  0  0  0  0  0  0  0  0  0  0
  153.1846  141.1283  159.3536 H   0  0  0  0  0  0  0  0  0  0  0  0
  1  2  2  0  0  0  0
  2  3  1  0  0  0  0
  2 38  1  0  0  0  0
  3  4  1  0  0  0  0
  4  5  1  0  0  0  0
  4 44  1  0  0  0  0
  4 45  1  0  0  0  0
  5 36  1  0  0  0  0
  5  6  1  0  0  0  0
  5 46  1  0  0  0  0
  6  7  1  0  0  0  0
  7  8  1  0  0  0  0
  7 34  1  0  0  0  0
  7 47  1  0  0  0  0
  8 33  1  0  0  0  0
  8  9  1  0  0  0  0
  9 10  2  0  0  0  0
  9 48  1  0  0  0  0
 10 11  1  0  0  0  0
 11 33  2  0  0  0  0
 11 12  1  0  0  0  0
 12 13  1  0  0  0  0
 12 30  2  0  0  0  0
 13 14  1  0  0  0  0
 13 22  1  0  0  0  0
 14 15  2  0  0  0  0
 14 16  1  0  0  0  0
 16 21  1  0  0  0  0
 16 17  2  0  0  0  0
 17 18  1  0  0  0  0
 17 49  1  0  0  0  0
 18 19  2  0  0  0  0
 18 50  1  0  0  0  0
 19 20  1  0  0  0  0
 19 51  1  0  0  0  0
 20 21  2  0  0  0  0
 20 52  1  0  0  0  0
 21 53  1  0  0  0  0
 22 23  2  0  0  0  0
 22 24  1  0  0  0  0
 24 29  1  0  0  0  0
 24 25  2  0  0  0  0
 25 26  1  0  0  0  0
 25 54  1  0  0  0  0
 26 27  2  0  0  0  0
 26 55  1  0  0  0  0
 27 28  1  0  0  0  0
 27 56  1  0  0  0  0
 28 29  2  0  0  0  0
 28 57  1  0  0  0  0
 29 58  1  0  0  0  0
 30 31  1  0  0  0  0
 31 32  2  0  0  0  0
 31 59  1  0  0  0  0
 32 33  1  0  0  0  0
 34 35  1  0  0  0  0
 34 36  1  0  0  0  0
 34 60  1  0  0  0  0
 35 61  1  0  0  0  0
 36 37  1  0  0  0  0
 36 62  1  0  0  0  0
 38 43  1  0  0  0  0
 38 39  2  0  0  0  0
 39 40  1  0  0  0  0
 39 63  1  0  0  0  0
 40 41  2  0  0  0  0
 40 64  1  0  0  0  0
 41 42  1  0  0  0  0
 41 65  1  0  0  0  0
 42 43  2  0  0  0  0
 42 66  1  0  0  0  0
 43 67  1  0  0  0  0
M  END
> <s_m_source_file>
AV-unprocessed.smi

> <i_m_source_file_index>
33

> <i_lp_mmshare_version>
43012

> <i_f3d_flags>
0

> <s_epik_input>
W2NIXTFbY0hdW2NIXVtjSF1bY0hdYzFDKD1PKU9bQ0gyXVtDQEBIXTJPW0NASF0oW0NAQEhdKFtPSF0pW0NAQEhdMkYpbihbY0hdbjMpYyhjMzQpbltjSF1uYzROKEMoPU8pYzVbY0hdW2NIXVtjSF1bY0hdW2NIXTUpQyg9TyljNltjSF1bY0hdW2NIXVtjSF1bY0hdNg==

> <s_epik_cmdline>
J2VwaWtfcHl0aG9uJywgJy1waCcsICc3LjAnLCAnLXRuJywgJzgnLCAnLW1hJywgJzIwMCcsICctbWV0YWxfYmluZGluZycsICctaW1hZScsICc8aW5maWxlLm1hZT4nLCAnLW9tYWUnLCAnPG91dGZpbGUubWFlPic=

> <r_lp_tautomer_probability>
1

> <r_epik_Ionization_Penalty>
0.00067664

> <r_epik_Ionization_Penalty_Charging>
0

> <r_epik_Ionization_Penalty_Neutral>
0.00067664

> <r_epik_State_Penalty>
0.000428095

> <r_epik_Charging_Adjusted_Penalty>
0.000428095

> <i_epik_Tot_Q>
0

> <i_epik_Tot_abs_Q>
0

> <r_epik_Metal_State_Penalty>
-0

> <b_epik_Metal_Only>
0

> <s_epik_Chemistry_Notes>
This compound has an ester and may undergo hydrolysis at high or low pH. This compound contains an acetal/aminal-like group ( X-CH(R)-Y where X, Y are N, S, or O) that may be acid/base labile, releasing an aldehyde.

> <s_lp_Force_Field>
OPLS_2005

> <r_lp_Energy>
69.3236

> <b_lp_Chiralities_Consistent>
1

> <s_lp_Variant>
AV-unprocessed.smi:33-13

> <Gold.Version>
5.8.1

> <Gold.Id.Protein>
6NUR|6NUR_protein|mol2

> <Gold.PLP.Fitness>
64.1314

> <Gold.PLP.PLP>
-60.1541

> <Gold.PLP.part.hbond>
-3.0000

> <Gold.PLP.part.metal>
0.0000

> <Gold.PLP.part.buried>
-9.3816

> <Gold.PLP.part.nonpolar>
-48.1749

> <Gold.PLP.part.repulsive>
0.2511

> <Gold.PLP.ligand.clash>
0.0000

> <Gold.PLP.ligand.torsion>
3.3055

> <Gold.PLP.Chemscore.Hbond>
2.1756

> <Gold.PLP.Chemscore.CHOScore>
0.0000

> <Gold.PLP.Chemscore.Metal>
0.0000

> <Gold.Chemscore.Hbonds>
donor molecule, donor type, donor heavy atom, donor atom, acceptor molecule, acceptor atom, score
      L1  H    35    61       P1  7957  1.00
      P1  H  7989  7998       L1    35  0.91
      P1  H 11000 11005       L1    23  0.07

> <Gold.PLP.Chemscore.Internal.Correction>
4.0613

> <Gold.Rescore>
     Score         DG    S(hbond)    S(metal)    S(lipo)     H(rot)  DE(clash)    DE(int)     intcor
     16.98     -21.99       1.76        0.00     146.18       2.52       0.08       4.93       ----

> <Gold.Chemscore.Fitness>
16.9836

> <Gold.Chemscore.DG>
-21.9862

> <Gold.Chemscore.ZeroCoef>
-5.4800

> <Gold.Chemscore.Hbond>
1.7565

> <Gold.Chemscore.Metal>
0.0000

> <Gold.Chemscore.Lipo>
146.1766

> <Gold.Chemscore.Internal_Hbond>
0.0000

> <Gold.Chemscore.DEClash>
0.0770

> <Gold.Chemscore.DEInternal>
4.9256

> <Gold.Chemscore.Rot>
2.5247

> <Gold.Chemscore.Internal.Correction>
   9.000000E+99

> <Gold.Chemscore.Hbonds>
donor molecule, donor type, donor heavy atom, donor atom, acceptor molecule, acceptor atom, score
      L1  H    35    61       P1  7957  0.98
      P1  H  7989  7998       L1    35  0.23
      P1  H 11000 11005       L1    23  0.10

> <Gold.Chemscore.Hbond.Weighted>
-5.8668

> <Gold.Chemscore.Metal.Weighted>
-0.0000

> <Gold.Chemscore.Lipo.Weighted>
-17.1027

> <Gold.Chemscore.Internal_Hbond.Weighted>
0.0000

> <Gold.Chemscore.DEClash.Weighted>
0.0770

> <Gold.Chemscore.DEInternal.Weighted>
4.9256

> <Gold.Chemscore.Rot.Weighted>
6.4633

> <Gold.Chemscore.Internal.Correction.Weighted>
   9.000000E+99

> <Gold.Protein.RotatedTorsions>
[ 6907 6896 6895 6894 ] final  120.72 input  -60.11 | X-H torsion
[ 7974 7965 7964 7962 ] final  -14.09 input  175.53 | X-H torsion
[ 8008 7997 7996 7995 ] final   95.67 input   59.86 | X-H torsion
[ 10167 10162 10161 10158 ] final  -81.29 input  -65.29 | X-H torsion
[ 10718 10713 10712 10709 ] final  -42.07 input   66.30 | X-H torsion
[ 10763 10752 10751 10750 ] final  160.97 input  -60.55 | X-H torsion
[ 11005 11000 10999 10996 ] final  -93.78 input  -57.11 | X-H torsion

> <Gold.Protein.ActiveResidues>
 VAL166  LYS551  ARG553  GLY616  TRP617  ASP618  TYR619  PRO620  LYS621  CYS622 
 ASP623  PHE694  ASN695  SER759  ASP760  ASP761  ALA762  ILE779  LEU786  VAL792 
 PHE793  MET794  SER795  GLU796  ALA797  LYS798  CYS799  TRP800  GLU811  SER814 

> <Gold.Protein.RotatedAtoms>
  152.4376  133.7390  159.6629 H   0  0  0  0  0  0  0  0  0  0  0  0  # atno 6907 bound_to 6896
  150.8262  133.8157  159.3123 H   0  0  0  0  0  0  0  0  0  0  0  0  # atno 6908 bound_to 6896
  151.5824  135.1060  160.0072 H   0  0  0  0  0  0  0  0  0  0  0  0  # atno 6909 bound_to 6896
  146.2088  140.3298  142.8398 H   0  0  0  0  0  0  0  0  0  0  0  0  # atno 7974 bound_to 7965
  156.0714  140.3283  155.7581 H   0  0  0  0  0  0  0  0  0  0  0  0  # atno 8008 bound_to 7997
  155.5299  140.0592  157.2908 H   0  0  0  0  0  0  0  0  0  0  0  0  # atno 8009 bound_to 7997
  154.4532  140.1929  156.0473 H   0  0  0  0  0  0  0  0  0  0  0  0  # atno 8010 bound_to 7997
  140.4426  143.2509  151.8604 H   0  0  0  0  0  0  0  0  0  0  0  0  # atno 10167 bound_to 10162
  156.2636  130.4199  149.8515 H   0  0  0  0  0  0  0  0  0  0  0  0  # atno 10718 bound_to 10713
  154.2556  135.2770  155.2799 H   0  0  0  0  0  0  0  0  0  0  0  0  # atno 10763 bound_to 10752
  154.5427  135.5698  153.6857 H   0  0  0  0  0  0  0  0  0  0  0  0  # atno 10764 bound_to 10752
  152.9972  135.6255  154.2705 H   0  0  0  0  0  0  0  0  0  0  0  0  # atno 10765 bound_to 10752
  141.1488  133.7911  157.0206 H   0  0  0  0  0  0  0  0  0  0  0  0  # atno 11005 bound_to 11000
  144.8860  140.7463  143.5956 LP  0  0  0  0  0  0  0  0  0  0  0  0  # atno 17320 bound_to 7965
  145.3219  139.1786  143.4583 LP  0  0  0  0  0  0  0  0  0  0  0  0  # atno 17321 bound_to 7965
  139.4790  144.5212  151.8799 LP  0  0  0  0  0  0  0  0  0  0  0  0  # atno 17342 bound_to 10162
  140.4301  144.2127  150.5888 LP  0  0  0  0  0  0  0  0  0  0  0  0  # atno 17343 bound_to 10162
  156.6022  130.8551  151.3434 LP  0  0  0  0  0  0  0  0  0  0  0  0  # atno 17370 bound_to 10713
  157.7259  130.9622  150.1634 LP  0  0  0  0  0  0  0  0  0  0  0  0  # atno 17371 bound_to 10713
  140.0818  134.9644  157.1636 LP  0  0  0  0  0  0  0  0  0  0  0  0  # atno 17394 bound_to 11000
  140.3566  134.2540  155.7192 LP  0  0  0  0  0  0  0  0  0  0  0  0  # atno 17395 bound_to 11000

$$$$
