AV-unprocessed.smi:1419|AV-procd|sdf|5782|dock6
  -GOLD-   22720 5423D 1   1.00000     0.00000
 Structure written by MMmdl.
 41 42  0  0  0  0  0  0  0  0  1 V2000
  151.2808  137.4694  158.5982 C   0  0  0  0  0  0  0  0  0  0  0  0
  149.7747  137.3163  158.3480 C   0  0  2  0  0  0  0  0  0  0  0  0
  149.1697  138.5951  157.7333 C   0  0  0  0  0  0  0  0  0  0  0  0
  149.6235  138.8283  156.3735 N   0  0  0  0  0  0  0  0  0  0  0  0
  149.3154  138.0806  155.2447 C   0  0  0  0  0  0  0  0  0  0  0  0
  149.9601  138.6817  154.1872 C   0  0  0  0  0  0  0  0  0  0  0  0
  150.6723  139.7897  154.6405 N   0  0  0  0  0  0  0  0  0  0  0  0
  150.4266  139.8115  155.9438 C   0  0  0  0  0  0  0  0  0  0  0  0
  149.1074  136.9990  159.6096 N   0  0  0  0  0  0  0  0  0  0  0  0
  148.6239  135.7967  159.9677 C   0  0  0  0  0  0  0  0  0  0  0  0
  148.8080  134.7826  159.2933 O   0  0  0  0  0  0  0  0  0  0  0  0
  147.9334  135.7940  161.1342 N   0  0  0  0  0  0  0  0  0  0  0  0
  147.0944  136.8807  161.6558 C   0  0  0  0  0  0  0  0  0  0  0  0
  145.6189  136.4845  161.4524 C   0  0  2  0  0  0  0  0  0  0  0  0
  144.6563  137.5347  162.0167 C   0  0  0  0  0  0  0  0  0  0  0  0
  145.3639  135.2463  162.1209 O   0  0  0  0  0  0  0  0  0  0  0  0
  146.2146  134.1547  161.7540 C   0  0  1  0  0  0  0  0  0  0  0  0
  145.8546  133.6074  160.3605 C   0  0  0  0  0  0  0  0  0  0  0  0
  147.6943  134.5708  161.9042 C   0  0  0  0  0  0  0  0  0  0  0  0
  151.8103  137.6941  157.6721 H   0  0  0  0  0  0  0  0  0  0  0  0
  151.7065  136.5516  159.0058 H   0  0  0  0  0  0  0  0  0  0  0  0
  151.4877  138.2753  159.3035 H   0  0  0  0  0  0  0  0  0  0  0  0
  149.6463  136.4995  157.6355 H   0  0  0  0  0  0  0  0  0  0  0  0
  148.0798  138.5413  157.7347 H   0  0  0  0  0  0  0  0  0  0  0  0
  149.4404  139.4652  158.3326 H   0  0  0  0  0  0  0  0  0  0  0  0
  148.6751  137.2116  155.2854 H   0  0  0  0  0  0  0  0  0  0  0  0
  149.9661  138.4041  153.1436 H   0  0  0  0  0  0  0  0  0  0  0  0
  150.8340  140.5665  156.6002 H   0  0  0  0  0  0  0  0  0  0  0  0
  148.9366  137.7727  160.2351 H   0  0  0  0  0  0  0  0  0  0  0  0
  147.3044  137.0192  162.7175 H   0  0  0  0  0  0  0  0  0  0  0  0
  147.2872  137.8484  161.1928 H   0  0  0  0  0  0  0  0  0  0  0  0
  145.4125  136.3732  160.3875 H   0  0  0  0  0  0  0  0  0  0  0  0
  144.7942  138.4978  161.5248 H   0  0  0  0  0  0  0  0  0  0  0  0
  144.8121  137.6786  163.0863 H   0  0  0  0  0  0  0  0  0  0  0  0
  143.6193  137.2316  161.8687 H   0  0  0  0  0  0  0  0  0  0  0  0
  146.0168  133.3575  162.4710 H   0  0  0  0  0  0  0  0  0  0  0  0
  146.4472  132.7222  160.1283 H   0  0  0  0  0  0  0  0  0  0  0  0
  146.0350  134.3334  159.5695 H   0  0  0  0  0  0  0  0  0  0  0  0
  144.8034  133.3226  160.3148 H   0  0  0  0  0  0  0  0  0  0  0  0
  148.3512  133.7504  161.6112 H   0  0  0  0  0  0  0  0  0  0  0  0
  147.9184  134.7644  162.9542 H   0  0  0  0  0  0  0  0  0  0  0  0
  1  2  1  0  0  0  0
  1 20  1  0  0  0  0
  1 21  1  0  0  0  0
  1 22  1  0  0  0  0
  2  3  1  0  0  0  0
  2  9  1  0  0  0  0
  2 23  1  0  0  0  0
  3  4  1  0  0  0  0
  3 24  1  0  0  0  0
  3 25  1  0  0  0  0
  4  8  1  0  0  0  0
  4  5  1  0  0  0  0
  5  6  2  0  0  0  0
  5 26  1  0  0  0  0
  6  7  1  0  0  0  0
  6 27  1  0  0  0  0
  7  8  2  0  0  0  0
  8 28  1  0  0  0  0
  9 10  1  0  0  0  0
  9 29  1  0  0  0  0
 10 11  2  0  0  0  0
 10 12  1  0  0  0  0
 12 19  1  0  0  0  0
 12 13  1  0  0  0  0
 13 14  1  0  0  0  0
 13 30  1  0  0  0  0
 13 31  1  0  0  0  0
 14 15  1  0  0  0  0
 14 16  1  0  0  0  0
 14 32  1  0  0  0  0
 15 33  1  0  0  0  0
 15 34  1  0  0  0  0
 15 35  1  0  0  0  0
 16 17  1  0  0  0  0
 17 18  1  0  0  0  0
 17 19  1  0  0  0  0
 17 36  1  0  0  0  0
 18 37  1  0  0  0  0
 18 38  1  0  0  0  0
 18 39  1  0  0  0  0
 19 40  1  0  0  0  0
 19 41  1  0  0  0  0
M  END
> <s_m_source_file>
AV-unprocessed.smi

> <i_m_source_file_index>
1419

> <i_lp_mmshare_version>
43012

> <i_f3d_flags>
0

> <s_epik_input>
W2NIXTFuW2NIXVtjSF1uMVtDSDJdW0NAQEhdKFtDSDNdKVtOSF1DKD1PKU4yW0NIMl1bQ0BASF0oW0NIM10pT1tDQEBIXShbQ0gzXSlbQ0gyXTI=

> <s_epik_cmdline>
J2VwaWtfcHl0aG9uJywgJy1waCcsICc3LjAnLCAnLXRuJywgJzgnLCAnLW1hJywgJzIwMCcsICctbWV0YWxfYmluZGluZycsICctaW1hZScsICc8aW5maWxlLm1hZT4nLCAnLW9tYWUnLCAnPG91dGZpbGUubWFlPic=

> <r_lp_tautomer_probability>
1

> <r_epik_Ionization_Penalty>
0.625124

> <r_epik_Ionization_Penalty_Charging>
0.625093

> <r_epik_Ionization_Penalty_Neutral>
3.17415e-05

> <r_epik_State_Penalty>
0.641455

> <r_epik_Charging_Adjusted_Penalty>
1.26655

> <i_epik_Tot_Q>
0

> <i_epik_Tot_abs_Q>
0

> <r_epik_Metal_State_Penalty>
0.307717

> <b_epik_Metal_Only>
0

> <s_lp_Force_Field>
OPLS_2005

> <r_lp_Energy>
29.9288

> <b_lp_Chiralities_Consistent>
1

> <s_lp_Variant>
AV-unprocessed.smi:1419-9

> <Gold.Version>
5.8.1

> <Gold.Id.Protein>
6NUR|6NUR_protein|mol2

> <Gold.PLP.Fitness>
36.3450

> <Gold.PLP.PLP>
-25.9044

> <Gold.PLP.part.hbond>
-2.0000

> <Gold.PLP.part.metal>
0.0000

> <Gold.PLP.part.buried>
-3.7562

> <Gold.PLP.part.nonpolar>
-20.0357

> <Gold.PLP.part.repulsive>
0.3240

> <Gold.PLP.ligand.clash>
0.0000

> <Gold.PLP.ligand.torsion>
0.5738

> <Gold.PLP.Chemscore.Hbond>
2.0000

> <Gold.PLP.Chemscore.CHOScore>
1.8430

> <Gold.PLP.Chemscore.Metal>
0.0000

> <Gold.Chemscore.Hbonds>
donor molecule, donor type, donor heavy atom, donor atom, acceptor molecule, acceptor atom, score
      P1  H  6896  6907       L1    11  1.00
      P1  H  7989  7998       L1     7  1.00
      L1  C     6    27       P1  7948  0.65
      L1  C     6    27       P1  7957  0.81

> <Gold.PLP.Chemscore.Internal.Correction>
0.0591

> <Gold.Rescore>
     Score         DG    S(hbond)    S(metal)    S(lipo)     H(rot)  DE(clash)    DE(int)     intcor
     13.51     -14.08       1.88        0.00      54.46       1.58       0.06       0.52       ----

> <Gold.Chemscore.Fitness>
13.5083

> <Gold.Chemscore.DG>
-14.0835

> <Gold.Chemscore.ZeroCoef>
-5.4800

> <Gold.Chemscore.Hbond>
1.8767

> <Gold.Chemscore.Metal>
0.0000

> <Gold.Chemscore.Lipo>
54.4631

> <Gold.Chemscore.Internal_Hbond>
0.0000

> <Gold.Chemscore.DEClash>
0.0566

> <Gold.Chemscore.DEInternal>
0.5186

> <Gold.Chemscore.Rot>
1.5769

> <Gold.Chemscore.Internal.Correction>
   9.000000E+99

> <Gold.Chemscore.Hbonds>
donor molecule, donor type, donor heavy atom, donor atom, acceptor molecule, acceptor atom, score
      P1  H  6896  6907       L1    11  0.71
      P1  H  7989  7998       L1     7  0.99

> <Gold.Chemscore.Hbond.Weighted>
-6.2682

> <Gold.Chemscore.Metal.Weighted>
-0.0000

> <Gold.Chemscore.Lipo.Weighted>
-6.3722

> <Gold.Chemscore.Internal_Hbond.Weighted>
0.0000

> <Gold.Chemscore.DEClash.Weighted>
0.0566

> <Gold.Chemscore.DEInternal.Weighted>
0.5186

> <Gold.Chemscore.Rot.Weighted>
4.0369

> <Gold.Chemscore.Internal.Correction.Weighted>
   9.000000E+99

> <Gold.Protein.RotatedTorsions>
[ 6907 6896 6895 6894 ] final  -92.67 input  -60.11 | X-H torsion
[ 7974 7965 7964 7962 ] final    5.75 input  175.53 | X-H torsion
[ 8008 7997 7996 7995 ] final   95.16 input   59.86 | X-H torsion
[ 10167 10162 10161 10158 ] final -132.33 input  -65.29 | X-H torsion
[ 10718 10713 10712 10709 ] final  104.54 input   66.30 | X-H torsion
[ 10763 10752 10751 10750 ] final  103.96 input  -60.55 | X-H torsion
[ 11005 11000 10999 10996 ] final  -22.09 input  -57.11 | X-H torsion

> <Gold.Protein.ActiveResidues>
 VAL166  LYS551  ARG553  GLY616  TRP617  ASP618  TYR619  PRO620  LYS621  CYS622 
 ASP623  PHE694  ASN695  SER759  ASP760  ASP761  ALA762  ILE779  LEU786  VAL792 
 PHE793  MET794  SER795  GLU796  ALA797  LYS798  CYS799  TRP800  GLU811  SER814 

> <Gold.Protein.RotatedAtoms>
  150.6910  134.2087  159.4350 H   0  0  0  0  0  0  0  0  0  0  0  0  # atno 6907 bound_to 6896
  152.0049  134.9905  160.0575 H   0  0  0  0  0  0  0  0  0  0  0  0  # atno 6908 bound_to 6896
  152.1543  133.4506  159.4866 H   0  0  0  0  0  0  0  0  0  0  0  0  # atno 6909 bound_to 6896
  146.2439  140.0336  142.8387 H   0  0  0  0  0  0  0  0  0  0  0  0  # atno 7974 bound_to 7965
  156.0658  140.3290  155.7516 H   0  0  0  0  0  0  0  0  0  0  0  0  # atno 8008 bound_to 7997
  155.5383  140.0599  157.2892 H   0  0  0  0  0  0  0  0  0  0  0  0  # atno 8009 bound_to 7997
  154.4504  140.1915  156.0553 H   0  0  0  0  0  0  0  0  0  0  0  0  # atno 8010 bound_to 7997
  139.9097  143.6509  152.2578 H   0  0  0  0  0  0  0  0  0  0  0  0  # atno 10167 bound_to 10162
  157.6737  131.0806  150.5721 H   0  0  0  0  0  0  0  0  0  0  0  0  # atno 10718 bound_to 10713
  153.3596  135.3959  155.1708 H   0  0  0  0  0  0  0  0  0  0  0  0  # atno 10763 bound_to 10752
  154.8677  135.3676  154.5116 H   0  0  0  0  0  0  0  0  0  0  0  0  # atno 10764 bound_to 10752
  153.5575  135.7081  153.5623 H   0  0  0  0  0  0  0  0  0  0  0  0  # atno 10765 bound_to 10752
  140.8624  133.7779  156.0090 H   0  0  0  0  0  0  0  0  0  0  0  0  # atno 11005 bound_to 11000
  145.1132  140.9418  143.4644 LP  0  0  0  0  0  0  0  0  0  0  0  0  # atno 17320 bound_to 7965
  145.0555  139.3147  143.5907 LP  0  0  0  0  0  0  0  0  0  0  0  0  # atno 17321 bound_to 7965
  139.6953  144.7642  151.1366 LP  0  0  0  0  0  0  0  0  0  0  0  0  # atno 17342 bound_to 10162
  140.7688  143.5532  150.9181 LP  0  0  0  0  0  0  0  0  0  0  0  0  # atno 17343 bound_to 10162
  156.6023  130.4358  149.5892 LP  0  0  0  0  0  0  0  0  0  0  0  0  # atno 17370 bound_to 10713
  156.2496  130.6899  151.1633 LP  0  0  0  0  0  0  0  0  0  0  0  0  # atno 17371 bound_to 10713
  140.8668  134.2775  157.5209 LP  0  0  0  0  0  0  0  0  0  0  0  0  # atno 17394 bound_to 11000
  139.8707  134.9546  156.4182 LP  0  0  0  0  0  0  0  0  0  0  0  0  # atno 17395 bound_to 11000

$$$$
