AV-unprocessed.smi:90|AV-procd|sdf|830|dock5
  -GOLD-   2262017253D 1   1.00000     0.00000
 Structure written by MMmdl.
 64 67  0  0  0  0  0  0  0  0  2 V2000
  152.4670  137.7420  158.3815 C   0  0  0  0  0  0  0  0  0  0  0  0
  151.2623  138.2290  157.7151 N   0  0  0  0  0  0  0  0  0  0  0  0
  151.1422  139.6734  157.5249 C   0  0  0  0  0  0  0  0  0  0  0  0
  149.7612  140.0861  156.9792 C   0  0  0  0  0  0  0  0  0  0  0  0
  149.7377  141.5036  156.3489 C   0  0  1  0  0  0  0  0  0  0  0  0
  149.4954  141.4964  154.8218 C   0  0  0  0  0  0  0  0  0  0  0  0
  148.0499  141.1110  154.4701 C   0  0  0  0  0  0  0  0  0  0  0  0
  147.0652  142.0332  155.2017 C   0  0  0  0  0  0  0  0  0  0  0  0
  147.3365  142.0571  156.7154 C   0  0  0  0  0  0  0  0  0  0  0  0
  148.7499  142.4199  156.9937 N   0  3  1  0  0  0  0  0  0  0  0  0
  149.0052  142.6970  158.4260 C   0  0  0  0  0  0  0  0  0  0  0  0
  150.6894  137.4312  156.7731 C   0  0  0  0  0  0  0  0  0  0  0  0
  150.8686  137.7247  155.4568 N   0  0  0  0  0  0  0  0  0  0  0  0
  150.2975  136.9760  154.5098 C   0  0  0  0  0  0  0  0  0  0  0  0
  149.5235  135.9003  154.6531 N   0  0  0  0  0  0  0  0  0  0  0  0
  149.3506  135.5850  155.9677 C   0  0  0  0  0  0  0  0  0  0  0  0
  149.8875  136.2929  157.0818 C   0  0  0  0  0  0  0  0  0  0  0  0
  149.4934  135.6722  158.2618 N   0  0  0  0  0  0  0  0  0  0  0  0
  148.7608  134.6669  157.8695 C   0  0  0  0  0  0  0  0  0  0  0  0
  148.6355  134.5281  156.5058 N   0  0  0  0  0  0  0  0  0  0  0  0
  147.8812  133.4995  155.8014 C   0  0  0  0  0  0  0  0  0  0  0  0
  148.7179  132.6260  154.8183 C   0  0  0  0  0  0  0  0  0  0  0  0
  149.0699  133.4291  153.5337 C   0  0  0  0  0  0  0  0  0  0  0  0
  147.9363  134.0537  152.9655 O   0  0  0  0  0  0  0  0  0  0  0  0
  150.0247  132.1555  155.5074 C   0  0  0  0  0  0  0  0  0  0  0  0
  150.7458  131.0322  154.7385 C   0  0  0  0  0  0  0  0  0  0  0  0
  149.8656  129.9364  154.5278 O   0  0  0  0  0  0  0  0  0  0  0  0
  148.7305  130.2850  153.7465 C   0  0  0  0  0  0  0  0  0  0  0  0
  147.9015  131.3521  154.4819 C   0  0  0  0  0  0  0  0  0  0  0  0
  152.3224  136.7260  158.7512 H   0  0  0  0  0  0  0  0  0  0  0  0
  152.7130  138.3732  159.2357 H   0  0  0  0  0  0  0  0  0  0  0  0
  153.3193  137.7462  157.7010 H   0  0  0  0  0  0  0  0  0  0  0  0
  151.3545  140.2083  158.4481 H   0  0  0  0  0  0  0  0  0  0  0  0
  151.9220  139.9777  156.8276 H   0  0  0  0  0  0  0  0  0  0  0  0
  149.4184  139.3396  156.2636 H   0  0  0  0  0  0  0  0  0  0  0  0
  149.0558  140.0495  157.8082 H   0  0  0  0  0  0  0  0  0  0  0  0
  150.7222  141.9441  156.5133 H   0  0  0  0  0  0  0  0  0  0  0  0
  149.6973  142.4935  154.4279 H   0  0  0  0  0  0  0  0  0  0  0  0
  150.1957  140.8358  154.3121 H   0  0  0  0  0  0  0  0  0  0  0  0
  147.8961  141.1809  153.3929 H   0  0  0  0  0  0  0  0  0  0  0  0
  147.8598  140.0721  154.7405 H   0  0  0  0  0  0  0  0  0  0  0  0
  147.1523  143.0446  154.8028 H   0  0  0  0  0  0  0  0  0  0  0  0
  146.0405  141.7136  155.0099 H   0  0  0  0  0  0  0  0  0  0  0  0
  146.6764  142.7877  157.1844 H   0  0  0  0  0  0  0  0  0  0  0  0
  147.0981  141.0921  157.1638 H   0  0  0  0  0  0  0  0  0  0  0  0
  148.7580  141.8414  159.0547 H   0  0  0  0  0  0  0  0  0  0  0  0
  148.3977  143.5387  158.7592 H   0  0  0  0  0  0  0  0  0  0  0  0
  150.0506  142.9594  158.5914 H   0  0  0  0  0  0  0  0  0  0  0  0
  150.4867  137.2833  153.4918 H   0  0  0  0  0  0  0  0  0  0  0  0
  148.2950  133.9890  158.5699 H   0  0  0  0  0  0  0  0  0  0  0  0
  147.4121  132.8664  156.5558 H   0  0  0  0  0  0  0  0  0  0  0  0
  147.0571  133.9818  155.2745 H   0  0  0  0  0  0  0  0  0  0  0  0
  149.8169  134.1940  153.7463 H   0  0  0  0  0  0  0  0  0  0  0  0
  149.5066  132.7924  152.7664 H   0  0  0  0  0  0  0  0  0  0  0  0
  148.1833  134.9179  152.6743 H   0  0  0  0  0  0  0  0  0  0  0  0
  150.7106  132.9919  155.6445 H   0  0  0  0  0  0  0  0  0  0  0  0
  149.7927  131.7848  156.5069 H   0  0  0  0  0  0  0  0  0  0  0  0
  151.1414  131.3853  153.7857 H   0  0  0  0  0  0  0  0  0  0  0  0
  151.6013  130.6815  155.3160 H   0  0  0  0  0  0  0  0  0  0  0  0
  149.0389  130.6253  152.7575 H   0  0  0  0  0  0  0  0  0  0  0  0
  148.1278  129.3897  153.5933 H   0  0  0  0  0  0  0  0  0  0  0  0
  147.5289  130.9067  155.4053 H   0  0  0  0  0  0  0  0  0  0  0  0
  147.0153  131.6009  153.8977 H   0  0  0  0  0  0  0  0  0  0  0  0
  148.8877  143.3079  156.5325 H   0  0  0  0  0  0  0  0  0  0  0  0
  1  2  1  0  0  0  0
  1 30  1  0  0  0  0
  1 31  1  0  0  0  0
  1 32  1  0  0  0  0
  2  3  1  0  0  0  0
  2 12  1  0  0  0  0
  3  4  1  0  0  0  0
  3 33  1  0  0  0  0
  3 34  1  0  0  0  0
  4  5  1  0  0  0  0
  4 35  1  0  0  0  0
  4 36  1  0  0  0  0
  5 10  1  0  0  0  0
  5  6  1  0  0  0  0
  5 37  1  0  0  0  0
  6  7  1  0  0  0  0
  6 38  1  0  0  0  0
  6 39  1  0  0  0  0
  7  8  1  0  0  0  0
  7 40  1  0  0  0  0
  7 41  1  0  0  0  0
  8  9  1  0  0  0  0
  8 42  1  0  0  0  0
  8 43  1  0  0  0  0
  9 10  1  0  0  0  0
  9 44  1  0  0  0  0
  9 45  1  0  0  0  0
 10 11  1  0  0  0  0
 10 64  1  0  0  0  0
 11 46  1  0  0  0  0
 11 47  1  0  0  0  0
 11 48  1  0  0  0  0
 12 17  1  0  0  0  0
 12 13  2  0  0  0  0
 13 14  1  0  0  0  0
 14 15  2  0  0  0  0
 14 49  1  0  0  0  0
 15 16  1  0  0  0  0
 16 20  1  0  0  0  0
 16 17  2  0  0  0  0
 17 18  1  0  0  0  0
 18 19  2  0  0  0  0
 19 20  1  0  0  0  0
 19 50  1  0  0  0  0
 20 21  1  0  0  0  0
 21 22  1  0  0  0  0
 21 51  1  0  0  0  0
 21 52  1  0  0  0  0
 22 29  1  0  0  0  0
 22 23  1  0  0  0  0
 22 25  1  0  0  0  0
 23 24  1  0  0  0  0
 23 53  1  0  0  0  0
 23 54  1  0  0  0  0
 24 55  1  0  0  0  0
 25 26  1  0  0  0  0
 25 56  1  0  0  0  0
 25 57  1  0  0  0  0
 26 27  1  0  0  0  0
 26 58  1  0  0  0  0
 26 59  1  0  0  0  0
 27 28  1  0  0  0  0
 28 29  1  0  0  0  0
 28 60  1  0  0  0  0
 28 61  1  0  0  0  0
 29 62  1  0  0  0  0
 29 63  1  0  0  0  0
M  CHG  1  10   1
M  END
> <s_m_source_file>
AV-unprocessed.smi

> <i_m_source_file_index>
90

> <i_lp_mmshare_version>
43012

> <i_f3d_flags>
0

> <s_epik_input>
W0NIM11OMVtDSDJdW0NIMl1bQ0gyXVtDSDJdW0NASF0xW0NIMl1bQ0gyXU4oW0NIM10pYyhuW2NIXW4yKWMoYzIzKW5bY0hdbjNbQ0gyXUM0KFtDSDJdW09IXSlbQ0gyXVtDSDJdT1tDSDJdW0NIMl00

> <s_epik_cmdline>
J2VwaWtfcHl0aG9uJywgJy1waCcsICc3LjAnLCAnLXRuJywgJzgnLCAnLW1hJywgJzIwMCcsICctbWV0YWxfYmluZGluZycsICctaW1hZScsICc8aW5maWxlLm1hZT4nLCAnLW9tYWUnLCAnPG91dGZpbGUubWFlPic=

> <r_lp_tautomer_probability>
1

> <r_epik_Ionization_Penalty>
0.00234895

> <r_epik_Ionization_Penalty_Charging>
0.00106647

> <r_epik_Ionization_Penalty_Neutral>
0.00128248

> <r_epik_State_Penalty>
-0

> <r_epik_Charging_Adjusted_Penalty>
0.00106647

> <i_epik_Tot_Q>
1

> <i_epik_Tot_abs_Q>
1

> <r_epik_Metal_State_Penalty>
-0

> <b_epik_Metal_Only>
0

> <s_lp_Force_Field>
OPLS_2005

> <r_lp_Energy>
42.9862

> <b_lp_Chiralities_Consistent>
1

> <s_lp_Variant>
AV-unprocessed.smi:90-2

> <Gold.Version>
5.8.1

> <Gold.Id.Protein>
6NUR|6NUR_protein|mol2

> <Gold.PLP.Fitness>
45.0860

> <Gold.PLP.PLP>
-33.8053

> <Gold.PLP.part.hbond>
-3.0000

> <Gold.PLP.part.metal>
0.0000

> <Gold.PLP.part.buried>
-4.3279

> <Gold.PLP.part.nonpolar>
-26.6228

> <Gold.PLP.part.repulsive>
0.4071

> <Gold.PLP.ligand.clash>
0.0000

> <Gold.PLP.ligand.torsion>
2.3177

> <Gold.PLP.Chemscore.Hbond>
4.0000

> <Gold.PLP.Chemscore.CHOScore>
0.9928

> <Gold.PLP.Chemscore.Metal>
0.0000

> <Gold.Chemscore.Hbonds>
donor molecule, donor type, donor heavy atom, donor atom, acceptor molecule, acceptor atom, score
      L1  H    10    64       P1  8028  2.00
      L1  H    24    55       P1  7948  1.00
      P1  H  6896  6907       L1    18  0.71
      L1  C    14    49       P1  7948  0.43
      L1  C    14    49       P1  7949  0.49

> <Gold.PLP.Chemscore.Internal.Correction>
0.9377

> <Gold.Rescore>
     Score         DG    S(hbond)    S(metal)    S(lipo)     H(rot)  DE(clash)    DE(int)     intcor
     10.68     -14.94       2.35        0.00      73.64       2.73       0.42       3.84       ----

> <Gold.Chemscore.Fitness>
10.6755

> <Gold.Chemscore.DG>
-14.9423

> <Gold.Chemscore.ZeroCoef>
-5.4800

> <Gold.Chemscore.Hbond>
2.3497

> <Gold.Chemscore.Metal>
0.0000

> <Gold.Chemscore.Lipo>
73.6358

> <Gold.Chemscore.Internal_Hbond>
0.0000

> <Gold.Chemscore.DEClash>
0.4247

> <Gold.Chemscore.DEInternal>
3.8421

> <Gold.Chemscore.Rot>
2.7347

> <Gold.Chemscore.Internal.Correction>
   9.000000E+99

> <Gold.Chemscore.Hbonds>
donor molecule, donor type, donor heavy atom, donor atom, acceptor molecule, acceptor atom, score
      L1  H    10    64       P1  8028  0.94
      L1  H    24    55       P1  7948  0.74
      P1  H  6896  6907       L1    18  0.37

> <Gold.Chemscore.Hbond.Weighted>
-7.8479

> <Gold.Chemscore.Metal.Weighted>
-0.0000

> <Gold.Chemscore.Lipo.Weighted>
-8.6154

> <Gold.Chemscore.Internal_Hbond.Weighted>
0.0000

> <Gold.Chemscore.DEClash.Weighted>
0.4247

> <Gold.Chemscore.DEInternal.Weighted>
3.8421

> <Gold.Chemscore.Rot.Weighted>
7.0009

> <Gold.Chemscore.Internal.Correction.Weighted>
   9.000000E+99

> <Gold.Protein.RotatedTorsions>
[ 6907 6896 6895 6894 ] final  -47.42 input  -60.11 | X-H torsion
[ 7974 7965 7964 7962 ] final -165.97 input  175.53 | X-H torsion
[ 8008 7997 7996 7995 ] final  106.87 input   59.86 | X-H torsion
[ 10167 10162 10161 10158 ] final   21.73 input  -65.29 | X-H torsion
[ 10718 10713 10712 10709 ] final  153.36 input   66.30 | X-H torsion
[ 10763 10752 10751 10750 ] final -138.70 input  -60.55 | X-H torsion
[ 11005 11000 10999 10996 ] final -140.53 input  -57.11 | X-H torsion

> <Gold.Protein.ActiveResidues>
 VAL166  LYS551  ARG553  GLY616  TRP617  ASP618  TYR619  PRO620  LYS621  CYS622 
 ASP623  PHE694  ASN695  SER759  ASP760  ASP761  ALA762  ILE779  LEU786  VAL792 
 PHE793  MET794  SER795  GLU796  ALA797  LYS798  CYS799  TRP800  GLU811  SER814 

> <Gold.Protein.RotatedAtoms>
  150.9009  134.8421  159.7359 H   0  0  0  0  0  0  0  0  0  0  0  0  # atno 6907 bound_to 6896
  152.4892  134.4504  159.9582 H   0  0  0  0  0  0  0  0  0  0  0  0  # atno 6908 bound_to 6896
  151.4555  133.3567  159.2837 H   0  0  0  0  0  0  0  0  0  0  0  0  # atno 6909 bound_to 6896
  144.7256  140.2735  143.6247 H   0  0  0  0  0  0  0  0  0  0  0  0  # atno 7974 bound_to 7965
  156.1778  140.3105  155.9092 H   0  0  0  0  0  0  0  0  0  0  0  0  # atno 8008 bound_to 7997
  155.3449  140.0468  157.3062 H   0  0  0  0  0  0  0  0  0  0  0  0  # atno 8009 bound_to 7997
  154.5309  140.2230  155.8816 H   0  0  0  0  0  0  0  0  0  0  0  0  # atno 8010 bound_to 7997
  140.5404  143.9687  150.6516 H   0  0  0  0  0  0  0  0  0  0  0  0  # atno 10167 bound_to 10162
  157.2457  131.0768  151.1763 H   0  0  0  0  0  0  0  0  0  0  0  0  # atno 10718 bound_to 10713
  154.8630  135.3604  154.5427 H   0  0  0  0  0  0  0  0  0  0  0  0  # atno 10763 bound_to 10752
  153.6048  135.7011  153.5375 H   0  0  0  0  0  0  0  0  0  0  0  0  # atno 10764 bound_to 10752
  153.3259  135.4138  155.1417 H   0  0  0  0  0  0  0  0  0  0  0  0  # atno 10765 bound_to 10752
  140.8413  134.2398  157.4808 H   0  0  0  0  0  0  0  0  0  0  0  0  # atno 11005 bound_to 11000
  145.8019  139.1968  143.2043 LP  0  0  0  0  0  0  0  0  0  0  0  0  # atno 17320 bound_to 7965
  146.0669  140.7911  142.9707 LP  0  0  0  0  0  0  0  0  0  0  0  0  # atno 17321 bound_to 7965
  140.3086  143.3213  152.0901 LP  0  0  0  0  0  0  0  0  0  0  0  0  # atno 17342 bound_to 10162
  139.4987  144.6651  151.6375 LP  0  0  0  0  0  0  0  0  0  0  0  0  # atno 17343 bound_to 10162
  157.3331  130.6995  149.6336 LP  0  0  0  0  0  0  0  0  0  0  0  0  # atno 17370 bound_to 10713
  155.9668  130.4301  150.4864 LP  0  0  0  0  0  0  0  0  0  0  0  0  # atno 17371 bound_to 10713
  139.8703  134.9637  156.4470 LP  0  0  0  0  0  0  0  0  0  0  0  0  # atno 17394 bound_to 11000
  140.8892  133.7861  155.9552 LP  0  0  0  0  0  0  0  0  0  0  0  0  # atno 17395 bound_to 11000

$$$$
