AV-unprocessed.smi:798|AV-procd|sdf|3780|dock7
  -GOLD-   22720 1213D 1   1.00000     0.00000
 Structure written by MMmdl.
 33 35  0  0  0  0  0  0  0  0  2 V2000
  152.9019  140.0386  158.0236 O   0  0  0  0  0  0  0  0  0  0  0  0
  151.8704  140.2597  158.6620 C   0  0  0  0  0  0  0  0  0  0  0  0
  150.9189  139.3549  158.9854 N   0  5  0  0  0  0  0  0  0  0  0  0
  150.9329  138.1351  158.4232 C   0  0  0  0  0  0  0  0  0  0  0  0
  150.3025  137.0842  158.9720 N   0  0  0  0  0  0  0  0  0  0  0  0
  150.4467  135.9158  158.2360 N   0  0  0  0  0  0  0  0  0  0  0  0
  151.1928  136.1150  157.1495 C   0  0  0  0  0  0  0  0  0  0  0  0
  151.7886  137.7466  156.9279 S   0  0  0  0  0  0  0  0  0  0  0  0
  151.6151  141.4945  159.1170 N   0  0  0  0  0  0  0  0  0  0  0  0
  152.4564  142.6789  158.9295 C   0  0  1  0  0  0  0  0  0  0  0  0
  151.7408  143.7870  158.1177 C   0  0  1  0  0  0  0  0  0  0  0  0
  150.3419  144.0936  158.6941 C   0  0  0  0  0  0  0  0  0  0  0  0
  150.6735  144.7926  160.0245 C   0  0  0  0  0  0  0  0  0  0  0  0
  152.2164  144.8247  160.0230 C   0  0  2  0  0  0  0  0  0  0  0  0
  152.5064  145.0364  158.5418 C   0  0  0  0  0  0  0  0  0  0  0  0
  152.8293  143.4203  160.2470 C   0  0  1  0  0  0  0  0  0  0  0  0
  152.4666  142.7299  161.5814 C   0  0  0  0  0  0  0  0  0  0  0  0
  152.3724  143.6829  162.6194 O   0  0  0  0  0  0  0  0  0  0  0  0
  151.3965  135.2957  156.4765 H   0  0  0  0  0  0  0  0  0  0  0  0
  150.7603  141.6251  159.6376 H   0  0  0  0  0  0  0  0  0  0  0  0
  153.3708  142.4009  158.4016 H   0  0  0  0  0  0  0  0  0  0  0  0
  151.7333  143.6000  157.0435 H   0  0  0  0  0  0  0  0  0  0  0  0
  149.8012  144.7747  158.0358 H   0  0  0  0  0  0  0  0  0  0  0  0
  149.7161  143.2112  158.8267 H   0  0  0  0  0  0  0  0  0  0  0  0
  150.2711  145.8064  160.0268 H   0  0  0  0  0  0  0  0  0  0  0  0
  150.2526  144.2772  160.8867 H   0  0  0  0  0  0  0  0  0  0  0  0
  152.6351  145.5896  160.6777 H   0  0  0  0  0  0  0  0  0  0  0  0
  153.5691  144.9978  158.2957 H   0  0  0  0  0  0  0  0  0  0  0  0
  152.0833  145.9610  158.1444 H   0  0  0  0  0  0  0  0  0  0  0  0
  153.9146  143.5384  160.2477 H   0  0  0  0  0  0  0  0  0  0  0  0
  151.5326  142.1726  161.5179 H   0  0  0  0  0  0  0  0  0  0  0  0
  153.2418  142.0136  161.8548 H   0  0  0  0  0  0  0  0  0  0  0  0
  152.6029  144.5295  162.2686 H   0  0  0  0  0  0  0  0  0  0  0  0
  1  2  2  0  0  0  0
  2  3  1  0  0  0  0
  2  9  1  0  0  0  0
  3  4  1  0  0  0  0
  4  8  1  0  0  0  0
  4  5  2  0  0  0  0
  5  6  1  0  0  0  0
  6  7  2  0  0  0  0
  7  8  1  0  0  0  0
  7 19  1  0  0  0  0
  9 10  1  0  0  0  0
  9 20  1  0  0  0  0
 10 16  1  0  0  0  0
 10 11  1  0  0  0  0
 10 21  1  0  0  0  0
 11 15  1  0  0  0  0
 11 12  1  0  0  0  0
 11 22  1  0  0  0  0
 12 13  1  0  0  0  0
 12 23  1  0  0  0  0
 12 24  1  0  0  0  0
 13 14  1  0  0  0  0
 13 25  1  0  0  0  0
 13 26  1  0  0  0  0
 14 15  1  0  0  0  0
 14 16  1  0  0  0  0
 14 27  1  0  0  0  0
 15 28  1  0  0  0  0
 15 29  1  0  0  0  0
 16 17  1  0  0  0  0
 16 30  1  0  0  0  0
 17 18  1  0  0  0  0
 17 31  1  0  0  0  0
 17 32  1  0  0  0  0
 18 33  1  0  0  0  0
M  CHG  1   3  -1
M  END
> <s_m_source_file>
AV-unprocessed.smi

> <i_m_source_file_index>
798

> <i_lp_mmshare_version>
43012

> <i_f3d_flags>
0

> <s_epik_input>
W0NIMl0xW0NIMl1bQ0BASF0oW0NIMl0yKVtDQEBIXShbQ0gyXVtPSF0pW0NAQEhdKFtDQEhdMTIpW05IXUMoPU8pW05IXWMzbm5bY0hdczM=

> <s_epik_cmdline>
J2VwaWtfcHl0aG9uJywgJy1waCcsICc3LjAnLCAnLXRuJywgJzgnLCAnLW1hJywgJzIwMCcsICctbWV0YWxfYmluZGluZycsICctaW1hZScsICc8aW5maWxlLm1hZT4nLCAnLW9tYWUnLCAnPG91dGZpbGUubWFlPic=

> <r_lp_tautomer_probability>
1

> <r_epik_Ionization_Penalty>
4.53732

> <r_epik_Ionization_Penalty_Charging>
4.48632

> <r_epik_Ionization_Penalty_Neutral>
0.0510007

> <r_epik_State_Penalty>
4.48602

> <r_epik_Charging_Adjusted_Penalty>
8.97234

> <i_epik_Tot_Q>
-1

> <i_epik_Tot_abs_Q>
1

> <r_epik_Metal_State_Penalty>
0.812492

> <b_epik_Metal_Only>
1

> <s_lp_Force_Field>
OPLS_2005

> <r_lp_Energy>
48.4262

> <b_lp_Chiralities_Consistent>
1

> <s_lp_Variant>
AV-unprocessed.smi:798-12

> <Gold.Version>
5.8.1

> <Gold.Id.Protein>
6NUR|6NUR_protein|mol2

> <Gold.PLP.Fitness>
42.6578

> <Gold.PLP.PLP>
-38.1072

> <Gold.PLP.part.hbond>
-3.0356

> <Gold.PLP.part.metal>
0.0000

> <Gold.PLP.part.buried>
-7.0692

> <Gold.PLP.part.nonpolar>
-27.9373

> <Gold.PLP.part.repulsive>
0.1435

> <Gold.PLP.ligand.clash>
0.0000

> <Gold.PLP.ligand.torsion>
0.3890

> <Gold.PLP.Chemscore.Hbond>
1.7680

> <Gold.PLP.Chemscore.CHOScore>
0.0000

> <Gold.PLP.Chemscore.Metal>
0.0000

> <Gold.Chemscore.Hbonds>
donor molecule, donor type, donor heavy atom, donor atom, acceptor molecule, acceptor atom, score
      P1  H  6896  6908       L1     6  0.75
      P1  H  7997  8009       L1     1  1.00

> <Gold.PLP.Chemscore.Internal.Correction>
0.0246

> <Gold.Rescore>
     Score         DG    S(hbond)    S(metal)    S(lipo)     H(rot)  DE(clash)    DE(int)     intcor
     15.32     -17.29       1.53        0.00      99.16       1.92       0.21       1.76       ----

> <Gold.Chemscore.Fitness>
15.3190

> <Gold.Chemscore.DG>
-17.2913

> <Gold.Chemscore.ZeroCoef>
-5.4800

> <Gold.Chemscore.Hbond>
1.5347

> <Gold.Chemscore.Metal>
0.0000

> <Gold.Chemscore.Lipo>
99.1642

> <Gold.Chemscore.Internal_Hbond>
0.0000

> <Gold.Chemscore.DEClash>
0.2123

> <Gold.Chemscore.DEInternal>
1.7599

> <Gold.Chemscore.Rot>
1.9207

> <Gold.Chemscore.Internal.Correction>
   9.000000E+99

> <Gold.Chemscore.Hbonds>
donor molecule, donor type, donor heavy atom, donor atom, acceptor molecule, acceptor atom, score
      P1  H  6896  6908       L1     6  0.19
      P1  H  7997  8009       L1     1  0.97

> <Gold.Chemscore.Hbond.Weighted>
-5.1259

> <Gold.Chemscore.Metal.Weighted>
-0.0000

> <Gold.Chemscore.Lipo.Weighted>
-11.6022

> <Gold.Chemscore.Internal_Hbond.Weighted>
0.0000

> <Gold.Chemscore.DEClash.Weighted>
0.2123

> <Gold.Chemscore.DEInternal.Weighted>
1.7599

> <Gold.Chemscore.Rot.Weighted>
4.9169

> <Gold.Chemscore.Internal.Correction.Weighted>
   9.000000E+99

> <Gold.Protein.RotatedTorsions>
[ 6907 6896 6895 6894 ] final  177.98 input  -60.11 | X-H torsion
[ 7974 7965 7964 7962 ] final -132.38 input  175.53 | X-H torsion
[ 8008 7997 7996 7995 ] final  159.78 input   59.86 | X-H torsion
[ 10167 10162 10161 10158 ] final  -78.82 input  -65.29 | X-H torsion
[ 10718 10713 10712 10709 ] final   32.27 input   66.30 | X-H torsion
[ 10763 10752 10751 10750 ] final  -21.30 input  -60.55 | X-H torsion
[ 11005 11000 10999 10996 ] final -128.91 input  -57.11 | X-H torsion

> <Gold.Protein.ActiveResidues>
 VAL166  LYS551  ARG553  GLY616  TRP617  ASP618  TYR619  PRO620  LYS621  CYS622 
 ASP623  PHE694  ASN695  SER759  ASP760  ASP761  ALA762  ILE779  LEU786  VAL792 
 PHE793  MET794  SER795  GLU796  ALA797  LYS798  CYS799  TRP800  GLU811  SER814 

> <Gold.Protein.RotatedAtoms>
  151.6952  133.3311  159.3252 H   0  0  0  0  0  0  0  0  0  0  0  0  # atno 6907 bound_to 6896
  150.7761  134.6664  159.6377 H   0  0  0  0  0  0  0  0  0  0  0  0  # atno 6908 bound_to 6896
  152.3803  134.6603  160.0197 H   0  0  0  0  0  0  0  0  0  0  0  0  # atno 6909 bound_to 6896
  144.9291  140.7107  143.4917 H   0  0  0  0  0  0  0  0  0  0  0  0  # atno 7974 bound_to 7965
  156.2216  140.1822  156.7463 H   0  0  0  0  0  0  0  0  0  0  0  0  # atno 8008 bound_to 7997
  154.5874  140.0656  156.9219 H   0  0  0  0  0  0  0  0  0  0  0  0  # atno 8009 bound_to 7997
  155.2395  140.3321  155.4296 H   0  0  0  0  0  0  0  0  0  0  0  0  # atno 8010 bound_to 7997
  140.4648  143.2443  151.8294 H   0  0  0  0  0  0  0  0  0  0  0  0  # atno 10167 bound_to 10162
  157.2831  130.7265  149.6568 H   0  0  0  0  0  0  0  0  0  0  0  0  # atno 10718 bound_to 10713
  153.6339  135.6988  153.5265 H   0  0  0  0  0  0  0  0  0  0  0  0  # atno 10763 bound_to 10752
  153.2837  135.4178  155.1102 H   0  0  0  0  0  0  0  0  0  0  0  0  # atno 10764 bound_to 10752
  154.8515  135.3608  154.5882 H   0  0  0  0  0  0  0  0  0  0  0  0  # atno 10765 bound_to 10752
  140.9476  134.1109  157.4092 H   0  0  0  0  0  0  0  0  0  0  0  0  # atno 11005 bound_to 11000
  145.3171  139.1800  143.4608 LP  0  0  0  0  0  0  0  0  0  0  0  0  # atno 17320 bound_to 7965
  146.3239  140.3183  142.8631 LP  0  0  0  0  0  0  0  0  0  0  0  0  # atno 17321 bound_to 7965
  139.4810  144.4963  151.9119 LP  0  0  0  0  0  0  0  0  0  0  0  0  # atno 17342 bound_to 10162
  140.4049  144.2445  150.5891 LP  0  0  0  0  0  0  0  0  0  0  0  0  # atno 17343 bound_to 10162
  155.9665  130.4332  150.4995 LP  0  0  0  0  0  0  0  0  0  0  0  0  # atno 17370 bound_to 10713
  157.2943  131.0632  151.2112 LP  0  0  0  0  0  0  0  0  0  0  0  0  # atno 17371 bound_to 10713
  139.8838  135.0056  156.6324 LP  0  0  0  0  0  0  0  0  0  0  0  0  # atno 17394 bound_to 11000
  140.7647  133.8788  155.8445 LP  0  0  0  0  0  0  0  0  0  0  0  0  # atno 17395 bound_to 11000

$$$$
