AV-unprocessed.smi:2850|AV-procd|sdf|10967|dock3
  -GOLD-   2272015423D 1   1.00000     0.00000
 Structure written by MMmdl.
 45 46  0  0  0  0  0  0  0  0  2 V2000
  152.8884  142.7931  162.2444 C   0  0  0  0  0  0  0  0  0  0  0  0
  153.9576  141.6906  161.2774 S   0  0  0  0  0  0  0  0  0  0  0  0
  153.0417  141.1956  159.8498 C   0  0  0  0  0  0  0  0  0  0  0  0
  151.8109  141.8020  159.5413 C   0  0  0  0  0  0  0  0  0  0  0  0
  151.1516  141.3552  158.3827 C   0  0  0  0  0  0  0  0  0  0  0  0
  151.7702  140.3390  157.6266 C   0  0  0  0  0  0  0  0  0  0  0  0
  151.1391  139.8859  156.4587 N   0  0  0  0  0  0  0  0  0  0  0  0
  150.6378  140.8087  155.4455 C   0  0  0  0  0  0  0  0  0  0  0  0
  149.3082  140.3529  154.8160 C   0  0  2  0  0  0  0  0  0  0  0  0
  149.4571  139.0925  153.9364 C   0  0  0  0  0  0  0  0  0  0  0  0
  148.1638  138.7239  153.3110 N   0  3  1  0  0  0  0  0  0  0  0  0
  147.2164  138.0675  154.2532 C   0  0  0  0  0  0  0  0  0  0  0  0
  145.8381  137.7769  153.6226 C   0  0  0  0  0  0  0  0  0  0  0  0
  145.0225  136.8396  154.5259 C   0  0  0  0  0  0  0  0  0  0  0  0
  145.9662  137.1831  152.2099 C   0  0  0  0  0  0  0  0  0  0  0  0
  147.6018  139.8813  152.5690 C   0  0  0  0  0  0  0  0  0  0  0  0
  147.5452  141.1453  153.4494 C   0  0  0  0  0  0  0  0  0  0  0  0
  148.8317  141.4137  153.9952 O   0  0  0  0  0  0  0  0  0  0  0  0
  152.9584  139.7953  157.9940 N   0  0  0  0  0  0  0  0  0  0  0  0
  153.5921  140.2201  159.0923 N   0  0  0  0  0  0  0  0  0  0  0  0
  153.4000  143.1073  163.1541 H   0  0  0  0  0  0  0  0  0  0  0  0
  151.9682  142.2809  162.5256 H   0  0  0  0  0  0  0  0  0  0  0  0
  152.6325  143.6832  161.6692 H   0  0  0  0  0  0  0  0  0  0  0  0
  151.3919  142.5796  160.1626 H   0  0  0  0  0  0  0  0  0  0  0  0
  150.2050  141.7825  158.0854 H   0  0  0  0  0  0  0  0  0  0  0  0
  151.0265  138.8936  156.3080 H   0  0  0  0  0  0  0  0  0  0  0  0
  150.5238  141.7991  155.8878 H   0  0  0  0  0  0  0  0  0  0  0  0
  151.3975  140.9093  154.6699 H   0  0  0  0  0  0  0  0  0  0  0  0
  148.5798  140.1727  155.6072 H   0  0  0  0  0  0  0  0  0  0  0  0
  150.1824  139.2829  153.1440 H   0  0  0  0  0  0  0  0  0  0  0  0
  149.8486  138.2525  154.5114 H   0  0  0  0  0  0  0  0  0  0  0  0
  147.6396  137.1206  154.5916 H   0  0  0  0  0  0  0  0  0  0  0  0
  147.1008  138.6776  155.1491 H   0  0  0  0  0  0  0  0  0  0  0  0
  145.2756  138.7068  153.5447 H   0  0  0  0  0  0  0  0  0  0  0  0
  145.5217  135.8787  154.6552 H   0  0  0  0  0  0  0  0  0  0  0  0
  144.0350  136.6467  154.1055 H   0  0  0  0  0  0  0  0  0  0  0  0
  144.8775  137.2746  155.5153 H   0  0  0  0  0  0  0  0  0  0  0  0
  146.5196  136.2436  152.2222 H   0  0  0  0  0  0  0  0  0  0  0  0
  146.4822  137.8656  151.5343 H   0  0  0  0  0  0  0  0  0  0  0  0
  144.9844  136.9832  151.7795 H   0  0  0  0  0  0  0  0  0  0  0  0
  148.2455  140.0757  151.7101 H   0  0  0  0  0  0  0  0  0  0  0  0
  146.6174  139.6530  152.1629 H   0  0  0  0  0  0  0  0  0  0  0  0
  147.2340  142.0011  152.8503 H   0  0  0  0  0  0  0  0  0  0  0  0
  146.8115  141.0435  154.2500 H   0  0  0  0  0  0  0  0  0  0  0  0
  148.3820  138.0167  152.6235 H   0  0  0  0  0  0  0  0  0  0  0  0
  1  2  1  0  0  0  0
  1 21  1  0  0  0  0
  1 22  1  0  0  0  0
  1 23  1  0  0  0  0
  2  3  1  0  0  0  0
  3 20  1  0  0  0  0
  3  4  2  0  0  0  0
  4  5  1  0  0  0  0
  4 24  1  0  0  0  0
  5  6  2  0  0  0  0
  5 25  1  0  0  0  0
  6  7  1  0  0  0  0
  6 19  1  0  0  0  0
  7  8  1  0  0  0  0
  7 26  1  0  0  0  0
  8  9  1  0  0  0  0
  8 27  1  0  0  0  0
  8 28  1  0  0  0  0
  9 18  1  0  0  0  0
  9 10  1  0  0  0  0
  9 29  1  0  0  0  0
 10 11  1  0  0  0  0
 10 30  1  0  0  0  0
 10 31  1  0  0  0  0
 11 12  1  0  0  0  0
 11 16  1  0  0  0  0
 11 45  1  0  0  0  0
 12 13  1  0  0  0  0
 12 32  1  0  0  0  0
 12 33  1  0  0  0  0
 13 14  1  0  0  0  0
 13 15  1  0  0  0  0
 13 34  1  0  0  0  0
 14 35  1  0  0  0  0
 14 36  1  0  0  0  0
 14 37  1  0  0  0  0
 15 38  1  0  0  0  0
 15 39  1  0  0  0  0
 15 40  1  0  0  0  0
 16 17  1  0  0  0  0
 16 41  1  0  0  0  0
 16 42  1  0  0  0  0
 17 18  1  0  0  0  0
 17 43  1  0  0  0  0
 17 44  1  0  0  0  0
 19 20  2  0  0  0  0
M  CHG  1  11   1
M  END
> <s_m_source_file>
AV-unprocessed.smi

> <i_m_source_file_index>
2850

> <i_lp_mmshare_version>
43012

> <i_f3d_flags>
0

> <s_epik_input>
W0NIM11TYzFbY0hdW2NIXWMobm4xKVtOSF1bQ0gyXVtDQEBIXTJbQ0gyXU4oW0NIMl1bQ0gyXU8yKVtDSDJdW0NIXShbQ0gzXSlbQ0gzXQ==

> <s_epik_cmdline>
J2VwaWtfcHl0aG9uJywgJy1waCcsICc3LjAnLCAnLXRuJywgJzgnLCAnLW1hJywgJzIwMCcsICctbWV0YWxfYmluZGluZycsICctaW1hZScsICc8aW5maWxlLm1hZT4nLCAnLW9tYWUnLCAnPG91dGZpbGUubWFlPic=

> <r_lp_tautomer_probability>
0.999978

> <r_epik_Ionization_Penalty>
0.0874875

> <r_epik_Ionization_Penalty_Charging>
0.0831532

> <r_epik_Ionization_Penalty_Neutral>
0.00433433

> <r_epik_State_Penalty>
0.0738301

> <r_epik_Charging_Adjusted_Penalty>
0.156983

> <i_epik_Tot_Q>
1

> <i_epik_Tot_abs_Q>
1

> <r_epik_Metal_State_Penalty>
0.073888

> <b_epik_Metal_Only>
0

> <s_lp_Force_Field>
OPLS_2005

> <r_lp_Energy>
26.7302

> <b_lp_Chiralities_Consistent>
1

> <s_lp_Variant>
AV-unprocessed.smi:2850-3

> <Gold.Version>
5.8.1

> <Gold.Id.Protein>
6NUR|6NUR_protein|mol2

> <Gold.PLP.Fitness>
39.1667

> <Gold.PLP.PLP>
-32.9748

> <Gold.PLP.part.hbond>
-4.6588

> <Gold.PLP.part.metal>
0.0000

> <Gold.PLP.part.buried>
3.4511

> <Gold.PLP.part.nonpolar>
-31.0775

> <Gold.PLP.part.repulsive>
0.3055

> <Gold.PLP.ligand.clash>
0.0000

> <Gold.PLP.ligand.torsion>
0.8404

> <Gold.PLP.Chemscore.Hbond>
2.5850

> <Gold.PLP.Chemscore.CHOScore>
0.0000

> <Gold.PLP.Chemscore.Metal>
0.0000

> <Gold.Chemscore.Hbonds>
donor molecule, donor type, donor heavy atom, donor atom, acceptor molecule, acceptor atom, score
      L1  H    11    45       P1  7948  2.00
      P1  H  8011  8017       L1    18  0.48

> <Gold.PLP.Chemscore.Internal.Correction>
0.1176

> <Gold.Rescore>
     Score         DG    S(hbond)    S(metal)    S(lipo)     H(rot)  DE(clash)    DE(int)     intcor
     13.71     -16.44       1.19        0.00      94.81       1.60       1.91       0.81       ----

> <Gold.Chemscore.Fitness>
13.7131

> <Gold.Chemscore.DG>
-16.4363

> <Gold.Chemscore.ZeroCoef>
-5.4800

> <Gold.Chemscore.Hbond>
1.1858

> <Gold.Chemscore.Metal>
0.0000

> <Gold.Chemscore.Lipo>
94.8087

> <Gold.Chemscore.Internal_Hbond>
0.0000

> <Gold.Chemscore.DEClash>
1.9091

> <Gold.Chemscore.DEInternal>
0.8140

> <Gold.Chemscore.Rot>
1.6003

> <Gold.Chemscore.Internal.Correction>
   9.000000E+99

> <Gold.Chemscore.Hbonds>
donor molecule, donor type, donor heavy atom, donor atom, acceptor molecule, acceptor atom, score
      L1  H    11    45       P1  7948  0.96
      P1  H  8011  8017       L1    18  0.14

> <Gold.Chemscore.Hbond.Weighted>
-3.9605

> <Gold.Chemscore.Metal.Weighted>
-0.0000

> <Gold.Chemscore.Lipo.Weighted>
-11.0926

> <Gold.Chemscore.Internal_Hbond.Weighted>
0.0000

> <Gold.Chemscore.DEClash.Weighted>
1.9091

> <Gold.Chemscore.DEInternal.Weighted>
0.8140

> <Gold.Chemscore.Rot.Weighted>
4.0968

> <Gold.Chemscore.Internal.Correction.Weighted>
   9.000000E+99

> <Gold.Protein.RotatedTorsions>
[ 6907 6896 6895 6894 ] final  119.52 input  -60.11 | X-H torsion
[ 7974 7965 7964 7962 ] final    4.72 input  175.53 | X-H torsion
[ 8008 7997 7996 7995 ] final -123.33 input   59.86 | X-H torsion
[ 10167 10162 10161 10158 ] final  -12.25 input  -65.29 | X-H torsion
[ 10718 10713 10712 10709 ] final   12.14 input   66.30 | X-H torsion
[ 10763 10752 10751 10750 ] final  -17.04 input  -60.55 | X-H torsion
[ 11005 11000 10999 10996 ] final   83.65 input  -57.11 | X-H torsion

> <Gold.Protein.ActiveResidues>
 VAL166  LYS551  ARG553  GLY616  TRP617  ASP618  TYR619  PRO620  LYS621  CYS622 
 ASP623  PHE694  ASN695  SER759  ASP760  ASP761  ALA762  ILE779  LEU786  VAL792 
 PHE793  MET794  SER795  GLU796  ALA797  LYS798  CYS799  TRP800  GLU811  SER814 

> <Gold.Protein.RotatedAtoms>
  152.4465  133.7547  159.6713 H   0  0  0  0  0  0  0  0  0  0  0  0  # atno 6907 bound_to 6896
  150.8367  133.7992  159.3083 H   0  0  0  0  0  0  0  0  0  0  0  0  # atno 6908 bound_to 6896
  151.5630  135.1067  160.0029 H   0  0  0  0  0  0  0  0  0  0  0  0  # atno 6909 bound_to 6896
  146.2443  140.0491  142.8376 H   0  0  0  0  0  0  0  0  0  0  0  0  # atno 7974 bound_to 7965
  155.1788  140.0410  157.2878 H   0  0  0  0  0  0  0  0  0  0  0  0  # atno 8008 bound_to 7997
  154.6218  140.2502  155.7513 H   0  0  0  0  0  0  0  0  0  0  0  0  # atno 8009 bound_to 7997
  156.2437  140.2893  156.0529 H   0  0  0  0  0  0  0  0  0  0  0  0  # atno 8010 bound_to 7997
  140.7157  143.5552  150.9256 H   0  0  0  0  0  0  0  0  0  0  0  0  # atno 10167 bound_to 10162
  157.0059  130.6098  149.5702 H   0  0  0  0  0  0  0  0  0  0  0  0  # atno 10718 bound_to 10713
  153.5678  135.7008  153.5518 H   0  0  0  0  0  0  0  0  0  0  0  0  # atno 10763 bound_to 10752
  153.3371  135.4031  155.1542 H   0  0  0  0  0  0  0  0  0  0  0  0  # atno 10764 bound_to 10752
  154.8638  135.3733  154.5199 H   0  0  0  0  0  0  0  0  0  0  0  0  # atno 10765 bound_to 10752
  139.9024  134.8160  156.2338 H   0  0  0  0  0  0  0  0  0  0  0  0  # atno 11005 bound_to 11000
  145.1000  140.9339  143.4718 LP  0  0  0  0  0  0  0  0  0  0  0  0  # atno 17320 bound_to 7965
  145.0682  139.3052  143.5845 LP  0  0  0  0  0  0  0  0  0  0  0  0  # atno 17321 bound_to 7965
  139.9277  143.6530  152.3083 LP  0  0  0  0  0  0  0  0  0  0  0  0  # atno 17342 bound_to 10162
  139.6970  144.7640  151.1339 LP  0  0  0  0  0  0  0  0  0  0  0  0  # atno 17343 bound_to 10162
  156.0154  130.5248  150.8118 LP  0  0  0  0  0  0  0  0  0  0  0  0  # atno 17370 bound_to 10713
  157.5356  131.0938  150.9896 LP  0  0  0  0  0  0  0  0  0  0  0  0  # atno 17371 bound_to 10713
  141.0328  133.6979  156.1460 LP  0  0  0  0  0  0  0  0  0  0  0  0  # atno 17394 bound_to 11000
  140.7071  134.4502  157.5583 LP  0  0  0  0  0  0  0  0  0  0  0  0  # atno 17395 bound_to 11000

$$$$
