AV-unprocessed.smi:334|AV-procd|sdf|2364|dock6
  -GOLD-   2262022283D 1   1.00000     0.00000
 Structure written by MMmdl.
 44 46  0  0  0  0  0  0  0  0  3 V2000
  147.4492  132.2752  160.7659 C   0  0  0  0  0  0  0  0  0  0  0  0
  147.5610  133.6915  160.1751 C   0  0  2  0  0  0  0  0  0  0  0  0
  148.4589  133.6751  159.0219 N   0  0  0  0  0  0  0  0  0  0  0  0
  148.2501  133.0054  157.8782 C   0  0  0  0  0  0  0  0  0  0  0  0
  147.2567  132.3051  157.6776 O   0  0  0  0  0  0  0  0  0  0  0  0
  149.3474  133.1499  156.8136 C   0  0  0  0  0  0  0  0  0  0  0  0
  149.9648  131.8702  156.4256 N   0  0  0  0  0  0  0  0  0  0  0  0
  149.2943  131.1093  155.4477 C   0  0  0  0  0  0  0  0  0  0  0  0
  149.7690  129.9263  155.0111 C   0  0  0  0  0  0  0  0  0  0  0  0
  149.0711  129.1621  154.0003 N   0  3  0  0  0  0  0  0  0  0  0  0
  148.2397  129.7323  153.3012 O   0  0  0  0  0  0  0  0  0  0  0  0
  149.3297  127.9693  153.8711 O   0  5  0  0  0  0  0  0  0  0  0  0
  151.0099  129.4443  155.5860 C   0  0  0  0  0  0  0  0  0  0  0  0
  151.6588  130.1700  156.5176 C   0  0  0  0  0  0  0  0  0  0  0  0
  151.1441  131.4612  156.9857 C   0  0  0  0  0  0  0  0  0  0  0  0
  151.7372  132.1333  157.8294 O   0  0  0  0  0  0  0  0  0  0  0  0
  148.0783  134.7209  161.2074 C   0  0  1  0  0  0  0  0  0  0  0  0
  148.1549  136.1762  160.6901 C   0  0  0  0  0  0  0  0  0  0  0  0
  147.4453  136.9763  161.7983 C   0  0  1  0  0  0  0  0  0  0  0  0
  145.9290  136.7247  161.7069 C   0  0  0  0  0  0  0  0  0  0  0  0
  145.7949  135.2825  162.2283 C   0  0  0  0  0  0  0  0  0  0  0  0
  147.2576  134.8822  162.5114 C   0  0  2  0  0  0  0  0  0  0  0  0
  147.8204  136.1934  163.0513 C   0  0  0  0  0  0  0  0  0  0  0  0
  146.7377  132.2453  161.5911 H   0  0  0  0  0  0  0  0  0  0  0  0
  148.4108  131.9247  161.1422 H   0  0  0  0  0  0  0  0  0  0  0  0
  147.1033  131.5598  160.0190 H   0  0  0  0  0  0  0  0  0  0  0  0
  146.5746  134.0035  159.8303 H   0  0  0  0  0  0  0  0  0  0  0  0
  149.3039  134.2222  159.1002 H   0  0  0  0  0  0  0  0  0  0  0  0
  148.9283  133.6520  155.9395 H   0  0  0  0  0  0  0  0  0  0  0  0
  150.1067  133.8340  157.1957 H   0  0  0  0  0  0  0  0  0  0  0  0
  148.3836  131.5585  155.0783 H   0  0  0  0  0  0  0  0  0  0  0  0
  151.4282  128.4986  155.2738 H   0  0  0  0  0  0  0  0  0  0  0  0
  152.5820  129.7925  156.9323 H   0  0  0  0  0  0  0  0  0  0  0  0
  149.0860  134.4164  161.4976 H   0  0  0  0  0  0  0  0  0  0  0  0
  149.1943  136.4893  160.5845 H   0  0  0  0  0  0  0  0  0  0  0  0
  147.6699  136.3134  159.7226 H   0  0  0  0  0  0  0  0  0  0  0  0
  147.7125  138.0333  161.8149 H   0  0  0  0  0  0  0  0  0  0  0  0
  145.3782  137.4164  162.3457 H   0  0  0  0  0  0  0  0  0  0  0  0
  145.5514  136.8358  160.6896 H   0  0  0  0  0  0  0  0  0  0  0  0
  145.2145  135.2699  163.1516 H   0  0  0  0  0  0  0  0  0  0  0  0
  145.2900  134.6224  161.5244 H   0  0  0  0  0  0  0  0  0  0  0  0
  147.3538  134.0382  163.1949 H   0  0  0  0  0  0  0  0  0  0  0  0
  148.8958  136.1628  163.2363 H   0  0  0  0  0  0  0  0  0  0  0  0
  147.3133  136.5463  163.9511 H   0  0  0  0  0  0  0  0  0  0  0  0
  1  2  1  0  0  0  0
  1 24  1  0  0  0  0
  1 25  1  0  0  0  0
  1 26  1  0  0  0  0
  2  3  1  0  0  0  0
  2 17  1  0  0  0  0
  2 27  1  0  0  0  0
  3  4  1  0  0  0  0
  3 28  1  0  0  0  0
  4  5  2  0  0  0  0
  4  6  1  0  0  0  0
  6  7  1  0  0  0  0
  6 29  1  0  0  0  0
  6 30  1  0  0  0  0
  7 15  1  0  0  0  0
  7  8  1  0  0  0  0
  8  9  2  0  0  0  0
  8 31  1  0  0  0  0
  9 10  1  0  0  0  0
  9 13  1  0  0  0  0
 10 11  2  0  0  0  0
 10 12  1  0  0  0  0
 13 14  2  0  0  0  0
 13 32  1  0  0  0  0
 14 15  1  0  0  0  0
 14 33  1  0  0  0  0
 15 16  2  0  0  0  0
 17 22  1  0  0  0  0
 17 18  1  0  0  0  0
 17 34  1  0  0  0  0
 18 19  1  0  0  0  0
 18 35  1  0  0  0  0
 18 36  1  0  0  0  0
 19 23  1  0  0  0  0
 19 20  1  0  0  0  0
 19 37  1  0  0  0  0
 20 21  1  0  0  0  0
 20 38  1  0  0  0  0
 20 39  1  0  0  0  0
 21 22  1  0  0  0  0
 21 40  1  0  0  0  0
 21 41  1  0  0  0  0
 22 23  1  0  0  0  0
 22 42  1  0  0  0  0
 23 43  1  0  0  0  0
 23 44  1  0  0  0  0
M  CHG  1  10   1
M  CHG  1  12  -1
M  END
> <s_m_source_file>
AV-unprocessed.smi

> <i_m_source_file_index>
334

> <i_lp_mmshare_version>
43012

> <i_f3d_flags>
0

> <s_epik_input>
W0NIMl0xW0NIMl1bQ0BIXShbQ0gyXTIpW0NAQEhdKFtDSDJdW0NAQEhdMTIpW0NASF0oW0NIM10pW05IXUMoPU8pW0NIMl1uM1tjSF1jKFtOK10oPU8pW08tXSlbY0hdW2NIXWMzPU8=

> <s_epik_cmdline>
J2VwaWtfcHl0aG9uJywgJy1waCcsICc3LjAnLCAnLXRuJywgJzgnLCAnLW1hJywgJzIwMCcsICctbWV0YWxfYmluZGluZycsICctaW1hZScsICc8aW5maWxlLm1hZT4nLCAnLW9tYWUnLCAnPG91dGZpbGUubWFlPic=

> <r_lp_tautomer_probability>
1

> <r_epik_Ionization_Penalty>
2.17081e-08

> <r_epik_Ionization_Penalty_Charging>
8.1195e-11

> <r_epik_Ionization_Penalty_Neutral>
2.16269e-08

> <r_epik_State_Penalty>
-0

> <r_epik_Charging_Adjusted_Penalty>
8.1195e-11

> <i_epik_Tot_Q>
0

> <i_epik_Tot_abs_Q>
2

> <r_epik_Metal_State_Penalty>
-0

> <b_epik_Metal_Only>
0

> <s_lp_Force_Field>
OPLS_2005

> <r_lp_Energy>
62.3999

> <b_lp_Chiralities_Consistent>
1

> <s_lp_Variant>
AV-unprocessed.smi:334-3

> <Gold.Version>
5.8.1

> <Gold.Id.Protein>
6NUR|6NUR_protein|mol2

> <Gold.PLP.Fitness>
39.4045

> <Gold.PLP.PLP>
-37.7996

> <Gold.PLP.part.hbond>
-1.0000

> <Gold.PLP.part.metal>
0.0000

> <Gold.PLP.part.buried>
-4.4903

> <Gold.PLP.part.nonpolar>
-32.0296

> <Gold.PLP.part.repulsive>
0.5299

> <Gold.PLP.ligand.clash>
0.0000

> <Gold.PLP.ligand.torsion>
0.5139

> <Gold.PLP.Chemscore.Hbond>
0.8640

> <Gold.PLP.Chemscore.CHOScore>
0.0000

> <Gold.PLP.Chemscore.Metal>
0.0000

> <Gold.Chemscore.Hbonds>
donor molecule, donor type, donor heavy atom, donor atom, acceptor molecule, acceptor atom, score
      P1  H  6896  6908       L1    16  1.00

> <Gold.PLP.Chemscore.Internal.Correction>
0.0407

> <Gold.Rescore>
     Score         DG    S(hbond)    S(metal)    S(lipo)     H(rot)  DE(clash)    DE(int)     intcor
     12.71     -14.43       0.95        0.00      87.49       1.75       0.00       1.72       ----

> <Gold.Chemscore.Fitness>
12.7125

> <Gold.Chemscore.DG>
-14.4290

> <Gold.Chemscore.ZeroCoef>
-5.4800

> <Gold.Chemscore.Hbond>
0.9537

> <Gold.Chemscore.Metal>
0.0000

> <Gold.Chemscore.Lipo>
87.4946

> <Gold.Chemscore.Internal_Hbond>
0.0000

> <Gold.Chemscore.DEClash>
0.0009

> <Gold.Chemscore.DEInternal>
1.7155

> <Gold.Chemscore.Rot>
1.7474

> <Gold.Chemscore.Internal.Correction>
   9.000000E+99

> <Gold.Chemscore.Hbonds>
donor molecule, donor type, donor heavy atom, donor atom, acceptor molecule, acceptor atom, score
      P1  H  6896  6908       L1    16  0.99

> <Gold.Chemscore.Hbond.Weighted>
-3.1854

> <Gold.Chemscore.Metal.Weighted>
-0.0000

> <Gold.Chemscore.Lipo.Weighted>
-10.2369

> <Gold.Chemscore.Internal_Hbond.Weighted>
0.0000

> <Gold.Chemscore.DEClash.Weighted>
0.0009

> <Gold.Chemscore.DEInternal.Weighted>
1.7155

> <Gold.Chemscore.Rot.Weighted>
4.4733

> <Gold.Chemscore.Internal.Correction.Weighted>
   9.000000E+99

> <Gold.Protein.RotatedTorsions>
[ 6907 6896 6895 6894 ] final   78.29 input  -60.11 | X-H torsion
[ 7974 7965 7964 7962 ] final   -3.72 input  175.53 | X-H torsion
[ 8008 7997 7996 7995 ] final  -46.48 input   59.86 | X-H torsion
[ 10167 10162 10161 10158 ] final -152.97 input  -65.29 | X-H torsion
[ 10718 10713 10712 10709 ] final  -44.26 input   66.30 | X-H torsion
[ 10763 10752 10751 10750 ] final  -36.22 input  -60.55 | X-H torsion
[ 11005 11000 10999 10996 ] final -110.24 input  -57.11 | X-H torsion

> <Gold.Protein.ActiveResidues>
 VAL166  LYS551  ARG553  GLY616  TRP617  ASP618  TYR619  PRO620  LYS621  CYS622 
 ASP623  PHE694  ASN695  SER759  ASP760  ASP761  ALA762  ILE779  LEU786  VAL792 
 PHE793  MET794  SER795  GLU796  ALA797  LYS798  CYS799  TRP800  GLU811  SER814 

> <Gold.Protein.RotatedAtoms>
  152.5153  134.3687  159.9310 H   0  0  0  0  0  0  0  0  0  0  0  0  # atno 6907 bound_to 6896
  151.3641  133.3872  159.2700 H   0  0  0  0  0  0  0  0  0  0  0  0  # atno 6908 bound_to 6896
  150.9629  134.9033  159.7799 H   0  0  0  0  0  0  0  0  0  0  0  0  # atno 6909 bound_to 6896
  146.2385  140.1763  142.8332 H   0  0  0  0  0  0  0  0  0  0  0  0  # atno 7974 bound_to 7965
  154.4008  140.1370  156.4019 H   0  0  0  0  0  0  0  0  0  0  0  0  # atno 8008 bound_to 7997
  155.7816  140.3481  155.5280 H   0  0  0  0  0  0  0  0  0  0  0  0  # atno 8009 bound_to 7997
  155.8668  140.0965  157.1567 H   0  0  0  0  0  0  0  0  0  0  0  0  # atno 8010 bound_to 7997
  139.7136  143.9069  152.2477 H   0  0  0  0  0  0  0  0  0  0  0  0  # atno 10167 bound_to 10162
  156.2404  130.4179  149.8767 H   0  0  0  0  0  0  0  0  0  0  0  0  # atno 10718 bound_to 10713
  153.8762  135.6826  153.4770 H   0  0  0  0  0  0  0  0  0  0  0  0  # atno 10763 bound_to 10752
  153.1259  135.4719  154.9269 H   0  0  0  0  0  0  0  0  0  0  0  0  # atno 10764 bound_to 10752
  154.7691  135.3233  154.8178 H   0  0  0  0  0  0  0  0  0  0  0  0  # atno 10765 bound_to 10752
  141.0803  133.9232  157.2304 H   0  0  0  0  0  0  0  0  0  0  0  0  # atno 11005 bound_to 11000
  144.9971  140.8598  143.5304 LP  0  0  0  0  0  0  0  0  0  0  0  0  # atno 17320 bound_to 7965
  145.1777  139.2369  143.5309 LP  0  0  0  0  0  0  0  0  0  0  0  0  # atno 17321 bound_to 7965
  139.8945  144.6947  150.8733 LP  0  0  0  0  0  0  0  0  0  0  0  0  # atno 17342 bound_to 10162
  140.7739  143.3561  151.1919 LP  0  0  0  0  0  0  0  0  0  0  0  0  # atno 17343 bound_to 10162
  156.6350  130.8681  151.3503 LP  0  0  0  0  0  0  0  0  0  0  0  0  # atno 17370 bound_to 10713
  157.7173  130.9513  150.1302 LP  0  0  0  0  0  0  0  0  0  0  0  0  # atno 17371 bound_to 10713
  139.9616  135.0152  156.9276 LP  0  0  0  0  0  0  0  0  0  0  0  0  # atno 17394 bound_to 11000
  140.5484  134.0651  155.7362 LP  0  0  0  0  0  0  0  0  0  0  0  0  # atno 17395 bound_to 11000

$$$$
