AV-unprocessed.smi:877|AV-procd|sdf|4028|dock9
  -GOLD-   22720 1523D 1   1.00000     0.00000
 Structure written by MMmdl.
 43 45  0  0  0  0  0  0  0  0  1 V2000
  143.5439  142.7873  155.3472 C   0  0  0  0  0  0  0  0  0  0  0  0
  144.4308  142.5979  156.4400 O   0  0  0  0  0  0  0  0  0  0  0  0
  145.7394  142.2656  156.1625 C   0  0  0  0  0  0  0  0  0  0  0  0
  146.2412  142.0261  154.8581 C   0  0  0  0  0  0  0  0  0  0  0  0
  147.5951  141.6898  154.6654 C   0  0  0  0  0  0  0  0  0  0  0  0
  148.4666  141.5871  155.7679 C   0  0  0  0  0  0  0  0  0  0  0  0
  149.9245  141.2180  155.5522 C   0  0  0  0  0  0  0  0  0  0  0  0
  150.7848  141.4183  156.7707 C   0  0  0  0  0  0  0  0  0  0  0  0
  150.8384  142.5831  157.4220 N   0  0  0  0  0  0  0  0  0  0  0  0
  151.7290  142.3254  158.4442 C   0  0  0  0  0  0  0  0  0  0  0  0
  152.2019  143.1587  159.4829 C   0  0  0  0  0  0  0  0  0  0  0  0
  153.1270  142.6672  160.4272 C   0  0  0  0  0  0  0  0  0  0  0  0
  153.5926  141.3389  160.3453 C   0  0  0  0  0  0  0  0  0  0  0  0
  153.1342  140.4925  159.3174 C   0  0  0  0  0  0  0  0  0  0  0  0
  152.2095  140.9880  158.3786 C   0  0  0  0  0  0  0  0  0  0  0  0
  151.5741  140.4326  157.2723 N   0  0  0  0  0  0  0  0  0  0  0  0
  151.7532  139.0689  156.7904 C   0  0  0  0  0  0  0  0  0  0  0  0
  151.9707  139.0050  155.2650 C   0  0  1  0  0  0  0  0  0  0  0  0
  153.3568  139.0224  154.9839 O   0  0  0  0  0  0  0  0  0  0  0  0
  151.3624  137.7318  154.6538 C   0  0  0  0  0  0  0  0  0  0  0  0
  152.2598  137.1590  153.7254 O   0  0  0  0  0  0  0  0  0  0  0  0
  147.9745  141.8245  157.0670 C   0  0  0  0  0  0  0  0  0  0  0  0
  146.6206  142.1605  157.2584 C   0  0  0  0  0  0  0  0  0  0  0  0
  142.5550  143.0445  155.7266 H   0  0  0  0  0  0  0  0  0  0  0  0
  143.4420  141.8781  154.7530 H   0  0  0  0  0  0  0  0  0  0  0  0
  143.8735  143.6048  154.7045 H   0  0  0  0  0  0  0  0  0  0  0  0
  145.6073  142.0925  153.9872 H   0  0  0  0  0  0  0  0  0  0  0  0
  147.9635  141.5065  153.6664 H   0  0  0  0  0  0  0  0  0  0  0  0
  149.9525  140.1770  155.2335 H   0  0  0  0  0  0  0  0  0  0  0  0
  150.3391  141.8063  154.7330 H   0  0  0  0  0  0  0  0  0  0  0  0
  151.8517  144.1778  159.5532 H   0  0  0  0  0  0  0  0  0  0  0  0
  153.4812  143.3129  161.2172 H   0  0  0  0  0  0  0  0  0  0  0  0
  154.3017  140.9702  161.0719 H   0  0  0  0  0  0  0  0  0  0  0  0
  153.4878  139.4742  159.2519 H   0  0  0  0  0  0  0  0  0  0  0  0
  152.5734  138.5904  157.3250 H   0  0  0  0  0  0  0  0  0  0  0  0
  150.8599  138.5025  157.0566 H   0  0  0  0  0  0  0  0  0  0  0  0
  151.5140  139.8844  154.8079 H   0  0  0  0  0  0  0  0  0  0  0  0
  153.5252  138.4037  154.2894 H   0  0  0  0  0  0  0  0  0  0  0  0
  151.1016  137.0040  155.4235 H   0  0  0  0  0  0  0  0  0  0  0  0
  150.4450  137.9738  154.1162 H   0  0  0  0  0  0  0  0  0  0  0  0
  151.7863  136.9628  152.9313 H   0  0  0  0  0  0  0  0  0  0  0  0
  148.6317  141.7444  157.9207 H   0  0  0  0  0  0  0  0  0  0  0  0
  146.2541  142.3385  158.2589 H   0  0  0  0  0  0  0  0  0  0  0  0
  1  2  1  0  0  0  0
  1 24  1  0  0  0  0
  1 25  1  0  0  0  0
  1 26  1  0  0  0  0
  2  3  1  0  0  0  0
  3 23  1  0  0  0  0
  3  4  2  0  0  0  0
  4  5  1  0  0  0  0
  4 27  1  0  0  0  0
  5  6  2  0  0  0  0
  5 28  1  0  0  0  0
  6  7  1  0  0  0  0
  6 22  1  0  0  0  0
  7  8  1  0  0  0  0
  7 29  1  0  0  0  0
  7 30  1  0  0  0  0
  8 16  1  0  0  0  0
  8  9  2  0  0  0  0
  9 10  1  0  0  0  0
 10 15  2  0  0  0  0
 10 11  1  0  0  0  0
 11 12  2  0  0  0  0
 11 31  1  0  0  0  0
 12 13  1  0  0  0  0
 12 32  1  0  0  0  0
 13 14  2  0  0  0  0
 13 33  1  0  0  0  0
 14 15  1  0  0  0  0
 14 34  1  0  0  0  0
 15 16  1  0  0  0  0
 16 17  1  0  0  0  0
 17 18  1  0  0  0  0
 17 35  1  0  0  0  0
 17 36  1  0  0  0  0
 18 19  1  0  0  0  0
 18 20  1  0  0  0  0
 18 37  1  0  0  0  0
 19 38  1  0  0  0  0
 20 21  1  0  0  0  0
 20 39  1  0  0  0  0
 20 40  1  0  0  0  0
 21 41  1  0  0  0  0
 22 23  2  0  0  0  0
 22 42  1  0  0  0  0
 23 43  1  0  0  0  0
M  END
> <s_m_source_file>
AV-unprocessed.smi

> <i_m_source_file_index>
877

> <i_lp_mmshare_version>
43012

> <i_f3d_flags>
0

> <s_epik_input>
W0NIM11PYzFbY0hdW2NIXWMoW2NIXVtjSF0xKVtDSDJdYyhuMiluKFtDSDJdW0NASF0oW09IXSlbQ0gyXVtPSF0pYyhjMjMpW2NIXVtjSF1bY0hdW2NIXTM=

> <s_epik_cmdline>
J2VwaWtfcHl0aG9uJywgJy1waCcsICc3LjAnLCAnLXRuJywgJzgnLCAnLW1hJywgJzIwMCcsICctbWV0YWxfYmluZGluZycsICctaW1hZScsICc8aW5maWxlLm1hZT4nLCAnLW9tYWUnLCAnPG91dGZpbGUubWFlPic=

> <r_lp_tautomer_probability>
1

> <r_epik_Ionization_Penalty>
0.0616669

> <r_epik_Ionization_Penalty_Charging>
0

> <r_epik_Ionization_Penalty_Neutral>
0.0616669

> <r_epik_State_Penalty>
0.0535415

> <r_epik_Charging_Adjusted_Penalty>
0.0535415

> <i_epik_Tot_Q>
0

> <i_epik_Tot_abs_Q>
0

> <r_epik_Metal_State_Penalty>
5.60326e-05

> <b_epik_Metal_Only>
0

> <s_lp_Force_Field>
OPLS_2005

> <r_lp_Energy>
19.9882

> <b_lp_Chiralities_Consistent>
1

> <s_lp_Variant>
AV-unprocessed.smi:877-2

> <Gold.Version>
5.8.1

> <Gold.Id.Protein>
6NUR|6NUR_protein|mol2

> <Gold.PLP.Fitness>
52.4031

> <Gold.PLP.PLP>
-46.1285

> <Gold.PLP.part.hbond>
-3.0000

> <Gold.PLP.part.metal>
0.0000

> <Gold.PLP.part.buried>
-5.4356

> <Gold.PLP.part.nonpolar>
-38.7173

> <Gold.PLP.part.repulsive>
0.1729

> <Gold.PLP.ligand.clash>
0.0000

> <Gold.PLP.ligand.torsion>
1.4068

> <Gold.PLP.Chemscore.Hbond>
3.0000

> <Gold.PLP.Chemscore.CHOScore>
0.0000

> <Gold.PLP.Chemscore.Metal>
0.0000

> <Gold.Chemscore.Hbonds>
donor molecule, donor type, donor heavy atom, donor atom, acceptor molecule, acceptor atom, score
      L1  H    21    41       P1  7949  1.00
      P1  H  7997  8009       L1    19  1.00
      P1  H 10752 10763       L1    21  0.98

> <Gold.PLP.Chemscore.Internal.Correction>
0.0881

> <Gold.Rescore>
     Score         DG    S(hbond)    S(metal)    S(lipo)     H(rot)  DE(clash)    DE(int)     intcor
     16.65     -19.11       2.70        0.00     108.39       3.15       0.09       2.37       ----

> <Gold.Chemscore.Fitness>
16.6468

> <Gold.Chemscore.DG>
-19.1074

> <Gold.Chemscore.ZeroCoef>
-5.4800

> <Gold.Chemscore.Hbond>
2.6967

> <Gold.Chemscore.Metal>
0.0000

> <Gold.Chemscore.Lipo>
108.3859

> <Gold.Chemscore.Internal_Hbond>
0.0000

> <Gold.Chemscore.DEClash>
0.0859

> <Gold.Chemscore.DEInternal>
2.3747

> <Gold.Chemscore.Rot>
3.1488

> <Gold.Chemscore.Internal.Correction>
   9.000000E+99

> <Gold.Chemscore.Hbonds>
donor molecule, donor type, donor heavy atom, donor atom, acceptor molecule, acceptor atom, score
      L1  H    21    41       P1  7949  0.99
      P1  H  7997  8009       L1    19  0.97
      P1  H 10752 10763       L1    21  0.24

> <Gold.Chemscore.Hbond.Weighted>
-9.0070

> <Gold.Chemscore.Metal.Weighted>
-0.0000

> <Gold.Chemscore.Lipo.Weighted>
-12.6812

> <Gold.Chemscore.Internal_Hbond.Weighted>
0.0000

> <Gold.Chemscore.DEClash.Weighted>
0.0859

> <Gold.Chemscore.DEInternal.Weighted>
2.3747

> <Gold.Chemscore.Rot.Weighted>
8.0608

> <Gold.Chemscore.Internal.Correction.Weighted>
   9.000000E+99

> <Gold.Protein.RotatedTorsions>
[ 6907 6896 6895 6894 ] final -120.61 input  -60.11 | X-H torsion
[ 7974 7965 7964 7962 ] final -166.04 input  175.53 | X-H torsion
[ 8008 7997 7996 7995 ] final -136.20 input   59.86 | X-H torsion
[ 10167 10162 10161 10158 ] final  -34.35 input  -65.29 | X-H torsion
[ 10718 10713 10712 10709 ] final  -30.93 input   66.30 | X-H torsion
[ 10763 10752 10751 10750 ] final   17.48 input  -60.55 | X-H torsion
[ 11005 11000 10999 10996 ] final  164.26 input  -57.11 | X-H torsion

> <Gold.Protein.ActiveResidues>
 VAL166  LYS551  ARG553  GLY616  TRP617  ASP618  TYR619  PRO620  LYS621  CYS622 
 ASP623  PHE694  ASN695  SER759  ASP760  ASP761  ALA762  ILE779  LEU786  VAL792 
 PHE793  MET794  SER795  GLU796  ALA797  LYS798  CYS799  TRP800  GLU811  SER814 

> <Gold.Protein.RotatedAtoms>
  150.8409  133.7938  159.3061 H   0  0  0  0  0  0  0  0  0  0  0  0  # atno 6907 bound_to 6896
  151.5640  135.1063  159.9989 H   0  0  0  0  0  0  0  0  0  0  0  0  # atno 6908 bound_to 6896
  152.4473  133.7518  159.6754 H   0  0  0  0  0  0  0  0  0  0  0  0  # atno 6909 bound_to 6896
  144.7255  140.2725  143.6248 H   0  0  0  0  0  0  0  0  0  0  0  0  # atno 7974 bound_to 7965
  155.3914  140.0500  157.3040 H   0  0  0  0  0  0  0  0  0  0  0  0  # atno 8008 bound_to 7997
  154.5034  140.2165  155.9261 H   0  0  0  0  0  0  0  0  0  0  0  0  # atno 8009 bound_to 7997
  156.1496  140.3138  155.8632 H   0  0  0  0  0  0  0  0  0  0  0  0  # atno 8010 bound_to 7997
  140.7187  143.3554  151.2069 H   0  0  0  0  0  0  0  0  0  0  0  0  # atno 10167 bound_to 10162
  156.3936  130.4377  149.7375 H   0  0  0  0  0  0  0  0  0  0  0  0  # atno 10718 bound_to 10713
  153.1335  135.6745  153.9140 H   0  0  0  0  0  0  0  0  0  0  0  0  # atno 10763 bound_to 10752
  153.8619  135.3080  155.3439 H   0  0  0  0  0  0  0  0  0  0  0  0  # atno 10764 bound_to 10752
  154.7728  135.4930  153.9765 H   0  0  0  0  0  0  0  0  0  0  0  0  # atno 10765 bound_to 10752
  140.2441  134.8028  157.3439 H   0  0  0  0  0  0  0  0  0  0  0  0  # atno 11005 bound_to 11000
  145.8029  139.1971  143.2037 LP  0  0  0  0  0  0  0  0  0  0  0  0  # atno 17320 bound_to 7965
  146.0661  140.7919  142.9711 LP  0  0  0  0  0  0  0  0  0  0  0  0  # atno 17321 bound_to 7965
  139.7095  143.9400  152.2941 LP  0  0  0  0  0  0  0  0  0  0  0  0  # atno 17342 bound_to 10162
  139.9120  144.6850  150.8552 LP  0  0  0  0  0  0  0  0  0  0  0  0  # atno 17343 bound_to 10162
  156.4419  130.7865  151.2886 LP  0  0  0  0  0  0  0  0  0  0  0  0  # atno 17370 bound_to 10713
  157.7500  131.0122  150.3376 LP  0  0  0  0  0  0  0  0  0  0  0  0  # atno 17371 bound_to 10713
  140.1624  134.4712  155.7886 LP  0  0  0  0  0  0  0  0  0  0  0  0  # atno 17394 bound_to 11000
  141.2208  133.6907  156.7567 LP  0  0  0  0  0  0  0  0  0  0  0  0  # atno 17395 bound_to 11000

$$$$
