AV-unprocessed.smi:3237|AV-procd|sdf|12367|dock4
  -GOLD-   2272018223D 1   1.00000     0.00000
 Structure written by MMmdl.
 36 38  0  0  0  0  0  0  0  0  3 V2000
  152.2051  143.5620  160.1345 C   0  0  0  0  0  0  0  0  0  0  0  0
  152.1121  142.4938  159.0990 C   0  0  0  0  0  0  0  0  0  0  0  0
  152.8163  141.3425  158.8886 C   0  0  0  0  0  0  0  0  0  0  0  0
  152.2021  140.7930  157.7303 C   0  0  0  0  0  0  0  0  0  0  0  0
  152.5545  139.6514  157.1190 N   0  5  0  0  0  0  0  0  0  0  0  0
  151.8808  139.2313  156.0246 C   0  0  0  0  0  0  0  0  0  0  0  0
  152.0363  139.6328  154.8691 O   0  0  0  0  0  0  0  0  0  0  0  0
  150.9649  138.2879  156.2846 N   0  0  0  0  0  0  0  0  0  0  0  0
  150.0931  137.6621  155.2969 C   0  0  2  0  0  0  0  0  0  0  0  0
  148.5972  137.8470  155.5651 C   0  0  0  0  0  0  0  0  0  0  0  0
  147.9411  136.5945  154.9618 C   0  0  0  0  0  0  0  0  0  0  0  0
  149.0388  135.6709  154.5911 N   0  3  2  0  0  0  0  0  0  0  0  0
  148.7321  134.2420  154.8113 C   0  0  0  0  0  0  0  0  0  0  0  0
  149.6808  133.3041  154.1040 C   0  0  0  0  0  0  0  0  0  0  0  0
  148.2847  133.5221  153.5617 C   0  0  0  0  0  0  0  0  0  0  0  0
  150.2450  136.1450  155.2913 C   0  0  0  0  0  0  0  0  0  0  0  0
  151.2223  141.5521  157.2687 N   0  0  0  0  0  0  0  0  0  0  0  0
  151.1527  142.6411  158.1458 O   0  0  0  0  0  0  0  0  0  0  0  0
  153.2419  143.8626  160.2860 H   0  0  0  0  0  0  0  0  0  0  0  0
  151.8127  143.2088  161.0881 H   0  0  0  0  0  0  0  0  0  0  0  0
  151.6378  144.4451  159.8408 H   0  0  0  0  0  0  0  0  0  0  0  0
  153.6373  140.9527  159.4714 H   0  0  0  0  0  0  0  0  0  0  0  0
  150.8704  137.9861  157.2434 H   0  0  0  0  0  0  0  0  0  0  0  0
  150.3337  138.0423  154.3020 H   0  0  0  0  0  0  0  0  0  0  0  0
  148.4044  137.8784  156.6387 H   0  0  0  0  0  0  0  0  0  0  0  0
  148.2112  138.7709  155.1332 H   0  0  0  0  0  0  0  0  0  0  0  0
  147.2649  136.1392  155.6870 H   0  0  0  0  0  0  0  0  0  0  0  0
  147.3594  136.8360  154.0718 H   0  0  0  0  0  0  0  0  0  0  0  0
  148.3110  133.9784  155.7800 H   0  0  0  0  0  0  0  0  0  0  0  0
  150.5102  133.7348  153.5458 H   0  0  0  0  0  0  0  0  0  0  0  0
  149.8871  132.3468  154.5784 H   0  0  0  0  0  0  0  0  0  0  0  0
  147.5710  132.7091  153.6795 H   0  0  0  0  0  0  0  0  0  0  0  0
  148.1858  134.0974  152.6427 H   0  0  0  0  0  0  0  0  0  0  0  0
  151.1560  135.8164  154.7899 H   0  0  0  0  0  0  0  0  0  0  0  0
  150.2570  135.7566  156.3117 H   0  0  0  0  0  0  0  0  0  0  0  0
  149.2087  135.8065  153.6048 H   0  0  0  0  0  0  0  0  0  0  0  0
  1  2  1  0  0  0  0
  1 19  1  0  0  0  0
  1 20  1  0  0  0  0
  1 21  1  0  0  0  0
  2 18  1  0  0  0  0
  2  3  2  0  0  0  0
  3  4  1  0  0  0  0
  3 22  1  0  0  0  0
  4  5  1  0  0  0  0
  4 17  2  0  0  0  0
  5  6  1  0  0  0  0
  6  7  2  0  0  0  0
  6  8  1  0  0  0  0
  8  9  1  0  0  0  0
  8 23  1  0  0  0  0
  9 16  1  0  0  0  0
  9 10  1  0  0  0  0
  9 24  1  0  0  0  0
 10 11  1  0  0  0  0
 10 25  1  0  0  0  0
 10 26  1  0  0  0  0
 11 12  1  0  0  0  0
 11 27  1  0  0  0  0
 11 28  1  0  0  0  0
 12 13  1  0  0  0  0
 12 16  1  0  0  0  0
 12 36  1  0  0  0  0
 13 15  1  0  0  0  0
 13 14  1  0  0  0  0
 13 29  1  0  0  0  0
 14 15  1  0  0  0  0
 14 30  1  0  0  0  0
 14 31  1  0  0  0  0
 15 32  1  0  0  0  0
 15 33  1  0  0  0  0
 16 34  1  0  0  0  0
 16 35  1  0  0  0  0
 17 18  1  0  0  0  0
M  CHG  1   5  -1
M  CHG  1  12   1
M  END
> <s_m_source_file>
AV-unprocessed.smi

> <i_m_source_file_index>
3237

> <i_lp_mmshare_version>
43012

> <i_f3d_flags>
0

> <s_epik_input>
W0NIM11jMVtjSF1jKG5vMSlbTkhdQyg9TylbTkhdW0NAQEhdMltDSDJdW0NIMl1OKFtDSDJdMilbQ0hdM1tDSDJdW0NIMl0z

> <s_epik_cmdline>
J2VwaWtfcHl0aG9uJywgJy1waCcsICc3LjAnLCAnLXRuJywgJzgnLCAnLW1hJywgJzIwMCcsICctbWV0YWxfYmluZGluZycsICctaW1hZScsICc8aW5maWxlLm1hZT4nLCAnLW9tYWUnLCAnPG91dGZpbGUubWFlPic=

> <r_epik_Ionization_Penalty>
6.08472

> <r_epik_Ionization_Penalty_Charging>
6.08464

> <r_epik_Ionization_Penalty_Neutral>
8.41751e-05

> <r_epik_State_Penalty>
6.08438

> <r_epik_Charging_Adjusted_Penalty>
12.169

> <i_epik_Tot_Q>
0

> <i_epik_Tot_abs_Q>
2

> <r_epik_Metal_State_Penalty>
2.0369

> <b_epik_Metal_Only>
1

> <s_lp_Force_Field>
OPLS_2005

> <r_lp_Energy>
23.7168

> <b_lp_Chiralities_Consistent>
1

> <s_lp_Variant>
AV-unprocessed.smi:3237-5

> <Gold.Version>
5.8.1

> <Gold.Id.Protein>
6NUR|6NUR_protein|mol2

> <Gold.PLP.Fitness>
40.0564

> <Gold.PLP.PLP>
-26.8329

> <Gold.PLP.part.hbond>
-3.0000

> <Gold.PLP.part.metal>
0.0000

> <Gold.PLP.part.buried>
-4.8264

> <Gold.PLP.part.nonpolar>
-18.3958

> <Gold.PLP.part.repulsive>
0.1827

> <Gold.PLP.ligand.clash>
0.0000

> <Gold.PLP.ligand.torsion>
1.3914

> <Gold.PLP.Chemscore.Hbond>
4.9120

> <Gold.PLP.Chemscore.CHOScore>
0.0000

> <Gold.PLP.Chemscore.Metal>
0.0000

> <Gold.Chemscore.Hbonds>
donor molecule, donor type, donor heavy atom, donor atom, acceptor molecule, acceptor atom, score
      L1  H    12    36       P1  7948  2.00
      P1  H  7989  7998       L1     7  0.90
      P1  H  7997  8010       L1     5  2.00

> <Gold.PLP.Chemscore.Internal.Correction>
1.2703

> <Gold.Rescore>
     Score         DG    S(hbond)    S(metal)    S(lipo)     H(rot)  DE(clash)    DE(int)     intcor
     15.86     -17.31       2.45        0.00      58.39       1.25       0.04       1.41       ----

> <Gold.Chemscore.Fitness>
15.8569

> <Gold.Chemscore.DG>
-17.3125

> <Gold.Chemscore.ZeroCoef>
-5.4800

> <Gold.Chemscore.Hbond>
2.4525

> <Gold.Chemscore.Metal>
0.0000

> <Gold.Chemscore.Lipo>
58.3930

> <Gold.Chemscore.Internal_Hbond>
0.0000

> <Gold.Chemscore.DEClash>
0.0442

> <Gold.Chemscore.DEInternal>
1.4113

> <Gold.Chemscore.Rot>
1.2464

> <Gold.Chemscore.Internal.Correction>
   9.000000E+99

> <Gold.Chemscore.Hbonds>
donor molecule, donor type, donor heavy atom, donor atom, acceptor molecule, acceptor atom, score
      L1  H    12    36       P1  7948  0.70
      P1  H  7989  7998       L1     7  0.88
      P1  H  7997  8010       L1     5  0.18

> <Gold.Chemscore.Hbond.Weighted>
-8.1913

> <Gold.Chemscore.Metal.Weighted>
-0.0000

> <Gold.Chemscore.Lipo.Weighted>
-6.8320

> <Gold.Chemscore.Internal_Hbond.Weighted>
0.0000

> <Gold.Chemscore.DEClash.Weighted>
0.0442

> <Gold.Chemscore.DEInternal.Weighted>
1.4113

> <Gold.Chemscore.Rot.Weighted>
3.1909

> <Gold.Chemscore.Internal.Correction.Weighted>
   9.000000E+99

> <Gold.Protein.RotatedTorsions>
[ 6907 6896 6895 6894 ] final  145.20 input  -60.11 | X-H torsion
[ 7974 7965 7964 7962 ] final   51.82 input  175.53 | X-H torsion
[ 8008 7997 7996 7995 ] final   62.44 input   59.86 | X-H torsion
[ 10167 10162 10161 10158 ] final  -20.48 input  -65.29 | X-H torsion
[ 10718 10713 10712 10709 ] final  -65.82 input   66.30 | X-H torsion
[ 10763 10752 10751 10750 ] final   59.07 input  -60.55 | X-H torsion
[ 11005 11000 10999 10996 ] final   14.12 input  -57.11 | X-H torsion

> <Gold.Protein.ActiveResidues>
 VAL166  LYS551  ARG553  GLY616  TRP617  ASP618  TYR619  PRO620  LYS621  CYS622 
 ASP623  PHE694  ASN695  SER759  ASP760  ASP761  ALA762  ILE779  LEU786  VAL792 
 PHE793  MET794  SER795  GLU796  ALA797  LYS798  CYS799  TRP800  GLU811  SER814 

> <Gold.Protein.RotatedAtoms>
  152.1839  133.4726  159.4971 H   0  0  0  0  0  0  0  0  0  0  0  0  # atno 6907 bound_to 6896
  150.6939  134.1799  159.4253 H   0  0  0  0  0  0  0  0  0  0  0  0  # atno 6908 bound_to 6896
  151.9711  135.0076  160.0603 H   0  0  0  0  0  0  0  0  0  0  0  0  # atno 6909 bound_to 6896
  145.9876  139.4305  143.0093 H   0  0  0  0  0  0  0  0  0  0  0  0  # atno 7974 bound_to 7965
  155.6143  140.3495  155.4632 H   0  0  0  0  0  0  0  0  0  0  0  0  # atno 8008 bound_to 7997
  156.0129  140.1237  157.0459 H   0  0  0  0  0  0  0  0  0  0  0  0  # atno 8009 bound_to 7997
  154.4287  140.1078  156.5841 H   0  0  0  0  0  0  0  0  0  0  0  0  # atno 8010 bound_to 7997
  140.7276  143.4719  151.0235 H   0  0  0  0  0  0  0  0  0  0  0  0  # atno 10167 bound_to 10162
  156.0648  130.4253  150.1619 H   0  0  0  0  0  0  0  0  0  0  0  0  # atno 10718 bound_to 10713
  152.9885  135.5584  154.5653 H   0  0  0  0  0  0  0  0  0  0  0  0  # atno 10763 bound_to 10752
  154.5064  135.2800  155.1381 H   0  0  0  0  0  0  0  0  0  0  0  0  # atno 10764 bound_to 10752
  154.2790  135.6348  153.5392 H   0  0  0  0  0  0  0  0  0  0  0  0  # atno 10765 bound_to 10752
  140.4731  134.1010  155.7736 H   0  0  0  0  0  0  0  0  0  0  0  0  # atno 11005 bound_to 11000
  145.7678  140.9909  143.1165 LP  0  0  0  0  0  0  0  0  0  0  0  0  # atno 17320 bound_to 7965
  144.6879  139.9410  143.7475 LP  0  0  0  0  0  0  0  0  0  0  0  0  # atno 17321 bound_to 7965
  139.8411  143.7562  152.3180 LP  0  0  0  0  0  0  0  0  0  0  0  0  # atno 17342 bound_to 10162
  139.7711  144.7476  151.0223 LP  0  0  0  0  0  0  0  0  0  0  0  0  # atno 17343 bound_to 10162
  156.9681  130.9826  151.3465 LP  0  0  0  0  0  0  0  0  0  0  0  0  # atno 17370 bound_to 10713
  157.5681  130.8292  149.8355 LP  0  0  0  0  0  0  0  0  0  0  0  0  # atno 17371 bound_to 10713
  141.1567  133.8869  157.1958 LP  0  0  0  0  0  0  0  0  0  0  0  0  # atno 17394 bound_to 11000
  139.9872  135.0077  156.9891 LP  0  0  0  0  0  0  0  0  0  0  0  0  # atno 17395 bound_to 11000

$$$$
