AV-unprocessed.smi:3026|AV-procd|sdf|11513|dock5
  -GOLD-   2272016453D 1   1.00000     0.00000
 Structure written by MMmdl.
 33 34  0  0  0  0  0  0  0  0  1 V2000
  151.8699  144.7648  158.8628 C   0  0  0  0  0  0  0  0  0  0  0  0
  152.1216  143.2733  158.8090 C   0  0  0  0  0  0  0  0  0  0  0  0
  152.9129  142.6228  159.7779 C   0  0  0  0  0  0  0  0  0  0  0  0
  153.0750  141.2324  159.6155 C   0  0  0  0  0  0  0  0  0  0  0  0
  152.5029  140.5637  158.5908 N   0  0  0  0  0  0  0  0  0  0  0  0
  151.7639  141.2769  157.7340 C   0  0  0  0  0  0  0  0  0  0  0  0
  151.2071  140.5713  156.6743 N   0  0  0  0  0  0  0  0  0  0  0  0
  152.2183  139.9304  155.8382 C   0  0  0  0  0  0  0  0  0  0  0  0
  151.5822  138.9122  154.8852 C   0  0  0  0  0  0  0  0  0  0  0  0
  150.6088  139.5772  154.0957 O   0  0  0  0  0  0  0  0  0  0  0  0
  149.5570  140.0981  154.8973 C   0  0  0  0  0  0  0  0  0  0  0  0
  150.0880  141.1449  155.9085 C   0  0  1  0  0  0  0  0  0  0  0  0
  148.9380  141.6405  156.8294 C   0  0  0  0  0  0  0  0  0  0  0  0
  147.5187  141.4306  156.2727 C   0  0  0  0  0  0  0  0  0  0  0  0
  147.3218  142.2053  155.1089 O   0  0  0  0  0  0  0  0  0  0  0  0
  151.5546  142.5991  157.7853 N   0  0  0  0  0  0  0  0  0  0  0  0
  152.1244  145.1699  159.8426 H   0  0  0  0  0  0  0  0  0  0  0  0
  150.8198  144.9843  158.6674 H   0  0  0  0  0  0  0  0  0  0  0  0
  152.4743  145.2752  158.1127 H   0  0  0  0  0  0  0  0  0  0  0  0
  153.3714  143.1558  160.5978 H   0  0  0  0  0  0  0  0  0  0  0  0
  153.6675  140.6549  160.3097 H   0  0  0  0  0  0  0  0  0  0  0  0
  152.7463  140.6957  155.2678 H   0  0  0  0  0  0  0  0  0  0  0  0
  152.9610  139.4295  156.4608 H   0  0  0  0  0  0  0  0  0  0  0  0
  152.3410  138.4854  154.2294 H   0  0  0  0  0  0  0  0  0  0  0  0
  151.1309  138.0849  155.4354 H   0  0  0  0  0  0  0  0  0  0  0  0
  148.8296  140.5475  154.2226 H   0  0  0  0  0  0  0  0  0  0  0  0
  149.0480  139.2811  155.4118 H   0  0  0  0  0  0  0  0  0  0  0  0
  150.4830  141.9931  155.3479 H   0  0  0  0  0  0  0  0  0  0  0  0
  149.0158  141.1391  157.7950 H   0  0  0  0  0  0  0  0  0  0  0  0
  149.0412  142.7032  157.0457 H   0  0  0  0  0  0  0  0  0  0  0  0
  147.3168  140.3826  156.0556 H   0  0  0  0  0  0  0  0  0  0  0  0
  146.7839  141.7404  157.0161 H   0  0  0  0  0  0  0  0  0  0  0  0
  147.9305  142.9284  155.1219 H   0  0  0  0  0  0  0  0  0  0  0  0
  1  2  1  0  0  0  0
  1 17  1  0  0  0  0
  1 18  1  0  0  0  0
  1 19  1  0  0  0  0
  2 16  1  0  0  0  0
  2  3  2  0  0  0  0
  3  4  1  0  0  0  0
  3 20  1  0  0  0  0
  4  5  2  0  0  0  0
  4 21  1  0  0  0  0
  5  6  1  0  0  0  0
  6  7  1  0  0  0  0
  6 16  2  0  0  0  0
  7 12  1  0  0  0  0
  7  8  1  0  0  0  0
  8  9  1  0  0  0  0
  8 22  1  0  0  0  0
  8 23  1  0  0  0  0
  9 10  1  0  0  0  0
  9 24  1  0  0  0  0
  9 25  1  0  0  0  0
 10 11  1  0  0  0  0
 11 12  1  0  0  0  0
 11 26  1  0  0  0  0
 11 27  1  0  0  0  0
 12 13  1  0  0  0  0
 12 28  1  0  0  0  0
 13 14  1  0  0  0  0
 13 29  1  0  0  0  0
 13 30  1  0  0  0  0
 14 15  1  0  0  0  0
 14 31  1  0  0  0  0
 14 32  1  0  0  0  0
 15 33  1  0  0  0  0
M  END
> <s_m_source_file>
AV-unprocessed.smi

> <i_m_source_file_index>
3026

> <i_lp_mmshare_version>
43012

> <i_f3d_flags>
0

> <s_epik_input>
W0NIM11jMVtjSF1bY0hdbmMobjEpTjJbQ0gyXVtDSDJdT1tDSDJdW0NASF0yW0NIMl1bQ0gyXVtPSF0=

> <s_epik_cmdline>
J2VwaWtfcHl0aG9uJywgJy1waCcsICc3LjAnLCAnLXRuJywgJzgnLCAnLW1hJywgJzIwMCcsICctbWV0YWxfYmluZGluZycsICctaW1hZScsICc8aW5maWxlLm1hZT4nLCAnLW9tYWUnLCAnPG91dGZpbGUubWFlPic=

> <r_lp_tautomer_probability>
1

> <r_epik_Ionization_Penalty>
6.52665e-05

> <r_epik_Ionization_Penalty_Charging>
0

> <r_epik_Ionization_Penalty_Neutral>
6.52665e-05

> <r_epik_State_Penalty>
-0

> <r_epik_Charging_Adjusted_Penalty>
0

> <i_epik_Tot_Q>
0

> <i_epik_Tot_abs_Q>
0

> <r_epik_Metal_State_Penalty>
-0

> <b_epik_Metal_Only>
0

> <s_lp_Force_Field>
OPLS_2005

> <r_lp_Energy>
15.2375

> <b_lp_Chiralities_Consistent>
1

> <s_lp_Variant>
AV-unprocessed.smi:3026-1

> <Gold.Version>
5.8.1

> <Gold.Id.Protein>
6NUR|6NUR_protein|mol2

> <Gold.PLP.Fitness>
37.6589

> <Gold.PLP.PLP>
-32.9168

> <Gold.PLP.part.hbond>
-2.0000

> <Gold.PLP.part.metal>
0.0000

> <Gold.PLP.part.buried>
-2.7032

> <Gold.PLP.part.nonpolar>
-27.4497

> <Gold.PLP.part.repulsive>
0.2492

> <Gold.PLP.ligand.clash>
0.0000

> <Gold.PLP.ligand.torsion>
0.7851

> <Gold.PLP.Chemscore.Hbond>
2.0000

> <Gold.PLP.Chemscore.CHOScore>
0.0000

> <Gold.PLP.Chemscore.Metal>
0.0000

> <Gold.Chemscore.Hbonds>
donor molecule, donor type, donor heavy atom, donor atom, acceptor molecule, acceptor atom, score
      L1  H    15    33       P1  8028  0.89
      P1  H  7989  7998       L1    10  0.90

> <Gold.PLP.Chemscore.Internal.Correction>
0.3122

> <Gold.Rescore>
     Score         DG    S(hbond)    S(metal)    S(lipo)     H(rot)  DE(clash)    DE(int)     intcor
     13.75     -14.95       1.49        0.00      81.82       1.99       0.13       1.07       ----

> <Gold.Chemscore.Fitness>
13.7537

> <Gold.Chemscore.DG>
-14.9459

> <Gold.Chemscore.ZeroCoef>
-5.4800

> <Gold.Chemscore.Hbond>
1.4906

> <Gold.Chemscore.Metal>
0.0000

> <Gold.Chemscore.Lipo>
81.8157

> <Gold.Chemscore.Internal_Hbond>
0.0000

> <Gold.Chemscore.DEClash>
0.1272

> <Gold.Chemscore.DEInternal>
1.0650

> <Gold.Chemscore.Rot>
1.9864

> <Gold.Chemscore.Internal.Correction>
   9.000000E+99

> <Gold.Chemscore.Hbonds>
donor molecule, donor type, donor heavy atom, donor atom, acceptor molecule, acceptor atom, score
      L1  H    15    33       P1  8028  0.77
      P1  H  7989  7998       L1    10  0.14

> <Gold.Chemscore.Hbond.Weighted>
-4.9786

> <Gold.Chemscore.Metal.Weighted>
-0.0000

> <Gold.Chemscore.Lipo.Weighted>
-9.5724

> <Gold.Chemscore.Internal_Hbond.Weighted>
0.0000

> <Gold.Chemscore.DEClash.Weighted>
0.1272

> <Gold.Chemscore.DEInternal.Weighted>
1.0650

> <Gold.Chemscore.Rot.Weighted>
5.0851

> <Gold.Chemscore.Internal.Correction.Weighted>
   9.000000E+99

> <Gold.Protein.RotatedTorsions>
[ 6907 6896 6895 6894 ] final -101.72 input  -60.11 | X-H torsion
[ 7974 7965 7964 7962 ] final -137.13 input  175.53 | X-H torsion
[ 8008 7997 7996 7995 ] final  -21.15 input   59.86 | X-H torsion
[ 10167 10162 10161 10158 ] final   34.59 input  -65.29 | X-H torsion
[ 10718 10713 10712 10709 ] final  -14.73 input   66.30 | X-H torsion
[ 10763 10752 10751 10750 ] final  -66.47 input  -60.55 | X-H torsion
[ 11005 11000 10999 10996 ] final   21.40 input  -57.11 | X-H torsion

> <Gold.Protein.ActiveResidues>
 VAL166  LYS551  ARG553  GLY616  TRP617  ASP618  TYR619  PRO620  LYS621  CYS622 
 ASP623  PHE694  ASN695  SER759  ASP760  ASP761  ALA762  ILE779  LEU786  VAL792 
 PHE793  MET794  SER795  GLU796  ALA797  LYS798  CYS799  TRP800  GLU811  SER814 

> <Gold.Protein.RotatedAtoms>
  150.7166  134.0691  159.3857 H   0  0  0  0  0  0  0  0  0  0  0  0  # atno 6907 bound_to 6896
  151.8672  135.0500  160.0485 H   0  0  0  0  0  0  0  0  0  0  0  0  # atno 6908 bound_to 6896
  152.2671  133.5313  159.5453 H   0  0  0  0  0  0  0  0  0  0  0  0  # atno 6909 bound_to 6896
  144.8868  140.6586  143.5170 H   0  0  0  0  0  0  0  0  0  0  0  0  # atno 7974 bound_to 7965
  154.4724  140.2042  155.9962 H   0  0  0  0  0  0  0  0  0  0  0  0  # atno 8008 bound_to 7997
  156.1033  140.3240  155.7942 H   0  0  0  0  0  0  0  0  0  0  0  0  # atno 8009 bound_to 7997
  155.4761  140.0535  157.2964 H   0  0  0  0  0  0  0  0  0  0  0  0  # atno 8010 bound_to 7997
  140.4300  144.1338  150.6158 H   0  0  0  0  0  0  0  0  0  0  0  0  # atno 10167 bound_to 10162
  156.6118  130.4851  149.6199 H   0  0  0  0  0  0  0  0  0  0  0  0  # atno 10718 bound_to 10713
  154.3603  135.6117  153.5687 H   0  0  0  0  0  0  0  0  0  0  0  0  # atno 10763 bound_to 10752
  152.9794  135.5813  154.4641 H   0  0  0  0  0  0  0  0  0  0  0  0  # atno 10764 bound_to 10752
  154.4377  135.2849  155.1846 H   0  0  0  0  0  0  0  0  0  0  0  0  # atno 10765 bound_to 10752
  140.3920  134.1809  155.7663 H   0  0  0  0  0  0  0  0  0  0  0  0  # atno 11005 bound_to 11000
  145.3854  139.1628  143.4258 LP  0  0  0  0  0  0  0  0  0  0  0  0  # atno 17320 bound_to 7965
  146.3029  140.3939  142.8697 LP  0  0  0  0  0  0  0  0  0  0  0  0  # atno 17321 bound_to 7965
  140.4437  143.2515  151.9439 LP  0  0  0  0  0  0  0  0  0  0  0  0  # atno 17342 bound_to 10162
  139.4784  144.5629  151.8210 LP  0  0  0  0  0  0  0  0  0  0  0  0  # atno 17343 bound_to 10162
  156.2384  130.6836  151.1532 LP  0  0  0  0  0  0  0  0  0  0  0  0  # atno 17370 bound_to 10713
  157.7252  131.0654  150.5962 LP  0  0  0  0  0  0  0  0  0  0  0  0  # atno 17371 bound_to 10713
  141.1887  133.8253  157.0983 LP  0  0  0  0  0  0  0  0  0  0  0  0  # atno 17394 bound_to 11000
  140.0400  134.9859  157.0943 LP  0  0  0  0  0  0  0  0  0  0  0  0  # atno 17395 bound_to 11000

$$$$
