AV-unprocessed.smi:757|AV-procd|sdf|3614|dock2
  -GOLD-   22720 1 13D 1   1.00000     0.00000
 Structure written by MMmdl.
 45 46  0  0  0  0  0  0  0  0  2 V2000
  148.1829  126.1436  150.7648 C   0  0  0  0  0  0  0  0  0  0  0  0
  148.5347  127.0612  151.4895 C   0  0  0  0  0  0  0  0  0  0  0  0
  148.9630  128.1757  152.3503 C   0  0  0  0  0  0  0  0  0  0  0  0
  147.7878  129.0291  152.8615 C   0  0  0  0  0  0  0  0  0  0  0  0
  148.1101  130.4782  152.8952 N   0  3  2  0  0  0  0  0  0  0  0  0
  149.1815  130.7897  153.8769 C   0  0  0  0  0  0  0  0  0  0  0  0
  149.5969  132.2685  153.8018 C   0  0  0  0  0  0  0  0  0  0  0  0
  148.3898  133.1948  154.0166 C   0  0  1  0  0  0  0  0  0  0  0  0
  148.7973  134.5892  153.8678 N   0  0  0  0  0  0  0  0  0  0  0  0
  149.2652  135.3640  154.8574 C   0  0  0  0  0  0  0  0  0  0  0  0
  149.3815  134.9778  156.0202 O   0  0  0  0  0  0  0  0  0  0  0  0
  149.5620  136.5971  154.4121 N   0  0  0  0  0  0  0  0  0  0  0  0
  150.1102  137.6931  155.1330 C   0  0  0  0  0  0  0  0  0  0  0  0
  150.3565  137.6899  156.5271 C   0  0  0  0  0  0  0  0  0  0  0  0
  150.9222  138.8343  157.1211 C   0  0  0  0  0  0  0  0  0  0  0  0
  151.2338  139.9419  156.3080 C   0  0  0  0  0  0  0  0  0  0  0  0
  151.7897  141.0581  156.8986 O   0  0  0  0  0  0  0  0  0  0  0  0
  151.7158  141.1812  158.3147 C   0  0  0  0  0  0  0  0  0  0  0  0
  151.0121  139.9479  154.9703 N   0  0  0  0  0  0  0  0  0  0  0  0
  150.4686  138.8482  154.4075 C   0  0  0  0  0  0  0  0  0  0  0  0
  147.2822  132.8321  153.0108 C   0  0  0  0  0  0  0  0  0  0  0  0
  146.9162  131.3411  153.1015 C   0  0  0  0  0  0  0  0  0  0  0  0
  147.8719  125.3430  150.1316 H   0  0  0  0  0  0  0  0  0  0  0  0
  149.5155  127.7485  153.1877 H   0  0  0  0  0  0  0  0  0  0  0  0
  149.6661  128.7723  151.7701 H   0  0  0  0  0  0  0  0  0  0  0  0
  146.8923  128.8630  152.2599 H   0  0  0  0  0  0  0  0  0  0  0  0
  147.5443  128.7004  153.8735 H   0  0  0  0  0  0  0  0  0  0  0  0
  148.8370  130.5456  154.8833 H   0  0  0  0  0  0  0  0  0  0  0  0
  150.0547  130.1659  153.6815 H   0  0  0  0  0  0  0  0  0  0  0  0
  150.3636  132.4730  154.5502 H   0  0  0  0  0  0  0  0  0  0  0  0
  150.0514  132.4676  152.8300 H   0  0  0  0  0  0  0  0  0  0  0  0
  148.0157  133.0400  155.0308 H   0  0  0  0  0  0  0  0  0  0  0  0
  148.7294  134.9895  152.9434 H   0  0  0  0  0  0  0  0  0  0  0  0
  149.3321  136.7885  153.4479 H   0  0  0  0  0  0  0  0  0  0  0  0
  150.1390  136.8357  157.1489 H   0  0  0  0  0  0  0  0  0  0  0  0
  151.1192  138.8593  158.1826 H   0  0  0  0  0  0  0  0  0  0  0  0
  152.1990  142.1085  158.6217 H   0  0  0  0  0  0  0  0  0  0  0  0
  152.2305  140.3595  158.8147 H   0  0  0  0  0  0  0  0  0  0  0  0
  150.6809  141.2186  158.6579 H   0  0  0  0  0  0  0  0  0  0  0  0
  150.3117  138.8952  153.3395 H   0  0  0  0  0  0  0  0  0  0  0  0
  146.3929  133.4368  153.1933 H   0  0  0  0  0  0  0  0  0  0  0  0
  147.6102  133.0644  151.9964 H   0  0  0  0  0  0  0  0  0  0  0  0
  146.1550  131.1231  152.3535 H   0  0  0  0  0  0  0  0  0  0  0  0
  146.4730  131.1239  154.0747 H   0  0  0  0  0  0  0  0  0  0  0  0
  148.4864  130.7068  151.9861 H   0  0  0  0  0  0  0  0  0  0  0  0
  1  2  3  0  0  0  0
  1 23  1  0  0  0  0
  2  3  1  0  0  0  0
  3  4  1  0  0  0  0
  3 24  1  0  0  0  0
  3 25  1  0  0  0  0
  4  5  1  0  0  0  0
  4 26  1  0  0  0  0
  4 27  1  0  0  0  0
  5 22  1  0  0  0  0
  5  6  1  0  0  0  0
  5 45  1  0  0  0  0
  6  7  1  0  0  0  0
  6 28  1  0  0  0  0
  6 29  1  0  0  0  0
  7  8  1  0  0  0  0
  7 30  1  0  0  0  0
  7 31  1  0  0  0  0
  8  9  1  0  0  0  0
  8 21  1  0  0  0  0
  8 32  1  0  0  0  0
  9 10  1  0  0  0  0
  9 33  1  0  0  0  0
 10 11  2  0  0  0  0
 10 12  1  0  0  0  0
 12 13  1  0  0  0  0
 12 34  1  0  0  0  0
 13 20  1  0  0  0  0
 13 14  2  0  0  0  0
 14 15  1  0  0  0  0
 14 35  1  0  0  0  0
 15 16  2  0  0  0  0
 15 36  1  0  0  0  0
 16 17  1  0  0  0  0
 16 19  1  0  0  0  0
 17 18  1  0  0  0  0
 18 37  1  0  0  0  0
 18 38  1  0  0  0  0
 18 39  1  0  0  0  0
 19 20  2  0  0  0  0
 20 40  1  0  0  0  0
 21 22  1  0  0  0  0
 21 41  1  0  0  0  0
 21 42  1  0  0  0  0
 22 43  1  0  0  0  0
 22 44  1  0  0  0  0
M  CHG  1   5   1
M  END
> <s_m_source_file>
AV-unprocessed.smi

> <i_m_source_file_index>
757

> <i_lp_mmshare_version>
43012

> <i_f3d_flags>
0

> <s_epik_input>
W0NIXSNDW0NIMl1bQ0gyXU4xW0NIMl1bQ0gyXVtDSF0oW0NIMl1bQ0gyXTEpW05IXUMoPU8pW05IXWMyW2NIXVtjSF1jKE9bQ0gzXSluW2NIXTI=

> <s_epik_cmdline>
J2VwaWtfcHl0aG9uJywgJy1waCcsICc3LjAnLCAnLXRuJywgJzgnLCAnLW1hJywgJzIwMCcsICctbWV0YWxfYmluZGluZycsICctaW1hZScsICc8aW5maWxlLm1hZT4nLCAnLW9tYWUnLCAnPG91dGZpbGUubWFlPic=

> <r_lp_tautomer_probability>
1

> <r_epik_Ionization_Penalty>
0.0402573

> <r_epik_Ionization_Penalty_Charging>
0.0401786

> <r_epik_Ionization_Penalty_Neutral>
7.86509e-05

> <r_epik_State_Penalty>
0.0338029

> <r_epik_Charging_Adjusted_Penalty>
0.0739815

> <i_epik_Tot_Q>
1

> <i_epik_Tot_abs_Q>
1

> <r_epik_Metal_State_Penalty>
0.0338035

> <b_epik_Metal_Only>
0

> <s_lp_Force_Field>
OPLS_2005

> <r_lp_Energy>
20.3265

> <b_lp_Chiralities_Consistent>
1

> <s_lp_Variant>
AV-unprocessed.smi:757-1

> <Gold.Version>
5.8.1

> <Gold.Id.Protein>
6NUR|6NUR_protein|mol2

> <Gold.PLP.Fitness>
48.7856

> <Gold.PLP.PLP>
-35.5687

> <Gold.PLP.part.hbond>
-4.0000

> <Gold.PLP.part.metal>
0.0000

> <Gold.PLP.part.buried>
-3.4697

> <Gold.PLP.part.nonpolar>
-26.5355

> <Gold.PLP.part.repulsive>
0.1247

> <Gold.PLP.ligand.clash>
0.0004

> <Gold.PLP.ligand.torsion>
0.8921

> <Gold.PLP.Chemscore.Hbond>
3.9920

> <Gold.PLP.Chemscore.CHOScore>
0.9968

> <Gold.PLP.Chemscore.Metal>
0.0000

> <Gold.Chemscore.Hbonds>
donor molecule, donor type, donor heavy atom, donor atom, acceptor molecule, acceptor atom, score
      L1  H     5    45       P1 10747  1.00
      L1  H     9    33       P1  7948  1.00
      L1  H    12    34       P1  7948  1.00
      P1  H  7989  7998       L1    19  1.00
      L1  C    20    40       P1  7957  0.96

> <Gold.PLP.Chemscore.Internal.Correction>
0.0352

> <Gold.Rescore>
     Score         DG    S(hbond)    S(metal)    S(lipo)     H(rot)  DE(clash)    DE(int)     intcor
     19.68     -22.11       3.32        0.00      82.17       1.59       0.47       1.96       ----

> <Gold.Chemscore.Fitness>
19.6773

> <Gold.Chemscore.DG>
-22.1091

> <Gold.Chemscore.ZeroCoef>
-5.4800

> <Gold.Chemscore.Hbond>
3.3173

> <Gold.Chemscore.Metal>
0.0000

> <Gold.Chemscore.Lipo>
82.1735

> <Gold.Chemscore.Internal_Hbond>
0.0000

> <Gold.Chemscore.DEClash>
0.4689

> <Gold.Chemscore.DEInternal>
1.9629

> <Gold.Chemscore.Rot>
1.5879

> <Gold.Chemscore.Internal.Correction>
   9.000000E+99

> <Gold.Chemscore.Hbonds>
donor molecule, donor type, donor heavy atom, donor atom, acceptor molecule, acceptor atom, score
      L1  H     5    45       P1 10747  0.93
      L1  H     9    33       P1  7948  0.33
      L1  H    12    34       P1  7948  0.89
      P1  H  7989  7998       L1    19  0.35

> <Gold.Chemscore.Hbond.Weighted>
-11.0797

> <Gold.Chemscore.Metal.Weighted>
-0.0000

> <Gold.Chemscore.Lipo.Weighted>
-9.6143

> <Gold.Chemscore.Internal_Hbond.Weighted>
0.0000

> <Gold.Chemscore.DEClash.Weighted>
0.4689

> <Gold.Chemscore.DEInternal.Weighted>
1.9629

> <Gold.Chemscore.Rot.Weighted>
4.0649

> <Gold.Chemscore.Internal.Correction.Weighted>
   9.000000E+99

> <Gold.Protein.RotatedTorsions>
[ 6907 6896 6895 6894 ] final  115.84 input  -60.11 | X-H torsion
[ 7974 7965 7964 7962 ] final    1.89 input  175.53 | X-H torsion
[ 8008 7997 7996 7995 ] final  144.97 input   59.86 | X-H torsion
[ 10167 10162 10161 10158 ] final -173.06 input  -65.29 | X-H torsion
[ 10718 10713 10712 10709 ] final  100.47 input   66.30 | X-H torsion
[ 10763 10752 10751 10750 ] final  -99.50 input  -60.55 | X-H torsion
[ 11005 11000 10999 10996 ] final -170.61 input  -57.11 | X-H torsion

> <Gold.Protein.ActiveResidues>
 VAL166  LYS551  ARG553  GLY616  TRP617  ASP618  TYR619  PRO620  LYS621  CYS622 
 ASP623  PHE694  ASN695  SER759  ASP760  ASP761  ALA762  ILE779  LEU786  VAL792 
 PHE793  MET794  SER795  GLU796  ALA797  LYS798  CYS799  TRP800  GLU811  SER814 

> <Gold.Protein.RotatedAtoms>
  152.4716  133.8043  159.6969 H   0  0  0  0  0  0  0  0  0  0  0  0  # atno 6907 bound_to 6896
  150.8708  133.7498  159.2968 H   0  0  0  0  0  0  0  0  0  0  0  0  # atno 6908 bound_to 6896
  151.5033  135.1066  159.9887 H   0  0  0  0  0  0  0  0  0  0  0  0  # atno 6909 bound_to 6896
  146.2442  140.0919  142.8351 H   0  0  0  0  0  0  0  0  0  0  0  0  # atno 7974 bound_to 7965
  156.2895  140.2221  156.5140 H   0  0  0  0  0  0  0  0  0  0  0  0  # atno 8008 bound_to 7997
  154.7585  140.0475  157.0975 H   0  0  0  0  0  0  0  0  0  0  0  0  # atno 8009 bound_to 7997
  155.0021  140.3103  155.4866 H   0  0  0  0  0  0  0  0  0  0  0  0  # atno 8010 bound_to 7997
  139.5709  144.1644  152.1382 H   0  0  0  0  0  0  0  0  0  0  0  0  # atno 10167 bound_to 10162
  157.6853  131.0699  150.5105 H   0  0  0  0  0  0  0  0  0  0  0  0  # atno 10718 bound_to 10713
  154.7503  135.4970  153.9276 H   0  0  0  0  0  0  0  0  0  0  0  0  # atno 10763 bound_to 10752
  153.1136  135.6715  153.9465 H   0  0  0  0  0  0  0  0  0  0  0  0  # atno 10764 bound_to 10752
  153.9218  135.3087  155.3426 H   0  0  0  0  0  0  0  0  0  0  0  0  # atno 10765 bound_to 10752
  140.5176  134.5741  157.5038 H   0  0  0  0  0  0  0  0  0  0  0  0  # atno 11005 bound_to 11000
  145.0643  140.9110  143.4920 LP  0  0  0  0  0  0  0  0  0  0  0  0  # atno 17320 bound_to 7965
  145.1041  139.2802  143.5671 LP  0  0  0  0  0  0  0  0  0  0  0  0  # atno 17321 bound_to 7965
  140.1177  144.5401  150.6883 LP  0  0  0  0  0  0  0  0  0  0  0  0  # atno 17342 bound_to 10162
  140.6993  143.2424  151.4910 LP  0  0  0  0  0  0  0  0  0  0  0  0  # atno 17343 bound_to 10162
  156.5423  130.4211  149.6148 LP  0  0  0  0  0  0  0  0  0  0  0  0  # atno 17370 bound_to 10713
  156.2975  130.7158  151.2022 LP  0  0  0  0  0  0  0  0  0  0  0  0  # atno 17371 bound_to 10713
  139.9624  134.7430  156.0210 LP  0  0  0  0  0  0  0  0  0  0  0  0  # atno 17394 bound_to 11000
  141.1352  133.6577  156.3573 LP  0  0  0  0  0  0  0  0  0  0  0  0  # atno 17395 bound_to 11000

$$$$
