AV-unprocessed.smi:1499|AV-procd|sdf|6062|dock5
  -GOLD-   22720 6183D 1   1.00000     0.00000
 Structure written by MMmdl.
 40 41  0  0  0  0  0  0  0  0  1 V2000
  149.8594  141.2283  157.3150 C   0  0  0  0  0  0  0  0  0  0  0  0
  150.5309  141.6488  155.9988 C   0  0  0  0  0  0  0  0  0  0  0  0
  150.9090  140.4999  155.1772 N   0  0  0  0  0  0  0  0  0  0  0  0
  151.8697  139.6778  155.9200 C   0  0  0  0  0  0  0  0  0  0  0  0
  152.3011  138.4614  155.0774 C   0  0  0  0  0  0  0  0  0  0  0  0
  151.1075  137.6674  154.7505 N   0  0  0  0  0  0  0  0  0  0  0  0
  150.7714  136.4593  155.2682 C   0  0  0  0  0  0  0  0  0  0  0  0
  151.2108  136.0516  156.3441 O   0  0  0  0  0  0  0  0  0  0  0  0
  149.8680  135.7788  154.5369 N   0  0  0  0  0  0  0  0  0  0  0  0
  149.3312  134.4919  154.7961 C   0  0  0  0  0  0  0  0  0  0  0  0
  148.3226  133.8652  154.0189 C   0  0  0  0  0  0  0  0  0  0  0  0
  148.0234  132.6670  154.4972 N   0  0  0  0  0  0  0  0  0  0  0  0
  148.8294  132.5081  155.5772 N   0  0  0  0  0  0  0  0  0  0  0  0
  148.7643  131.2805  156.3495 C   0  0  0  0  0  0  0  0  0  0  0  0
  149.8183  131.2712  157.4578 C   0  0  0  0  0  0  0  0  0  0  0  0
  150.7190  130.2853  157.4341 N   0  0  0  0  0  0  0  0  0  0  0  0
  149.8196  132.1439  158.3235 O   0  0  0  0  0  0  0  0  0  0  0  0
  149.6421  133.6049  155.7876 C   0  0  0  0  0  0  0  0  0  0  0  0
  150.1696  138.4787  153.9690 C   0  0  0  0  0  0  0  0  0  0  0  0
  149.7367  139.6946  154.8114 C   0  0  0  0  0  0  0  0  0  0  0  0
  149.4742  142.1022  157.8406 H   0  0  0  0  0  0  0  0  0  0  0  0
  150.5534  140.7291  157.9908 H   0  0  0  0  0  0  0  0  0  0  0  0
  149.0193  140.5570  157.1334 H   0  0  0  0  0  0  0  0  0  0  0  0
  149.8171  142.2578  155.4423 H   0  0  0  0  0  0  0  0  0  0  0  0
  151.3978  142.2822  156.1929 H   0  0  0  0  0  0  0  0  0  0  0  0
  152.7476  140.2763  156.1665 H   0  0  0  0  0  0  0  0  0  0  0  0
  151.4314  139.3464  156.8630 H   0  0  0  0  0  0  0  0  0  0  0  0
  152.7769  138.7935  154.1532 H   0  0  0  0  0  0  0  0  0  0  0  0
  153.0680  137.9058  155.6165 H   0  0  0  0  0  0  0  0  0  0  0  0
  149.5429  136.2286  153.6936 H   0  0  0  0  0  0  0  0  0  0  0  0
  147.8078  134.2313  153.1427 H   0  0  0  0  0  0  0  0  0  0  0  0
  147.7681  131.1945  156.7858 H   0  0  0  0  0  0  0  0  0  0  0  0
  148.8993  130.4225  155.6886 H   0  0  0  0  0  0  0  0  0  0  0  0
  151.4299  130.2351  158.1499 H   0  0  0  0  0  0  0  0  0  0  0  0
  150.6815  129.5896  156.7034 H   0  0  0  0  0  0  0  0  0  0  0  0
  150.3487  133.6446  156.6035 H   0  0  0  0  0  0  0  0  0  0  0  0
  150.6539  138.8083  153.0483 H   0  0  0  0  0  0  0  0  0  0  0  0
  149.2898  137.9162  153.6535 H   0  0  0  0  0  0  0  0  0  0  0  0
  149.2122  139.3632  155.7091 H   0  0  0  0  0  0  0  0  0  0  0  0
  149.0346  140.2915  154.2305 H   0  0  0  0  0  0  0  0  0  0  0  0
  1  2  1  0  0  0  0
  1 21  1  0  0  0  0
  1 22  1  0  0  0  0
  1 23  1  0  0  0  0
  2  3  1  0  0  0  0
  2 24  1  0  0  0  0
  2 25  1  0  0  0  0
  3 20  1  0  0  0  0
  3  4  1  0  0  0  0
  4  5  1  0  0  0  0
  4 26  1  0  0  0  0
  4 27  1  0  0  0  0
  5  6  1  0  0  0  0
  5 28  1  0  0  0  0
  5 29  1  0  0  0  0
  6  7  1  0  0  0  0
  6 19  1  0  0  0  0
  7  8  2  0  0  0  0
  7  9  1  0  0  0  0
  9 10  1  0  0  0  0
  9 30  1  0  0  0  0
 10 18  2  0  0  0  0
 10 11  1  0  0  0  0
 11 12  2  0  0  0  0
 11 31  1  0  0  0  0
 12 13  1  0  0  0  0
 13 14  1  0  0  0  0
 13 18  1  0  0  0  0
 14 15  1  0  0  0  0
 14 32  1  0  0  0  0
 14 33  1  0  0  0  0
 15 16  1  0  0  0  0
 15 17  2  0  0  0  0
 16 34  1  0  0  0  0
 16 35  1  0  0  0  0
 18 36  1  0  0  0  0
 19 20  1  0  0  0  0
 19 37  1  0  0  0  0
 19 38  1  0  0  0  0
 20 39  1  0  0  0  0
 20 40  1  0  0  0  0
M  END
> <s_m_source_file>
AV-unprocessed.smi

> <i_m_source_file_index>
1499

> <i_lp_mmshare_version>
43012

> <i_f3d_flags>
0

> <s_epik_input>
W0NIM11bQ0gyXU4xW0NIMl1bQ0gyXU4oW0NIMl1bQ0gyXTEpQyg9TylbTkhdYzJbY0hdbm4oW2NIXTIpW0NIMl1DKD1PKVtOSDJd

> <s_epik_cmdline>
J2VwaWtfcHl0aG9uJywgJy1waCcsICc3LjAnLCAnLXRuJywgJzgnLCAnLW1hJywgJzIwMCcsICctbWV0YWxfYmluZGluZycsICctaW1hZScsICc8aW5maWxlLm1hZT4nLCAnLW9tYWUnLCAnPG91dGZpbGUubWFlPic=

> <r_lp_tautomer_probability>
1

> <r_epik_Ionization_Penalty>
0.431808

> <r_epik_Ionization_Penalty_Charging>
0

> <r_epik_Ionization_Penalty_Neutral>
0.431808

> <r_epik_State_Penalty>
0.433198

> <r_epik_Charging_Adjusted_Penalty>
0.433198

> <i_epik_Tot_Q>
0

> <i_epik_Tot_abs_Q>
0

> <r_epik_Metal_State_Penalty>
0.433196

> <b_epik_Metal_Only>
0

> <s_lp_Force_Field>
OPLS_2005

> <r_lp_Energy>
45.1289

> <b_lp_Chiralities_Consistent>
1

> <s_lp_Variant>
AV-unprocessed.smi:1499-2

> <Gold.Version>
5.8.1

> <Gold.Id.Protein>
6NUR|6NUR_protein|mol2

> <Gold.PLP.Fitness>
48.1193

> <Gold.PLP.PLP>
-34.8355

> <Gold.PLP.part.hbond>
-5.0000

> <Gold.PLP.part.metal>
0.0000

> <Gold.PLP.part.buried>
0.4408

> <Gold.PLP.part.nonpolar>
-29.4023

> <Gold.PLP.part.repulsive>
0.2040

> <Gold.PLP.ligand.clash>
0.0000

> <Gold.PLP.ligand.torsion>
0.3285

> <Gold.PLP.Chemscore.Hbond>
3.8880

> <Gold.PLP.Chemscore.CHOScore>
0.7384

> <Gold.PLP.Chemscore.Metal>
0.0000

> <Gold.Chemscore.Hbonds>
donor molecule, donor type, donor heavy atom, donor atom, acceptor molecule, acceptor atom, score
      L1  H     9    30       P1  7948  1.00
      P1  H  6896  6907       L1    17  0.88
      P1  H  7989  7998       L1     3  0.99
      L1  C    11    31       P1  7948  0.60

> <Gold.PLP.Chemscore.Internal.Correction>
0.0616

> <Gold.Rescore>
     Score         DG    S(hbond)    S(metal)    S(lipo)     H(rot)  DE(clash)    DE(int)     intcor
     13.90     -16.25       2.51        0.00      60.49       1.83       0.07       2.29       ----

> <Gold.Chemscore.Fitness>
13.8957

> <Gold.Chemscore.DG>
-16.2534

> <Gold.Chemscore.ZeroCoef>
-5.4800

> <Gold.Chemscore.Hbond>
2.5111

> <Gold.Chemscore.Metal>
0.0000

> <Gold.Chemscore.Lipo>
60.4910

> <Gold.Chemscore.Internal_Hbond>
0.0000

> <Gold.Chemscore.DEClash>
0.0652

> <Gold.Chemscore.DEInternal>
2.2926

> <Gold.Chemscore.Rot>
1.8325

> <Gold.Chemscore.Internal.Correction>
   9.000000E+99

> <Gold.Chemscore.Hbonds>
donor molecule, donor type, donor heavy atom, donor atom, acceptor molecule, acceptor atom, score
      L1  H     9    30       P1  7948  0.58
      P1  H  6896  6907       L1    17  0.82
      P1  H  7989  7998       L1     3  0.20

> <Gold.Chemscore.Hbond.Weighted>
-8.3872

> <Gold.Chemscore.Metal.Weighted>
-0.0000

> <Gold.Chemscore.Lipo.Weighted>
-7.0774

> <Gold.Chemscore.Internal_Hbond.Weighted>
0.0000

> <Gold.Chemscore.DEClash.Weighted>
0.0652

> <Gold.Chemscore.DEInternal.Weighted>
2.2926

> <Gold.Chemscore.Rot.Weighted>
4.6912

> <Gold.Chemscore.Internal.Correction.Weighted>
   9.000000E+99

> <Gold.Protein.RotatedTorsions>
[ 6907 6896 6895 6894 ] final -154.75 input  -60.11 | X-H torsion
[ 7974 7965 7964 7962 ] final  163.61 input  175.53 | X-H torsion
[ 8008 7997 7996 7995 ] final  153.36 input   59.86 | X-H torsion
[ 10167 10162 10161 10158 ] final  -10.72 input  -65.29 | X-H torsion
[ 10718 10713 10712 10709 ] final  -62.42 input   66.30 | X-H torsion
[ 10763 10752 10751 10750 ] final  -18.24 input  -60.55 | X-H torsion
[ 11005 11000 10999 10996 ] final   33.74 input  -57.11 | X-H torsion

> <Gold.Protein.ActiveResidues>
 VAL166  LYS551  ARG553  GLY616  TRP617  ASP618  TYR619  PRO620  LYS621  CYS622 
 ASP623  PHE694  ASN695  SER759  ASP760  ASP761  ALA762  ILE779  LEU786  VAL792 
 PHE793  MET794  SER795  GLU796  ALA797  LYS798  CYS799  TRP800  GLU811  SER814 

> <Gold.Protein.RotatedAtoms>
  151.2622  133.4296  159.2616 H   0  0  0  0  0  0  0  0  0  0  0  0  # atno 6907 bound_to 6896
  151.0520  134.9679  159.8226 H   0  0  0  0  0  0  0  0  0  0  0  0  # atno 6908 bound_to 6896
  152.5384  134.2576  159.8975 H   0  0  0  0  0  0  0  0  0  0  0  0  # atno 6909 bound_to 6896
  144.7582  139.8207  143.6342 H   0  0  0  0  0  0  0  0  0  0  0  0  # atno 7974 bound_to 7965
  156.2585  140.1996  156.6477 H   0  0  0  0  0  0  0  0  0  0  0  0  # atno 8008 bound_to 7997
  154.6560  140.0566  157.0034 H   0  0  0  0  0  0  0  0  0  0  0  0  # atno 8009 bound_to 7997
  155.1346  140.3237  155.4469 H   0  0  0  0  0  0  0  0  0  0  0  0  # atno 8010 bound_to 7997
  140.7121  143.5718  150.9085 H   0  0  0  0  0  0  0  0  0  0  0  0  # atno 10167 bound_to 10162
  156.0856  130.4209  150.1132 H   0  0  0  0  0  0  0  0  0  0  0  0  # atno 10718 bound_to 10713
  153.5862  135.7003  153.5442 H   0  0  0  0  0  0  0  0  0  0  0  0  # atno 10763 bound_to 10752
  153.3218  135.4072  155.1422 H   0  0  0  0  0  0  0  0  0  0  0  0  # atno 10764 bound_to 10752
  154.8609  135.3697  154.5392 H   0  0  0  0  0  0  0  0  0  0  0  0  # atno 10765 bound_to 10752
  140.2600  134.3203  155.7861 H   0  0  0  0  0  0  0  0  0  0  0  0  # atno 11005 bound_to 11000
  146.1616  139.4733  142.9984 LP  0  0  0  0  0  0  0  0  0  0  0  0  # atno 17320 bound_to 7965
  145.6707  141.0217  143.1659 LP  0  0  0  0  0  0  0  0  0  0  0  0  # atno 17321 bound_to 7965
  139.9444  143.6345  152.3045 LP  0  0  0  0  0  0  0  0  0  0  0  0  # atno 17342 bound_to 10162
  139.6841  144.7653  151.1556 LP  0  0  0  0  0  0  0  0  0  0  0  0  # atno 17343 bound_to 10162
  156.9154  130.9665  151.3557 LP  0  0  0  0  0  0  0  0  0  0  0  0  # atno 17370 bound_to 10713
  157.5990  130.8498  149.8772 LP  0  0  0  0  0  0  0  0  0  0  0  0  # atno 17371 bound_to 10713
  141.2191  133.7404  156.9172 LP  0  0  0  0  0  0  0  0  0  0  0  0  # atno 17394 bound_to 11000
  140.1474  134.9253  157.2547 LP  0  0  0  0  0  0  0  0  0  0  0  0  # atno 17395 bound_to 11000

$$$$
