AV-unprocessed.smi:1762|AV-procd|sdf|7115|dock5
  -GOLD-   22720 8343D 1   1.00000     0.00000
 Structure written by MMmdl.
 53 54  0  0  0  0  0  0  0  0  2 V2000
  148.8346  140.7871  154.4270 C   0  0  0  0  0  0  0  0  0  0  0  0
  149.5392  139.4524  154.1600 C   0  0  2  0  0  0  0  0  0  0  0  0
  148.8778  138.2853  154.9183 C   0  0  0  0  0  0  0  0  0  0  0  0
  149.6231  137.0129  154.7057 N   0  3  2  0  0  0  0  0  0  0  0  0
  149.0255  135.8037  155.3706 C   0  0  2  0  0  0  0  0  0  0  0  0
  147.5077  135.7158  155.1013 C   0  0  0  0  0  0  0  0  0  0  0  0
  146.7592  136.6213  155.4713 O   0  0  0  0  0  0  0  0  0  0  0  0
  147.0711  134.6241  154.4560 N   0  0  0  0  0  0  0  0  0  0  0  0
  145.6779  134.3730  154.1149 C   0  0  0  0  0  0  0  0  0  0  0  0
  145.3233  135.0273  152.7725 C   0  0  0  0  0  0  0  0  0  0  0  0
  145.1539  134.0061  151.6635 C   0  0  0  0  0  0  0  0  0  0  0  0
  143.8704  133.6710  151.1816 C   0  0  0  0  0  0  0  0  0  0  0  0
  143.7699  132.7218  150.1459 C   0  0  0  0  0  0  0  0  0  0  0  0
  144.9499  132.1484  149.6344 C   0  0  0  0  0  0  0  0  0  0  0  0
  146.1837  132.5511  150.1836 C   0  0  0  0  0  0  0  0  0  0  0  0
  146.2913  133.4600  151.1768 N   0  0  0  0  0  0  0  0  0  0  0  0
  149.3204  135.6998  156.9058 C   0  0  0  0  0  0  0  0  0  0  0  0
  148.7751  134.4061  157.5426 C   0  0  0  0  0  0  0  0  0  0  0  0
  148.8574  136.9261  157.7202 C   0  0  0  0  0  0  0  0  0  0  0  0
  151.0548  137.2270  155.0654 C   0  0  0  0  0  0  0  0  0  0  0  0
  151.6525  138.4140  154.2891 C   0  0  2  0  0  0  0  0  0  0  0  0
  153.1080  138.6894  154.6829 C   0  0  0  0  0  0  0  0  0  0  0  0
  150.8917  139.5788  154.5759 O   0  0  0  0  0  0  0  0  0  0  0  0
  147.7903  140.7500  154.1158 H   0  0  0  0  0  0  0  0  0  0  0  0
  149.3153  141.5981  153.8792 H   0  0  0  0  0  0  0  0  0  0  0  0
  148.8594  141.0415  155.4871 H   0  0  0  0  0  0  0  0  0  0  0  0
  149.5098  139.2556  153.0865 H   0  0  0  0  0  0  0  0  0  0  0  0
  148.8293  138.5038  155.9863 H   0  0  0  0  0  0  0  0  0  0  0  0
  147.8545  138.2096  154.5563 H   0  0  0  0  0  0  0  0  0  0  0  0
  149.4943  134.9372  154.8998 H   0  0  0  0  0  0  0  0  0  0  0  0
  147.7449  133.9220  154.1858 H   0  0  0  0  0  0  0  0  0  0  0  0
  145.5101  133.2960  154.0649 H   0  0  0  0  0  0  0  0  0  0  0  0
  145.0314  134.7647  154.9022 H   0  0  0  0  0  0  0  0  0  0  0  0
  144.3994  135.5998  152.8679 H   0  0  0  0  0  0  0  0  0  0  0  0
  146.0985  135.7402  152.4883 H   0  0  0  0  0  0  0  0  0  0  0  0
  142.9830  134.1293  151.5930 H   0  0  0  0  0  0  0  0  0  0  0  0
  142.8052  132.4395  149.7506 H   0  0  0  0  0  0  0  0  0  0  0  0
  144.9109  131.4178  148.8401 H   0  0  0  0  0  0  0  0  0  0  0  0
  147.1086  132.1327  149.8147 H   0  0  0  0  0  0  0  0  0  0  0  0
  150.3987  135.6136  157.0321 H   0  0  0  0  0  0  0  0  0  0  0  0
  147.6856  134.3949  157.5834 H   0  0  0  0  0  0  0  0  0  0  0  0
  149.1357  134.2957  158.5656 H   0  0  0  0  0  0  0  0  0  0  0  0
  149.0994  133.5259  156.9869 H   0  0  0  0  0  0  0  0  0  0  0  0
  147.7708  137.0071  157.7461 H   0  0  0  0  0  0  0  0  0  0  0  0
  149.2474  137.8592  157.3145 H   0  0  0  0  0  0  0  0  0  0  0  0
  149.1994  136.8558  158.7533 H   0  0  0  0  0  0  0  0  0  0  0  0
  151.1345  137.4044  156.1393 H   0  0  0  0  0  0  0  0  0  0  0  0
  151.6554  136.3437  154.8490 H   0  0  0  0  0  0  0  0  0  0  0  0
  151.6166  138.2099  153.2172 H   0  0  0  0  0  0  0  0  0  0  0  0
  153.7421  137.8271  154.4748 H   0  0  0  0  0  0  0  0  0  0  0  0
  153.1935  138.9196  155.7453 H   0  0  0  0  0  0  0  0  0  0  0  0
  153.5080  139.5369  154.1258 H   0  0  0  0  0  0  0  0  0  0  0  0
  149.5963  136.8275  153.7127 H   0  0  0  0  0  0  0  0  0  0  0  0
  1  2  1  0  0  0  0
  1 24  1  0  0  0  0
  1 25  1  0  0  0  0
  1 26  1  0  0  0  0
  2 23  1  0  0  0  0
  2  3  1  0  0  0  0
  2 27  1  0  0  0  0
  3  4  1  0  0  0  0
  3 28  1  0  0  0  0
  3 29  1  0  0  0  0
  4  5  1  0  0  0  0
  4 20  1  0  0  0  0
  4 53  1  0  0  0  0
  5  6  1  0  0  0  0
  5 17  1  0  0  0  0
  5 30  1  0  0  0  0
  6  7  2  0  0  0  0
  6  8  1  0  0  0  0
  8  9  1  0  0  0  0
  8 31  1  0  0  0  0
  9 10  1  0  0  0  0
  9 32  1  0  0  0  0
  9 33  1  0  0  0  0
 10 11  1  0  0  0  0
 10 34  1  0  0  0  0
 10 35  1  0  0  0  0
 11 16  1  0  0  0  0
 11 12  2  0  0  0  0
 12 13  1  0  0  0  0
 12 36  1  0  0  0  0
 13 14  2  0  0  0  0
 13 37  1  0  0  0  0
 14 15  1  0  0  0  0
 14 38  1  0  0  0  0
 15 16  2  0  0  0  0
 15 39  1  0  0  0  0
 17 18  1  0  0  0  0
 17 19  1  0  0  0  0
 17 40  1  0  0  0  0
 18 41  1  0  0  0  0
 18 42  1  0  0  0  0
 18 43  1  0  0  0  0
 19 44  1  0  0  0  0
 19 45  1  0  0  0  0
 19 46  1  0  0  0  0
 20 21  1  0  0  0  0
 20 47  1  0  0  0  0
 20 48  1  0  0  0  0
 21 22  1  0  0  0  0
 21 23  1  0  0  0  0
 21 49  1  0  0  0  0
 22 50  1  0  0  0  0
 22 51  1  0  0  0  0
 22 52  1  0  0  0  0
M  CHG  1   4   1
M  END
> <s_m_source_file>
AV-unprocessed.smi

> <i_m_source_file_index>
1762

> <i_lp_mmshare_version>
43012

> <i_f3d_flags>
0

> <s_epik_input>
W0NIM11bQ0BASF0xW0NIMl1OKFtDSDJdW0NASF0oTzEpW0NIM10pW0NAQEhdKFtDSF0oW0NIM10pW0NIM10pQyg9TylbTkhdW0NIMl1bQ0gyXWMyW2NIXVtjSF1bY0hdW2NIXW4y

> <s_epik_cmdline>
J2VwaWtfcHl0aG9uJywgJy1waCcsICc3LjAnLCAnLXRuJywgJzgnLCAnLW1hJywgJzIwMCcsICctbWV0YWxfYmluZGluZycsICctaW1hZScsICc8aW5maWxlLm1hZT4nLCAnLW9tYWUnLCAnPG91dGZpbGUubWFlPic=

> <r_epik_Ionization_Penalty>
2.27005

> <r_epik_Ionization_Penalty_Charging>
2.24983

> <r_epik_Ionization_Penalty_Neutral>
0.0202209

> <r_epik_State_Penalty>
2.40228

> <r_epik_Charging_Adjusted_Penalty>
4.65211

> <i_epik_Tot_Q>
1

> <i_epik_Tot_abs_Q>
1

> <r_epik_Metal_State_Penalty>
2.40762

> <b_epik_Metal_Only>
0

> <s_lp_Force_Field>
OPLS_2005

> <r_lp_Energy>
21.2519

> <b_lp_Chiralities_Consistent>
1

> <s_lp_Variant>
AV-unprocessed.smi:1762-17

> <Gold.Version>
5.8.1

> <Gold.Id.Protein>
6NUR|6NUR_protein|mol2

> <Gold.PLP.Fitness>
45.3344

> <Gold.PLP.PLP>
-34.9447

> <Gold.PLP.part.hbond>
-2.0000

> <Gold.PLP.part.metal>
0.0000

> <Gold.PLP.part.buried>
-5.4166

> <Gold.PLP.part.nonpolar>
-28.1414

> <Gold.PLP.part.repulsive>
0.3447

> <Gold.PLP.ligand.clash>
0.0000

> <Gold.PLP.ligand.torsion>
0.9517

> <Gold.PLP.Chemscore.Hbond>
3.0000

> <Gold.PLP.Chemscore.CHOScore>
1.0000

> <Gold.PLP.Chemscore.Metal>
0.0000

> <Gold.Chemscore.Hbonds>
donor molecule, donor type, donor heavy atom, donor atom, acceptor molecule, acceptor atom, score
      L1  H     4    53       P1  7948  2.00
      P1  H  7989  7998       L1    23  1.00
      L1  C    15    39       P1 10747  1.00

> <Gold.PLP.Chemscore.Internal.Correction>
0.2932

> <Gold.Rescore>
     Score         DG    S(hbond)    S(metal)    S(lipo)     H(rot)  DE(clash)    DE(int)     intcor
     15.14     -17.47       1.45        0.00      97.58       1.66       0.07       2.25       ----

> <Gold.Chemscore.Fitness>
15.1439

> <Gold.Chemscore.DG>
-17.4673

> <Gold.Chemscore.ZeroCoef>
-5.4800

> <Gold.Chemscore.Hbond>
1.4457

> <Gold.Chemscore.Metal>
0.0000

> <Gold.Chemscore.Lipo>
97.5838

> <Gold.Chemscore.Internal_Hbond>
0.0000

> <Gold.Chemscore.DEClash>
0.0721

> <Gold.Chemscore.DEInternal>
2.2513

> <Gold.Chemscore.Rot>
1.6635

> <Gold.Chemscore.Internal.Correction>
   9.000000E+99

> <Gold.Chemscore.Hbonds>
donor molecule, donor type, donor heavy atom, donor atom, acceptor molecule, acceptor atom, score
      L1  H     4    53       P1  7948  0.74
      P1  H  7989  7998       L1    23  0.25

> <Gold.Chemscore.Hbond.Weighted>
-4.8286

> <Gold.Chemscore.Metal.Weighted>
-0.0000

> <Gold.Chemscore.Lipo.Weighted>
-11.4173

> <Gold.Chemscore.Internal_Hbond.Weighted>
0.0000

> <Gold.Chemscore.DEClash.Weighted>
0.0721

> <Gold.Chemscore.DEInternal.Weighted>
2.2513

> <Gold.Chemscore.Rot.Weighted>
4.2586

> <Gold.Chemscore.Internal.Correction.Weighted>
   9.000000E+99

> <Gold.Protein.RotatedTorsions>
[ 6907 6896 6895 6894 ] final   81.20 input  -60.11 | X-H torsion
[ 7974 7965 7964 7962 ] final   59.81 input  175.53 | X-H torsion
[ 8008 7997 7996 7995 ] final -112.85 input   59.86 | X-H torsion
[ 10167 10162 10161 10158 ] final  121.44 input  -65.29 | X-H torsion
[ 10718 10713 10712 10709 ] final -175.08 input   66.30 | X-H torsion
[ 10763 10752 10751 10750 ] final  130.65 input  -60.55 | X-H torsion
[ 11005 11000 10999 10996 ] final  -79.67 input  -57.11 | X-H torsion

> <Gold.Protein.ActiveResidues>
 VAL166  LYS551  ARG553  GLY616  TRP617  ASP618  TYR619  PRO620  LYS621  CYS622 
 ASP623  PHE694  ASN695  SER759  ASP760  ASP761  ALA762  ILE779  LEU786  VAL792 
 PHE793  MET794  SER795  GLU796  ALA797  LYS798  CYS799  TRP800  GLU811  SER814 

> <Gold.Protein.RotatedAtoms>
  152.5261  134.3240  159.9158 H   0  0  0  0  0  0  0  0  0  0  0  0  # atno 6907 bound_to 6896
  151.3189  133.4042  159.2660 H   0  0  0  0  0  0  0  0  0  0  0  0  # atno 6908 bound_to 6896
  150.9976  134.9313  159.7993 H   0  0  0  0  0  0  0  0  0  0  0  0  # atno 6909 bound_to 6896
  145.9031  139.3596  143.0581 H   0  0  0  0  0  0  0  0  0  0  0  0  # atno 7974 bound_to 7965
  155.0116  140.0393  157.2401 H   0  0  0  0  0  0  0  0  0  0  0  0  # atno 8008 bound_to 7997
  154.7455  140.2757  155.6313 H   0  0  0  0  0  0  0  0  0  0  0  0  # atno 8009 bound_to 7997
  156.2874  140.2657  156.2194 H   0  0  0  0  0  0  0  0  0  0  0  0  # atno 8010 bound_to 7997
  139.5920  144.7028  151.3268 H   0  0  0  0  0  0  0  0  0  0  0  0  # atno 10167 bound_to 10162
  156.7946  130.9530  151.3120 H   0  0  0  0  0  0  0  0  0  0  0  0  # atno 10718 bound_to 10713
  153.7614  135.3195  155.3337 H   0  0  0  0  0  0  0  0  0  0  0  0  # atno 10763 bound_to 10752
  154.8229  135.4591  154.0834 H   0  0  0  0  0  0  0  0  0  0  0  0  # atno 10764 bound_to 10752
  153.2066  135.6930  153.8249 H   0  0  0  0  0  0  0  0  0  0  0  0  # atno 10765 bound_to 10752
  141.1667  133.7116  156.8157 H   0  0  0  0  0  0  0  0  0  0  0  0  # atno 11005 bound_to 11000
  145.8766  140.9388  143.0623 LP  0  0  0  0  0  0  0  0  0  0  0  0  # atno 17320 bound_to 7965
  144.6737  140.0725  143.7472 LP  0  0  0  0  0  0  0  0  0  0  0  0  # atno 17321 bound_to 7965
  140.7181  143.7212  150.7694 LP  0  0  0  0  0  0  0  0  0  0  0  0  # atno 17342 bound_to 10162
  140.0770  143.5006  152.2550 LP  0  0  0  0  0  0  0  0  0  0  0  0  # atno 17343 bound_to 10162
  157.6584  130.8944  149.9777 LP  0  0  0  0  0  0  0  0  0  0  0  0  # atno 17370 bound_to 10713
  156.1138  130.3648  150.0003 LP  0  0  0  0  0  0  0  0  0  0  0  0  # atno 17371 bound_to 10713
  140.2156  134.8795  157.3321 LP  0  0  0  0  0  0  0  0  0  0  0  0  # atno 17394 bound_to 11000
  140.2041  134.4218  155.7647 LP  0  0  0  0  0  0  0  0  0  0  0  0  # atno 17395 bound_to 11000

$$$$
