AV-unprocessed.smi:2533|AV-procd|sdf|9972|dock1
  -GOLD-   2272014 23D 1   1.00000     0.00000
 Structure written by MMmdl.
 35 36  0  0  0  0  0  0  0  0  1 V2000
  151.9293  144.3940  159.0483 C   0  0  0  0  0  0  0  0  0  0  0  0
  152.5199  143.4751  159.9559 O   0  0  0  0  0  0  0  0  0  0  0  0
  152.5169  142.1376  159.6202 C   0  0  0  0  0  0  0  0  0  0  0  0
  151.9384  141.6178  158.4350 C   0  0  0  0  0  0  0  0  0  0  0  0
  151.9735  140.2355  158.1699 C   0  0  0  0  0  0  0  0  0  0  0  0
  152.5855  139.3495  159.0807 C   0  0  0  0  0  0  0  0  0  0  0  0
  152.5945  137.8501  158.8169 C   0  0  2  0  0  0  0  0  0  0  0  0
  151.8747  137.1289  159.7959 O   0  0  0  0  0  0  0  0  0  0  0  0
  154.0207  137.2616  158.7242 C   0  0  0  0  0  0  0  0  0  0  0  0
  154.8349  137.5654  159.9100 N   0  0  0  0  0  0  0  0  0  0  0  0
  154.3510  136.9952  161.0751 N   0  0  0  0  0  0  0  0  0  0  0  0
  154.9638  137.1461  162.2048 C   0  0  0  0  0  0  0  0  0  0  0  0
  154.3625  136.4766  163.4158 C   0  0  0  0  0  0  0  0  0  0  0  0
  153.0974  136.8567  163.5964 F   0  0  0  0  0  0  0  0  0  0  0  0
  154.3897  135.1518  163.2678 F   0  0  0  0  0  0  0  0  0  0  0  0
  155.0598  136.7944  164.5067 F   0  0  0  0  0  0  0  0  0  0  0  0
  156.1807  137.9389  162.2471 C   0  0  0  0  0  0  0  0  0  0  0  0
  156.6519  138.4936  161.1102 C   0  0  0  0  0  0  0  0  0  0  0  0
  155.9714  138.3194  159.8297 C   0  0  0  0  0  0  0  0  0  0  0  0
  156.3902  138.7990  158.7767 O   0  0  0  0  0  0  0  0  0  0  0  0
  153.1643  139.8629  160.2590 C   0  0  0  0  0  0  0  0  0  0  0  0
  153.1290  141.2449  160.5250 C   0  0  0  0  0  0  0  0  0  0  0  0
  153.6864  141.7171  161.6656 F   0  0  0  0  0  0  0  0  0  0  0  0
  152.0029  145.4019  159.4569 H   0  0  0  0  0  0  0  0  0  0  0  0
  150.8712  144.1782  158.8941 H   0  0  0  0  0  0  0  0  0  0  0  0
  152.4434  144.3901  158.0864 H   0  0  0  0  0  0  0  0  0  0  0  0
  151.4564  142.2591  157.7130 H   0  0  0  0  0  0  0  0  0  0  0  0
  151.5173  139.8552  157.2676 H   0  0  0  0  0  0  0  0  0  0  0  0
  152.0836  137.6699  157.8701 H   0  0  0  0  0  0  0  0  0  0  0  0
  150.9646  137.3775  159.7415 H   0  0  0  0  0  0  0  0  0  0  0  0
  153.9633  136.1857  158.5504 H   0  0  0  0  0  0  0  0  0  0  0  0
  154.5237  137.6626  157.8424 H   0  0  0  0  0  0  0  0  0  0  0  0
  156.7023  138.0810  163.1820 H   0  0  0  0  0  0  0  0  0  0  0  0
  157.5573  139.0816  161.1461 H   0  0  0  0  0  0  0  0  0  0  0  0
  153.6287  139.1964  160.9710 H   0  0  0  0  0  0  0  0  0  0  0  0
  1  2  1  0  0  0  0
  1 24  1  0  0  0  0
  1 25  1  0  0  0  0
  1 26  1  0  0  0  0
  2  3  1  0  0  0  0
  3 22  1  0  0  0  0
  3  4  2  0  0  0  0
  4  5  1  0  0  0  0
  4 27  1  0  0  0  0
  5  6  2  0  0  0  0
  5 28  1  0  0  0  0
  6  7  1  0  0  0  0
  6 21  1  0  0  0  0
  7  8  1  0  0  0  0
  7  9  1  0  0  0  0
  7 29  1  0  0  0  0
  8 30  1  0  0  0  0
  9 10  1  0  0  0  0
  9 31  1  0  0  0  0
  9 32  1  0  0  0  0
 10 19  1  0  0  0  0
 10 11  1  0  0  0  0
 11 12  2  0  0  0  0
 12 13  1  0  0  0  0
 12 17  1  0  0  0  0
 13 14  1  0  0  0  0
 13 15  1  0  0  0  0
 13 16  1  0  0  0  0
 17 18  2  0  0  0  0
 17 33  1  0  0  0  0
 18 19  1  0  0  0  0
 18 34  1  0  0  0  0
 19 20  2  0  0  0  0
 21 22  2  0  0  0  0
 21 35  1  0  0  0  0
 22 23  1  0  0  0  0
M  END
> <s_m_source_file>
AV-unprocessed.smi

> <i_m_source_file_index>
2533

> <i_lp_mmshare_version>
43012

> <i_f3d_flags>
0

> <s_epik_input>
W0NIM11PYzFbY0hdW2NIXWMoW2NIXWMxRilbQ0BIXShbT0hdKVtDSDJdbjJuYyhDKEYpKEYpRilbY0hdW2NIXWMyPU8=

> <s_epik_cmdline>
J2VwaWtfcHl0aG9uJywgJy1waCcsICc3LjAnLCAnLXRuJywgJzgnLCAnLW1hJywgJzIwMCcsICctbWV0YWxfYmluZGluZycsICctaW1hZScsICc8aW5maWxlLm1hZT4nLCAnLW9tYWUnLCAnPG91dGZpbGUubWFlPic=

> <r_lp_tautomer_probability>
1

> <r_epik_Ionization_Penalty>
5.00966e-08

> <r_epik_Ionization_Penalty_Charging>
3.92872e-09

> <r_epik_Ionization_Penalty_Neutral>
4.61679e-08

> <r_epik_State_Penalty>
-0

> <r_epik_Charging_Adjusted_Penalty>
3.92872e-09

> <i_epik_Tot_Q>
0

> <i_epik_Tot_abs_Q>
0

> <r_epik_Metal_State_Penalty>
-0

> <b_epik_Metal_Only>
0

> <s_lp_Force_Field>
OPLS_2005

> <r_lp_Energy>
31.2936

> <b_lp_Chiralities_Consistent>
1

> <s_lp_Variant>
AV-unprocessed.smi:2533-1

> <Gold.Version>
5.8.1

> <Gold.Id.Protein>
6NUR|6NUR_protein|mol2

> <Gold.PLP.Fitness>
44.1948

> <Gold.PLP.PLP>
-38.3014

> <Gold.PLP.part.hbond>
-2.0000

> <Gold.PLP.part.metal>
0.0000

> <Gold.PLP.part.buried>
-5.4950

> <Gold.PLP.part.nonpolar>
-30.4700

> <Gold.PLP.part.repulsive>
0.0596

> <Gold.PLP.ligand.clash>
0.0000

> <Gold.PLP.ligand.torsion>
0.1065

> <Gold.PLP.Chemscore.Hbond>
2.0000

> <Gold.PLP.Chemscore.CHOScore>
0.0000

> <Gold.PLP.Chemscore.Metal>
0.0000

> <Gold.Chemscore.Hbonds>
donor molecule, donor type, donor heavy atom, donor atom, acceptor molecule, acceptor atom, score
      P1  H  6896  6907       L1     8  1.00
      P1  H  7997  8010       L1    20  0.98

> <Gold.PLP.Chemscore.Internal.Correction>
0.1063

> <Gold.Rescore>
     Score         DG    S(hbond)    S(metal)    S(lipo)     H(rot)  DE(clash)    DE(int)     intcor
     13.33     -15.27       1.91        0.00      83.89       2.50       0.02       1.92       ----

> <Gold.Chemscore.Fitness>
13.3280

> <Gold.Chemscore.DG>
-15.2669

> <Gold.Chemscore.ZeroCoef>
-5.4800

> <Gold.Chemscore.Hbond>
1.9102

> <Gold.Chemscore.Metal>
0.0000

> <Gold.Chemscore.Lipo>
83.8858

> <Gold.Chemscore.Internal_Hbond>
0.0000

> <Gold.Chemscore.DEClash>
0.0192

> <Gold.Chemscore.DEInternal>
1.9197

> <Gold.Chemscore.Rot>
2.5031

> <Gold.Chemscore.Internal.Correction>
   9.000000E+99

> <Gold.Chemscore.Hbonds>
donor molecule, donor type, donor heavy atom, donor atom, acceptor molecule, acceptor atom, score
      P1  H  6896  6907       L1     8  0.25
      P1  H  7997  8010       L1    20  0.91

> <Gold.Chemscore.Hbond.Weighted>
-6.3802

> <Gold.Chemscore.Metal.Weighted>
-0.0000

> <Gold.Chemscore.Lipo.Weighted>
-9.8146

> <Gold.Chemscore.Internal_Hbond.Weighted>
0.0000

> <Gold.Chemscore.DEClash.Weighted>
0.0192

> <Gold.Chemscore.DEInternal.Weighted>
1.9197

> <Gold.Chemscore.Rot.Weighted>
6.4079

> <Gold.Chemscore.Internal.Correction.Weighted>
   9.000000E+99

> <Gold.Protein.RotatedTorsions>
[ 6907 6896 6895 6894 ] final    6.32 input  -60.11 | X-H torsion
[ 7974 7965 7964 7962 ] final  -91.62 input  175.53 | X-H torsion
[ 8008 7997 7996 7995 ] final  -32.50 input   59.86 | X-H torsion
[ 10167 10162 10161 10158 ] final  -96.36 input  -65.29 | X-H torsion
[ 10718 10713 10712 10709 ] final -135.28 input   66.30 | X-H torsion
[ 10763 10752 10751 10750 ] final  -72.97 input  -60.55 | X-H torsion
[ 11005 11000 10999 10996 ] final -179.04 input  -57.11 | X-H torsion

> <Gold.Protein.ActiveResidues>
 VAL166  LYS551  ARG553  GLY616  TRP617  ASP618  TYR619  PRO620  LYS621  CYS622 
 ASP623  PHE694  ASN695  SER759  ASP760  ASP761  ALA762  ILE779  LEU786  VAL792 
 PHE793  MET794  SER795  GLU796  ALA797  LYS798  CYS799  TRP800  GLU811  SER814 

> <Gold.Protein.RotatedAtoms>
  151.6718  135.0975  160.0199 H   0  0  0  0  0  0  0  0  0  0  0  0  # atno 6907 bound_to 6896
  152.3887  133.6643  159.6228 H   0  0  0  0  0  0  0  0  0  0  0  0  # atno 6908 bound_to 6896
  150.7807  133.8908  159.3354 H   0  0  0  0  0  0  0  0  0  0  0  0  # atno 6909 bound_to 6896
  145.4107  140.9545  143.2235 H   0  0  0  0  0  0  0  0  0  0  0  0  # atno 7974 bound_to 7965
  154.4178  140.1736  156.1736 H   0  0  0  0  0  0  0  0  0  0  0  0  # atno 8008 bound_to 7997
  155.9740  140.3383  155.6577 H   0  0  0  0  0  0  0  0  0  0  0  0  # atno 8009 bound_to 7997
  155.6588  140.0698  157.2552 H   0  0  0  0  0  0  0  0  0  0  0  0  # atno 8010 bound_to 7997
  140.2946  143.3200  152.0311 H   0  0  0  0  0  0  0  0  0  0  0  0  # atno 10167 bound_to 10162
  156.2645  130.7229  151.1175 H   0  0  0  0  0  0  0  0  0  0  0  0  # atno 10718 bound_to 10713
  154.4530  135.5912  153.6204 H   0  0  0  0  0  0  0  0  0  0  0  0  # atno 10763 bound_to 10752
  152.9815  135.6025  154.3581 H   0  0  0  0  0  0  0  0  0  0  0  0  # atno 10764 bound_to 10752
  154.3444  135.2841  155.2384 H   0  0  0  0  0  0  0  0  0  0  0  0  # atno 10765 bound_to 10752
  140.4230  134.6588  157.4674 H   0  0  0  0  0  0  0  0  0  0  0  0  # atno 11005 bound_to 11000
  144.8311  139.5628  143.6943 LP  0  0  0  0  0  0  0  0  0  0  0  0  # atno 17320 bound_to 7965
  146.2706  139.6626  142.9299 LP  0  0  0  0  0  0  0  0  0  0  0  0  # atno 17321 bound_to 7965
  139.4929  144.6500  151.6696 LP  0  0  0  0  0  0  0  0  0  0  0  0  # atno 17342 bound_to 10162
  140.5703  144.0120  150.6213 LP  0  0  0  0  0  0  0  0  0  0  0  0  # atno 17343 bound_to 10162
  157.7262  131.0648  150.5919 LP  0  0  0  0  0  0  0  0  0  0  0  0  # atno 17370 bound_to 10713
  156.6009  130.4354  149.5897 LP  0  0  0  0  0  0  0  0  0  0  0  0  # atno 17371 bound_to 10713
  140.0187  134.6580  155.9272 LP  0  0  0  0  0  0  0  0  0  0  0  0  # atno 17394 bound_to 11000
  141.1776  133.6542  156.4891 LP  0  0  0  0  0  0  0  0  0  0  0  0  # atno 17395 bound_to 11000

$$$$
