AV-unprocessed.smi:788|AV-procd|sdf|3738|dock4
  -GOLD-   22720 1173D 1   1.00000     0.00000
 Structure written by MMmdl.
 34 35  0  0  0  0  0  0  0  0  2 V2000
  154.0616  141.8232  160.6703 C   0  0  0  0  0  0  0  0  0  0  0  0
  152.5396  142.0711  160.6074 C   0  0  1  0  0  0  0  0  0  0  0  0
  152.0920  143.1555  161.6075 C   0  0  0  0  0  0  0  0  0  0  0  0
  152.4959  144.5667  161.1542 C   0  0  0  0  0  0  0  0  0  0  0  0
  151.9558  144.8714  159.7496 C   0  0  0  0  0  0  0  0  0  0  0  0
  152.4075  143.8193  158.7175 C   0  0  2  0  0  0  0  0  0  0  0  0
  151.8532  144.1623  157.3222 C   0  0  0  0  0  0  0  0  0  0  0  0
  152.0081  142.3950  159.1840 C   0  0  1  0  0  0  0  0  0  0  0  0
  152.4545  141.3978  158.2120 N   0  0  0  0  0  0  0  0  0  0  0  0
  152.2715  140.0648  158.2810 C   0  0  0  0  0  0  0  0  0  0  0  0
  151.6842  139.5924  159.2533 O   0  0  0  0  0  0  0  0  0  0  0  0
  152.7532  139.3073  157.2603 N   0  5  0  0  0  0  0  0  0  0  0  0
  152.0966  139.1633  156.0942 C   0  0  0  0  0  0  0  0  0  0  0  0
  151.1874  140.0529  155.6643 N   0  0  0  0  0  0  0  0  0  0  0  0
  150.6236  139.7098  154.4430 N   0  0  0  0  0  0  0  0  0  0  0  0
  151.1344  138.5713  153.9746 C   0  0  0  0  0  0  0  0  0  0  0  0
  152.3446  137.8112  154.9858 S   0  0  0  0  0  0  0  0  0  0  0  0
  154.6322  142.6857  160.3281 H   0  0  0  0  0  0  0  0  0  0  0  0
  154.3543  140.9706  160.0570 H   0  0  0  0  0  0  0  0  0  0  0  0
  154.3771  141.6046  161.6905 H   0  0  0  0  0  0  0  0  0  0  0  0
  152.0701  141.1397  160.9271 H   0  0  0  0  0  0  0  0  0  0  0  0
  151.0071  143.1156  161.7137 H   0  0  0  0  0  0  0  0  0  0  0  0
  152.4986  142.9494  162.5980 H   0  0  0  0  0  0  0  0  0  0  0  0
  152.1175  145.3036  161.8631 H   0  0  0  0  0  0  0  0  0  0  0  0
  153.5816  144.6659  161.1613 H   0  0  0  0  0  0  0  0  0  0  0  0
  150.8660  144.9081  159.7827 H   0  0  0  0  0  0  0  0  0  0  0  0
  152.2875  145.8633  159.4413 H   0  0  0  0  0  0  0  0  0  0  0  0
  153.4949  143.8670  158.6484 H   0  0  0  0  0  0  0  0  0  0  0  0
  150.7649  144.0980  157.3025 H   0  0  0  0  0  0  0  0  0  0  0  0
  152.2399  143.4886  156.5572 H   0  0  0  0  0  0  0  0  0  0  0  0
  152.1317  145.1746  157.0286 H   0  0  0  0  0  0  0  0  0  0  0  0
  150.9172  142.3651  159.2194 H   0  0  0  0  0  0  0  0  0  0  0  0
  152.9488  141.7506  157.4060 H   0  0  0  0  0  0  0  0  0  0  0  0
  150.7968  138.1764  153.0281 H   0  0  0  0  0  0  0  0  0  0  0  0
  1  2  1  0  0  0  0
  1 18  1  0  0  0  0
  1 19  1  0  0  0  0
  1 20  1  0  0  0  0
  2  8  1  0  0  0  0
  2  3  1  0  0  0  0
  2 21  1  0  0  0  0
  3  4  1  0  0  0  0
  3 22  1  0  0  0  0
  3 23  1  0  0  0  0
  4  5  1  0  0  0  0
  4 24  1  0  0  0  0
  4 25  1  0  0  0  0
  5  6  1  0  0  0  0
  5 26  1  0  0  0  0
  5 27  1  0  0  0  0
  6  7  1  0  0  0  0
  6  8  1  0  0  0  0
  6 28  1  0  0  0  0
  7 29  1  0  0  0  0
  7 30  1  0  0  0  0
  7 31  1  0  0  0  0
  8  9  1  0  0  0  0
  8 32  1  0  0  0  0
  9 10  1  0  0  0  0
  9 33  1  0  0  0  0
 10 11  2  0  0  0  0
 10 12  1  0  0  0  0
 12 13  1  0  0  0  0
 13 17  1  0  0  0  0
 13 14  2  0  0  0  0
 14 15  1  0  0  0  0
 15 16  2  0  0  0  0
 16 17  1  0  0  0  0
 16 34  1  0  0  0  0
M  CHG  1  12  -1
M  END
> <s_m_source_file>
AV-unprocessed.smi

> <i_m_source_file_index>
788

> <i_lp_mmshare_version>
43012

> <i_f3d_flags>
0

> <s_epik_input>
W0NIM11bQ0BASF0xW0NIMl1bQ0gyXVtDSDJdW0NAQEhdKFtDSDNdKVtDQEhdMVtOSF1DKD1PKVtOSF1jMm5uW2NIXXMy

> <s_epik_cmdline>
J2VwaWtfcHl0aG9uJywgJy1waCcsICc3LjAnLCAnLXRuJywgJzgnLCAnLW1hJywgJzIwMCcsICctbWV0YWxfYmluZGluZycsICctaW1hZScsICc8aW5maWxlLm1hZT4nLCAnLW9tYWUnLCAnPG91dGZpbGUubWFlPic=

> <r_lp_tautomer_probability>
1

> <r_epik_Ionization_Penalty>
4.58638

> <r_epik_Ionization_Penalty_Charging>
4.53816

> <r_epik_Ionization_Penalty_Neutral>
0.048215

> <r_epik_State_Penalty>
4.53788

> <r_epik_Charging_Adjusted_Penalty>
9.07605

> <i_epik_Tot_Q>
-1

> <i_epik_Tot_abs_Q>
1

> <r_epik_Metal_State_Penalty>
0.838628

> <b_epik_Metal_Only>
1

> <s_lp_Force_Field>
OPLS_2005

> <r_lp_Energy>
12.9055

> <b_lp_Chiralities_Consistent>
1

> <s_lp_Variant>
AV-unprocessed.smi:788-8

> <Gold.Version>
5.8.1

> <Gold.Id.Protein>
6NUR|6NUR_protein|mol2

> <Gold.PLP.Fitness>
43.7283

> <Gold.PLP.PLP>
-34.8906

> <Gold.PLP.part.hbond>
-2.3000

> <Gold.PLP.part.metal>
0.0000

> <Gold.PLP.part.buried>
-2.3209

> <Gold.PLP.part.nonpolar>
-29.8201

> <Gold.PLP.part.repulsive>
0.2186

> <Gold.PLP.ligand.clash>
0.0000

> <Gold.PLP.ligand.torsion>
0.8491

> <Gold.PLP.Chemscore.Hbond>
2.8500

> <Gold.PLP.Chemscore.CHOScore>
0.6561

> <Gold.PLP.Chemscore.Metal>
0.0000

> <Gold.Chemscore.Hbonds>
donor molecule, donor type, donor heavy atom, donor atom, acceptor molecule, acceptor atom, score
      P1  H  7989  7998       L1    15  0.68
      P1  H  7997  8008       L1    12  2.00
      L1  C    16    34       P1  7948  0.08
      L1  C    16    34       P1  7949  0.50
      L1  C    16    34       P1  7957  0.09

> <Gold.PLP.Chemscore.Internal.Correction>
0.0176

> <Gold.Rescore>
     Score         DG    S(hbond)    S(metal)    S(lipo)     H(rot)  DE(clash)    DE(int)     intcor
     15.20     -17.35       0.55        0.00     107.72       1.00       0.28       1.87       ----

> <Gold.Chemscore.Fitness>
15.2013

> <Gold.Chemscore.DG>
-17.3546

> <Gold.Chemscore.ZeroCoef>
-5.4800

> <Gold.Chemscore.Hbond>
0.5483

> <Gold.Chemscore.Metal>
0.0000

> <Gold.Chemscore.Lipo>
107.7204

> <Gold.Chemscore.Internal_Hbond>
0.0000

> <Gold.Chemscore.DEClash>
0.2784

> <Gold.Chemscore.DEInternal>
1.8750

> <Gold.Chemscore.Rot>
1.0000

> <Gold.Chemscore.Internal.Correction>
   9.000000E+99

> <Gold.Chemscore.Hbonds>
donor molecule, donor type, donor heavy atom, donor atom, acceptor molecule, acceptor atom, score
      P1  H  7989  7998       L1    15  0.02
      P1  H  7997  8008       L1    12  0.33

> <Gold.Chemscore.Hbond.Weighted>
-1.8313

> <Gold.Chemscore.Metal.Weighted>
-0.0000

> <Gold.Chemscore.Lipo.Weighted>
-12.6033

> <Gold.Chemscore.Internal_Hbond.Weighted>
0.0000

> <Gold.Chemscore.DEClash.Weighted>
0.2784

> <Gold.Chemscore.DEInternal.Weighted>
1.8750

> <Gold.Chemscore.Rot.Weighted>
2.5600

> <Gold.Chemscore.Internal.Correction.Weighted>
   9.000000E+99

> <Gold.Protein.RotatedTorsions>
[ 6907 6896 6895 6894 ] final   67.55 input  -60.11 | X-H torsion
[ 7974 7965 7964 7962 ] final  -61.73 input  175.53 | X-H torsion
[ 8008 7997 7996 7995 ] final  -75.52 input   59.86 | X-H torsion
[ 10167 10162 10161 10158 ] final -115.97 input  -65.29 | X-H torsion
[ 10718 10713 10712 10709 ] final  126.20 input   66.30 | X-H torsion
[ 10763 10752 10751 10750 ] final  -34.19 input  -60.55 | X-H torsion
[ 11005 11000 10999 10996 ] final  -47.67 input  -57.11 | X-H torsion

> <Gold.Protein.ActiveResidues>
 VAL166  LYS551  ARG553  GLY616  TRP617  ASP618  TYR619  PRO620  LYS621  CYS622 
 ASP623  PHE694  ASN695  SER759  ASP760  ASP761  ALA762  ILE779  LEU786  VAL792 
 PHE793  MET794  SER795  GLU796  ALA797  LYS798  CYS799  TRP800  GLU811  SER814 

> <Gold.Protein.RotatedAtoms>
  152.4559  134.5292  159.9805 H   0  0  0  0  0  0  0  0  0  0  0  0  # atno 6907 bound_to 6896
  151.5352  133.3436  159.2933 H   0  0  0  0  0  0  0  0  0  0  0  0  # atno 6908 bound_to 6896
  150.8504  134.7857  159.7066 H   0  0  0  0  0  0  0  0  0  0  0  0  # atno 6909 bound_to 6896
  145.7999  140.8661  143.0236 H   0  0  0  0  0  0  0  0  0  0  0  0  # atno 7974 bound_to 7965
  154.5424  140.0742  156.8532 H   0  0  0  0  0  0  0  0  0  0  0  0  # atno 8008 bound_to 7997
  155.3155  140.3393  155.4224 H   0  0  0  0  0  0  0  0  0  0  0  0  # atno 8009 bound_to 7997
  156.1886  140.1678  156.8122 H   0  0  0  0  0  0  0  0  0  0  0  0  # atno 8010 bound_to 7997
  140.0843  143.4759  152.1908 H   0  0  0  0  0  0  0  0  0  0  0  0  # atno 10167 bound_to 10162
  157.5439  131.1096  150.8813 H   0  0  0  0  0  0  0  0  0  0  0  0  # atno 10718 bound_to 10713
  153.8426  135.6856  153.4801 H   0  0  0  0  0  0  0  0  0  0  0  0  # atno 10763 bound_to 10752
  153.1444  135.4644  154.9543 H   0  0  0  0  0  0  0  0  0  0  0  0  # atno 10764 bound_to 10752
  154.7838  135.3278  154.7878 H   0  0  0  0  0  0  0  0  0  0  0  0  # atno 10765 bound_to 10752
  141.0655  133.6695  156.3331 H   0  0  0  0  0  0  0  0  0  0  0  0  # atno 11005 bound_to 11000
  144.6770  140.0244  143.7483 LP  0  0  0  0  0  0  0  0  0  0  0  0  # atno 17320 bound_to 7965
  145.9888  139.2999  143.0997 LP  0  0  0  0  0  0  0  0  0  0  0  0  # atno 17321 bound_to 7965
  139.5761  144.7488  151.3760 LP  0  0  0  0  0  0  0  0  0  0  0  0  # atno 17342 bound_to 10162
  140.7062  143.7508  150.7486 LP  0  0  0  0  0  0  0  0  0  0  0  0  # atno 17343 bound_to 10162
  156.9358  130.5366  149.5279 LP  0  0  0  0  0  0  0  0  0  0  0  0  # atno 17370 bound_to 10713
  156.0520  130.5587  150.9009 LP  0  0  0  0  0  0  0  0  0  0  0  0  # atno 17371 bound_to 10713
  140.5782  134.5772  157.5473 LP  0  0  0  0  0  0  0  0  0  0  0  0  # atno 17394 bound_to 11000
  139.9472  134.7681  156.0533 LP  0  0  0  0  0  0  0  0  0  0  0  0  # atno 17395 bound_to 11000

$$$$
