AV-unprocessed.smi:1177|AV-procd|sdf|4954|dock5
  -GOLD-   22720 3543D 1   1.00000     0.00000
 Structure written by MMmdl.
 30 31  0  0  0  0  0  0  0  0  1 V2000
  149.1961  144.3654  161.2364 O   0  0  0  0  0  0  0  0  0  0  0  0
  148.9143  144.7431  160.0990 C   0  0  0  0  0  0  0  0  0  0  0  0
  149.8071  145.2385  159.2306 N   0  0  0  0  0  0  0  0  0  0  0  0
  151.2310  145.4056  159.4989 C   0  0  0  0  0  0  0  0  0  0  0  0
  152.0632  144.2704  158.8793 C   0  0  0  0  0  0  0  0  0  0  0  0
  152.6666  143.3603  159.9325 C   0  0  0  0  0  0  0  0  0  0  0  0
  153.4913  142.2767  159.5613 C   0  0  0  0  0  0  0  0  0  0  0  0
  154.0218  141.4585  160.5775 C   0  0  0  0  0  0  0  0  0  0  0  0
  153.7073  141.7523  161.9184 C   0  0  0  0  0  0  0  0  0  0  0  0
  152.8722  142.8559  162.1843 C   0  0  0  0  0  0  0  0  0  0  0  0
  152.3589  143.6469  161.2176 N   0  0  0  0  0  0  0  0  0  0  0  0
  147.6804  144.7121  159.5780 N   0  0  0  0  0  0  0  0  0  0  0  0
  146.5112  144.2442  160.2494 C   0  0  0  0  0  0  0  0  0  0  0  0
  145.2542  144.0613  159.4266 C   0  0  0  0  0  0  0  0  0  0  0  0
  145.3522  145.2067  160.3959 C   0  0  0  0  0  0  0  0  0  0  0  0
  149.4796  145.5188  158.3177 H   0  0  0  0  0  0  0  0  0  0  0  0
  151.5697  146.3756  159.1305 H   0  0  0  0  0  0  0  0  0  0  0  0
  151.3703  145.4182  160.5801 H   0  0  0  0  0  0  0  0  0  0  0  0
  151.4420  143.6772  158.2069 H   0  0  0  0  0  0  0  0  0  0  0  0
  152.8686  144.6812  158.2684 H   0  0  0  0  0  0  0  0  0  0  0  0
  153.7121  142.0747  158.5234 H   0  0  0  0  0  0  0  0  0  0  0  0
  154.6571  140.6199  160.3328 H   0  0  0  0  0  0  0  0  0  0  0  0
  154.0957  141.1466  162.7237 H   0  0  0  0  0  0  0  0  0  0  0  0
  152.6093  143.1097  163.2006 H   0  0  0  0  0  0  0  0  0  0  0  0
  147.5566  145.0475  158.6339 H   0  0  0  0  0  0  0  0  0  0  0  0
  146.6531  143.5400  161.0681 H   0  0  0  0  0  0  0  0  0  0  0  0
  145.2999  144.2979  158.3651 H   0  0  0  0  0  0  0  0  0  0  0  0
  144.5982  143.2343  159.6909 H   0  0  0  0  0  0  0  0  0  0  0  0
  144.7608  145.1451  161.3071 H   0  0  0  0  0  0  0  0  0  0  0  0
  145.4643  146.2066  159.9810 H   0  0  0  0  0  0  0  0  0  0  0  0
  1  2  2  0  0  0  0
  2  3  1  0  0  0  0
  2 12  1  0  0  0  0
  3  4  1  0  0  0  0
  3 16  1  0  0  0  0
  4  5  1  0  0  0  0
  4 17  1  0  0  0  0
  4 18  1  0  0  0  0
  5  6  1  0  0  0  0
  5 19  1  0  0  0  0
  5 20  1  0  0  0  0
  6 11  1  0  0  0  0
  6  7  2  0  0  0  0
  7  8  1  0  0  0  0
  7 21  1  0  0  0  0
  8  9  2  0  0  0  0
  8 22  1  0  0  0  0
  9 10  1  0  0  0  0
  9 23  1  0  0  0  0
 10 11  2  0  0  0  0
 10 24  1  0  0  0  0
 12 13  1  0  0  0  0
 12 25  1  0  0  0  0
 13 15  1  0  0  0  0
 13 14  1  0  0  0  0
 13 26  1  0  0  0  0
 14 15  1  0  0  0  0
 14 27  1  0  0  0  0
 14 28  1  0  0  0  0
 15 29  1  0  0  0  0
 15 30  1  0  0  0  0
M  END
> <s_m_source_file>
AV-unprocessed.smi

> <i_m_source_file_index>
1177

> <i_lp_mmshare_version>
43012

> <i_f3d_flags>
0

> <s_epik_input>
W0NIMl0xW0NIMl1bQ0hdMVtOSF1DKD1PKVtOSF1bQ0gyXVtDSDJdYzJbY0hdW2NIXVtjSF1bY0hdbjI=

> <s_epik_cmdline>
J2VwaWtfcHl0aG9uJywgJy1waCcsICc3LjAnLCAnLXRuJywgJzgnLCAnLW1hJywgJzIwMCcsICctbWV0YWxfYmluZGluZycsICctaW1hZScsICc8aW5maWxlLm1hZT4nLCAnLW9tYWUnLCAnPG91dGZpbGUubWFlPic=

> <r_epik_Ionization_Penalty>
0.0440342

> <r_epik_Ionization_Penalty_Charging>
0

> <r_epik_Ionization_Penalty_Neutral>
0.0440342

> <r_epik_State_Penalty>
0.0372351

> <r_epik_Charging_Adjusted_Penalty>
0.0372351

> <i_epik_Tot_Q>
0

> <i_epik_Tot_abs_Q>
0

> <r_epik_Metal_State_Penalty>
0.0346506

> <b_epik_Metal_Only>
0

> <s_lp_Force_Field>
OPLS_2005

> <r_lp_Energy>
12.265

> <b_lp_Chiralities_Consistent>
1

> <s_lp_Variant>
AV-unprocessed.smi:1177-1

> <Gold.Version>
5.8.1

> <Gold.Id.Protein>
6NUR|6NUR_protein|mol2

> <Gold.PLP.Fitness>
44.2031

> <Gold.PLP.PLP>
-37.8834

> <Gold.PLP.part.hbond>
-3.0000

> <Gold.PLP.part.metal>
0.0000

> <Gold.PLP.part.buried>
-6.2458

> <Gold.PLP.part.nonpolar>
-29.3377

> <Gold.PLP.part.repulsive>
0.6924

> <Gold.PLP.ligand.clash>
0.0000

> <Gold.PLP.ligand.torsion>
0.5467

> <Gold.PLP.Chemscore.Hbond>
2.4560

> <Gold.PLP.Chemscore.CHOScore>
0.0000

> <Gold.PLP.Chemscore.Metal>
0.0000

> <Gold.Chemscore.Hbonds>
donor molecule, donor type, donor heavy atom, donor atom, acceptor molecule, acceptor atom, score
      L1  H     3    16       P1  8029  0.90
      L1  H    12    25       P1  8029  1.00
      P1  H  6933  6944       L1     1  0.42

> <Gold.PLP.Chemscore.Internal.Correction>
0.0450

> <Gold.Rescore>
     Score         DG    S(hbond)    S(metal)    S(lipo)     H(rot)  DE(clash)    DE(int)     intcor
     20.01     -20.60       2.56        0.00      91.48       1.61       0.00       0.59       ----

> <Gold.Chemscore.Fitness>
20.0122

> <Gold.Chemscore.DG>
-20.5993

> <Gold.Chemscore.ZeroCoef>
-5.4800

> <Gold.Chemscore.Hbond>
2.5596

> <Gold.Chemscore.Metal>
0.0000

> <Gold.Chemscore.Lipo>
91.4837

> <Gold.Chemscore.Internal_Hbond>
0.0000

> <Gold.Chemscore.DEClash>
0.0000

> <Gold.Chemscore.DEInternal>
0.5871

> <Gold.Chemscore.Rot>
1.6147

> <Gold.Chemscore.Internal.Correction>
   9.000000E+99

> <Gold.Chemscore.Hbonds>
donor molecule, donor type, donor heavy atom, donor atom, acceptor molecule, acceptor atom, score
      L1  H     3    16       P1  8029  0.65
      L1  H    12    25       P1  8029  0.99
      P1  H  6933  6944       L1     1  0.30

> <Gold.Chemscore.Hbond.Weighted>
-8.5492

> <Gold.Chemscore.Metal.Weighted>
-0.0000

> <Gold.Chemscore.Lipo.Weighted>
-10.7036

> <Gold.Chemscore.Internal_Hbond.Weighted>
0.0000

> <Gold.Chemscore.DEClash.Weighted>
0.0000

> <Gold.Chemscore.DEInternal.Weighted>
0.5871

> <Gold.Chemscore.Rot.Weighted>
4.1336

> <Gold.Chemscore.Internal.Correction.Weighted>
   9.000000E+99

> <Gold.Protein.RotatedTorsions>
[ 6907 6896 6895 6894 ] final -126.37 input  -60.11 | X-H torsion
[ 7974 7965 7964 7962 ] final -142.01 input  175.53 | X-H torsion
[ 8008 7997 7996 7995 ] final -118.77 input   59.86 | X-H torsion
[ 10167 10162 10161 10158 ] final  -23.11 input  -65.29 | X-H torsion
[ 10718 10713 10712 10709 ] final   46.23 input   66.30 | X-H torsion
[ 10763 10752 10751 10750 ] final    2.48 input  -60.55 | X-H torsion
[ 11005 11000 10999 10996 ] final  -63.67 input  -57.11 | X-H torsion

> <Gold.Protein.ActiveResidues>
 VAL166  LYS551  ARG553  GLY616  TRP617  ASP618  TYR619  PRO620  LYS621  CYS622 
 ASP623  PHE694  ASN695  SER759  ASP760  ASP761  ALA762  ILE779  LEU786  VAL792 
 PHE793  MET794  SER795  GLU796  ALA797  LYS798  CYS799  TRP800  GLU811  SER814 

> <Gold.Protein.RotatedAtoms>
  150.8962  133.7178  159.2890 H   0  0  0  0  0  0  0  0  0  0  0  0  # atno 6907 bound_to 6896
  151.4712  135.1044  159.9761 H   0  0  0  0  0  0  0  0  0  0  0  0  # atno 6908 bound_to 6896
  152.4850  133.8302  159.7154 H   0  0  0  0  0  0  0  0  0  0  0  0  # atno 6909 bound_to 6896
  144.8475  140.6010  143.5412 H   0  0  0  0  0  0  0  0  0  0  0  0  # atno 7974 bound_to 7965
  155.1050  140.0396  157.2708 H   0  0  0  0  0  0  0  0  0  0  0  0  # atno 8008 bound_to 7997
  154.6728  140.2616  155.6963 H   0  0  0  0  0  0  0  0  0  0  0  0  # atno 8009 bound_to 7997
  156.2665  140.2794  156.1244 H   0  0  0  0  0  0  0  0  0  0  0  0  # atno 8010 bound_to 7997
  140.7287  143.4473  151.0569 H   0  0  0  0  0  0  0  0  0  0  0  0  # atno 10167 bound_to 10162
  157.4459  130.8109  149.7740 H   0  0  0  0  0  0  0  0  0  0  0  0  # atno 10718 bound_to 10713
  153.2951  135.6951  153.7256 H   0  0  0  0  0  0  0  0  0  0  0  0  # atno 10763 bound_to 10752
  153.6192  135.3430  155.3006 H   0  0  0  0  0  0  0  0  0  0  0  0  # atno 10764 bound_to 10752
  154.8535  135.4382  154.2045 H   0  0  0  0  0  0  0  0  0  0  0  0  # atno 10765 bound_to 10752
  141.1401  133.6655  156.5716 H   0  0  0  0  0  0  0  0  0  0  0  0  # atno 11005 bound_to 11000
  145.4567  139.1517  143.3889 LP  0  0  0  0  0  0  0  0  0  0  0  0  # atno 17320 bound_to 7965
  146.2757  140.4695  142.8796 LP  0  0  0  0  0  0  0  0  0  0  0  0  # atno 17321 bound_to 7965
  139.8145  143.7904  152.3173 LP  0  0  0  0  0  0  0  0  0  0  0  0  # atno 17342 bound_to 10162
  139.7966  144.7390  150.9882 LP  0  0  0  0  0  0  0  0  0  0  0  0  # atno 17343 bound_to 10162
  155.9967  130.3904  150.2768 LP  0  0  0  0  0  0  0  0  0  0  0  0  # atno 17370 bound_to 10713
  157.0936  131.0176  151.3112 LP  0  0  0  0  0  0  0  0  0  0  0  0  # atno 17371 bound_to 10713
  140.3908  134.7442  157.4720 LP  0  0  0  0  0  0  0  0  0  0  0  0  # atno 17394 bound_to 11000
  140.0567  134.6053  155.8796 LP  0  0  0  0  0  0  0  0  0  0  0  0  # atno 17395 bound_to 11000

$$$$
