AV-unprocessed.smi:515|AV-procd|sdf|2780|dock4
  -GOLD-   2262023253D 1   1.00000     0.00000
 Structure written by MMmdl.
 47 49  0  0  0  0  0  0  0  0  1 V2000
  142.9259  144.8150  154.7899 C   0  0  0  0  0  0  0  0  0  0  0  0
  144.4030  144.9734  154.4287 C   0  0  0  0  0  0  0  0  0  0  0  0
  144.9862  143.6909  154.2673 O   0  0  0  0  0  0  0  0  0  0  0  0
  145.8667  143.3662  155.3303 C   0  0  0  0  0  0  0  0  0  0  0  0
  146.5003  141.9847  155.1045 C   0  0  0  0  0  0  0  0  0  0  0  0
  147.4184  141.5987  156.1730 N   0  0  0  0  0  0  0  0  0  0  0  0
  147.2033  141.6138  157.5163 C   0  0  0  0  0  0  0  0  0  0  0  0
  145.9219  142.0744  158.1484 C   0  0  0  0  0  0  0  0  0  0  0  0
  146.0889  142.6950  159.4617 N   0  0  0  0  0  0  0  0  0  0  0  0
  146.8089  143.9656  159.3803 C   0  0  0  0  0  0  0  0  0  0  0  0
  146.9210  144.6665  160.7459 C   0  0  0  0  0  0  0  0  0  0  0  0
  145.6273  144.8305  161.3164 O   0  0  0  0  0  0  0  0  0  0  0  0
  144.9363  143.5957  161.4694 C   0  0  0  0  0  0  0  0  0  0  0  0
  144.7952  142.9188  160.0963 C   0  0  0  0  0  0  0  0  0  0  0  0
  148.2483  141.2026  158.2426 N   0  0  0  0  0  0  0  0  0  0  0  0
  149.2070  140.9076  157.2859 C   0  0  0  0  0  0  0  0  0  0  0  0
  148.7341  141.1552  156.0391 C   0  0  0  0  0  0  0  0  0  0  0  0
  149.5518  140.9667  154.8337 C   0  0  0  0  0  0  0  0  0  0  0  0
  149.1506  141.2075  153.6973 O   0  0  0  0  0  0  0  0  0  0  0  0
  150.7994  140.5118  155.1043 N   0  0  0  0  0  0  0  0  0  0  0  0
  151.3365  140.2380  156.3326 C   0  0  0  0  0  0  0  0  0  0  0  0
  152.4975  139.8386  156.4204 O   0  0  0  0  0  0  0  0  0  0  0  0
  150.5406  140.4298  157.4333 N   0  0  0  0  0  0  0  0  0  0  0  0
  151.0631  140.1611  158.7741 C   0  0  0  0  0  0  0  0  0  0  0  0
  151.4043  140.3653  154.3095 H   0  0  0  0  0  0  0  0  0  0  0  0
  142.4520  145.7868  154.9282 H   0  0  0  0  0  0  0  0  0  0  0  0
  142.8092  144.2515  155.7156 H   0  0  0  0  0  0  0  0  0  0  0  0
  142.3869  144.2903  154.0010 H   0  0  0  0  0  0  0  0  0  0  0  0
  144.4970  145.5492  153.5066 H   0  0  0  0  0  0  0  0  0  0  0  0
  144.9193  145.5244  155.2162 H   0  0  0  0  0  0  0  0  0  0  0  0
  146.6387  144.1314  155.4096 H   0  0  0  0  0  0  0  0  0  0  0  0
  145.3216  143.3627  156.2751 H   0  0  0  0  0  0  0  0  0  0  0  0
  145.7239  141.2239  155.0228 H   0  0  0  0  0  0  0  0  0  0  0  0
  147.0178  141.9801  154.1476 H   0  0  0  0  0  0  0  0  0  0  0  0
  145.4354  142.7762  157.4691 H   0  0  0  0  0  0  0  0  0  0  0  0
  145.2416  141.2265  158.2163 H   0  0  0  0  0  0  0  0  0  0  0  0
  147.8115  143.8051  158.9841 H   0  0  0  0  0  0  0  0  0  0  0  0
  146.3006  144.6322  158.6820 H   0  0  0  0  0  0  0  0  0  0  0  0
  147.5517  144.0947  161.4247 H   0  0  0  0  0  0  0  0  0  0  0  0
  147.3856  145.6457  160.6307 H   0  0  0  0  0  0  0  0  0  0  0  0
  145.4732  142.9508  162.1668 H   0  0  0  0  0  0  0  0  0  0  0  0
  143.9540  143.7880  161.9008 H   0  0  0  0  0  0  0  0  0  0  0  0
  144.1693  143.5397  159.4531 H   0  0  0  0  0  0  0  0  0  0  0  0
  144.2737  141.9685  160.2159 H   0  0  0  0  0  0  0  0  0  0  0  0
  151.5500  139.1856  158.8181 H   0  0  0  0  0  0  0  0  0  0  0  0
  150.2802  140.1601  159.5326 H   0  0  0  0  0  0  0  0  0  0  0  0
  151.7952  140.9204  159.0520 H   0  0  0  0  0  0  0  0  0  0  0  0
  1  2  1  0  0  0  0
  1 26  1  0  0  0  0
  1 27  1  0  0  0  0
  1 28  1  0  0  0  0
  2  3  1  0  0  0  0
  2 29  1  0  0  0  0
  2 30  1  0  0  0  0
  3  4  1  0  0  0  0
  4  5  1  0  0  0  0
  4 31  1  0  0  0  0
  4 32  1  0  0  0  0
  5  6  1  0  0  0  0
  5 33  1  0  0  0  0
  5 34  1  0  0  0  0
  6 17  1  0  0  0  0
  6  7  1  0  0  0  0
  7  8  1  0  0  0  0
  7 15  2  0  0  0  0
  8  9  1  0  0  0  0
  8 35  1  0  0  0  0
  8 36  1  0  0  0  0
  9 14  1  0  0  0  0
  9 10  1  0  0  0  0
 10 11  1  0  0  0  0
 10 37  1  0  0  0  0
 10 38  1  0  0  0  0
 11 12  1  0  0  0  0
 11 39  1  0  0  0  0
 11 40  1  0  0  0  0
 12 13  1  0  0  0  0
 13 14  1  0  0  0  0
 13 41  1  0  0  0  0
 13 42  1  0  0  0  0
 14 43  1  0  0  0  0
 14 44  1  0  0  0  0
 15 16  1  0  0  0  0
 16 23  1  0  0  0  0
 16 17  2  0  0  0  0
 17 18  1  0  0  0  0
 18 19  2  0  0  0  0
 18 20  1  0  0  0  0
 20 25  1  0  0  0  0
 20 21  1  0  0  0  0
 21 22  2  0  0  0  0
 21 23  1  0  0  0  0
 23 24  1  0  0  0  0
 24 45  1  0  0  0  0
 24 46  1  0  0  0  0
 24 47  1  0  0  0  0
M  END
> <s_m_source_file>
AV-unprocessed.smi

> <i_m_source_file_index>
515

> <i_lp_mmshare_version>
43012

> <i_f3d_flags>
0

> <s_epik_input>
W0NIM11uMWMoPU8pW25IXWMoPU8pYyhjMTIpbihbQ0gyXVtDSDJdT1tDSDJdW0NIM10pYyhuMilbQ0gyXU4zW0NIMl1bQ0gyXU9bQ0gyXVtDSDJdMw==

> <s_epik_cmdline>
J2VwaWtfcHl0aG9uJywgJy1waCcsICc3LjAnLCAnLXRuJywgJzgnLCAnLW1hJywgJzIwMCcsICctbWV0YWxfYmluZGluZycsICctaW1hZScsICc8aW5maWxlLm1hZT4nLCAnLW9tYWUnLCAnPG91dGZpbGUubWFlPic=

> <r_epik_Ionization_Penalty>
0.0971954

> <r_epik_Ionization_Penalty_Charging>
0.000195337

> <r_epik_Ionization_Penalty_Neutral>
0.0970001

> <r_epik_State_Penalty>
0.0871068

> <r_epik_Charging_Adjusted_Penalty>
0.0873021

> <i_epik_Tot_Q>
0

> <i_epik_Tot_abs_Q>
0

> <r_epik_Metal_State_Penalty>
0.234549

> <b_epik_Metal_Only>
0

> <s_lp_Force_Field>
OPLS_2005

> <r_lp_Energy>
38.6843

> <b_lp_Chiralities_Consistent>
1

> <s_lp_Variant>
AV-unprocessed.smi:515-1

> <Gold.Version>
5.8.1

> <Gold.Id.Protein>
6NUR|6NUR_protein|mol2

> <Gold.PLP.Fitness>
37.9616

> <Gold.PLP.PLP>
-30.8310

> <Gold.PLP.part.hbond>
-4.9036

> <Gold.PLP.part.metal>
0.0000

> <Gold.PLP.part.buried>
-9.1425

> <Gold.PLP.part.nonpolar>
-21.6908

> <Gold.PLP.part.repulsive>
4.9781

> <Gold.PLP.ligand.clash>
0.0000

> <Gold.PLP.ligand.torsion>
0.8228

> <Gold.PLP.Chemscore.Hbond>
2.9120

> <Gold.PLP.Chemscore.CHOScore>
0.0000

> <Gold.PLP.Chemscore.Metal>
0.0000

> <Gold.Chemscore.Hbonds>
donor molecule, donor type, donor heavy atom, donor atom, acceptor molecule, acceptor atom, score
      P1  H  6934  6946       L1     9  0.16
      P1  H  7997  8008       L1    22  1.00
      P1  H  8011  8017       L1    19  0.91

> <Gold.PLP.Chemscore.Internal.Correction>
0.0402

> <Gold.Rescore>
     Score         DG    S(hbond)    S(metal)    S(lipo)     H(rot)  DE(clash)    DE(int)     intcor
      9.00     -12.19       2.09        0.00      44.59       2.15       2.30       0.89       ----

> <Gold.Chemscore.Fitness>
8.9968

> <Gold.Chemscore.DG>
-12.1882

> <Gold.Chemscore.ZeroCoef>
-5.4800

> <Gold.Chemscore.Hbond>
2.0912

> <Gold.Chemscore.Metal>
0.0000

> <Gold.Chemscore.Lipo>
44.5892

> <Gold.Chemscore.Internal_Hbond>
0.0000

> <Gold.Chemscore.DEClash>
2.3020

> <Gold.Chemscore.DEInternal>
0.8895

> <Gold.Chemscore.Rot>
2.1458

> <Gold.Chemscore.Internal.Correction>
   9.000000E+99

> <Gold.Chemscore.Hbonds>
donor molecule, donor type, donor heavy atom, donor atom, acceptor molecule, acceptor atom, score
      P1  H  6934  6946       L1     9  0.02
      P1  H  7997  8008       L1    22  0.97
      P1  H  8011  8017       L1    19  0.89

> <Gold.Chemscore.Hbond.Weighted>
-6.9845

> <Gold.Chemscore.Metal.Weighted>
-0.0000

> <Gold.Chemscore.Lipo.Weighted>
-5.2169

> <Gold.Chemscore.Internal_Hbond.Weighted>
0.0000

> <Gold.Chemscore.DEClash.Weighted>
2.3020

> <Gold.Chemscore.DEInternal.Weighted>
0.8895

> <Gold.Chemscore.Rot.Weighted>
5.4932

> <Gold.Chemscore.Internal.Correction.Weighted>
   9.000000E+99

> <Gold.Protein.RotatedTorsions>
[ 6907 6896 6895 6894 ] final   25.60 input  -60.11 | X-H torsion
[ 7974 7965 7964 7962 ] final  153.64 input  175.53 | X-H torsion
[ 8008 7997 7996 7995 ] final  -61.33 input   59.86 | X-H torsion
[ 10167 10162 10161 10158 ] final   62.58 input  -65.29 | X-H torsion
[ 10718 10713 10712 10709 ] final  118.64 input   66.30 | X-H torsion
[ 10763 10752 10751 10750 ] final   -6.17 input  -60.55 | X-H torsion
[ 11005 11000 10999 10996 ] final  143.64 input  -57.11 | X-H torsion

> <Gold.Protein.ActiveResidues>
 VAL166  LYS551  ARG553  GLY616  TRP617  ASP618  TYR619  PRO620  LYS621  CYS622 
 ASP623  PHE694  ASN695  SER759  ASP760  ASP761  ALA762  ILE779  LEU786  VAL792 
 PHE793  MET794  SER795  GLU796  ALA797  LYS798  CYS799  TRP800  GLU811  SER814 

> <Gold.Protein.RotatedAtoms>
  151.9749  135.0058  160.0554 H   0  0  0  0  0  0  0  0  0  0  0  0  # atno 6907 bound_to 6896
  152.1749  133.4663  159.4936 H   0  0  0  0  0  0  0  0  0  0  0  0  # atno 6908 bound_to 6896
  150.6907  134.1824  159.4296 H   0  0  0  0  0  0  0  0  0  0  0  0  # atno 6909 bound_to 6896
  144.8141  139.6828  143.6129 H   0  0  0  0  0  0  0  0  0  0  0  0  # atno 7974 bound_to 7965
  154.4442  140.1020  156.6414 H   0  0  0  0  0  0  0  0  0  0  0  0  # atno 8008 bound_to 7997
  155.5497  140.3485  155.4447 H   0  0  0  0  0  0  0  0  0  0  0  0  # atno 8009 bound_to 7997
  156.0537  140.1310  157.0010 H   0  0  0  0  0  0  0  0  0  0  0  0  # atno 8010 bound_to 7997
  140.1424  144.4541  150.6804 H   0  0  0  0  0  0  0  0  0  0  0  0  # atno 10167 bound_to 10162
  157.6016  131.1050  150.7784 H   0  0  0  0  0  0  0  0  0  0  0  0  # atno 10718 bound_to 10713
  153.4086  135.7007  153.6375 H   0  0  0  0  0  0  0  0  0  0  0  0  # atno 10763 bound_to 10752
  153.4878  135.3679  155.2476 H   0  0  0  0  0  0  0  0  0  0  0  0  # atno 10764 bound_to 10752
  154.8715  135.4081  154.3434 H   0  0  0  0  0  0  0  0  0  0  0  0  # atno 10765 bound_to 10752
  140.0569  134.9225  157.1116 H   0  0  0  0  0  0  0  0  0  0  0  0  # atno 11005 bound_to 11000
  146.2442  139.6064  142.9471 LP  0  0  0  0  0  0  0  0  0  0  0  0  # atno 17320 bound_to 7965
  145.5256  141.0430  143.2411 LP  0  0  0  0  0  0  0  0  0  0  0  0  # atno 17321 bound_to 7965
  140.6752  143.2302  151.5524 LP  0  0  0  0  0  0  0  0  0  0  0  0  # atno 17342 bound_to 10162
  139.5465  144.2506  152.1452 LP  0  0  0  0  0  0  0  0  0  0  0  0  # atno 17343 bound_to 10162
  156.8182  130.4975  149.5346 LP  0  0  0  0  0  0  0  0  0  0  0  0  # atno 17370 bound_to 10713
  156.1091  130.6027  151.0019 LP  0  0  0  0  0  0  0  0  0  0  0  0  # atno 17371 bound_to 10713
  140.3830  134.2267  155.7170 LP  0  0  0  0  0  0  0  0  0  0  0  0  # atno 17394 bound_to 11000
  141.1956  133.8102  157.0708 LP  0  0  0  0  0  0  0  0  0  0  0  0  # atno 17395 bound_to 11000

$$$$
