AV-unprocessed.smi:689|AV-procd|sdf|3358|dock9
  -GOLD-   22720 0333D 1   1.00000     0.00000
 Structure written by MMmdl.
 33 34  0  0  0  0  0  0  0  0  2 V2000
  151.6131  137.8673  154.1316 C   0  0  0  0  0  0  0  0  0  0  0  0
  151.4109  138.9968  155.1006 C   0  0  0  0  0  0  0  0  0  0  0  0
  150.8186  140.1070  154.6929 N   0  0  0  0  0  0  0  0  0  0  0  0
  150.7693  140.9472  155.8094 O   0  0  0  0  0  0  0  0  0  0  0  0
  151.3395  140.3015  156.8583 C   0  0  0  0  0  0  0  0  0  0  0  0
  151.3777  141.0366  158.1548 C   0  0  0  0  0  0  0  0  0  0  0  0
  151.7732  139.0616  156.4771 C   0  0  0  0  0  0  0  0  0  0  0  0
  152.4615  138.0092  157.3098 C   0  0  0  0  0  0  0  0  0  0  0  0
  151.7678  136.6574  157.1153 C   0  0  0  0  0  0  0  0  0  0  0  0
  152.4487  135.6663  156.8512 O   0  0  0  0  0  0  0  0  0  0  0  0
  150.4296  136.7479  157.2859 N   0  5  0  0  0  0  0  0  0  0  0  0
  149.4646  135.4648  157.1013 S   0  0  0  0  0  0  0  0  0  0  0  0
  150.0366  134.2400  157.6824 O   0  0  0  0  0  0  0  0  0  0  0  0
  148.0588  135.7671  157.4119 O   0  0  0  0  0  0  0  0  0  0  0  0
  149.5454  135.2416  155.2730 C   0  0  0  0  0  0  0  0  0  0  0  0
  148.8187  133.9875  154.8280 C   0  0  0  0  0  0  0  0  0  0  0  0
  149.5438  132.6663  154.7114 C   0  0  0  0  0  0  0  0  0  0  0  0
  149.0842  133.3838  153.4671 C   0  0  0  0  0  0  0  0  0  0  0  0
  152.5879  137.4001  154.2713 H   0  0  0  0  0  0  0  0  0  0  0  0
  151.5571  138.2082  153.0974 H   0  0  0  0  0  0  0  0  0  0  0  0
  150.8539  137.0971  154.2695 H   0  0  0  0  0  0  0  0  0  0  0  0
  151.3758  140.3429  158.9956 H   0  0  0  0  0  0  0  0  0  0  0  0
  150.5114  141.6903  158.2578 H   0  0  0  0  0  0  0  0  0  0  0  0
  152.2762  141.6495  158.2237 H   0  0  0  0  0  0  0  0  0  0  0  0
  153.5216  137.9321  157.0622 H   0  0  0  0  0  0  0  0  0  0  0  0
  152.4284  138.2654  158.3692 H   0  0  0  0  0  0  0  0  0  0  0  0
  149.1071  136.1222  154.8029 H   0  0  0  0  0  0  0  0  0  0  0  0
  150.5918  135.1820  154.9746 H   0  0  0  0  0  0  0  0  0  0  0  0
  147.7842  133.9429  155.1634 H   0  0  0  0  0  0  0  0  0  0  0  0
  150.6127  132.6523  154.9156 H   0  0  0  0  0  0  0  0  0  0  0  0
  149.0017  131.7694  155.0041 H   0  0  0  0  0  0  0  0  0  0  0  0
  148.2344  132.9689  152.9290 H   0  0  0  0  0  0  0  0  0  0  0  0
  149.8485  133.8460  152.8455 H   0  0  0  0  0  0  0  0  0  0  0  0
  1  2  1  0  0  0  0
  1 19  1  0  0  0  0
  1 20  1  0  0  0  0
  1 21  1  0  0  0  0
  2  7  1  0  0  0  0
  2  3  2  0  0  0  0
  3  4  1  0  0  0  0
  4  5  1  0  0  0  0
  5  6  1  0  0  0  0
  5  7  2  0  0  0  0
  6 22  1  0  0  0  0
  6 23  1  0  0  0  0
  6 24  1  0  0  0  0
  7  8  1  0  0  0  0
  8  9  1  0  0  0  0
  8 25  1  0  0  0  0
  8 26  1  0  0  0  0
  9 10  2  0  0  0  0
  9 11  1  0  0  0  0
 11 12  1  0  0  0  0
 12 13  2  0  0  0  0
 12 14  2  0  0  0  0
 12 15  1  0  0  0  0
 15 16  1  0  0  0  0
 15 27  1  0  0  0  0
 15 28  1  0  0  0  0
 16 18  1  0  0  0  0
 16 17  1  0  0  0  0
 16 29  1  0  0  0  0
 17 18  1  0  0  0  0
 17 30  1  0  0  0  0
 17 31  1  0  0  0  0
 18 32  1  0  0  0  0
 18 33  1  0  0  0  0
M  CHG  1  11  -1
M  END
> <s_m_source_file>
AV-unprocessed.smi

> <i_m_source_file_index>
689

> <i_lp_mmshare_version>
43012

> <i_f3d_flags>
0

> <s_epik_input>
W0NIM11jMW5vYyhbQ0gzXSljMVtDSDJdQyg9TylbTkhdUyg9TykoPU8pW0NIMl1bQ0hdMltDSDJdW0NIMl0y

> <s_epik_cmdline>
J2VwaWtfcHl0aG9uJywgJy1waCcsICc3LjAnLCAnLXRuJywgJzgnLCAnLW1hJywgJzIwMCcsICctbWV0YWxfYmluZGluZycsICctaW1hZScsICc8aW5maWxlLm1hZT4nLCAnLW9tYWUnLCAnPG91dGZpbGUubWFlPic=

> <r_epik_Ionization_Penalty>
0.0117783

> <r_epik_Ionization_Penalty_Charging>
0.0117783

> <r_epik_Ionization_Penalty_Neutral>
2.69026e-10

> <r_epik_State_Penalty>
0.00908283

> <r_epik_Charging_Adjusted_Penalty>
0.0208612

> <i_epik_Tot_Q>
-1

> <i_epik_Tot_abs_Q>
1

> <r_epik_Metal_State_Penalty>
0.00890557

> <b_epik_Metal_Only>
0

> <s_lp_Force_Field>
OPLS_2005

> <r_lp_Energy>
1.25467

> <b_lp_Chiralities_Consistent>
1

> <s_lp_Variant>
AV-unprocessed.smi:689-1

> <Gold.Version>
5.8.1

> <Gold.Id.Protein>
6NUR|6NUR_protein|mol2

> <Gold.PLP.Fitness>
35.4263

> <Gold.PLP.PLP>
-27.1492

> <Gold.PLP.part.hbond>
-3.6974

> <Gold.PLP.part.metal>
0.0000

> <Gold.PLP.part.buried>
-4.5615

> <Gold.PLP.part.nonpolar>
-20.0255

> <Gold.PLP.part.repulsive>
0.1331

> <Gold.PLP.ligand.clash>
0.0000

> <Gold.PLP.ligand.torsion>
1.0356

> <Gold.PLP.Chemscore.Hbond>
2.9280

> <Gold.PLP.Chemscore.CHOScore>
0.0000

> <Gold.PLP.Chemscore.Metal>
0.0000

> <Gold.Chemscore.Hbonds>
donor molecule, donor type, donor heavy atom, donor atom, acceptor molecule, acceptor atom, score
      P1  H  6896  6907       L1    13  0.94
      P1  H  7989  7998       L1     3  1.00
      P1  H 10752 10765       L1    10  1.00

> <Gold.PLP.Chemscore.Internal.Correction>
1.5643

> <Gold.Rescore>
     Score         DG    S(hbond)    S(metal)    S(lipo)     H(rot)  DE(clash)    DE(int)     intcor
     16.34     -18.06       2.93        0.00      59.10       1.61       0.04       1.68       ----

> <Gold.Chemscore.Fitness>
16.3385

> <Gold.Chemscore.DG>
-18.0573

> <Gold.Chemscore.ZeroCoef>
-5.4800

> <Gold.Chemscore.Hbond>
2.9263

> <Gold.Chemscore.Metal>
0.0000

> <Gold.Chemscore.Lipo>
59.0978

> <Gold.Chemscore.Internal_Hbond>
0.0000

> <Gold.Chemscore.DEClash>
0.0402

> <Gold.Chemscore.DEInternal>
1.6786

> <Gold.Chemscore.Rot>
1.6058

> <Gold.Chemscore.Internal.Correction>
   9.000000E+99

> <Gold.Chemscore.Hbonds>
donor molecule, donor type, donor heavy atom, donor atom, acceptor molecule, acceptor atom, score
      P1  H  6896  6907       L1    13  0.91
      P1  H  7989  7998       L1     3  0.59
      P1  H 10752 10765       L1    10  0.99

> <Gold.Chemscore.Hbond.Weighted>
-9.7737

> <Gold.Chemscore.Metal.Weighted>
-0.0000

> <Gold.Chemscore.Lipo.Weighted>
-6.9144

> <Gold.Chemscore.Internal_Hbond.Weighted>
0.0000

> <Gold.Chemscore.DEClash.Weighted>
0.0402

> <Gold.Chemscore.DEInternal.Weighted>
1.6786

> <Gold.Chemscore.Rot.Weighted>
4.1108

> <Gold.Chemscore.Internal.Correction.Weighted>
   9.000000E+99

> <Gold.Protein.RotatedTorsions>
[ 6907 6896 6895 6894 ] final -106.51 input  -60.11 | X-H torsion
[ 7974 7965 7964 7962 ] final  -37.36 input  175.53 | X-H torsion
[ 8008 7997 7996 7995 ] final  -91.11 input   59.86 | X-H torsion
[ 10167 10162 10161 10158 ] final    0.42 input  -65.29 | X-H torsion
[ 10718 10713 10712 10709 ] final -108.86 input   66.30 | X-H torsion
[ 10763 10752 10751 10750 ] final -137.76 input  -60.55 | X-H torsion
[ 11005 11000 10999 10996 ] final   81.80 input  -57.11 | X-H torsion

> <Gold.Protein.ActiveResidues>
 VAL166  LYS551  ARG553  GLY616  TRP617  ASP618  TYR619  PRO620  LYS621  CYS622 
 ASP623  PHE694  ASN695  SER759  ASP760  ASP761  ALA762  ILE779  LEU786  VAL792 
 PHE793  MET794  SER795  GLU796  ALA797  LYS798  CYS799  TRP800  GLU811  SER814 

> <Gold.Protein.RotatedAtoms>
  150.7393  133.9966  159.3624 H   0  0  0  0  0  0  0  0  0  0  0  0  # atno 6907 bound_to 6896
  151.7917  135.0732  160.0397 H   0  0  0  0  0  0  0  0  0  0  0  0  # atno 6908 bound_to 6896
  152.3203  133.5810  159.5776 H   0  0  0  0  0  0  0  0  0  0  0  0  # atno 6909 bound_to 6896
  146.0582  140.6386  142.9010 H   0  0  0  0  0  0  0  0  0  0  0  0  # atno 7974 bound_to 7965
  154.7067  140.0523  157.0511 H   0  0  0  0  0  0  0  0  0  0  0  0  # atno 8008 bound_to 7997
  155.0610  140.3189  155.4642 H   0  0  0  0  0  0  0  0  0  0  0  0  # atno 8009 bound_to 7997
  156.2777  140.2099  156.5737 H   0  0  0  0  0  0  0  0  0  0  0  0  # atno 8010 bound_to 7997
  140.6729  143.6997  150.7962 H   0  0  0  0  0  0  0  0  0  0  0  0  # atno 10167 bound_to 10162
  156.0507  130.5734  150.8020 H   0  0  0  0  0  0  0  0  0  0  0  0  # atno 10718 bound_to 10713
  154.8654  135.3632  154.5275 H   0  0  0  0  0  0  0  0  0  0  0  0  # atno 10763 bound_to 10752
  153.5902  135.7016  153.5431 H   0  0  0  0  0  0  0  0  0  0  0  0  # atno 10764 bound_to 10752
  153.3380  135.4106  155.1511 H   0  0  0  0  0  0  0  0  0  0  0  0  # atno 10765 bound_to 10752
  139.9085  134.8024  156.2089 H   0  0  0  0  0  0  0  0  0  0  0  0  # atno 11005 bound_to 11000
  144.7160  140.4209  143.7044 LP  0  0  0  0  0  0  0  0  0  0  0  0  # atno 17320 bound_to 7965
  145.6607  139.1581  143.2810 LP  0  0  0  0  0  0  0  0  0  0  0  0  # atno 17321 bound_to 7965
  140.0685  143.5084  152.2592 LP  0  0  0  0  0  0  0  0  0  0  0  0  # atno 17342 bound_to 10162
  139.6007  144.7581  151.3179 LP  0  0  0  0  0  0  0  0  0  0  0  0  # atno 17343 bound_to 10162
  157.5430  131.0941  150.9801 LP  0  0  0  0  0  0  0  0  0  0  0  0  # atno 17370 bound_to 10713
  157.0079  130.5625  149.5318 LP  0  0  0  0  0  0  0  0  0  0  0  0  # atno 17371 bound_to 10713
  141.0478  133.6904  156.1715 LP  0  0  0  0  0  0  0  0  0  0  0  0  # atno 17394 bound_to 11000
  140.6858  134.4719  157.5589 LP  0  0  0  0  0  0  0  0  0  0  0  0  # atno 17395 bound_to 11000

$$$$
