AV-unprocessed.smi:1762|AV-procd|sdf|7106|dock2
  -GOLD-   22720 8323D 1   1.00000     0.00000
 Structure written by MMmdl.
 53 54  0  0  0  0  0  0  0  0  2 V2000
  143.2329  134.8730  152.3031 C   0  0  0  0  0  0  0  0  0  0  0  0
  144.6850  134.4690  152.0238 C   0  0  1  0  0  0  0  0  0  0  0  0
  145.5397  134.4310  153.3057 C   0  0  0  0  0  0  0  0  0  0  0  0
  146.9141  133.9592  153.0623 N   0  0  0  0  0  0  0  0  0  0  0  0
  147.7726  133.9164  154.2794 C   0  0  2  0  0  0  0  0  0  0  0  0
  147.7742  135.2431  155.0761 C   0  0  0  0  0  0  0  0  0  0  0  0
  147.3988  135.2680  156.2488 O   0  0  0  0  0  0  0  0  0  0  0  0
  148.2113  136.3344  154.4276 N   0  0  0  0  0  0  0  0  0  0  0  0
  148.2820  137.6738  154.9985 C   0  0  0  0  0  0  0  0  0  0  0  0
  149.0970  138.6257  154.1067 C   0  0  0  0  0  0  0  0  0  0  0  0
  150.5672  138.6418  154.4778 C   0  0  0  0  0  0  0  0  0  0  0  0
  151.0912  139.5443  155.4289 C   0  0  0  0  0  0  0  0  0  0  0  0
  152.4677  139.5014  155.7343 C   0  0  0  0  0  0  0  0  0  0  0  0
  153.2897  138.5574  155.0845 C   0  0  0  0  0  0  0  0  0  0  0  0
  152.7137  137.6791  154.1440 C   0  0  0  0  0  0  0  0  0  0  0  0
  151.3907  137.7517  153.8780 N   0  3  0  0  0  0  0  0  0  0  0  0
  149.2373  133.4170  154.0388 C   0  0  0  0  0  0  0  0  0  0  0  0
  149.3443  131.8909  153.8423 C   0  0  0  0  0  0  0  0  0  0  0  0
  150.2401  133.8899  155.1096 C   0  0  0  0  0  0  0  0  0  0  0  0
  146.8451  132.6688  152.3655 C   0  0  0  0  0  0  0  0  0  0  0  0
  145.9830  132.7239  151.0898 C   0  0  1  0  0  0  0  0  0  0  0  0
  145.8543  131.3538  150.4144 C   0  0  0  0  0  0  0  0  0  0  0  0
  144.6787  133.1785  151.4266 O   0  0  0  0  0  0  0  0  0  0  0  0
  143.1804  135.8664  152.7493 H   0  0  0  0  0  0  0  0  0  0  0  0
  142.7525  134.1725  152.9866 H   0  0  0  0  0  0  0  0  0  0  0  0
  142.6500  134.8922  151.3820 H   0  0  0  0  0  0  0  0  0  0  0  0
  145.1156  135.1834  151.3199 H   0  0  0  0  0  0  0  0  0  0  0  0
  145.5334  135.4402  153.7157 H   0  0  0  0  0  0  0  0  0  0  0  0
  145.0578  133.7903  154.0465 H   0  0  0  0  0  0  0  0  0  0  0  0
  147.3211  133.1794  154.9472 H   0  0  0  0  0  0  0  0  0  0  0  0
  148.5113  136.2271  153.4692 H   0  0  0  0  0  0  0  0  0  0  0  0
  147.2753  138.0652  155.1566 H   0  0  0  0  0  0  0  0  0  0  0  0
  148.7430  137.5962  155.9834 H   0  0  0  0  0  0  0  0  0  0  0  0
  148.9986  138.3340  153.0599 H   0  0  0  0  0  0  0  0  0  0  0  0
  148.7045  139.6412  154.1789 H   0  0  0  0  0  0  0  0  0  0  0  0
  150.4480  140.2600  155.9205 H   0  0  0  0  0  0  0  0  0  0  0  0
  152.8876  140.1839  156.4590 H   0  0  0  0  0  0  0  0  0  0  0  0
  154.3462  138.5081  155.3049 H   0  0  0  0  0  0  0  0  0  0  0  0
  153.2666  136.9268  153.6006 H   0  0  0  0  0  0  0  0  0  0  0  0
  149.5740  133.8257  153.0875 H   0  0  0  0  0  0  0  0  0  0  0  0
  149.1458  131.3422  154.7636 H   0  0  0  0  0  0  0  0  0  0  0  0
  150.3453  131.6122  153.5116 H   0  0  0  0  0  0  0  0  0  0  0  0
  148.6425  131.5411  153.0848 H   0  0  0  0  0  0  0  0  0  0  0  0
  150.0322  133.4510  156.0851 H   0  0  0  0  0  0  0  0  0  0  0  0
  150.2257  134.9741  155.2221 H   0  0  0  0  0  0  0  0  0  0  0  0
  151.2578  133.6082  154.8380 H   0  0  0  0  0  0  0  0  0  0  0  0
  147.8367  132.3419  152.0594 H   0  0  0  0  0  0  0  0  0  0  0  0
  146.4542  131.9038  153.0389 H   0  0  0  0  0  0  0  0  0  0  0  0
  146.4290  133.4217  150.3786 H   0  0  0  0  0  0  0  0  0  0  0  0
  146.8308  130.9668  150.1223 H   0  0  0  0  0  0  0  0  0  0  0  0
  145.2408  131.4190  149.5157 H   0  0  0  0  0  0  0  0  0  0  0  0
  145.3915  130.6264  151.0819 H   0  0  0  0  0  0  0  0  0  0  0  0
  150.9955  137.1065  153.1935 H   0  0  0  0  0  0  0  0  0  0  0  0
  1  2  1  0  0  0  0
  1 24  1  0  0  0  0
  1 25  1  0  0  0  0
  1 26  1  0  0  0  0
  2 23  1  0  0  0  0
  2  3  1  0  0  0  0
  2 27  1  0  0  0  0
  3  4  1  0  0  0  0
  3 28  1  0  0  0  0
  3 29  1  0  0  0  0
  4  5  1  0  0  0  0
  4 20  1  0  0  0  0
  5  6  1  0  0  0  0
  5 17  1  0  0  0  0
  5 30  1  0  0  0  0
  6  7  2  0  0  0  0
  6  8  1  0  0  0  0
  8  9  1  0  0  0  0
  8 31  1  0  0  0  0
  9 10  1  0  0  0  0
  9 32  1  0  0  0  0
  9 33  1  0  0  0  0
 10 11  1  0  0  0  0
 10 34  1  0  0  0  0
 10 35  1  0  0  0  0
 11 16  1  0  0  0  0
 11 12  2  0  0  0  0
 12 13  1  0  0  0  0
 12 36  1  0  0  0  0
 13 14  2  0  0  0  0
 13 37  1  0  0  0  0
 14 15  1  0  0  0  0
 14 38  1  0  0  0  0
 15 16  2  0  0  0  0
 15 39  1  0  0  0  0
 16 53  1  0  0  0  0
 17 18  1  0  0  0  0
 17 19  1  0  0  0  0
 17 40  1  0  0  0  0
 18 41  1  0  0  0  0
 18 42  1  0  0  0  0
 18 43  1  0  0  0  0
 19 44  1  0  0  0  0
 19 45  1  0  0  0  0
 19 46  1  0  0  0  0
 20 21  1  0  0  0  0
 20 47  1  0  0  0  0
 20 48  1  0  0  0  0
 21 22  1  0  0  0  0
 21 23  1  0  0  0  0
 21 49  1  0  0  0  0
 22 50  1  0  0  0  0
 22 51  1  0  0  0  0
 22 52  1  0  0  0  0
M  CHG  1  16   1
M  END
> <s_m_source_file>
AV-unprocessed.smi

> <i_m_source_file_index>
1762

> <i_lp_mmshare_version>
43012

> <i_f3d_flags>
0

> <s_epik_input>
W0NIM11bQ0BASF0xW0NIMl1OKFtDSDJdW0NASF0oTzEpW0NIM10pW0NAQEhdKFtDSF0oW0NIM10pW0NIM10pQyg9TylbTkhdW0NIMl1bQ0gyXWMyW2NIXVtjSF1bY0hdW2NIXW4y

> <s_epik_cmdline>
J2VwaWtfcHl0aG9uJywgJy1waCcsICc3LjAnLCAnLXRuJywgJzgnLCAnLW1hJywgJzIwMCcsICctbWV0YWxfYmluZGluZycsICctaW1hZScsICc8aW5maWxlLm1hZT4nLCAnLW9tYWUnLCAnPG91dGZpbGUubWFlPic=

> <r_epik_Ionization_Penalty>
1.86475

> <r_epik_Ionization_Penalty_Charging>
1.85347

> <r_epik_Ionization_Penalty_Neutral>
0.0112771

> <r_epik_State_Penalty>
1.99714

> <r_epik_Charging_Adjusted_Penalty>
3.85061

> <i_epik_Tot_Q>
1

> <i_epik_Tot_abs_Q>
1

> <r_epik_Metal_State_Penalty>
2.02271

> <b_epik_Metal_Only>
0

> <s_lp_Force_Field>
OPLS_2005

> <r_lp_Energy>
32.9979

> <b_lp_Chiralities_Consistent>
1

> <s_lp_Variant>
AV-unprocessed.smi:1762-8

> <Gold.Version>
5.8.1

> <Gold.Id.Protein>
6NUR|6NUR_protein|mol2

> <Gold.PLP.Fitness>
40.8833

> <Gold.PLP.PLP>
-34.2620

> <Gold.PLP.part.hbond>
-2.0000

> <Gold.PLP.part.metal>
0.0000

> <Gold.PLP.part.buried>
2.1967

> <Gold.PLP.part.nonpolar>
-33.2772

> <Gold.PLP.part.repulsive>
0.3607

> <Gold.PLP.ligand.clash>
0.0000

> <Gold.PLP.ligand.torsion>
1.3203

> <Gold.PLP.Chemscore.Hbond>
2.9825

> <Gold.PLP.Chemscore.CHOScore>
0.0000

> <Gold.PLP.Chemscore.Metal>
0.0000

> <Gold.Chemscore.Hbonds>
donor molecule, donor type, donor heavy atom, donor atom, acceptor molecule, acceptor atom, score
      L1  H     8    31       P1  7948  1.00
      L1  H    16    53       P1  7949  1.92

> <Gold.PLP.Chemscore.Internal.Correction>
0.3144

> <Gold.Rescore>
     Score         DG    S(hbond)    S(metal)    S(lipo)     H(rot)  DE(clash)    DE(int)     intcor
     14.54     -18.83       1.56        0.00     107.17       1.72       2.03       2.26       ----

> <Gold.Chemscore.Fitness>
14.5443

> <Gold.Chemscore.DG>
-18.8342

> <Gold.Chemscore.ZeroCoef>
-5.4800

> <Gold.Chemscore.Hbond>
1.5603

> <Gold.Chemscore.Metal>
0.0000

> <Gold.Chemscore.Lipo>
107.1726

> <Gold.Chemscore.Internal_Hbond>
0.0000

> <Gold.Chemscore.DEClash>
2.0301

> <Gold.Chemscore.DEInternal>
2.2598

> <Gold.Chemscore.Rot>
1.7174

> <Gold.Chemscore.Internal.Correction>
   9.000000E+99

> <Gold.Chemscore.Hbonds>
donor molecule, donor type, donor heavy atom, donor atom, acceptor molecule, acceptor atom, score
      L1  H     8    31       P1  7948  1.00
      L1  H    16    53       P1  7949  0.26

> <Gold.Chemscore.Hbond.Weighted>
-5.2115

> <Gold.Chemscore.Metal.Weighted>
-0.0000

> <Gold.Chemscore.Lipo.Weighted>
-12.5392

> <Gold.Chemscore.Internal_Hbond.Weighted>
0.0000

> <Gold.Chemscore.DEClash.Weighted>
2.0301

> <Gold.Chemscore.DEInternal.Weighted>
2.2598

> <Gold.Chemscore.Rot.Weighted>
4.3966

> <Gold.Chemscore.Internal.Correction.Weighted>
   9.000000E+99

> <Gold.Protein.RotatedTorsions>
[ 6907 6896 6895 6894 ] final -119.75 input  -60.11 | X-H torsion
[ 7974 7965 7964 7962 ] final  145.76 input  175.53 | X-H torsion
[ 8008 7997 7996 7995 ] final  110.89 input   59.86 | X-H torsion
[ 10167 10162 10161 10158 ] final  -41.60 input  -65.29 | X-H torsion
[ 10718 10713 10712 10709 ] final -144.05 input   66.30 | X-H torsion
[ 10763 10752 10751 10750 ] final    4.58 input  -60.55 | X-H torsion
[ 11005 11000 10999 10996 ] final -178.02 input  -57.11 | X-H torsion

> <Gold.Protein.ActiveResidues>
 VAL166  LYS551  ARG553  GLY616  TRP617  ASP618  TYR619  PRO620  LYS621  CYS622 
 ASP623  PHE694  ASN695  SER759  ASP760  ASP761  ALA762  ILE779  LEU786  VAL792 
 PHE793  MET794  SER795  GLU796  ALA797  LYS798  CYS799  TRP800  GLU811  SER814 

> <Gold.Protein.RotatedAtoms>
  150.8332  133.8056  159.3089 H   0  0  0  0  0  0  0  0  0  0  0  0  # atno 6907 bound_to 6896
  151.5780  135.1058  160.0020 H   0  0  0  0  0  0  0  0  0  0  0  0  # atno 6908 bound_to 6896
  152.4409  133.7404  159.6694 H   0  0  0  0  0  0  0  0  0  0  0  0  # atno 6909 bound_to 6896
  144.8726  139.5822  143.5880 H   0  0  0  0  0  0  0  0  0  0  0  0  # atno 7974 bound_to 7965
  156.2085  140.3030  155.9680 H   0  0  0  0  0  0  0  0  0  0  0  0  # atno 8008 bound_to 7997
  155.2782  140.0436  157.3030 H   0  0  0  0  0  0  0  0  0  0  0  0  # atno 8009 bound_to 7997
  154.5667  140.2336  155.8262 H   0  0  0  0  0  0  0  0  0  0  0  0  # atno 8010 bound_to 7997
  140.6997  143.3085  151.3090 H   0  0  0  0  0  0  0  0  0  0  0  0  # atno 10167 bound_to 10162
  156.3653  130.7760  151.1933 H   0  0  0  0  0  0  0  0  0  0  0  0  # atno 10718 bound_to 10713
  153.2695  135.6931  153.7495 H   0  0  0  0  0  0  0  0  0  0  0  0  # atno 10763 bound_to 10752
  153.6524  135.3374  155.3104 H   0  0  0  0  0  0  0  0  0  0  0  0  # atno 10764 bound_to 10752
  154.8459  135.4457  154.1713 H   0  0  0  0  0  0  0  0  0  0  0  0  # atno 10765 bound_to 10752
  140.4344  134.6489  157.4727 H   0  0  0  0  0  0  0  0  0  0  0  0  # atno 11005 bound_to 11000
  146.2941  139.7225  142.9140 LP  0  0  0  0  0  0  0  0  0  0  0  0  # atno 17320 bound_to 7965
  145.4102  141.0395  143.3021 LP  0  0  0  0  0  0  0  0  0  0  0  0  # atno 17321 bound_to 7965
  139.6499  144.0381  152.2619 LP  0  0  0  0  0  0  0  0  0  0  0  0  # atno 17342 bound_to 10162
  139.9914  144.6359  150.7811 LP  0  0  0  0  0  0  0  0  0  0  0  0  # atno 17343 bound_to 10162
  157.7478  131.0388  150.4520 LP  0  0  0  0  0  0  0  0  0  0  0  0  # atno 17370 bound_to 10713
  156.4737  130.4058  149.6502 LP  0  0  0  0  0  0  0  0  0  0  0  0  # atno 17371 bound_to 10713
  140.0112  134.6687  155.9378 LP  0  0  0  0  0  0  0  0  0  0  0  0  # atno 17394 bound_to 11000
  141.1732  133.6538  156.4729 LP  0  0  0  0  0  0  0  0  0  0  0  0  # atno 17395 bound_to 11000

$$$$
