AV-unprocessed.smi:1944|AV-procd|sdf|7854|dock5
  -GOLD-   2272010 03D 1   1.00000     0.00000
 Structure written by MMmdl.
 46 47  0  0  0  0  0  0  0  0  2 V2000
  151.1096  144.6472  159.0884 C   0  0  0  0  0  0  0  0  0  0  0  0
  151.0658  143.2749  158.7123 O   0  0  0  0  0  0  0  0  0  0  0  0
  152.0095  142.4156  159.2422 C   0  0  0  0  0  0  0  0  0  0  0  0
  152.8181  142.8753  160.2299 N   0  0  0  0  0  0  0  0  0  0  0  0
  153.7377  142.0373  160.7507 C   0  0  0  0  0  0  0  0  0  0  0  0
  153.8955  140.7058  160.3247 C   0  0  0  0  0  0  0  0  0  0  0  0
  153.0585  140.2266  159.3003 C   0  0  0  0  0  0  0  0  0  0  0  0
  152.0987  141.0991  158.7324 C   0  0  0  0  0  0  0  0  0  0  0  0
  151.1920  140.7069  157.7094 N   0  0  0  0  0  0  0  0  0  0  0  0
  151.4268  139.9179  156.6474 C   0  0  0  0  0  0  0  0  0  0  0  0
  152.5148  139.4208  156.3560 O   0  0  0  0  0  0  0  0  0  0  0  0
  150.3197  139.7480  155.9107 N   0  0  0  0  0  0  0  0  0  0  0  0
  150.2442  138.9381  154.7002 C   0  0  0  0  0  0  0  0  0  0  0  0
  150.9911  137.6003  154.8696 C   0  0  0  0  0  0  0  0  0  0  0  0
  150.0838  136.4220  154.9231 N   0  3  1  0  0  0  0  0  0  0  0  0
  150.8274  135.1555  155.1629 C   0  0  0  0  0  0  0  0  0  0  0  0
  149.9161  133.9292  154.9965 C   0  0  0  0  0  0  0  0  0  0  0  0
  148.6925  134.0237  155.9139 C   0  0  0  0  0  0  0  0  0  0  0  0
  147.9539  135.3449  155.6606 C   0  0  0  0  0  0  0  0  0  0  0  0
  148.8824  136.5697  155.8057 C   0  0  1  0  0  0  0  0  0  0  0  0
  149.2276  136.8674  157.2811 C   0  0  0  0  0  0  0  0  0  0  0  0
  150.3093  145.1853  158.5808 H   0  0  0  0  0  0  0  0  0  0  0  0
  152.0538  145.1108  158.7992 H   0  0  0  0  0  0  0  0  0  0  0  0
  150.9626  144.7725  160.1621 H   0  0  0  0  0  0  0  0  0  0  0  0
  154.3620  142.4380  161.5356 H   0  0  0  0  0  0  0  0  0  0  0  0
  154.6379  140.0651  160.7771 H   0  0  0  0  0  0  0  0  0  0  0  0
  153.1571  139.2003  158.9825 H   0  0  0  0  0  0  0  0  0  0  0  0
  150.2743  141.1242  157.7645 H   0  0  0  0  0  0  0  0  0  0  0  0
  149.4687  140.1975  156.2164 H   0  0  0  0  0  0  0  0  0  0  0  0
  149.1943  138.7844  154.4499 H   0  0  0  0  0  0  0  0  0  0  0  0
  150.6813  139.5084  153.8801 H   0  0  0  0  0  0  0  0  0  0  0  0
  151.6586  137.4827  154.0147 H   0  0  0  0  0  0  0  0  0  0  0  0
  151.6379  137.6180  155.7469 H   0  0  0  0  0  0  0  0  0  0  0  0
  151.6524  135.0751  154.4541 H   0  0  0  0  0  0  0  0  0  0  0  0
  151.2754  135.1662  156.1571 H   0  0  0  0  0  0  0  0  0  0  0  0
  149.5896  133.8541  153.9583 H   0  0  0  0  0  0  0  0  0  0  0  0
  150.4743  133.0176  155.2121 H   0  0  0  0  0  0  0  0  0  0  0  0
  148.0244  133.1803  155.7371 H   0  0  0  0  0  0  0  0  0  0  0  0
  149.0027  133.9589  156.9573 H   0  0  0  0  0  0  0  0  0  0  0  0
  147.5376  135.3292  154.6523 H   0  0  0  0  0  0  0  0  0  0  0  0
  147.1018  135.4324  156.3356 H   0  0  0  0  0  0  0  0  0  0  0  0
  148.3036  137.4173  155.4418 H   0  0  0  0  0  0  0  0  0  0  0  0
  148.3196  136.9344  157.8808 H   0  0  0  0  0  0  0  0  0  0  0  0
  149.7439  137.8206  157.3927 H   0  0  0  0  0  0  0  0  0  0  0  0
  149.8522  136.0941  157.7272 H   0  0  0  0  0  0  0  0  0  0  0  0
  149.7151  136.3308  153.9872 H   0  0  0  0  0  0  0  0  0  0  0  0
  1  2  1  0  0  0  0
  1 22  1  0  0  0  0
  1 23  1  0  0  0  0
  1 24  1  0  0  0  0
  2  3  1  0  0  0  0
  3  8  1  0  0  0  0
  3  4  2  0  0  0  0
  4  5  1  0  0  0  0
  5  6  2  0  0  0  0
  5 25  1  0  0  0  0
  6  7  1  0  0  0  0
  6 26  1  0  0  0  0
  7  8  2  0  0  0  0
  7 27  1  0  0  0  0
  8  9  1  0  0  0  0
  9 10  1  0  0  0  0
  9 28  1  0  0  0  0
 10 11  2  0  0  0  0
 10 12  1  0  0  0  0
 12 13  1  0  0  0  0
 12 29  1  0  0  0  0
 13 14  1  0  0  0  0
 13 30  1  0  0  0  0
 13 31  1  0  0  0  0
 14 15  1  0  0  0  0
 14 32  1  0  0  0  0
 14 33  1  0  0  0  0
 15 20  1  0  0  0  0
 15 16  1  0  0  0  0
 15 46  1  0  0  0  0
 16 17  1  0  0  0  0
 16 34  1  0  0  0  0
 16 35  1  0  0  0  0
 17 18  1  0  0  0  0
 17 36  1  0  0  0  0
 17 37  1  0  0  0  0
 18 19  1  0  0  0  0
 18 38  1  0  0  0  0
 18 39  1  0  0  0  0
 19 20  1  0  0  0  0
 19 40  1  0  0  0  0
 19 41  1  0  0  0  0
 20 21  1  0  0  0  0
 20 42  1  0  0  0  0
 21 43  1  0  0  0  0
 21 44  1  0  0  0  0
 21 45  1  0  0  0  0
M  CHG  1  15   1
M  END
> <s_m_source_file>
AV-unprocessed.smi

> <i_m_source_file_index>
1944

> <i_lp_mmshare_version>
43012

> <i_f3d_flags>
0

> <s_epik_input>
W0NIM11PYzFuW2NIXVtjSF1bY0hdYzFbTkhdQyg9TylbTkhdW0NIMl1bQ0gyXU4yW0NIMl1bQ0gyXVtDSDJdW0NIMl1bQ0BIXTJbQ0gzXQ==

> <s_epik_cmdline>
J2VwaWtfcHl0aG9uJywgJy1waCcsICc3LjAnLCAnLXRuJywgJzgnLCAnLW1hJywgJzIwMCcsICctbWV0YWxfYmluZGluZycsICctaW1hZScsICc8aW5maWxlLm1hZT4nLCAnLW9tYWUnLCAnPG91dGZpbGUubWFlPic=

> <r_lp_tautomer_probability>
1

> <r_epik_Ionization_Penalty>
0.00219525

> <r_epik_Ionization_Penalty_Charging>
0.00211816

> <r_epik_Ionization_Penalty_Neutral>
7.7088e-05

> <r_epik_State_Penalty>
0.00145254

> <r_epik_Charging_Adjusted_Penalty>
0.0035707

> <i_epik_Tot_Q>
1

> <i_epik_Tot_abs_Q>
1

> <r_epik_Metal_State_Penalty>
-0

> <b_epik_Metal_Only>
0

> <s_lp_Force_Field>
OPLS_2005

> <r_lp_Energy>
22.8304

> <b_lp_Chiralities_Consistent>
1

> <s_lp_Variant>
AV-unprocessed.smi:1944-2

> <Gold.Version>
5.8.1

> <Gold.Id.Protein>
6NUR|6NUR_protein|mol2

> <Gold.PLP.Fitness>
44.1498

> <Gold.PLP.PLP>
-36.8167

> <Gold.PLP.part.hbond>
-2.0000

> <Gold.PLP.part.metal>
0.0000

> <Gold.PLP.part.buried>
-6.2943

> <Gold.PLP.part.nonpolar>
-28.9211

> <Gold.PLP.part.repulsive>
0.3057

> <Gold.PLP.ligand.clash>
0.0000

> <Gold.PLP.ligand.torsion>
0.8835

> <Gold.PLP.Chemscore.Hbond>
3.0000

> <Gold.PLP.Chemscore.CHOScore>
0.0000

> <Gold.PLP.Chemscore.Metal>
0.0000

> <Gold.Chemscore.Hbonds>
donor molecule, donor type, donor heavy atom, donor atom, acceptor molecule, acceptor atom, score
      L1  H    15    46       P1  7948  1.01
      P1  H  7997  8010       L1    11  1.00

> <Gold.PLP.Chemscore.Internal.Correction>
0.1002

> <Gold.Rescore>
     Score         DG    S(hbond)    S(metal)    S(lipo)     H(rot)  DE(clash)    DE(int)     intcor
     12.96     -16.01       1.86        0.00      74.48       1.71       0.05       3.00       ----

> <Gold.Chemscore.Fitness>
12.9610

> <Gold.Chemscore.DG>
-16.0146

> <Gold.Chemscore.ZeroCoef>
-5.4800

> <Gold.Chemscore.Hbond>
1.8564

> <Gold.Chemscore.Metal>
0.0000

> <Gold.Chemscore.Lipo>
74.4762

> <Gold.Chemscore.Internal_Hbond>
0.0000

> <Gold.Chemscore.DEClash>
0.0515

> <Gold.Chemscore.DEInternal>
3.0021

> <Gold.Chemscore.Rot>
1.7107

> <Gold.Chemscore.Internal.Correction>
   9.000000E+99

> <Gold.Chemscore.Hbonds>
donor molecule, donor type, donor heavy atom, donor atom, acceptor molecule, acceptor atom, score
      L1  H    15    46       P1  7948  0.28
      P1  H  7997  8010       L1    11  0.99

> <Gold.Chemscore.Hbond.Weighted>
-6.2003

> <Gold.Chemscore.Metal.Weighted>
-0.0000

> <Gold.Chemscore.Lipo.Weighted>
-8.7137

> <Gold.Chemscore.Internal_Hbond.Weighted>
0.0000

> <Gold.Chemscore.DEClash.Weighted>
0.0515

> <Gold.Chemscore.DEInternal.Weighted>
3.0021

> <Gold.Chemscore.Rot.Weighted>
4.3794

> <Gold.Chemscore.Internal.Correction.Weighted>
   9.000000E+99

> <Gold.Protein.RotatedTorsions>
[ 6907 6896 6895 6894 ] final -171.79 input  -60.11 | X-H torsion
[ 7974 7965 7964 7962 ] final    7.20 input  175.53 | X-H torsion
[ 8008 7997 7996 7995 ] final   75.81 input   59.86 | X-H torsion
[ 10167 10162 10161 10158 ] final -132.03 input  -65.29 | X-H torsion
[ 10718 10713 10712 10709 ] final  -87.80 input   66.30 | X-H torsion
[ 10763 10752 10751 10750 ] final  142.66 input  -60.55 | X-H torsion
[ 11005 11000 10999 10996 ] final  129.90 input  -57.11 | X-H torsion

> <Gold.Protein.ActiveResidues>
 VAL166  LYS551  ARG553  GLY616  TRP617  ASP618  TYR619  PRO620  LYS621  CYS622 
 ASP623  PHE694  ASN695  SER759  ASP760  ASP761  ALA762  ILE779  LEU786  VAL792 
 PHE793  MET794  SER795  GLU796  ALA797  LYS798  CYS799  TRP800  GLU811  SER814 

> <Gold.Protein.RotatedAtoms>
  151.5295  133.3451  159.2915 H   0  0  0  0  0  0  0  0  0  0  0  0  # atno 6907 bound_to 6896
  150.8602  134.7954  159.7088 H   0  0  0  0  0  0  0  0  0  0  0  0  # atno 6908 bound_to 6896
  152.4624  134.5163  159.9820 H   0  0  0  0  0  0  0  0  0  0  0  0  # atno 6909 bound_to 6896
  146.2429  140.0119  142.8406 H   0  0  0  0  0  0  0  0  0  0  0  0  # atno 7974 bound_to 7965
  155.8182  140.3471  155.5498 H   0  0  0  0  0  0  0  0  0  0  0  0  # atno 8008 bound_to 7997
  155.8369  140.0935  157.1778 H   0  0  0  0  0  0  0  0  0  0  0  0  # atno 8009 bound_to 7997
  154.4004  140.1401  156.3669 H   0  0  0  0  0  0  0  0  0  0  0  0  # atno 8010 bound_to 7997
  139.9128  143.6474  152.2571 H   0  0  0  0  0  0  0  0  0  0  0  0  # atno 10167 bound_to 10162
  155.9984  130.4813  150.4922 H   0  0  0  0  0  0  0  0  0  0  0  0  # atno 10718 bound_to 10713
  153.9595  135.2961  155.3434 H   0  0  0  0  0  0  0  0  0  0  0  0  # atno 10763 bound_to 10752
  154.7383  135.5036  153.9082 H   0  0  0  0  0  0  0  0  0  0  0  0  # atno 10764 bound_to 10752
  153.0954  135.6719  153.9884 H   0  0  0  0  0  0  0  0  0  0  0  0  # atno 10765 bound_to 10752
  139.9641  134.9595  156.9216 H   0  0  0  0  0  0  0  0  0  0  0  0  # atno 11005 bound_to 11000
  145.1320  140.9523  143.4539 LP  0  0  0  0  0  0  0  0  0  0  0  0  # atno 17320 bound_to 7965
  145.0379  139.3285  143.5992 LP  0  0  0  0  0  0  0  0  0  0  0  0  # atno 17321 bound_to 7965
  139.6928  144.7645  151.1408 LP  0  0  0  0  0  0  0  0  0  0  0  0  # atno 17342 bound_to 10162
  140.7681  143.5565  150.9146 LP  0  0  0  0  0  0  0  0  0  0  0  0  # atno 17343 bound_to 10162
  157.2916  131.0627  151.2130 LP  0  0  0  0  0  0  0  0  0  0  0  0  # atno 17370 bound_to 10713
  157.3141  130.6904  149.6232 LP  0  0  0  0  0  0  0  0  0  0  0  0  # atno 17371 bound_to 10713
  140.5434  134.0697  155.7348 LP  0  0  0  0  0  0  0  0  0  0  0  0  # atno 17394 bound_to 11000
  141.1320  133.9285  157.2514 LP  0  0  0  0  0  0  0  0  0  0  0  0  # atno 17395 bound_to 11000

$$$$
