AV-unprocessed.smi:1374|AV-procd|sdf|5588|dock1
  -GOLD-   22720 5183D 1   1.00000     0.00000
 Structure written by MMmdl.
 42 43  0  0  0  0  0  0  0  0  2 V2000
  146.8533  129.1524  152.8943 C   0  0  0  0  0  0  0  0  0  0  0  0
  147.1082  129.7945  154.2620 C   0  0  0  0  0  0  0  0  0  0  0  0
  147.6439  131.2314  154.1486 C   0  0  0  0  0  0  0  0  0  0  0  0
  149.1091  131.3336  153.6704 C   0  0  0  0  0  0  0  0  0  0  0  0
  149.9308  132.2286  154.5173 N   0  0  0  0  0  0  0  0  0  0  0  0
  149.6098  133.6121  154.5627 C   0  0  0  0  0  0  0  0  0  0  0  0
  148.5509  134.0838  153.8001 N   0  0  0  0  0  0  0  0  0  0  0  0
  150.3071  134.4469  155.3792 C   0  0  0  0  0  0  0  0  0  0  0  0
  150.0164  135.8262  155.4651 N   0  0  0  0  0  0  0  0  0  0  0  0
  148.9774  136.2154  156.4252 C   0  0  0  0  0  0  0  0  0  0  0  0
  150.5921  136.7891  154.6863 C   0  0  0  0  0  0  0  0  0  0  0  0
  151.5887  136.5396  154.0035 O   0  0  0  0  0  0  0  0  0  0  0  0
  149.9484  138.1067  154.6688 C   0  0  0  0  0  0  0  0  0  0  0  0
  150.7251  139.2116  154.7426 C   0  0  0  0  0  0  0  0  0  0  0  0
  150.2387  140.4942  154.6862 O   0  0  0  0  0  0  0  0  0  0  0  0
  148.8719  140.5991  154.3043 C   0  0  0  0  0  0  0  0  0  0  0  0
  148.0433  139.4776  154.9466 C   0  0  0  0  0  0  0  0  0  0  0  0
  148.5785  138.2131  154.5777 O   0  0  0  0  0  0  0  0  0  0  0  0
  151.4309  133.9032  156.1543 C   0  0  0  0  0  0  0  0  0  0  0  0
  152.1140  134.6446  156.8612 O   0  0  0  0  0  0  0  0  0  0  0  0
  151.6820  132.5719  156.0549 N   0  5  0  0  0  0  0  0  0  0  0  0
  150.9603  131.7254  155.2673 C   0  0  0  0  0  0  0  0  0  0  0  0
  151.2096  130.5200  155.2223 O   0  0  0  0  0  0  0  0  0  0  0  0
  146.4664  128.1398  153.0082 H   0  0  0  0  0  0  0  0  0  0  0  0
  147.7710  129.0951  152.3084 H   0  0  0  0  0  0  0  0  0  0  0  0
  146.1231  129.7247  152.3214 H   0  0  0  0  0  0  0  0  0  0  0  0
  146.1774  129.7883  154.8293 H   0  0  0  0  0  0  0  0  0  0  0  0
  147.8165  129.1830  154.8217 H   0  0  0  0  0  0  0  0  0  0  0  0
  147.0164  131.7885  153.4523 H   0  0  0  0  0  0  0  0  0  0  0  0
  147.5318  131.7291  155.1118 H   0  0  0  0  0  0  0  0  0  0  0  0
  149.5314  130.3301  153.6038 H   0  0  0  0  0  0  0  0  0  0  0  0
  149.1318  131.6827  152.6377 H   0  0  0  0  0  0  0  0  0  0  0  0
  148.0040  133.4692  153.2149 H   0  0  0  0  0  0  0  0  0  0  0  0
  148.3617  135.0718  153.7127 H   0  0  0  0  0  0  0  0  0  0  0  0
  149.3676  136.9346  157.1467 H   0  0  0  0  0  0  0  0  0  0  0  0
  148.5969  135.3602  156.9854 H   0  0  0  0  0  0  0  0  0  0  0  0
  148.1275  136.6681  155.9124 H   0  0  0  0  0  0  0  0  0  0  0  0
  151.8027  139.1993  154.8247 H   0  0  0  0  0  0  0  0  0  0  0  0
  148.4912  141.5750  154.6054 H   0  0  0  0  0  0  0  0  0  0  0  0
  148.8006  140.5478  153.2170 H   0  0  0  0  0  0  0  0  0  0  0  0
  148.0477  139.5676  156.0339 H   0  0  0  0  0  0  0  0  0  0  0  0
  147.0036  139.5332  154.6235 H   0  0  0  0  0  0  0  0  0  0  0  0
  1  2  1  0  0  0  0
  1 24  1  0  0  0  0
  1 25  1  0  0  0  0
  1 26  1  0  0  0  0
  2  3  1  0  0  0  0
  2 27  1  0  0  0  0
  2 28  1  0  0  0  0
  3  4  1  0  0  0  0
  3 29  1  0  0  0  0
  3 30  1  0  0  0  0
  4  5  1  0  0  0  0
  4 31  1  0  0  0  0
  4 32  1  0  0  0  0
  5 22  1  0  0  0  0
  5  6  1  0  0  0  0
  6  7  1  0  0  0  0
  6  8  2  0  0  0  0
  7 33  1  0  0  0  0
  7 34  1  0  0  0  0
  8  9  1  0  0  0  0
  8 19  1  0  0  0  0
  9 10  1  0  0  0  0
  9 11  1  0  0  0  0
 10 35  1  0  0  0  0
 10 36  1  0  0  0  0
 10 37  1  0  0  0  0
 11 12  2  0  0  0  0
 11 13  1  0  0  0  0
 13 18  1  0  0  0  0
 13 14  2  0  0  0  0
 14 15  1  0  0  0  0
 14 38  1  0  0  0  0
 15 16  1  0  0  0  0
 16 17  1  0  0  0  0
 16 39  1  0  0  0  0
 16 40  1  0  0  0  0
 17 18  1  0  0  0  0
 17 41  1  0  0  0  0
 17 42  1  0  0  0  0
 19 20  2  0  0  0  0
 19 21  1  0  0  0  0
 21 22  1  0  0  0  0
 22 23  2  0  0  0  0
M  CHG  1  21  -1
M  END
> <s_m_source_file>
AV-unprocessed.smi

> <i_m_source_file_index>
1374

> <i_lp_mmshare_version>
43012

> <i_f3d_flags>
0

> <s_epik_input>
W0NIM11bQ0gyXVtDSDJdW0NIMl1uMWMoW05IMl0pYyhjKD1PKVtuSF1jMT1PKU4oW0NIM10pQyg9TylDMj1bQ0hdT1tDSDJdW0NIMl1PMg==

> <s_epik_cmdline>
J2VwaWtfcHl0aG9uJywgJy1waCcsICc3LjAnLCAnLXRuJywgJzgnLCAnLW1hJywgJzIwMCcsICctbWV0YWxfYmluZGluZycsICctaW1hZScsICc8aW5maWxlLm1hZT4nLCAnLW9tYWUnLCAnPG91dGZpbGUubWFlPic=

> <r_lp_tautomer_probability>
1

> <r_epik_Ionization_Penalty>
6.1831

> <r_epik_Ionization_Penalty_Charging>
0.183564

> <r_epik_Ionization_Penalty_Neutral>
5.99954

> <r_epik_State_Penalty>
5.99952

> <r_epik_Charging_Adjusted_Penalty>
6.18308

> <i_epik_Tot_Q>
-1

> <i_epik_Tot_abs_Q>
1

> <r_epik_Metal_State_Penalty>
1.93002

> <b_epik_Metal_Only>
1

> <s_epik_Chemistry_Notes>
This compound has an imine and may undergo hydrolysis.

> <s_lp_Force_Field>
OPLS_2005

> <r_lp_Energy>
38.087

> <b_lp_Chiralities_Consistent>
1

> <s_lp_Variant>
AV-unprocessed.smi:1374-2

> <Gold.Version>
5.8.1

> <Gold.Id.Protein>
6NUR|6NUR_protein|mol2

> <Gold.PLP.Fitness>
39.1016

> <Gold.PLP.PLP>
-34.1393

> <Gold.PLP.part.hbond>
-4.0000

> <Gold.PLP.part.metal>
0.0000

> <Gold.PLP.part.buried>
-4.5836

> <Gold.PLP.part.nonpolar>
-27.1597

> <Gold.PLP.part.repulsive>
1.2739

> <Gold.PLP.ligand.clash>
0.0000

> <Gold.PLP.ligand.torsion>
2.7085

> <Gold.PLP.Chemscore.Hbond>
2.3010

> <Gold.PLP.Chemscore.CHOScore>
0.0000

> <Gold.PLP.Chemscore.Metal>
0.0000

> <Gold.Chemscore.Hbonds>
donor molecule, donor type, donor heavy atom, donor atom, acceptor molecule, acceptor atom, score
      L1  H     7    34       P1  7948  0.19
      P1  H  7989  7998       L1    15  0.38
      P1  H 10752 10765       L1    12  1.00

> <Gold.PLP.Chemscore.Internal.Correction>
3.4763

> <Gold.Rescore>
     Score         DG    S(hbond)    S(metal)    S(lipo)     H(rot)  DE(clash)    DE(int)     intcor
     10.52     -14.85       2.03        0.00      54.39       1.47       0.18       4.15       ----

> <Gold.Chemscore.Fitness>
10.5230

> <Gold.Chemscore.DG>
-14.8515

> <Gold.Chemscore.ZeroCoef>
-5.4800

> <Gold.Chemscore.Hbond>
2.0285

> <Gold.Chemscore.Metal>
0.0000

> <Gold.Chemscore.Lipo>
54.3894

> <Gold.Chemscore.Internal_Hbond>
0.0000

> <Gold.Chemscore.DEClash>
0.1798

> <Gold.Chemscore.DEInternal>
4.1486

> <Gold.Chemscore.Rot>
1.4715

> <Gold.Chemscore.Internal.Correction>
   9.000000E+99

> <Gold.Chemscore.Hbonds>
donor molecule, donor type, donor heavy atom, donor atom, acceptor molecule, acceptor atom, score
      L1  H     7    34       P1  7948  0.18
      P1  H  7989  7998       L1    15  0.01
      P1  H 10752 10765       L1    12  0.95

> <Gold.Chemscore.Hbond.Weighted>
-6.7750

> <Gold.Chemscore.Metal.Weighted>
-0.0000

> <Gold.Chemscore.Lipo.Weighted>
-6.3636

> <Gold.Chemscore.Internal_Hbond.Weighted>
0.0000

> <Gold.Chemscore.DEClash.Weighted>
0.1798

> <Gold.Chemscore.DEInternal.Weighted>
4.1486

> <Gold.Chemscore.Rot.Weighted>
3.7671

> <Gold.Chemscore.Internal.Correction.Weighted>
   9.000000E+99

> <Gold.Protein.RotatedTorsions>
[ 6907 6896 6895 6894 ] final  137.02 input  -60.11 | X-H torsion
[ 7974 7965 7964 7962 ] final  -81.77 input  175.53 | X-H torsion
[ 8008 7997 7996 7995 ] final -117.59 input   59.86 | X-H torsion
[ 10167 10162 10161 10158 ] final  149.93 input  -65.29 | X-H torsion
[ 10718 10713 10712 10709 ] final   77.25 input   66.30 | X-H torsion
[ 10763 10752 10751 10750 ] final  176.70 input  -60.55 | X-H torsion
[ 11005 11000 10999 10996 ] final  128.19 input  -57.11 | X-H torsion

> <Gold.Protein.ActiveResidues>
 VAL166  LYS551  ARG553  GLY616  TRP617  ASP618  TYR619  PRO620  LYS621  CYS622 
 ASP623  PHE694  ASN695  SER759  ASP760  ASP761  ALA762  ILE779  LEU786  VAL792 
 PHE793  MET794  SER795  GLU796  ALA797  LYS798  CYS799  TRP800  GLU811  SER814 

> <Gold.Protein.RotatedAtoms>
  152.2828  133.5486  159.5508 H   0  0  0  0  0  0  0  0  0  0  0  0  # atno 6907 bound_to 6896
  150.7203  134.0540  159.3817 H   0  0  0  0  0  0  0  0  0  0  0  0  # atno 6908 bound_to 6896
  151.8450  135.0577  160.0503 H   0  0  0  0  0  0  0  0  0  0  0  0  # atno 6909 bound_to 6896
  145.5422  140.9508  143.1545 H   0  0  0  0  0  0  0  0  0  0  0  0  # atno 7974 bound_to 7965
  155.0861  140.0394  157.2654 H   0  0  0  0  0  0  0  0  0  0  0  0  # atno 8008 bound_to 7997
  154.6868  140.2645  155.6827 H   0  0  0  0  0  0  0  0  0  0  0  0  # atno 8009 bound_to 7997
  156.2715  140.2767  156.1432 H   0  0  0  0  0  0  0  0  0  0  0  0  # atno 8010 bound_to 7997
  139.4856  144.5563  151.7312 H   0  0  0  0  0  0  0  0  0  0  0  0  # atno 10167 bound_to 10162
  157.6703  130.9813  150.1614 H   0  0  0  0  0  0  0  0  0  0  0  0  # atno 10718 bound_to 10713
  154.4846  135.2776  155.1544 H   0  0  0  0  0  0  0  0  0  0  0  0  # atno 10763 bound_to 10752
  154.3241  135.6203  153.5524 H   0  0  0  0  0  0  0  0  0  0  0  0  # atno 10764 bound_to 10752
  152.9879  135.5749  154.5254 H   0  0  0  0  0  0  0  0  0  0  0  0  # atno 10765 bound_to 10752
  139.9547  134.9615  156.8965 H   0  0  0  0  0  0  0  0  0  0  0  0  # atno 11005 bound_to 11000
  144.7571  139.7047  143.7249 LP  0  0  0  0  0  0  0  0  0  0  0  0  # atno 17320 bound_to 7965
  146.1974  139.5248  142.9766 LP  0  0  0  0  0  0  0  0  0  0  0  0  # atno 17321 bound_to 7965
  140.5125  144.1004  150.5999 LP  0  0  0  0  0  0  0  0  0  0  0  0  # atno 17342 bound_to 10162
  140.3934  143.2740  152.0033 LP  0  0  0  0  0  0  0  0  0  0  0  0  # atno 17343 bound_to 10162
  156.2390  130.3689  149.8359 LP  0  0  0  0  0  0  0  0  0  0  0  0  # atno 17370 bound_to 10713
  156.6164  130.8608  151.3466 LP  0  0  0  0  0  0  0  0  0  0  0  0  # atno 17371 bound_to 10713
  140.5637  134.0510  155.7407 LP  0  0  0  0  0  0  0  0  0  0  0  0  # atno 17394 bound_to 11000
  141.1216  133.9451  157.2717 LP  0  0  0  0  0  0  0  0  0  0  0  0  # atno 17395 bound_to 11000

$$$$
