AV-unprocessed.smi:2681|AV-procd|sdf|10373|dock8
  -GOLD-   2272014403D 1   1.00000     0.00000
 Structure written by MMmdl.
 42 43  0  0  0  0  0  0  0  0  1 V2000
  150.3281  133.7463  157.3459 N   0  0  0  0  0  0  0  0  0  0  0  0
  150.1785  134.7842  156.8573 C   0  0  0  0  0  0  0  0  0  0  0  0
  149.9897  136.0912  156.2415 C   0  0  0  0  0  0  0  0  0  0  0  0
  151.1194  136.8828  155.9461 C   0  0  0  0  0  0  0  0  0  0  0  0
  150.9420  138.1406  155.3353 C   0  0  0  0  0  0  0  0  0  0  0  0
  152.1054  138.9513  155.0068 C   0  0  0  0  0  0  0  0  0  0  0  0
  153.0298  139.5962  154.7450 N   0  0  0  0  0  0  0  0  0  0  0  0
  149.6189  138.5539  155.0506 C   0  0  0  0  0  0  0  0  0  0  0  0
  149.2538  140.0982  154.2620 S   0  0  0  0  0  0  0  0  0  0  0  0
  148.8289  141.2703  155.5858 C   0  0  0  0  0  0  0  0  0  0  0  0
  149.6717  141.0558  156.8508 C   0  0  0  0  0  0  0  0  0  0  0  0
  150.5026  142.1882  157.0633 O   0  0  0  0  0  0  0  0  0  0  0  0
  151.1256  142.2548  158.3397 C   0  0  0  0  0  0  0  0  0  0  0  0
  151.6068  143.7013  158.5952 C   0  0  0  0  0  0  0  0  0  0  0  0
  152.7445  143.8893  159.6150 C   0  0  0  0  0  0  0  0  0  0  0  0
  152.6743  142.9906  160.8597 C   0  0  0  0  0  0  0  0  0  0  0  0
  153.3496  141.6260  160.6431 C   0  0  0  0  0  0  0  0  0  0  0  0
  152.5686  140.6580  159.7428 C   0  0  0  0  0  0  0  0  0  0  0  0
  152.2435  141.1956  158.3385 C   0  0  0  0  0  0  0  0  0  0  0  0
  148.5289  137.8111  155.3407 N   0  0  0  0  0  0  0  0  0  0  0  0
  148.7075  136.6041  155.9174 C   0  0  0  0  0  0  0  0  0  0  0  0
  147.5368  135.8878  156.1736 N   0  0  0  0  0  0  0  0  0  0  0  0
  152.1130  136.5234  156.1756 H   0  0  0  0  0  0  0  0  0  0  0  0
  148.9318  142.2929  155.2221 H   0  0  0  0  0  0  0  0  0  0  0  0
  147.7752  141.1278  155.8258 H   0  0  0  0  0  0  0  0  0  0  0  0
  149.0119  140.9131  157.7066 H   0  0  0  0  0  0  0  0  0  0  0  0
  150.2714  140.1504  156.7458 H   0  0  0  0  0  0  0  0  0  0  0  0
  150.3949  141.9717  159.0993 H   0  0  0  0  0  0  0  0  0  0  0  0
  151.9327  144.1432  157.6527 H   0  0  0  0  0  0  0  0  0  0  0  0
  150.7508  144.2956  158.9161 H   0  0  0  0  0  0  0  0  0  0  0  0
  153.7058  143.7479  159.1196 H   0  0  0  0  0  0  0  0  0  0  0  0
  152.7389  144.9329  159.9318 H   0  0  0  0  0  0  0  0  0  0  0  0
  153.2032  143.4953  161.6689 H   0  0  0  0  0  0  0  0  0  0  0  0
  151.6457  142.8738  161.2031 H   0  0  0  0  0  0  0  0  0  0  0  0
  154.3531  141.7712  160.2412 H   0  0  0  0  0  0  0  0  0  0  0  0
  153.4888  141.1485  161.6136 H   0  0  0  0  0  0  0  0  0  0  0  0
  153.1566  139.7459  159.6365 H   0  0  0  0  0  0  0  0  0  0  0  0
  151.6476  140.3547  160.2422 H   0  0  0  0  0  0  0  0  0  0  0  0
  151.9032  140.3445  157.7491 H   0  0  0  0  0  0  0  0  0  0  0  0
  153.1376  141.5641  157.8342 H   0  0  0  0  0  0  0  0  0  0  0  0
  147.5577  134.9730  156.6013 H   0  0  0  0  0  0  0  0  0  0  0  0
  146.6293  136.2643  155.9393 H   0  0  0  0  0  0  0  0  0  0  0  0
  1  2  3  0  0  0  0
  2  3  1  0  0  0  0
  3 21  1  0  0  0  0
  3  4  2  0  0  0  0
  4  5  1  0  0  0  0
  4 23  1  0  0  0  0
  5  6  1  0  0  0  0
  5  8  2  0  0  0  0
  6  7  3  0  0  0  0
  8  9  1  0  0  0  0
  8 20  1  0  0  0  0
  9 10  1  0  0  0  0
 10 11  1  0  0  0  0
 10 24  1  0  0  0  0
 10 25  1  0  0  0  0
 11 12  1  0  0  0  0
 11 26  1  0  0  0  0
 11 27  1  0  0  0  0
 12 13  1  0  0  0  0
 13 19  1  0  0  0  0
 13 14  1  0  0  0  0
 13 28  1  0  0  0  0
 14 15  1  0  0  0  0
 14 29  1  0  0  0  0
 14 30  1  0  0  0  0
 15 16  1  0  0  0  0
 15 31  1  0  0  0  0
 15 32  1  0  0  0  0
 16 17  1  0  0  0  0
 16 33  1  0  0  0  0
 16 34  1  0  0  0  0
 17 18  1  0  0  0  0
 17 35  1  0  0  0  0
 17 36  1  0  0  0  0
 18 19  1  0  0  0  0
 18 37  1  0  0  0  0
 18 38  1  0  0  0  0
 19 39  1  0  0  0  0
 19 40  1  0  0  0  0
 20 21  2  0  0  0  0
 21 22  1  0  0  0  0
 22 41  1  0  0  0  0
 22 42  1  0  0  0  0
M  END
> <s_m_source_file>
AV-unprocessed.smi

> <i_m_source_file_index>
2681

> <i_lp_mmshare_version>
43012

> <i_f3d_flags>
0

> <s_epik_input>
TiNDYzFbY0hdYyhDI04pYyhuYzFbTkgyXSlTW0NIMl1bQ0gyXU9bQ0hdMltDSDJdW0NIMl1bQ0gyXVtDSDJdW0NIMl1bQ0gyXTI=

> <s_epik_cmdline>
J2VwaWtfcHl0aG9uJywgJy1waCcsICc3LjAnLCAnLXRuJywgJzgnLCAnLW1hJywgJzIwMCcsICctbWV0YWxfYmluZGluZycsICctaW1hZScsICc8aW5maWxlLm1hZT4nLCAnLW9tYWUnLCAnPG91dGZpbGUubWFlPic=

> <r_epik_Ionization_Penalty>
0.00177186

> <r_epik_Ionization_Penalty_Charging>
0

> <r_epik_Ionization_Penalty_Neutral>
0.00177186

> <r_epik_State_Penalty>
0.00120048

> <r_epik_Charging_Adjusted_Penalty>
0.00120048

> <i_epik_Tot_Q>
0

> <i_epik_Tot_abs_Q>
0

> <r_epik_Metal_State_Penalty>
-0

> <b_epik_Metal_Only>
0

> <s_lp_Force_Field>
OPLS_2005

> <r_lp_Energy>
17.568

> <b_lp_Chiralities_Consistent>
1

> <s_lp_Variant>
AV-unprocessed.smi:2681-1

> <Gold.Version>
5.8.1

> <Gold.Id.Protein>
6NUR|6NUR_protein|mol2

> <Gold.PLP.Fitness>
43.1297

> <Gold.PLP.PLP>
-39.1435

> <Gold.PLP.part.hbond>
-3.0000

> <Gold.PLP.part.metal>
0.0000

> <Gold.PLP.part.buried>
-5.3927

> <Gold.PLP.part.nonpolar>
-32.4360

> <Gold.PLP.part.repulsive>
0.2053

> <Gold.PLP.ligand.clash>
0.0000

> <Gold.PLP.ligand.torsion>
0.9742

> <Gold.PLP.Chemscore.Hbond>
1.9695

> <Gold.PLP.Chemscore.CHOScore>
0.0000

> <Gold.PLP.Chemscore.Metal>
0.0000

> <Gold.Chemscore.Hbonds>
donor molecule, donor type, donor heavy atom, donor atom, acceptor molecule, acceptor atom, score
      P1  H  6896  6908       L1     1  0.90
      P1  H  7989  7998       L1     7  0.08
      P1  H  7997  8009       L1     7  1.00

> <Gold.PLP.Chemscore.Internal.Correction>
0.0262

> <Gold.Rescore>
     Score         DG    S(hbond)    S(metal)    S(lipo)     H(rot)  DE(clash)    DE(int)     intcor
     17.67     -18.75       1.91        0.00     105.13       2.12       0.00       1.08       ----

> <Gold.Chemscore.Fitness>
17.6678

> <Gold.Chemscore.DG>
-18.7519

> <Gold.Chemscore.ZeroCoef>
-5.4800

> <Gold.Chemscore.Hbond>
1.9121

> <Gold.Chemscore.Metal>
0.0000

> <Gold.Chemscore.Lipo>
105.1310

> <Gold.Chemscore.Internal_Hbond>
0.0000

> <Gold.Chemscore.DEClash>
0.0000

> <Gold.Chemscore.DEInternal>
1.0841

> <Gold.Chemscore.Rot>
2.1152

> <Gold.Chemscore.Internal.Correction>
   9.000000E+99

> <Gold.Chemscore.Hbonds>
donor molecule, donor type, donor heavy atom, donor atom, acceptor molecule, acceptor atom, score
      P1  H  6896  6908       L1     1  0.82
      P1  H  7997  8009       L1     7  1.00

> <Gold.Chemscore.Hbond.Weighted>
-6.3865

> <Gold.Chemscore.Metal.Weighted>
-0.0000

> <Gold.Chemscore.Lipo.Weighted>
-12.3003

> <Gold.Chemscore.Internal_Hbond.Weighted>
0.0000

> <Gold.Chemscore.DEClash.Weighted>
0.0000

> <Gold.Chemscore.DEInternal.Weighted>
1.0841

> <Gold.Chemscore.Rot.Weighted>
5.4149

> <Gold.Chemscore.Internal.Correction.Weighted>
   9.000000E+99

> <Gold.Protein.RotatedTorsions>
[ 6907 6896 6895 6894 ] final  113.97 input  -60.11 | X-H torsion
[ 7974 7965 7964 7962 ] final  -46.51 input  175.53 | X-H torsion
[ 8008 7997 7996 7995 ] final -130.80 input   59.86 | X-H torsion
[ 10167 10162 10161 10158 ] final -135.50 input  -65.29 | X-H torsion
[ 10718 10713 10712 10709 ] final   96.90 input   66.30 | X-H torsion
[ 10763 10752 10751 10750 ] final  -82.32 input  -60.55 | X-H torsion
[ 11005 11000 10999 10996 ] final  -98.66 input  -57.11 | X-H torsion

> <Gold.Protein.ActiveResidues>
 VAL166  LYS551  ARG553  GLY616  TRP617  ASP618  TYR619  PRO620  LYS621  CYS622 
 ASP623  PHE694  ASN695  SER759  ASP760  ASP761  ALA762  ILE779  LEU786  VAL792 
 PHE793  MET794  SER795  GLU796  ALA797  LYS798  CYS799  TRP800  GLU811  SER814 

> <Gold.Protein.RotatedAtoms>
  152.4830  133.8301  159.7098 H   0  0  0  0  0  0  0  0  0  0  0  0  # atno 6907 bound_to 6896
  150.8894  133.7254  159.2915 H   0  0  0  0  0  0  0  0  0  0  0  0  # atno 6908 bound_to 6896
  151.4732  135.1051  159.9809 H   0  0  0  0  0  0  0  0  0  0  0  0  # atno 6909 bound_to 6896
  145.9712  140.7381  142.9409 H   0  0  0  0  0  0  0  0  0  0  0  0  # atno 7974 bound_to 7965
  155.3018  140.0453  157.3030 H   0  0  0  0  0  0  0  0  0  0  0  0  # atno 8008 bound_to 7997
  154.5482  140.2309  155.8495 H   0  0  0  0  0  0  0  0  0  0  0  0  # atno 8009 bound_to 7997
  156.1943  140.3042  155.9402 H   0  0  0  0  0  0  0  0  0  0  0  0  # atno 8010 bound_to 7997
  139.8773  143.6883  152.2632 H   0  0  0  0  0  0  0  0  0  0  0  0  # atno 10167 bound_to 10162
  157.6920  131.0592  150.4562 H   0  0  0  0  0  0  0  0  0  0  0  0  # atno 10718 bound_to 10713
  154.5743  135.5595  153.7125 H   0  0  0  0  0  0  0  0  0  0  0  0  # atno 10763 bound_to 10752
  153.0059  135.6304  154.2070 H   0  0  0  0  0  0  0  0  0  0  0  0  # atno 10764 bound_to 10752
  154.2011  135.2878  155.2970 H   0  0  0  0  0  0  0  0  0  0  0  0  # atno 10765 bound_to 10752
  141.1337  133.8262  157.0869 H   0  0  0  0  0  0  0  0  0  0  0  0  # atno 11005 bound_to 11000
  144.6837  140.2752  143.7300 LP  0  0  0  0  0  0  0  0  0  0  0  0  # atno 17320 bound_to 7965
  145.7903  139.1924  143.2106 LP  0  0  0  0  0  0  0  0  0  0  0  0  # atno 17321 bound_to 7965
  139.7229  144.7599  151.0926 LP  0  0  0  0  0  0  0  0  0  0  0  0  # atno 17342 bound_to 10162
  140.7751  143.5185  150.9565 LP  0  0  0  0  0  0  0  0  0  0  0  0  # atno 17343 bound_to 10162
  156.4909  130.4095  149.6407 LP  0  0  0  0  0  0  0  0  0  0  0  0  # atno 17370 bound_to 10713
  156.3418  130.7386  151.2332 LP  0  0  0  0  0  0  0  0  0  0  0  0  # atno 17371 bound_to 10713
  140.0416  134.9851  157.0973 LP  0  0  0  0  0  0  0  0  0  0  0  0  # atno 17394 bound_to 11000
  140.4126  134.1965  155.7163 LP  0  0  0  0  0  0  0  0  0  0  0  0  # atno 17395 bound_to 11000

$$$$
