AV-unprocessed.smi:174|AV-procd|sdf|1425|dock10
  -GOLD-   2262019203D 1   1.00000     0.00000
 Structure written by MMmdl.
 51 54  0  0  0  0  0  0  0  0  1 V2000
  149.7380  144.8088  159.3903 N   0  0  0  0  0  0  0  0  0  0  0  0
  151.0172  145.1250  159.6193 C   0  0  0  0  0  0  0  0  0  0  0  0
  151.4983  146.1815  159.2170 O   0  0  0  0  0  0  0  0  0  0  0  0
  151.9020  144.1426  160.4069 C   0  0  0  0  0  0  0  0  0  0  0  0
  152.1247  142.8390  159.7567 N   0  0  0  0  0  0  0  0  0  0  0  0
  151.6227  142.6942  158.3858 C   0  0  0  0  0  0  0  0  0  0  0  0
  151.1795  141.2598  158.0817 C   0  0  0  0  0  0  0  0  0  0  0  0
  152.2495  140.3228  158.4010 N   0  0  0  0  0  0  0  0  0  0  0  0
  152.2629  139.0833  157.8348 C   0  0  0  0  0  0  0  0  0  0  0  0
  153.3747  138.7209  157.1404 N   0  0  0  0  0  0  0  0  0  0  0  0
  153.4559  137.5250  156.5518 C   0  0  0  0  0  0  0  0  0  0  0  0
  152.5538  136.5441  156.5310 N   0  0  0  0  0  0  0  0  0  0  0  0
  151.4364  136.8897  157.2307 C   0  0  0  0  0  0  0  0  0  0  0  0
  151.2059  138.1232  157.9084 C   0  0  0  0  0  0  0  0  0  0  0  0
  149.9536  138.0849  158.5159 N   0  0  0  0  0  0  0  0  0  0  0  0
  149.4713  136.9138  158.2035 C   0  0  0  0  0  0  0  0  0  0  0  0
  150.2976  136.1317  157.4323 N   0  0  0  0  0  0  0  0  0  0  0  0
  150.0216  134.7938  156.9403 C   0  0  0  0  0  0  0  0  0  0  0  0
  149.9196  134.7451  155.4038 C   0  0  2  0  0  0  0  0  0  0  0  0
  149.2027  135.8641  154.9166 O   0  0  0  0  0  0  0  0  0  0  0  0
  149.2989  133.4310  154.8878 C   0  0  2  0  0  0  0  0  0  0  0  0
  149.1808  133.2818  153.3688 C   0  0  0  0  0  0  0  0  0  0  0  0
  148.0806  132.2497  153.2603 C   0  0  0  0  0  0  0  0  0  0  0  0
  147.1506  132.6650  154.3978 C   0  0  0  0  0  0  0  0  0  0  0  0
  147.9906  133.2132  155.4107 O   0  0  0  0  0  0  0  0  0  0  0  0
  152.9977  140.4942  159.6571 C   0  0  0  0  0  0  0  0  0  0  0  0
  152.8104  141.8452  160.3730 C   0  0  0  0  0  0  0  0  0  0  0  0
  153.2918  141.9721  161.4989 O   0  0  0  0  0  0  0  0  0  0  0  0
  149.1515  145.4436  158.8682 H   0  0  0  0  0  0  0  0  0  0  0  0
  149.3648  143.9355  159.7327 H   0  0  0  0  0  0  0  0  0  0  0  0
  152.8568  144.6297  160.6129 H   0  0  0  0  0  0  0  0  0  0  0  0
  151.4475  143.9962  161.3872 H   0  0  0  0  0  0  0  0  0  0  0  0
  150.7888  143.3714  158.1993 H   0  0  0  0  0  0  0  0  0  0  0  0
  152.4177  142.9879  157.6989 H   0  0  0  0  0  0  0  0  0  0  0  0
  150.2904  141.0069  158.6615 H   0  0  0  0  0  0  0  0  0  0  0  0
  150.9168  141.2005  157.0250 H   0  0  0  0  0  0  0  0  0  0  0  0
  154.3757  137.3267  156.0216 H   0  0  0  0  0  0  0  0  0  0  0  0
  148.4935  136.5874  158.5266 H   0  0  0  0  0  0  0  0  0  0  0  0
  150.8162  134.1321  157.2874 H   0  0  0  0  0  0  0  0  0  0  0  0
  149.0974  134.4389  157.3982 H   0  0  0  0  0  0  0  0  0  0  0  0
  150.9257  134.8198  154.9890 H   0  0  0  0  0  0  0  0  0  0  0  0
  149.3146  135.9064  153.9793 H   0  0  0  0  0  0  0  0  0  0  0  0
  149.9056  132.6014  155.2546 H   0  0  0  0  0  0  0  0  0  0  0  0
  148.8574  134.2093  152.8955 H   0  0  0  0  0  0  0  0  0  0  0  0
  150.1129  132.9660  152.8995 H   0  0  0  0  0  0  0  0  0  0  0  0
  147.5885  132.2449  152.2874 H   0  0  0  0  0  0  0  0  0  0  0  0
  148.4814  131.2523  153.4469 H   0  0  0  0  0  0  0  0  0  0  0  0
  146.4645  133.4432  154.0605 H   0  0  0  0  0  0  0  0  0  0  0  0
  146.5581  131.8321  154.7774 H   0  0  0  0  0  0  0  0  0  0  0  0
  152.7191  139.6990  160.3507 H   0  0  0  0  0  0  0  0  0  0  0  0
  154.0649  140.3862  159.4589 H   0  0  0  0  0  0  0  0  0  0  0  0
  1  2  1  0  0  0  0
  1 29  1  0  0  0  0
  1 30  1  0  0  0  0
  2  3  2  0  0  0  0
  2  4  1  0  0  0  0
  4  5  1  0  0  0  0
  4 31  1  0  0  0  0
  4 32  1  0  0  0  0
  5 27  1  0  0  0  0
  5  6  1  0  0  0  0
  6  7  1  0  0  0  0
  6 33  1  0  0  0  0
  6 34  1  0  0  0  0
  7  8  1  0  0  0  0
  7 35  1  0  0  0  0
  7 36  1  0  0  0  0
  8  9  1  0  0  0  0
  8 26  1  0  0  0  0
  9 14  1  0  0  0  0
  9 10  2  0  0  0  0
 10 11  1  0  0  0  0
 11 12  2  0  0  0  0
 11 37  1  0  0  0  0
 12 13  1  0  0  0  0
 13 17  1  0  0  0  0
 13 14  2  0  0  0  0
 14 15  1  0  0  0  0
 15 16  2  0  0  0  0
 16 17  1  0  0  0  0
 16 38  1  0  0  0  0
 17 18  1  0  0  0  0
 18 19  1  0  0  0  0
 18 39  1  0  0  0  0
 18 40  1  0  0  0  0
 19 20  1  0  0  0  0
 19 21  1  0  0  0  0
 19 41  1  0  0  0  0
 20 42  1  0  0  0  0
 21 25  1  0  0  0  0
 21 22  1  0  0  0  0
 21 43  1  0  0  0  0
 22 23  1  0  0  0  0
 22 44  1  0  0  0  0
 22 45  1  0  0  0  0
 23 24  1  0  0  0  0
 23 46  1  0  0  0  0
 23 47  1  0  0  0  0
 24 25  1  0  0  0  0
 24 48  1  0  0  0  0
 24 49  1  0  0  0  0
 26 27  1  0  0  0  0
 26 50  1  0  0  0  0
 26 51  1  0  0  0  0
 27 28  2  0  0  0  0
M  END
> <s_m_source_file>
AV-unprocessed.smi

> <i_m_source_file_index>
174

> <i_lp_mmshare_version>
43012

> <i_f3d_flags>
0

> <s_epik_input>
W05IMl1DKD1PKVtDSDJdTjFbQ0gyXVtDSDJdTihbQ0gyXUMxPU8pYyhuW2NIXW4yKWMoYzIzKW5bY0hdbjNbQ0gyXVtDQEhdKFtPSF0pW0NAQEhdNFtDSDJdW0NIMl1bQ0gyXU80

> <s_epik_cmdline>
J2VwaWtfcHl0aG9uJywgJy1waCcsICc3LjAnLCAnLXRuJywgJzgnLCAnLW1hJywgJzIwMCcsICctbWV0YWxfYmluZGluZycsICctaW1hZScsICc8aW5maWxlLm1hZT4nLCAnLW9tYWUnLCAnPG91dGZpbGUubWFlPic=

> <r_lp_tautomer_probability>
1

> <r_epik_Ionization_Penalty>
0.000250477

> <r_epik_Ionization_Penalty_Charging>
0

> <r_epik_Ionization_Penalty_Neutral>
0.000250477

> <r_epik_State_Penalty>
-0

> <r_epik_Charging_Adjusted_Penalty>
0

> <i_epik_Tot_Q>
0

> <i_epik_Tot_abs_Q>
0

> <r_epik_Metal_State_Penalty>
-0

> <b_epik_Metal_Only>
0

> <s_lp_Force_Field>
OPLS_2005

> <r_lp_Energy>
38.8972

> <b_lp_Chiralities_Consistent>
1

> <s_lp_Variant>
AV-unprocessed.smi:174-1

> <Gold.Version>
5.8.1

> <Gold.Id.Protein>
6NUR|6NUR_protein|mol2

> <Gold.PLP.Fitness>
51.5218

> <Gold.PLP.PLP>
-42.2713

> <Gold.PLP.part.hbond>
-5.4552

> <Gold.PLP.part.metal>
0.0000

> <Gold.PLP.part.buried>
-3.0088

> <Gold.PLP.part.nonpolar>
-33.8329

> <Gold.PLP.part.repulsive>
0.4353

> <Gold.PLP.ligand.clash>
0.0000

> <Gold.PLP.ligand.torsion>
1.4577

> <Gold.PLP.Chemscore.Hbond>
3.9663

> <Gold.PLP.Chemscore.CHOScore>
0.0000

> <Gold.PLP.Chemscore.Metal>
0.0000

> <Gold.Chemscore.Hbonds>
donor molecule, donor type, donor heavy atom, donor atom, acceptor molecule, acceptor atom, score
      L1  H     1    29       P1  8029  0.86
      L1  H    20    42       P1  7948  0.71
      P1  H  7997  8008       L1    10  1.00
      P1  H 10752 10763       L1    12  1.00

> <Gold.PLP.Chemscore.Internal.Correction>
0.2672

> <Gold.Rescore>
     Score         DG    S(hbond)    S(metal)    S(lipo)     H(rot)  DE(clash)    DE(int)     intcor
      9.62     -13.86       2.78        0.00      67.87       3.46       1.68       2.56       ----

> <Gold.Chemscore.Fitness>
9.6152

> <Gold.Chemscore.DG>
-13.8561

> <Gold.Chemscore.ZeroCoef>
-5.4800

> <Gold.Chemscore.Hbond>
2.7818

> <Gold.Chemscore.Metal>
0.0000

> <Gold.Chemscore.Lipo>
67.8653

> <Gold.Chemscore.Internal_Hbond>
0.0000

> <Gold.Chemscore.DEClash>
1.6771

> <Gold.Chemscore.DEInternal>
2.5638

> <Gold.Chemscore.Rot>
3.4591

> <Gold.Chemscore.Internal.Correction>
   9.000000E+99

> <Gold.Chemscore.Hbonds>
donor molecule, donor type, donor heavy atom, donor atom, acceptor molecule, acceptor atom, score
      L1  H     1    29       P1  8029  0.82
      L1  H    20    42       P1  7948  0.53
      P1  H  7997  8008       L1    10  0.86
      P1  H 10752 10763       L1    12  0.34

> <Gold.Chemscore.Hbond.Weighted>
-9.2912

> <Gold.Chemscore.Metal.Weighted>
-0.0000

> <Gold.Chemscore.Lipo.Weighted>
-7.9402

> <Gold.Chemscore.Internal_Hbond.Weighted>
0.0000

> <Gold.Chemscore.DEClash.Weighted>
1.6771

> <Gold.Chemscore.DEInternal.Weighted>
2.5638

> <Gold.Chemscore.Rot.Weighted>
8.8553

> <Gold.Chemscore.Internal.Correction.Weighted>
   9.000000E+99

> <Gold.Protein.RotatedTorsions>
[ 6907 6896 6895 6894 ] final  132.83 input  -60.11 | X-H torsion
[ 7974 7965 7964 7962 ] final  149.04 input  175.53 | X-H torsion
[ 8008 7997 7996 7995 ] final  -70.92 input   59.86 | X-H torsion
[ 10167 10162 10161 10158 ] final  -48.28 input  -65.29 | X-H torsion
[ 10718 10713 10712 10709 ] final  121.59 input   66.30 | X-H torsion
[ 10763 10752 10751 10750 ] final   91.24 input  -60.55 | X-H torsion
[ 11005 11000 10999 10996 ] final   52.25 input  -57.11 | X-H torsion

> <Gold.Protein.ActiveResidues>
 VAL166  LYS551  ARG553  GLY616  TRP617  ASP618  TYR619  PRO620  LYS621  CYS622 
 ASP623  PHE694  ASN695  SER759  ASP760  ASP761  ALA762  ILE779  LEU786  VAL792 
 PHE793  MET794  SER795  GLU796  ALA797  LYS798  CYS799  TRP800  GLU811  SER814 

> <Gold.Protein.RotatedAtoms>
  152.3283  133.5930  159.5791 H   0  0  0  0  0  0  0  0  0  0  0  0  # atno 6907 bound_to 6896
  150.7409  133.9906  159.3614 H   0  0  0  0  0  0  0  0  0  0  0  0  # atno 6908 bound_to 6896
  151.7783  135.0769  160.0421 H   0  0  0  0  0  0  0  0  0  0  0  0  # atno 6909 bound_to 6896
  144.8468  139.6230  143.5992 H   0  0  0  0  0  0  0  0  0  0  0  0  # atno 7974 bound_to 7965
  154.5048  140.0825  156.7872 H   0  0  0  0  0  0  0  0  0  0  0  0  # atno 8008 bound_to 7997
  155.3918  140.3433  155.4233 H   0  0  0  0  0  0  0  0  0  0  0  0  # atno 8009 bound_to 7997
  156.1502  140.1556  156.8769 H   0  0  0  0  0  0  0  0  0  0  0  0  # atno 8010 bound_to 7997
  140.6738  143.2747  151.4047 H   0  0  0  0  0  0  0  0  0  0  0  0  # atno 10167 bound_to 10162
  157.5806  131.1075  150.8195 H   0  0  0  0  0  0  0  0  0  0  0  0  # atno 10718 bound_to 10713
  153.2061  135.4405  155.0324 H   0  0  0  0  0  0  0  0  0  0  0  0  # atno 10763 bound_to 10752
  154.8174  135.3321  154.7139 H   0  0  0  0  0  0  0  0  0  0  0  0  # atno 10764 bound_to 10752
  153.7581  135.6993  153.4987 H   0  0  0  0  0  0  0  0  0  0  0  0  # atno 10765 bound_to 10752
  140.0865  134.5267  155.8894 H   0  0  0  0  0  0  0  0  0  0  0  0  # atno 11005 bound_to 11000
  146.2751  139.6732  142.9269 LP  0  0  0  0  0  0  0  0  0  0  0  0  # atno 17320 bound_to 7965
  145.4581  141.0431  143.2767 LP  0  0  0  0  0  0  0  0  0  0  0  0  # atno 17321 bound_to 7965
  139.6020  144.1276  152.2208 LP  0  0  0  0  0  0  0  0  0  0  0  0  # atno 17342 bound_to 10162
  140.0663  144.5815  150.7225 LP  0  0  0  0  0  0  0  0  0  0  0  0  # atno 17343 bound_to 10162
  156.8642  130.5123  149.5301 LP  0  0  0  0  0  0  0  0  0  0  0  0  # atno 17370 bound_to 10713
  156.0852  130.5852  150.9634 LP  0  0  0  0  0  0  0  0  0  0  0  0  # atno 17371 bound_to 10713
  141.2064  133.6655  156.6240 LP  0  0  0  0  0  0  0  0  0  0  0  0  # atno 17394 bound_to 11000
  140.3413  134.7846  157.4400 LP  0  0  0  0  0  0  0  0  0  0  0  0  # atno 17395 bound_to 11000

$$$$
