AV-unprocessed.smi:157|AV-procd|sdf|1305|dock9
  -GOLD-   2262018593D 1   1.00000     0.00000
 Structure written by MMmdl.
 35 37  0  0  0  0  0  0  0  0  1 V2000
  151.9236  137.3162  154.7642 O   0  0  0  0  0  0  0  0  0  0  0  0
  150.9175  138.1901  154.2981 C   0  0  0  0  0  0  0  0  0  0  0  0
  150.6915  139.3316  155.3047 C   0  0  1  0  0  0  0  0  0  0  0  0
  151.8958  140.0505  155.5439 O   0  0  0  0  0  0  0  0  0  0  0  0
  151.6017  141.3316  156.0210 C   0  0  2  0  0  0  0  0  0  0  0  0
  151.9238  141.3940  157.4852 N   0  0  0  0  0  0  0  0  0  0  0  0
  152.4339  140.4124  158.2420 C   0  0  0  0  0  0  0  0  0  0  0  0
  152.6146  140.7344  159.5112 N   0  0  0  0  0  0  0  0  0  0  0  0
  152.1916  142.0615  159.5857 C   0  0  0  0  0  0  0  0  0  0  0  0
  151.7400  142.4831  158.3427 C   0  0  0  0  0  0  0  0  0  0  0  0
  151.1926  143.6377  157.8126 N   0  0  0  0  0  0  0  0  0  0  0  0
  150.8235  144.5852  158.6174 C   0  0  0  0  0  0  0  0  0  0  0  0
  150.9617  144.7144  159.9928 N   0  0  0  0  0  0  0  0  0  0  0  0
  152.1521  144.3195  160.7208 C   0  0  0  0  0  0  0  0  0  0  0  0
  152.2419  142.8029  160.8918 C   0  0  2  0  0  0  0  0  0  0  0  0
  153.4779  142.4951  161.5049 O   0  0  0  0  0  0  0  0  0  0  0  0
  150.0997  141.5748  155.8049 C   0  0  0  0  0  0  0  0  0  0  0  0
  149.6945  140.4250  154.9015 C   0  0  1  0  0  0  0  0  0  0  0  0
  149.8201  140.7890  153.5397 O   0  0  0  0  0  0  0  0  0  0  0  0
  150.3752  138.9076  156.2596 H   0  0  0  0  0  0  0  0  0  0  0  0
  152.2496  142.0715  155.5497 H   0  0  0  0  0  0  0  0  0  0  0  0
  151.4385  142.4590  161.5442 H   0  0  0  0  0  0  0  0  0  0  0  0
  148.6642  140.1149  155.0795 H   0  0  0  0  0  0  0  0  0  0  0  0
  151.7308  137.0884  155.6609 H   0  0  0  0  0  0  0  0  0  0  0  0
  151.2369  138.5998  153.3396 H   0  0  0  0  0  0  0  0  0  0  0  0
  150.0005  137.6304  154.1128 H   0  0  0  0  0  0  0  0  0  0  0  0
  152.6772  139.4325  157.8584 H   0  0  0  0  0  0  0  0  0  0  0  0
  150.3264  145.4564  158.1883 H   0  0  0  0  0  0  0  0  0  0  0  0
  150.4580  145.4507  160.4661 H   0  0  0  0  0  0  0  0  0  0  0  0
  153.0278  144.6915  160.1862 H   0  0  0  0  0  0  0  0  0  0  0  0
  152.1471  144.8090  161.6950 H   0  0  0  0  0  0  0  0  0  0  0  0
  153.3324  142.4130  162.4354 H   0  0  0  0  0  0  0  0  0  0  0  0
  149.5715  141.5052  156.7576 H   0  0  0  0  0  0  0  0  0  0  0  0
  149.9170  142.5624  155.3790 H   0  0  0  0  0  0  0  0  0  0  0  0
  149.6124  140.0347  153.0095 H   0  0  0  0  0  0  0  0  0  0  0  0
  1  2  1  0  0  0  0
  1 24  1  0  0  0  0
  2  3  1  0  0  0  0
  2 25  1  0  0  0  0
  2 26  1  0  0  0  0
  3 20  1  0  0  0  0
  3 18  1  0  0  0  0
  3  4  1  0  0  0  0
  4  5  1  0  0  0  0
  5 21  1  0  0  0  0
  5  6  1  0  0  0  0
  5 17  1  0  0  0  0
  6 10  1  0  0  0  0
  6  7  1  0  0  0  0
  7  8  2  0  0  0  0
  7 27  1  0  0  0  0
  8  9  1  0  0  0  0
  9 15  1  0  0  0  0
  9 10  2  0  0  0  0
 10 11  1  0  0  0  0
 11 12  2  0  0  0  0
 12 13  1  0  0  0  0
 12 28  1  0  0  0  0
 13 14  1  0  0  0  0
 13 29  1  0  0  0  0
 14 15  1  0  0  0  0
 14 30  1  0  0  0  0
 14 31  1  0  0  0  0
 15 22  1  0  0  0  0
 15 16  1  0  0  0  0
 16 32  1  0  0  0  0
 17 18  1  0  0  0  0
 17 33  1  0  0  0  0
 17 34  1  0  0  0  0
 18 23  1  0  0  0  0
 18 19  1  0  0  0  0
 19 35  1  0  0  0  0
M  END
> <s_m_source_file>
AV-unprocessed.smi

> <i_m_source_file_index>
157

> <i_lp_mmshare_version>
43012

> <i_f3d_flags>
0

> <s_epik_input>
W09IXVtDSDJdW0NASF0xT1tDQEhdKFtDSDJdW0NAQEhdMVtPSF0pbihbY0hdbjIpYyhjMjMpTj1bQ0hdW05IXVtDSDJdW0NASF0zW09IXQ==

> <s_epik_cmdline>
J2VwaWtfcHl0aG9uJywgJy1waCcsICc3LjAnLCAnLXRuJywgJzgnLCAnLW1hJywgJzIwMCcsICctbWV0YWxfYmluZGluZycsICctaW1hZScsICc8aW5maWxlLm1hZT4nLCAnLW9tYWUnLCAnPG91dGZpbGUubWFlPic=

> <r_lp_tautomer_probability>
1

> <r_epik_Ionization_Penalty>
0.0357149

> <r_epik_Ionization_Penalty_Charging>
0.0355056

> <r_epik_Ionization_Penalty_Neutral>
0.000209255

> <r_epik_State_Penalty>
0.0296046

> <r_epik_Charging_Adjusted_Penalty>
0.0651102

> <i_epik_Tot_Q>
0

> <i_epik_Tot_abs_Q>
0

> <r_epik_Metal_State_Penalty>
3.03559e-05

> <b_epik_Metal_Only>
0

> <s_epik_Chemistry_Notes>
This compound has an imine and may undergo hydrolysis. This compound contains an acetal/aminal-like group ( X-CH(R)-Y where X, Y are N, S, or O) that may be acid/base labile, releasing an aldehyde.

> <s_lp_Force_Field>
OPLS_2005

> <r_lp_Energy>
41.6449

> <b_lp_Chiralities_Consistent>
1

> <s_lp_Variant>
AV-unprocessed.smi:157-15

> <Gold.Version>
5.8.1

> <Gold.Id.Protein>
6NUR|6NUR_protein|mol2

> <Gold.PLP.Fitness>
45.6032

> <Gold.PLP.PLP>
-34.5793

> <Gold.PLP.part.hbond>
-4.5471

> <Gold.PLP.part.metal>
0.0000

> <Gold.PLP.part.buried>
-6.8248

> <Gold.PLP.part.nonpolar>
-23.0382

> <Gold.PLP.part.repulsive>
0.3007

> <Gold.PLP.ligand.clash>
0.0000

> <Gold.PLP.ligand.torsion>
0.0091

> <Gold.PLP.Chemscore.Hbond>
2.6776

> <Gold.PLP.Chemscore.CHOScore>
1.0009

> <Gold.PLP.Chemscore.Metal>
0.0000

> <Gold.Chemscore.Hbonds>
donor molecule, donor type, donor heavy atom, donor atom, acceptor molecule, acceptor atom, score
      L1  H    19    35       P1  7957  0.48
      P1  H  7989  7998       L1    19  0.35
      P1  H  8011  8017       L1    19  1.00
      P1  H 10752 10765       L1     1  0.83
      L1  C    12    28       P1  8029  0.74

> <Gold.PLP.Chemscore.Internal.Correction>
0.0067

> <Gold.Rescore>
     Score         DG    S(hbond)    S(metal)    S(lipo)     H(rot)  DE(clash)    DE(int)     intcor
      8.96      -9.02       1.74        0.00      60.13       3.64       0.04       0.03       ----

> <Gold.Chemscore.Fitness>
8.9609

> <Gold.Chemscore.DG>
-9.0245

> <Gold.Chemscore.ZeroCoef>
-5.4800

> <Gold.Chemscore.Hbond>
1.7418

> <Gold.Chemscore.Metal>
0.0000

> <Gold.Chemscore.Lipo>
60.1334

> <Gold.Chemscore.Internal_Hbond>
0.0000

> <Gold.Chemscore.DEClash>
0.0352

> <Gold.Chemscore.DEInternal>
0.0285

> <Gold.Chemscore.Rot>
3.6362

> <Gold.Chemscore.Internal.Correction>
   9.000000E+99

> <Gold.Chemscore.Hbonds>
donor molecule, donor type, donor heavy atom, donor atom, acceptor molecule, acceptor atom, score
      L1  H    19    35       P1  7957  0.48
      P1  H  7989  7998       L1    19  0.04
      P1  H  8011  8017       L1    19  0.60
      P1  H 10752 10765       L1     1  0.23

> <Gold.Chemscore.Hbond.Weighted>
-5.8176

> <Gold.Chemscore.Metal.Weighted>
-0.0000

> <Gold.Chemscore.Lipo.Weighted>
-7.0356

> <Gold.Chemscore.Internal_Hbond.Weighted>
0.0000

> <Gold.Chemscore.DEClash.Weighted>
0.0352

> <Gold.Chemscore.DEInternal.Weighted>
0.0285

> <Gold.Chemscore.Rot.Weighted>
9.3087

> <Gold.Chemscore.Internal.Correction.Weighted>
   9.000000E+99

> <Gold.Protein.RotatedTorsions>
[ 6907 6896 6895 6894 ] final -171.33 input  -60.11 | X-H torsion
[ 7974 7965 7964 7962 ] final -106.68 input  175.53 | X-H torsion
[ 8008 7997 7996 7995 ] final  -49.91 input   59.86 | X-H torsion
[ 10167 10162 10161 10158 ] final -164.28 input  -65.29 | X-H torsion
[ 10718 10713 10712 10709 ] final   34.21 input   66.30 | X-H torsion
[ 10763 10752 10751 10750 ] final  154.00 input  -60.55 | X-H torsion
[ 11005 11000 10999 10996 ] final  -96.24 input  -57.11 | X-H torsion

> <Gold.Protein.ActiveResidues>
 VAL166  LYS551  ARG553  GLY616  TRP617  ASP618  TYR619  PRO620  LYS621  CYS622 
 ASP623  PHE694  ASN695  SER759  ASP760  ASP761  ALA762  ILE779  LEU786  VAL792 
 PHE793  MET794  SER795  GLU796  ALA797  LYS798  CYS799  TRP800  GLU811  SER814 

> <Gold.Protein.RotatedAtoms>
  151.5221  133.3464  159.2902 H   0  0  0  0  0  0  0  0  0  0  0  0  # atno 6907 bound_to 6896
  150.8646  134.8009  159.7120 H   0  0  0  0  0  0  0  0  0  0  0  0  # atno 6908 bound_to 6896
  152.4655  134.5095  159.9801 H   0  0  0  0  0  0  0  0  0  0  0  0  # atno 6909 bound_to 6896
  145.2148  140.9111  143.3293 H   0  0  0  0  0  0  0  0  0  0  0  0  # atno 7974 bound_to 7965
  154.4052  140.1285  156.4580 H   0  0  0  0  0  0  0  0  0  0  0  0  # atno 8008 bound_to 7997
  155.7301  140.3491  155.5035 H   0  0  0  0  0  0  0  0  0  0  0  0  # atno 8009 bound_to 7997
  155.9135  140.1040  157.1251 H   0  0  0  0  0  0  0  0  0  0  0  0  # atno 8010 bound_to 7997
  139.6261  144.0529  152.1976 H   0  0  0  0  0  0  0  0  0  0  0  0  # atno 10167 bound_to 10162
  157.3075  130.7382  149.6704 H   0  0  0  0  0  0  0  0  0  0  0  0  # atno 10718 bound_to 10713
  154.1452  135.2818  155.3150 H   0  0  0  0  0  0  0  0  0  0  0  0  # atno 10763 bound_to 10752
  154.6258  135.5452  153.7628 H   0  0  0  0  0  0  0  0  0  0  0  0  # atno 10764 bound_to 10752
  153.0238  135.6450  154.1598 H   0  0  0  0  0  0  0  0  0  0  0  0  # atno 10765 bound_to 10752
  141.1417  133.8083  157.0544 H   0  0  0  0  0  0  0  0  0  0  0  0  # atno 11005 bound_to 11000
  144.9821  139.3773  143.6257 LP  0  0  0  0  0  0  0  0  0  0  0  0  # atno 17320 bound_to 7965
  146.3389  139.8966  142.8801 LP  0  0  0  0  0  0  0  0  0  0  0  0  # atno 17321 bound_to 7965
  140.0183  144.6172  150.7588 LP  0  0  0  0  0  0  0  0  0  0  0  0  # atno 17342 bound_to 10162
  140.7412  143.2814  151.3586 LP  0  0  0  0  0  0  0  0  0  0  0  0  # atno 17343 bound_to 10162
  155.9675  130.4261  150.4684 LP  0  0  0  0  0  0  0  0  0  0  0  0  # atno 17370 bound_to 10713
  157.2677  131.0580  151.2280 LP  0  0  0  0  0  0  0  0  0  0  0  0  # atno 17371 bound_to 10713
  140.0611  134.9754  157.1306 LP  0  0  0  0  0  0  0  0  0  0  0  0  # atno 17394 bound_to 11000
  140.3847  134.2249  155.7169 LP  0  0  0  0  0  0  0  0  0  0  0  0  # atno 17395 bound_to 11000

$$$$
