AV-unprocessed.smi:1145|AV-procd|sdf|4884|dock1
  -GOLD-   22720 3453D 1   1.00000     0.00000
 Structure written by MMmdl.
 36 37  0  0  0  0  0  0  0  0  1 V2000
  151.3741  139.8850  155.4604 C   0  0  0  0  0  0  0  0  0  0  0  0
  150.8911  141.1547  156.1744 C   0  0  2  0  0  0  0  0  0  0  0  0
  151.3191  141.1630  157.6577 C   0  0  0  0  0  0  0  0  0  0  0  0
  151.6993  142.4859  158.1229 N   0  0  0  0  0  0  0  0  0  0  0  0
  151.5366  143.6972  157.4842 C   0  0  0  0  0  0  0  0  0  0  0  0
  152.0263  144.6634  158.3154 C   0  0  0  0  0  0  0  0  0  0  0  0
  152.4751  143.9354  159.4527 C   0  0  0  0  0  0  0  0  0  0  0  0
  152.2829  142.6319  159.3325 N   0  0  0  0  0  0  0  0  0  0  0  0
  149.4366  141.2444  156.0553 N   0  0  0  0  0  0  0  0  0  0  0  0
  148.7521  141.4170  154.9129 C   0  0  0  0  0  0  0  0  0  0  0  0
  149.2855  141.4626  153.8037 O   0  0  0  0  0  0  0  0  0  0  0  0
  147.2343  141.5936  155.0497 C   0  0  1  0  0  0  0  0  0  0  0  0
  146.8832  142.2304  156.4042 C   0  0  0  0  0  0  0  0  0  0  0  0
  145.3615  142.3545  156.5796 C   0  0  0  0  0  0  0  0  0  0  0  0
  144.6462  142.9145  155.3408 C   0  0  0  0  0  0  0  0  0  0  0  0
  143.5032  143.3529  155.4497 O   0  0  0  0  0  0  0  0  0  0  0  0
  145.2747  142.8794  154.1524 N   0  0  0  0  0  0  0  0  0  0  0  0
  146.6571  142.4636  153.9127 C   0  0  0  0  0  0  0  0  0  0  0  0
  152.4596  139.7955  155.5124 H   0  0  0  0  0  0  0  0  0  0  0  0
  151.0962  139.8971  154.4061 H   0  0  0  0  0  0  0  0  0  0  0  0
  150.9450  138.9883  155.9092 H   0  0  0  0  0  0  0  0  0  0  0  0
  151.3590  142.0036  155.6724 H   0  0  0  0  0  0  0  0  0  0  0  0
  150.5187  140.7756  158.2905 H   0  0  0  0  0  0  0  0  0  0  0  0
  152.1751  140.5029  157.8027 H   0  0  0  0  0  0  0  0  0  0  0  0
  151.0843  143.7700  156.5060 H   0  0  0  0  0  0  0  0  0  0  0  0
  152.0563  145.7284  158.1392 H   0  0  0  0  0  0  0  0  0  0  0  0
  152.9321  144.3127  160.3556 H   0  0  0  0  0  0  0  0  0  0  0  0
  148.9113  141.2226  156.9173 H   0  0  0  0  0  0  0  0  0  0  0  0
  146.7628  140.6098  155.0033 H   0  0  0  0  0  0  0  0  0  0  0  0
  147.2946  141.6350  157.2208 H   0  0  0  0  0  0  0  0  0  0  0  0
  147.3388  143.2189  156.4861 H   0  0  0  0  0  0  0  0  0  0  0  0
  144.9386  141.3710  156.7872 H   0  0  0  0  0  0  0  0  0  0  0  0
  145.1357  142.9795  157.4444 H   0  0  0  0  0  0  0  0  0  0  0  0
  144.7661  143.2257  153.3515 H   0  0  0  0  0  0  0  0  0  0  0  0
  147.2489  143.3704  153.7786 H   0  0  0  0  0  0  0  0  0  0  0  0
  146.6979  141.9214  152.9674 H   0  0  0  0  0  0  0  0  0  0  0  0
  1  2  1  0  0  0  0
  1 19  1  0  0  0  0
  1 20  1  0  0  0  0
  1 21  1  0  0  0  0
  2  3  1  0  0  0  0
  2  9  1  0  0  0  0
  2 22  1  0  0  0  0
  3  4  1  0  0  0  0
  3 23  1  0  0  0  0
  3 24  1  0  0  0  0
  4  8  1  0  0  0  0
  4  5  1  0  0  0  0
  5  6  2  0  0  0  0
  5 25  1  0  0  0  0
  6  7  1  0  0  0  0
  6 26  1  0  0  0  0
  7  8  2  0  0  0  0
  7 27  1  0  0  0  0
  9 10  1  0  0  0  0
  9 28  1  0  0  0  0
 10 11  2  0  0  0  0
 10 12  1  0  0  0  0
 12 18  1  0  0  0  0
 12 13  1  0  0  0  0
 12 29  1  0  0  0  0
 13 14  1  0  0  0  0
 13 30  1  0  0  0  0
 13 31  1  0  0  0  0
 14 15  1  0  0  0  0
 14 32  1  0  0  0  0
 14 33  1  0  0  0  0
 15 16  2  0  0  0  0
 15 17  1  0  0  0  0
 17 18  1  0  0  0  0
 17 34  1  0  0  0  0
 18 35  1  0  0  0  0
 18 36  1  0  0  0  0
M  END
> <s_m_source_file>
AV-unprocessed.smi

> <i_m_source_file_index>
1145

> <i_lp_mmshare_version>
43012

> <i_f3d_flags>
0

> <s_epik_input>
bjFbY0hdW2NIXVtjSF1uMVtDSDJdW0NAQEhdKFtDSDNdKVtOSF1DKD1PKVtDQEBIXTJbQ0gyXVtDSDJdQyg9TylbTkhdW0NIMl0y

> <s_epik_cmdline>
J2VwaWtfcHl0aG9uJywgJy1waCcsICc3LjAnLCAnLXRuJywgJzgnLCAnLW1hJywgJzIwMCcsICctbWV0YWxfYmluZGluZycsICctaW1hZScsICc8aW5maWxlLm1hZT4nLCAnLW9tYWUnLCAnPG91dGZpbGUubWFlPic=

> <r_lp_tautomer_probability>
1

> <r_epik_Ionization_Penalty>
0.000314064

> <r_epik_Ionization_Penalty_Charging>
0

> <r_epik_Ionization_Penalty_Neutral>
0.000314064

> <r_epik_State_Penalty>
-0

> <r_epik_Charging_Adjusted_Penalty>
0

> <i_epik_Tot_Q>
0

> <i_epik_Tot_abs_Q>
0

> <r_epik_Metal_State_Penalty>
-0

> <b_epik_Metal_Only>
0

> <s_lp_Force_Field>
OPLS_2005

> <r_lp_Energy>
12.228

> <b_lp_Chiralities_Consistent>
1

> <s_lp_Variant>
AV-unprocessed.smi:1145-3

> <Gold.Version>
5.8.1

> <Gold.Id.Protein>
6NUR|6NUR_protein|mol2

> <Gold.PLP.Fitness>
39.9585

> <Gold.PLP.PLP>
-37.2428

> <Gold.PLP.part.hbond>
-2.2624

> <Gold.PLP.part.metal>
0.0000

> <Gold.PLP.part.buried>
-5.4720

> <Gold.PLP.part.nonpolar>
-30.2662

> <Gold.PLP.part.repulsive>
1.3353

> <Gold.PLP.ligand.clash>
0.0000

> <Gold.PLP.ligand.torsion>
1.3970

> <Gold.PLP.Chemscore.Hbond>
0.8270

> <Gold.PLP.Chemscore.CHOScore>
0.9993

> <Gold.PLP.Chemscore.Metal>
0.0000

> <Gold.Chemscore.Hbonds>
donor molecule, donor type, donor heavy atom, donor atom, acceptor molecule, acceptor atom, score
      P1  H  7989  7998       L1    11  0.02
      P1  H  8011  8017       L1    11  0.77
      L1  C     5    25       P1  8028  1.00

> <Gold.PLP.Chemscore.Internal.Correction>
0.0306

> <Gold.Rescore>
     Score         DG    S(hbond)    S(metal)    S(lipo)     H(rot)  DE(clash)    DE(int)     intcor
     11.29     -13.09       1.03        0.00      75.10       1.80       0.31       1.49       ----

> <Gold.Chemscore.Fitness>
11.2917

> <Gold.Chemscore.DG>
-13.0940

> <Gold.Chemscore.ZeroCoef>
-5.4800

> <Gold.Chemscore.Hbond>
1.0271

> <Gold.Chemscore.Metal>
0.0000

> <Gold.Chemscore.Lipo>
75.1034

> <Gold.Chemscore.Internal_Hbond>
0.0000

> <Gold.Chemscore.DEClash>
0.3144

> <Gold.Chemscore.DEInternal>
1.4878

> <Gold.Chemscore.Rot>
1.7982

> <Gold.Chemscore.Internal.Correction>
   9.000000E+99

> <Gold.Chemscore.Hbonds>
donor molecule, donor type, donor heavy atom, donor atom, acceptor molecule, acceptor atom, score
      P1  H  7989  7998       L1    11  0.02
      P1  H  8011  8017       L1    11  0.76

> <Gold.Chemscore.Hbond.Weighted>
-3.4304

> <Gold.Chemscore.Metal.Weighted>
-0.0000

> <Gold.Chemscore.Lipo.Weighted>
-8.7871

> <Gold.Chemscore.Internal_Hbond.Weighted>
0.0000

> <Gold.Chemscore.DEClash.Weighted>
0.3144

> <Gold.Chemscore.DEInternal.Weighted>
1.4878

> <Gold.Chemscore.Rot.Weighted>
4.6035

> <Gold.Chemscore.Internal.Correction.Weighted>
   9.000000E+99

> <Gold.Protein.RotatedTorsions>
[ 6907 6896 6895 6894 ] final  -86.73 input  -60.11 | X-H torsion
[ 7974 7965 7964 7962 ] final -179.65 input  175.53 | X-H torsion
[ 8008 7997 7996 7995 ] final   83.45 input   59.86 | X-H torsion
[ 10167 10162 10161 10158 ] final -146.79 input  -65.29 | X-H torsion
[ 10718 10713 10712 10709 ] final  143.09 input   66.30 | X-H torsion
[ 10763 10752 10751 10750 ] final  -22.61 input  -60.55 | X-H torsion
[ 11005 11000 10999 10996 ] final   31.48 input  -57.11 | X-H torsion

> <Gold.Protein.ActiveResidues>
 VAL166  LYS551  ARG553  GLY616  TRP617  ASP618  TYR619  PRO620  LYS621  CYS622 
 ASP623  PHE694  ASN695  SER759  ASP760  ASP761  ALA762  ILE779  LEU786  VAL792 
 PHE793  MET794  SER795  GLU796  ALA797  LYS798  CYS799  TRP800  GLU811  SER814 

> <Gold.Protein.RotatedAtoms>
  150.6866  134.3006  159.4704 H   0  0  0  0  0  0  0  0  0  0  0  0  # atno 6907 bound_to 6896
  152.0902  134.9410  160.0581 H   0  0  0  0  0  0  0  0  0  0  0  0  # atno 6908 bound_to 6896
  152.0729  133.4080  159.4504 H   0  0  0  0  0  0  0  0  0  0  0  0  # atno 6909 bound_to 6896
  144.7138  140.0685  143.6430 H   0  0  0  0  0  0  0  0  0  0  0  0  # atno 7974 bound_to 7965
  155.9241  140.3419  155.6196 H   0  0  0  0  0  0  0  0  0  0  0  0  # atno 8008 bound_to 7997
  155.7237  140.0787  157.2338 H   0  0  0  0  0  0  0  0  0  0  0  0  # atno 8009 bound_to 7997
  154.4074  140.1600  156.2418 H   0  0  0  0  0  0  0  0  0  0  0  0  # atno 8010 bound_to 7997
  139.7681  143.8278  152.2620 H   0  0  0  0  0  0  0  0  0  0  0  0  # atno 10167 bound_to 10162
  157.3730  131.0981  151.0810 H   0  0  0  0  0  0  0  0  0  0  0  0  # atno 10718 bound_to 10713
  153.6547  135.6979  153.5197 H   0  0  0  0  0  0  0  0  0  0  0  0  # atno 10763 bound_to 10752
  153.2679  135.4224  155.0958 H   0  0  0  0  0  0  0  0  0  0  0  0  # atno 10764 bound_to 10752
  154.8467  135.3571  154.6091 H   0  0  0  0  0  0  0  0  0  0  0  0  # atno 10765 bound_to 10752
  140.2835  134.2946  155.7794 H   0  0  0  0  0  0  0  0  0  0  0  0  # atno 11005 bound_to 11000
  145.9803  139.2936  143.1045 LP  0  0  0  0  0  0  0  0  0  0  0  0  # atno 17320 bound_to 7965
  145.9017  140.9238  143.0499 LP  0  0  0  0  0  0  0  0  0  0  0  0  # atno 17321 bound_to 7965
  139.8304  144.7256  150.9458 LP  0  0  0  0  0  0  0  0  0  0  0  0  # atno 17342 bound_to 10162
  140.7812  143.4075  151.1046 LP  0  0  0  0  0  0  0  0  0  0  0  0  # atno 17343 bound_to 10162
  157.1907  130.6351  149.5703 LP  0  0  0  0  0  0  0  0  0  0  0  0  # atno 17370 bound_to 10713
  155.9759  130.4723  150.6494 LP  0  0  0  0  0  0  0  0  0  0  0  0  # atno 17371 bound_to 10713
  141.2159  133.7540  156.9516 LP  0  0  0  0  0  0  0  0  0  0  0  0  # atno 17394 bound_to 11000
  140.1261  134.9386  157.2272 LP  0  0  0  0  0  0  0  0  0  0  0  0  # atno 17395 bound_to 11000

$$$$
