AV-unprocessed.smi:1015|AV-procd|sdf|4434|dock4
  -GOLD-   22720 2393D 1   1.00000     0.00000
 Structure written by MMmdl.
 43 44  0  0  0  0  0  0  0  0  2 V2000
  144.0534  132.7683  150.0784 C   0  0  0  0  0  0  0  0  0  0  0  0
  145.0796  132.7385  151.0550 O   0  0  0  0  0  0  0  0  0  0  0  0
  146.0404  133.7640  150.8666 C   0  0  0  0  0  0  0  0  0  0  0  0
  145.3185  135.1199  150.8263 C   0  0  0  0  0  0  0  0  0  0  0  0
  146.0473  136.1738  151.5777 N   0  3  2  0  0  0  0  0  0  0  0  0
  145.6916  136.1862  153.0192 C   0  0  0  0  0  0  0  0  0  0  0  0
  146.5669  137.1801  153.8002 C   0  0  0  0  0  0  0  0  0  0  0  0
  146.4696  138.6042  153.2153 C   0  0  1  0  0  0  0  0  0  0  0  0
  147.3751  139.6244  153.9377 C   0  0  0  0  0  0  0  0  0  0  0  0
  148.7866  139.4035  153.6428 N   0  0  0  0  0  0  0  0  0  0  0  0
  149.6509  138.7340  154.4218 C   0  0  0  0  0  0  0  0  0  0  0  0
  149.3288  138.1559  155.4593 O   0  0  0  0  0  0  0  0  0  0  0  0
  151.1141  138.7566  153.9832 C   0  0  0  0  0  0  0  0  0  0  0  0
  151.9832  138.5552  155.1269 N   0  0  0  0  0  0  0  0  0  0  0  0
  152.1867  139.3004  156.2150 C   0  0  0  0  0  0  0  0  0  0  0  0
  153.1045  138.7677  157.0074 N   0  0  0  0  0  0  0  0  0  0  0  0
  153.4705  137.6141  156.3344 N   0  0  0  0  0  0  0  0  0  0  0  0
  152.8095  137.4831  155.2172 N   0  0  0  0  0  0  0  0  0  0  0  0
  146.7963  138.5484  151.7127 C   0  0  0  0  0  0  0  0  0  0  0  0
  145.9130  137.5269  150.9774 C   0  0  0  0  0  0  0  0  0  0  0  0
  143.3476  131.9588  150.2641 H   0  0  0  0  0  0  0  0  0  0  0  0
  144.4603  132.6357  149.0752 H   0  0  0  0  0  0  0  0  0  0  0  0
  143.5026  133.7091  150.1119 H   0  0  0  0  0  0  0  0  0  0  0  0
  146.7961  133.7340  151.6516 H   0  0  0  0  0  0  0  0  0  0  0  0
  146.5594  133.6040  149.9203 H   0  0  0  0  0  0  0  0  0  0  0  0
  145.1687  135.4424  149.7951 H   0  0  0  0  0  0  0  0  0  0  0  0
  144.3233  134.9831  151.2516 H   0  0  0  0  0  0  0  0  0  0  0  0
  144.6366  136.4412  153.1344 H   0  0  0  0  0  0  0  0  0  0  0  0
  145.8243  135.1892  153.4410 H   0  0  0  0  0  0  0  0  0  0  0  0
  146.2550  137.1735  154.8450 H   0  0  0  0  0  0  0  0  0  0  0  0
  147.6048  136.8447  153.7855 H   0  0  0  0  0  0  0  0  0  0  0  0
  145.4370  138.9410  153.3216 H   0  0  0  0  0  0  0  0  0  0  0  0
  147.0751  140.6440  153.6895 H   0  0  0  0  0  0  0  0  0  0  0  0
  147.2487  139.5271  155.0164 H   0  0  0  0  0  0  0  0  0  0  0  0
  149.1484  139.8420  152.8081 H   0  0  0  0  0  0  0  0  0  0  0  0
  151.3005  137.9662  153.2549 H   0  0  0  0  0  0  0  0  0  0  0  0
  151.3549  139.7064  153.5030 H   0  0  0  0  0  0  0  0  0  0  0  0
  151.6757  140.2297  156.4189 H   0  0  0  0  0  0  0  0  0  0  0  0
  146.6611  139.5340  151.2657 H   0  0  0  0  0  0  0  0  0  0  0  0
  147.8463  138.2878  151.5715 H   0  0  0  0  0  0  0  0  0  0  0  0
  146.2000  137.5079  149.9269 H   0  0  0  0  0  0  0  0  0  0  0  0
  144.8686  137.8412  151.0124 H   0  0  0  0  0  0  0  0  0  0  0  0
  147.0256  135.9252  151.5340 H   0  0  0  0  0  0  0  0  0  0  0  0
  1  2  1  0  0  0  0
  1 21  1  0  0  0  0
  1 22  1  0  0  0  0
  1 23  1  0  0  0  0
  2  3  1  0  0  0  0
  3  4  1  0  0  0  0
  3 24  1  0  0  0  0
  3 25  1  0  0  0  0
  4  5  1  0  0  0  0
  4 26  1  0  0  0  0
  4 27  1  0  0  0  0
  5 20  1  0  0  0  0
  5  6  1  0  0  0  0
  5 43  1  0  0  0  0
  6  7  1  0  0  0  0
  6 28  1  0  0  0  0
  6 29  1  0  0  0  0
  7  8  1  0  0  0  0
  7 30  1  0  0  0  0
  7 31  1  0  0  0  0
  8  9  1  0  0  0  0
  8 19  1  0  0  0  0
  8 32  1  0  0  0  0
  9 10  1  0  0  0  0
  9 33  1  0  0  0  0
  9 34  1  0  0  0  0
 10 11  1  0  0  0  0
 10 35  1  0  0  0  0
 11 12  2  0  0  0  0
 11 13  1  0  0  0  0
 13 14  1  0  0  0  0
 13 36  1  0  0  0  0
 13 37  1  0  0  0  0
 14 18  1  0  0  0  0
 14 15  1  0  0  0  0
 15 16  2  0  0  0  0
 15 38  1  0  0  0  0
 16 17  1  0  0  0  0
 17 18  2  0  0  0  0
 19 20  1  0  0  0  0
 19 39  1  0  0  0  0
 19 40  1  0  0  0  0
 20 41  1  0  0  0  0
 20 42  1  0  0  0  0
M  CHG  1   5   1
M  END
> <s_m_source_file>
AV-unprocessed.smi

> <i_m_source_file_index>
1015

> <i_lp_mmshare_version>
43012

> <i_f3d_flags>
0

> <s_epik_input>
W0NIM11PW0NIMl1bQ0gyXU4xW0NIMl1bQ0gyXVtDSF0oW0NIMl1bQ0gyXTEpW0NIMl1bTkhdQyg9TylbQ0gyXW4yW2NIXW5ubjI=

> <s_epik_cmdline>
J2VwaWtfcHl0aG9uJywgJy1waCcsICc3LjAnLCAnLXRuJywgJzgnLCAnLW1hJywgJzIwMCcsICctbWV0YWxfYmluZGluZycsICctaW1hZScsICc8aW5maWxlLm1hZT4nLCAnLW9tYWUnLCAnPG91dGZpbGUubWFlPic=

> <r_lp_tautomer_probability>
1

> <r_epik_Ionization_Penalty>
0.0104119

> <r_epik_Ionization_Penalty_Charging>
0.0104107

> <r_epik_Ionization_Penalty_Neutral>
1.19574e-06

> <r_epik_State_Penalty>
0.00795975

> <r_epik_Charging_Adjusted_Penalty>
0.0183705

> <i_epik_Tot_Q>
1

> <i_epik_Tot_abs_Q>
1

> <r_epik_Metal_State_Penalty>
0.00795975

> <b_epik_Metal_Only>
0

> <s_lp_Force_Field>
OPLS_2005

> <r_lp_Energy>
21.2096

> <b_lp_Chiralities_Consistent>
1

> <s_lp_Variant>
AV-unprocessed.smi:1015-1

> <Gold.Version>
5.8.1

> <Gold.Id.Protein>
6NUR|6NUR_protein|mol2

> <Gold.PLP.Fitness>
43.1043

> <Gold.PLP.PLP>
-32.1186

> <Gold.PLP.part.hbond>
-4.8338

> <Gold.PLP.part.metal>
0.0000

> <Gold.PLP.part.buried>
0.9118

> <Gold.PLP.part.nonpolar>
-28.6233

> <Gold.PLP.part.repulsive>
0.3701

> <Gold.PLP.ligand.clash>
0.0000

> <Gold.PLP.ligand.torsion>
1.2434

> <Gold.PLP.Chemscore.Hbond>
4.4240

> <Gold.PLP.Chemscore.CHOScore>
0.0000

> <Gold.PLP.Chemscore.Metal>
0.0000

> <Gold.Chemscore.Hbonds>
donor molecule, donor type, donor heavy atom, donor atom, acceptor molecule, acceptor atom, score
      L1  H     5    43       P1  7948  2.00
      L1  H    10    35       P1  7957  1.00
      P1  H  7997  8010       L1    16  1.00
      P1  H 10752 10763       L1    18  0.43

> <Gold.PLP.Chemscore.Internal.Correction>
0.2005

> <Gold.Rescore>
     Score         DG    S(hbond)    S(metal)    S(lipo)     H(rot)  DE(clash)    DE(int)     intcor
     11.62     -14.47       2.79        0.00      66.98       3.19       1.47       1.38       ----

> <Gold.Chemscore.Fitness>
11.6200

> <Gold.Chemscore.DG>
-14.4730

> <Gold.Chemscore.ZeroCoef>
-5.4800

> <Gold.Chemscore.Hbond>
2.7934

> <Gold.Chemscore.Metal>
0.0000

> <Gold.Chemscore.Lipo>
66.9817

> <Gold.Chemscore.Internal_Hbond>
0.0000

> <Gold.Chemscore.DEClash>
1.4720

> <Gold.Chemscore.DEInternal>
1.3810

> <Gold.Chemscore.Rot>
3.1928

> <Gold.Chemscore.Internal.Correction>
   9.000000E+99

> <Gold.Chemscore.Hbonds>
donor molecule, donor type, donor heavy atom, donor atom, acceptor molecule, acceptor atom, score
      L1  H     5    43       P1  7948  0.97
      L1  H    10    35       P1  7957  0.99
      P1  H  7997  8010       L1    16  0.30
      P1  H 10752 10763       L1    18  0.27

> <Gold.Chemscore.Hbond.Weighted>
-9.3298

> <Gold.Chemscore.Metal.Weighted>
-0.0000

> <Gold.Chemscore.Lipo.Weighted>
-7.8369

> <Gold.Chemscore.Internal_Hbond.Weighted>
0.0000

> <Gold.Chemscore.DEClash.Weighted>
1.4720

> <Gold.Chemscore.DEInternal.Weighted>
1.3810

> <Gold.Chemscore.Rot.Weighted>
8.1737

> <Gold.Chemscore.Internal.Correction.Weighted>
   9.000000E+99

> <Gold.Protein.RotatedTorsions>
[ 6907 6896 6895 6894 ] final    4.52 input  -60.11 | X-H torsion
[ 7974 7965 7964 7962 ] final -121.30 input  175.53 | X-H torsion
[ 8008 7997 7996 7995 ] final   38.54 input   59.86 | X-H torsion
[ 10167 10162 10161 10158 ] final  -66.03 input  -65.29 | X-H torsion
[ 10718 10713 10712 10709 ] final   49.39 input   66.30 | X-H torsion
[ 10763 10752 10751 10750 ] final   62.33 input  -60.55 | X-H torsion
[ 11005 11000 10999 10996 ] final   58.40 input  -57.11 | X-H torsion

> <Gold.Protein.ActiveResidues>
 VAL166  LYS551  ARG553  GLY616  TRP617  ASP618  TYR619  PRO620  LYS621  CYS622 
 ASP623  PHE694  ASN695  SER759  ASP760  ASP761  ALA762  ILE779  LEU786  VAL792 
 PHE793  MET794  SER795  GLU796  ALA797  LYS798  CYS799  TRP800  GLU811  SER814 

> <Gold.Protein.RotatedAtoms>
  151.6426  135.1011  160.0144 H   0  0  0  0  0  0  0  0  0  0  0  0  # atno 6907 bound_to 6896
  152.4046  133.6865  159.6353 H   0  0  0  0  0  0  0  0  0  0  0  0  # atno 6908 bound_to 6896
  150.7941  133.8649  159.3283 H   0  0  0  0  0  0  0  0  0  0  0  0  # atno 6909 bound_to 6896
  145.0419  140.8151  143.4261 H   0  0  0  0  0  0  0  0  0  0  0  0  # atno 7974 bound_to 7965
  155.2218  140.3331  155.4314 H   0  0  0  0  0  0  0  0  0  0  0  0  # atno 8008 bound_to 7997
  156.2330  140.1859  156.7241 H   0  0  0  0  0  0  0  0  0  0  0  0  # atno 8009 bound_to 7997
  154.6010  140.0623  156.9354 H   0  0  0  0  0  0  0  0  0  0  0  0  # atno 8010 bound_to 7997
  140.5686  143.2316  151.6583 H   0  0  0  0  0  0  0  0  0  0  0  0  # atno 10167 bound_to 10162
  157.4782  130.8298  149.8063 H   0  0  0  0  0  0  0  0  0  0  0  0  # atno 10718 bound_to 10713
  152.9979  135.5469  154.6176 H   0  0  0  0  0  0  0  0  0  0  0  0  # atno 10763 bound_to 10752
  154.5483  135.2824  155.1035 H   0  0  0  0  0  0  0  0  0  0  0  0  # atno 10764 bound_to 10752
  154.2285  135.6438  153.5220 H   0  0  0  0  0  0  0  0  0  0  0  0  # atno 10765 bound_to 10752
  140.0380  134.5915  155.9419 H   0  0  0  0  0  0  0  0  0  0  0  0  # atno 11005 bound_to 11000
  145.1637  139.2443  143.5378 LP  0  0  0  0  0  0  0  0  0  0  0  0  # atno 17320 bound_to 7965
  146.3510  140.1371  142.8595 LP  0  0  0  0  0  0  0  0  0  0  0  0  # atno 17321 bound_to 7965
  139.5106  144.3538  152.0627 LP  0  0  0  0  0  0  0  0  0  0  0  0  # atno 17342 bound_to 10162
  140.2673  144.4003  150.6164 LP  0  0  0  0  0  0  0  0  0  0  0  0  # atno 17343 bound_to 10162
  156.0108  130.3834  150.2273 LP  0  0  0  0  0  0  0  0  0  0  0  0  # atno 17370 bound_to 10713
  157.0458  131.0048  151.3269 LP  0  0  0  0  0  0  0  0  0  0  0  0  # atno 17371 bound_to 10713
  141.1868  133.6558  156.5253 LP  0  0  0  0  0  0  0  0  0  0  0  0  # atno 17394 bound_to 11000
  140.4116  134.7267  157.4839 LP  0  0  0  0  0  0  0  0  0  0  0  0  # atno 17395 bound_to 11000

$$$$
