AV-unprocessed.smi:2243|AV-procd|sdf|9065|dock6
  -GOLD-   2272012273D 1   1.00000     0.00000
 Structure written by MMmdl.
 35 36  0  0  0  0  0  0  0  0  2 V2000
  146.9113  140.0803  151.7541 C   0  0  0  0  0  0  0  0  0  0  0  0
  146.8516  139.1636  152.9882 C   0  0  1  0  0  0  0  0  0  0  0  0
  146.8981  137.7766  152.5227 N   0  0  0  0  0  0  0  0  0  0  0  0
  145.8395  136.9731  152.3336 C   0  0  0  0  0  0  0  0  0  0  0  0
  144.6738  137.3106  152.5419 O   0  0  0  0  0  0  0  0  0  0  0  0
  146.2129  135.7617  151.8938 N   0  0  0  0  0  0  0  0  0  0  0  0
  145.3424  134.6868  151.5998 C   0  0  0  0  0  0  0  0  0  0  0  0
  145.2748  134.0855  150.4130 N   0  3  0  0  0  0  0  0  0  0  0  0
  144.3311  133.0903  150.4763 C   0  0  0  0  0  0  0  0  0  0  0  0
  143.8371  133.1249  151.7583 C   0  0  0  0  0  0  0  0  0  0  0  0
  144.4632  134.1237  152.4769 O   0  0  0  0  0  0  0  0  0  0  0  0
  147.9877  139.4348  154.0107 C   0  0  0  0  0  0  0  0  0  0  0  0
  148.3795  140.9265  154.0815 C   0  0  0  0  0  0  0  0  0  0  0  0
  149.5591  141.1522  155.0410 C   0  0  0  0  0  0  0  0  0  0  0  0
  150.6709  140.3622  154.6394 O   0  0  0  0  0  0  0  0  0  0  0  0
  150.3966  138.9678  154.6861 C   0  0  0  0  0  0  0  0  0  0  0  0
  149.2623  138.6203  153.7081 C   0  0  0  0  0  0  0  0  0  0  0  0
  146.7471  141.1247  152.0177 H   0  0  0  0  0  0  0  0  0  0  0  0
  146.1390  139.8139  151.0314 H   0  0  0  0  0  0  0  0  0  0  0  0
  147.8756  140.0088  151.2502 H   0  0  0  0  0  0  0  0  0  0  0  0
  145.8998  139.3536  153.4873 H   0  0  0  0  0  0  0  0  0  0  0  0
  147.8158  137.4052  152.3241 H   0  0  0  0  0  0  0  0  0  0  0  0
  145.8100  134.2954  149.5796 H   0  0  0  0  0  0  0  0  0  0  0  0
  144.1093  132.4691  149.6204 H   0  0  0  0  0  0  0  0  0  0  0  0
  143.0903  132.5500  152.2864 H   0  0  0  0  0  0  0  0  0  0  0  0
  147.6305  139.1399  154.9987 H   0  0  0  0  0  0  0  0  0  0  0  0
  148.6496  141.2834  153.0867 H   0  0  0  0  0  0  0  0  0  0  0  0
  147.5374  141.5346  154.4117 H   0  0  0  0  0  0  0  0  0  0  0  0
  149.8532  142.2019  155.0315 H   0  0  0  0  0  0  0  0  0  0  0  0
  149.2778  140.9102  156.0673 H   0  0  0  0  0  0  0  0  0  0  0  0
  151.3017  138.4238  154.4156 H   0  0  0  0  0  0  0  0  0  0  0  0
  150.1387  138.6696  155.7035 H   0  0  0  0  0  0  0  0  0  0  0  0
  149.0636  137.5509  153.7716 H   0  0  0  0  0  0  0  0  0  0  0  0
  149.5937  138.8175  152.6878 H   0  0  0  0  0  0  0  0  0  0  0  0
  147.1989  135.5949  151.7579 H   0  0  0  0  0  0  0  0  0  0  0  0
  1  2  1  0  0  0  0
  1 18  1  0  0  0  0
  1 19  1  0  0  0  0
  1 20  1  0  0  0  0
  2  3  1  0  0  0  0
  2 12  1  0  0  0  0
  2 21  1  0  0  0  0
  3 22  1  0  0  0  0
  3  4  1  0  0  0  0
  4  6  1  0  0  0  0
  4  5  2  0  0  0  0
  6  7  1  0  0  0  0
  6 35  1  0  0  0  0
  7 11  1  0  0  0  0
  7  8  2  0  0  0  0
  8 23  1  0  0  0  0
  8  9  1  0  0  0  0
  9 24  1  0  0  0  0
  9 10  2  0  0  0  0
 10 25  1  0  0  0  0
 10 11  1  0  0  0  0
 12 17  1  0  0  0  0
 12 13  1  0  0  0  0
 12 26  1  0  0  0  0
 13 14  1  0  0  0  0
 13 27  1  0  0  0  0
 13 28  1  0  0  0  0
 14 15  1  0  0  0  0
 14 29  1  0  0  0  0
 14 30  1  0  0  0  0
 15 16  1  0  0  0  0
 16 17  1  0  0  0  0
 16 31  1  0  0  0  0
 16 32  1  0  0  0  0
 17 33  1  0  0  0  0
 17 34  1  0  0  0  0
M  CHG  1   8   1
M  END
> <s_m_source_file>
AV-unprocessed.smi

> <i_m_source_file_index>
2243

> <i_lp_mmshare_version>
43012

> <i_f3d_flags>
0

> <s_epik_input>
W0NIMl0xW0NIMl1PW0NIMl1bQ0gyXVtDSF0xW0NASF0oW0NIM10pW05IXUMoPU8pW05IXWMybltjSF1bY0hdbzI=

> <s_epik_cmdline>
J2VwaWtfcHl0aG9uJywgJy1waCcsICc3LjAnLCAnLXRuJywgJzgnLCAnLW1hJywgJzIwMCcsICctbWV0YWxfYmluZGluZycsICctaW1hZScsICc8aW5maWxlLm1hZT4nLCAnLW9tYWUnLCAnPG91dGZpbGUubWFlPic=

> <r_epik_Ionization_Penalty>
6.61405

> <r_epik_Ionization_Penalty_Charging>
6.55981

> <r_epik_Ionization_Penalty_Neutral>
0.0542461

> <r_epik_State_Penalty>
1.79186

> <r_epik_Charging_Adjusted_Penalty>
8.35167

> <i_epik_Tot_Q>
1

> <i_epik_Tot_abs_Q>
1

> <r_epik_Metal_State_Penalty>
1.80655

> <b_epik_Metal_Only>
0

> <s_lp_Force_Field>
OPLS_2005

> <r_lp_Energy>
19.6033

> <b_lp_Chiralities_Consistent>
1

> <s_lp_Variant>
AV-unprocessed.smi:2243-4

> <Gold.Version>
5.8.1

> <Gold.Id.Protein>
6NUR|6NUR_protein|mol2

> <Gold.PLP.Fitness>
36.2784

> <Gold.PLP.PLP>
-26.5162

> <Gold.PLP.part.hbond>
-4.0000

> <Gold.PLP.part.metal>
0.0000

> <Gold.PLP.part.buried>
1.7113

> <Gold.PLP.part.nonpolar>
-25.6601

> <Gold.PLP.part.repulsive>
0.8662

> <Gold.PLP.ligand.clash>
0.0000

> <Gold.PLP.ligand.torsion>
1.4380

> <Gold.PLP.Chemscore.Hbond>
3.9440

> <Gold.PLP.Chemscore.CHOScore>
0.2633

> <Gold.PLP.Chemscore.Metal>
0.0000

> <Gold.Chemscore.Hbonds>
donor molecule, donor type, donor heavy atom, donor atom, acceptor molecule, acceptor atom, score
      L1  H     3    22       P1  7948  1.00
      L1  H     6    35       P1  7948  0.99
      L1  H     8    23       P1  7921  0.99
      P1  H  7989  7998       L1    15  1.00
      L1  C    10    25       P1 10957  0.34

> <Gold.PLP.Chemscore.Internal.Correction>
0.0163

> <Gold.Rescore>
     Score         DG    S(hbond)    S(metal)    S(lipo)     H(rot)  DE(clash)    DE(int)     intcor
     18.48     -22.30       3.72        0.00      66.69       1.33       2.49       1.33       ----

> <Gold.Chemscore.Fitness>
18.4792

> <Gold.Chemscore.DG>
-22.2975

> <Gold.Chemscore.ZeroCoef>
-5.4800

> <Gold.Chemscore.Hbond>
3.7200

> <Gold.Chemscore.Metal>
0.0000

> <Gold.Chemscore.Lipo>
66.6930

> <Gold.Chemscore.Internal_Hbond>
0.0000

> <Gold.Chemscore.DEClash>
2.4860

> <Gold.Chemscore.DEInternal>
1.3322

> <Gold.Chemscore.Rot>
1.3321

> <Gold.Chemscore.Internal.Correction>
   9.000000E+99

> <Gold.Chemscore.Hbonds>
donor molecule, donor type, donor heavy atom, donor atom, acceptor molecule, acceptor atom, score
      L1  H     3    22       P1  7948  0.99
      L1  H     6    35       P1  7948  0.94
      L1  H     8    23       P1  7921  0.55
      P1  H  7989  7998       L1    15  0.90

> <Gold.Chemscore.Hbond.Weighted>
-12.4247

> <Gold.Chemscore.Metal.Weighted>
-0.0000

> <Gold.Chemscore.Lipo.Weighted>
-7.8031

> <Gold.Chemscore.Internal_Hbond.Weighted>
0.0000

> <Gold.Chemscore.DEClash.Weighted>
2.4860

> <Gold.Chemscore.DEInternal.Weighted>
1.3322

> <Gold.Chemscore.Rot.Weighted>
3.4103

> <Gold.Chemscore.Internal.Correction.Weighted>
   9.000000E+99

> <Gold.Protein.RotatedTorsions>
[ 6907 6896 6895 6894 ] final   -0.30 input  -60.11 | X-H torsion
[ 7974 7965 7964 7962 ] final -150.67 input  175.53 | X-H torsion
[ 8008 7997 7996 7995 ] final   65.83 input   59.86 | X-H torsion
[ 10167 10162 10161 10158 ] final  -66.59 input  -65.29 | X-H torsion
[ 10718 10713 10712 10709 ] final   16.89 input   66.30 | X-H torsion
[ 10763 10752 10751 10750 ] final   76.20 input  -60.55 | X-H torsion
[ 11005 11000 10999 10996 ] final -134.70 input  -57.11 | X-H torsion

> <Gold.Protein.ActiveResidues>
 VAL166  LYS551  ARG553  GLY616  TRP617  ASP618  TYR619  PRO620  LYS621  CYS622 
 ASP623  PHE694  ASN695  SER759  ASP760  ASP761  ALA762  ILE779  LEU786  VAL792 
 PHE793  MET794  SER795  GLU796  ALA797  LYS798  CYS799  TRP800  GLU811  SER814 

> <Gold.Protein.RotatedAtoms>
  151.5645  135.1064  159.9980 H   0  0  0  0  0  0  0  0  0  0  0  0  # atno 6907 bound_to 6896
  152.4431  133.7480  159.6689 H   0  0  0  0  0  0  0  0  0  0  0  0  # atno 6908 bound_to 6896
  150.8340  133.7975  159.3111 H   0  0  0  0  0  0  0  0  0  0  0  0  # atno 6909 bound_to 6896
  144.7894  140.4901  143.5783 H   0  0  0  0  0  0  0  0  0  0  0  0  # atno 7974 bound_to 7965
  155.6679  140.3497  155.4807 H   0  0  0  0  0  0  0  0  0  0  0  0  # atno 8008 bound_to 7997
  155.9713  140.1156  157.0832 H   0  0  0  0  0  0  0  0  0  0  0  0  # atno 8009 bound_to 7997
  154.4167  140.1156  156.5296 H   0  0  0  0  0  0  0  0  0  0  0  0  # atno 8010 bound_to 7997
  140.5646  143.2314  151.6660 H   0  0  0  0  0  0  0  0  0  0  0  0  # atno 10167 bound_to 10162
  157.0743  130.6361  149.5812 H   0  0  0  0  0  0  0  0  0  0  0  0  # atno 10718 bound_to 10713
  153.0709  135.4960  154.8302 H   0  0  0  0  0  0  0  0  0  0  0  0  # atno 10763 bound_to 10752
  154.7020  135.3003  154.9328 H   0  0  0  0  0  0  0  0  0  0  0  0  # atno 10764 bound_to 10752
  154.0049  135.6761  153.4814 H   0  0  0  0  0  0  0  0  0  0  0  0  # atno 10765 bound_to 10752
  140.8966  134.1744  157.4490 H   0  0  0  0  0  0  0  0  0  0  0  0  # atno 11005 bound_to 11000
  145.5834  139.1490  143.3222 LP  0  0  0  0  0  0  0  0  0  0  0  0  # atno 17320 bound_to 7965
  146.2140  140.5963  142.9047 LP  0  0  0  0  0  0  0  0  0  0  0  0  # atno 17321 bound_to 7965
  139.5086  144.3604  152.0568 LP  0  0  0  0  0  0  0  0  0  0  0  0  # atno 17342 bound_to 10162
  140.2734  144.3939  150.6143 LP  0  0  0  0  0  0  0  0  0  0  0  0  # atno 17343 bound_to 10162
  155.9941  130.5005  150.7409 LP  0  0  0  0  0  0  0  0  0  0  0  0  # atno 17370 bound_to 10713
  157.4853  131.0906  151.0490 LP  0  0  0  0  0  0  0  0  0  0  0  0  # atno 17371 bound_to 10713
  139.8736  134.9881  156.5395 LP  0  0  0  0  0  0  0  0  0  0  0  0  # atno 17394 bound_to 11000
  140.8282  133.8300  155.8959 LP  0  0  0  0  0  0  0  0  0  0  0  0  # atno 17395 bound_to 11000

$$$$
