AV-unprocessed.smi:55|AV-procd|sdf|563|dock3
  -GOLD-   2262016463D 1   1.00000     0.00000
 Structure written by MMmdl.
 31 32  0  0  0  0  0  0  0  0  1 V2000
  153.0933  142.5808  160.2695 C   0  0  0  0  0  0  0  0  0  0  0  0
  152.3085  142.3031  158.9981 C   0  0  0  0  0  0  0  0  0  0  0  0
  152.2658  141.0744  158.4224 C   0  0  0  0  0  0  0  0  0  0  0  0
  151.5594  140.7844  157.2616 N   0  0  0  0  0  0  0  0  0  0  0  0
  151.6362  139.4155  156.6156 C   0  0  2  0  0  0  0  0  0  0  0  0
  152.1404  139.4297  155.1600 C   0  0  0  0  0  0  0  0  0  0  0  0
  150.9749  138.8364  154.3801 C   0  0  2  0  0  0  0  0  0  0  0  0
  150.2178  139.8505  153.7475 O   0  0  0  0  0  0  0  0  0  0  0  0
  150.1733  138.0908  155.4594 C   0  0  2  0  0  0  0  0  0  0  0  0
  148.6783  137.8547  155.1828 C   0  0  0  0  0  0  0  0  0  0  0  0
  148.5066  136.7501  154.3208 O   0  0  0  0  0  0  0  0  0  0  0  0
  150.3541  138.8730  156.6307 O   0  0  0  0  0  0  0  0  0  0  0  0
  150.9315  141.8422  156.5667 C   0  0  0  0  0  0  0  0  0  0  0  0
  150.3679  141.6968  155.4826 O   0  0  0  0  0  0  0  0  0  0  0  0
  150.9607  143.1011  157.1644 N   0  0  0  0  0  0  0  0  0  0  0  0
  151.5988  143.4171  158.3653 C   0  0  0  0  0  0  0  0  0  0  0  0
  151.5426  144.5663  158.7998 O   0  0  0  0  0  0  0  0  0  0  0  0
  152.2990  138.8029  157.2283 H   0  0  0  0  0  0  0  0  0  0  0  0
  151.3229  138.1515  153.6064 H   0  0  0  0  0  0  0  0  0  0  0  0
  150.6568  137.1302  155.6483 H   0  0  0  0  0  0  0  0  0  0  0  0
  150.4909  143.8525  156.6806 H   0  0  0  0  0  0  0  0  0  0  0  0
  153.5815  141.6825  160.6483 H   0  0  0  0  0  0  0  0  0  0  0  0
  152.4323  142.9570  161.0511 H   0  0  0  0  0  0  0  0  0  0  0  0
  153.8659  143.3280  160.0846 H   0  0  0  0  0  0  0  0  0  0  0  0
  152.8305  140.2865  158.8946 H   0  0  0  0  0  0  0  0  0  0  0  0
  152.4592  140.4146  154.8189 H   0  0  0  0  0  0  0  0  0  0  0  0
  153.0059  138.7686  155.0984 H   0  0  0  0  0  0  0  0  0  0  0  0
  150.3913  139.8168  152.8190 H   0  0  0  0  0  0  0  0  0  0  0  0
  148.1582  137.6438  156.1174 H   0  0  0  0  0  0  0  0  0  0  0  0
  148.2057  138.7371  154.7506 H   0  0  0  0  0  0  0  0  0  0  0  0
  148.9149  136.9501  153.4920 H   0  0  0  0  0  0  0  0  0  0  0  0
  1  2  1  0  0  0  0
  1 22  1  0  0  0  0
  1 23  1  0  0  0  0
  1 24  1  0  0  0  0
  2 16  1  0  0  0  0
  2  3  2  0  0  0  0
  3  4  1  0  0  0  0
  3 25  1  0  0  0  0
  4  5  1  0  0  0  0
  4 13  1  0  0  0  0
  5 18  1  0  0  0  0
  5 12  1  0  0  0  0
  5  6  1  0  0  0  0
  6  7  1  0  0  0  0
  6 26  1  0  0  0  0
  6 27  1  0  0  0  0
  7 19  1  0  0  0  0
  7  8  1  0  0  0  0
  7  9  1  0  0  0  0
  8 28  1  0  0  0  0
  9 20  1  0  0  0  0
  9 10  1  0  0  0  0
  9 12  1  0  0  0  0
 10 11  1  0  0  0  0
 10 29  1  0  0  0  0
 10 30  1  0  0  0  0
 11 31  1  0  0  0  0
 13 14  2  0  0  0  0
 13 15  1  0  0  0  0
 15 21  1  0  0  0  0
 15 16  1  0  0  0  0
 16 17  2  0  0  0  0
M  END
> <s_m_source_file>
AV-unprocessed.smi

> <i_m_source_file_index>
55

> <i_lp_mmshare_version>
43012

> <i_f3d_flags>
0

> <s_epik_input>
Tz1jMVtuSF1jKD1PKW4oW2NIXWMxW0NIM10pW0NAQEhdMltDSDJdW0NAQEhdKFtPSF0pW0NAQEhdKE8yKVtDSDJdW09IXQ==

> <s_epik_cmdline>
J2VwaWtfcHl0aG9uJywgJy1waCcsICc3LjAnLCAnLXRuJywgJzgnLCAnLW1hJywgJzIwMCcsICctbWV0YWxfYmluZGluZycsICctaW1hZScsICc8aW5maWxlLm1hZT4nLCAnLW9tYWUnLCAnPG91dGZpbGUubWFlPic=

> <r_lp_tautomer_probability>
0.999537

> <r_epik_Ionization_Penalty>
0.00121888

> <r_epik_Ionization_Penalty_Charging>
0.00121876

> <r_epik_Ionization_Penalty_Neutral>
1.19946e-07

> <r_epik_State_Penalty>
0.000805124

> <r_epik_Charging_Adjusted_Penalty>
0.00202389

> <i_epik_Tot_Q>
0

> <i_epik_Tot_abs_Q>
0

> <r_epik_Metal_State_Penalty>
0.662472

> <b_epik_Metal_Only>
0

> <s_epik_Chemistry_Notes>
This compound contains an acetal/aminal-like group ( X-CH(R)-Y where X, Y are N, S, or O) that may be acid/base labile, releasing an aldehyde.

> <s_lp_Force_Field>
OPLS_2005

> <r_lp_Energy>
26.1821

> <b_lp_Chiralities_Consistent>
1

> <s_lp_Variant>
AV-unprocessed.smi:55-3

> <Gold.Version>
5.8.1

> <Gold.Id.Protein>
6NUR|6NUR_protein|mol2

> <Gold.PLP.Fitness>
39.4918

> <Gold.PLP.PLP>
-31.0054

> <Gold.PLP.part.hbond>
-4.6775

> <Gold.PLP.part.metal>
0.0000

> <Gold.PLP.part.buried>
-4.1912

> <Gold.PLP.part.nonpolar>
-22.4983

> <Gold.PLP.part.repulsive>
0.2254

> <Gold.PLP.ligand.clash>
0.0000

> <Gold.PLP.ligand.torsion>
0.3069

> <Gold.PLP.Chemscore.Hbond>
3.0000

> <Gold.PLP.Chemscore.CHOScore>
0.0000

> <Gold.PLP.Chemscore.Metal>
0.0000

> <Gold.Chemscore.Hbonds>
donor molecule, donor type, donor heavy atom, donor atom, acceptor molecule, acceptor atom, score
      L1  H     8    28       P1  7957  0.88
      L1  H    11    31       P1  7948  0.75
      L1  H    15    21       P1  8028  0.89

> <Gold.PLP.Chemscore.Internal.Correction>
0.1003

> <Gold.Rescore>
     Score         DG    S(hbond)    S(metal)    S(lipo)     H(rot)  DE(clash)    DE(int)     intcor
     10.20     -14.34       2.97        0.00      50.66       2.73       0.02       4.12       ----

> <Gold.Chemscore.Fitness>
10.2044

> <Gold.Chemscore.DG>
-14.3448

> <Gold.Chemscore.ZeroCoef>
-5.4800

> <Gold.Chemscore.Hbond>
2.9682

> <Gold.Chemscore.Metal>
0.0000

> <Gold.Chemscore.Lipo>
50.6644

> <Gold.Chemscore.Internal_Hbond>
0.0000

> <Gold.Chemscore.DEClash>
0.0202

> <Gold.Chemscore.DEInternal>
4.1202

> <Gold.Chemscore.Rot>
2.7253

> <Gold.Chemscore.Internal.Correction>
   9.000000E+99

> <Gold.Chemscore.Hbonds>
donor molecule, donor type, donor heavy atom, donor atom, acceptor molecule, acceptor atom, score
      L1  H     8    28       P1  7957  0.82
      L1  H    11    31       P1  7948  0.76
      L1  H    15    21       P1  8028  0.84
      P1  H  7989  7998       L1    14  0.01

> <Gold.Chemscore.Hbond.Weighted>
-9.9139

> <Gold.Chemscore.Metal.Weighted>
-0.0000

> <Gold.Chemscore.Lipo.Weighted>
-5.9277

> <Gold.Chemscore.Internal_Hbond.Weighted>
0.0000

> <Gold.Chemscore.DEClash.Weighted>
0.0202

> <Gold.Chemscore.DEInternal.Weighted>
4.1202

> <Gold.Chemscore.Rot.Weighted>
6.9769

> <Gold.Chemscore.Internal.Correction.Weighted>
   9.000000E+99

> <Gold.Protein.RotatedTorsions>
[ 6907 6896 6895 6894 ] final  122.36 input  -60.11 | X-H torsion
[ 7974 7965 7964 7962 ] final   -1.65 input  175.53 | X-H torsion
[ 8008 7997 7996 7995 ] final  178.81 input   59.86 | X-H torsion
[ 10167 10162 10161 10158 ] final -113.34 input  -65.29 | X-H torsion
[ 10718 10713 10712 10709 ] final  -64.23 input   66.30 | X-H torsion
[ 10763 10752 10751 10750 ] final  -10.13 input  -60.55 | X-H torsion
[ 11005 11000 10999 10996 ] final  -85.22 input  -57.11 | X-H torsion

> <Gold.Protein.ActiveResidues>
 VAL166  LYS551  ARG553  GLY616  TRP617  ASP618  TYR619  PRO620  LYS621  CYS622 
 ASP623  PHE694  ASN695  SER759  ASP760  ASP761  ALA762  ILE779  LEU786  VAL792 
 PHE793  MET794  SER795  GLU796  ALA797  LYS798  CYS799  TRP800  GLU811  SER814 

> <Gold.Protein.RotatedAtoms>
  152.4249  133.7178  159.6515 H   0  0  0  0  0  0  0  0  0  0  0  0  # atno 6907 bound_to 6896
  150.8125  133.8385  159.3181 H   0  0  0  0  0  0  0  0  0  0  0  0  # atno 6908 bound_to 6896
  151.6090  135.1043  160.0128 H   0  0  0  0  0  0  0  0  0  0  0  0  # atno 6909 bound_to 6896
  146.2414  140.1453  142.8335 H   0  0  0  0  0  0  0  0  0  0  0  0  # atno 7974 bound_to 7965
  156.0505  140.1324  157.0056 H   0  0  0  0  0  0  0  0  0  0  0  0  # atno 8008 bound_to 7997
  154.4432  140.1012  156.6439 H   0  0  0  0  0  0  0  0  0  0  0  0  # atno 8009 bound_to 7997
  155.5531  140.3463  155.4475 H   0  0  0  0  0  0  0  0  0  0  0  0  # atno 8010 bound_to 7997
  140.1129  143.4512  152.1741 H   0  0  0  0  0  0  0  0  0  0  0  0  # atno 10167 bound_to 10162
  156.0742  130.4231  150.1390 H   0  0  0  0  0  0  0  0  0  0  0  0  # atno 10718 bound_to 10713
  153.4648  135.7016  153.6029 H   0  0  0  0  0  0  0  0  0  0  0  0  # atno 10763 bound_to 10752
  153.4308  135.3803  155.2169 H   0  0  0  0  0  0  0  0  0  0  0  0  # atno 10764 bound_to 10752
  154.8726  135.3950  154.4078 H   0  0  0  0  0  0  0  0  0  0  0  0  # atno 10765 bound_to 10752
  141.1643  133.7388  156.8983 H   0  0  0  0  0  0  0  0  0  0  0  0  # atno 11005 bound_to 11000
  145.0213  140.8795  143.5165 LP  0  0  0  0  0  0  0  0  0  0  0  0  # atno 17320 bound_to 7965
  145.1502  139.2519  143.5445 LP  0  0  0  0  0  0  0  0  0  0  0  0  # atno 17321 bound_to 7965
  139.5610  144.7405  151.4156 LP  0  0  0  0  0  0  0  0  0  0  0  0  # atno 17342 bound_to 10162
  140.6916  143.7849  150.7263 LP  0  0  0  0  0  0  0  0  0  0  0  0  # atno 17343 bound_to 10162
  156.9435  130.9752  151.3512 LP  0  0  0  0  0  0  0  0  0  0  0  0  # atno 17370 bound_to 10713
  157.5829  130.8389  149.8547 LP  0  0  0  0  0  0  0  0  0  0  0  0  # atno 17371 bound_to 10713
  140.1600  134.9172  157.2703 LP  0  0  0  0  0  0  0  0  0  0  0  0  # atno 17394 bound_to 11000
  140.2622  134.3558  155.7402 LP  0  0  0  0  0  0  0  0  0  0  0  0  # atno 17395 bound_to 11000

$$$$
