AV-unprocessed.smi:1603|AV-procd|sdf|6444|dock6
  -GOLD-   22720 7 93D 1   1.00000     0.00000
 Structure written by MMmdl.
 45 47  0  0  0  0  0  0  0  0  2 V2000
  152.3379  139.0101  158.5736 O   0  0  0  0  0  0  0  0  0  0  0  0
  152.2992  140.2274  158.7547 C   0  0  0  0  0  0  0  0  0  0  0  0
  153.3266  140.9713  159.4992 C   0  0  0  0  0  0  0  0  0  0  0  0
  154.4844  140.1820  160.1046 C   0  0  0  0  0  0  0  0  0  0  0  0
  154.6702  139.0195  159.4776 F   0  0  0  0  0  0  0  0  0  0  0  0
  155.6207  140.8748  160.0226 F   0  0  0  0  0  0  0  0  0  0  0  0
  154.2477  139.9198  161.3902 F   0  0  0  0  0  0  0  0  0  0  0  0
  153.2248  142.3157  159.6379 C   0  0  0  0  0  0  0  0  0  0  0  0
  152.1070  143.0294  159.0539 C   0  0  0  0  0  0  0  0  0  0  0  0
  151.9363  144.5174  159.1641 C   0  0  0  0  0  0  0  0  0  0  0  0
  151.8809  145.2252  160.4987 C   0  0  0  0  0  0  0  0  0  0  0  0
  150.6420  145.1361  159.6378 C   0  0  0  0  0  0  0  0  0  0  0  0
  151.2048  142.3736  158.4045 N   0  0  0  0  0  0  0  0  0  0  0  0
  151.2883  141.0022  158.2628 N   0  0  0  0  0  0  0  0  0  0  0  0
  150.1844  140.4140  157.4938 C   0  0  0  0  0  0  0  0  0  0  0  0
  150.0046  141.1068  156.1246 C   0  0  1  0  0  0  0  0  0  0  0  0
  150.9997  140.6253  155.2417 O   0  0  0  0  0  0  0  0  0  0  0  0
  148.6381  140.7699  155.4928 C   0  0  0  0  0  0  0  0  0  0  0  0
  147.6912  141.9139  155.5278 N   0  3  0  0  0  0  0  0  0  0  0  0
  146.9577  142.0814  154.2504 C   0  0  0  0  0  0  0  0  0  0  0  0
  146.0391  143.3133  154.3142 C   0  0  0  0  0  0  0  0  0  0  0  0
  145.1428  143.1831  155.4106 O   0  0  0  0  0  0  0  0  0  0  0  0
  145.8304  143.1097  156.6533 C   0  0  0  0  0  0  0  0  0  0  0  0
  146.7416  141.8706  156.6676 C   0  0  0  0  0  0  0  0  0  0  0  0
  153.9689  142.8790  160.1808 H   0  0  0  0  0  0  0  0  0  0  0  0
  152.4646  145.0262  158.3598 H   0  0  0  0  0  0  0  0  0  0  0  0
  151.8997  144.6230  161.4052 H   0  0  0  0  0  0  0  0  0  0  0  0
  152.3718  146.1932  160.5730 H   0  0  0  0  0  0  0  0  0  0  0  0
  150.3092  146.0446  159.1399 H   0  0  0  0  0  0  0  0  0  0  0  0
  149.8485  144.4697  159.9709 H   0  0  0  0  0  0  0  0  0  0  0  0
  150.2947  139.3334  157.3824 H   0  0  0  0  0  0  0  0  0  0  0  0
  149.2715  140.5350  158.0805 H   0  0  0  0  0  0  0  0  0  0  0  0
  150.1140  142.1848  156.2416 H   0  0  0  0  0  0  0  0  0  0  0  0
  151.7989  140.4936  155.7308 H   0  0  0  0  0  0  0  0  0  0  0  0
  148.8015  140.4611  154.4587 H   0  0  0  0  0  0  0  0  0  0  0  0
  148.1812  139.9161  155.9958 H   0  0  0  0  0  0  0  0  0  0  0  0
  147.6650  142.1959  153.4282 H   0  0  0  0  0  0  0  0  0  0  0  0
  146.3689  141.1858  154.0455 H   0  0  0  0  0  0  0  0  0  0  0  0
  146.6221  144.2307  154.4117 H   0  0  0  0  0  0  0  0  0  0  0  0
  145.4614  143.3994  153.3938 H   0  0  0  0  0  0  0  0  0  0  0  0
  146.4083  144.0206  156.8183 H   0  0  0  0  0  0  0  0  0  0  0  0
  145.0986  143.0471  157.4588 H   0  0  0  0  0  0  0  0  0  0  0  0
  146.1364  140.9646  156.6068 H   0  0  0  0  0  0  0  0  0  0  0  0
  147.2784  141.8326  157.6146 H   0  0  0  0  0  0  0  0  0  0  0  0
  148.2554  142.7446  155.6406 H   0  0  0  0  0  0  0  0  0  0  0  0
  1  2  2  0  0  0  0
  2 14  1  0  0  0  0
  2  3  1  0  0  0  0
  3  4  1  0  0  0  0
  3  8  2  0  0  0  0
  4  5  1  0  0  0  0
  4  6  1  0  0  0  0
  4  7  1  0  0  0  0
  8  9  1  0  0  0  0
  8 25  1  0  0  0  0
  9 10  1  0  0  0  0
  9 13  2  0  0  0  0
 10 12  1  0  0  0  0
 10 11  1  0  0  0  0
 10 26  1  0  0  0  0
 11 12  1  0  0  0  0
 11 27  1  0  0  0  0
 11 28  1  0  0  0  0
 12 29  1  0  0  0  0
 12 30  1  0  0  0  0
 13 14  1  0  0  0  0
 14 15  1  0  0  0  0
 15 16  1  0  0  0  0
 15 31  1  0  0  0  0
 15 32  1  0  0  0  0
 16 17  1  0  0  0  0
 16 18  1  0  0  0  0
 16 33  1  0  0  0  0
 17 34  1  0  0  0  0
 18 19  1  0  0  0  0
 18 35  1  0  0  0  0
 18 36  1  0  0  0  0
 19 24  1  0  0  0  0
 19 20  1  0  0  0  0
 19 45  1  0  0  0  0
 20 21  1  0  0  0  0
 20 37  1  0  0  0  0
 20 38  1  0  0  0  0
 21 22  1  0  0  0  0
 21 39  1  0  0  0  0
 21 40  1  0  0  0  0
 22 23  1  0  0  0  0
 23 24  1  0  0  0  0
 23 41  1  0  0  0  0
 23 42  1  0  0  0  0
 24 43  1  0  0  0  0
 24 44  1  0  0  0  0
M  CHG  1  19   1
M  END
> <s_m_source_file>
AV-unprocessed.smi

> <i_m_source_file_index>
1603

> <i_lp_mmshare_version>
43012

> <i_f3d_flags>
0

> <s_epik_input>
Tz1jMWMoQyhGKShGKUYpW2NIXWMoW0NIXTJbQ0gyXVtDSDJdMilubjFbQ0gyXVtDQEhdKFtPSF0pW0NIMl1OM1tDSDJdW0NIMl1PW0NIMl1bQ0gyXTM=

> <s_epik_cmdline>
J2VwaWtfcHl0aG9uJywgJy1waCcsICc3LjAnLCAnLXRuJywgJzgnLCAnLW1hJywgJzIwMCcsICctbWV0YWxfYmluZGluZycsICctaW1hZScsICc8aW5maWxlLm1hZT4nLCAnLW9tYWUnLCAnPG91dGZpbGUubWFlPic=

> <r_lp_tautomer_probability>
1

> <r_epik_Ionization_Penalty>
0.373533

> <r_epik_Ionization_Penalty_Charging>
0.373533

> <r_epik_Ionization_Penalty_Neutral>
6.58334e-07

> <r_epik_State_Penalty>
0.37113

> <r_epik_Charging_Adjusted_Penalty>
0.744662

> <i_epik_Tot_Q>
1

> <i_epik_Tot_abs_Q>
1

> <r_epik_Metal_State_Penalty>
0.37113

> <b_epik_Metal_Only>
0

> <s_lp_Force_Field>
OPLS_2005

> <r_lp_Energy>
42.0637

> <b_lp_Chiralities_Consistent>
1

> <s_lp_Variant>
AV-unprocessed.smi:1603-2

> <Gold.Version>
5.8.1

> <Gold.Id.Protein>
6NUR|6NUR_protein|mol2

> <Gold.PLP.Fitness>
53.1985

> <Gold.PLP.PLP>
-48.6192

> <Gold.PLP.part.hbond>
-2.0000

> <Gold.PLP.part.metal>
0.0000

> <Gold.PLP.part.buried>
-7.6847

> <Gold.PLP.part.nonpolar>
-40.0366

> <Gold.PLP.part.repulsive>
0.2972

> <Gold.PLP.ligand.clash>
0.0000

> <Gold.PLP.ligand.torsion>
2.4664

> <Gold.PLP.Chemscore.Hbond>
2.9440

> <Gold.PLP.Chemscore.CHOScore>
0.0000

> <Gold.PLP.Chemscore.Metal>
0.0000

> <Gold.Chemscore.Hbonds>
donor molecule, donor type, donor heavy atom, donor atom, acceptor molecule, acceptor atom, score
      L1  H    19    45       P1  8028  1.85
      P1  H  7989  7998       L1    17  0.91

> <Gold.PLP.Chemscore.Internal.Correction>
0.6801

> <Gold.Rescore>
     Score         DG    S(hbond)    S(metal)    S(lipo)     H(rot)  DE(clash)    DE(int)     intcor
     13.91     -18.06       1.85        0.00     109.65       2.52       0.30       3.85       ----

> <Gold.Chemscore.Fitness>
13.9142

> <Gold.Chemscore.DG>
-18.0624

> <Gold.Chemscore.ZeroCoef>
-5.4800

> <Gold.Chemscore.Hbond>
1.8546

> <Gold.Chemscore.Metal>
0.0000

> <Gold.Chemscore.Lipo>
109.6510

> <Gold.Chemscore.Internal_Hbond>
0.0000

> <Gold.Chemscore.DEClash>
0.3021

> <Gold.Chemscore.DEInternal>
3.8461

> <Gold.Chemscore.Rot>
2.5160

> <Gold.Chemscore.Internal.Correction>
   9.000000E+99

> <Gold.Chemscore.Hbonds>
donor molecule, donor type, donor heavy atom, donor atom, acceptor molecule, acceptor atom, score
      L1  H    19    45       P1  8028  0.86
      P1  H  7989  7998       L1    17  0.31

> <Gold.Chemscore.Hbond.Weighted>
-6.1943

> <Gold.Chemscore.Metal.Weighted>
-0.0000

> <Gold.Chemscore.Lipo.Weighted>
-12.8292

> <Gold.Chemscore.Internal_Hbond.Weighted>
0.0000

> <Gold.Chemscore.DEClash.Weighted>
0.3021

> <Gold.Chemscore.DEInternal.Weighted>
3.8461

> <Gold.Chemscore.Rot.Weighted>
6.4411

> <Gold.Chemscore.Internal.Correction.Weighted>
   9.000000E+99

> <Gold.Protein.RotatedTorsions>
[ 6907 6896 6895 6894 ] final   44.24 input  -60.11 | X-H torsion
[ 7974 7965 7964 7962 ] final   73.93 input  175.53 | X-H torsion
[ 8008 7997 7996 7995 ] final -161.60 input   59.86 | X-H torsion
[ 10167 10162 10161 10158 ] final   18.40 input  -65.29 | X-H torsion
[ 10718 10713 10712 10709 ] final  168.83 input   66.30 | X-H torsion
[ 10763 10752 10751 10750 ] final    3.47 input  -60.55 | X-H torsion
[ 11005 11000 10999 10996 ] final -162.90 input  -57.11 | X-H torsion

> <Gold.Protein.ActiveResidues>
 VAL166  LYS551  ARG553  GLY616  TRP617  ASP618  TYR619  PRO620  LYS621  CYS622 
 ASP623  PHE694  ASN695  SER759  ASP760  ASP761  ALA762  ILE779  LEU786  VAL792 
 PHE793  MET794  SER795  GLU796  ALA797  LYS798  CYS799  TRP800  GLU811  SER814 

> <Gold.Protein.RotatedAtoms>
  152.2300  134.8331  160.0474 H   0  0  0  0  0  0  0  0  0  0  0  0  # atno 6907 bound_to 6896
  151.9083  133.3550  159.3863 H   0  0  0  0  0  0  0  0  0  0  0  0  # atno 6908 bound_to 6896
  150.7023  134.4684  159.5457 H   0  0  0  0  0  0  0  0  0  0  0  0  # atno 6909 bound_to 6896
  145.7347  139.2697  143.1521 H   0  0  0  0  0  0  0  0  0  0  0  0  # atno 7974 bound_to 7965
  155.7945  140.0883  157.1991 H   0  0  0  0  0  0  0  0  0  0  0  0  # atno 8008 bound_to 7997
  154.3984  140.1484  156.3261 H   0  0  0  0  0  0  0  0  0  0  0  0  # atno 8009 bound_to 7997
  155.8525  140.3434  155.5705 H   0  0  0  0  0  0  0  0  0  0  0  0  # atno 8010 bound_to 7997
  140.5656  143.9256  150.6674 H   0  0  0  0  0  0  0  0  0  0  0  0  # atno 10167 bound_to 10162
  157.0315  131.0260  151.2743 H   0  0  0  0  0  0  0  0  0  0  0  0  # atno 10718 bound_to 10713
  153.2829  135.6942  153.7368 H   0  0  0  0  0  0  0  0  0  0  0  0  # atno 10763 bound_to 10752
  153.6348  135.3404  155.3054 H   0  0  0  0  0  0  0  0  0  0  0  0  # atno 10764 bound_to 10752
  154.8501  135.4417  154.1888 H   0  0  0  0  0  0  0  0  0  0  0  0  # atno 10765 bound_to 10752
  140.6041  134.4917  157.5208 H   0  0  0  0  0  0  0  0  0  0  0  0  # atno 11005 bound_to 11000
  146.0504  140.8075  142.9784 LP  0  0  0  0  0  0  0  0  0  0  0  0  # atno 17320 bound_to 7965
  144.6884  140.3044  143.7258 LP  0  0  0  0  0  0  0  0  0  0  0  0  # atno 17321 bound_to 7965
  140.2718  143.3450  152.1231 LP  0  0  0  0  0  0  0  0  0  0  0  0  # atno 17342 bound_to 10162
  139.5091  144.6862  151.5881 LP  0  0  0  0  0  0  0  0  0  0  0  0  # atno 17343 bound_to 10162
  157.5174  130.7976  149.7771 LP  0  0  0  0  0  0  0  0  0  0  0  0  # atno 17370 bound_to 10713
  156.0068  130.3852  150.2403 LP  0  0  0  0  0  0  0  0  0  0  0  0  # atno 17371 bound_to 10713
  139.9220  134.8130  156.1183 LP  0  0  0  0  0  0  0  0  0  0  0  0  # atno 17394 bound_to 11000
  141.0852  133.6737  156.2422 LP  0  0  0  0  0  0  0  0  0  0  0  0  # atno 17395 bound_to 11000

$$$$
