AV-unprocessed.smi:2053|AV-procd|sdf|8331|dock10
  -GOLD-   2272010593D 1   1.00000     0.00000
 Structure written by MMmdl.
 44 45  0  0  0  0  0  0  0  0  1 V2000
  148.9234  141.7915  157.3994 C   0  0  0  0  0  0  0  0  0  0  0  0
  150.1042  141.3369  158.0369 O   0  0  0  0  0  0  0  0  0  0  0  0
  151.2210  141.3216  157.1633 C   0  0  0  0  0  0  0  0  0  0  0  0
  150.9695  140.3101  156.0412 C   0  0  0  0  0  0  0  0  0  0  0  0
  150.2473  140.9551  154.9965 O   0  0  0  0  0  0  0  0  0  0  0  0
  149.1248  140.3337  154.4891 C   0  0  0  0  0  0  0  0  0  0  0  0
  148.2408  141.0882  153.6929 C   0  0  0  0  0  0  0  0  0  0  0  0
  147.0914  140.4644  153.1716 C   0  0  0  0  0  0  0  0  0  0  0  0
  146.8572  139.1014  153.4724 C   0  0  0  0  0  0  0  0  0  0  0  0
  145.7507  138.3501  152.9926 N   0  0  0  0  0  0  0  0  0  0  0  0
  145.5452  137.0206  153.0323 C   0  0  0  0  0  0  0  0  0  0  0  0
  146.3514  136.2053  153.4802 O   0  0  0  0  0  0  0  0  0  0  0  0
  144.2019  136.5522  152.4485 C   0  0  1  0  0  0  0  0  0  0  0  0
  144.3284  135.7399  151.1472 C   0  0  0  0  0  0  0  0  0  0  0  0
  144.3448  134.2943  151.6235 C   0  0  0  0  0  0  0  0  0  0  0  0
  143.3841  134.3143  152.8106 C   0  0  0  0  0  0  0  0  0  0  0  0
  143.4648  135.6717  153.3706 N   0  0  0  0  0  0  0  0  0  0  0  0
  142.0862  136.3094  154.2013 S   0  0  0  0  0  0  0  0  0  0  0  0
  141.6934  137.8235  153.2351 C   0  0  0  0  0  0  0  0  0  0  0  0
  140.9811  135.3541  154.0280 O   0  0  0  0  0  0  0  0  0  0  0  0
  142.5151  136.6959  155.5541 O   0  0  0  0  0  0  0  0  0  0  0  0
  147.8107  138.4323  154.2673 C   0  0  0  0  0  0  0  0  0  0  0  0
  148.9144  139.0242  154.7704 N   0  0  0  0  0  0  0  0  0  0  0  0
  148.0968  141.7833  158.1098 H   0  0  0  0  0  0  0  0  0  0  0  0
  148.6535  141.1470  156.5619 H   0  0  0  0  0  0  0  0  0  0  0  0
  149.0417  142.8118  157.0321 H   0  0  0  0  0  0  0  0  0  0  0  0
  151.3519  142.3158  156.7334 H   0  0  0  0  0  0  0  0  0  0  0  0
  152.1370  141.0735  157.7018 H   0  0  0  0  0  0  0  0  0  0  0  0
  151.9157  139.9048  155.6785 H   0  0  0  0  0  0  0  0  0  0  0  0
  150.3777  139.4819  156.4346 H   0  0  0  0  0  0  0  0  0  0  0  0
  148.4438  142.1274  153.4804 H   0  0  0  0  0  0  0  0  0  0  0  0
  146.4276  141.0389  152.5452 H   0  0  0  0  0  0  0  0  0  0  0  0
  145.0326  138.8891  152.5294 H   0  0  0  0  0  0  0  0  0  0  0  0
  143.6058  137.4421  152.2392 H   0  0  0  0  0  0  0  0  0  0  0  0
  143.4497  135.9112  150.5237 H   0  0  0  0  0  0  0  0  0  0  0  0
  145.2017  135.9907  150.5438 H   0  0  0  0  0  0  0  0  0  0  0  0
  144.0445  133.5889  150.8482 H   0  0  0  0  0  0  0  0  0  0  0  0
  145.3466  134.0216  151.9581 H   0  0  0  0  0  0  0  0  0  0  0  0
  142.3665  134.1208  152.4692 H   0  0  0  0  0  0  0  0  0  0  0  0
  143.6384  133.5683  153.5639 H   0  0  0  0  0  0  0  0  0  0  0  0
  140.8072  138.3000  153.6539 H   0  0  0  0  0  0  0  0  0  0  0  0
  141.5019  137.5526  152.1970 H   0  0  0  0  0  0  0  0  0  0  0  0
  142.5315  138.5181  153.2819 H   0  0  0  0  0  0  0  0  0  0  0  0
  147.6836  137.3878  154.5116 H   0  0  0  0  0  0  0  0  0  0  0  0
  1  2  1  0  0  0  0
  1 24  1  0  0  0  0
  1 25  1  0  0  0  0
  1 26  1  0  0  0  0
  2  3  1  0  0  0  0
  3  4  1  0  0  0  0
  3 27  1  0  0  0  0
  3 28  1  0  0  0  0
  4  5  1  0  0  0  0
  4 29  1  0  0  0  0
  4 30  1  0  0  0  0
  5  6  1  0  0  0  0
  6 23  1  0  0  0  0
  6  7  2  0  0  0  0
  7  8  1  0  0  0  0
  7 31  1  0  0  0  0
  8  9  2  0  0  0  0
  8 32  1  0  0  0  0
  9 10  1  0  0  0  0
  9 22  1  0  0  0  0
 10 11  1  0  0  0  0
 10 33  1  0  0  0  0
 11 12  2  0  0  0  0
 11 13  1  0  0  0  0
 13 17  1  0  0  0  0
 13 14  1  0  0  0  0
 13 34  1  0  0  0  0
 14 15  1  0  0  0  0
 14 35  1  0  0  0  0
 14 36  1  0  0  0  0
 15 16  1  0  0  0  0
 15 37  1  0  0  0  0
 15 38  1  0  0  0  0
 16 17  1  0  0  0  0
 16 39  1  0  0  0  0
 16 40  1  0  0  0  0
 17 18  1  0  0  0  0
 18 19  1  0  0  0  0
 18 20  2  0  0  0  0
 18 21  2  0  0  0  0
 19 41  1  0  0  0  0
 19 42  1  0  0  0  0
 19 43  1  0  0  0  0
 22 23  2  0  0  0  0
 22 44  1  0  0  0  0
M  END
> <s_m_source_file>
AV-unprocessed.smi

> <i_m_source_file_index>
2053

> <i_lp_mmshare_version>
43012

> <i_f3d_flags>
0

> <s_epik_input>
W0NIM11PW0NIMl1bQ0gyXU9jMVtjSF1bY0hdYyhbY0hdbjEpW05IXUMoPU8pW0NAQEhdMltDSDJdW0NIMl1bQ0gyXU4yUyg9TykoPU8pW0NIM10=

> <s_epik_cmdline>
J2VwaWtfcHl0aG9uJywgJy1waCcsICc3LjAnLCAnLXRuJywgJzgnLCAnLW1hJywgJzIwMCcsICctbWV0YWxfYmluZGluZycsICctaW1hZScsICc8aW5maWxlLm1hZT4nLCAnLW9tYWUnLCAnPG91dGZpbGUubWFlPic=

> <r_lp_tautomer_probability>
1

> <r_epik_Ionization_Penalty>
1.28704e-05

> <r_epik_Ionization_Penalty_Charging>
0

> <r_epik_Ionization_Penalty_Neutral>
1.28704e-05

> <r_epik_State_Penalty>
-0

> <r_epik_Charging_Adjusted_Penalty>
0

> <i_epik_Tot_Q>
0

> <i_epik_Tot_abs_Q>
0

> <r_epik_Metal_State_Penalty>
-0

> <b_epik_Metal_Only>
0

> <s_lp_Force_Field>
OPLS_2005

> <r_lp_Energy>
12.3258

> <b_lp_Chiralities_Consistent>
1

> <s_lp_Variant>
AV-unprocessed.smi:2053-2

> <Gold.Version>
5.8.1

> <Gold.Id.Protein>
6NUR|6NUR_protein|mol2

> <Gold.PLP.Fitness>
38.4024

> <Gold.PLP.PLP>
-31.9691

> <Gold.PLP.part.hbond>
-3.0000

> <Gold.PLP.part.metal>
0.0000

> <Gold.PLP.part.buried>
-4.1284

> <Gold.PLP.part.nonpolar>
-26.6131

> <Gold.PLP.part.repulsive>
0.9138

> <Gold.PLP.ligand.clash>
0.0000

> <Gold.PLP.ligand.torsion>
1.1762

> <Gold.PLP.Chemscore.Hbond>
2.7360

> <Gold.PLP.Chemscore.CHOScore>
0.0000

> <Gold.PLP.Chemscore.Metal>
0.0000

> <Gold.Chemscore.Hbonds>
donor molecule, donor type, donor heavy atom, donor atom, acceptor molecule, acceptor atom, score
      L1  H    10    33       P1 10175  0.89
      P1  H  7989  7998       L1     5  0.74
      P1  H 11000 11005       L1    20  0.83

> <Gold.PLP.Chemscore.Internal.Correction>
0.5777

> <Gold.Rescore>
     Score         DG    S(hbond)    S(metal)    S(lipo)     H(rot)  DE(clash)    DE(int)     intcor
     10.61     -14.29       2.22        0.00      61.25       2.26       0.07       3.61       ----

> <Gold.Chemscore.Fitness>
10.6064

> <Gold.Chemscore.DG>
-14.2937

> <Gold.Chemscore.ZeroCoef>
-5.4800

> <Gold.Chemscore.Hbond>
2.2237

> <Gold.Chemscore.Metal>
0.0000

> <Gold.Chemscore.Lipo>
61.2493

> <Gold.Chemscore.Internal_Hbond>
0.0000

> <Gold.Chemscore.DEClash>
0.0748

> <Gold.Chemscore.DEInternal>
3.6126

> <Gold.Chemscore.Rot>
2.2576

> <Gold.Chemscore.Internal.Correction>
   9.000000E+99

> <Gold.Chemscore.Hbonds>
donor molecule, donor type, donor heavy atom, donor atom, acceptor molecule, acceptor atom, score
      L1  H    10    33       P1 10175  0.84
      P1  H  7989  7998       L1     5  0.10
      P1  H 11000 11005       L1    20  0.75

> <Gold.Chemscore.Hbond.Weighted>
-7.4271

> <Gold.Chemscore.Metal.Weighted>
-0.0000

> <Gold.Chemscore.Lipo.Weighted>
-7.1662

> <Gold.Chemscore.Internal_Hbond.Weighted>
0.0000

> <Gold.Chemscore.DEClash.Weighted>
0.0748

> <Gold.Chemscore.DEInternal.Weighted>
3.6126

> <Gold.Chemscore.Rot.Weighted>
5.7796

> <Gold.Chemscore.Internal.Correction.Weighted>
   9.000000E+99

> <Gold.Protein.RotatedTorsions>
[ 6907 6896 6895 6894 ] final  -15.23 input  -60.11 | X-H torsion
[ 7974 7965 7964 7962 ] final   42.22 input  175.53 | X-H torsion
[ 8008 7997 7996 7995 ] final  122.79 input   59.86 | X-H torsion
[ 10167 10162 10161 10158 ] final -124.25 input  -65.29 | X-H torsion
[ 10718 10713 10712 10709 ] final  106.76 input   66.30 | X-H torsion
[ 10763 10752 10751 10750 ] final  -85.52 input  -60.55 | X-H torsion
[ 11005 11000 10999 10996 ] final   36.18 input  -57.11 | X-H torsion

> <Gold.Protein.ActiveResidues>
 VAL166  LYS551  ARG553  GLY616  TRP617  ASP618  TYR619  PRO620  LYS621  CYS622 
 ASP623  PHE694  ASN695  SER759  ASP760  ASP761  ALA762  ILE779  LEU786  VAL792 
 PHE793  MET794  SER795  GLU796  ALA797  LYS798  CYS799  TRP800  GLU811  SER814 

> <Gold.Protein.RotatedAtoms>
  151.3271  135.0833  159.9325 H   0  0  0  0  0  0  0  0  0  0  0  0  # atno 6907 bound_to 6896
  152.5243  133.9580  159.7714 H   0  0  0  0  0  0  0  0  0  0  0  0  # atno 6908 bound_to 6896
  150.9912  133.6095  159.2738 H   0  0  0  0  0  0  0  0  0  0  0  0  # atno 6909 bound_to 6896
  146.0759  139.5325  142.9568 H   0  0  0  0  0  0  0  0  0  0  0  0  # atno 7974 bound_to 7965
  156.2741  140.2778  156.1523 H   0  0  0  0  0  0  0  0  0  0  0  0  # atno 8008 bound_to 7997
  155.0840  140.0388  157.2666 H   0  0  0  0  0  0  0  0  0  0  0  0  # atno 8009 bound_to 7997
  154.6941  140.2635  155.6789 H   0  0  0  0  0  0  0  0  0  0  0  0  # atno 8010 bound_to 7997
  139.9948  143.5602  152.2327 H   0  0  0  0  0  0  0  0  0  0  0  0  # atno 10167 bound_to 10162
  157.6656  131.0858  150.6054 H   0  0  0  0  0  0  0  0  0  0  0  0  # atno 10718 bound_to 10713
  154.6120  135.5482  153.7483 H   0  0  0  0  0  0  0  0  0  0  0  0  # atno 10763 bound_to 10752
  153.0199  135.6392  154.1564 H   0  0  0  0  0  0  0  0  0  0  0  0  # atno 10764 bound_to 10752
  154.1502  135.2903  155.3117 H   0  0  0  0  0  0  0  0  0  0  0  0  # atno 10765 bound_to 10752
  140.2352  134.3480  155.7947 H   0  0  0  0  0  0  0  0  0  0  0  0  # atno 11005 bound_to 11000
  145.6308  141.0304  143.1864 LP  0  0  0  0  0  0  0  0  0  0  0  0  # atno 17320 bound_to 7965
  144.7261  139.7872  143.7364 LP  0  0  0  0  0  0  0  0  0  0  0  0  # atno 17321 bound_to 7965
  139.6314  144.7644  151.2529 LP  0  0  0  0  0  0  0  0  0  0  0  0  # atno 17342 bound_to 10162
  140.7441  143.6473  150.8280 LP  0  0  0  0  0  0  0  0  0  0  0  0  # atno 17343 bound_to 10162
  156.6355  130.4444  149.5771 LP  0  0  0  0  0  0  0  0  0  0  0  0  # atno 17370 bound_to 10713
  156.2249  130.6759  151.1405 LP  0  0  0  0  0  0  0  0  0  0  0  0  # atno 17371 bound_to 10713
  141.2215  133.7268  156.8796 LP  0  0  0  0  0  0  0  0  0  0  0  0  # atno 17394 bound_to 11000
  140.1709  134.9100  157.2833 LP  0  0  0  0  0  0  0  0  0  0  0  0  # atno 17395 bound_to 11000

$$$$
