AV-unprocessed.smi:103|AV-procd|sdf|991|dock9
  -GOLD-   2262017573D 1   1.00000     0.00000
 Structure written by MMmdl.
 53 55  0  0  0  0  0  0  0  0  1 V2000
  147.0546  141.3661  153.6172 C   0  0  0  0  0  0  0  0  0  0  0  0
  148.3180  140.6997  154.1447 C   0  0  0  0  0  0  0  0  0  0  0  0
  149.4077  141.2723  154.1130 O   0  0  0  0  0  0  0  0  0  0  0  0
  148.0842  139.4689  154.6263 O   0  0  0  0  0  0  0  0  0  0  0  0
  148.8842  138.9595  155.6814 C   0  0  0  0  0  0  0  0  0  0  0  0
  149.7751  137.8269  155.1419 C   0  0  2  0  0  0  0  0  0  0  0  0
  148.9217  136.8474  154.5438 O   0  0  0  0  0  0  0  0  0  0  0  0
  149.0129  135.6303  155.2193 C   0  0  2  0  0  0  0  0  0  0  0  0
  147.6584  134.9886  155.2916 N   0  0  0  0  0  0  0  0  0  0  0  0
  147.2684  133.7374  154.8586 C   0  0  0  0  0  0  0  0  0  0  0  0
  148.2872  132.5500  153.9929 S   0  0  0  0  0  0  0  0  0  0  0  0
  149.9014  132.7521  154.8487 C   0  0  0  0  0  0  0  0  0  0  0  0
  147.7495  131.2132  154.2875 O   0  0  0  0  0  0  0  0  0  0  0  0
  148.4065  133.0188  152.6034 O   0  0  0  0  0  0  0  0  0  0  0  0
  146.0067  133.4339  154.9968 N   0  0  0  0  0  0  0  0  0  0  0  0
  145.4885  134.5415  155.6519 C   0  0  0  0  0  0  0  0  0  0  0  0
  144.2032  134.8806  156.1447 C   0  0  0  0  0  0  0  0  0  0  0  0
  143.1415  134.0699  156.0362 N   0  0  0  0  0  0  0  0  0  0  0  0
  144.0390  136.0768  156.7559 N   0  0  0  0  0  0  0  0  0  0  0  0
  145.0825  136.9030  156.8763 C   0  0  0  0  0  0  0  0  0  0  0  0
  146.3390  136.7250  156.4616 N   0  0  0  0  0  0  0  0  0  0  0  0
  146.5075  135.5181  155.8460 C   0  0  0  0  0  0  0  0  0  0  0  0
  149.6186  135.9243  156.5975 C   0  0  2  0  0  0  0  0  0  0  0  0
  148.6238  136.3422  157.5320 O   0  0  0  0  0  0  0  0  0  0  0  0
  148.9225  136.5008  158.8335 C   0  0  0  0  0  0  0  0  0  0  0  0
  147.6809  136.7262  159.6850 C   0  0  0  0  0  0  0  0  0  0  0  0
  150.0468  136.4540  159.3322 O   0  0  0  0  0  0  0  0  0  0  0  0
  150.5526  137.0602  156.2269 C   0  0  2  0  0  0  0  0  0  0  0  0
  150.9346  137.8234  157.3663 O   0  0  0  0  0  0  0  0  0  0  0  0
  151.8329  138.8149  157.2457 C   0  0  0  0  0  0  0  0  0  0  0  0
  152.0849  139.5329  158.5647 C   0  0  0  0  0  0  0  0  0  0  0  0
  152.4075  139.1500  156.2099 O   0  0  0  0  0  0  0  0  0  0  0  0
  146.2406  141.2598  154.3348 H   0  0  0  0  0  0  0  0  0  0  0  0
  146.7502  140.9075  152.6762 H   0  0  0  0  0  0  0  0  0  0  0  0
  147.2260  142.4293  153.4457 H   0  0  0  0  0  0  0  0  0  0  0  0
  149.4948  139.7755  156.0687 H   0  0  0  0  0  0  0  0  0  0  0  0
  148.2690  138.5979  156.5052 H   0  0  0  0  0  0  0  0  0  0  0  0
  150.4683  138.2257  154.4006 H   0  0  0  0  0  0  0  0  0  0  0  0
  149.6248  134.9571  154.6199 H   0  0  0  0  0  0  0  0  0  0  0  0
  150.6317  132.0721  154.4111 H   0  0  0  0  0  0  0  0  0  0  0  0
  149.7839  132.5275  155.9085 H   0  0  0  0  0  0  0  0  0  0  0  0
  150.2468  133.7793  154.7326 H   0  0  0  0  0  0  0  0  0  0  0  0
  143.2391  133.1711  155.5861 H   0  0  0  0  0  0  0  0  0  0  0  0
  142.2476  134.3578  156.4069 H   0  0  0  0  0  0  0  0  0  0  0  0
  144.8837  137.8405  157.3745 H   0  0  0  0  0  0  0  0  0  0  0  0
  150.1767  135.0604  156.9593 H   0  0  0  0  0  0  0  0  0  0  0  0
  146.9590  135.9261  159.5182 H   0  0  0  0  0  0  0  0  0  0  0  0
  147.2128  137.6764  159.4270 H   0  0  0  0  0  0  0  0  0  0  0  0
  147.9400  136.7428  160.7439 H   0  0  0  0  0  0  0  0  0  0  0  0
  151.4360  136.6120  155.7682 H   0  0  0  0  0  0  0  0  0  0  0  0
  152.2593  138.8122  159.3639 H   0  0  0  0  0  0  0  0  0  0  0  0
  151.2232  140.1453  158.8308 H   0  0  0  0  0  0  0  0  0  0  0  0
  152.9590  140.1798  158.4873 H   0  0  0  0  0  0  0  0  0  0  0  0
  1  2  1  0  0  0  0
  1 33  1  0  0  0  0
  1 34  1  0  0  0  0
  1 35  1  0  0  0  0
  2  3  2  0  0  0  0
  2  4  1  0  0  0  0
  4  5  1  0  0  0  0
  5  6  1  0  0  0  0
  5 36  1  0  0  0  0
  5 37  1  0  0  0  0
  6 28  1  0  0  0  0
  6  7  1  0  0  0  0
  6 38  1  0  0  0  0
  7  8  1  0  0  0  0
  8  9  1  0  0  0  0
  8 23  1  0  0  0  0
  8 39  1  0  0  0  0
  9 22  1  0  0  0  0
  9 10  1  0  0  0  0
 10 11  1  0  0  0  0
 10 15  2  0  0  0  0
 11 12  1  0  0  0  0
 11 13  2  0  0  0  0
 11 14  2  0  0  0  0
 12 40  1  0  0  0  0
 12 41  1  0  0  0  0
 12 42  1  0  0  0  0
 15 16  1  0  0  0  0
 16 22  2  0  0  0  0
 16 17  1  0  0  0  0
 17 18  1  0  0  0  0
 17 19  2  0  0  0  0
 18 43  1  0  0  0  0
 18 44  1  0  0  0  0
 19 20  1  0  0  0  0
 20 21  2  0  0  0  0
 20 45  1  0  0  0  0
 21 22  1  0  0  0  0
 23 24  1  0  0  0  0
 23 28  1  0  0  0  0
 23 46  1  0  0  0  0
 24 25  1  0  0  0  0
 25 26  1  0  0  0  0
 25 27  2  0  0  0  0
 26 47  1  0  0  0  0
 26 48  1  0  0  0  0
 26 49  1  0  0  0  0
 28 29  1  0  0  0  0
 28 50  1  0  0  0  0
 29 30  1  0  0  0  0
 30 31  1  0  0  0  0
 30 32  2  0  0  0  0
 31 51  1  0  0  0  0
 31 52  1  0  0  0  0
 31 53  1  0  0  0  0
M  END
> <s_m_source_file>
AV-unprocessed.smi

> <i_m_source_file_index>
103

> <i_lp_mmshare_version>
43012

> <i_f3d_flags>
0

> <s_epik_input>
W0NIM11DKD1PKU9bQ0gyXVtDQEBIXTFPW0NASF0oW0NAQEhdKE9DKD1PKVtDSDNdKVtDQEhdMU9DKD1PKVtDSDNdKW4oYyhuMilTKD1PKSg9TylbQ0gzXSljKGMyMyluW2NIXW5jM1tOSDJd

> <s_epik_cmdline>
J2VwaWtfcHl0aG9uJywgJy1waCcsICc3LjAnLCAnLXRuJywgJzgnLCAnLW1hJywgJzIwMCcsICctbWV0YWxfYmluZGluZycsICctaW1hZScsICc8aW5maWxlLm1hZT4nLCAnLW9tYWUnLCAnPG91dGZpbGUubWFlPic=

> <r_lp_tautomer_probability>
1

> <r_epik_Ionization_Penalty>
1.51338e-05

> <r_epik_Ionization_Penalty_Charging>
0

> <r_epik_Ionization_Penalty_Neutral>
1.51338e-05

> <r_epik_State_Penalty>
-0

> <r_epik_Charging_Adjusted_Penalty>
0

> <i_epik_Tot_Q>
0

> <i_epik_Tot_abs_Q>
0

> <r_epik_Metal_State_Penalty>
-0

> <b_epik_Metal_Only>
0

> <s_epik_Chemistry_Notes>
This compound has an ester and may undergo hydrolysis at high or low pH. This compound contains an acetal/aminal-like group ( X-CH(R)-Y where X, Y are N, S, or O) that may be acid/base labile, releasing an aldehyde.

> <s_lp_Force_Field>
OPLS_2005

> <r_lp_Energy>
16.3317

> <b_lp_Chiralities_Consistent>
1

> <s_lp_Variant>
AV-unprocessed.smi:103-15

> <Gold.Version>
5.8.1

> <Gold.Id.Protein>
6NUR|6NUR_protein|mol2

> <Gold.PLP.Fitness>
39.0568

> <Gold.PLP.PLP>
-26.3575

> <Gold.PLP.part.hbond>
-6.0000

> <Gold.PLP.part.metal>
0.0000

> <Gold.PLP.part.buried>
-6.4425

> <Gold.PLP.part.nonpolar>
-16.8399

> <Gold.PLP.part.repulsive>
2.9998

> <Gold.PLP.ligand.clash>
0.0000

> <Gold.PLP.ligand.torsion>
2.1027

> <Gold.PLP.Chemscore.Hbond>
4.8225

> <Gold.PLP.Chemscore.CHOScore>
0.0000

> <Gold.PLP.Chemscore.Metal>
0.0000

> <Gold.Chemscore.Hbonds>
donor molecule, donor type, donor heavy atom, donor atom, acceptor molecule, acceptor atom, score
      L1  H    18    43       P1 10957  1.00
      L1  H    18    44       P1 11000  1.00
      P1  H  6896  6907       L1    27  1.00
      P1  H  7989  7998       L1     3  0.10
      P1  H  7997  8008       L1    32  0.67
      P1  H  8011  8017       L1     3  0.53

> <Gold.PLP.Chemscore.Internal.Correction>
2.4374

> <Gold.Rescore>
     Score         DG    S(hbond)    S(metal)    S(lipo)     H(rot)  DE(clash)    DE(int)     intcor
      3.74     -13.10       4.31        0.00      35.01       4.25       1.34       8.01       ----

> <Gold.Chemscore.Fitness>
3.7417

> <Gold.Chemscore.DG>
-13.0974

> <Gold.Chemscore.ZeroCoef>
-5.4800

> <Gold.Chemscore.Hbond>
4.3085

> <Gold.Chemscore.Metal>
0.0000

> <Gold.Chemscore.Lipo>
35.0050

> <Gold.Chemscore.Internal_Hbond>
0.0000

> <Gold.Chemscore.DEClash>
1.3426

> <Gold.Chemscore.DEInternal>
8.0131

> <Gold.Chemscore.Rot>
4.2456

> <Gold.Chemscore.Internal.Correction>
   9.000000E+99

> <Gold.Chemscore.Hbonds>
donor molecule, donor type, donor heavy atom, donor atom, acceptor molecule, acceptor atom, score
      L1  H    18    43       P1 10957  0.98
      L1  H    18    44       P1 11000  0.63
      P1  H  6896  6907       L1    27  1.00
      P1  H  7989  7998       L1     3  0.11
      P1  H  7997  8008       L1    32  0.65
      P1  H  8011  8017       L1     3  0.50

> <Gold.Chemscore.Hbond.Weighted>
-14.3904

> <Gold.Chemscore.Metal.Weighted>
-0.0000

> <Gold.Chemscore.Lipo.Weighted>
-4.0956

> <Gold.Chemscore.Internal_Hbond.Weighted>
0.0000

> <Gold.Chemscore.DEClash.Weighted>
1.3426

> <Gold.Chemscore.DEInternal.Weighted>
8.0131

> <Gold.Chemscore.Rot.Weighted>
10.8687

> <Gold.Chemscore.Internal.Correction.Weighted>
   9.000000E+99

> <Gold.Protein.RotatedTorsions>
[ 6907 6896 6895 6894 ] final  -36.03 input  -60.11 | X-H torsion
[ 7974 7965 7964 7962 ] final -110.68 input  175.53 | X-H torsion
[ 8008 7997 7996 7995 ] final  -42.39 input   59.86 | X-H torsion
[ 10167 10162 10161 10158 ] final  102.79 input  -65.29 | X-H torsion
[ 10718 10713 10712 10709 ] final -173.58 input   66.30 | X-H torsion
[ 10763 10752 10751 10750 ] final   48.00 input  -60.55 | X-H torsion
[ 11005 11000 10999 10996 ] final  102.12 input  -57.11 | X-H torsion

> <Gold.Protein.ActiveResidues>
 VAL166  LYS551  ARG553  GLY616  TRP617  ASP618  TYR619  PRO620  LYS621  CYS622 
 ASP623  PHE694  ASN695  SER759  ASP760  ASP761  ALA762  ILE779  LEU786  VAL792 
 PHE793  MET794  SER795  GLU796  ALA797  LYS798  CYS799  TRP800  GLU811  SER814 

> <Gold.Protein.RotatedAtoms>
  151.0323  134.9548  159.8117 H   0  0  0  0  0  0  0  0  0  0  0  0  # atno 6907 bound_to 6896
  152.5348  134.2764  159.9001 H   0  0  0  0  0  0  0  0  0  0  0  0  # atno 6908 bound_to 6896
  151.2774  133.4184  159.2659 H   0  0  0  0  0  0  0  0  0  0  0  0  # atno 6909 bound_to 6896
  145.1653  140.8899  143.3567 H   0  0  0  0  0  0  0  0  0  0  0  0  # atno 7974 bound_to 7965
  154.3999  140.1475  156.3347 H   0  0  0  0  0  0  0  0  0  0  0  0  # atno 8008 bound_to 7997
  155.8411  140.3462  155.5611 H   0  0  0  0  0  0  0  0  0  0  0  0  # atno 8009 bound_to 7997
  155.8085  140.0880  157.1907 H   0  0  0  0  0  0  0  0  0  0  0  0  # atno 8010 bound_to 7997
  139.7320  144.7033  151.0708 H   0  0  0  0  0  0  0  0  0  0  0  0  # atno 10167 bound_to 10162
  156.7724  130.9453  151.3120 H   0  0  0  0  0  0  0  0  0  0  0  0  # atno 10718 bound_to 10713
  152.9795  135.5958  154.3854 H   0  0  0  0  0  0  0  0  0  0  0  0  # atno 10763 bound_to 10752
  154.3515  135.2767  155.2371 H   0  0  0  0  0  0  0  0  0  0  0  0  # atno 10764 bound_to 10752
  154.4409  135.6013  153.6183 H   0  0  0  0  0  0  0  0  0  0  0  0  # atno 10765 bound_to 10752
  139.8776  134.9211  156.5011 H   0  0  0  0  0  0  0  0  0  0  0  0  # atno 11005 bound_to 11000
  145.0288  139.3359  143.6035 LP  0  0  0  0  0  0  0  0  0  0  0  0  # atno 17320 bound_to 7965
  146.3476  139.9618  142.8716 LP  0  0  0  0  0  0  0  0  0  0  0  0  # atno 17321 bound_to 7965
  140.7772  143.5032  150.9745 LP  0  0  0  0  0  0  0  0  0  0  0  0  # atno 17342 bound_to 10162
  139.8720  143.7180  152.3165 LP  0  0  0  0  0  0  0  0  0  0  0  0  # atno 17343 bound_to 10162
  157.6685  130.9029  149.9986 LP  0  0  0  0  0  0  0  0  0  0  0  0  # atno 17370 bound_to 10713
  156.1270  130.3644  149.9794 LP  0  0  0  0  0  0  0  0  0  0  0  0  # atno 17371 bound_to 10713
  140.8589  133.8075  155.9245 LP  0  0  0  0  0  0  0  0  0  0  0  0  # atno 17394 bound_to 11000
  140.9069  134.2308  157.5009 LP  0  0  0  0  0  0  0  0  0  0  0  0  # atno 17395 bound_to 11000

$$$$
