AV-unprocessed.smi:3303|AV-procd|sdf|12684|dock2
  -GOLD-   2272019 23D 1   1.00000     0.00000
 Structure written by MMmdl.
 44 45  0  0  0  0  0  0  0  0  2 V2000
  152.8460  138.4987  154.6972 C   0  0  0  0  0  0  0  0  0  0  0  0
  151.3846  138.1236  154.3936 C   0  0  1  0  0  0  0  0  0  0  0  0
  150.9946  136.7577  154.9912 C   0  0  0  0  0  0  0  0  0  0  0  0
  149.6183  136.3725  154.5911 N   0  3  1  0  0  0  0  0  0  0  0  0
  149.2914  134.9702  154.9358 C   0  0  0  0  0  0  0  0  0  0  0  0
  148.5814  137.3609  155.0035 C   0  0  1  0  0  0  0  0  0  0  0  0
  148.2782  137.3460  156.5179 C   0  0  0  0  0  0  0  0  0  0  0  0
  148.9287  138.7688  154.4672 C   0  0  0  0  0  0  0  0  0  0  0  0
  150.3735  139.2288  154.7773 C   0  0  1  0  0  0  0  0  0  0  0  0
  150.5479  139.6384  156.1686 N   0  0  0  0  0  0  0  0  0  0  0  0
  151.4644  140.7612  156.3082 C   0  0  0  0  0  0  0  0  0  0  0  0
  151.9494  140.8459  157.7613 C   0  0  0  0  0  0  0  0  0  0  0  0
  151.9424  142.2709  158.2808 C   0  0  0  0  0  0  0  0  0  0  0  0
  152.5652  142.5937  159.5053 C   0  0  0  0  0  0  0  0  0  0  0  0
  152.5220  143.9300  159.9479 C   0  0  0  0  0  0  0  0  0  0  0  0
  151.8602  144.8864  159.1539 C   0  0  0  0  0  0  0  0  0  0  0  0
  151.2678  144.4620  157.9477 C   0  0  0  0  0  0  0  0  0  0  0  0
  151.3031  143.1833  157.5143 N   0  0  0  0  0  0  0  0  0  0  0  0
  153.0340  138.5629  155.7694 H   0  0  0  0  0  0  0  0  0  0  0  0
  153.1047  139.4608  154.2539 H   0  0  0  0  0  0  0  0  0  0  0  0
  153.5318  137.7554  154.2897 H   0  0  0  0  0  0  0  0  0  0  0  0
  151.3227  138.0160  153.3093 H   0  0  0  0  0  0  0  0  0  0  0  0
  151.6910  135.9989  154.6319 H   0  0  0  0  0  0  0  0  0  0  0  0
  151.0847  136.7688  156.0778 H   0  0  0  0  0  0  0  0  0  0  0  0
  149.3655  134.7944  156.0095 H   0  0  0  0  0  0  0  0  0  0  0  0
  149.9798  134.2872  154.4373 H   0  0  0  0  0  0  0  0  0  0  0  0
  148.2815  134.7160  154.6121 H   0  0  0  0  0  0  0  0  0  0  0  0
  147.6571  137.0643  154.5058 H   0  0  0  0  0  0  0  0  0  0  0  0
  147.5524  138.1186  156.7729 H   0  0  0  0  0  0  0  0  0  0  0  0
  149.1647  137.5209  157.1256 H   0  0  0  0  0  0  0  0  0  0  0  0
  147.8480  136.3952  156.8318 H   0  0  0  0  0  0  0  0  0  0  0  0
  148.8234  138.7428  153.3817 H   0  0  0  0  0  0  0  0  0  0  0  0
  148.1885  139.4958  154.7995 H   0  0  0  0  0  0  0  0  0  0  0  0
  150.5977  140.0991  154.1583 H   0  0  0  0  0  0  0  0  0  0  0  0
  150.9193  138.8598  156.6949 H   0  0  0  0  0  0  0  0  0  0  0  0
  152.3156  140.6269  155.6398 H   0  0  0  0  0  0  0  0  0  0  0  0
  150.9742  141.6944  156.0338 H   0  0  0  0  0  0  0  0  0  0  0  0
  151.3194  140.2283  158.4029 H   0  0  0  0  0  0  0  0  0  0  0  0
  152.9607  140.4450  157.8452 H   0  0  0  0  0  0  0  0  0  0  0  0
  153.0633  141.8372  160.0938 H   0  0  0  0  0  0  0  0  0  0  0  0
  152.9873  144.2157  160.8796 H   0  0  0  0  0  0  0  0  0  0  0  0
  151.8072  145.9202  159.4617 H   0  0  0  0  0  0  0  0  0  0  0  0
  150.7512  145.1683  157.3147 H   0  0  0  0  0  0  0  0  0  0  0  0
  149.6196  136.4019  153.5815 H   0  0  0  0  0  0  0  0  0  0  0  0
  1  2  1  0  0  0  0
  1 19  1  0  0  0  0
  1 20  1  0  0  0  0
  1 21  1  0  0  0  0
  2  9  1  0  0  0  0
  2  3  1  0  0  0  0
  2 22  1  0  0  0  0
  3  4  1  0  0  0  0
  3 23  1  0  0  0  0
  3 24  1  0  0  0  0
  4  5  1  0  0  0  0
  4  6  1  0  0  0  0
  4 44  1  0  0  0  0
  5 25  1  0  0  0  0
  5 26  1  0  0  0  0
  5 27  1  0  0  0  0
  6  7  1  0  0  0  0
  6  8  1  0  0  0  0
  6 28  1  0  0  0  0
  7 29  1  0  0  0  0
  7 30  1  0  0  0  0
  7 31  1  0  0  0  0
  8  9  1  0  0  0  0
  8 32  1  0  0  0  0
  8 33  1  0  0  0  0
  9 10  1  0  0  0  0
  9 34  1  0  0  0  0
 10 11  1  0  0  0  0
 10 35  1  0  0  0  0
 11 12  1  0  0  0  0
 11 36  1  0  0  0  0
 11 37  1  0  0  0  0
 12 13  1  0  0  0  0
 12 38  1  0  0  0  0
 12 39  1  0  0  0  0
 13 18  1  0  0  0  0
 13 14  2  0  0  0  0
 14 15  1  0  0  0  0
 14 40  1  0  0  0  0
 15 16  2  0  0  0  0
 15 41  1  0  0  0  0
 16 17  1  0  0  0  0
 16 42  1  0  0  0  0
 17 18  2  0  0  0  0
 17 43  1  0  0  0  0
M  CHG  1   4   1
M  END
> <s_m_source_file>
AV-unprocessed.smi

> <i_m_source_file_index>
3303

> <i_lp_mmshare_version>
43012

> <i_f3d_flags>
0

> <s_epik_input>
W0NIM11bQ0BASF0xW0NIMl1OKFtDSDNdKVtDQEBIXShbQ0gzXSlbQ0gyXVtDQEhdMVtOSF1bQ0gyXVtDSDJdYzJbY0hdW2NIXVtjSF1bY0hdbjI=

> <s_epik_cmdline>
J2VwaWtfcHl0aG9uJywgJy1waCcsICc3LjAnLCAnLXRuJywgJzgnLCAnLW1hJywgJzIwMCcsICctbWV0YWxfYmluZGluZycsICctaW1hZScsICc8aW5maWxlLm1hZT4nLCAnLW9tYWUnLCAnPG91dGZpbGUubWFlPic=

> <r_epik_Ionization_Penalty>
2.31085

> <r_epik_Ionization_Penalty_Charging>
0.000313057

> <r_epik_Ionization_Penalty_Neutral>
2.31054

> <r_epik_State_Penalty>
2.4087

> <r_epik_Charging_Adjusted_Penalty>
2.40902

> <i_epik_Tot_Q>
1

> <i_epik_Tot_abs_Q>
1

> <r_epik_Metal_State_Penalty>
2.30979

> <b_epik_Metal_Only>
0

> <s_lp_Force_Field>
OPLS_2005

> <r_lp_Energy>
26.6876

> <b_lp_Chiralities_Consistent>
1

> <s_lp_Variant>
AV-unprocessed.smi:3303-28

> <Gold.Version>
5.8.1

> <Gold.Id.Protein>
6NUR|6NUR_protein|mol2

> <Gold.PLP.Fitness>
45.8785

> <Gold.PLP.PLP>
-38.7936

> <Gold.PLP.part.hbond>
-1.0000

> <Gold.PLP.part.metal>
0.0000

> <Gold.PLP.part.buried>
-5.5441

> <Gold.PLP.part.nonpolar>
-33.8362

> <Gold.PLP.part.repulsive>
0.1423

> <Gold.PLP.ligand.clash>
0.0000

> <Gold.PLP.ligand.torsion>
0.9562

> <Gold.PLP.Chemscore.Hbond>
2.0000

> <Gold.PLP.Chemscore.CHOScore>
0.9946

> <Gold.PLP.Chemscore.Metal>
0.0000

> <Gold.Chemscore.Hbonds>
donor molecule, donor type, donor heavy atom, donor atom, acceptor molecule, acceptor atom, score
      L1  H     4    44       P1  7948  2.00
      L1  C    17    43       P1  8028  0.98

> <Gold.PLP.Chemscore.Internal.Correction>
0.0136

> <Gold.Rescore>
     Score         DG    S(hbond)    S(metal)    S(lipo)     H(rot)  DE(clash)    DE(int)     intcor
     18.11     -19.10       0.97        0.00     117.80       1.33       0.02       0.97       ----

> <Gold.Chemscore.Fitness>
18.1074

> <Gold.Chemscore.DG>
-19.0971

> <Gold.Chemscore.ZeroCoef>
-5.4800

> <Gold.Chemscore.Hbond>
0.9678

> <Gold.Chemscore.Metal>
0.0000

> <Gold.Chemscore.Lipo>
117.7982

> <Gold.Chemscore.Internal_Hbond>
0.0000

> <Gold.Chemscore.DEClash>
0.0207

> <Gold.Chemscore.DEInternal>
0.9690

> <Gold.Chemscore.Rot>
1.3272

> <Gold.Chemscore.Internal.Correction>
   9.000000E+99

> <Gold.Chemscore.Hbonds>
donor molecule, donor type, donor heavy atom, donor atom, acceptor molecule, acceptor atom, score
      L1  H     4    44       P1  7948  0.50

> <Gold.Chemscore.Hbond.Weighted>
-3.2323

> <Gold.Chemscore.Metal.Weighted>
-0.0000

> <Gold.Chemscore.Lipo.Weighted>
-13.7824

> <Gold.Chemscore.Internal_Hbond.Weighted>
0.0000

> <Gold.Chemscore.DEClash.Weighted>
0.0207

> <Gold.Chemscore.DEInternal.Weighted>
0.9690

> <Gold.Chemscore.Rot.Weighted>
3.3976

> <Gold.Chemscore.Internal.Correction.Weighted>
   9.000000E+99

> <Gold.Protein.RotatedTorsions>
[ 6907 6896 6895 6894 ] final   48.64 input  -60.11 | X-H torsion
[ 7974 7965 7964 7962 ] final   48.59 input  175.53 | X-H torsion
[ 8008 7997 7996 7995 ] final  -39.83 input   59.86 | X-H torsion
[ 10167 10162 10161 10158 ] final   65.20 input  -65.29 | X-H torsion
[ 10718 10713 10712 10709 ] final -104.03 input   66.30 | X-H torsion
[ 10763 10752 10751 10750 ] final  -51.88 input  -60.55 | X-H torsion
[ 11005 11000 10999 10996 ] final -161.56 input  -57.11 | X-H torsion

> <Gold.Protein.ActiveResidues>
 VAL166  LYS551  ARG553  GLY616  TRP617  ASP618  TYR619  PRO620  LYS621  CYS622 
 ASP623  PHE694  ASN695  SER759  ASP760  ASP761  ALA762  ILE779  LEU786  VAL792 
 PHE793  MET794  SER795  GLU796  ALA797  LYS798  CYS799  TRP800  GLU811  SER814 

> <Gold.Protein.RotatedAtoms>
  152.2818  134.7820  160.0394 H   0  0  0  0  0  0  0  0  0  0  0  0  # atno 6907 bound_to 6896
  151.8396  133.3416  159.3647 H   0  0  0  0  0  0  0  0  0  0  0  0  # atno 6908 bound_to 6896
  150.7193  134.5332  159.5755 H   0  0  0  0  0  0  0  0  0  0  0  0  # atno 6909 bound_to 6896
  146.0189  139.4629  142.9909 H   0  0  0  0  0  0  0  0  0  0  0  0  # atno 7974 bound_to 7965
  154.4018  140.1541  156.2928 H   0  0  0  0  0  0  0  0  0  0  0  0  # atno 8008 bound_to 7997
  155.8770  140.3446  155.5839 H   0  0  0  0  0  0  0  0  0  0  0  0  # atno 8009 bound_to 7997
  155.7710  140.0830  157.2098 H   0  0  0  0  0  0  0  0  0  0  0  0  # atno 8010 bound_to 7997
  140.1139  144.4793  150.6961 H   0  0  0  0  0  0  0  0  0  0  0  0  # atno 10167 bound_to 10162
  156.0288  130.5496  150.7339 H   0  0  0  0  0  0  0  0  0  0  0  0  # atno 10718 bound_to 10713
  154.1337  135.6516  153.4927 H   0  0  0  0  0  0  0  0  0  0  0  0  # atno 10763 bound_to 10752
  153.0187  135.5299  154.6975 H   0  0  0  0  0  0  0  0  0  0  0  0  # atno 10764 bound_to 10752
  154.6217  135.2965  155.0289 H   0  0  0  0  0  0  0  0  0  0  0  0  # atno 10765 bound_to 10752
  140.6190  134.4770  157.5222 H   0  0  0  0  0  0  0  0  0  0  0  0  # atno 11005 bound_to 11000
  145.7224  141.0070  143.1395 LP  0  0  0  0  0  0  0  0  0  0  0  0  # atno 17320 bound_to 7965
  144.6982  139.8886  143.7451 LP  0  0  0  0  0  0  0  0  0  0  0  0  # atno 17321 bound_to 7965
  140.6910  143.2376  151.5131 LP  0  0  0  0  0  0  0  0  0  0  0  0  # atno 17342 bound_to 10162
  139.5604  144.2170  152.1682 LP  0  0  0  0  0  0  0  0  0  0  0  0  # atno 17343 bound_to 10162
  157.4924  131.0912  151.0411 LP  0  0  0  0  0  0  0  0  0  0  0  0  # atno 17370 bound_to 10713
  157.0814  130.5904  149.5421 LP  0  0  0  0  0  0  0  0  0  0  0  0  # atno 17371 bound_to 10713
  139.9161  134.8244  156.1362 LP  0  0  0  0  0  0  0  0  0  0  0  0  # atno 17394 bound_to 11000
  141.0755  133.6777  156.2228 LP  0  0  0  0  0  0  0  0  0  0  0  0  # atno 17395 bound_to 11000

$$$$
