AV-unprocessed.smi:171|AV-procd|sdf|1416|dock1
  -GOLD-   2262019183D 1   1.00000     0.00000
 Structure written by MMmdl.
 56 59  0  0  0  0  0  0  0  0  1 V2000
  149.8713  143.7100  158.5272 C   0  0  0  0  0  0  0  0  0  0  0  0
  150.8486  142.5397  158.3363 C   0  0  0  0  0  0  0  0  0  0  0  0
  152.2450  142.9250  158.8507 C   0  0  0  0  0  0  0  0  0  0  0  0
  150.8469  142.0683  156.8642 C   0  0  0  0  0  0  0  0  0  0  0  0
  150.0475  140.7640  156.5861 C   0  0  2  0  0  0  0  0  0  0  0  0
  150.4624  140.1330  155.2329 C   0  0  0  0  0  0  0  0  0  0  0  0
  151.5384  139.5484  155.1337 O   0  0  0  0  0  0  0  0  0  0  0  0
  149.6272  140.2289  154.1825 N   0  0  0  0  0  0  0  0  0  0  0  0
  148.3121  140.8694  154.1848 C   0  0  0  0  0  0  0  0  0  0  0  0
  148.0646  141.7286  155.4372 C   0  0  0  0  0  0  0  0  0  0  0  0
  148.6064  141.0654  156.6213 N   0  0  0  0  0  0  0  0  0  0  0  0
  147.7612  140.1689  157.1954 C   0  0  0  0  0  0  0  0  0  0  0  0
  146.4153  140.3149  157.0651 N   0  0  0  0  0  0  0  0  0  0  0  0
  145.5821  139.4468  157.6460 C   0  0  0  0  0  0  0  0  0  0  0  0
  145.8758  138.3801  158.3912 N   0  0  0  0  0  0  0  0  0  0  0  0
  147.2242  138.2280  158.5269 C   0  0  0  0  0  0  0  0  0  0  0  0
  148.2276  139.0673  157.9656 C   0  0  0  0  0  0  0  0  0  0  0  0
  149.4882  138.5923  158.3078 N   0  0  0  0  0  0  0  0  0  0  0  0
  149.2436  137.5373  159.0361 C   0  0  0  0  0  0  0  0  0  0  0  0
  147.9107  137.2508  159.2263 N   0  0  0  0  0  0  0  0  0  0  0  0
  147.3572  136.1471  159.9952 C   0  0  0  0  0  0  0  0  0  0  0  0
  146.6706  136.5963  161.3068 C   0  0  2  0  0  0  0  0  0  0  0  0
  145.6296  137.5057  160.9873 O   0  0  0  0  0  0  0  0  0  0  0  0
  147.6088  137.2652  162.3006 C   0  0  0  0  0  0  0  0  0  0  0  0
  146.8928  137.0497  163.6283 C   0  0  0  0  0  0  0  0  0  0  0  0
  146.2825  135.7706  163.5128 O   0  0  0  0  0  0  0  0  0  0  0  0
  146.1266  135.4150  162.1396 C   0  0  1  0  0  0  0  0  0  0  0  0
  144.6845  134.9714  161.8449 C   0  0  0  0  0  0  0  0  0  0  0  0
  150.1711  144.5759  157.9360 H   0  0  0  0  0  0  0  0  0  0  0  0
  149.8261  144.0197  159.5715 H   0  0  0  0  0  0  0  0  0  0  0  0
  148.8605  143.4341  158.2254 H   0  0  0  0  0  0  0  0  0  0  0  0
  150.4846  141.7163  158.9520 H   0  0  0  0  0  0  0  0  0  0  0  0
  152.7061  143.6848  158.2191 H   0  0  0  0  0  0  0  0  0  0  0  0
  152.9100  142.0628  158.8835 H   0  0  0  0  0  0  0  0  0  0  0  0
  152.1936  143.3226  159.8646 H   0  0  0  0  0  0  0  0  0  0  0  0
  150.4203  142.8803  156.2726 H   0  0  0  0  0  0  0  0  0  0  0  0
  151.8745  141.9792  156.5066 H   0  0  0  0  0  0  0  0  0  0  0  0
  150.2851  140.0490  157.3757 H   0  0  0  0  0  0  0  0  0  0  0  0
  149.9228  139.8075  153.3137 H   0  0  0  0  0  0  0  0  0  0  0  0
  148.1939  141.4677  153.2814 H   0  0  0  0  0  0  0  0  0  0  0  0
  147.5655  140.0761  154.1358 H   0  0  0  0  0  0  0  0  0  0  0  0
  148.5648  142.6908  155.3235 H   0  0  0  0  0  0  0  0  0  0  0  0
  147.0027  141.9557  155.5332 H   0  0  0  0  0  0  0  0  0  0  0  0
  144.5296  139.6354  157.4937 H   0  0  0  0  0  0  0  0  0  0  0  0
  150.0350  136.9374  159.4613 H   0  0  0  0  0  0  0  0  0  0  0  0
  146.6512  135.6047  159.3650 H   0  0  0  0  0  0  0  0  0  0  0  0
  148.1680  135.4509  160.2130 H   0  0  0  0  0  0  0  0  0  0  0  0
  145.3743  137.3638  160.0886 H   0  0  0  0  0  0  0  0  0  0  0  0
  148.5670  136.7444  162.3215 H   0  0  0  0  0  0  0  0  0  0  0  0
  147.8035  138.3167  162.0844 H   0  0  0  0  0  0  0  0  0  0  0  0
  147.5683  137.0959  164.4829 H   0  0  0  0  0  0  0  0  0  0  0  0
  146.1143  137.8004  163.7700 H   0  0  0  0  0  0  0  0  0  0  0  0
  146.7816  134.5555  161.9898 H   0  0  0  0  0  0  0  0  0  0  0  0
  144.5635  134.7066  160.7942 H   0  0  0  0  0  0  0  0  0  0  0  0
  143.9638  135.7543  162.0815 H   0  0  0  0  0  0  0  0  0  0  0  0
  144.4217  134.0963  162.4394 H   0  0  0  0  0  0  0  0  0  0  0  0
  1  2  1  0  0  0  0
  1 29  1  0  0  0  0
  1 30  1  0  0  0  0
  1 31  1  0  0  0  0
  2  3  1  0  0  0  0
  2  4  1  0  0  0  0
  2 32  1  0  0  0  0
  3 33  1  0  0  0  0
  3 34  1  0  0  0  0
  3 35  1  0  0  0  0
  4  5  1  0  0  0  0
  4 36  1  0  0  0  0
  4 37  1  0  0  0  0
  5 11  1  0  0  0  0
  5  6  1  0  0  0  0
  5 38  1  0  0  0  0
  6  7  2  0  0  0  0
  6  8  1  0  0  0  0
  8  9  1  0  0  0  0
  8 39  1  0  0  0  0
  9 10  1  0  0  0  0
  9 40  1  0  0  0  0
  9 41  1  0  0  0  0
 10 11  1  0  0  0  0
 10 42  1  0  0  0  0
 10 43  1  0  0  0  0
 11 12  1  0  0  0  0
 12 17  1  0  0  0  0
 12 13  2  0  0  0  0
 13 14  1  0  0  0  0
 14 15  2  0  0  0  0
 14 44  1  0  0  0  0
 15 16  1  0  0  0  0
 16 20  1  0  0  0  0
 16 17  2  0  0  0  0
 17 18  1  0  0  0  0
 18 19  2  0  0  0  0
 19 20  1  0  0  0  0
 19 45  1  0  0  0  0
 20 21  1  0  0  0  0
 21 22  1  0  0  0  0
 21 46  1  0  0  0  0
 21 47  1  0  0  0  0
 22 27  1  0  0  0  0
 22 23  1  0  0  0  0
 22 24  1  0  0  0  0
 23 48  1  0  0  0  0
 24 25  1  0  0  0  0
 24 49  1  0  0  0  0
 24 50  1  0  0  0  0
 25 26  1  0  0  0  0
 25 51  1  0  0  0  0
 25 52  1  0  0  0  0
 26 27  1  0  0  0  0
 27 28  1  0  0  0  0
 27 53  1  0  0  0  0
 28 54  1  0  0  0  0
 28 55  1  0  0  0  0
 28 56  1  0  0  0  0
M  END
> <s_m_source_file>
AV-unprocessed.smi

> <i_m_source_file_index>
171

> <i_lp_mmshare_version>
43012

> <i_f3d_flags>
0

> <s_epik_input>
W0NIM11bQ0hdKFtDSDNdKVtDSDJdW0NAQEhdMUMoPU8pW05IXVtDSDJdW0NIMl1OMWMobltjSF1uMiljKGMyMyluW2NIXW4zW0NIMl1bQ0BAXTQoW09IXSlbQ0gyXVtDSDJdT1tDQEhdNFtDSDNd

> <s_epik_cmdline>
J2VwaWtfcHl0aG9uJywgJy1waCcsICc3LjAnLCAnLXRuJywgJzgnLCAnLW1hJywgJzIwMCcsICctbWV0YWxfYmluZGluZycsICctaW1hZScsICc8aW5maWxlLm1hZT4nLCAnLW9tYWUnLCAnPG91dGZpbGUubWFlPic=

> <r_lp_tautomer_probability>
1

> <r_epik_Ionization_Penalty>
0.000670584

> <r_epik_Ionization_Penalty_Charging>
0

> <r_epik_Ionization_Penalty_Neutral>
0.000670584

> <r_epik_State_Penalty>
0.000304767

> <r_epik_Charging_Adjusted_Penalty>
0.000304767

> <i_epik_Tot_Q>
0

> <i_epik_Tot_abs_Q>
0

> <r_epik_Metal_State_Penalty>
-0

> <b_epik_Metal_Only>
0

> <s_lp_Force_Field>
OPLS_2005

> <r_lp_Energy>
45.8078

> <b_lp_Chiralities_Consistent>
1

> <s_lp_Variant>
AV-unprocessed.smi:171-3

> <Gold.Version>
5.8.1

> <Gold.Id.Protein>
6NUR|6NUR_protein|mol2

> <Gold.PLP.Fitness>
41.2226

> <Gold.PLP.PLP>
-37.6240

> <Gold.PLP.part.hbond>
-2.4930

> <Gold.PLP.part.metal>
0.0000

> <Gold.PLP.part.buried>
-3.0515

> <Gold.PLP.part.nonpolar>
-32.2853

> <Gold.PLP.part.repulsive>
0.2998

> <Gold.PLP.ligand.clash>
0.0000

> <Gold.PLP.ligand.torsion>
1.3405

> <Gold.PLP.Chemscore.Hbond>
1.8900

> <Gold.PLP.Chemscore.CHOScore>
0.0000

> <Gold.PLP.Chemscore.Metal>
0.0000

> <Gold.Chemscore.Hbonds>
donor molecule, donor type, donor heavy atom, donor atom, acceptor molecule, acceptor atom, score
      L1  H     8    39       P1  7957  0.49
      P1  H  6934  6947       L1    23  0.24

> <Gold.PLP.Chemscore.Internal.Correction>
0.6097

> <Gold.Rescore>
     Score         DG    S(hbond)    S(metal)    S(lipo)     H(rot)  DE(clash)    DE(int)     intcor
     12.14     -15.08       1.92        0.00      84.44       2.61       0.08       2.87       ----

> <Gold.Chemscore.Fitness>
12.1384

> <Gold.Chemscore.DG>
-15.0845

> <Gold.Chemscore.ZeroCoef>
-5.4800

> <Gold.Chemscore.Hbond>
1.9163

> <Gold.Chemscore.Metal>
0.0000

> <Gold.Chemscore.Lipo>
84.4360

> <Gold.Chemscore.Internal_Hbond>
0.0000

> <Gold.Chemscore.DEClash>
0.0785

> <Gold.Chemscore.DEInternal>
2.8676

> <Gold.Chemscore.Rot>
2.6074

> <Gold.Chemscore.Internal.Correction>
   9.000000E+99

> <Gold.Chemscore.Hbonds>
donor molecule, donor type, donor heavy atom, donor atom, acceptor molecule, acceptor atom, score
      L1  H     8    39       P1  7957  0.48

> <Gold.Chemscore.Hbond.Weighted>
-6.4003

> <Gold.Chemscore.Metal.Weighted>
-0.0000

> <Gold.Chemscore.Lipo.Weighted>
-9.8790

> <Gold.Chemscore.Internal_Hbond.Weighted>
0.0000

> <Gold.Chemscore.DEClash.Weighted>
0.0785

> <Gold.Chemscore.DEInternal.Weighted>
2.8676

> <Gold.Chemscore.Rot.Weighted>
6.6748

> <Gold.Chemscore.Internal.Correction.Weighted>
   9.000000E+99

> <Gold.Protein.RotatedTorsions>
[ 6907 6896 6895 6894 ] final -137.78 input  -60.11 | X-H torsion
[ 7974 7965 7964 7962 ] final  152.62 input  175.53 | X-H torsion
[ 8008 7997 7996 7995 ] final   73.79 input   59.86 | X-H torsion
[ 10167 10162 10161 10158 ] final  152.21 input  -65.29 | X-H torsion
[ 10718 10713 10712 10709 ] final  147.12 input   66.30 | X-H torsion
[ 10763 10752 10751 10750 ] final -138.79 input  -60.55 | X-H torsion
[ 11005 11000 10999 10996 ] final -170.71 input  -57.11 | X-H torsion

> <Gold.Protein.ActiveResidues>
 VAL166  LYS551  ARG553  GLY616  TRP617  ASP618  TYR619  PRO620  LYS621  CYS622 
 ASP623  PHE694  ASN695  SER759  ASP760  ASP761  ALA762  ILE779  LEU786  VAL792 
 PHE793  MET794  SER795  GLU796  ALA797  LYS798  CYS799  TRP800  GLU811  SER814 

> <Gold.Protein.RotatedAtoms>
  151.0267  133.5827  159.2664 H   0  0  0  0  0  0  0  0  0  0  0  0  # atno 6907 bound_to 6896
  151.2924  135.0745  159.9219 H   0  0  0  0  0  0  0  0  0  0  0  0  # atno 6908 bound_to 6896
  152.5335  133.9963  159.7928 H   0  0  0  0  0  0  0  0  0  0  0  0  # atno 6909 bound_to 6896
  144.8210  139.6693  143.6101 H   0  0  0  0  0  0  0  0  0  0  0  0  # atno 7974 bound_to 7965
  155.7888  140.3480  155.5338 H   0  0  0  0  0  0  0  0  0  0  0  0  # atno 8008 bound_to 7997
  155.8654  140.0978  157.1606 H   0  0  0  0  0  0  0  0  0  0  0  0  # atno 8009 bound_to 7997
  154.4014  140.1350  156.4000 H   0  0  0  0  0  0  0  0  0  0  0  0  # atno 8010 bound_to 7997
  139.4834  144.5377  151.7617 H   0  0  0  0  0  0  0  0  0  0  0  0  # atno 10167 bound_to 10162
  157.3249  131.0910  151.1211 H   0  0  0  0  0  0  0  0  0  0  0  0  # atno 10718 bound_to 10713
  154.8627  135.3601  154.5442 H   0  0  0  0  0  0  0  0  0  0  0  0  # atno 10763 bound_to 10752
  153.6062  135.7011  153.5369 H   0  0  0  0  0  0  0  0  0  0  0  0  # atno 10764 bound_to 10752
  153.3248  135.4141  155.1408 H   0  0  0  0  0  0  0  0  0  0  0  0  # atno 10765 bound_to 10752
  140.5164  134.5751  157.5035 H   0  0  0  0  0  0  0  0  0  0  0  0  # atno 11005 bound_to 11000
  146.2515  139.6209  142.9424 LP  0  0  0  0  0  0  0  0  0  0  0  0  # atno 17320 bound_to 7965
  145.5106  141.0435  143.2490 LP  0  0  0  0  0  0  0  0  0  0  0  0  # atno 17321 bound_to 7965
  140.4912  144.1308  150.5950 LP  0  0  0  0  0  0  0  0  0  0  0  0  # atno 17342 bound_to 10162
  140.4169  143.2630  151.9764 LP  0  0  0  0  0  0  0  0  0  0  0  0  # atno 17343 bound_to 10162
  157.2481  130.6601  149.5919 LP  0  0  0  0  0  0  0  0  0  0  0  0  # atno 17370 bound_to 10713
  155.9689  130.4547  150.5859 LP  0  0  0  0  0  0  0  0  0  0  0  0  # atno 17371 bound_to 10713
  139.9630  134.7421  156.0197 LP  0  0  0  0  0  0  0  0  0  0  0  0  # atno 17394 bound_to 11000
  141.1358  133.6575  156.3589 LP  0  0  0  0  0  0  0  0  0  0  0  0  # atno 17395 bound_to 11000

$$$$
