AV-unprocessed.smi:2092|AV-procd|sdf|8542|dock2
  -GOLD-   2272011263D 1   1.00000     0.00000
 Structure written by MMmdl.
 44 45  0  0  0  0  0  0  0  0  1 V2000
  146.7507  138.0753  159.1779 C   0  0  0  0  0  0  0  0  0  0  0  0
  147.5500  136.9650  159.8750 C   0  0  2  0  0  0  0  0  0  0  0  0
  147.6887  137.3328  161.2478 O   0  0  0  0  0  0  0  0  0  0  0  0
  146.7135  136.8004  162.1409 C   0  0  0  0  0  0  0  0  0  0  0  0
  147.2712  135.5510  162.8320 C   0  0  0  0  0  0  0  0  0  0  0  0
  147.7027  134.6948  161.9061 F   0  0  0  0  0  0  0  0  0  0  0  0
  148.2937  135.8772  163.6222 F   0  0  0  0  0  0  0  0  0  0  0  0
  146.3184  134.9591  163.5519 F   0  0  0  0  0  0  0  0  0  0  0  0
  148.9261  136.7708  159.2178 C   0  0  0  0  0  0  0  0  0  0  0  0
  149.2686  135.6617  158.8073 O   0  0  0  0  0  0  0  0  0  0  0  0
  149.6839  137.8710  159.0873 N   0  0  0  0  0  0  0  0  0  0  0  0
  150.9467  137.9310  158.3584 C   0  0  0  0  0  0  0  0  0  0  0  0
  151.8841  139.0181  158.8641 C   0  0  0  0  0  0  0  0  0  0  0  0
  153.1955  138.6972  159.2644 C   0  0  0  0  0  0  0  0  0  0  0  0
  154.0378  139.7394  159.6939 C   0  0  0  0  0  0  0  0  0  0  0  0
  153.6520  141.0320  159.7417 N   0  0  0  0  0  0  0  0  0  0  0  0
  152.3872  141.3521  159.3726 C   0  0  0  0  0  0  0  0  0  0  0  0
  151.9993  142.7085  159.4087 N   0  0  0  0  0  0  0  0  0  0  0  0
  151.4782  143.3101  158.1831 C   0  0  0  0  0  0  0  0  0  0  0  0
  150.8164  144.6632  158.4936 C   0  0  0  0  0  0  0  0  0  0  0  0
  151.7424  145.5060  159.1712 O   0  0  0  0  0  0  0  0  0  0  0  0
  152.1536  144.9492  160.4153 C   0  0  0  0  0  0  0  0  0  0  0  0
  152.8604  143.6037  160.1771 C   0  0  0  0  0  0  0  0  0  0  0  0
  151.4708  140.3663  158.9379 C   0  0  0  0  0  0  0  0  0  0  0  0
  146.6087  137.8571  158.1187 H   0  0  0  0  0  0  0  0  0  0  0  0
  147.2517  139.0409  159.2574 H   0  0  0  0  0  0  0  0  0  0  0  0
  145.7631  138.1800  159.6271 H   0  0  0  0  0  0  0  0  0  0  0  0
  146.9783  136.0369  159.8135 H   0  0  0  0  0  0  0  0  0  0  0  0
  146.4395  137.5438  162.8909 H   0  0  0  0  0  0  0  0  0  0  0  0
  145.8079  136.5318  161.5971 H   0  0  0  0  0  0  0  0  0  0  0  0
  149.3283  138.7406  159.4570 H   0  0  0  0  0  0  0  0  0  0  0  0
  151.4483  136.9689  158.4622 H   0  0  0  0  0  0  0  0  0  0  0  0
  150.7531  138.0675  157.2930 H   0  0  0  0  0  0  0  0  0  0  0  0
  153.5561  137.6795  159.2322 H   0  0  0  0  0  0  0  0  0  0  0  0
  155.0520  139.5308  160.0007 H   0  0  0  0  0  0  0  0  0  0  0  0
  152.2942  143.4465  157.4722 H   0  0  0  0  0  0  0  0  0  0  0  0
  150.7462  142.6487  157.7178 H   0  0  0  0  0  0  0  0  0  0  0  0
  150.5041  145.1490  157.5691 H   0  0  0  0  0  0  0  0  0  0  0  0
  149.9199  144.5269  159.1009 H   0  0  0  0  0  0  0  0  0  0  0  0
  152.8312  145.6463  160.9083 H   0  0  0  0  0  0  0  0  0  0  0  0
  151.2920  144.8249  161.0733 H   0  0  0  0  0  0  0  0  0  0  0  0
  153.1386  143.1744  161.1383 H   0  0  0  0  0  0  0  0  0  0  0  0
  153.7855  143.7623  159.6218 H   0  0  0  0  0  0  0  0  0  0  0  0
  150.4720  140.6395  158.6330 H   0  0  0  0  0  0  0  0  0  0  0  0
  1  2  1  0  0  0  0
  1 25  1  0  0  0  0
  1 26  1  0  0  0  0
  1 27  1  0  0  0  0
  2  3  1  0  0  0  0
  2  9  1  0  0  0  0
  2 28  1  0  0  0  0
  3  4  1  0  0  0  0
  4  5  1  0  0  0  0
  4 29  1  0  0  0  0
  4 30  1  0  0  0  0
  5  6  1  0  0  0  0
  5  7  1  0  0  0  0
  5  8  1  0  0  0  0
  9 10  2  0  0  0  0
  9 11  1  0  0  0  0
 11 12  1  0  0  0  0
 11 31  1  0  0  0  0
 12 13  1  0  0  0  0
 12 32  1  0  0  0  0
 12 33  1  0  0  0  0
 13 24  1  0  0  0  0
 13 14  2  0  0  0  0
 14 15  1  0  0  0  0
 14 34  1  0  0  0  0
 15 16  2  0  0  0  0
 15 35  1  0  0  0  0
 16 17  1  0  0  0  0
 17 18  1  0  0  0  0
 17 24  2  0  0  0  0
 18 23  1  0  0  0  0
 18 19  1  0  0  0  0
 19 20  1  0  0  0  0
 19 36  1  0  0  0  0
 19 37  1  0  0  0  0
 20 21  1  0  0  0  0
 20 38  1  0  0  0  0
 20 39  1  0  0  0  0
 21 22  1  0  0  0  0
 22 23  1  0  0  0  0
 22 40  1  0  0  0  0
 22 41  1  0  0  0  0
 23 42  1  0  0  0  0
 23 43  1  0  0  0  0
 24 44  1  0  0  0  0
M  END
> <s_m_source_file>
AV-unprocessed.smi

> <i_m_source_file_index>
2092

> <i_lp_mmshare_version>
43012

> <i_f3d_flags>
0

> <s_epik_input>
RkMoRikoRilbQ0gyXU9bQ0BASF0oW0NIM10pQyg9TylbTkhdW0NIMl1jMVtjSF1bY0hdbmMoW2NIXTEpTjJbQ0gyXVtDSDJdT1tDSDJdW0NIMl0y

> <s_epik_cmdline>
J2VwaWtfcHl0aG9uJywgJy1waCcsICc3LjAnLCAnLXRuJywgJzgnLCAnLW1hJywgJzIwMCcsICctbWV0YWxfYmluZGluZycsICctaW1hZScsICc8aW5maWxlLm1hZT4nLCAnLW9tYWUnLCAnPG91dGZpbGUubWFlPic=

> <r_lp_tautomer_probability>
1

> <r_epik_Ionization_Penalty>
0.00451782

> <r_epik_Ionization_Penalty_Charging>
0

> <r_epik_Ionization_Penalty_Neutral>
0.00451782

> <r_epik_State_Penalty>
0.00326147

> <r_epik_Charging_Adjusted_Penalty>
0.00326147

> <i_epik_Tot_Q>
0

> <i_epik_Tot_abs_Q>
0

> <r_epik_Metal_State_Penalty>
-0

> <b_epik_Metal_Only>
0

> <s_lp_Force_Field>
OPLS_2005

> <r_lp_Energy>
14.8319

> <b_lp_Chiralities_Consistent>
1

> <s_lp_Variant>
AV-unprocessed.smi:2092-1

> <Gold.Version>
5.8.1

> <Gold.Id.Protein>
6NUR|6NUR_protein|mol2

> <Gold.PLP.Fitness>
51.1928

> <Gold.PLP.PLP>
-46.1285

> <Gold.PLP.part.hbond>
-3.2107

> <Gold.PLP.part.metal>
0.0000

> <Gold.PLP.part.buried>
-9.4587

> <Gold.PLP.part.nonpolar>
-35.6730

> <Gold.PLP.part.repulsive>
0.3109

> <Gold.PLP.ligand.clash>
0.0000

> <Gold.PLP.ligand.torsion>
1.2632

> <Gold.PLP.Chemscore.Hbond>
2.3640

> <Gold.PLP.Chemscore.CHOScore>
0.0000

> <Gold.PLP.Chemscore.Metal>
0.0000

> <Gold.Chemscore.Hbonds>
donor molecule, donor type, donor heavy atom, donor atom, acceptor molecule, acceptor atom, score
      P1  H  6896  6908       L1    10  0.84
      P1  H  6931  6943       L1     3  0.88
      P1  H  6934  6947       L1     3  0.53

> <Gold.PLP.Chemscore.Internal.Correction>
0.4987

> <Gold.Rescore>
     Score         DG    S(hbond)    S(metal)    S(lipo)     H(rot)  DE(clash)    DE(int)     intcor
     13.42     -15.39       1.82        0.00      87.34       2.49       0.22       1.76       ----

> <Gold.Chemscore.Fitness>
13.4176

> <Gold.Chemscore.DG>
-15.3908

> <Gold.Chemscore.ZeroCoef>
-5.4800

> <Gold.Chemscore.Hbond>
1.8162

> <Gold.Chemscore.Metal>
0.0000

> <Gold.Chemscore.Lipo>
87.3391

> <Gold.Chemscore.Internal_Hbond>
0.0000

> <Gold.Chemscore.DEClash>
0.2167

> <Gold.Chemscore.DEInternal>
1.7565

> <Gold.Chemscore.Rot>
2.4899

> <Gold.Chemscore.Internal.Correction>
   9.000000E+99

> <Gold.Chemscore.Hbonds>
donor molecule, donor type, donor heavy atom, donor atom, acceptor molecule, acceptor atom, score
      P1  H  6896  6908       L1    10  0.78
      P1  H  6931  6943       L1     3  0.84
      P1  H  6934  6947       L1     3  0.03

> <Gold.Chemscore.Hbond.Weighted>
-6.0663

> <Gold.Chemscore.Metal.Weighted>
-0.0000

> <Gold.Chemscore.Lipo.Weighted>
-10.2187

> <Gold.Chemscore.Internal_Hbond.Weighted>
0.0000

> <Gold.Chemscore.DEClash.Weighted>
0.2167

> <Gold.Chemscore.DEInternal.Weighted>
1.7565

> <Gold.Chemscore.Rot.Weighted>
6.3741

> <Gold.Chemscore.Internal.Correction.Weighted>
   9.000000E+99

> <Gold.Protein.RotatedTorsions>
[ 6907 6896 6895 6894 ] final  148.07 input  -60.11 | X-H torsion
[ 7974 7965 7964 7962 ] final   -7.07 input  175.53 | X-H torsion
[ 8008 7997 7996 7995 ] final  156.47 input   59.86 | X-H torsion
[ 10167 10162 10161 10158 ] final   59.88 input  -65.29 | X-H torsion
[ 10718 10713 10712 10709 ] final -115.14 input   66.30 | X-H torsion
[ 10763 10752 10751 10750 ] final -126.90 input  -60.55 | X-H torsion
[ 11005 11000 10999 10996 ] final   74.44 input  -57.11 | X-H torsion

> <Gold.Protein.ActiveResidues>
 VAL166  LYS551  ARG553  GLY616  TRP617  ASP618  TYR619  PRO620  LYS621  CYS622 
 ASP623  PHE694  ASN695  SER759  ASP760  ASP761  ALA762  ILE779  LEU786  VAL792 
 PHE793  MET794  SER795  GLU796  ALA797  LYS798  CYS799  TRP800  GLU811  SER814 

> <Gold.Protein.RotatedAtoms>
  152.1464  133.4495  159.4791 H   0  0  0  0  0  0  0  0  0  0  0  0  # atno 6907 bound_to 6896
  150.6891  134.2242  159.4418 H   0  0  0  0  0  0  0  0  0  0  0  0  # atno 6908 bound_to 6896
  152.0136  134.9862  160.0619 H   0  0  0  0  0  0  0  0  0  0  0  0  # atno 6909 bound_to 6896
  146.2316  140.2264  142.8339 H   0  0  0  0  0  0  0  0  0  0  0  0  # atno 7974 bound_to 7965
  156.2420  140.1911  156.6960 H   0  0  0  0  0  0  0  0  0  0  0  0  # atno 8008 bound_to 7997
  154.6216  140.0608  156.9649 H   0  0  0  0  0  0  0  0  0  0  0  0  # atno 8009 bound_to 7997
  155.1852  140.3280  155.4370 H   0  0  0  0  0  0  0  0  0  0  0  0  # atno 8010 bound_to 7997
  140.1717  144.4270  150.6658 H   0  0  0  0  0  0  0  0  0  0  0  0  # atno 10167 bound_to 10162
  156.0876  130.6064  150.8867 H   0  0  0  0  0  0  0  0  0  0  0  0  # atno 10718 bound_to 10713
  154.8749  135.3980  154.3507 H   0  0  0  0  0  0  0  0  0  0  0  0  # atno 10763 bound_to 10752
  153.4293  135.7025  153.6247 H   0  0  0  0  0  0  0  0  0  0  0  0  # atno 10764 bound_to 10752
  153.4875  135.3755  155.2444 H   0  0  0  0  0  0  0  0  0  0  0  0  # atno 10765 bound_to 10752
  139.9391  134.7433  156.1148 H   0  0  0  0  0  0  0  0  0  0  0  0  # atno 11005 bound_to 11000
  144.9592  140.8257  143.5524 LP  0  0  0  0  0  0  0  0  0  0  0  0  # atno 17320 bound_to 7965
  145.2233  139.2149  143.5081 LP  0  0  0  0  0  0  0  0  0  0  0  0  # atno 17321 bound_to 7965
  140.6578  143.2243  151.5928 LP  0  0  0  0  0  0  0  0  0  0  0  0  # atno 17342 bound_to 10162
  139.5335  144.2847  152.1200 LP  0  0  0  0  0  0  0  0  0  0  0  0  # atno 17343 bound_to 10162
  157.6015  131.0941  150.8952 LP  0  0  0  0  0  0  0  0  0  0  0  0  # atno 17370 bound_to 10713
  156.9108  130.5280  149.5280 LP  0  0  0  0  0  0  0  0  0  0  0  0  # atno 17371 bound_to 10713
  141.1018  133.6674  156.2771 LP  0  0  0  0  0  0  0  0  0  0  0  0  # atno 17394 bound_to 11000
  140.5999  134.5566  157.5515 LP  0  0  0  0  0  0  0  0  0  0  0  0  # atno 17395 bound_to 11000

$$$$
