AV-unprocessed.smi:1927|AV-procd|sdf|7797|dock6
  -GOLD-   22720 9543D 1   1.00000     0.00000
 Structure written by MMmdl.
 34 35  0  0  0  0  0  0  0  0  1 V2000
  147.7639  132.9997  152.5061 C   0  0  0  0  0  0  0  0  0  0  0  0
  146.4163  133.0723  151.8063 C   0  0  0  0  0  0  0  0  0  0  0  0
  145.8074  131.8821  151.3544 C   0  0  0  0  0  0  0  0  0  0  0  0
  144.5620  131.9517  150.7072 C   0  0  0  0  0  0  0  0  0  0  0  0
  143.9743  133.2170  150.5379 C   0  0  0  0  0  0  0  0  0  0  0  0
  144.5488  134.3594  150.9668 N   0  0  0  0  0  0  0  0  0  0  0  0
  145.7508  134.3098  151.5942 C   0  0  0  0  0  0  0  0  0  0  0  0
  146.4139  135.4728  152.0783 N   0  0  0  0  0  0  0  0  0  0  0  0
  145.8875  136.5378  152.7085 C   0  0  0  0  0  0  0  0  0  0  0  0
  144.6925  136.7025  152.9557 O   0  0  0  0  0  0  0  0  0  0  0  0
  146.8410  137.4214  153.0377 N   0  0  0  0  0  0  0  0  0  0  0  0
  146.6231  138.6880  153.7296 C   0  0  0  0  0  0  0  0  0  0  0  0
  147.8267  139.6362  153.5784 C   0  0  1  0  0  0  0  0  0  0  0  0
  147.7262  140.9358  154.3540 C   0  0  0  0  0  0  0  0  0  0  0  0
  149.1831  141.3871  154.4128 C   0  0  0  0  0  0  0  0  0  0  0  0
  149.9669  140.1972  154.3762 O   0  0  0  0  0  0  0  0  0  0  0  0
  149.1306  139.0697  154.1379 C   0  0  0  0  0  0  0  0  0  0  0  0
  148.1200  131.9715  152.5778 H   0  0  0  0  0  0  0  0  0  0  0  0
  147.6914  133.4010  153.5175 H   0  0  0  0  0  0  0  0  0  0  0  0
  148.5102  133.5746  151.9571 H   0  0  0  0  0  0  0  0  0  0  0  0
  146.2866  130.9252  151.5004 H   0  0  0  0  0  0  0  0  0  0  0  0
  144.0701  131.0590  150.3501 H   0  0  0  0  0  0  0  0  0  0  0  0
  143.0177  133.3155  150.0467 H   0  0  0  0  0  0  0  0  0  0  0  0
  147.4125  135.4893  151.9354 H   0  0  0  0  0  0  0  0  0  0  0  0
  147.7951  137.2006  152.7923 H   0  0  0  0  0  0  0  0  0  0  0  0
  145.7061  139.1702  153.3864 H   0  0  0  0  0  0  0  0  0  0  0  0
  146.4698  138.4633  154.7853 H   0  0  0  0  0  0  0  0  0  0  0  0
  147.9767  139.8691  152.5225 H   0  0  0  0  0  0  0  0  0  0  0  0
  147.0747  141.6716  153.8814 H   0  0  0  0  0  0  0  0  0  0  0  0
  147.3526  140.7486  155.3620 H   0  0  0  0  0  0  0  0  0  0  0  0
  149.4306  141.9901  153.5385 H   0  0  0  0  0  0  0  0  0  0  0  0
  149.3982  141.9780  155.3036 H   0  0  0  0  0  0  0  0  0  0  0  0
  148.9560  138.5630  155.0882 H   0  0  0  0  0  0  0  0  0  0  0  0
  149.6039  138.3599  153.4590 H   0  0  0  0  0  0  0  0  0  0  0  0
  1  2  1  0  0  0  0
  1 18  1  0  0  0  0
  1 19  1  0  0  0  0
  1 20  1  0  0  0  0
  2  7  1  0  0  0  0
  2  3  2  0  0  0  0
  3  4  1  0  0  0  0
  3 21  1  0  0  0  0
  4  5  2  0  0  0  0
  4 22  1  0  0  0  0
  5  6  1  0  0  0  0
  5 23  1  0  0  0  0
  6  7  2  0  0  0  0
  7  8  1  0  0  0  0
  8  9  1  0  0  0  0
  8 24  1  0  0  0  0
  9 10  2  0  0  0  0
  9 11  1  0  0  0  0
 11 12  1  0  0  0  0
 11 25  1  0  0  0  0
 12 13  1  0  0  0  0
 12 26  1  0  0  0  0
 12 27  1  0  0  0  0
 13 17  1  0  0  0  0
 13 14  1  0  0  0  0
 13 28  1  0  0  0  0
 14 15  1  0  0  0  0
 14 29  1  0  0  0  0
 14 30  1  0  0  0  0
 15 16  1  0  0  0  0
 15 31  1  0  0  0  0
 15 32  1  0  0  0  0
 16 17  1  0  0  0  0
 17 33  1  0  0  0  0
 17 34  1  0  0  0  0
M  END
> <s_m_source_file>
AV-unprocessed.smi

> <i_m_source_file_index>
1927

> <i_lp_mmshare_version>
43012

> <i_f3d_flags>
0

> <s_epik_input>
W0NIM11jMVtjSF1bY0hdW2NIXW5jMVtOSF1DKD1PKVtOSF1bQ0gyXVtDQEBIXTJbQ0gyXVtDSDJdT1tDSDJdMg==

> <s_epik_cmdline>
J2VwaWtfcHl0aG9uJywgJy1waCcsICc3LjAnLCAnLXRuJywgJzgnLCAnLW1hJywgJzIwMCcsICctbWV0YWxfYmluZGluZycsICctaW1hZScsICc8aW5maWxlLm1hZT4nLCAnLW9tYWUnLCAnPG91dGZpbGUubWFlPic=

> <r_lp_tautomer_probability>
1

> <r_epik_Ionization_Penalty>
5.84082e-05

> <r_epik_Ionization_Penalty_Charging>
0

> <r_epik_Ionization_Penalty_Neutral>
5.84082e-05

> <r_epik_State_Penalty>
-0

> <r_epik_Charging_Adjusted_Penalty>
0

> <i_epik_Tot_Q>
0

> <i_epik_Tot_abs_Q>
0

> <r_epik_Metal_State_Penalty>
-0

> <b_epik_Metal_Only>
0

> <s_lp_Force_Field>
OPLS_2005

> <r_lp_Energy>
21.9437

> <b_lp_Chiralities_Consistent>
1

> <s_lp_Variant>
AV-unprocessed.smi:1927-2

> <Gold.Version>
5.8.1

> <Gold.Id.Protein>
6NUR|6NUR_protein|mol2

> <Gold.PLP.Fitness>
40.5648

> <Gold.PLP.PLP>
-29.5671

> <Gold.PLP.part.hbond>
-3.0000

> <Gold.PLP.part.metal>
0.0000

> <Gold.PLP.part.buried>
-1.8570

> <Gold.PLP.part.nonpolar>
-24.3605

> <Gold.PLP.part.repulsive>
0.4901

> <Gold.PLP.ligand.clash>
0.0000

> <Gold.PLP.ligand.torsion>
0.4438

> <Gold.PLP.Chemscore.Hbond>
2.9600

> <Gold.PLP.Chemscore.CHOScore>
1.0000

> <Gold.PLP.Chemscore.Metal>
0.0000

> <Gold.Chemscore.Hbonds>
donor molecule, donor type, donor heavy atom, donor atom, acceptor molecule, acceptor atom, score
      L1  H     8    24       P1  7948  1.00
      L1  H    11    25       P1  7948  0.99
      P1  H  7989  7998       L1    16  0.96
      L1  C     5    23       P1 10186  1.00

> <Gold.PLP.Chemscore.Internal.Correction>
0.0054

> <Gold.Rescore>
     Score         DG    S(hbond)    S(metal)    S(lipo)     H(rot)  DE(clash)    DE(int)     intcor
     18.10     -18.62       2.47        0.00      68.71       1.23       0.02       0.50       ----

> <Gold.Chemscore.Fitness>
18.1003

> <Gold.Chemscore.DG>
-18.6243

> <Gold.Chemscore.ZeroCoef>
-5.4800

> <Gold.Chemscore.Hbond>
2.4741

> <Gold.Chemscore.Metal>
0.0000

> <Gold.Chemscore.Lipo>
68.7105

> <Gold.Chemscore.Internal_Hbond>
0.0000

> <Gold.Chemscore.DEClash>
0.0228

> <Gold.Chemscore.DEInternal>
0.5012

> <Gold.Chemscore.Rot>
1.2337

> <Gold.Chemscore.Internal.Correction>
   9.000000E+99

> <Gold.Chemscore.Hbonds>
donor molecule, donor type, donor heavy atom, donor atom, acceptor molecule, acceptor atom, score
      L1  H     8    24       P1  7948  0.98
      L1  H    11    25       P1  7948  0.94
      P1  H  7989  7998       L1    16  0.23

> <Gold.Chemscore.Hbond.Weighted>
-8.2634

> <Gold.Chemscore.Metal.Weighted>
-0.0000

> <Gold.Chemscore.Lipo.Weighted>
-8.0391

> <Gold.Chemscore.Internal_Hbond.Weighted>
0.0000

> <Gold.Chemscore.DEClash.Weighted>
0.0228

> <Gold.Chemscore.DEInternal.Weighted>
0.5012

> <Gold.Chemscore.Rot.Weighted>
3.1582

> <Gold.Chemscore.Internal.Correction.Weighted>
   9.000000E+99

> <Gold.Protein.RotatedTorsions>
[ 6907 6896 6895 6894 ] final  -15.08 input  -60.11 | X-H torsion
[ 7974 7965 7964 7962 ] final   76.55 input  175.53 | X-H torsion
[ 8008 7997 7996 7995 ] final   75.61 input   59.86 | X-H torsion
[ 10167 10162 10161 10158 ] final  -65.08 input  -65.29 | X-H torsion
[ 10718 10713 10712 10709 ] final -121.81 input   66.30 | X-H torsion
[ 10763 10752 10751 10750 ] final  -57.45 input  -60.55 | X-H torsion
[ 11005 11000 10999 10996 ] final -176.43 input  -57.11 | X-H torsion

> <Gold.Protein.ActiveResidues>
 VAL166  LYS551  ARG553  GLY616  TRP617  ASP618  TYR619  PRO620  LYS621  CYS622 
 ASP623  PHE694  ASN695  SER759  ASP760  ASP761  ALA762  ILE779  LEU786  VAL792 
 PHE793  MET794  SER795  GLU796  ALA797  LYS798  CYS799  TRP800  GLU811  SER814 

> <Gold.Protein.RotatedAtoms>
  151.3295  135.0838  159.9333 H   0  0  0  0  0  0  0  0  0  0  0  0  # atno 6907 bound_to 6896
  152.5238  133.9557  159.7703 H   0  0  0  0  0  0  0  0  0  0  0  0  # atno 6908 bound_to 6896
  150.9893  133.6113  159.2740 H   0  0  0  0  0  0  0  0  0  0  0  0  # atno 6909 bound_to 6896
  145.7013  139.2584  143.1703 H   0  0  0  0  0  0  0  0  0  0  0  0  # atno 7974 bound_to 7965
  155.8154  140.3471  155.5482 H   0  0  0  0  0  0  0  0  0  0  0  0  # atno 8008 bound_to 7997
  155.8398  140.0940  157.1762 H   0  0  0  0  0  0  0  0  0  0  0  0  # atno 8009 bound_to 7997
  154.4005  140.1396  156.3702 H   0  0  0  0  0  0  0  0  0  0  0  0  # atno 8010 bound_to 7997
  140.5755  143.2321  151.6451 H   0  0  0  0  0  0  0  0  0  0  0  0  # atno 10167 bound_to 10162
  156.1368  130.6436  150.9708 H   0  0  0  0  0  0  0  0  0  0  0  0  # atno 10718 bound_to 10713
  154.2226  135.6375  153.5149 H   0  0  0  0  0  0  0  0  0  0  0  0  # atno 10763 bound_to 10752
  152.9966  135.5500  154.6098 H   0  0  0  0  0  0  0  0  0  0  0  0  # atno 10764 bound_to 10752
  154.5562  135.2905  155.0936 H   0  0  0  0  0  0  0  0  0  0  0  0  # atno 10765 bound_to 10752
  140.4522  134.6333  157.4806 H   0  0  0  0  0  0  0  0  0  0  0  0  # atno 11005 bound_to 11000
  146.0795  140.7780  142.9648 LP  0  0  0  0  0  0  0  0  0  0  0  0  # atno 17320 bound_to 7965
  144.6968  140.3466  143.7189 LP  0  0  0  0  0  0  0  0  0  0  0  0  # atno 17321 bound_to 7965
  139.5140  144.3424  152.0728 LP  0  0  0  0  0  0  0  0  0  0  0  0  # atno 17342 bound_to 10162
  140.2567  144.4111  150.6201 LP  0  0  0  0  0  0  0  0  0  0  0  0  # atno 17343 bound_to 10162
  157.6539  131.0892  150.7990 LP  0  0  0  0  0  0  0  0  0  0  0  0  # atno 17370 bound_to 10713
  156.8069  130.4939  149.5361 LP  0  0  0  0  0  0  0  0  0  0  0  0  # atno 17371 bound_to 10713
  139.9999  134.6852  155.9547 LP  0  0  0  0  0  0  0  0  0  0  0  0  # atno 17394 bound_to 11000
  141.1659  133.6537  156.4478 LP  0  0  0  0  0  0  0  0  0  0  0  0  # atno 17395 bound_to 11000

$$$$
