AV-unprocessed.smi:2083|AV-procd|sdf|8503|dock5
  -GOLD-   2272011213D 1   1.00000     0.00000
 Structure written by MMmdl.
 44 45  0  0  0  0  0  0  0  0  3 V2000
  146.8685  135.9129  162.9543 C   0  0  0  0  0  0  0  0  0  0  0  0
  147.5195  135.9486  161.6141 C   0  0  0  0  0  0  0  0  0  0  0  0
  147.9764  134.9690  160.7789 C   0  0  0  0  0  0  0  0  0  0  0  0
  148.4880  135.6995  159.6718 C   0  0  0  0  0  0  0  0  0  0  0  0
  149.0472  135.1755  158.5703 N   0  5  0  0  0  0  0  0  0  0  0  0
  148.8578  135.7633  157.3674 C   0  0  0  0  0  0  0  0  0  0  0  0
  149.0249  136.9557  157.1000 O   0  0  0  0  0  0  0  0  0  0  0  0
  148.4538  134.9157  156.4104 N   0  0  0  0  0  0  0  0  0  0  0  0
  148.1845  135.2679  155.0193 C   0  0  0  0  0  0  0  0  0  0  0  0
  148.2357  134.0419  154.0650 C   0  0  1  0  0  0  0  0  0  0  0  0
  147.8487  132.7545  154.8275 C   0  0  0  0  0  0  0  0  0  0  0  0
  147.3843  134.1781  152.8374 N   0  3  1  0  0  0  0  0  0  0  0  0
  147.2835  132.9681  151.9698 C   0  0  0  0  0  0  0  0  0  0  0  0
  146.5116  133.2629  150.6724 C   0  0  0  0  0  0  0  0  0  0  0  0
  145.1240  133.8461  150.9624 C   0  0  0  0  0  0  0  0  0  0  0  0
  145.2245  135.0672  151.8908 C   0  0  2  0  0  0  0  0  0  0  0  0
  145.7775  136.3176  151.1841 C   0  0  0  0  0  0  0  0  0  0  0  0
  146.0272  134.7096  153.1571 C   0  0  0  0  0  0  0  0  0  0  0  0
  148.3373  137.0055  159.8142 N   0  0  0  0  0  0  0  0  0  0  0  0
  147.7219  137.1740  161.0602 O   0  0  0  0  0  0  0  0  0  0  0  0
  145.8668  135.4891  162.8837 H   0  0  0  0  0  0  0  0  0  0  0  0
  146.7839  136.9140  163.3777 H   0  0  0  0  0  0  0  0  0  0  0  0
  147.4471  135.3019  163.6470 H   0  0  0  0  0  0  0  0  0  0  0  0
  147.9533  133.9010  160.9358 H   0  0  0  0  0  0  0  0  0  0  0  0
  148.3242  133.9493  156.6728 H   0  0  0  0  0  0  0  0  0  0  0  0
  147.2001  135.7353  154.9800 H   0  0  0  0  0  0  0  0  0  0  0  0
  148.9092  136.0308  154.7312 H   0  0  0  0  0  0  0  0  0  0  0  0
  149.2695  133.9422  153.7306 H   0  0  0  0  0  0  0  0  0  0  0  0
  148.4955  132.5842  155.6884 H   0  0  0  0  0  0  0  0  0  0  0  0
  147.9279  131.8611  154.2105 H   0  0  0  0  0  0  0  0  0  0  0  0
  146.8231  132.8103  155.1933 H   0  0  0  0  0  0  0  0  0  0  0  0
  148.2711  132.6190  151.6707 H   0  0  0  0  0  0  0  0  0  0  0  0
  146.8042  132.1585  152.5229 H   0  0  0  0  0  0  0  0  0  0  0  0
  147.0840  133.9560  150.0554 H   0  0  0  0  0  0  0  0  0  0  0  0
  146.4111  132.3488  150.0865 H   0  0  0  0  0  0  0  0  0  0  0  0
  144.6196  134.1104  150.0322 H   0  0  0  0  0  0  0  0  0  0  0  0
  144.5082  133.0814  151.4381 H   0  0  0  0  0  0  0  0  0  0  0  0
  144.2104  135.3165  152.2061 H   0  0  0  0  0  0  0  0  0  0  0  0
  146.8073  136.1792  150.8550 H   0  0  0  0  0  0  0  0  0  0  0  0
  145.7598  137.1808  151.8500 H   0  0  0  0  0  0  0  0  0  0  0  0
  145.1798  136.5690  150.3074 H   0  0  0  0  0  0  0  0  0  0  0  0
  145.4832  133.9591  153.7335 H   0  0  0  0  0  0  0  0  0  0  0  0
  146.0879  135.5909  153.7936 H   0  0  0  0  0  0  0  0  0  0  0  0
  147.8419  134.8757  152.2685 H   0  0  0  0  0  0  0  0  0  0  0  0
  1  2  1  0  0  0  0
  1 21  1  0  0  0  0
  1 22  1  0  0  0  0
  1 23  1  0  0  0  0
  2 20  1  0  0  0  0
  2  3  2  0  0  0  0
  3  4  1  0  0  0  0
  3 24  1  0  0  0  0
  4  5  1  0  0  0  0
  4 19  2  0  0  0  0
  5  6  1  0  0  0  0
  6  7  2  0  0  0  0
  6  8  1  0  0  0  0
  8  9  1  0  0  0  0
  8 25  1  0  0  0  0
  9 10  1  0  0  0  0
  9 26  1  0  0  0  0
  9 27  1  0  0  0  0
 10 11  1  0  0  0  0
 10 12  1  0  0  0  0
 10 28  1  0  0  0  0
 11 29  1  0  0  0  0
 11 30  1  0  0  0  0
 11 31  1  0  0  0  0
 12 18  1  0  0  0  0
 12 13  1  0  0  0  0
 12 44  1  0  0  0  0
 13 14  1  0  0  0  0
 13 32  1  0  0  0  0
 13 33  1  0  0  0  0
 14 15  1  0  0  0  0
 14 34  1  0  0  0  0
 14 35  1  0  0  0  0
 15 16  1  0  0  0  0
 15 36  1  0  0  0  0
 15 37  1  0  0  0  0
 16 17  1  0  0  0  0
 16 18  1  0  0  0  0
 16 38  1  0  0  0  0
 17 39  1  0  0  0  0
 17 40  1  0  0  0  0
 17 41  1  0  0  0  0
 18 42  1  0  0  0  0
 18 43  1  0  0  0  0
 19 20  1  0  0  0  0
M  CHG  1   5  -1
M  CHG  1  12   1
M  END
> <s_m_source_file>
AV-unprocessed.smi

> <i_m_source_file_index>
2083

> <i_lp_mmshare_version>
43012

> <i_f3d_flags>
0

> <s_epik_input>
W0NIM11jMVtjSF1jKG5vMSlbTkhdQyg9TylbTkhdW0NIMl1bQ0BIXShbQ0gzXSlOMltDSDJdW0NIMl1bQ0gyXVtDQEBIXShbQ0gzXSlbQ0gyXTI=

> <s_epik_cmdline>
J2VwaWtfcHl0aG9uJywgJy1waCcsICc3LjAnLCAnLXRuJywgJzgnLCAnLW1hJywgJzIwMCcsICctbWV0YWxfYmluZGluZycsICctaW1hZScsICc8aW5maWxlLm1hZT4nLCAnLW9tYWUnLCAnPG91dGZpbGUubWFlPic=

> <r_epik_Ionization_Penalty>
6.22434

> <r_epik_Ionization_Penalty_Charging>
6.22425

> <r_epik_Ionization_Penalty_Neutral>
9.62407e-05

> <r_epik_State_Penalty>
6.22423

> <r_epik_Charging_Adjusted_Penalty>
12.4485

> <i_epik_Tot_Q>
0

> <i_epik_Tot_abs_Q>
2

> <r_epik_Metal_State_Penalty>
2.16764

> <b_epik_Metal_Only>
1

> <s_lp_Force_Field>
OPLS_2005

> <r_lp_Energy>
12.2098

> <b_lp_Chiralities_Consistent>
1

> <s_lp_Variant>
AV-unprocessed.smi:2083-14

> <Gold.Version>
5.8.1

> <Gold.Id.Protein>
6NUR|6NUR_protein|mol2

> <Gold.PLP.Fitness>
43.1581

> <Gold.PLP.PLP>
-28.6491

> <Gold.PLP.part.hbond>
-4.3403

> <Gold.PLP.part.metal>
0.0000

> <Gold.PLP.part.buried>
-1.4765

> <Gold.PLP.part.nonpolar>
-22.6126

> <Gold.PLP.part.repulsive>
0.0122

> <Gold.PLP.ligand.clash>
0.1315

> <Gold.PLP.ligand.torsion>
1.3758

> <Gold.PLP.Chemscore.Hbond>
5.7600

> <Gold.PLP.Chemscore.CHOScore>
0.0000

> <Gold.PLP.Chemscore.Metal>
0.0000

> <Gold.Chemscore.Hbonds>
donor molecule, donor type, donor heavy atom, donor atom, acceptor molecule, acceptor atom, score
      L1  H    12    44       P1  7948  2.00
      P1  H  6896  6908       L1     5  1.98
      P1  H  6931  6943       L1    20  0.88
      P1  H  6934  6947       L1    20  0.86

> <Gold.PLP.Chemscore.Internal.Correction>
0.1121

> <Gold.Rescore>
     Score         DG    S(hbond)    S(metal)    S(lipo)     H(rot)  DE(clash)    DE(int)     intcor
     14.05     -17.05       2.29        0.00      66.73       1.52       0.16       2.85       ----

> <Gold.Chemscore.Fitness>
14.0454

> <Gold.Chemscore.DG>
-17.0549

> <Gold.Chemscore.ZeroCoef>
-5.4800

> <Gold.Chemscore.Hbond>
2.2921

> <Gold.Chemscore.Metal>
0.0000

> <Gold.Chemscore.Lipo>
66.7350

> <Gold.Chemscore.Internal_Hbond>
0.0000

> <Gold.Chemscore.DEClash>
0.1645

> <Gold.Chemscore.DEInternal>
2.8451

> <Gold.Chemscore.Rot>
1.5190

> <Gold.Chemscore.Internal.Correction>
   9.000000E+99

> <Gold.Chemscore.Hbonds>
donor molecule, donor type, donor heavy atom, donor atom, acceptor molecule, acceptor atom, score
      L1  H    12    44       P1  7948  0.78
      P1  H  6896  6908       L1     5  0.23
      P1  H  6931  6943       L1    20  0.18
      P1  H  6934  6947       L1    20  0.22

> <Gold.Chemscore.Hbond.Weighted>
-7.6556

> <Gold.Chemscore.Metal.Weighted>
-0.0000

> <Gold.Chemscore.Lipo.Weighted>
-7.8080

> <Gold.Chemscore.Internal_Hbond.Weighted>
0.0000

> <Gold.Chemscore.DEClash.Weighted>
0.1645

> <Gold.Chemscore.DEInternal.Weighted>
2.8451

> <Gold.Chemscore.Rot.Weighted>
3.8886

> <Gold.Chemscore.Internal.Correction.Weighted>
   9.000000E+99

> <Gold.Protein.RotatedTorsions>
[ 6907 6896 6895 6894 ] final  145.44 input  -60.11 | X-H torsion
[ 7974 7965 7964 7962 ] final  131.89 input  175.53 | X-H torsion
[ 8008 7997 7996 7995 ] final -138.87 input   59.86 | X-H torsion
[ 10167 10162 10161 10158 ] final -177.81 input  -65.29 | X-H torsion
[ 10718 10713 10712 10709 ] final  122.09 input   66.30 | X-H torsion
[ 10763 10752 10751 10750 ] final  124.83 input  -60.55 | X-H torsion
[ 11005 11000 10999 10996 ] final   26.68 input  -57.11 | X-H torsion

> <Gold.Protein.ActiveResidues>
 VAL166  LYS551  ARG553  GLY616  TRP617  ASP618  TYR619  PRO620  LYS621  CYS622 
 ASP623  PHE694  ASN695  SER759  ASP760  ASP761  ALA762  ILE779  LEU786  VAL792 
 PHE793  MET794  SER795  GLU796  ALA797  LYS798  CYS799  TRP800  GLU811  SER814 

> <Gold.Protein.RotatedAtoms>
  152.1808  133.4706  159.4956 H   0  0  0  0  0  0  0  0  0  0  0  0  # atno 6907 bound_to 6896
  150.6934  134.1836  159.4267 H   0  0  0  0  0  0  0  0  0  0  0  0  # atno 6908 bound_to 6896
  151.9747  135.0059  160.0605 H   0  0  0  0  0  0  0  0  0  0  0  0  # atno 6909 bound_to 6896
  145.0026  139.4297  143.5285 H   0  0  0  0  0  0  0  0  0  0  0  0  # atno 7974 bound_to 7965
  155.4356  140.0528  157.3015 H   0  0  0  0  0  0  0  0  0  0  0  0  # atno 8008 bound_to 7997
  154.4841  140.2093  155.9654 H   0  0  0  0  0  0  0  0  0  0  0  0  # atno 8009 bound_to 7997
  156.1248  140.3182  155.8267 H   0  0  0  0  0  0  0  0  0  0  0  0  # atno 8010 bound_to 7997
  139.5462  144.2229  152.0993 H   0  0  0  0  0  0  0  0  0  0  0  0  # atno 10167 bound_to 10162
  157.5769  131.1078  150.8263 H   0  0  0  0  0  0  0  0  0  0  0  0  # atno 10718 bound_to 10713
  153.6676  135.3336  155.3144 H   0  0  0  0  0  0  0  0  0  0  0  0  # atno 10763 bound_to 10752
  154.8499  135.4378  154.1738 H   0  0  0  0  0  0  0  0  0  0  0  0  # atno 10764 bound_to 10752
  153.2721  135.7001  153.7546 H   0  0  0  0  0  0  0  0  0  0  0  0  # atno 10765 bound_to 10752
  140.3345  134.2401  155.7698 H   0  0  0  0  0  0  0  0  0  0  0  0  # atno 11005 bound_to 11000
  146.3455  139.9423  142.8739 LP  0  0  0  0  0  0  0  0  0  0  0  0  # atno 17320 bound_to 7965
  145.2133  140.9904  143.4088 LP  0  0  0  0  0  0  0  0  0  0  0  0  # atno 17321 bound_to 7965
  140.1716  144.4930  150.6576 LP  0  0  0  0  0  0  0  0  0  0  0  0  # atno 17342 bound_to 10162
  140.6711  143.2286  151.5622 LP  0  0  0  0  0  0  0  0  0  0  0  0  # atno 17343 bound_to 10162
  156.8719  130.5149  149.5296 LP  0  0  0  0  0  0  0  0  0  0  0  0  # atno 17370 bound_to 10713
  156.0813  130.5823  150.9569 LP  0  0  0  0  0  0  0  0  0  0  0  0  # atno 17371 bound_to 10713
  141.2055  133.7859  157.0230 LP  0  0  0  0  0  0  0  0  0  0  0  0  # atno 17394 bound_to 11000
  140.0833  134.9635  157.1659 LP  0  0  0  0  0  0  0  0  0  0  0  0  # atno 17395 bound_to 11000

$$$$
