AV-unprocessed.smi:2009|AV-procd|sdf|8148|dock6
  -GOLD-   2272010393D 1   1.00000     0.00000
 Structure written by MMmdl.
 37 38  0  0  0  0  0  0  0  0  2 V2000
  152.0791  140.2869  158.4880 C   0  0  0  0  0  0  0  0  0  0  0  0
  150.7879  140.8807  157.9087 C   0  0  1  0  0  0  0  0  0  0  0  0
  151.0437  142.2219  157.1767 C   0  0  0  0  0  0  0  0  0  0  0  0
  151.5357  143.2914  158.0412 N   0  0  0  0  0  0  0  0  0  0  0  0
  151.5180  144.6553  157.8174 C   0  0  0  0  0  0  0  0  0  0  0  0
  152.0977  145.2565  158.8972 C   0  0  0  0  0  0  0  0  0  0  0  0
  152.4553  144.1663  159.7380 C   0  0  0  0  0  0  0  0  0  0  0  0
  152.1280  142.9929  159.2218 N   0  0  0  0  0  0  0  0  0  0  0  0
  150.2007  139.9188  156.9862 N   0  5  0  0  0  0  0  0  0  0  0  0
  151.0331  139.4662  155.6703 S   0  0  0  0  0  0  0  0  0  0  0  0
  150.4213  139.9027  154.4048 O   0  0  0  0  0  0  0  0  0  0  0  0
  152.4865  139.6418  155.8270 O   0  0  0  0  0  0  0  0  0  0  0  0
  150.7268  137.7582  155.7864 N   0  0  0  0  0  0  0  0  0  0  0  0
  151.0106  137.1134  157.0856 C   0  0  0  0  0  0  0  0  0  0  0  0
  150.3465  135.7299  157.1885 C   0  0  0  0  0  0  0  0  0  0  0  0
  150.7497  134.8298  156.0180 C   0  0  0  0  0  0  0  0  0  0  0  0
  150.4066  135.5330  154.7027 C   0  0  0  0  0  0  0  0  0  0  0  0
  151.0760  136.9145  154.6198 C   0  0  0  0  0  0  0  0  0  0  0  0
  152.5422  140.9758  159.1948 H   0  0  0  0  0  0  0  0  0  0  0  0
  152.8077  140.0752  157.7046 H   0  0  0  0  0  0  0  0  0  0  0  0
  151.8802  139.3559  159.0205 H   0  0  0  0  0  0  0  0  0  0  0  0
  150.1252  141.0853  158.7510 H   0  0  0  0  0  0  0  0  0  0  0  0
  151.7725  142.0699  156.3791 H   0  0  0  0  0  0  0  0  0  0  0  0
  150.1314  142.5686  156.6890 H   0  0  0  0  0  0  0  0  0  0  0  0
  151.0874  145.0766  156.9207 H   0  0  0  0  0  0  0  0  0  0  0  0
  152.2422  146.3139  159.0612 H   0  0  0  0  0  0  0  0  0  0  0  0
  152.9428  144.1928  160.7013 H   0  0  0  0  0  0  0  0  0  0  0  0
  152.0909  137.0292  157.2100 H   0  0  0  0  0  0  0  0  0  0  0  0
  150.6465  137.7399  157.8993 H   0  0  0  0  0  0  0  0  0  0  0  0
  150.6186  135.2572  158.1323 H   0  0  0  0  0  0  0  0  0  0  0  0
  149.2619  135.8473  157.2037 H   0  0  0  0  0  0  0  0  0  0  0  0
  151.8187  134.6176  156.0607 H   0  0  0  0  0  0  0  0  0  0  0  0
  150.2331  133.8719  156.0815 H   0  0  0  0  0  0  0  0  0  0  0  0
  150.7202  134.9182  153.8588 H   0  0  0  0  0  0  0  0  0  0  0  0
  149.3250  135.6475  154.6177 H   0  0  0  0  0  0  0  0  0  0  0  0
  150.7737  137.3997  153.6926 H   0  0  0  0  0  0  0  0  0  0  0  0
  152.1604  136.8079  154.5744 H   0  0  0  0  0  0  0  0  0  0  0  0
  1  2  1  0  0  0  0
  1 19  1  0  0  0  0
  1 20  1  0  0  0  0
  1 21  1  0  0  0  0
  2  3  1  0  0  0  0
  2  9  1  0  0  0  0
  2 22  1  0  0  0  0
  3  4  1  0  0  0  0
  3 23  1  0  0  0  0
  3 24  1  0  0  0  0
  4  8  1  0  0  0  0
  4  5  1  0  0  0  0
  5  6  2  0  0  0  0
  5 25  1  0  0  0  0
  6  7  1  0  0  0  0
  6 26  1  0  0  0  0
  7  8  2  0  0  0  0
  7 27  1  0  0  0  0
  9 10  1  0  0  0  0
 10 11  2  0  0  0  0
 10 12  2  0  0  0  0
 10 13  1  0  0  0  0
 13 18  1  0  0  0  0
 13 14  1  0  0  0  0
 14 15  1  0  0  0  0
 14 28  1  0  0  0  0
 14 29  1  0  0  0  0
 15 16  1  0  0  0  0
 15 30  1  0  0  0  0
 15 31  1  0  0  0  0
 16 17  1  0  0  0  0
 16 32  1  0  0  0  0
 16 33  1  0  0  0  0
 17 18  1  0  0  0  0
 17 34  1  0  0  0  0
 17 35  1  0  0  0  0
 18 36  1  0  0  0  0
 18 37  1  0  0  0  0
M  CHG  1   9  -1
M  END
> <s_m_source_file>
AV-unprocessed.smi

> <i_m_source_file_index>
2009

> <i_lp_mmshare_version>
43012

> <i_f3d_flags>
0

> <s_epik_input>
bjFbY0hdW2NIXVtjSF1uMVtDSDJdW0NAQEhdKFtDSDNdKVtOSF1TKD1PKSg9TylOMltDSDJdW0NIMl1bQ0gyXVtDSDJdW0NIMl0y

> <s_epik_cmdline>
J2VwaWtfcHl0aG9uJywgJy1waCcsICc3LjAnLCAnLXRuJywgJzgnLCAnLW1hJywgJzIwMCcsICctbWV0YWxfYmluZGluZycsICctaW1hZScsICc8aW5maWxlLm1hZT4nLCAnLW9tYWUnLCAnPG91dGZpbGUubWFlPic=

> <r_lp_tautomer_probability>
1

> <r_epik_Ionization_Penalty>
1.75622

> <r_epik_Ionization_Penalty_Charging>
1.7562

> <r_epik_Ionization_Penalty_Neutral>
2.38826e-05

> <r_epik_State_Penalty>
1.86645

> <r_epik_Charging_Adjusted_Penalty>
3.62264

> <i_epik_Tot_Q>
-1

> <i_epik_Tot_abs_Q>
1

> <r_epik_Metal_State_Penalty>
0.460135

> <b_epik_Metal_Only>
0

> <s_lp_Force_Field>
OPLS_2005

> <r_lp_Energy>
6.21629

> <b_lp_Chiralities_Consistent>
1

> <s_lp_Variant>
AV-unprocessed.smi:2009-4

> <Gold.Version>
5.8.1

> <Gold.Id.Protein>
6NUR|6NUR_protein|mol2

> <Gold.PLP.Fitness>
41.5272

> <Gold.PLP.PLP>
-33.2632

> <Gold.PLP.part.hbond>
-2.0000

> <Gold.PLP.part.metal>
0.0000

> <Gold.PLP.part.buried>
-4.8880

> <Gold.PLP.part.nonpolar>
-26.9817

> <Gold.PLP.part.repulsive>
0.1487

> <Gold.PLP.ligand.clash>
0.0000

> <Gold.PLP.ligand.torsion>
1.1678

> <Gold.PLP.Chemscore.Hbond>
2.0000

> <Gold.PLP.Chemscore.CHOScore>
1.0000

> <Gold.PLP.Chemscore.Metal>
0.0000

> <Gold.Chemscore.Hbonds>
donor molecule, donor type, donor heavy atom, donor atom, acceptor molecule, acceptor atom, score
      P1  H  7989  7998       L1    11  1.00
      P1  H  7997  8010       L1    12  1.00
      L1  C     5    25       P1  8028  1.00

> <Gold.PLP.Chemscore.Internal.Correction>
1.5996

> <Gold.Rescore>
     Score         DG    S(hbond)    S(metal)    S(lipo)     H(rot)  DE(clash)    DE(int)     intcor
     13.99     -18.05       1.99        0.00      84.90       1.57       0.07       3.99       ----

> <Gold.Chemscore.Fitness>
13.9945

> <Gold.Chemscore.DG>
-18.0505

> <Gold.Chemscore.ZeroCoef>
-5.4800

> <Gold.Chemscore.Hbond>
1.9908

> <Gold.Chemscore.Metal>
0.0000

> <Gold.Chemscore.Lipo>
84.8993

> <Gold.Chemscore.Internal_Hbond>
0.0000

> <Gold.Chemscore.DEClash>
0.0701

> <Gold.Chemscore.DEInternal>
3.9859

> <Gold.Chemscore.Rot>
1.5672

> <Gold.Chemscore.Internal.Correction>
   9.000000E+99

> <Gold.Chemscore.Hbonds>
donor molecule, donor type, donor heavy atom, donor atom, acceptor molecule, acceptor atom, score
      P1  H  7989  7998       L1    11  0.70
      P1  H  7997  8010       L1    12  0.97

> <Gold.Chemscore.Hbond.Weighted>
-6.6492

> <Gold.Chemscore.Metal.Weighted>
-0.0000

> <Gold.Chemscore.Lipo.Weighted>
-9.9332

> <Gold.Chemscore.Internal_Hbond.Weighted>
0.0000

> <Gold.Chemscore.DEClash.Weighted>
0.0701

> <Gold.Chemscore.DEInternal.Weighted>
3.9859

> <Gold.Chemscore.Rot.Weighted>
4.0119

> <Gold.Chemscore.Internal.Correction.Weighted>
   9.000000E+99

> <Gold.Protein.RotatedTorsions>
[ 6907 6896 6895 6894 ] final  138.20 input  -60.11 | X-H torsion
[ 7974 7965 7964 7962 ] final  -67.28 input  175.53 | X-H torsion
[ 8008 7997 7996 7995 ] final   94.80 input   59.86 | X-H torsion
[ 10167 10162 10161 10158 ] final   41.68 input  -65.29 | X-H torsion
[ 10718 10713 10712 10709 ] final  166.20 input   66.30 | X-H torsion
[ 10763 10752 10751 10750 ] final -107.45 input  -60.55 | X-H torsion
[ 11005 11000 10999 10996 ] final  169.76 input  -57.11 | X-H torsion

> <Gold.Protein.ActiveResidues>
 VAL166  LYS551  ARG553  GLY616  TRP617  ASP618  TYR619  PRO620  LYS621  CYS622 
 ASP623  PHE694  ASN695  SER759  ASP760  ASP761  ALA762  ILE779  LEU786  VAL792 
 PHE793  MET794  SER795  GLU796  ALA797  LYS798  CYS799  TRP800  GLU811  SER814 

> <Gold.Protein.RotatedAtoms>
  152.2693  133.5368  159.5429 H   0  0  0  0  0  0  0  0  0  0  0  0  # atno 6907 bound_to 6896
  150.7153  134.0720  159.3876 H   0  0  0  0  0  0  0  0  0  0  0  0  # atno 6908 bound_to 6896
  151.8635  135.0515  160.0522 H   0  0  0  0  0  0  0  0  0  0  0  0  # atno 6909 bound_to 6896
  145.7312  140.8996  143.0579 H   0  0  0  0  0  0  0  0  0  0  0  0  # atno 7974 bound_to 7965
  156.0619  140.3295  155.7472 H   0  0  0  0  0  0  0  0  0  0  0  0  # atno 8008 bound_to 7997
  155.5441  140.0604  157.2881 H   0  0  0  0  0  0  0  0  0  0  0  0  # atno 8009 bound_to 7997
  154.4486  140.1905  156.0608 H   0  0  0  0  0  0  0  0  0  0  0  0  # atno 8010 bound_to 7997
  140.3619  144.2217  150.6137 H   0  0  0  0  0  0  0  0  0  0  0  0  # atno 10167 bound_to 10162
  157.0692  131.0361  151.2618 H   0  0  0  0  0  0  0  0  0  0  0  0  # atno 10718 bound_to 10713
  154.8076  135.4674  154.0431 H   0  0  0  0  0  0  0  0  0  0  0  0  # atno 10763 bound_to 10752
  153.1888  135.6852  153.8386 H   0  0  0  0  0  0  0  0  0  0  0  0  # atno 10764 bound_to 10752
  153.7911  135.3243  155.3356 H   0  0  0  0  0  0  0  0  0  0  0  0  # atno 10765 bound_to 10752
  140.3012  134.7594  157.3917 H   0  0  0  0  0  0  0  0  0  0  0  0  # atno 11005 bound_to 11000
  144.6892  139.9333  143.7472 LP  0  0  0  0  0  0  0  0  0  0  0  0  # atno 17320 bound_to 7965
  146.0536  139.3534  143.0624 LP  0  0  0  0  0  0  0  0  0  0  0  0  # atno 17321 bound_to 7965
  140.5118  143.2288  151.8523 LP  0  0  0  0  0  0  0  0  0  0  0  0  # atno 17342 bound_to 10162
  139.4813  144.4940  151.9148 LP  0  0  0  0  0  0  0  0  0  0  0  0  # atno 17343 bound_to 10162
  157.4892  130.7811  149.7490 LP  0  0  0  0  0  0  0  0  0  0  0  0  # atno 17370 bound_to 10713
  155.9955  130.3911  150.2815 LP  0  0  0  0  0  0  0  0  0  0  0  0  # atno 17371 bound_to 10713
  140.1108  134.5348  155.8268 LP  0  0  0  0  0  0  0  0  0  0  0  0  # atno 17394 bound_to 11000
  141.2127  133.6724  156.6685 LP  0  0  0  0  0  0  0  0  0  0  0  0  # atno 17395 bound_to 11000

$$$$
