AV-unprocessed.smi:1560|AV-procd|sdf|6281|dock4
  -GOLD-   22720 6483D 1   1.00000     0.00000
 Structure written by MMmdl.
 47 48  0  0  0  0  0  0  0  0  3 V2000
  142.8122  135.2243  153.3975 C   0  0  0  0  0  0  0  0  0  0  0  0
  143.6466  135.9854  152.3516 C   0  0  0  0  0  0  0  0  0  0  0  0
  145.0582  135.3926  152.0525 C   0  0  1  0  0  0  0  0  0  0  0  0
  145.5898  136.0921  150.7735 C   0  0  0  0  0  0  0  0  0  0  0  0
  146.0275  135.7058  153.2347 C   0  0  0  0  0  0  0  0  0  0  0  0
  146.6471  137.0282  153.1528 N   0  0  0  0  0  0  0  0  0  0  0  0
  147.1304  137.7305  154.1894 C   0  0  0  0  0  0  0  0  0  0  0  0
  147.0680  137.3421  155.3567 O   0  0  0  0  0  0  0  0  0  0  0  0
  147.7433  139.0965  153.8554 C   0  0  0  0  0  0  0  0  0  0  0  0
  149.1427  139.2100  154.2956 N   0  0  0  0  0  0  0  0  0  0  0  0
  149.9103  138.0330  154.3535 C   0  0  0  0  0  0  0  0  0  0  0  0
  151.2010  138.0451  154.7381 C   0  0  0  0  0  0  0  0  0  0  0  0
  151.8012  139.3229  155.1017 C   0  0  0  0  0  0  0  0  0  0  0  0
  152.9770  139.3521  155.4592 O   0  0  0  0  0  0  0  0  0  0  0  0
  151.0161  140.4374  155.0254 N   0  5  0  0  0  0  0  0  0  0  0  0
  149.7058  140.4106  154.6292 C   0  0  0  0  0  0  0  0  0  0  0  0
  149.0158  141.4289  154.5628 O   0  0  0  0  0  0  0  0  0  0  0  0
  144.9521  133.9035  151.8315 N   0  3  0  0  0  0  0  0  0  0  0  0
  144.0544  133.4645  150.7256 C   0  0  0  0  0  0  0  0  0  0  0  0
  143.8869  131.9351  150.7423 C   0  0  0  0  0  0  0  0  0  0  0  0
  145.1579  131.3076  150.6465 O   0  0  0  0  0  0  0  0  0  0  0  0
  145.9964  131.6479  151.7416 C   0  0  0  0  0  0  0  0  0  0  0  0
  146.2441  133.1647  151.7440 C   0  0  0  0  0  0  0  0  0  0  0  0
  141.8446  135.7075  153.5347 H   0  0  0  0  0  0  0  0  0  0  0  0
  143.3014  135.2000  154.3711 H   0  0  0  0  0  0  0  0  0  0  0  0
  142.6180  134.1966  153.0916 H   0  0  0  0  0  0  0  0  0  0  0  0
  143.0608  136.0172  151.4327 H   0  0  0  0  0  0  0  0  0  0  0  0
  143.7282  137.0288  152.6551 H   0  0  0  0  0  0  0  0  0  0  0  0
  145.4637  137.1742  150.8237 H   0  0  0  0  0  0  0  0  0  0  0  0
  145.0708  135.7499  149.8778 H   0  0  0  0  0  0  0  0  0  0  0  0
  146.6554  135.9171  150.6238 H   0  0  0  0  0  0  0  0  0  0  0  0
  145.5223  135.6046  154.1953 H   0  0  0  0  0  0  0  0  0  0  0  0
  146.8448  134.9856  153.2553 H   0  0  0  0  0  0  0  0  0  0  0  0
  146.7409  137.4308  152.2315 H   0  0  0  0  0  0  0  0  0  0  0  0
  147.6703  139.2892  152.7831 H   0  0  0  0  0  0  0  0  0  0  0  0
  147.1309  139.8664  154.3265 H   0  0  0  0  0  0  0  0  0  0  0  0
  149.3928  137.1309  154.0619 H   0  0  0  0  0  0  0  0  0  0  0  0
  151.7783  137.1330  154.7738 H   0  0  0  0  0  0  0  0  0  0  0  0
  143.0619  133.9024  150.8133 H   0  0  0  0  0  0  0  0  0  0  0  0
  144.4612  133.7770  149.7635 H   0  0  0  0  0  0  0  0  0  0  0  0
  143.3748  131.6096  151.6493 H   0  0  0  0  0  0  0  0  0  0  0  0
  143.2731  131.6160  149.8997 H   0  0  0  0  0  0  0  0  0  0  0  0
  145.5462  131.3232  152.6813 H   0  0  0  0  0  0  0  0  0  0  0  0
  146.9413  131.1136  151.6400 H   0  0  0  0  0  0  0  0  0  0  0  0
  146.7767  133.4363  150.8324 H   0  0  0  0  0  0  0  0  0  0  0  0
  146.8991  133.3992  152.5808 H   0  0  0  0  0  0  0  0  0  0  0  0
  144.5108  133.5602  152.6728 H   0  0  0  0  0  0  0  0  0  0  0  0
  1  2  1  0  0  0  0
  1 24  1  0  0  0  0
  1 25  1  0  0  0  0
  1 26  1  0  0  0  0
  2  3  1  0  0  0  0
  2 27  1  0  0  0  0
  2 28  1  0  0  0  0
  3  4  1  0  0  0  0
  3  5  1  0  0  0  0
  3 18  1  0  0  0  0
  4 29  1  0  0  0  0
  4 30  1  0  0  0  0
  4 31  1  0  0  0  0
  5  6  1  0  0  0  0
  5 32  1  0  0  0  0
  5 33  1  0  0  0  0
  6  7  1  0  0  0  0
  6 34  1  0  0  0  0
  7  8  2  0  0  0  0
  7  9  1  0  0  0  0
  9 10  1  0  0  0  0
  9 35  1  0  0  0  0
  9 36  1  0  0  0  0
 10 16  1  0  0  0  0
 10 11  1  0  0  0  0
 11 12  2  0  0  0  0
 11 37  1  0  0  0  0
 12 13  1  0  0  0  0
 12 38  1  0  0  0  0
 13 14  2  0  0  0  0
 13 15  1  0  0  0  0
 15 16  1  0  0  0  0
 16 17  2  0  0  0  0
 18 23  1  0  0  0  0
 18 19  1  0  0  0  0
 18 47  1  0  0  0  0
 19 20  1  0  0  0  0
 19 39  1  0  0  0  0
 19 40  1  0  0  0  0
 20 21  1  0  0  0  0
 20 41  1  0  0  0  0
 20 42  1  0  0  0  0
 21 22  1  0  0  0  0
 22 23  1  0  0  0  0
 22 43  1  0  0  0  0
 22 44  1  0  0  0  0
 23 45  1  0  0  0  0
 23 46  1  0  0  0  0
M  CHG  1  15  -1
M  CHG  1  18   1
M  END
> <s_m_source_file>
AV-unprocessed.smi

> <i_m_source_file_index>
1560

> <i_lp_mmshare_version>
43012

> <i_f3d_flags>
0

> <s_epik_input>
W0NIMl0xW0NIMl1PW0NIMl1bQ0gyXU4xW0NAQF0oW0NIM10pKFtDSDJdW0NIM10pW0NIMl1bTkhdQyg9TylbQ0gyXW4yW2NIXVtjSF1jKD1PKVtuSF1jMj1P

> <s_epik_cmdline>
J2VwaWtfcHl0aG9uJywgJy1waCcsICc3LjAnLCAnLXRuJywgJzgnLCAnLW1hJywgJzIwMCcsICctbWV0YWxfYmluZGluZycsICctaW1hZScsICc8aW5maWxlLm1hZT4nLCAnLW9tYWUnLCAnPG91dGZpbGUubWFlPic=

> <r_lp_tautomer_probability>
0.999537

> <r_epik_Ionization_Penalty>
3.51944

> <r_epik_Ionization_Penalty_Charging>
0.588852

> <r_epik_Ionization_Penalty_Neutral>
2.93059

> <r_epik_State_Penalty>
3.4987

> <r_epik_Charging_Adjusted_Penalty>
4.08755

> <i_epik_Tot_Q>
0

> <i_epik_Tot_abs_Q>
2

> <r_epik_Metal_State_Penalty>
1.01204

> <b_epik_Metal_Only>
1

> <s_lp_Force_Field>
OPLS_2005

> <r_lp_Energy>
37.4968

> <b_lp_Chiralities_Consistent>
1

> <s_lp_Variant>
AV-unprocessed.smi:1560-7

> <Gold.Version>
5.8.1

> <Gold.Id.Protein>
6NUR|6NUR_protein|mol2

> <Gold.PLP.Fitness>
43.7495

> <Gold.PLP.PLP>
-38.3469

> <Gold.PLP.part.hbond>
-3.3249

> <Gold.PLP.part.metal>
0.0000

> <Gold.PLP.part.buried>
-4.3516

> <Gold.PLP.part.nonpolar>
-31.1790

> <Gold.PLP.part.repulsive>
0.3759

> <Gold.PLP.ligand.clash>
0.0000

> <Gold.PLP.ligand.torsion>
1.1917

> <Gold.PLP.Chemscore.Hbond>
1.5600

> <Gold.PLP.Chemscore.CHOScore>
0.9709

> <Gold.PLP.Chemscore.Metal>
0.0000

> <Gold.Chemscore.Hbonds>
donor molecule, donor type, donor heavy atom, donor atom, acceptor molecule, acceptor atom, score
      P1  H  7989  7998       L1    15  0.52
      P1  H  7997  8009       L1    14  1.00
      L1  C    11    37       P1  7948  0.99

> <Gold.PLP.Chemscore.Internal.Correction>
0.1930

> <Gold.Rescore>
     Score         DG    S(hbond)    S(metal)    S(lipo)     H(rot)  DE(clash)    DE(int)     intcor
     10.83     -11.58       0.99        0.00      78.42       2.50       0.06       0.69       ----

> <Gold.Chemscore.Fitness>
10.8293

> <Gold.Chemscore.DG>
-11.5810

> <Gold.Chemscore.ZeroCoef>
-5.4800

> <Gold.Chemscore.Hbond>
0.9937

> <Gold.Chemscore.Metal>
0.0000

> <Gold.Chemscore.Lipo>
78.4184

> <Gold.Chemscore.Internal_Hbond>
0.0000

> <Gold.Chemscore.DEClash>
0.0583

> <Gold.Chemscore.DEInternal>
0.6934

> <Gold.Chemscore.Rot>
2.4973

> <Gold.Chemscore.Internal.Correction>
   9.000000E+99

> <Gold.Chemscore.Hbonds>
donor molecule, donor type, donor heavy atom, donor atom, acceptor molecule, acceptor atom, score
      P1  H  7989  7998       L1    15  0.01
      P1  H  7997  8009       L1    14  0.99

> <Gold.Chemscore.Hbond.Weighted>
-3.3191

> <Gold.Chemscore.Metal.Weighted>
-0.0000

> <Gold.Chemscore.Lipo.Weighted>
-9.1749

> <Gold.Chemscore.Internal_Hbond.Weighted>
0.0000

> <Gold.Chemscore.DEClash.Weighted>
0.0583

> <Gold.Chemscore.DEInternal.Weighted>
0.6934

> <Gold.Chemscore.Rot.Weighted>
6.3930

> <Gold.Chemscore.Internal.Correction.Weighted>
   9.000000E+99

> <Gold.Protein.RotatedTorsions>
[ 6907 6896 6895 6894 ] final  -26.13 input  -60.11 | X-H torsion
[ 7974 7965 7964 7962 ] final  -98.06 input  175.53 | X-H torsion
[ 8008 7997 7996 7995 ] final -130.43 input   59.86 | X-H torsion
[ 10167 10162 10161 10158 ] final  147.35 input  -65.29 | X-H torsion
[ 10718 10713 10712 10709 ] final   92.45 input   66.30 | X-H torsion
[ 10763 10752 10751 10750 ] final  -47.48 input  -60.55 | X-H torsion
[ 11005 11000 10999 10996 ] final  -72.28 input  -57.11 | X-H torsion

> <Gold.Protein.ActiveResidues>
 VAL166  LYS551  ARG553  GLY616  TRP617  ASP618  TYR619  PRO620  LYS621  CYS622 
 ASP623  PHE694  ASN695  SER759  ASP760  ASP761  ALA762  ILE779  LEU786  VAL792 
 PHE793  MET794  SER795  GLU796  ALA797  LYS798  CYS799  TRP800  GLU811  SER814 

> <Gold.Protein.RotatedAtoms>
  151.1653  135.0292  159.8727 H   0  0  0  0  0  0  0  0  0  0  0  0  # atno 6907 bound_to 6896
  152.5450  134.1233  159.8418 H   0  0  0  0  0  0  0  0  0  0  0  0  # atno 6908 bound_to 6896
  151.1332  133.4976  159.2631 H   0  0  0  0  0  0  0  0  0  0  0  0  # atno 6909 bound_to 6896
  145.3256  140.9431  143.2691 H   0  0  0  0  0  0  0  0  0  0  0  0  # atno 7974 bound_to 7965
  155.2956  140.0450  157.3026 H   0  0  0  0  0  0  0  0  0  0  0  0  # atno 8008 bound_to 7997
  154.5516  140.2319  155.8443 H   0  0  0  0  0  0  0  0  0  0  0  0  # atno 8009 bound_to 7997
  156.1971  140.3035  155.9457 H   0  0  0  0  0  0  0  0  0  0  0  0  # atno 8010 bound_to 7997
  139.4891  144.5762  151.6961 H   0  0  0  0  0  0  0  0  0  0  0  0  # atno 10167 bound_to 10162
  157.6958  131.0443  150.3883 H   0  0  0  0  0  0  0  0  0  0  0  0  # atno 10718 bound_to 10713
  154.0621  135.6616  153.4813 H   0  0  0  0  0  0  0  0  0  0  0  0  # atno 10763 bound_to 10752
  153.0423  135.5137  154.7649 H   0  0  0  0  0  0  0  0  0  0  0  0  # atno 10764 bound_to 10752
  154.6689  135.3026  154.9736 H   0  0  0  0  0  0  0  0  0  0  0  0  # atno 10765 bound_to 10752
  141.1606  133.6842  156.7035 H   0  0  0  0  0  0  0  0  0  0  0  0  # atno 11005 bound_to 11000
  144.8905  139.4781  143.6680 LP  0  0  0  0  0  0  0  0  0  0  0  0  # atno 17320 bound_to 7965
  146.3066  139.7600  142.9052 LP  0  0  0  0  0  0  0  0  0  0  0  0  # atno 17321 bound_to 7965
  140.5359  144.0657  150.6070 LP  0  0  0  0  0  0  0  0  0  0  0  0  # atno 17342 bound_to 10162
  140.3663  143.2880  152.0328 LP  0  0  0  0  0  0  0  0  0  0  0  0  # atno 17343 bound_to 10162
  156.4290  130.3968  149.6773 LP  0  0  0  0  0  0  0  0  0  0  0  0  # atno 17370 bound_to 10713
  156.3998  130.7669  151.2676 LP  0  0  0  0  0  0  0  0  0  0  0  0  # atno 17371 bound_to 10713
  140.2940  134.8217  157.4041 LP  0  0  0  0  0  0  0  0  0  0  0  0  # atno 17394 bound_to 11000
  140.1321  134.5082  155.8097 LP  0  0  0  0  0  0  0  0  0  0  0  0  # atno 17395 bound_to 11000

$$$$
