AV-unprocessed.smi:1415|AV-procd|sdf|5763|dock1
  -GOLD-   22720 5403D 1   1.00000     0.00000
 Structure written by MMmdl.
 40 41  0  0  0  0  0  0  0  0  1 V2000
  144.5878  137.0212  151.6707 O   0  0  0  0  0  0  0  0  0  0  0  0
  145.7825  136.7259  151.6272 C   0  0  0  0  0  0  0  0  0  0  0  0
  146.7697  137.6183  151.7921 N   0  0  0  0  0  0  0  0  0  0  0  0
  146.5724  139.0414  152.0397 C   0  0  0  0  0  0  0  0  0  0  0  0
  147.0579  139.4448  153.4450 C   0  0  0  0  0  0  0  0  0  0  0  0
  148.4909  139.7640  153.4395 N   0  0  0  0  0  0  0  0  0  0  0  0
  148.8693  141.0661  152.8648 C   0  0  0  0  0  0  0  0  0  0  0  0
  149.3750  142.0871  153.9115 C   0  0  0  0  0  0  0  0  0  0  0  0
  150.0658  141.5026  155.1596 C   0  0  0  0  0  0  0  0  0  0  0  0
  151.2167  140.5169  154.8678 C   0  0  0  0  0  0  0  0  0  0  0  0
  150.8865  139.3289  153.9332 C   0  0  0  0  0  0  0  0  0  0  0  0
  149.4091  138.9053  153.9481 C   0  0  0  0  0  0  0  0  0  0  0  0
  149.1125  137.8096  154.4249 O   0  0  0  0  0  0  0  0  0  0  0  0
  146.2717  135.4920  151.4119 N   0  0  0  0  0  0  0  0  0  0  0  0
  145.5503  134.2861  151.2033 C   0  0  0  0  0  0  0  0  0  0  0  0
  146.3464  133.1235  151.0944 C   0  0  0  0  0  0  0  0  0  0  0  0
  145.7266  131.8758  150.8873 C   0  0  0  0  0  0  0  0  0  0  0  0
  144.3244  131.8225  150.7950 C   0  0  0  0  0  0  0  0  0  0  0  0
  143.6060  133.0263  150.9147 C   0  0  0  0  0  0  0  0  0  0  0  0
  144.1982  134.2229  151.1131 N   0  0  0  0  0  0  0  0  0  0  0  0
  147.7238  137.2923  151.7407 H   0  0  0  0  0  0  0  0  0  0  0  0
  147.1276  139.5965  151.2832 H   0  0  0  0  0  0  0  0  0  0  0  0
  145.5208  139.2984  151.9008 H   0  0  0  0  0  0  0  0  0  0  0  0
  146.4909  140.3038  153.8085 H   0  0  0  0  0  0  0  0  0  0  0  0
  146.8407  138.6443  154.1528 H   0  0  0  0  0  0  0  0  0  0  0  0
  149.6327  140.9108  152.1022 H   0  0  0  0  0  0  0  0  0  0  0  0
  148.0395  141.5139  152.3177 H   0  0  0  0  0  0  0  0  0  0  0  0
  150.0454  142.7924  153.4193 H   0  0  0  0  0  0  0  0  0  0  0  0
  148.5259  142.6799  154.2532 H   0  0  0  0  0  0  0  0  0  0  0  0
  150.4516  142.3238  155.7643 H   0  0  0  0  0  0  0  0  0  0  0  0
  149.3204  141.0157  155.7903 H   0  0  0  0  0  0  0  0  0  0  0  0
  152.0555  141.0685  154.4422 H   0  0  0  0  0  0  0  0  0  0  0  0
  151.5781  140.1244  155.8188 H   0  0  0  0  0  0  0  0  0  0  0  0
  151.1779  139.5641  152.9099 H   0  0  0  0  0  0  0  0  0  0  0  0
  151.5061  138.4744  154.2085 H   0  0  0  0  0  0  0  0  0  0  0  0
  147.2769  135.4045  151.3959 H   0  0  0  0  0  0  0  0  0  0  0  0
  147.4227  133.1827  151.1677 H   0  0  0  0  0  0  0  0  0  0  0  0
  146.3172  130.9759  150.8014 H   0  0  0  0  0  0  0  0  0  0  0  0
  143.8126  130.8848  150.6369 H   0  0  0  0  0  0  0  0  0  0  0  0
  142.5283  133.0289  150.8496 H   0  0  0  0  0  0  0  0  0  0  0  0
  1  2  2  0  0  0  0
  2  3  1  0  0  0  0
  2 14  1  0  0  0  0
  3  4  1  0  0  0  0
  3 21  1  0  0  0  0
  4  5  1  0  0  0  0
  4 22  1  0  0  0  0
  4 23  1  0  0  0  0
  5  6  1  0  0  0  0
  5 24  1  0  0  0  0
  5 25  1  0  0  0  0
  6 12  1  0  0  0  0
  6  7  1  0  0  0  0
  7  8  1  0  0  0  0
  7 26  1  0  0  0  0
  7 27  1  0  0  0  0
  8  9  1  0  0  0  0
  8 28  1  0  0  0  0
  8 29  1  0  0  0  0
  9 10  1  0  0  0  0
  9 30  1  0  0  0  0
  9 31  1  0  0  0  0
 10 11  1  0  0  0  0
 10 32  1  0  0  0  0
 10 33  1  0  0  0  0
 11 12  1  0  0  0  0
 11 34  1  0  0  0  0
 11 35  1  0  0  0  0
 12 13  2  0  0  0  0
 14 15  1  0  0  0  0
 14 36  1  0  0  0  0
 15 20  1  0  0  0  0
 15 16  2  0  0  0  0
 16 17  1  0  0  0  0
 16 37  1  0  0  0  0
 17 18  2  0  0  0  0
 17 38  1  0  0  0  0
 18 19  1  0  0  0  0
 18 39  1  0  0  0  0
 19 20  2  0  0  0  0
 19 40  1  0  0  0  0
M  END
> <s_m_source_file>
AV-unprocessed.smi

> <i_m_source_file_index>
1415

> <i_lp_mmshare_version>
43012

> <i_f3d_flags>
0

> <s_epik_input>
bjFbY0hdW2NIXVtjSF1bY0hdYzFbTkhdQyg9TylbTkhdW0NIMl1bQ0gyXU4yW0NIMl1bQ0gyXVtDSDJdW0NIMl1bQ0gyXUMyPU8=

> <s_epik_cmdline>
J2VwaWtfcHl0aG9uJywgJy1waCcsICc3LjAnLCAnLXRuJywgJzgnLCAnLW1hJywgJzIwMCcsICctbWV0YWxfYmluZGluZycsICctaW1hZScsICc8aW5maWxlLm1hZT4nLCAnLW9tYWUnLCAnPG91dGZpbGUubWFlPic=

> <r_lp_tautomer_probability>
1

> <r_epik_Ionization_Penalty>
4.30218e-05

> <r_epik_Ionization_Penalty_Charging>
0

> <r_epik_Ionization_Penalty_Neutral>
4.30218e-05

> <r_epik_State_Penalty>
-0

> <r_epik_Charging_Adjusted_Penalty>
0

> <i_epik_Tot_Q>
0

> <i_epik_Tot_abs_Q>
0

> <r_epik_Metal_State_Penalty>
-0

> <b_epik_Metal_Only>
0

> <s_lp_Force_Field>
OPLS_2005

> <r_lp_Energy>
23.0834

> <b_lp_Chiralities_Consistent>
1

> <s_lp_Variant>
AV-unprocessed.smi:1415-1

> <Gold.Version>
5.8.1

> <Gold.Id.Protein>
6NUR|6NUR_protein|mol2

> <Gold.PLP.Fitness>
44.6152

> <Gold.PLP.PLP>
-36.4476

> <Gold.PLP.part.hbond>
-1.9047

> <Gold.PLP.part.metal>
0.0000

> <Gold.PLP.part.buried>
-0.5789

> <Gold.PLP.part.nonpolar>
-34.6853

> <Gold.PLP.part.repulsive>
1.2313

> <Gold.PLP.ligand.clash>
0.0000

> <Gold.PLP.ligand.torsion>
0.3736

> <Gold.PLP.Chemscore.Hbond>
1.9600

> <Gold.PLP.Chemscore.CHOScore>
1.0000

> <Gold.PLP.Chemscore.Metal>
0.0000

> <Gold.Chemscore.Hbonds>
donor molecule, donor type, donor heavy atom, donor atom, acceptor molecule, acceptor atom, score
      L1  H     3    21       P1  7948  1.00
      L1  H    14    36       P1  7948  0.94
      L1  C    19    40       P1 10186  1.00

> <Gold.PLP.Chemscore.Internal.Correction>
0.0349

> <Gold.Rescore>
     Score         DG    S(hbond)    S(metal)    S(lipo)     H(rot)  DE(clash)    DE(int)     intcor
     15.29     -17.03       1.90        0.00      78.79       1.57       0.04       1.70       ----

> <Gold.Chemscore.Fitness>
15.2942

> <Gold.Chemscore.DG>
-17.0286

> <Gold.Chemscore.ZeroCoef>
-5.4800

> <Gold.Chemscore.Hbond>
1.9035

> <Gold.Chemscore.Metal>
0.0000

> <Gold.Chemscore.Lipo>
78.7873

> <Gold.Chemscore.Internal_Hbond>
0.0000

> <Gold.Chemscore.DEClash>
0.0376

> <Gold.Chemscore.DEInternal>
1.6967

> <Gold.Chemscore.Rot>
1.5731

> <Gold.Chemscore.Internal.Correction>
   9.000000E+99

> <Gold.Chemscore.Hbonds>
donor molecule, donor type, donor heavy atom, donor atom, acceptor molecule, acceptor atom, score
      L1  H     3    21       P1  7948  0.98
      L1  H    14    36       P1  7948  0.82

> <Gold.Chemscore.Hbond.Weighted>
-6.3575

> <Gold.Chemscore.Metal.Weighted>
-0.0000

> <Gold.Chemscore.Lipo.Weighted>
-9.2181

> <Gold.Chemscore.Internal_Hbond.Weighted>
0.0000

> <Gold.Chemscore.DEClash.Weighted>
0.0376

> <Gold.Chemscore.DEInternal.Weighted>
1.6967

> <Gold.Chemscore.Rot.Weighted>
4.0271

> <Gold.Chemscore.Internal.Correction.Weighted>
   9.000000E+99

> <Gold.Protein.RotatedTorsions>
[ 6907 6896 6895 6894 ] final  -49.71 input  -60.11 | X-H torsion
[ 7974 7965 7964 7962 ] final -104.79 input  175.53 | X-H torsion
[ 8008 7997 7996 7995 ] final   81.69 input   59.86 | X-H torsion
[ 10167 10162 10161 10158 ] final  -95.79 input  -65.29 | X-H torsion
[ 10718 10713 10712 10709 ] final -109.54 input   66.30 | X-H torsion
[ 10763 10752 10751 10750 ] final   93.00 input  -60.55 | X-H torsion
[ 11005 11000 10999 10996 ] final  169.22 input  -57.11 | X-H torsion

> <Gold.Protein.ActiveResidues>
 VAL166  LYS551  ARG553  GLY616  TRP617  ASP618  TYR619  PRO620  LYS621  CYS622 
 ASP623  PHE694  ASN695  SER759  ASP760  ASP761  ALA762  ILE779  LEU786  VAL792 
 PHE793  MET794  SER795  GLU796  ALA797  LYS798  CYS799  TRP800  GLU811  SER814 

> <Gold.Protein.RotatedAtoms>
  150.8779  134.8164  159.7202 H   0  0  0  0  0  0  0  0  0  0  0  0  # atno 6907 bound_to 6896
  152.4758  134.4843  159.9685 H   0  0  0  0  0  0  0  0  0  0  0  0  # atno 6908 bound_to 6896
  151.4922  133.3484  159.2891 H   0  0  0  0  0  0  0  0  0  0  0  0  # atno 6909 bound_to 6896
  145.2387  140.9197  143.3162 H   0  0  0  0  0  0  0  0  0  0  0  0  # atno 7974 bound_to 7965
  155.9006  140.3433  155.6023 H   0  0  0  0  0  0  0  0  0  0  0  0  # atno 8008 bound_to 7997
  155.7505  140.0819  157.2222 H   0  0  0  0  0  0  0  0  0  0  0  0  # atno 8009 bound_to 7997
  154.4043  140.1554  156.2705 H   0  0  0  0  0  0  0  0  0  0  0  0  # atno 8010 bound_to 7997
  140.3005  143.3165  152.0253 H   0  0  0  0  0  0  0  0  0  0  0  0  # atno 10167 bound_to 10162
  156.0542  130.5769  150.8114 H   0  0  0  0  0  0  0  0  0  0  0  0  # atno 10718 bound_to 10713
  153.2254  135.4341  155.0536 H   0  0  0  0  0  0  0  0  0  0  0  0  # atno 10763 bound_to 10752
  154.8270  135.3366  154.6866 H   0  0  0  0  0  0  0  0  0  0  0  0  # atno 10764 bound_to 10752
  153.7296  135.7012  153.5049 H   0  0  0  0  0  0  0  0  0  0  0  0  # atno 10765 bound_to 10752
  140.2954  134.7639  157.3873 H   0  0  0  0  0  0  0  0  0  0  0  0  # atno 11005 bound_to 11000
  144.9609  139.3981  143.6356 LP  0  0  0  0  0  0  0  0  0  0  0  0  # atno 17320 bound_to 7965
  146.3334  139.8661  142.8848 LP  0  0  0  0  0  0  0  0  0  0  0  0  # atno 17321 bound_to 7965
  139.4916  144.6459  151.6779 LP  0  0  0  0  0  0  0  0  0  0  0  0  # atno 17342 bound_to 10162
  140.5655  144.0197  150.6190 LP  0  0  0  0  0  0  0  0  0  0  0  0  # atno 17343 bound_to 10162
  157.5497  131.0943  150.9712 LP  0  0  0  0  0  0  0  0  0  0  0  0  # atno 17370 bound_to 10713
  156.9975  130.5587  149.5308 LP  0  0  0  0  0  0  0  0  0  0  0  0  # atno 17371 bound_to 10713
  140.1157  134.5286  155.8227 LP  0  0  0  0  0  0  0  0  0  0  0  0  # atno 17394 bound_to 11000
  141.2138  133.6739  156.6772 LP  0  0  0  0  0  0  0  0  0  0  0  0  # atno 17395 bound_to 11000

$$$$
