AV-unprocessed.smi:38|AV-procd|sdf|346|dock3
  -GOLD-   2262016183D 1   1.00000     0.00000
 Structure written by MMmdl.
 27 28  0  0  0  0  0  0  0  0  2 V2000
  152.9516  140.8960  158.7958 O   0  0  0  0  0  0  0  0  0  0  0  0
  152.1785  140.9263  157.8392 C   0  0  0  0  0  0  0  0  0  0  0  0
  152.3129  140.1098  156.7545 N   0  5  0  0  0  0  0  0  0  0  0  0
  151.4552  140.1468  155.6927 C   0  0  0  0  0  0  0  0  0  0  0  0
  151.5684  139.4119  154.7113 O   0  0  0  0  0  0  0  0  0  0  0  0
  150.3779  141.0753  155.7085 N   0  0  0  0  0  0  0  0  0  0  0  0
  149.4293  141.1104  154.5257 C   0  0  2  0  0  0  0  0  0  0  0  0
  148.1233  141.8375  154.8962 C   0  0  0  0  0  0  0  0  0  0  0  0
  147.0429  140.8526  154.4854 C   0  0  1  0  0  0  0  0  0  0  0  0
  146.5910  141.1235  153.1716 O   0  0  0  0  0  0  0  0  0  0  0  0
  147.7669  139.5049  154.5834 C   0  0  1  0  0  0  0  0  0  0  0  0
  147.1752  138.3347  153.7783 C   0  0  0  0  0  0  0  0  0  0  0  0
  147.3061  138.5729  152.3925 O   0  0  0  0  0  0  0  0  0  0  0  0
  149.0877  139.8067  154.1489 O   0  0  0  0  0  0  0  0  0  0  0  0
  150.2134  141.9116  156.8015 C   0  0  0  0  0  0  0  0  0  0  0  0
  151.0626  141.8703  157.8485 C   0  0  0  0  0  0  0  0  0  0  0  0
  150.8764  142.6949  158.8938 F   0  0  0  0  0  0  0  0  0  0  0  0
  149.9863  141.5817  153.7142 H   0  0  0  0  0  0  0  0  0  0  0  0
  146.1840  140.8957  155.1557 H   0  0  0  0  0  0  0  0  0  0  0  0
  147.8255  139.2192  155.6351 H   0  0  0  0  0  0  0  0  0  0  0  0
  148.0856  142.0026  155.9741 H   0  0  0  0  0  0  0  0  0  0  0  0
  148.0557  142.8045  154.3960 H   0  0  0  0  0  0  0  0  0  0  0  0
  145.6523  141.0157  153.1507 H   0  0  0  0  0  0  0  0  0  0  0  0
  147.6524  137.3892  154.0356 H   0  0  0  0  0  0  0  0  0  0  0  0
  146.1150  138.2265  154.0089 H   0  0  0  0  0  0  0  0  0  0  0  0
  148.1691  138.9212  152.2282 H   0  0  0  0  0  0  0  0  0  0  0  0
  149.3961  142.6152  156.8366 H   0  0  0  0  0  0  0  0  0  0  0  0
  1  2  2  0  0  0  0
  2 16  1  0  0  0  0
  2  3  1  0  0  0  0
  3  4  1  0  0  0  0
  4  5  2  0  0  0  0
  4  6  1  0  0  0  0
  6  7  1  0  0  0  0
  6 15  1  0  0  0  0
  7 18  1  0  0  0  0
  7 14  1  0  0  0  0
  7  8  1  0  0  0  0
  8  9  1  0  0  0  0
  8 21  1  0  0  0  0
  8 22  1  0  0  0  0
  9 19  1  0  0  0  0
  9 10  1  0  0  0  0
  9 11  1  0  0  0  0
 10 23  1  0  0  0  0
 11 20  1  0  0  0  0
 11 12  1  0  0  0  0
 11 14  1  0  0  0  0
 12 13  1  0  0  0  0
 12 24  1  0  0  0  0
 12 25  1  0  0  0  0
 13 26  1  0  0  0  0
 15 16  2  0  0  0  0
 15 27  1  0  0  0  0
 16 17  1  0  0  0  0
M  CHG  1   3  -1
M  END
> <s_m_source_file>
AV-unprocessed.smi

> <i_m_source_file_index>
38

> <i_lp_mmshare_version>
43012

> <i_f3d_flags>
0

> <s_epik_input>
Tz1jMVtuSF1jKD1PKW4oW2NIXWMxRilbQ0BIXTJbQ0gyXVtDQEhdKFtPSF0pW0NASF0oTzIpW0NIMl1bT0hd

> <s_epik_cmdline>
J2VwaWtfcHl0aG9uJywgJy1waCcsICc3LjAnLCAnLXRuJywgJzgnLCAnLW1hJywgJzIwMCcsICctbWV0YWxfYmluZGluZycsICctaW1hZScsICc8aW5maWxlLm1hZT4nLCAnLW9tYWUnLCAnPG91dGZpbGUubWFlPic=

> <r_epik_Ionization_Penalty>
1.68146

> <r_epik_Ionization_Penalty_Charging>
3.4211e-08

> <r_epik_Ionization_Penalty_Neutral>
1.68146

> <r_epik_State_Penalty>
1.78593

> <r_epik_Charging_Adjusted_Penalty>
1.78593

> <i_epik_Tot_Q>
-1

> <i_epik_Tot_abs_Q>
1

> <r_epik_Metal_State_Penalty>
0.0113696

> <b_epik_Metal_Only>
0

> <s_epik_Chemistry_Notes>
This compound contains an acetal/aminal-like group ( X-CH(R)-Y where X, Y are N, S, or O) that may be acid/base labile, releasing an aldehyde.

> <s_lp_Force_Field>
OPLS_2005

> <r_lp_Energy>
41.2481

> <b_lp_Chiralities_Consistent>
1

> <s_lp_Variant>
AV-unprocessed.smi:38-12

> <Gold.Version>
5.8.1

> <Gold.Id.Protein>
6NUR|6NUR_protein|mol2

> <Gold.PLP.Fitness>
42.8221

> <Gold.PLP.PLP>
-26.9264

> <Gold.PLP.part.hbond>
-5.0000

> <Gold.PLP.part.metal>
0.0000

> <Gold.PLP.part.buried>
-1.3289

> <Gold.PLP.part.nonpolar>
-19.7651

> <Gold.PLP.part.repulsive>
0.9276

> <Gold.PLP.ligand.clash>
0.0000

> <Gold.PLP.ligand.torsion>
0.4484

> <Gold.PLP.Chemscore.Hbond>
4.5963

> <Gold.PLP.Chemscore.CHOScore>
1.0000

> <Gold.PLP.Chemscore.Metal>
0.0000

> <Gold.Chemscore.Hbonds>
donor molecule, donor type, donor heavy atom, donor atom, acceptor molecule, acceptor atom, score
      L1  H    10    23       P1 10175  0.73
      L1  H    13    26       P1  7957  0.86
      P1  H  7989  7998       L1     5  0.70
      P1  H  7997  8009       L1     3  1.92
      L1  C    15    27       P1  8028  1.00

> <Gold.PLP.Chemscore.Internal.Correction>
0.0037

> <Gold.Rescore>
     Score         DG    S(hbond)    S(metal)    S(lipo)     H(rot)  DE(clash)    DE(int)     intcor
      8.15     -11.22       2.89        0.00      29.69       2.88       0.94       2.14       ----

> <Gold.Chemscore.Fitness>
8.1460

> <Gold.Chemscore.DG>
-11.2236

> <Gold.Chemscore.ZeroCoef>
-5.4800

> <Gold.Chemscore.Hbond>
2.8880

> <Gold.Chemscore.Metal>
0.0000

> <Gold.Chemscore.Lipo>
29.6940

> <Gold.Chemscore.Internal_Hbond>
0.0000

> <Gold.Chemscore.DEClash>
0.9372

> <Gold.Chemscore.DEInternal>
2.1405

> <Gold.Chemscore.Rot>
2.8815

> <Gold.Chemscore.Internal.Correction>
   9.000000E+99

> <Gold.Chemscore.Hbonds>
donor molecule, donor type, donor heavy atom, donor atom, acceptor molecule, acceptor atom, score
      L1  H    10    23       P1 10175  0.29
      L1  H    13    26       P1  7957  0.81
      P1  H  7989  7998       L1     5  0.07
      P1  H  7997  8009       L1     3  0.23

> <Gold.Chemscore.Hbond.Weighted>
-9.6460

> <Gold.Chemscore.Metal.Weighted>
-0.0000

> <Gold.Chemscore.Lipo.Weighted>
-3.4742

> <Gold.Chemscore.Internal_Hbond.Weighted>
0.0000

> <Gold.Chemscore.DEClash.Weighted>
0.9372

> <Gold.Chemscore.DEInternal.Weighted>
2.1405

> <Gold.Chemscore.Rot.Weighted>
7.3765

> <Gold.Chemscore.Internal.Correction.Weighted>
   9.000000E+99

> <Gold.Protein.RotatedTorsions>
[ 6907 6896 6895 6894 ] final   88.16 input  -60.11 | X-H torsion
[ 7974 7965 7964 7962 ] final  -73.16 input  175.53 | X-H torsion
[ 8008 7997 7996 7995 ] final -176.50 input   59.86 | X-H torsion
[ 10167 10162 10161 10158 ] final    3.06 input  -65.29 | X-H torsion
[ 10718 10713 10712 10709 ] final   36.29 input   66.30 | X-H torsion
[ 10763 10752 10751 10750 ] final  150.46 input  -60.55 | X-H torsion
[ 11005 11000 10999 10996 ] final -170.11 input  -57.11 | X-H torsion

> <Gold.Protein.ActiveResidues>
 VAL166  LYS551  ARG553  GLY616  TRP617  ASP618  TYR619  PRO620  LYS621  CYS622 
 ASP623  PHE694  ASN695  SER759  ASP760  ASP761  ALA762  ILE779  LEU786  VAL792 
 PHE793  MET794  SER795  GLU796  ALA797  LYS798  CYS799  TRP800  GLU811  SER814 

> <Gold.Protein.RotatedAtoms>
  152.5421  134.2164  159.8769 H   0  0  0  0  0  0  0  0  0  0  0  0  # atno 6907 bound_to 6896
  151.2143  133.4531  159.2606 H   0  0  0  0  0  0  0  0  0  0  0  0  # atno 6908 bound_to 6896
  151.0866  134.9904  159.8438 H   0  0  0  0  0  0  0  0  0  0  0  0  # atno 6909 bound_to 6896
  145.6558  140.9268  143.0960 H   0  0  0  0  0  0  0  0  0  0  0  0  # atno 7974 bound_to 7965
  155.9957  140.1210  157.0596 H   0  0  0  0  0  0  0  0  0  0  0  0  # atno 8008 bound_to 7997
  154.4225  140.1117  156.5695 H   0  0  0  0  0  0  0  0  0  0  0  0  # atno 8009 bound_to 7997
  155.6282  140.3473  155.4676 H   0  0  0  0  0  0  0  0  0  0  0  0  # atno 8010 bound_to 7997
  140.6605  143.7317  150.7730 H   0  0  0  0  0  0  0  0  0  0  0  0  # atno 10167 bound_to 10162
  157.3331  130.7508  149.6860 H   0  0  0  0  0  0  0  0  0  0  0  0  # atno 10718 bound_to 10713
  154.0879  135.2854  155.3277 H   0  0  0  0  0  0  0  0  0  0  0  0  # atno 10763 bound_to 10752
  154.6640  135.5324  153.8057 H   0  0  0  0  0  0  0  0  0  0  0  0  # atno 10764 bound_to 10752
  153.0424  135.6541  154.1050 H   0  0  0  0  0  0  0  0  0  0  0  0  # atno 10765 bound_to 10752
  140.5231  134.5689  157.5053 H   0  0  0  0  0  0  0  0  0  0  0  0  # atno 11005 bound_to 11000
  144.7106  139.8385  143.7416 LP  0  0  0  0  0  0  0  0  0  0  0  0  # atno 17320 bound_to 7965
  146.1166  139.4178  143.0254 LP  0  0  0  0  0  0  0  0  0  0  0  0  # atno 17321 bound_to 7965
  140.0985  143.4810  152.2439 LP  0  0  0  0  0  0  0  0  0  0  0  0  # atno 17342 bound_to 10162
  139.5837  144.7522  151.3574 LP  0  0  0  0  0  0  0  0  0  0  0  0  # atno 17343 bound_to 10162
  155.9698  130.4189  150.4352 LP  0  0  0  0  0  0  0  0  0  0  0  0  # atno 17370 bound_to 10713
  157.2387  131.0520  151.2449 LP  0  0  0  0  0  0  0  0  0  0  0  0  # atno 17371 bound_to 10713
  139.9595  134.7477  156.0269 LP  0  0  0  0  0  0  0  0  0  0  0  0  # atno 17394 bound_to 11000
  141.1323  133.6583  156.3498 LP  0  0  0  0  0  0  0  0  0  0  0  0  # atno 17395 bound_to 11000

$$$$
