AV-unprocessed.smi:2526|AV-procd|sdf|9940|dock7
  -GOLD-   2272013583D 1   1.00000     0.00000
 Structure written by MMmdl.
 28 29  0  0  0  0  0  0  0  0  1 V2000
  151.5848  144.0759  157.4118 C   0  0  0  0  0  0  0  0  0  0  0  0
  151.2824  142.6608  157.4190 N   0  0  0  0  0  0  0  0  0  0  0  0
  150.4570  141.9530  156.5732 C   0  0  0  0  0  0  0  0  0  0  0  0
  150.4787  140.6433  156.9704 C   0  0  0  0  0  0  0  0  0  0  0  0
  149.7503  139.4448  156.3929 C   0  0  2  0  0  0  0  0  0  0  0  0
  149.9087  138.2752  157.2620 N   0  0  0  0  0  0  0  0  0  0  0  0
  150.7872  137.2676  157.1003 C   0  0  0  0  0  0  0  0  0  0  0  0
  150.9194  136.3918  157.9519 O   0  0  0  0  0  0  0  0  0  0  0  0
  151.6057  137.1830  155.8002 C   0  0  0  0  0  0  0  0  0  0  0  0
  151.5930  138.4711  154.9579 C   0  0  0  0  0  0  0  0  0  0  0  0
  150.1950  139.1019  154.9496 C   0  0  2  0  0  0  0  0  0  0  0  0
  150.1504  140.2519  154.0643 N   0  0  0  0  0  0  0  0  0  0  0  0
  151.3694  140.6606  158.0831 C   0  0  0  0  0  0  0  0  0  0  0  0
  151.8472  141.8651  158.3488 N   0  0  0  0  0  0  0  0  0  0  0  0
  151.0284  144.5731  156.6167 H   0  0  0  0  0  0  0  0  0  0  0  0
  152.6519  144.2250  157.2443 H   0  0  0  0  0  0  0  0  0  0  0  0
  151.3058  144.5181  158.3687 H   0  0  0  0  0  0  0  0  0  0  0  0
  149.9221  142.4355  155.7683 H   0  0  0  0  0  0  0  0  0  0  0  0
  148.6810  139.6573  156.3669 H   0  0  0  0  0  0  0  0  0  0  0  0
  149.3566  138.2723  158.1075 H   0  0  0  0  0  0  0  0  0  0  0  0
  152.6324  136.8992  156.0329 H   0  0  0  0  0  0  0  0  0  0  0  0
  151.1858  136.3673  155.2109 H   0  0  0  0  0  0  0  0  0  0  0  0
  152.3269  139.1765  155.3504 H   0  0  0  0  0  0  0  0  0  0  0  0
  151.9080  138.2388  153.9399 H   0  0  0  0  0  0  0  0  0  0  0  0
  149.4989  138.3676  154.5416 H   0  0  0  0  0  0  0  0  0  0  0  0
  149.7155  139.9930  153.1902 H   0  0  0  0  0  0  0  0  0  0  0  0
  149.5740  140.9743  154.4719 H   0  0  0  0  0  0  0  0  0  0  0  0
  151.6790  139.8333  158.7045 H   0  0  0  0  0  0  0  0  0  0  0  0
  1  2  1  0  0  0  0
  1 15  1  0  0  0  0
  1 16  1  0  0  0  0
  1 17  1  0  0  0  0
  2 14  1  0  0  0  0
  2  3  1  0  0  0  0
  3  4  2  0  0  0  0
  3 18  1  0  0  0  0
  4  5  1  0  0  0  0
  4 13  1  0  0  0  0
  5 11  1  0  0  0  0
  5  6  1  0  0  0  0
  5 19  1  0  0  0  0
  6  7  1  0  0  0  0
  6 20  1  0  0  0  0
  7  8  2  0  0  0  0
  7  9  1  0  0  0  0
  9 10  1  0  0  0  0
  9 21  1  0  0  0  0
  9 22  1  0  0  0  0
 10 11  1  0  0  0  0
 10 23  1  0  0  0  0
 10 24  1  0  0  0  0
 11 12  1  0  0  0  0
 11 25  1  0  0  0  0
 12 26  1  0  0  0  0
 12 27  1  0  0  0  0
 13 14  2  0  0  0  0
 13 28  1  0  0  0  0
M  END
> <s_m_source_file>
AV-unprocessed.smi

> <i_m_source_file_index>
2526

> <i_lp_mmshare_version>
43012

> <i_f3d_flags>
0

> <s_epik_input>
W0NIM11uMVtjSF1jKFtjSF1uMSlbQ0BASF0yW05IXUMoPU8pW0NIMl1bQ0gyXVtDQEhdMltOSDJd

> <s_epik_cmdline>
J2VwaWtfcHl0aG9uJywgJy1waCcsICc3LjAnLCAnLXRuJywgJzgnLCAnLW1hJywgJzIwMCcsICctbWV0YWxfYmluZGluZycsICctaW1hZScsICc8aW5maWxlLm1hZT4nLCAnLW9tYWUnLCAnPG91dGZpbGUubWFlPic=

> <r_lp_tautomer_probability>
1

> <r_epik_Ionization_Penalty>
2.50279

> <r_epik_Ionization_Penalty_Charging>
0

> <r_epik_Ionization_Penalty_Neutral>
2.50279

> <r_epik_State_Penalty>
2.66754

> <r_epik_Charging_Adjusted_Penalty>
2.66754

> <i_epik_Tot_Q>
0

> <i_epik_Tot_abs_Q>
0

> <r_epik_Metal_State_Penalty>
2.66721

> <b_epik_Metal_Only>
0

> <s_lp_Force_Field>
OPLS_2005

> <r_lp_Energy>
9.07017

> <b_lp_Chiralities_Consistent>
1

> <s_lp_Variant>
AV-unprocessed.smi:2526-7

> <Gold.Version>
5.8.1

> <Gold.Id.Protein>
6NUR|6NUR_protein|mol2

> <Gold.PLP.Fitness>
31.9994

> <Gold.PLP.PLP>
-22.8158

> <Gold.PLP.part.hbond>
-2.9467

> <Gold.PLP.part.metal>
0.0000

> <Gold.PLP.part.buried>
-3.9912

> <Gold.PLP.part.nonpolar>
-17.0353

> <Gold.PLP.part.repulsive>
0.0171

> <Gold.PLP.ligand.clash>
0.0000

> <Gold.PLP.ligand.torsion>
0.0956

> <Gold.PLP.Chemscore.Hbond>
2.1191

> <Gold.PLP.Chemscore.CHOScore>
1.0000

> <Gold.PLP.Chemscore.Metal>
0.0000

> <Gold.Chemscore.Hbonds>
donor molecule, donor type, donor heavy atom, donor atom, acceptor molecule, acceptor atom, score
      L1  H    12    26       P1  7957  0.99
      P1  H  6896  6909       L1     8  0.22
      P1  H  7989  7998       L1    12  0.85
      L1  C     3    18       P1  8028  1.00

> <Gold.PLP.Chemscore.Internal.Correction>
0.0176

> <Gold.Rescore>
     Score         DG    S(hbond)    S(metal)    S(lipo)     H(rot)  DE(clash)    DE(int)     intcor
     13.67     -13.95       1.49        0.00      51.63       1.00       0.00       0.27       ----

> <Gold.Chemscore.Fitness>
13.6736

> <Gold.Chemscore.DG>
-13.9517

> <Gold.Chemscore.ZeroCoef>
-5.4800

> <Gold.Chemscore.Hbond>
1.4942

> <Gold.Chemscore.Metal>
0.0000

> <Gold.Chemscore.Lipo>
51.6341

> <Gold.Chemscore.Internal_Hbond>
0.0000

> <Gold.Chemscore.DEClash>
0.0048

> <Gold.Chemscore.DEInternal>
0.2733

> <Gold.Chemscore.Rot>
1.0000

> <Gold.Chemscore.Internal.Correction>
   9.000000E+99

> <Gold.Chemscore.Hbonds>
donor molecule, donor type, donor heavy atom, donor atom, acceptor molecule, acceptor atom, score
      L1  H    12    26       P1  7957  0.88
      P1  H  6896  6909       L1     8  0.22
      P1  H  7989  7998       L1    12  0.15

> <Gold.Chemscore.Hbond.Weighted>
-4.9905

> <Gold.Chemscore.Metal.Weighted>
-0.0000

> <Gold.Chemscore.Lipo.Weighted>
-6.0412

> <Gold.Chemscore.Internal_Hbond.Weighted>
0.0000

> <Gold.Chemscore.DEClash.Weighted>
0.0048

> <Gold.Chemscore.DEInternal.Weighted>
0.2733

> <Gold.Chemscore.Rot.Weighted>
2.5600

> <Gold.Chemscore.Internal.Correction.Weighted>
   9.000000E+99

> <Gold.Protein.RotatedTorsions>
[ 6907 6896 6895 6894 ] final   76.82 input  -60.11 | X-H torsion
[ 7974 7965 7964 7962 ] final  -71.41 input  175.53 | X-H torsion
[ 8008 7997 7996 7995 ] final   88.62 input   59.86 | X-H torsion
[ 10167 10162 10161 10158 ] final   73.79 input  -65.29 | X-H torsion
[ 10718 10713 10712 10709 ] final   14.56 input   66.30 | X-H torsion
[ 10763 10752 10751 10750 ] final  123.46 input  -60.55 | X-H torsion
[ 11005 11000 10999 10996 ] final  160.82 input  -57.11 | X-H torsion

> <Gold.Protein.ActiveResidues>
 VAL166  LYS551  ARG553  GLY616  TRP617  ASP618  TYR619  PRO620  LYS621  CYS622 
 ASP623  PHE694  ASN695  SER759  ASP760  ASP761  ALA762  ILE779  LEU786  VAL792 
 PHE793  MET794  SER795  GLU796  ALA797  LYS798  CYS799  TRP800  GLU811  SER814 

> <Gold.Protein.RotatedAtoms>
  152.5090  134.3910  159.9383 H   0  0  0  0  0  0  0  0  0  0  0  0  # atno 6907 bound_to 6896
  151.3870  133.3795  159.2724 H   0  0  0  0  0  0  0  0  0  0  0  0  # atno 6908 bound_to 6896
  150.9461  134.8886  159.7701 H   0  0  0  0  0  0  0  0  0  0  0  0  # atno 6909 bound_to 6896
  145.6784  140.9196  143.0845 H   0  0  0  0  0  0  0  0  0  0  0  0  # atno 7974 bound_to 7965
  155.9900  140.3369  155.6744 H   0  0  0  0  0  0  0  0  0  0  0  0  # atno 8008 bound_to 7997
  155.6434  140.0697  157.2629 H   0  0  0  0  0  0  0  0  0  0  0  0  # atno 8009 bound_to 7997
  154.4216  140.1738  156.1584 H   0  0  0  0  0  0  0  0  0  0  0  0  # atno 8010 bound_to 7997
  140.0207  144.5543  150.7584 H   0  0  0  0  0  0  0  0  0  0  0  0  # atno 10167 bound_to 10162
  157.0409  130.6231  149.5751 H   0  0  0  0  0  0  0  0  0  0  0  0  # atno 10718 bound_to 10713
  153.6459  135.3371  155.3085 H   0  0  0  0  0  0  0  0  0  0  0  0  # atno 10763 bound_to 10752
  154.8549  135.4329  154.1956 H   0  0  0  0  0  0  0  0  0  0  0  0  # atno 10764 bound_to 10752
  153.2886  135.7015  153.7389 H   0  0  0  0  0  0  0  0  0  0  0  0  # atno 10765 bound_to 10752
  140.2097  134.8276  157.3107 H   0  0  0  0  0  0  0  0  0  0  0  0  # atno 11005 bound_to 11000
  144.7034  139.8664  143.7437 LP  0  0  0  0  0  0  0  0  0  0  0  0  # atno 17320 bound_to 7965
  146.0985  139.3979  143.0361 LP  0  0  0  0  0  0  0  0  0  0  0  0  # atno 17321 bound_to 7965
  140.7344  143.2728  151.3835 LP  0  0  0  0  0  0  0  0  0  0  0  0  # atno 17342 bound_to 10162
  139.6142  144.1037  152.2329 LP  0  0  0  0  0  0  0  0  0  0  0  0  # atno 17343 bound_to 10162
  156.0038  130.5122  150.7759 LP  0  0  0  0  0  0  0  0  0  0  0  0  # atno 17370 bound_to 10713
  157.5105  131.0925  151.0204 LP  0  0  0  0  0  0  0  0  0  0  0  0  # atno 17371 bound_to 10713
  140.1964  134.4308  155.7687 LP  0  0  0  0  0  0  0  0  0  0  0  0  # atno 17394 bound_to 11000
  141.2226  133.7051  156.8112 LP  0  0  0  0  0  0  0  0  0  0  0  0  # atno 17395 bound_to 11000

$$$$
