AV-unprocessed.smi:753|AV-procd|sdf|3605|dock3
  -GOLD-   22720 1 03D 1   1.00000     0.00000
 Structure written by MMmdl.
 44 46  0  0  0  0  0  0  0  0  2 V2000
  151.4138  143.5843  158.4418 C   0  0  0  0  0  0  0  0  0  0  0  0
  151.2026  142.4369  157.4770 C   0  0  0  0  0  0  0  0  0  0  0  0
  151.9125  141.2221  157.5855 C   0  0  0  0  0  0  0  0  0  0  0  0
  151.6706  140.1969  156.6480 C   0  0  0  0  0  0  0  0  0  0  0  0
  150.7228  140.4061  155.6217 C   0  0  0  0  0  0  0  0  0  0  0  0
  150.4628  139.3383  154.5735 C   0  0  0  0  0  0  0  0  0  0  0  0
  151.1075  137.9779  154.9037 C   0  0  0  0  0  0  0  0  0  0  0  0
  150.3563  136.8527  154.3522 N   0  0  0  0  0  0  0  0  0  0  0  0
  150.0096  135.7382  155.0202 C   0  0  0  0  0  0  0  0  0  0  0  0
  150.2823  135.5426  156.2031 O   0  0  0  0  0  0  0  0  0  0  0  0
  149.3169  134.8426  154.2956 N   0  0  0  0  0  0  0  0  0  0  0  0
  148.7991  133.5425  154.7300 C   0  0  2  0  0  0  0  0  0  0  0  0
  149.2479  132.4160  153.7725 C   0  0  0  0  0  0  0  0  0  0  0  0
  147.9148  131.8099  153.2966 C   0  0  2  0  0  0  0  0  0  0  0  0
  147.2105  132.7944  152.3437 C   0  0  0  0  0  0  0  0  0  0  0  0
  146.7102  133.8945  153.2987 C   0  0  0  0  0  0  0  0  0  0  0  0
  147.2537  133.4262  154.6663 C   0  0  1  0  0  0  0  0  0  0  0  0
  147.0609  131.9178  154.5529 C   0  0  0  0  0  0  0  0  0  0  0  0
  150.0363  141.6379  155.5690 C   0  0  0  0  0  0  0  0  0  0  0  0
  150.2988  142.5960  156.4841 N   0  3  0  0  0  0  0  0  0  0  0  0
  152.3684  143.4873  158.9600 H   0  0  0  0  0  0  0  0  0  0  0  0
  150.6189  143.6016  159.1875 H   0  0  0  0  0  0  0  0  0  0  0  0
  151.4119  144.5385  157.9137 H   0  0  0  0  0  0  0  0  0  0  0  0
  152.6378  141.0771  158.3729 H   0  0  0  0  0  0  0  0  0  0  0  0
  152.2161  139.2666  156.7119 H   0  0  0  0  0  0  0  0  0  0  0  0
  149.3867  139.2122  154.4462 H   0  0  0  0  0  0  0  0  0  0  0  0
  150.8400  139.6967  153.6151 H   0  0  0  0  0  0  0  0  0  0  0  0
  152.1143  137.9445  154.4867 H   0  0  0  0  0  0  0  0  0  0  0  0
  151.2246  137.8667  155.9830 H   0  0  0  0  0  0  0  0  0  0  0  0
  150.0863  136.9207  153.3817 H   0  0  0  0  0  0  0  0  0  0  0  0
  149.1033  135.1021  153.3433 H   0  0  0  0  0  0  0  0  0  0  0  0
  149.1558  133.3150  155.7363 H   0  0  0  0  0  0  0  0  0  0  0  0
  149.8542  132.7711  152.9378 H   0  0  0  0  0  0  0  0  0  0  0  0
  149.8367  131.6725  154.3112 H   0  0  0  0  0  0  0  0  0  0  0  0
  148.0139  130.8027  152.8906 H   0  0  0  0  0  0  0  0  0  0  0  0
  147.8859  133.1829  151.5807 H   0  0  0  0  0  0  0  0  0  0  0  0
  146.3713  132.3169  151.8362 H   0  0  0  0  0  0  0  0  0  0  0  0
  147.0478  134.8896  153.0092 H   0  0  0  0  0  0  0  0  0  0  0  0
  145.6197  133.9156  153.3109 H   0  0  0  0  0  0  0  0  0  0  0  0
  146.7449  133.8855  155.5144 H   0  0  0  0  0  0  0  0  0  0  0  0
  146.0218  131.6222  154.3973 H   0  0  0  0  0  0  0  0  0  0  0  0
  147.4668  131.3641  155.4014 H   0  0  0  0  0  0  0  0  0  0  0  0
  149.3024  141.8903  154.8177 H   0  0  0  0  0  0  0  0  0  0  0  0
  149.7960  143.4813  156.4193 H   0  0  0  0  0  0  0  0  0  0  0  0
  1  2  1  0  0  0  0
  1 21  1  0  0  0  0
  1 22  1  0  0  0  0
  1 23  1  0  0  0  0
  2 20  1  0  0  0  0
  2  3  2  0  0  0  0
  3  4  1  0  0  0  0
  3 24  1  0  0  0  0
  4  5  2  0  0  0  0
  4 25  1  0  0  0  0
  5  6  1  0  0  0  0
  5 19  1  0  0  0  0
  6  7  1  0  0  0  0
  6 26  1  0  0  0  0
  6 27  1  0  0  0  0
  7  8  1  0  0  0  0
  7 28  1  0  0  0  0
  7 29  1  0  0  0  0
  8  9  1  0  0  0  0
  8 30  1  0  0  0  0
  9 10  2  0  0  0  0
  9 11  1  0  0  0  0
 11 12  1  0  0  0  0
 11 31  1  0  0  0  0
 12 17  1  0  0  0  0
 12 13  1  0  0  0  0
 12 32  1  0  0  0  0
 13 14  1  0  0  0  0
 13 33  1  0  0  0  0
 13 34  1  0  0  0  0
 14 18  1  0  0  0  0
 14 15  1  0  0  0  0
 14 35  1  0  0  0  0
 15 16  1  0  0  0  0
 15 36  1  0  0  0  0
 15 37  1  0  0  0  0
 16 17  1  0  0  0  0
 16 38  1  0  0  0  0
 16 39  1  0  0  0  0
 17 18  1  0  0  0  0
 17 40  1  0  0  0  0
 18 41  1  0  0  0  0
 18 42  1  0  0  0  0
 19 20  2  0  0  0  0
 19 43  1  0  0  0  0
 20 44  1  0  0  0  0
M  CHG  1  20   1
M  END
> <s_m_source_file>
AV-unprocessed.smi

> <i_m_source_file_index>
753

> <i_lp_mmshare_version>
43012

> <i_f3d_flags>
0

> <s_epik_input>
W0NIM11jMVtjSF1bY0hdYyhbY0hdbjEpW0NIMl1bQ0gyXVtOSF1DKD1PKVtOSF1bQ0BIXShbQ0gyXVtDQEBIXTIzKVtDQEBIXShbQ0gyXTMpW0NIMl1bQ0gyXTI=

> <s_epik_cmdline>
J2VwaWtfcHl0aG9uJywgJy1waCcsICc3LjAnLCAnLXRuJywgJzgnLCAnLW1hJywgJzIwMCcsICctbWV0YWxfYmluZGluZycsICctaW1hZScsICc8aW5maWxlLm1hZT4nLCAnLW9tYWUnLCAnPG91dGZpbGUubWFlPic=

> <r_epik_Ionization_Penalty>
1.41708

> <r_epik_Ionization_Penalty_Charging>
1.41702

> <r_epik_Ionization_Penalty_Neutral>
5.73163e-05

> <r_epik_State_Penalty>
1.50048

> <r_epik_Charging_Adjusted_Penalty>
2.9175

> <i_epik_Tot_Q>
1

> <i_epik_Tot_abs_Q>
1

> <r_epik_Metal_State_Penalty>
1.55295

> <b_epik_Metal_Only>
0

> <s_lp_Force_Field>
OPLS_2005

> <r_lp_Energy>
59.6045

> <b_lp_Chiralities_Consistent>
1

> <s_lp_Variant>
AV-unprocessed.smi:753-7

> <Gold.Version>
5.8.1

> <Gold.Id.Protein>
6NUR|6NUR_protein|mol2

> <Gold.PLP.Fitness>
47.6217

> <Gold.PLP.PLP>
-36.8296

> <Gold.PLP.part.hbond>
-3.7662

> <Gold.PLP.part.metal>
0.0000

> <Gold.PLP.part.buried>
-4.4493

> <Gold.PLP.part.nonpolar>
-29.5339

> <Gold.PLP.part.repulsive>
0.1834

> <Gold.PLP.ligand.clash>
0.0000

> <Gold.PLP.ligand.torsion>
0.3823

> <Gold.PLP.Chemscore.Hbond>
3.8432

> <Gold.PLP.Chemscore.CHOScore>
0.0000

> <Gold.PLP.Chemscore.Metal>
0.0000

> <Gold.Chemscore.Hbonds>
donor molecule, donor type, donor heavy atom, donor atom, acceptor molecule, acceptor atom, score
      L1  H     8    30       P1  7948  0.79
      L1  H    11    31       P1  7948  0.95
      L1  H    20    44       P1  8028  2.00

> <Gold.PLP.Chemscore.Internal.Correction>
0.0271

> <Gold.Rescore>
     Score         DG    S(hbond)    S(metal)    S(lipo)     H(rot)  DE(clash)    DE(int)     intcor
     19.96     -20.35       2.63        0.00      84.84       1.50       0.02       0.36       ----

> <Gold.Chemscore.Fitness>
19.9639

> <Gold.Chemscore.DG>
-20.3450

> <Gold.Chemscore.ZeroCoef>
-5.4800

> <Gold.Chemscore.Hbond>
2.6304

> <Gold.Chemscore.Metal>
0.0000

> <Gold.Chemscore.Lipo>
84.8394

> <Gold.Chemscore.Internal_Hbond>
0.0000

> <Gold.Chemscore.DEClash>
0.0174

> <Gold.Chemscore.DEInternal>
0.3637

> <Gold.Chemscore.Rot>
1.5027

> <Gold.Chemscore.Internal.Correction>
   9.000000E+99

> <Gold.Chemscore.Hbonds>
donor molecule, donor type, donor heavy atom, donor atom, acceptor molecule, acceptor atom, score
      L1  H     8    30       P1  7948  0.11
      L1  H    11    31       P1  7948  0.21
      L1  H    20    44       P1  8028  0.99

> <Gold.Chemscore.Hbond.Weighted>
-8.7856

> <Gold.Chemscore.Metal.Weighted>
-0.0000

> <Gold.Chemscore.Lipo.Weighted>
-9.9262

> <Gold.Chemscore.Internal_Hbond.Weighted>
0.0000

> <Gold.Chemscore.DEClash.Weighted>
0.0174

> <Gold.Chemscore.DEInternal.Weighted>
0.3637

> <Gold.Chemscore.Rot.Weighted>
3.8468

> <Gold.Chemscore.Internal.Correction.Weighted>
   9.000000E+99

> <Gold.Protein.RotatedTorsions>
[ 6907 6896 6895 6894 ] final  -73.16 input  -60.11 | X-H torsion
[ 7974 7965 7964 7962 ] final -142.22 input  175.53 | X-H torsion
[ 8008 7997 7996 7995 ] final  -78.17 input   59.86 | X-H torsion
[ 10167 10162 10161 10158 ] final  -95.04 input  -65.29 | X-H torsion
[ 10718 10713 10712 10709 ] final  -58.63 input   66.30 | X-H torsion
[ 10763 10752 10751 10750 ] final   92.68 input  -60.55 | X-H torsion
[ 11005 11000 10999 10996 ] final   11.74 input  -57.11 | X-H torsion

> <Gold.Protein.ActiveResidues>
 VAL166  LYS551  ARG553  GLY616  TRP617  ASP618  TYR619  PRO620  LYS621  CYS622 
 ASP623  PHE694  ASN695  SER759  ASP760  ASP761  ALA762  ILE779  LEU786  VAL792 
 PHE793  MET794  SER795  GLU796  ALA797  LYS798  CYS799  TRP800  GLU811  SER814 

> <Gold.Protein.RotatedAtoms>
  150.7141  134.5058  159.5582 H   0  0  0  0  0  0  0  0  0  0  0  0  # atno 6907 bound_to 6896
  152.2645  134.7996  160.0434 H   0  0  0  0  0  0  0  0  0  0  0  0  # atno 6908 bound_to 6896
  151.8697  133.3438  159.3767 H   0  0  0  0  0  0  0  0  0  0  0  0  # atno 6909 bound_to 6896
  144.8460  140.5985  143.5421 H   0  0  0  0  0  0  0  0  0  0  0  0  # atno 7974 bound_to 7965
  154.5664  140.0698  156.8898 H   0  0  0  0  0  0  0  0  0  0  0  0  # atno 8008 bound_to 7997
  155.2714  140.3365  155.4247 H   0  0  0  0  0  0  0  0  0  0  0  0  # atno 8009 bound_to 7997
  156.2084  140.1749  156.7735 H   0  0  0  0  0  0  0  0  0  0  0  0  # atno 8010 bound_to 7997
  140.3082  143.3121  152.0176 H   0  0  0  0  0  0  0  0  0  0  0  0  # atno 10167 bound_to 10162
  156.1121  130.4174  150.0604 H   0  0  0  0  0  0  0  0  0  0  0  0  # atno 10718 bound_to 10713
  153.2218  135.4353  155.0498 H   0  0  0  0  0  0  0  0  0  0  0  0  # atno 10763 bound_to 10752
  154.8254  135.3358  154.6915 H   0  0  0  0  0  0  0  0  0  0  0  0  # atno 10764 bound_to 10752
  153.7347  135.7008  153.5037 H   0  0  0  0  0  0  0  0  0  0  0  0  # atno 10765 bound_to 10752
  140.4998  134.0757  155.7791 H   0  0  0  0  0  0  0  0  0  0  0  0  # atno 11005 bound_to 11000
  145.4596  139.1514  143.3873 LP  0  0  0  0  0  0  0  0  0  0  0  0  # atno 17320 bound_to 7965
  146.2744  140.4725  142.8801 LP  0  0  0  0  0  0  0  0  0  0  0  0  # atno 17321 bound_to 7965
  139.4899  144.6405  151.6887 LP  0  0  0  0  0  0  0  0  0  0  0  0  # atno 17342 bound_to 10162
  140.5591  144.0298  150.6161 LP  0  0  0  0  0  0  0  0  0  0  0  0  # atno 17343 bound_to 10162
  156.8564  130.9476  151.3621 LP  0  0  0  0  0  0  0  0  0  0  0  0  # atno 17370 bound_to 10713
  157.6302  130.8723  149.9261 LP  0  0  0  0  0  0  0  0  0  0  0  0  # atno 17371 bound_to 10713
  141.1441  133.9086  157.2256 LP  0  0  0  0  0  0  0  0  0  0  0  0  # atno 17394 bound_to 11000
  139.9720  135.0125  156.9536 LP  0  0  0  0  0  0  0  0  0  0  0  0  # atno 17395 bound_to 11000

$$$$
