AV-unprocessed.smi:3105|AV-procd|sdf|11819|dock9
  -GOLD-   2272017193D 1   1.00000     0.00000
 Structure written by MMmdl.
 34 34  0  0  0  0  0  0  0  0  2 V2000
  153.6473  139.9940  160.2146 C   0  0  0  0  0  0  0  0  0  0  0  0
  152.6217  141.0854  159.8506 C   0  0  2  0  0  0  0  0  0  0  0  0
  152.3634  141.0672  158.3914 N   0  3  0  0  0  0  0  0  0  0  0  0
  151.3598  140.0806  157.9337 C   0  0  0  0  0  0  0  0  0  0  0  0
  151.1835  140.1086  156.4026 C   0  0  0  0  0  0  0  0  0  0  0  0
  152.1487  139.1970  155.6319 C   0  0  0  0  0  0  0  0  0  0  0  0
  152.1516  137.9068  155.9744 N   0  0  0  0  0  0  0  0  0  0  0  0
  152.8781  139.6379  154.7451 O   0  0  0  0  0  0  0  0  0  0  0  0
  153.0877  142.5029  160.2842 C   0  0  2  0  0  0  0  0  0  0  0  0
  153.0899  142.7041  161.8112 C   0  0  0  0  0  0  0  0  0  0  0  0
  152.2881  143.5520  159.6596 N   0  0  0  0  0  0  0  0  0  0  0  0
  151.6141  144.5882  160.2728 C   0  0  0  0  0  0  0  0  0  0  0  0
  150.9889  145.3060  159.2940 C   0  0  0  0  0  0  0  0  0  0  0  0
  151.3315  144.6171  158.0978 C   0  0  0  0  0  0  0  0  0  0  0  0
  152.1057  143.5676  158.3194 N   0  0  0  0  0  0  0  0  0  0  0  0
  153.7993  139.9277  161.2913 H   0  0  0  0  0  0  0  0  0  0  0  0
  154.6152  140.1896  159.7522 H   0  0  0  0  0  0  0  0  0  0  0  0
  153.3210  139.0065  159.8895 H   0  0  0  0  0  0  0  0  0  0  0  0
  151.6855  140.8615  160.3644 H   0  0  0  0  0  0  0  0  0  0  0  0
  152.0183  141.9813  158.1347 H   0  0  0  0  0  0  0  0  0  0  0  0
  151.6388  139.0774  158.2561 H   0  0  0  0  0  0  0  0  0  0  0  0
  150.4048  140.3076  158.4086 H   0  0  0  0  0  0  0  0  0  0  0  0
  150.1655  139.8021  156.1582 H   0  0  0  0  0  0  0  0  0  0  0  0
  151.2939  141.1302  156.0358 H   0  0  0  0  0  0  0  0  0  0  0  0
  152.7611  137.2566  155.4993 H   0  0  0  0  0  0  0  0  0  0  0  0
  151.5372  137.5816  156.7075 H   0  0  0  0  0  0  0  0  0  0  0  0
  154.1123  142.6408  159.9351 H   0  0  0  0  0  0  0  0  0  0  0  0
  153.8150  142.0578  162.3045 H   0  0  0  0  0  0  0  0  0  0  0  0
  152.1093  142.4993  162.2420 H   0  0  0  0  0  0  0  0  0  0  0  0
  153.3559  143.7300  162.0683 H   0  0  0  0  0  0  0  0  0  0  0  0
  151.6348  144.7285  161.3437 H   0  0  0  0  0  0  0  0  0  0  0  0
  150.3742  146.1857  159.4146 H   0  0  0  0  0  0  0  0  0  0  0  0
  151.0413  144.8457  157.0827 H   0  0  0  0  0  0  0  0  0  0  0  0
  153.2349  140.9055  157.9065 H   0  0  0  0  0  0  0  0  0  0  0  0
  1  2  1  0  0  0  0
  1 16  1  0  0  0  0
  1 17  1  0  0  0  0
  1 18  1  0  0  0  0
  2  3  1  0  0  0  0
  2  9  1  0  0  0  0
  2 19  1  0  0  0  0
  3  4  1  0  0  0  0
  3 20  1  0  0  0  0
  3 34  1  0  0  0  0
  4  5  1  0  0  0  0
  4 21  1  0  0  0  0
  4 22  1  0  0  0  0
  5  6  1  0  0  0  0
  5 23  1  0  0  0  0
  5 24  1  0  0  0  0
  6  7  1  0  0  0  0
  6  8  2  0  0  0  0
  7 25  1  0  0  0  0
  7 26  1  0  0  0  0
  9 10  1  0  0  0  0
  9 11  1  0  0  0  0
  9 27  1  0  0  0  0
 10 28  1  0  0  0  0
 10 29  1  0  0  0  0
 10 30  1  0  0  0  0
 11 15  1  0  0  0  0
 11 12  1  0  0  0  0
 12 13  2  0  0  0  0
 12 31  1  0  0  0  0
 13 14  1  0  0  0  0
 13 32  1  0  0  0  0
 14 15  2  0  0  0  0
 14 33  1  0  0  0  0
M  CHG  1   3   1
M  END
> <s_m_source_file>
AV-unprocessed.smi

> <i_m_source_file_index>
3105

> <i_lp_mmshare_version>
43012

> <i_f3d_flags>
0

> <s_epik_input>
W05IMl1DKD1PKVtDSDJdW0NIMl1bTkhdW0NAQEhdKFtDSDNdKVtDQEhdKFtDSDNdKW4xW2NIXVtjSF1bY0hdbjE=

> <s_epik_cmdline>
J2VwaWtfcHl0aG9uJywgJy1waCcsICc3LjAnLCAnLXRuJywgJzgnLCAnLW1hJywgJzIwMCcsICctbWV0YWxfYmluZGluZycsICctaW1hZScsICc8aW5maWxlLm1hZT4nLCAnLW9tYWUnLCAnPG91dGZpbGUubWFlPic=

> <r_lp_tautomer_probability>
1

> <r_epik_Ionization_Penalty>
0.00475669

> <r_epik_Ionization_Penalty_Charging>
0.00474654

> <r_epik_Ionization_Penalty_Neutral>
1.01546e-05

> <r_epik_State_Penalty>
-0

> <r_epik_Charging_Adjusted_Penalty>
0.00474654

> <i_epik_Tot_Q>
1

> <i_epik_Tot_abs_Q>
1

> <r_epik_Metal_State_Penalty>
-0

> <b_epik_Metal_Only>
0

> <s_lp_Force_Field>
OPLS_2005

> <r_lp_Energy>
5.41696

> <b_lp_Chiralities_Consistent>
1

> <s_lp_Variant>
AV-unprocessed.smi:3105-1

> <Gold.Version>
5.8.1

> <Gold.Id.Protein>
6NUR|6NUR_protein|mol2

> <Gold.PLP.Fitness>
43.9773

> <Gold.PLP.PLP>
-38.1153

> <Gold.PLP.part.hbond>
-1.9679

> <Gold.PLP.part.metal>
0.0000

> <Gold.PLP.part.buried>
-6.1161

> <Gold.PLP.part.nonpolar>
-31.4489

> <Gold.PLP.part.repulsive>
0.2953

> <Gold.PLP.ligand.clash>
0.0000

> <Gold.PLP.ligand.torsion>
0.7043

> <Gold.PLP.Chemscore.Hbond>
1.3931

> <Gold.PLP.Chemscore.CHOScore>
1.0000

> <Gold.PLP.Chemscore.Metal>
0.0000

> <Gold.Chemscore.Hbonds>
donor molecule, donor type, donor heavy atom, donor atom, acceptor molecule, acceptor atom, score
      P1  H  7989  7998       L1     8  0.36
      P1  H  7997  8009       L1     8  1.00
      L1  C    14    33       P1  8028  0.97

> <Gold.PLP.Chemscore.Internal.Correction>
0.0913

> <Gold.Rescore>
     Score         DG    S(hbond)    S(metal)    S(lipo)     H(rot)  DE(clash)    DE(int)     intcor
      8.90     -11.40       0.98        0.00      84.81       2.85       0.00       2.50       ----

> <Gold.Chemscore.Fitness>
8.9023

> <Gold.Chemscore.DG>
-11.3976

> <Gold.Chemscore.ZeroCoef>
-5.4800

> <Gold.Chemscore.Hbond>
0.9832

> <Gold.Chemscore.Metal>
0.0000

> <Gold.Chemscore.Lipo>
84.8125

> <Gold.Chemscore.Internal_Hbond>
0.0000

> <Gold.Chemscore.DEClash>
0.0000

> <Gold.Chemscore.DEInternal>
2.4953

> <Gold.Chemscore.Rot>
2.8473

> <Gold.Chemscore.Internal.Correction>
   9.000000E+99

> <Gold.Chemscore.Hbonds>
donor molecule, donor type, donor heavy atom, donor atom, acceptor molecule, acceptor atom, score
      P1  H  7989  7998       L1     8  0.23
      P1  H  7997  8009       L1     8  0.24

> <Gold.Chemscore.Hbond.Weighted>
-3.2838

> <Gold.Chemscore.Metal.Weighted>
-0.0000

> <Gold.Chemscore.Lipo.Weighted>
-9.9231

> <Gold.Chemscore.Internal_Hbond.Weighted>
0.0000

> <Gold.Chemscore.DEClash.Weighted>
0.0000

> <Gold.Chemscore.DEInternal.Weighted>
2.4953

> <Gold.Chemscore.Rot.Weighted>
7.2892

> <Gold.Chemscore.Internal.Correction.Weighted>
   9.000000E+99

> <Gold.Protein.RotatedTorsions>
[ 6907 6896 6895 6894 ] final   39.21 input  -60.11 | X-H torsion
[ 7974 7965 7964 7962 ] final  140.11 input  175.53 | X-H torsion
[ 8008 7997 7996 7995 ] final -133.00 input   59.86 | X-H torsion
[ 10167 10162 10161 10158 ] final    6.65 input  -65.29 | X-H torsion
[ 10718 10713 10712 10709 ] final  157.83 input   66.30 | X-H torsion
[ 10763 10752 10751 10750 ] final -109.46 input  -60.55 | X-H torsion
[ 11005 11000 10999 10996 ] final  -66.43 input  -57.11 | X-H torsion

> <Gold.Protein.ActiveResidues>
 VAL166  LYS551  ARG553  GLY616  TRP617  ASP618  TYR619  PRO620  LYS621  CYS622 
 ASP623  PHE694  ASN695  SER759  ASP760  ASP761  ALA762  ILE779  LEU786  VAL792 
 PHE793  MET794  SER795  GLU796  ALA797  LYS798  CYS799  TRP800  GLU811  SER814 

> <Gold.Protein.RotatedAtoms>
  152.1665  134.8869  160.0537 H   0  0  0  0  0  0  0  0  0  0  0  0  # atno 6907 bound_to 6896
  151.9845  133.3764  159.4128 H   0  0  0  0  0  0  0  0  0  0  0  0  # atno 6908 bound_to 6896
  150.6895  134.3926  159.5127 H   0  0  0  0  0  0  0  0  0  0  0  0  # atno 6909 bound_to 6896
  144.9216  139.5160  143.5660 H   0  0  0  0  0  0  0  0  0  0  0  0  # atno 7974 bound_to 7965
  155.3383  140.0470  157.3044 H   0  0  0  0  0  0  0  0  0  0  0  0  # atno 8008 bound_to 7997
  154.5291  140.2251  155.8802 H   0  0  0  0  0  0  0  0  0  0  0  0  # atno 8009 bound_to 7997
  156.1770  140.3083  155.9083 H   0  0  0  0  0  0  0  0  0  0  0  0  # atno 8010 bound_to 7997
  140.6416  143.7761  150.7436 H   0  0  0  0  0  0  0  0  0  0  0  0  # atno 10167 bound_to 10162
  157.1862  131.0644  151.2105 H   0  0  0  0  0  0  0  0  0  0  0  0  # atno 10718 bound_to 10713
  154.8194  135.4600  154.0735 H   0  0  0  0  0  0  0  0  0  0  0  0  # atno 10763 bound_to 10752
  153.2101  135.6880  153.8130 H   0  0  0  0  0  0  0  0  0  0  0  0  # atno 10764 bound_to 10752
  153.7584  135.3287  155.3310 H   0  0  0  0  0  0  0  0  0  0  0  0  # atno 10765 bound_to 10752
  141.1482  133.6699  156.6139 H   0  0  0  0  0  0  0  0  0  0  0  0  # atno 11005 bound_to 11000
  146.3207  139.8100  142.8948 LP  0  0  0  0  0  0  0  0  0  0  0  0  # atno 17320 bound_to 7965
  145.3286  141.0261  143.3459 LP  0  0  0  0  0  0  0  0  0  0  0  0  # atno 17321 bound_to 7965
  140.1393  143.4455  152.2204 LP  0  0  0  0  0  0  0  0  0  0  0  0  # atno 17342 bound_to 10162
  139.5625  144.7415  151.4114 LP  0  0  0  0  0  0  0  0  0  0  0  0  # atno 17343 bound_to 10162
  157.3905  130.7279  149.6694 LP  0  0  0  0  0  0  0  0  0  0  0  0  # atno 17370 bound_to 10713
  155.9718  130.4148  150.4148 LP  0  0  0  0  0  0  0  0  0  0  0  0  # atno 17371 bound_to 10713
  140.3593  134.7701  157.4522 LP  0  0  0  0  0  0  0  0  0  0  0  0  # atno 17394 bound_to 11000
  140.0798  134.5747  155.8553 LP  0  0  0  0  0  0  0  0  0  0  0  0  # atno 17395 bound_to 11000

$$$$
