AV-unprocessed.smi:2519|AV-procd|sdf|9906|dock7
  -GOLD-   2272013543D 1   1.00000     0.00000
 Structure written by MMmdl.
 43 44  0  0  0  0  0  0  0  0  1 V2000
  149.3032  141.9968  159.2544 C   0  0  0  0  0  0  0  0  0  0  0  0
  149.7453  141.1572  158.1522 N   0  0  0  0  0  0  0  0  0  0  0  0
  148.9725  140.2552  157.5248 C   0  0  0  0  0  0  0  0  0  0  0  0
  147.7986  140.0465  157.8348 O   0  0  0  0  0  0  0  0  0  0  0  0
  149.6319  139.4790  156.4143 C   0  0  0  0  0  0  0  0  0  0  0  0
  150.9757  139.7427  156.0670 C   0  0  0  0  0  0  0  0  0  0  0  0
  151.5648  138.9973  155.0303 C   0  0  0  0  0  0  0  0  0  0  0  0
  150.7969  138.0168  154.3758 C   0  0  0  0  0  0  0  0  0  0  0  0
  149.4596  137.8068  154.7748 C   0  0  0  0  0  0  0  0  0  0  0  0
  148.7629  136.8047  154.0505 N   0  0  0  0  0  0  0  0  0  0  0  0
  147.7593  136.0116  154.4762 C   0  0  0  0  0  0  0  0  0  0  0  0
  147.3249  135.9877  155.6266 O   0  0  0  0  0  0  0  0  0  0  0  0
  147.2456  135.2112  153.5241 N   0  0  0  0  0  0  0  0  0  0  0  0
  146.1577  134.2333  153.6347 C   0  0  1  0  0  0  0  0  0  0  0  0
  144.8359  134.9531  153.9643 C   0  0  0  0  0  0  0  0  0  0  0  0
  144.3111  135.7756  152.7749 C   0  0  0  0  0  0  0  0  0  0  0  0
  144.1702  134.9105  151.5126 C   0  0  0  0  0  0  0  0  0  0  0  0
  145.4970  134.2125  151.1470 C   0  0  2  0  0  0  0  0  0  0  0  0
  145.3684  133.3531  149.8725 C   0  0  0  0  0  0  0  0  0  0  0  0
  144.8252  134.0562  148.8783 F   0  0  0  0  0  0  0  0  0  0  0  0
  146.5700  132.9215  149.4889 F   0  0  0  0  0  0  0  0  0  0  0  0
  144.6033  132.2889  150.1159 F   0  0  0  0  0  0  0  0  0  0  0  0
  146.0084  133.3875  152.3491 C   0  0  0  0  0  0  0  0  0  0  0  0
  148.9044  138.5299  155.7772 N   0  0  0  0  0  0  0  0  0  0  0  0
  150.1219  142.6358  159.5849 H   0  0  0  0  0  0  0  0  0  0  0  0
  148.9811  141.3889  160.1008 H   0  0  0  0  0  0  0  0  0  0  0  0
  148.4740  142.6354  158.9473 H   0  0  0  0  0  0  0  0  0  0  0  0
  150.6996  141.2641  157.8376 H   0  0  0  0  0  0  0  0  0  0  0  0
  151.5512  140.5001  156.5794 H   0  0  0  0  0  0  0  0  0  0  0  0
  152.5897  139.1757  154.7403 H   0  0  0  0  0  0  0  0  0  0  0  0
  151.2331  137.4370  153.5752 H   0  0  0  0  0  0  0  0  0  0  0  0
  149.0307  136.7035  153.0827 H   0  0  0  0  0  0  0  0  0  0  0  0
  147.6692  135.2837  152.6102 H   0  0  0  0  0  0  0  0  0  0  0  0
  146.3815  133.5675  154.4699 H   0  0  0  0  0  0  0  0  0  0  0  0
  144.0851  134.2115  154.2407 H   0  0  0  0  0  0  0  0  0  0  0  0
  144.9616  135.5950  154.8373 H   0  0  0  0  0  0  0  0  0  0  0  0
  143.3471  136.2173  153.0287 H   0  0  0  0  0  0  0  0  0  0  0  0
  144.9857  136.6087  152.5740 H   0  0  0  0  0  0  0  0  0  0  0  0
  143.3913  134.1637  151.6707 H   0  0  0  0  0  0  0  0  0  0  0  0
  143.8341  135.5347  150.6843 H   0  0  0  0  0  0  0  0  0  0  0  0
  146.2332  134.9897  150.9360 H   0  0  0  0  0  0  0  0  0  0  0  0
  146.9548  132.9085  152.0983 H   0  0  0  0  0  0  0  0  0  0  0  0
  145.3097  132.5733  152.5458 H   0  0  0  0  0  0  0  0  0  0  0  0
  1  2  1  0  0  0  0
  1 25  1  0  0  0  0
  1 26  1  0  0  0  0
  1 27  1  0  0  0  0
  2  3  1  0  0  0  0
  2 28  1  0  0  0  0
  3  4  2  0  0  0  0
  3  5  1  0  0  0  0
  5 24  1  0  0  0  0
  5  6  2  0  0  0  0
  6  7  1  0  0  0  0
  6 29  1  0  0  0  0
  7  8  2  0  0  0  0
  7 30  1  0  0  0  0
  8  9  1  0  0  0  0
  8 31  1  0  0  0  0
  9 10  1  0  0  0  0
  9 24  2  0  0  0  0
 10 11  1  0  0  0  0
 10 32  1  0  0  0  0
 11 12  2  0  0  0  0
 11 13  1  0  0  0  0
 13 14  1  0  0  0  0
 13 33  1  0  0  0  0
 14 23  1  0  0  0  0
 14 15  1  0  0  0  0
 14 34  1  0  0  0  0
 15 16  1  0  0  0  0
 15 35  1  0  0  0  0
 15 36  1  0  0  0  0
 16 17  1  0  0  0  0
 16 37  1  0  0  0  0
 16 38  1  0  0  0  0
 17 18  1  0  0  0  0
 17 39  1  0  0  0  0
 17 40  1  0  0  0  0
 18 19  1  0  0  0  0
 18 23  1  0  0  0  0
 18 41  1  0  0  0  0
 19 20  1  0  0  0  0
 19 21  1  0  0  0  0
 19 22  1  0  0  0  0
 23 42  1  0  0  0  0
 23 43  1  0  0  0  0
M  END
> <s_m_source_file>
AV-unprocessed.smi

> <i_m_source_file_index>
2519

> <i_lp_mmshare_version>
43012

> <i_f3d_flags>
0

> <s_epik_input>
W0NIM11bTkhdQyg9TyljMVtjSF1bY0hdW2NIXWMobjEpW05IXUMoPU8pW05IXVtDQEBIXTJbQ0gyXVtDSDJdW0NIMl1bQ0BASF0oQyhGKShGKUYpW0NIMl0y

> <s_epik_cmdline>
J2VwaWtfcHl0aG9uJywgJy1waCcsICc3LjAnLCAnLXRuJywgJzgnLCAnLW1hJywgJzIwMCcsICctbWV0YWxfYmluZGluZycsICctaW1hZScsICc8aW5maWxlLm1hZT4nLCAnLW9tYWUnLCAnPG91dGZpbGUubWFlPic=

> <r_lp_tautomer_probability>
1

> <r_epik_Ionization_Penalty>
3.74915e-05

> <r_epik_Ionization_Penalty_Charging>
0

> <r_epik_Ionization_Penalty_Neutral>
3.74915e-05

> <r_epik_State_Penalty>
-0

> <r_epik_Charging_Adjusted_Penalty>
0

> <i_epik_Tot_Q>
0

> <i_epik_Tot_abs_Q>
0

> <r_epik_Metal_State_Penalty>
-0

> <b_epik_Metal_Only>
0

> <s_lp_Force_Field>
OPLS_2005

> <r_lp_Energy>
26.6361

> <b_lp_Chiralities_Consistent>
1

> <s_lp_Variant>
AV-unprocessed.smi:2519-4

> <Gold.Version>
5.8.1

> <Gold.Id.Protein>
6NUR|6NUR_protein|mol2

> <Gold.PLP.Fitness>
39.5877

> <Gold.PLP.PLP>
-34.4844

> <Gold.PLP.part.hbond>
-2.0000

> <Gold.PLP.part.metal>
0.0000

> <Gold.PLP.part.buried>
-2.2289

> <Gold.PLP.part.nonpolar>
-30.3342

> <Gold.PLP.part.repulsive>
0.2303

> <Gold.PLP.ligand.clash>
0.0000

> <Gold.PLP.ligand.torsion>
0.3047

> <Gold.PLP.Chemscore.Hbond>
1.8960

> <Gold.PLP.Chemscore.CHOScore>
0.0000

> <Gold.PLP.Chemscore.Metal>
0.0000

> <Gold.Chemscore.Hbonds>
donor molecule, donor type, donor heavy atom, donor atom, acceptor molecule, acceptor atom, score
      L1  H    10    32       P1  7948  0.41
      L1  H    13    33       P1  7948  0.77

> <Gold.PLP.Chemscore.Internal.Correction>
0.0247

> <Gold.Rescore>
     Score         DG    S(hbond)    S(metal)    S(lipo)     H(rot)  DE(clash)    DE(int)     intcor
     14.19     -15.91       1.72        0.00      61.87       1.00       0.18       1.54       ----

> <Gold.Chemscore.Fitness>
14.1933

> <Gold.Chemscore.DG>
-15.9133

> <Gold.Chemscore.ZeroCoef>
-5.4800

> <Gold.Chemscore.Hbond>
1.7229

> <Gold.Chemscore.Metal>
0.0000

> <Gold.Chemscore.Lipo>
61.8694

> <Gold.Chemscore.Internal_Hbond>
0.0000

> <Gold.Chemscore.DEClash>
0.1751

> <Gold.Chemscore.DEInternal>
1.5449

> <Gold.Chemscore.Rot>
1.0000

> <Gold.Chemscore.Internal.Correction>
   9.000000E+99

> <Gold.Chemscore.Hbonds>
donor molecule, donor type, donor heavy atom, donor atom, acceptor molecule, acceptor atom, score
      L1  H    10    32       P1  7948  0.41
      L1  H    13    33       P1  7948  0.76

> <Gold.Chemscore.Hbond.Weighted>
-5.7546

> <Gold.Chemscore.Metal.Weighted>
-0.0000

> <Gold.Chemscore.Lipo.Weighted>
-7.2387

> <Gold.Chemscore.Internal_Hbond.Weighted>
0.0000

> <Gold.Chemscore.DEClash.Weighted>
0.1751

> <Gold.Chemscore.DEInternal.Weighted>
1.5449

> <Gold.Chemscore.Rot.Weighted>
2.5600

> <Gold.Chemscore.Internal.Correction.Weighted>
   9.000000E+99

> <Gold.Protein.RotatedTorsions>
[ 6907 6896 6895 6894 ] final -120.19 input  -60.11 | X-H torsion
[ 7974 7965 7964 7962 ] final -125.38 input  175.53 | X-H torsion
[ 8008 7997 7996 7995 ] final   16.42 input   59.86 | X-H torsion
[ 10167 10162 10161 10158 ] final   67.73 input  -65.29 | X-H torsion
[ 10718 10713 10712 10709 ] final -129.52 input   66.30 | X-H torsion
[ 10763 10752 10751 10750 ] final -151.90 input  -60.55 | X-H torsion
[ 11005 11000 10999 10996 ] final  115.15 input  -57.11 | X-H torsion

> <Gold.Protein.ActiveResidues>
 VAL166  LYS551  ARG553  GLY616  TRP617  ASP618  TYR619  PRO620  LYS621  CYS622 
 ASP623  PHE694  ASN695  SER759  ASP760  ASP761  ALA762  ILE779  LEU786  VAL792 
 PHE793  MET794  SER795  GLU796  ALA797  LYS798  CYS799  TRP800  GLU811  SER814 

> <Gold.Protein.RotatedAtoms>
  150.8371  133.7996  159.3075 H   0  0  0  0  0  0  0  0  0  0  0  0  # atno 6907 bound_to 6896
  151.5709  135.1061  160.0004 H   0  0  0  0  0  0  0  0  0  0  0  0  # atno 6908 bound_to 6896
  152.4441  133.7461  159.6724 H   0  0  0  0  0  0  0  0  0  0  0  0  # atno 6909 bound_to 6896
  144.9982  140.7796  143.4512 H   0  0  0  0  0  0  0  0  0  0  0  0  # atno 7974 bound_to 7965
  154.8768  140.2967  155.5449 H   0  0  0  0  0  0  0  0  0  0  0  0  # atno 8008 bound_to 7997
  156.3022  140.2450  156.3698 H   0  0  0  0  0  0  0  0  0  0  0  0  # atno 8009 bound_to 7997
  154.8759  140.0399  157.1742 H   0  0  0  0  0  0  0  0  0  0  0  0  # atno 8010 bound_to 7997
  140.0863  144.5027  150.7128 H   0  0  0  0  0  0  0  0  0  0  0  0  # atno 10167 bound_to 10162
  156.2054  130.6884  151.0588 H   0  0  0  0  0  0  0  0  0  0  0  0  # atno 10718 bound_to 10713
  154.8028  135.3249  154.7506 H   0  0  0  0  0  0  0  0  0  0  0  0  # atno 10763 bound_to 10752
  153.8171  135.6891  153.4837 H   0  0  0  0  0  0  0  0  0  0  0  0  # atno 10764 bound_to 10752
  153.1755  135.4606  154.9904 H   0  0  0  0  0  0  0  0  0  0  0  0  # atno 10765 bound_to 10752
  139.9001  134.9579  156.7000 H   0  0  0  0  0  0  0  0  0  0  0  0  # atno 11005 bound_to 11000
  145.2190  139.2168  143.5103 LP  0  0  0  0  0  0  0  0  0  0  0  0  # atno 17320 bound_to 7965
  146.3446  140.2044  142.8589 LP  0  0  0  0  0  0  0  0  0  0  0  0  # atno 17321 bound_to 7965
  140.7051  143.2462  151.4749 LP  0  0  0  0  0  0  0  0  0  0  0  0  # atno 17342 bound_to 10162
  139.5750  144.1840  152.1890 LP  0  0  0  0  0  0  0  0  0  0  0  0  # atno 17343 bound_to 10162
  157.7009  131.0776  150.6822 LP  0  0  0  0  0  0  0  0  0  0  0  0  # atno 17370 bound_to 10713
  156.6880  130.4587  149.5608 LP  0  0  0  0  0  0  0  0  0  0  0  0  # atno 17371 bound_to 10713
  140.7157  133.9184  155.8114 LP  0  0  0  0  0  0  0  0  0  0  0  0  # atno 17394 bound_to 11000
  141.0266  134.0815  157.4062 LP  0  0  0  0  0  0  0  0  0  0  0  0  # atno 17395 bound_to 11000

$$$$
