AV-unprocessed.smi:1325|AV-procd|sdf|5473|dock6
  -GOLD-   22720 5 43D 1   1.00000     0.00000
 Structure written by MMmdl.
 35 36  0  0  0  0  0  0  0  0  1 V2000
  152.5725  143.5769  159.2120 C   0  0  0  0  0  0  0  0  0  0  0  0
  152.4232  142.0844  159.0893 C   0  0  0  0  0  0  0  0  0  0  0  0
  151.5320  141.6562  158.2569 N   0  0  0  0  0  0  0  0  0  0  0  0
  151.3107  140.3062  158.0710 N   0  0  0  0  0  0  0  0  0  0  0  0
  150.2610  140.0048  157.0893 C   0  0  0  0  0  0  0  0  0  0  0  0
  150.5366  140.6513  155.7138 C   0  0  1  0  0  0  0  0  0  0  0  0
  151.6188  139.9759  155.1026 O   0  0  0  0  0  0  0  0  0  0  0  0
  149.2954  140.6123  154.8351 C   0  0  0  0  0  0  0  0  0  0  0  0
  148.7401  139.3784  154.4288 C   0  0  0  0  0  0  0  0  0  0  0  0
  147.5861  139.3502  153.6219 C   0  0  0  0  0  0  0  0  0  0  0  0
  146.9795  140.5548  153.2174 C   0  0  0  0  0  0  0  0  0  0  0  0
  147.5266  141.7876  153.6219 C   0  0  0  0  0  0  0  0  0  0  0  0
  148.6803  141.8163  154.4294 C   0  0  0  0  0  0  0  0  0  0  0  0
  151.9828  139.3125  158.7196 C   0  0  0  0  0  0  0  0  0  0  0  0
  151.7491  138.1183  158.5260 O   0  0  0  0  0  0  0  0  0  0  0  0
  152.9940  139.8040  159.6586 C   0  0  0  0  0  0  0  0  0  0  0  0
  153.7226  138.7959  160.3586 C   0  0  0  0  0  0  0  0  0  0  0  0
  154.2965  137.9684  160.9296 N   0  0  0  0  0  0  0  0  0  0  0  0
  153.2211  141.1276  159.8496 C   0  0  0  0  0  0  0  0  0  0  0  0
  154.2578  141.6900  160.8126 C   0  0  0  0  0  0  0  0  0  0  0  0
  152.4071  143.8999  160.2397 H   0  0  0  0  0  0  0  0  0  0  0  0
  151.8591  144.1106  158.5820 H   0  0  0  0  0  0  0  0  0  0  0  0
  153.5732  143.8911  158.9156 H   0  0  0  0  0  0  0  0  0  0  0  0
  150.1194  138.9271  156.9832 H   0  0  0  0  0  0  0  0  0  0  0  0
  149.3115  140.3750  157.4812 H   0  0  0  0  0  0  0  0  0  0  0  0
  150.8316  141.6936  155.8406 H   0  0  0  0  0  0  0  0  0  0  0  0
  152.2080  139.6821  155.7803 H   0  0  0  0  0  0  0  0  0  0  0  0
  149.1969  138.4493  154.7371 H   0  0  0  0  0  0  0  0  0  0  0  0
  147.1659  138.4040  153.3140 H   0  0  0  0  0  0  0  0  0  0  0  0
  146.0945  140.5329  152.5988 H   0  0  0  0  0  0  0  0  0  0  0  0
  147.0607  142.7119  153.3136 H   0  0  0  0  0  0  0  0  0  0  0  0
  149.0901  142.7674  154.7368 H   0  0  0  0  0  0  0  0  0  0  0  0
  154.8267  140.9059  161.3111 H   0  0  0  0  0  0  0  0  0  0  0  0
  153.7754  142.2878  161.5866 H   0  0  0  0  0  0  0  0  0  0  0  0
  154.9702  142.3225  160.2824 H   0  0  0  0  0  0  0  0  0  0  0  0
  1  2  1  0  0  0  0
  1 21  1  0  0  0  0
  1 22  1  0  0  0  0
  1 23  1  0  0  0  0
  2 19  1  0  0  0  0
  2  3  2  0  0  0  0
  3  4  1  0  0  0  0
  4  5  1  0  0  0  0
  4 14  1  0  0  0  0
  5  6  1  0  0  0  0
  5 24  1  0  0  0  0
  5 25  1  0  0  0  0
  6  7  1  0  0  0  0
  6  8  1  0  0  0  0
  6 26  1  0  0  0  0
  7 27  1  0  0  0  0
  8 13  1  0  0  0  0
  8  9  2  0  0  0  0
  9 10  1  0  0  0  0
  9 28  1  0  0  0  0
 10 11  2  0  0  0  0
 10 29  1  0  0  0  0
 11 12  1  0  0  0  0
 11 30  1  0  0  0  0
 12 13  2  0  0  0  0
 12 31  1  0  0  0  0
 13 32  1  0  0  0  0
 14 15  2  0  0  0  0
 14 16  1  0  0  0  0
 16 17  1  0  0  0  0
 16 19  2  0  0  0  0
 17 18  3  0  0  0  0
 19 20  1  0  0  0  0
 20 33  1  0  0  0  0
 20 34  1  0  0  0  0
 20 35  1  0  0  0  0
M  END
> <s_m_source_file>
AV-unprocessed.smi

> <i_m_source_file_index>
1325

> <i_lp_mmshare_version>
43012

> <i_f3d_flags>
0

> <s_epik_input>
TiNDYyhjMVtDSDNdKWMoPU8pbihuYzFbQ0gzXSlbQ0gyXVtDQEhdKFtPSF0pYzJbY0hdW2NIXVtjSF1bY0hdW2NIXTI=

> <s_epik_cmdline>
J2VwaWtfcHl0aG9uJywgJy1waCcsICc3LjAnLCAnLXRuJywgJzgnLCAnLW1hJywgJzIwMCcsICctbWV0YWxfYmluZGluZycsICctaW1hZScsICc8aW5maWxlLm1hZT4nLCAnLW9tYWUnLCAnPG91dGZpbGUubWFlPic=

> <r_lp_tautomer_probability>
1

> <r_epik_Ionization_Penalty>
7.1854e-08

> <r_epik_Ionization_Penalty_Charging>
1.40848e-10

> <r_epik_Ionization_Penalty_Neutral>
7.17131e-08

> <r_epik_State_Penalty>
-0

> <r_epik_Charging_Adjusted_Penalty>
1.40848e-10

> <i_epik_Tot_Q>
0

> <i_epik_Tot_abs_Q>
0

> <r_epik_Metal_State_Penalty>
-0

> <b_epik_Metal_Only>
0

> <s_lp_Force_Field>
OPLS_2005

> <r_lp_Energy>
28.0712

> <b_lp_Chiralities_Consistent>
1

> <s_lp_Variant>
AV-unprocessed.smi:1325-2

> <Gold.Version>
5.8.1

> <Gold.Id.Protein>
6NUR|6NUR_protein|mol2

> <Gold.PLP.Fitness>
41.6930

> <Gold.PLP.PLP>
-38.9415

> <Gold.PLP.part.hbond>
-1.0000

> <Gold.PLP.part.metal>
0.0000

> <Gold.PLP.part.buried>
-2.4719

> <Gold.PLP.part.nonpolar>
-33.8820

> <Gold.PLP.part.repulsive>
0.0052

> <Gold.PLP.ligand.clash>
0.0000

> <Gold.PLP.ligand.torsion>
0.1142

> <Gold.PLP.Chemscore.Hbond>
0.9920

> <Gold.PLP.Chemscore.CHOScore>
0.0000

> <Gold.PLP.Chemscore.Metal>
0.0000

> <Gold.Chemscore.Hbonds>
donor molecule, donor type, donor heavy atom, donor atom, acceptor molecule, acceptor atom, score
      P1  H  7989  7998       L1     7  0.95

> <Gold.PLP.Chemscore.Internal.Correction>
0.0039

> <Gold.Rescore>
     Score         DG    S(hbond)    S(metal)    S(lipo)     H(rot)  DE(clash)    DE(int)     intcor
     14.55     -14.76       0.86        0.00      96.31       1.90       0.02       0.19       ----

> <Gold.Chemscore.Fitness>
14.5492

> <Gold.Chemscore.DG>
-14.7606

> <Gold.Chemscore.ZeroCoef>
-5.4800

> <Gold.Chemscore.Hbond>
0.8648

> <Gold.Chemscore.Metal>
0.0000

> <Gold.Chemscore.Lipo>
96.3085

> <Gold.Chemscore.Internal_Hbond>
0.0000

> <Gold.Chemscore.DEClash>
0.0204

> <Gold.Chemscore.DEInternal>
0.1910

> <Gold.Chemscore.Rot>
1.9047

> <Gold.Chemscore.Internal.Correction>
   9.000000E+99

> <Gold.Chemscore.Hbonds>
donor molecule, donor type, donor heavy atom, donor atom, acceptor molecule, acceptor atom, score
      P1  H  7989  7998       L1     7  0.21

> <Gold.Chemscore.Hbond.Weighted>
-2.8886

> <Gold.Chemscore.Metal.Weighted>
-0.0000

> <Gold.Chemscore.Lipo.Weighted>
-11.2681

> <Gold.Chemscore.Internal_Hbond.Weighted>
0.0000

> <Gold.Chemscore.DEClash.Weighted>
0.0204

> <Gold.Chemscore.DEInternal.Weighted>
0.1910

> <Gold.Chemscore.Rot.Weighted>
4.8760

> <Gold.Chemscore.Internal.Correction.Weighted>
   9.000000E+99

> <Gold.Protein.RotatedTorsions>
[ 6907 6896 6895 6894 ] final  -12.11 input  -60.11 | X-H torsion
[ 7974 7965 7964 7962 ] final   38.58 input  175.53 | X-H torsion
[ 8008 7997 7996 7995 ] final  101.10 input   59.86 | X-H torsion
[ 10167 10162 10161 10158 ] final  -60.26 input  -65.29 | X-H torsion
[ 10718 10713 10712 10709 ] final -134.83 input   66.30 | X-H torsion
[ 10763 10752 10751 10750 ] final   33.22 input  -60.55 | X-H torsion
[ 11005 11000 10999 10996 ] final  -28.83 input  -57.11 | X-H torsion

> <Gold.Protein.ActiveResidues>
 VAL166  LYS551  ARG553  GLY616  TRP617  ASP618  TYR619  PRO620  LYS621  CYS622 
 ASP623  PHE694  ASN695  SER759  ASP760  ASP761  ALA762  ILE779  LEU786  VAL792 
 PHE793  MET794  SER795  GLU796  ALA797  LYS798  CYS799  TRP800  GLU811  SER814 

> <Gold.Protein.RotatedAtoms>
  151.3757  135.0930  159.9479 H   0  0  0  0  0  0  0  0  0  0  0  0  # atno 6907 bound_to 6896
  152.5123  133.9121  159.7503 H   0  0  0  0  0  0  0  0  0  0  0  0  # atno 6908 bound_to 6896
  150.9544  133.6458  159.2795 H   0  0  0  0  0  0  0  0  0  0  0  0  # atno 6909 bound_to 6896
  146.1051  139.5755  142.9389 H   0  0  0  0  0  0  0  0  0  0  0  0  # atno 7974 bound_to 7965
  156.1267  140.3203  155.8288 H   0  0  0  0  0  0  0  0  0  0  0  0  # atno 8008 bound_to 7997
  155.4406  140.0525  157.3028 H   0  0  0  0  0  0  0  0  0  0  0  0  # atno 8009 bound_to 7997
  154.4868  140.2076  155.9650 H   0  0  0  0  0  0  0  0  0  0  0  0  # atno 8010 bound_to 7997
  140.6083  143.2379  151.5770 H   0  0  0  0  0  0  0  0  0  0  0  0  # atno 10167 bound_to 10162
  156.2596  130.7202  151.1131 H   0  0  0  0  0  0  0  0  0  0  0  0  # atno 10718 bound_to 10713
  153.0223  135.6393  154.1477 H   0  0  0  0  0  0  0  0  0  0  0  0  # atno 10763 bound_to 10752
  154.1210  135.2846  155.3210 H   0  0  0  0  0  0  0  0  0  0  0  0  # atno 10764 bound_to 10752
  154.6263  135.5507  153.7693 H   0  0  0  0  0  0  0  0  0  0  0  0  # atno 10765 bound_to 10752
  140.9243  133.7379  156.0845 H   0  0  0  0  0  0  0  0  0  0  0  0  # atno 11005 bound_to 11000
  145.5777  141.0386  143.2139 LP  0  0  0  0  0  0  0  0  0  0  0  0  # atno 17320 bound_to 7965
  144.7464  139.7309  143.7290 LP  0  0  0  0  0  0  0  0  0  0  0  0  # atno 17321 bound_to 7965
  139.5341  144.2830  152.1213 LP  0  0  0  0  0  0  0  0  0  0  0  0  # atno 17342 bound_to 10162
  140.2024  144.4644  150.6425 LP  0  0  0  0  0  0  0  0  0  0  0  0  # atno 17343 bound_to 10162
  157.7246  131.0659  150.5990 LP  0  0  0  0  0  0  0  0  0  0  0  0  # atno 17370 bound_to 10713
  156.6076  130.4371  149.5872 LP  0  0  0  0  0  0  0  0  0  0  0  0  # atno 17371 bound_to 10713
  140.7947  134.3578  157.5455 LP  0  0  0  0  0  0  0  0  0  0  0  0  # atno 17394 bound_to 11000
  139.8782  134.9161  156.3147 LP  0  0  0  0  0  0  0  0  0  0  0  0  # atno 17395 bound_to 11000

$$$$
