AV-unprocessed.smi:926|AV-procd|sdf|4184|dock5
  -GOLD-   22720 2 93D 1   1.00000     0.00000
 Structure written by MMmdl.
 37 39  0  0  0  0  0  0  0  0  1 V2000
  153.1129  139.3225  155.6371 O   0  0  0  0  0  0  0  0  0  0  0  0
  151.9339  138.9712  155.6785 C   0  0  0  0  0  0  0  0  0  0  0  0
  151.3680  138.0679  154.5836 C   0  0  0  0  0  0  0  0  0  0  0  0
  150.9187  136.8062  155.1400 N   0  0  0  0  0  0  0  0  0  0  0  0
  149.8270  136.0785  154.8941 C   0  0  0  0  0  0  0  0  0  0  0  0
  149.7918  134.9840  155.6388 N   0  0  0  0  0  0  0  0  0  0  0  0
  150.9557  135.0727  156.3847 N   0  0  0  0  0  0  0  0  0  0  0  0
  151.6285  136.1519  156.0933 N   0  0  0  0  0  0  0  0  0  0  0  0
  151.0810  139.3486  156.6436 N   0  0  0  0  0  0  0  0  0  0  0  0
  151.4084  140.2460  157.7443 C   0  0  0  0  0  0  0  0  0  0  0  0
  150.6944  141.6006  157.5913 C   0  0  0  0  0  0  0  0  0  0  0  0
  150.9275  142.5441  158.7872 C   0  0  1  0  0  0  0  0  0  0  0  0
  152.3834  142.5388  159.3099 C   0  0  0  0  0  0  0  0  0  0  0  0
  152.7827  144.0244  159.2511 C   0  0  2  0  0  0  0  0  0  0  0  0
  152.0023  144.8115  160.3200 C   0  0  0  0  0  0  0  0  0  0  0  0
  150.5746  144.8417  159.7425 C   0  0  0  0  0  0  0  0  0  0  0  0
  150.7194  144.0359  158.4372 C   0  0  1  0  0  0  0  0  0  0  0  0
  152.1027  144.4743  157.9649 C   0  0  0  0  0  0  0  0  0  0  0  0
  150.5230  138.5557  154.0962 H   0  0  0  0  0  0  0  0  0  0  0  0
  152.1215  137.8824  153.8166 H   0  0  0  0  0  0  0  0  0  0  0  0
  149.0639  136.3510  154.1796 H   0  0  0  0  0  0  0  0  0  0  0  0
  150.1298  139.0123  156.5965 H   0  0  0  0  0  0  0  0  0  0  0  0
  151.1010  139.7667  158.6741 H   0  0  0  0  0  0  0  0  0  0  0  0
  152.4894  140.3791  157.8076 H   0  0  0  0  0  0  0  0  0  0  0  0
  151.0116  142.0857  156.6674 H   0  0  0  0  0  0  0  0  0  0  0  0
  149.6237  141.4214  157.4849 H   0  0  0  0  0  0  0  0  0  0  0  0
  150.2396  142.2588  159.5846 H   0  0  0  0  0  0  0  0  0  0  0  0
  152.4604  142.1285  160.3173 H   0  0  0  0  0  0  0  0  0  0  0  0
  153.0373  141.9510  158.6639 H   0  0  0  0  0  0  0  0  0  0  0  0
  153.8601  144.1889  159.2853 H   0  0  0  0  0  0  0  0  0  0  0  0
  152.0460  144.3327  161.2990 H   0  0  0  0  0  0  0  0  0  0  0  0
  152.3952  145.8237  160.4237 H   0  0  0  0  0  0  0  0  0  0  0  0
  149.8389  144.4105  160.4224 H   0  0  0  0  0  0  0  0  0  0  0  0
  150.2700  145.8675  159.5308 H   0  0  0  0  0  0  0  0  0  0  0  0
  149.9111  144.2171  157.7279 H   0  0  0  0  0  0  0  0  0  0  0  0
  152.1794  145.5487  157.7885 H   0  0  0  0  0  0  0  0  0  0  0  0
  152.4537  143.9427  157.0793 H   0  0  0  0  0  0  0  0  0  0  0  0
  1  2  2  0  0  0  0
  2  3  1  0  0  0  0
  2  9  1  0  0  0  0
  3  4  1  0  0  0  0
  3 19  1  0  0  0  0
  3 20  1  0  0  0  0
  4  8  1  0  0  0  0
  4  5  1  0  0  0  0
  5  6  2  0  0  0  0
  5 21  1  0  0  0  0
  6  7  1  0  0  0  0
  7  8  2  0  0  0  0
  9 10  1  0  0  0  0
  9 22  1  0  0  0  0
 10 11  1  0  0  0  0
 10 23  1  0  0  0  0
 10 24  1  0  0  0  0
 11 12  1  0  0  0  0
 11 25  1  0  0  0  0
 11 26  1  0  0  0  0
 12 17  1  0  0  0  0
 12 13  1  0  0  0  0
 12 27  1  0  0  0  0
 13 14  1  0  0  0  0
 13 28  1  0  0  0  0
 13 29  1  0  0  0  0
 14 18  1  0  0  0  0
 14 15  1  0  0  0  0
 14 30  1  0  0  0  0
 15 16  1  0  0  0  0
 15 31  1  0  0  0  0
 15 32  1  0  0  0  0
 16 17  1  0  0  0  0
 16 33  1  0  0  0  0
 16 34  1  0  0  0  0
 17 18  1  0  0  0  0
 17 35  1  0  0  0  0
 18 36  1  0  0  0  0
 18 37  1  0  0  0  0
M  END
> <s_m_source_file>
AV-unprocessed.smi

> <i_m_source_file_index>
926

> <i_lp_mmshare_version>
43012

> <i_f3d_flags>
0

> <s_epik_input>
bjFubltjSF1uMVtDSDJdQyg9TylbTkhdW0NIMl1bQ0gyXVtDQEhdKFtDSDJdW0NASF0yMylbQ0BIXShbQ0gyXTMpW0NIMl1bQ0gyXTI=

> <s_epik_cmdline>
J2VwaWtfcHl0aG9uJywgJy1waCcsICc3LjAnLCAnLXRuJywgJzgnLCAnLW1hJywgJzIwMCcsICctbWV0YWxfYmluZGluZycsICctaW1hZScsICc8aW5maWxlLm1hZT4nLCAnLW9tYWUnLCAnPG91dGZpbGUubWFlPic=

> <r_lp_tautomer_probability>
1

> <r_epik_Ionization_Penalty>
4.22645e-07

> <r_epik_Ionization_Penalty_Charging>
0

> <r_epik_Ionization_Penalty_Neutral>
4.22645e-07

> <r_epik_State_Penalty>
-0

> <r_epik_Charging_Adjusted_Penalty>
0

> <i_epik_Tot_Q>
0

> <i_epik_Tot_abs_Q>
0

> <r_epik_Metal_State_Penalty>
-0

> <b_epik_Metal_Only>
0

> <s_lp_Force_Field>
OPLS_2005

> <r_lp_Energy>
50.6471

> <b_lp_Chiralities_Consistent>
1

> <s_lp_Variant>
AV-unprocessed.smi:926-2

> <Gold.Version>
5.8.1

> <Gold.Id.Protein>
6NUR|6NUR_protein|mol2

> <Gold.PLP.Fitness>
47.1313

> <Gold.PLP.PLP>
-39.1228

> <Gold.PLP.part.hbond>
-2.0000

> <Gold.PLP.part.metal>
0.0000

> <Gold.PLP.part.buried>
-6.3771

> <Gold.PLP.part.nonpolar>
-32.2359

> <Gold.PLP.part.repulsive>
0.1421

> <Gold.PLP.ligand.clash>
0.0000

> <Gold.PLP.ligand.torsion>
0.5102

> <Gold.PLP.Chemscore.Hbond>
2.0000

> <Gold.PLP.Chemscore.CHOScore>
1.0000

> <Gold.PLP.Chemscore.Metal>
0.0000

> <Gold.Chemscore.Hbonds>
donor molecule, donor type, donor heavy atom, donor atom, acceptor molecule, acceptor atom, score
      P1  H  7997  8010       L1     1  1.00
      P1  H 10752 10765       L1     8  1.00
      L1  C     5    21       P1  7948  1.00

> <Gold.PLP.Chemscore.Internal.Correction>
0.0289

> <Gold.Rescore>
     Score         DG    S(hbond)    S(metal)    S(lipo)     H(rot)  DE(clash)    DE(int)     intcor
     16.65     -16.97       1.92        0.00      98.93       2.54       0.02       0.30       ----

> <Gold.Chemscore.Fitness>
16.6535

> <Gold.Chemscore.DG>
-16.9713

> <Gold.Chemscore.ZeroCoef>
-5.4800

> <Gold.Chemscore.Hbond>
1.9245

> <Gold.Chemscore.Metal>
0.0000

> <Gold.Chemscore.Lipo>
98.9323

> <Gold.Chemscore.Internal_Hbond>
0.0000

> <Gold.Chemscore.DEClash>
0.0186

> <Gold.Chemscore.DEInternal>
0.2991

> <Gold.Chemscore.Rot>
2.5436

> <Gold.Chemscore.Internal.Correction>
   9.000000E+99

> <Gold.Chemscore.Hbonds>
donor molecule, donor type, donor heavy atom, donor atom, acceptor molecule, acceptor atom, score
      P1  H  7997  8010       L1     1  0.98
      P1  H 10752 10765       L1     8  0.12

> <Gold.Chemscore.Hbond.Weighted>
-6.4279

> <Gold.Chemscore.Metal.Weighted>
-0.0000

> <Gold.Chemscore.Lipo.Weighted>
-11.5751

> <Gold.Chemscore.Internal_Hbond.Weighted>
0.0000

> <Gold.Chemscore.DEClash.Weighted>
0.0186

> <Gold.Chemscore.DEInternal.Weighted>
0.2991

> <Gold.Chemscore.Rot.Weighted>
6.5117

> <Gold.Chemscore.Internal.Correction.Weighted>
   9.000000E+99

> <Gold.Protein.RotatedTorsions>
[ 6907 6896 6895 6894 ] final  173.52 input  -60.11 | X-H torsion
[ 7974 7965 7964 7962 ] final   96.67 input  175.53 | X-H torsion
[ 8008 7997 7996 7995 ] final   81.38 input   59.86 | X-H torsion
[ 10167 10162 10161 10158 ] final -172.41 input  -65.29 | X-H torsion
[ 10718 10713 10712 10709 ] final  -75.81 input   66.30 | X-H torsion
[ 10763 10752 10751 10750 ] final -149.99 input  -60.55 | X-H torsion
[ 11005 11000 10999 10996 ] final  -40.68 input  -57.11 | X-H torsion

> <Gold.Protein.ActiveResidues>
 VAL166  LYS551  ARG553  GLY616  TRP617  ASP618  TYR619  PRO620  LYS621  CYS622 
 ASP623  PHE694  ASN695  SER759  ASP760  ASP761  ALA762  ILE779  LEU786  VAL792 
 PHE793  MET794  SER795  GLU796  ALA797  LYS798  CYS799  TRP800  GLU811  SER814 

> <Gold.Protein.RotatedAtoms>
  151.7670  133.3338  159.3433 H   0  0  0  0  0  0  0  0  0  0  0  0  # atno 6907 bound_to 6896
  150.7476  134.6053  159.6067 H   0  0  0  0  0  0  0  0  0  0  0  0  # atno 6908 bound_to 6896
  152.3367  134.7191  160.0326 H   0  0  0  0  0  0  0  0  0  0  0  0  # atno 6909 bound_to 6896
  145.4357  139.2306  143.3120 H   0  0  0  0  0  0  0  0  0  0  0  0  # atno 7974 bound_to 7965
  155.8963  140.3436  155.5993 H   0  0  0  0  0  0  0  0  0  0  0  0  # atno 8008 bound_to 7997
  155.7552  140.0825  157.2201 H   0  0  0  0  0  0  0  0  0  0  0  0  # atno 8009 bound_to 7997
  154.4038  140.1546  156.2757 H   0  0  0  0  0  0  0  0  0  0  0  0  # atno 8010 bound_to 7997
  139.5746  144.1562  152.1432 H   0  0  0  0  0  0  0  0  0  0  0  0  # atno 10167 bound_to 10162
  156.0195  130.4450  150.3098 H   0  0  0  0  0  0  0  0  0  0  0  0  # atno 10718 bound_to 10713
  154.8145  135.3295  154.7213 H   0  0  0  0  0  0  0  0  0  0  0  0  # atno 10763 bound_to 10752
  153.7857  135.6915  153.4885 H   0  0  0  0  0  0  0  0  0  0  0  0  # atno 10764 bound_to 10752
  153.1950  135.4537  155.0144 H   0  0  0  0  0  0  0  0  0  0  0  0  # atno 10765 bound_to 10752
  141.0192  133.6871  156.2354 H   0  0  0  0  0  0  0  0  0  0  0  0  # atno 11005 bound_to 11000
  146.2583  140.5099  142.8864 LP  0  0  0  0  0  0  0  0  0  0  0  0  # atno 17320 bound_to 7965
  144.8154  140.6458  143.6388 LP  0  0  0  0  0  0  0  0  0  0  0  0  # atno 17321 bound_to 7965
  140.1102  144.5464  150.6930 LP  0  0  0  0  0  0  0  0  0  0  0  0  # atno 17342 bound_to 10162
  140.7029  143.2447  151.4811 LP  0  0  0  0  0  0  0  0  0  0  0  0  # atno 17343 bound_to 10162
  157.1200  131.0244  151.3013 LP  0  0  0  0  0  0  0  0  0  0  0  0  # atno 17370 bound_to 10713
  157.4636  130.7667  149.7258 LP  0  0  0  0  0  0  0  0  0  0  0  0  # atno 17371 bound_to 10713
  140.6602  134.4975  157.5583 LP  0  0  0  0  0  0  0  0  0  0  0  0  # atno 17394 bound_to 11000
  139.9135  134.8294  156.1444 LP  0  0  0  0  0  0  0  0  0  0  0  0  # atno 17395 bound_to 11000

$$$$
