AV-unprocessed.smi:598|AV-procd|sdf|3027|dock8
  -GOLD-   2262023543D 1   1.00000     0.00000
 Structure written by MMmdl.
 43 44  0  0  0  0  0  0  0  0  3 V2000
  146.4698  132.6494  162.4673 C   0  0  0  0  0  0  0  0  0  0  0  0
  147.2852  133.8614  161.9871 C   0  0  2  0  0  0  0  0  0  0  0  0
  146.9906  135.1195  162.8289 C   0  0  0  0  0  0  0  0  0  0  0  0
  147.8856  136.2971  162.4115 C   0  0  0  0  0  0  0  0  0  0  0  0
  147.7745  136.5876  160.9074 C   0  0  0  0  0  0  0  0  0  0  0  0
  148.0674  135.3246  160.0705 C   0  0  2  0  0  0  0  0  0  0  0  0
  147.9555  135.6113  158.6442 N   0  0  0  0  0  0  0  0  0  0  0  0
  148.9534  135.5863  157.7449 C   0  0  0  0  0  0  0  0  0  0  0  0
  150.1157  135.3165  158.0441 O   0  0  0  0  0  0  0  0  0  0  0  0
  148.6128  135.9152  156.2804 C   0  0  0  0  0  0  0  0  0  0  0  0
  149.4538  136.9642  155.6736 N   0  0  0  0  0  0  0  0  0  0  0  0
  148.8183  138.1768  155.3407 C   0  0  0  0  0  0  0  0  0  0  0  0
  149.4799  139.1955  154.7578 C   0  0  0  0  0  0  0  0  0  0  0  0
  148.8078  140.4283  154.4105 N   0  3  0  0  0  0  0  0  0  0  0  0
  149.4735  141.3536  153.9567 O   0  0  0  0  0  0  0  0  0  0  0  0
  147.5949  140.5132  154.5788 O   0  5  0  0  0  0  0  0  0  0  0  0
  150.8910  139.0112  154.4796 C   0  0  0  0  0  0  0  0  0  0  0  0
  151.5041  137.8528  154.7927 C   0  0  0  0  0  0  0  0  0  0  0  0
  150.7803  136.7426  155.4202 C   0  0  0  0  0  0  0  0  0  0  0  0
  151.3300  135.6754  155.6913 O   0  0  0  0  0  0  0  0  0  0  0  0
  147.1413  134.1450  160.4679 C   0  0  2  0  0  0  0  0  0  0  0  0
  145.6752  134.3377  160.0100 C   0  0  0  0  0  0  0  0  0  0  0  0
  145.3976  132.8435  162.4379 H   0  0  0  0  0  0  0  0  0  0  0  0
  146.7238  132.3947  163.4965 H   0  0  0  0  0  0  0  0  0  0  0  0
  146.6710  131.7710  161.8535 H   0  0  0  0  0  0  0  0  0  0  0  0
  148.3319  133.6048  162.1594 H   0  0  0  0  0  0  0  0  0  0  0  0
  145.9417  135.4014  162.7316 H   0  0  0  0  0  0  0  0  0  0  0  0
  147.1499  134.9046  163.8860 H   0  0  0  0  0  0  0  0  0  0  0  0
  147.6203  137.1869  162.9829 H   0  0  0  0  0  0  0  0  0  0  0  0
  148.9229  136.0696  162.6601 H   0  0  0  0  0  0  0  0  0  0  0  0
  146.7784  136.9684  160.6802 H   0  0  0  0  0  0  0  0  0  0  0  0
  148.4717  137.3835  160.6431 H   0  0  0  0  0  0  0  0  0  0  0  0
  149.0951  135.0160  160.2731 H   0  0  0  0  0  0  0  0  0  0  0  0
  147.0326  135.8457  158.3088 H   0  0  0  0  0  0  0  0  0  0  0  0
  148.6919  134.9938  155.7015 H   0  0  0  0  0  0  0  0  0  0  0  0
  147.5580  136.1897  156.2240 H   0  0  0  0  0  0  0  0  0  0  0  0
  147.7650  138.2099  155.5803 H   0  0  0  0  0  0  0  0  0  0  0  0
  151.4664  139.8004  154.0186 H   0  0  0  0  0  0  0  0  0  0  0  0
  152.5560  137.7368  154.5762 H   0  0  0  0  0  0  0  0  0  0  0  0
  147.5095  133.2625  159.9421 H   0  0  0  0  0  0  0  0  0  0  0  0
  145.2050  135.1954  160.4894 H   0  0  0  0  0  0  0  0  0  0  0  0
  145.0682  133.4615  160.2348 H   0  0  0  0  0  0  0  0  0  0  0  0
  145.6046  134.4863  158.9323 H   0  0  0  0  0  0  0  0  0  0  0  0
  1  2  1  0  0  0  0
  1 23  1  0  0  0  0
  1 24  1  0  0  0  0
  1 25  1  0  0  0  0
  2 21  1  0  0  0  0
  2  3  1  0  0  0  0
  2 26  1  0  0  0  0
  3  4  1  0  0  0  0
  3 27  1  0  0  0  0
  3 28  1  0  0  0  0
  4  5  1  0  0  0  0
  4 29  1  0  0  0  0
  4 30  1  0  0  0  0
  5  6  1  0  0  0  0
  5 31  1  0  0  0  0
  5 32  1  0  0  0  0
  6  7  1  0  0  0  0
  6 21  1  0  0  0  0
  6 33  1  0  0  0  0
  7  8  1  0  0  0  0
  7 34  1  0  0  0  0
  8  9  2  0  0  0  0
  8 10  1  0  0  0  0
 10 11  1  0  0  0  0
 10 35  1  0  0  0  0
 10 36  1  0  0  0  0
 11 19  1  0  0  0  0
 11 12  1  0  0  0  0
 12 13  2  0  0  0  0
 12 37  1  0  0  0  0
 13 14  1  0  0  0  0
 13 17  1  0  0  0  0
 14 15  2  0  0  0  0
 14 16  1  0  0  0  0
 17 18  2  0  0  0  0
 17 38  1  0  0  0  0
 18 19  1  0  0  0  0
 18 39  1  0  0  0  0
 19 20  2  0  0  0  0
 21 22  1  0  0  0  0
 21 40  1  0  0  0  0
 22 41  1  0  0  0  0
 22 42  1  0  0  0  0
 22 43  1  0  0  0  0
M  CHG  1  14   1
M  CHG  1  16  -1
M  END
> <s_m_source_file>
AV-unprocessed.smi

> <i_m_source_file_index>
598

> <i_lp_mmshare_version>
43012

> <i_f3d_flags>
0

> <s_epik_input>
W0NIM11bQ0BASF0xW0NIMl1bQ0gyXVtDSDJdW0NASF0oW0NASF0xW0NIM10pW05IXUMoPU8pW0NIMl1uMltjSF1jKFtOK10oPU8pW08tXSlbY0hdW2NIXWMyPU8=

> <s_epik_cmdline>
J2VwaWtfcHl0aG9uJywgJy1waCcsICc3LjAnLCAnLXRuJywgJzgnLCAnLW1hJywgJzIwMCcsICctbWV0YWxfYmluZGluZycsICctaW1hZScsICc8aW5maWxlLm1hZT4nLCAnLW9tYWUnLCAnPG91dGZpbGUubWFlPic=

> <r_lp_tautomer_probability>
1

> <r_epik_Ionization_Penalty>
1.91291e-08

> <r_epik_Ionization_Penalty_Charging>
8.21931e-11

> <r_epik_Ionization_Penalty_Neutral>
1.90469e-08

> <r_epik_State_Penalty>
-0

> <r_epik_Charging_Adjusted_Penalty>
8.21931e-11

> <i_epik_Tot_Q>
0

> <i_epik_Tot_abs_Q>
2

> <r_epik_Metal_State_Penalty>
-0

> <b_epik_Metal_Only>
0

> <s_lp_Force_Field>
OPLS_2005

> <r_lp_Energy>
25.0261

> <b_lp_Chiralities_Consistent>
1

> <s_lp_Variant>
AV-unprocessed.smi:598-7

> <Gold.Version>
5.8.1

> <Gold.Id.Protein>
6NUR|6NUR_protein|mol2

> <Gold.PLP.Fitness>
43.1065

> <Gold.PLP.PLP>
-35.0166

> <Gold.PLP.part.hbond>
-4.0000

> <Gold.PLP.part.metal>
0.0000

> <Gold.PLP.part.buried>
-3.4122

> <Gold.PLP.part.nonpolar>
-28.0211

> <Gold.PLP.part.repulsive>
1.0037

> <Gold.PLP.ligand.clash>
0.0000

> <Gold.PLP.ligand.torsion>
0.1401

> <Gold.PLP.Chemscore.Hbond>
2.7840

> <Gold.PLP.Chemscore.CHOScore>
0.0000

> <Gold.PLP.Chemscore.Metal>
0.0000

> <Gold.Chemscore.Hbonds>
donor molecule, donor type, donor heavy atom, donor atom, acceptor molecule, acceptor atom, score
      P1  H  6896  6909       L1     9  0.83
      P1  H  7989  7998       L1    15  0.14
      P1  H  8011  8017       L1    15  0.75
      P1  H 10752 10765       L1    20  1.00

> <Gold.PLP.Chemscore.Internal.Correction>
0.0183

> <Gold.Rescore>
     Score         DG    S(hbond)    S(metal)    S(lipo)     H(rot)  DE(clash)    DE(int)     intcor
     17.23     -19.22       2.56        0.00      78.03       1.54       0.38       1.61       ----

> <Gold.Chemscore.Fitness>
17.2278

> <Gold.Chemscore.DG>
-19.2164

> <Gold.Chemscore.ZeroCoef>
-5.4800

> <Gold.Chemscore.Hbond>
2.5592

> <Gold.Chemscore.Metal>
0.0000

> <Gold.Chemscore.Lipo>
78.0279

> <Gold.Chemscore.Internal_Hbond>
0.0000

> <Gold.Chemscore.DEClash>
0.3762

> <Gold.Chemscore.DEInternal>
1.6123

> <Gold.Chemscore.Rot>
1.5393

> <Gold.Chemscore.Internal.Correction>
   9.000000E+99

> <Gold.Chemscore.Hbonds>
donor molecule, donor type, donor heavy atom, donor atom, acceptor molecule, acceptor atom, score
      P1  H  6896  6909       L1     9  0.81
      P1  H  7989  7998       L1    15  0.14
      P1  H  8011  8017       L1    15  0.74
      P1  H 10752 10765       L1    20  0.85

> <Gold.Chemscore.Hbond.Weighted>
-8.5478

> <Gold.Chemscore.Metal.Weighted>
-0.0000

> <Gold.Chemscore.Lipo.Weighted>
-9.1293

> <Gold.Chemscore.Internal_Hbond.Weighted>
0.0000

> <Gold.Chemscore.DEClash.Weighted>
0.3762

> <Gold.Chemscore.DEInternal.Weighted>
1.6123

> <Gold.Chemscore.Rot.Weighted>
3.9407

> <Gold.Chemscore.Internal.Correction.Weighted>
   9.000000E+99

> <Gold.Protein.RotatedTorsions>
[ 6907 6896 6895 6894 ] final   44.41 input  -60.11 | X-H torsion
[ 7974 7965 7964 7962 ] final -129.48 input  175.53 | X-H torsion
[ 8008 7997 7996 7995 ] final   30.95 input   59.86 | X-H torsion
[ 10167 10162 10161 10158 ] final  -36.61 input  -65.29 | X-H torsion
[ 10718 10713 10712 10709 ] final -176.83 input   66.30 | X-H torsion
[ 10763 10752 10751 10750 ] final -161.43 input  -60.55 | X-H torsion
[ 11005 11000 10999 10996 ] final  106.84 input  -57.11 | X-H torsion

> <Gold.Protein.ActiveResidues>
 VAL166  LYS551  ARG553  GLY616  TRP617  ASP618  TYR619  PRO620  LYS621  CYS622 
 ASP623  PHE694  ASN695  SER759  ASP760  ASP761  ALA762  ILE779  LEU786  VAL792 
 PHE793  MET794  SER795  GLU796  ALA797  LYS798  CYS799  TRP800  GLU811  SER814 

> <Gold.Protein.RotatedAtoms>
  152.2322  134.8311  160.0471 H   0  0  0  0  0  0  0  0  0  0  0  0  # atno 6907 bound_to 6896
  151.9055  133.3543  159.3854 H   0  0  0  0  0  0  0  0  0  0  0  0  # atno 6908 bound_to 6896
  150.7029  134.4710  159.5469 H   0  0  0  0  0  0  0  0  0  0  0  0  # atno 6909 bound_to 6896
  144.9568  140.7404  143.4754 H   0  0  0  0  0  0  0  0  0  0  0  0  # atno 7974 bound_to 7965
  155.0986  140.3227  155.4553 H   0  0  0  0  0  0  0  0  0  0  0  0  # atno 8008 bound_to 7997
  156.2723  140.2065  156.6059 H   0  0  0  0  0  0  0  0  0  0  0  0  # atno 8009 bound_to 7997
  154.6847  140.0522  157.0289 H   0  0  0  0  0  0  0  0  0  0  0  0  # atno 8010 bound_to 7997
  140.7138  143.3397  151.2385 H   0  0  0  0  0  0  0  0  0  0  0  0  # atno 10167 bound_to 10162
  156.8205  130.9618  151.3112 H   0  0  0  0  0  0  0  0  0  0  0  0  # atno 10718 bound_to 10713
  154.7304  135.3045  154.8901 H   0  0  0  0  0  0  0  0  0  0  0  0  # atno 10763 bound_to 10752
  153.9746  135.6737  153.4752 H   0  0  0  0  0  0  0  0  0  0  0  0  # atno 10764 bound_to 10752
  153.0913  135.4958  154.8616 H   0  0  0  0  0  0  0  0  0  0  0  0  # atno 10765 bound_to 10752
  139.8819  134.9382  156.5729 H   0  0  0  0  0  0  0  0  0  0  0  0  # atno 11005 bound_to 11000
  145.2760  139.1936  143.4816 LP  0  0  0  0  0  0  0  0  0  0  0  0  # atno 17320 bound_to 7965
  146.3340  140.2714  142.8606 LP  0  0  0  0  0  0  0  0  0  0  0  0  # atno 17321 bound_to 7965
  139.6901  143.9706  152.2855 LP  0  0  0  0  0  0  0  0  0  0  0  0  # atno 17342 bound_to 10162
  139.9365  144.6708  150.8309 LP  0  0  0  0  0  0  0  0  0  0  0  0  # atno 17343 bound_to 10162
  157.6459  130.8844  149.9538 LP  0  0  0  0  0  0  0  0  0  0  0  0  # atno 17370 bound_to 10713
  156.0992  130.3657  150.0250 LP  0  0  0  0  0  0  0  0  0  0  0  0  # atno 17371 bound_to 10713
  140.8085  133.8448  155.8789 LP  0  0  0  0  0  0  0  0  0  0  0  0  # atno 17394 bound_to 11000
  140.9528  134.1757  157.4715 LP  0  0  0  0  0  0  0  0  0  0  0  0  # atno 17395 bound_to 11000

$$$$
