AV-unprocessed.smi:3330|AV-procd|sdf|12802|dock10
  -GOLD-   2272019163D 1   1.00000     0.00000
 Structure written by MMmdl.
 39 40  0  0  0  0  0  0  0  0  2 V2000
  145.9281  134.4141  154.0211 C   0  0  0  0  0  0  0  0  0  0  0  0
  145.6795  135.8391  153.4815 C   0  0  1  0  0  0  0  0  0  0  0  0
  146.9433  136.6120  153.4686 N   0  3  0  0  0  0  0  0  0  0  0  0
  146.7970  138.0734  153.3093 C   0  0  0  0  0  0  0  0  0  0  0  0
  147.9296  138.8141  154.0367 C   0  0  0  0  0  0  0  0  0  0  0  0
  147.5716  140.2095  154.3045 N   0  0  0  0  0  0  0  0  0  0  0  0
  146.3675  140.6084  154.7342 C   0  0  0  0  0  0  0  0  0  0  0  0
  145.3870  139.9035  154.9702 O   0  0  0  0  0  0  0  0  0  0  0  0
  146.3859  142.1142  154.8827 C   0  0  0  0  0  0  0  0  0  0  0  0
  147.7432  142.3750  154.4533 N   0  0  0  0  0  0  0  0  0  0  0  0
  148.3993  141.2548  154.1240 C   0  0  0  0  0  0  0  0  0  0  0  0
  149.5600  141.2043  153.7203 O   0  0  0  0  0  0  0  0  0  0  0  0
  145.0532  135.8440  152.0609 C   0  0  2  0  0  0  0  0  0  0  0  0
  143.5326  136.0956  152.0853 C   0  0  0  0  0  0  0  0  0  0  0  0
  145.3450  134.6214  151.3224 N   0  0  0  0  0  0  0  0  0  0  0  0
  144.4688  133.8153  150.6247 C   0  0  0  0  0  0  0  0  0  0  0  0
  145.1930  132.7861  150.0953 C   0  0  0  0  0  0  0  0  0  0  0  0
  146.5218  133.0489  150.5301 C   0  0  0  0  0  0  0  0  0  0  0  0
  146.6103  134.1474  151.2626 N   0  0  0  0  0  0  0  0  0  0  0  0
  145.0030  133.8429  154.0990 H   0  0  0  0  0  0  0  0  0  0  0  0
  146.3634  134.4274  155.0198 H   0  0  0  0  0  0  0  0  0  0  0  0
  146.6054  133.8586  153.3718 H   0  0  0  0  0  0  0  0  0  0  0  0
  144.9831  136.3412  154.1553 H   0  0  0  0  0  0  0  0  0  0  0  0
  147.4554  136.4174  154.3171 H   0  0  0  0  0  0  0  0  0  0  0  0
  146.8112  138.3231  152.2475 H   0  0  0  0  0  0  0  0  0  0  0  0
  145.8336  138.3948  153.7048 H   0  0  0  0  0  0  0  0  0  0  0  0
  148.1649  138.3064  154.9739 H   0  0  0  0  0  0  0  0  0  0  0  0
  148.8443  138.7736  153.4422 H   0  0  0  0  0  0  0  0  0  0  0  0
  145.6567  142.5937  154.2291 H   0  0  0  0  0  0  0  0  0  0  0  0
  146.2255  142.4193  155.9172 H   0  0  0  0  0  0  0  0  0  0  0  0
  148.1369  143.3041  154.4091 H   0  0  0  0  0  0  0  0  0  0  0  0
  145.5100  136.6600  151.4982 H   0  0  0  0  0  0  0  0  0  0  0  0
  143.2917  137.0658  152.5198 H   0  0  0  0  0  0  0  0  0  0  0  0
  143.0093  135.3349  152.6656 H   0  0  0  0  0  0  0  0  0  0  0  0
  143.1197  136.0835  151.0761 H   0  0  0  0  0  0  0  0  0  0  0  0
  143.4138  134.0384  150.5621 H   0  0  0  0  0  0  0  0  0  0  0  0
  144.8289  131.9689  149.4906 H   0  0  0  0  0  0  0  0  0  0  0  0
  147.4183  132.4786  150.3361 H   0  0  0  0  0  0  0  0  0  0  0  0
  147.4888  136.2830  152.6847 H   0  0  0  0  0  0  0  0  0  0  0  0
  1  2  1  0  0  0  0
  1 20  1  0  0  0  0
  1 21  1  0  0  0  0
  1 22  1  0  0  0  0
  2  3  1  0  0  0  0
  2 13  1  0  0  0  0
  2 23  1  0  0  0  0
  3  4  1  0  0  0  0
  3 24  1  0  0  0  0
  3 39  1  0  0  0  0
  4  5  1  0  0  0  0
  4 25  1  0  0  0  0
  4 26  1  0  0  0  0
  5  6  1  0  0  0  0
  5 27  1  0  0  0  0
  5 28  1  0  0  0  0
  6 11  1  0  0  0  0
  6  7  1  0  0  0  0
  7  8  2  0  0  0  0
  7  9  1  0  0  0  0
  9 10  1  0  0  0  0
  9 29  1  0  0  0  0
  9 30  1  0  0  0  0
 10 11  1  0  0  0  0
 10 31  1  0  0  0  0
 11 12  2  0  0  0  0
 13 14  1  0  0  0  0
 13 15  1  0  0  0  0
 13 32  1  0  0  0  0
 14 33  1  0  0  0  0
 14 34  1  0  0  0  0
 14 35  1  0  0  0  0
 15 19  1  0  0  0  0
 15 16  1  0  0  0  0
 16 17  2  0  0  0  0
 16 36  1  0  0  0  0
 17 18  1  0  0  0  0
 17 37  1  0  0  0  0
 18 19  2  0  0  0  0
 18 38  1  0  0  0  0
M  CHG  1   3   1
M  END
> <s_m_source_file>
AV-unprocessed.smi

> <i_m_source_file_index>
3330

> <i_lp_mmshare_version>
43012

> <i_f3d_flags>
0

> <s_epik_input>
bjFbY0hdW2NIXVtjSF1uMVtDQEBIXShbQ0gzXSlbQ0BIXShbQ0gzXSlbTkhdW0NIMl1bQ0gyXU4yQyg9TylbQ0gyXVtOSF1DMj1P

> <s_epik_cmdline>
J2VwaWtfcHl0aG9uJywgJy1waCcsICc3LjAnLCAnLXRuJywgJzgnLCAnLW1hJywgJzIwMCcsICctbWV0YWxfYmluZGluZycsICctaW1hZScsICc8aW5maWxlLm1hZT4nLCAnLW9tYWUnLCAnPG91dGZpbGUubWFlPic=

> <r_lp_tautomer_probability>
1

> <r_epik_Ionization_Penalty>
0.0124905

> <r_epik_Ionization_Penalty_Charging>
0.0123685

> <r_epik_Ionization_Penalty_Neutral>
0.000122059

> <r_epik_State_Penalty>
0.00957041

> <r_epik_Charging_Adjusted_Penalty>
0.0219389

> <i_epik_Tot_Q>
1

> <i_epik_Tot_abs_Q>
1

> <r_epik_Metal_State_Penalty>
0.0858301

> <b_epik_Metal_Only>
0

> <s_lp_Force_Field>
OPLS_2005

> <r_lp_Energy>
24.6959

> <b_lp_Chiralities_Consistent>
1

> <s_lp_Variant>
AV-unprocessed.smi:3330-2

> <Gold.Version>
5.8.1

> <Gold.Id.Protein>
6NUR|6NUR_protein|mol2

> <Gold.PLP.Fitness>
41.5910

> <Gold.PLP.PLP>
-26.8096

> <Gold.PLP.part.hbond>
-4.0000

> <Gold.PLP.part.metal>
0.0000

> <Gold.PLP.part.buried>
-5.1671

> <Gold.PLP.part.nonpolar>
-20.0143

> <Gold.PLP.part.repulsive>
2.2220

> <Gold.PLP.ligand.clash>
0.0000

> <Gold.PLP.ligand.torsion>
1.8621

> <Gold.PLP.Chemscore.Hbond>
4.1440

> <Gold.PLP.Chemscore.CHOScore>
1.9995

> <Gold.PLP.Chemscore.Metal>
0.0000

> <Gold.Chemscore.Hbonds>
donor molecule, donor type, donor heavy atom, donor atom, acceptor molecule, acceptor atom, score
      L1  H     3    39       P1  7948  2.00
      L1  H    10    31       P1  8028  0.82
      P1  H  7989  7998       L1    12  0.23
      P1  H  8011  8017       L1    12  0.90
      L1  C    16    36       P1 10186  0.74
      L1  C    18    38       P1 10747  1.00

> <Gold.PLP.Chemscore.Internal.Correction>
0.0753

> <Gold.Rescore>
     Score         DG    S(hbond)    S(metal)    S(lipo)     H(rot)  DE(clash)    DE(int)     intcor
      9.60     -14.15       2.93        0.00      48.89       2.67       1.56       3.00       ----

> <Gold.Chemscore.Fitness>
9.5987

> <Gold.Chemscore.DG>
-14.1518

> <Gold.Chemscore.ZeroCoef>
-5.4800

> <Gold.Chemscore.Hbond>
2.9275

> <Gold.Chemscore.Metal>
0.0000

> <Gold.Chemscore.Lipo>
48.8930

> <Gold.Chemscore.Internal_Hbond>
0.0000

> <Gold.Chemscore.DEClash>
1.5578

> <Gold.Chemscore.DEInternal>
2.9953

> <Gold.Chemscore.Rot>
2.6666

> <Gold.Chemscore.Internal.Correction>
   9.000000E+99

> <Gold.Chemscore.Hbonds>
donor molecule, donor type, donor heavy atom, donor atom, acceptor molecule, acceptor atom, score
      L1  H     3    39       P1  7948  0.94
      L1  H    10    31       P1  8028  0.75
      P1  H  7989  7998       L1    12  0.23
      P1  H  8011  8017       L1    12  0.66

> <Gold.Chemscore.Hbond.Weighted>
-9.7778

> <Gold.Chemscore.Metal.Weighted>
-0.0000

> <Gold.Chemscore.Lipo.Weighted>
-5.7205

> <Gold.Chemscore.Internal_Hbond.Weighted>
0.0000

> <Gold.Chemscore.DEClash.Weighted>
1.5578

> <Gold.Chemscore.DEInternal.Weighted>
2.9953

> <Gold.Chemscore.Rot.Weighted>
6.8265

> <Gold.Chemscore.Internal.Correction.Weighted>
   9.000000E+99

> <Gold.Protein.RotatedTorsions>
[ 6907 6896 6895 6894 ] final   65.26 input  -60.11 | X-H torsion
[ 7974 7965 7964 7962 ] final  168.28 input  175.53 | X-H torsion
[ 8008 7997 7996 7995 ] final   28.38 input   59.86 | X-H torsion
[ 10167 10162 10161 10158 ] final  -87.41 input  -65.29 | X-H torsion
[ 10718 10713 10712 10709 ] final  107.26 input   66.30 | X-H torsion
[ 10763 10752 10751 10750 ] final -158.08 input  -60.55 | X-H torsion
[ 11005 11000 10999 10996 ] final -169.95 input  -57.11 | X-H torsion

> <Gold.Protein.ActiveResidues>
 VAL166  LYS551  ARG553  GLY616  TRP617  ASP618  TYR619  PRO620  LYS621  CYS622 
 ASP623  PHE694  ASN695  SER759  ASP760  ASP761  ALA762  ILE779  LEU786  VAL792 
 PHE793  MET794  SER795  GLU796  ALA797  LYS798  CYS799  TRP800  GLU811  SER814 

> <Gold.Protein.RotatedAtoms>
  152.4394  134.5621  159.9896 H   0  0  0  0  0  0  0  0  0  0  0  0  # atno 6907 bound_to 6896
  151.5722  133.3382  159.3000 H   0  0  0  0  0  0  0  0  0  0  0  0  # atno 6908 bound_to 6896
  150.8298  134.7580  159.6908 H   0  0  0  0  0  0  0  0  0  0  0  0  # atno 6909 bound_to 6896
  144.7394  139.8884  143.6401 H   0  0  0  0  0  0  0  0  0  0  0  0  # atno 7974 bound_to 7965
  155.0577  140.3187  155.4671 H   0  0  0  0  0  0  0  0  0  0  0  0  # atno 8008 bound_to 7997
  156.2820  140.2134  156.5648 H   0  0  0  0  0  0  0  0  0  0  0  0  # atno 8009 bound_to 7997
  154.7158  140.0494  157.0580 H   0  0  0  0  0  0  0  0  0  0  0  0  # atno 8010 bound_to 7997
  140.3847  143.2732  151.9340 H   0  0  0  0  0  0  0  0  0  0  0  0  # atno 10167 bound_to 10162
  157.6635  131.0869  150.6130 H   0  0  0  0  0  0  0  0  0  0  0  0  # atno 10718 bound_to 10713
  154.7585  135.3111  154.8423 H   0  0  0  0  0  0  0  0  0  0  0  0  # atno 10763 bound_to 10752
  153.9191  135.6797  153.4752 H   0  0  0  0  0  0  0  0  0  0  0  0  # atno 10764 bound_to 10752
  153.1184  135.4834  154.9085 H   0  0  0  0  0  0  0  0  0  0  0  0  # atno 10765 bound_to 10752
  140.5250  134.5672  157.5059 H   0  0  0  0  0  0  0  0  0  0  0  0  # atno 11005 bound_to 11000
  146.1160  139.4171  143.0258 LP  0  0  0  0  0  0  0  0  0  0  0  0  # atno 17320 bound_to 7965
  145.7374  141.0020  143.1319 LP  0  0  0  0  0  0  0  0  0  0  0  0  # atno 17321 bound_to 7965
  139.4793  144.5785  151.7972 LP  0  0  0  0  0  0  0  0  0  0  0  0  # atno 17342 bound_to 10162
  140.4901  144.1322  150.5948 LP  0  0  0  0  0  0  0  0  0  0  0  0  # atno 17343 bound_to 10162
  156.6431  130.4464  149.5745 LP  0  0  0  0  0  0  0  0  0  0  0  0  # atno 17370 bound_to 10713
  156.2194  130.6728  151.1352 LP  0  0  0  0  0  0  0  0  0  0  0  0  # atno 17371 bound_to 10713
  139.9585  134.7493  156.0289 LP  0  0  0  0  0  0  0  0  0  0  0  0  # atno 17394 bound_to 11000
  141.1313  133.6586  156.3472 LP  0  0  0  0  0  0  0  0  0  0  0  0  # atno 17395 bound_to 11000

$$$$
