AV-unprocessed.smi:221|AV-procd|sdf|1697|dock6
  -GOLD-   2262020143D 1   1.00000     0.00000
 Structure written by MMmdl.
 50 53  0  0  0  0  0  0  0  0  1 V2000
  148.2485  132.2754  152.8188 N   0  0  0  0  0  0  0  0  0  0  0  0
  147.0461  132.8455  152.9504 C   0  0  0  0  0  0  0  0  0  0  0  0
  146.6565  133.2808  154.0316 O   0  0  0  0  0  0  0  0  0  0  0  0
  146.1327  132.9501  151.7129 C   0  0  1  0  0  0  0  0  0  0  0  0
  145.8593  131.5604  151.1143 C   0  0  0  0  0  0  0  0  0  0  0  0
  144.5296  131.7301  150.3878 C   0  0  2  0  0  0  0  0  0  0  0  0
  144.7423  132.2837  149.1929 F   0  0  0  0  0  0  0  0  0  0  0  0
  143.7689  132.7136  151.2760 C   0  0  0  0  0  0  0  0  0  0  0  0
  144.7898  133.4871  151.9757 N   0  0  0  0  0  0  0  0  0  0  0  0
  144.5655  134.8098  152.2045 C   0  0  0  0  0  0  0  0  0  0  0  0
  145.6148  135.6740  152.2271 N   0  0  0  0  0  0  0  0  0  0  0  0
  145.4189  136.9758  152.4536 C   0  0  0  0  0  0  0  0  0  0  0  0
  144.2737  137.6185  152.6871 N   0  0  0  0  0  0  0  0  0  0  0  0
  143.2162  136.7584  152.6784 C   0  0  0  0  0  0  0  0  0  0  0  0
  143.2704  135.3542  152.4465 C   0  0  0  0  0  0  0  0  0  0  0  0
  141.9901  134.8167  152.5279 N   0  0  0  0  0  0  0  0  0  0  0  0
  141.2251  135.8429  152.7808 C   0  0  0  0  0  0  0  0  0  0  0  0
  141.8812  137.0468  152.8974 N   0  0  0  0  0  0  0  0  0  0  0  0
  141.2869  138.3409  153.1828 C   0  0  0  0  0  0  0  0  0  0  0  0
  139.7411  138.3328  153.0581 C   0  0  2  0  0  0  0  0  0  0  0  0
  139.1744  139.7688  152.9668 C   0  0  0  0  0  0  0  0  0  0  0  0
  138.9870  140.1624  151.6234 O   0  0  0  0  0  0  0  0  0  0  0  0
  139.0395  137.5032  154.1686 C   0  0  1  0  0  0  0  0  0  0  0  0
  139.3121  137.9510  155.6049 C   0  0  0  0  0  0  0  0  0  0  0  0
  137.9462  137.8641  156.2908 C   0  0  0  0  0  0  0  0  0  0  0  0
  137.1561  137.0633  155.4252 O   0  0  0  0  0  0  0  0  0  0  0  0
  137.5109  137.4215  154.1008 C   0  0  0  0  0  0  0  0  0  0  0  0
  146.6267  133.5638  150.9574 H   0  0  0  0  0  0  0  0  0  0  0  0
  143.9979  130.7921  150.2265 H   0  0  0  0  0  0  0  0  0  0  0  0
  148.8564  132.1958  153.6208 H   0  0  0  0  0  0  0  0  0  0  0  0
  148.5417  131.9233  151.9191 H   0  0  0  0  0  0  0  0  0  0  0  0
  146.6582  131.2214  150.4538 H   0  0  0  0  0  0  0  0  0  0  0  0
  145.7430  130.8142  151.9027 H   0  0  0  0  0  0  0  0  0  0  0  0
  143.0902  133.3309  150.6850 H   0  0  0  0  0  0  0  0  0  0  0  0
  143.1772  132.1765  152.0180 H   0  0  0  0  0  0  0  0  0  0  0  0
  146.3075  137.5896  152.4487 H   0  0  0  0  0  0  0  0  0  0  0  0
  140.1557  135.7470  152.9007 H   0  0  0  0  0  0  0  0  0  0  0  0
  141.6035  138.6313  154.1837 H   0  0  0  0  0  0  0  0  0  0  0  0
  141.7236  139.0694  152.4997 H   0  0  0  0  0  0  0  0  0  0  0  0
  139.5027  137.8411  152.1136 H   0  0  0  0  0  0  0  0  0  0  0  0
  138.2289  139.8494  153.5034 H   0  0  0  0  0  0  0  0  0  0  0  0
  139.8572  140.4893  153.4159 H   0  0  0  0  0  0  0  0  0  0  0  0
  139.8304  140.3615  151.2469 H   0  0  0  0  0  0  0  0  0  0  0  0
  139.4054  136.4772  154.1105 H   0  0  0  0  0  0  0  0  0  0  0  0
  140.0268  137.2761  156.0772 H   0  0  0  0  0  0  0  0  0  0  0  0
  139.7233  138.9567  155.6821 H   0  0  0  0  0  0  0  0  0  0  0  0
  138.0041  137.4330  157.2904 H   0  0  0  0  0  0  0  0  0  0  0  0
  137.4952  138.8541  156.3722 H   0  0  0  0  0  0  0  0  0  0  0  0
  137.0491  138.3795  153.8633 H   0  0  0  0  0  0  0  0  0  0  0  0
  137.1602  136.6830  153.3796 H   0  0  0  0  0  0  0  0  0  0  0  0
  1  2  1  0  0  0  0
  1 30  1  0  0  0  0
  1 31  1  0  0  0  0
  2  3  2  0  0  0  0
  2  4  1  0  0  0  0
  4 28  1  0  0  0  0
  4  9  1  0  0  0  0
  4  5  1  0  0  0  0
  5  6  1  0  0  0  0
  5 32  1  0  0  0  0
  5 33  1  0  0  0  0
  6 29  1  0  0  0  0
  6  7  1  0  0  0  0
  6  8  1  0  0  0  0
  8  9  1  0  0  0  0
  8 34  1  0  0  0  0
  8 35  1  0  0  0  0
  9 10  1  0  0  0  0
 10 15  1  0  0  0  0
 10 11  2  0  0  0  0
 11 12  1  0  0  0  0
 12 13  2  0  0  0  0
 12 36  1  0  0  0  0
 13 14  1  0  0  0  0
 14 18  1  0  0  0  0
 14 15  2  0  0  0  0
 15 16  1  0  0  0  0
 16 17  2  0  0  0  0
 17 18  1  0  0  0  0
 17 37  1  0  0  0  0
 18 19  1  0  0  0  0
 19 20  1  0  0  0  0
 19 38  1  0  0  0  0
 19 39  1  0  0  0  0
 20 21  1  0  0  0  0
 20 23  1  0  0  0  0
 20 40  1  0  0  0  0
 21 22  1  0  0  0  0
 21 41  1  0  0  0  0
 21 42  1  0  0  0  0
 22 43  1  0  0  0  0
 23 27  1  0  0  0  0
 23 24  1  0  0  0  0
 23 44  1  0  0  0  0
 24 25  1  0  0  0  0
 24 45  1  0  0  0  0
 24 46  1  0  0  0  0
 25 26  1  0  0  0  0
 25 47  1  0  0  0  0
 25 48  1  0  0  0  0
 26 27  1  0  0  0  0
 27 49  1  0  0  0  0
 27 50  1  0  0  0  0
M  END
> <s_m_source_file>
AV-unprocessed.smi

> <i_m_source_file_index>
221

> <i_lp_mmshare_version>
43012

> <i_f3d_flags>
0

> <s_epik_input>
W05IMl1DKD1PKVtDQEBIXTFbQ0gyXVtDQEBIXShGKVtDSDJdTjFjKG5bY0hdbjIpYyhjMjMpbltjSF1uM1tDSDJdW0NASF0oW0NIMl1bT0hdKVtDQEBIXTRbQ0gyXVtDSDJdT1tDSDJdNA==

> <s_epik_cmdline>
J2VwaWtfcHl0aG9uJywgJy1waCcsICc3LjAnLCAnLXRuJywgJzgnLCAnLW1hJywgJzIwMCcsICctbWV0YWxfYmluZGluZycsICctaW1hZScsICc8aW5maWxlLm1hZT4nLCAnLW9tYWUnLCAnPG91dGZpbGUubWFlPic=

> <r_lp_tautomer_probability>
1

> <r_epik_Ionization_Penalty>
0.000818822

> <r_epik_Ionization_Penalty_Charging>
0

> <r_epik_Ionization_Penalty_Neutral>
0.000818822

> <r_epik_State_Penalty>
0.000440551

> <r_epik_Charging_Adjusted_Penalty>
0.000440551

> <i_epik_Tot_Q>
0

> <i_epik_Tot_abs_Q>
0

> <r_epik_Metal_State_Penalty>
-0

> <b_epik_Metal_Only>
0

> <s_lp_Force_Field>
OPLS_2005

> <r_lp_Energy>
49.9883

> <b_lp_Chiralities_Consistent>
1

> <s_lp_Variant>
AV-unprocessed.smi:221-12

> <Gold.Version>
5.8.1

> <Gold.Id.Protein>
6NUR|6NUR_protein|mol2

> <Gold.PLP.Fitness>
48.5042

> <Gold.PLP.PLP>
-44.2205

> <Gold.PLP.part.hbond>
-1.8079

> <Gold.PLP.part.metal>
0.0000

> <Gold.PLP.part.buried>
-10.7590

> <Gold.PLP.part.nonpolar>
-34.4906

> <Gold.PLP.part.repulsive>
2.0078

> <Gold.PLP.ligand.clash>
0.0000

> <Gold.PLP.ligand.torsion>
1.0334

> <Gold.PLP.Chemscore.Hbond>
2.0000

> <Gold.PLP.Chemscore.CHOScore>
0.0000

> <Gold.PLP.Chemscore.Metal>
0.0000

> <Gold.Chemscore.Hbonds>
donor molecule, donor type, donor heavy atom, donor atom, acceptor molecule, acceptor atom, score
      L1  H     1    31       P1 10747  1.00
      L1  C    17    37       P1 10187  0.40

> <Gold.PLP.Chemscore.Internal.Correction>
0.3504

> <Gold.Rescore>
     Score         DG    S(hbond)    S(metal)    S(lipo)     H(rot)  DE(clash)    DE(int)     intcor
     10.31     -11.19       1.99        0.00      64.33       3.31       0.05       0.83       ----

> <Gold.Chemscore.Fitness>
10.3113

> <Gold.Chemscore.DG>
-11.1890

> <Gold.Chemscore.ZeroCoef>
-5.4800

> <Gold.Chemscore.Hbond>
1.9922

> <Gold.Chemscore.Metal>
0.0000

> <Gold.Chemscore.Lipo>
64.3254

> <Gold.Chemscore.Internal_Hbond>
0.0000

> <Gold.Chemscore.DEClash>
0.0456

> <Gold.Chemscore.DEInternal>
0.8321

> <Gold.Chemscore.Rot>
3.3089

> <Gold.Chemscore.Internal.Correction>
   9.000000E+99

> <Gold.Chemscore.Hbonds>
donor molecule, donor type, donor heavy atom, donor atom, acceptor molecule, acceptor atom, score
      L1  H     1    31       P1 10747  0.96

> <Gold.Chemscore.Hbond.Weighted>
-6.6538

> <Gold.Chemscore.Metal.Weighted>
-0.0000

> <Gold.Chemscore.Lipo.Weighted>
-7.5261

> <Gold.Chemscore.Internal_Hbond.Weighted>
0.0000

> <Gold.Chemscore.DEClash.Weighted>
0.0456

> <Gold.Chemscore.DEInternal.Weighted>
0.8321

> <Gold.Chemscore.Rot.Weighted>
8.4709

> <Gold.Chemscore.Internal.Correction.Weighted>
   9.000000E+99

> <Gold.Protein.RotatedTorsions>
[ 6907 6896 6895 6894 ] final   83.31 input  -60.11 | X-H torsion
[ 7974 7965 7964 7962 ] final   88.34 input  175.53 | X-H torsion
[ 8008 7997 7996 7995 ] final  123.57 input   59.86 | X-H torsion
[ 10167 10162 10161 10158 ] final  -32.79 input  -65.29 | X-H torsion
[ 10718 10713 10712 10709 ] final   87.62 input   66.30 | X-H torsion
[ 10763 10752 10751 10750 ] final   26.47 input  -60.55 | X-H torsion
[ 11005 11000 10999 10996 ] final  160.10 input  -57.11 | X-H torsion

> <Gold.Protein.ActiveResidues>
 VAL166  LYS551  ARG553  GLY616  TRP617  ASP618  TYR619  PRO620  LYS621  CYS622 
 ASP623  PHE694  ASN695  SER759  ASP760  ASP761  ALA762  ILE779  LEU786  VAL792 
 PHE793  MET794  SER795  GLU796  ALA797  LYS798  CYS799  TRP800  GLU811  SER814 

> <Gold.Protein.RotatedAtoms>
  152.5323  134.2916  159.9044 H   0  0  0  0  0  0  0  0  0  0  0  0  # atno 6907 bound_to 6896
  151.2868  133.4177  159.2638 H   0  0  0  0  0  0  0  0  0  0  0  0  # atno 6908 bound_to 6896
  151.0236  134.9503  159.8129 H   0  0  0  0  0  0  0  0  0  0  0  0  # atno 6909 bound_to 6896
  145.5469  139.2292  143.2534 H   0  0  0  0  0  0  0  0  0  0  0  0  # atno 7974 bound_to 7965
  156.2771  140.2760  156.1649 H   0  0  0  0  0  0  0  0  0  0  0  0  # atno 8008 bound_to 7997
  155.0715  140.0387  157.2628 H   0  0  0  0  0  0  0  0  0  0  0  0  # atno 8009 bound_to 7997
  154.7036  140.2654  155.6701 H   0  0  0  0  0  0  0  0  0  0  0  0  # atno 8010 bound_to 7997
  140.7215  143.3668  151.1855 H   0  0  0  0  0  0  0  0  0  0  0  0  # atno 10167 bound_to 10162
  157.6942  131.0263  150.3151 H   0  0  0  0  0  0  0  0  0  0  0  0  # atno 10718 bound_to 10713
  153.0620  135.6559  154.0441 H   0  0  0  0  0  0  0  0  0  0  0  0  # atno 10763 bound_to 10752
  154.0106  135.2928  155.3394 H   0  0  0  0  0  0  0  0  0  0  0  0  # atno 10764 bound_to 10752
  154.6962  135.5263  153.8530 H   0  0  0  0  0  0  0  0  0  0  0  0  # atno 10765 bound_to 10752
  140.2026  134.8326  157.3035 H   0  0  0  0  0  0  0  0  0  0  0  0  # atno 11005 bound_to 11000
  146.1943  140.6291  142.9131 LP  0  0  0  0  0  0  0  0  0  0  0  0  # atno 17320 bound_to 7965
  144.7548  140.5281  143.6776 LP  0  0  0  0  0  0  0  0  0  0  0  0  # atno 17321 bound_to 7965
  139.7232  143.9191  152.2993 LP  0  0  0  0  0  0  0  0  0  0  0  0  # atno 17342 bound_to 10162
  139.8954  144.6942  150.8723 LP  0  0  0  0  0  0  0  0  0  0  0  0  # atno 17343 bound_to 10162
  156.3646  130.3853  149.7223 LP  0  0  0  0  0  0  0  0  0  0  0  0  # atno 17370 bound_to 10713
  156.4658  130.7973  151.2992 LP  0  0  0  0  0  0  0  0  0  0  0  0  # atno 17371 bound_to 10713
  140.2037  134.4223  155.7649 LP  0  0  0  0  0  0  0  0  0  0  0  0  # atno 17394 bound_to 11000
  141.2227  133.7084  156.8225 LP  0  0  0  0  0  0  0  0  0  0  0  0  # atno 17395 bound_to 11000

$$$$
