AV-unprocessed.smi:1654|AV-procd|sdf|6642|dock5
  -GOLD-   22720 7343D 1   1.00000     0.00000
 Structure written by MMmdl.
 40 41  0  0  0  0  0  0  0  0  1 V2000
  155.4228  139.7719  161.3319 O   0  0  0  0  0  0  0  0  0  0  0  0
  154.8860  140.3586  160.0944 S   0  0  0  0  0  0  0  0  0  0  0  0
  155.7818  140.8118  159.0193 O   0  0  0  0  0  0  0  0  0  0  0  0
  153.7535  139.2413  159.4323 N   0  0  0  0  0  0  0  0  0  0  0  0
  153.0864  139.5924  158.1821 C   0  0  0  0  0  0  0  0  0  0  0  0
  153.5204  138.6387  157.0622 C   0  0  0  0  0  0  0  0  0  0  0  0
  152.4525  138.4897  155.9967 C   0  0  0  0  0  0  0  0  0  0  0  0
  151.9851  137.2156  155.6135 C   0  0  0  0  0  0  0  0  0  0  0  0
  150.9968  137.1283  154.6141 C   0  0  0  0  0  0  0  0  0  0  0  0
  150.5171  138.3221  154.0390 C   0  0  0  0  0  0  0  0  0  0  0  0
  150.9574  139.5473  154.3980 N   0  0  0  0  0  0  0  0  0  0  0  0
  151.9055  139.6223  155.3568 C   0  0  0  0  0  0  0  0  0  0  0  0
  153.8013  141.6515  160.4951 N   0  0  0  0  0  0  0  0  0  0  0  0
  153.3682  142.5504  159.4078 C   0  0  0  0  0  0  0  0  0  0  0  0
  151.8498  142.7781  159.4539 C   0  0  0  0  0  0  0  0  0  0  0  0
  151.4015  143.9594  160.3318 C   0  0  0  0  0  0  0  0  0  0  0  0
  152.1919  144.1645  161.6357 C   0  0  0  0  0  0  0  0  0  0  0  0
  152.6036  142.8673  162.3481 C   0  0  0  0  0  0  0  0  0  0  0  0
  153.9253  142.2693  161.8279 C   0  0  0  0  0  0  0  0  0  0  0  0
  154.1201  138.2898  159.4279 H   0  0  0  0  0  0  0  0  0  0  0  0
  152.0068  139.5445  158.3293 H   0  0  0  0  0  0  0  0  0  0  0  0
  153.3347  140.6224  157.9236 H   0  0  0  0  0  0  0  0  0  0  0  0
  154.4380  139.0003  156.5958 H   0  0  0  0  0  0  0  0  0  0  0  0
  153.7507  137.6554  157.4747 H   0  0  0  0  0  0  0  0  0  0  0  0
  152.3777  136.3209  156.0742 H   0  0  0  0  0  0  0  0  0  0  0  0
  150.6159  136.1694  154.2949 H   0  0  0  0  0  0  0  0  0  0  0  0
  149.7601  138.2920  153.2691 H   0  0  0  0  0  0  0  0  0  0  0  0
  152.2382  140.6159  155.6192 H   0  0  0  0  0  0  0  0  0  0  0  0
  153.9252  143.4876  159.4413 H   0  0  0  0  0  0  0  0  0  0  0  0
  153.6170  142.0943  158.4495 H   0  0  0  0  0  0  0  0  0  0  0  0
  151.4845  142.9545  158.4415 H   0  0  0  0  0  0  0  0  0  0  0  0
  151.3553  141.8622  159.7812 H   0  0  0  0  0  0  0  0  0  0  0  0
  151.4584  144.8809  159.7512 H   0  0  0  0  0  0  0  0  0  0  0  0
  150.3453  143.8262  160.5678 H   0  0  0  0  0  0  0  0  0  0  0  0
  153.0809  144.7649  161.4387 H   0  0  0  0  0  0  0  0  0  0  0  0
  151.5816  144.7660  162.3103 H   0  0  0  0  0  0  0  0  0  0  0  0
  152.7464  143.1001  163.4038 H   0  0  0  0  0  0  0  0  0  0  0  0
  151.7997  142.1307  162.3160 H   0  0  0  0  0  0  0  0  0  0  0  0
  154.2495  141.5112  162.5403 H   0  0  0  0  0  0  0  0  0  0  0  0
  154.7153  143.0210  161.8068 H   0  0  0  0  0  0  0  0  0  0  0  0
  1  2  2  0  0  0  0
  2  3  2  0  0  0  0
  2  4  1  0  0  0  0
  2 13  1  0  0  0  0
  4  5  1  0  0  0  0
  4 20  1  0  0  0  0
  5  6  1  0  0  0  0
  5 21  1  0  0  0  0
  5 22  1  0  0  0  0
  6  7  1  0  0  0  0
  6 23  1  0  0  0  0
  6 24  1  0  0  0  0
  7 12  1  0  0  0  0
  7  8  2  0  0  0  0
  8  9  1  0  0  0  0
  8 25  1  0  0  0  0
  9 10  2  0  0  0  0
  9 26  1  0  0  0  0
 10 11  1  0  0  0  0
 10 27  1  0  0  0  0
 11 12  2  0  0  0  0
 12 28  1  0  0  0  0
 13 19  1  0  0  0  0
 13 14  1  0  0  0  0
 14 15  1  0  0  0  0
 14 29  1  0  0  0  0
 14 30  1  0  0  0  0
 15 16  1  0  0  0  0
 15 31  1  0  0  0  0
 15 32  1  0  0  0  0
 16 17  1  0  0  0  0
 16 33  1  0  0  0  0
 16 34  1  0  0  0  0
 17 18  1  0  0  0  0
 17 35  1  0  0  0  0
 17 36  1  0  0  0  0
 18 19  1  0  0  0  0
 18 37  1  0  0  0  0
 18 38  1  0  0  0  0
 19 39  1  0  0  0  0
 19 40  1  0  0  0  0
M  END
> <s_m_source_file>
AV-unprocessed.smi

> <i_m_source_file_index>
1654

> <i_lp_mmshare_version>
43012

> <i_f3d_flags>
0

> <s_epik_input>
W0NIMl0xW0NIMl1bQ0gyXVtDSDJdW0NIMl1bQ0gyXU4xUyg9TykoPU8pW05IXVtDSDJdW0NIMl1jMltjSF1bY0hdW2NIXW5bY0hdMg==

> <s_epik_cmdline>
J2VwaWtfcHl0aG9uJywgJy1waCcsICc3LjAnLCAnLXRuJywgJzgnLCAnLW1hJywgJzIwMCcsICctbWV0YWxfYmluZGluZycsICctaW1hZScsICc8aW5maWxlLm1hZT4nLCAnLW9tYWUnLCAnPG91dGZpbGUubWFlPic=

> <r_lp_tautomer_probability>
1

> <r_epik_Ionization_Penalty>
0.00688973

> <r_epik_Ionization_Penalty_Charging>
0

> <r_epik_Ionization_Penalty_Neutral>
0.00688973

> <r_epik_State_Penalty>
-0

> <r_epik_Charging_Adjusted_Penalty>
0

> <i_epik_Tot_Q>
0

> <i_epik_Tot_abs_Q>
0

> <r_epik_Metal_State_Penalty>
0.361675

> <b_epik_Metal_Only>
0

> <s_lp_Force_Field>
OPLS_2005

> <r_lp_Energy>
15.461

> <b_lp_Chiralities_Consistent>
1

> <s_lp_Variant>
AV-unprocessed.smi:1654-1

> <Gold.Version>
5.8.1

> <Gold.Id.Protein>
6NUR|6NUR_protein|mol2

> <Gold.PLP.Fitness>
49.7570

> <Gold.PLP.PLP>
-40.4133

> <Gold.PLP.part.hbond>
-2.0000

> <Gold.PLP.part.metal>
0.0000

> <Gold.PLP.part.buried>
-2.2321

> <Gold.PLP.part.nonpolar>
-35.9375

> <Gold.PLP.part.repulsive>
0.1371

> <Gold.PLP.ligand.clash>
0.0000

> <Gold.PLP.ligand.torsion>
1.7275

> <Gold.PLP.Chemscore.Hbond>
1.9913

> <Gold.PLP.Chemscore.CHOScore>
1.5742

> <Gold.PLP.Chemscore.Metal>
0.0000

> <Gold.Chemscore.Hbonds>
donor molecule, donor type, donor heavy atom, donor atom, acceptor molecule, acceptor atom, score
      P1  H  7989  7998       L1    11  0.65
      P1  H  7997  8010       L1     3  0.56
      L1  C    10    27       P1  7948  0.84
      L1  C    10    27       P1  7957  0.46

> <Gold.PLP.Chemscore.Internal.Correction>
2.1026

> <Gold.Rescore>
     Score         DG    S(hbond)    S(metal)    S(lipo)     H(rot)  DE(clash)    DE(int)     intcor
     18.46     -20.43       1.60        0.00     114.43       1.47       0.21       1.77       ----

> <Gold.Chemscore.Fitness>
18.4579

> <Gold.Chemscore.DG>
-20.4337

> <Gold.Chemscore.ZeroCoef>
-5.4800

> <Gold.Chemscore.Hbond>
1.5973

> <Gold.Chemscore.Metal>
0.0000

> <Gold.Chemscore.Lipo>
114.4302

> <Gold.Chemscore.Internal_Hbond>
0.0000

> <Gold.Chemscore.DEClash>
0.2059

> <Gold.Chemscore.DEInternal>
1.7698

> <Gold.Chemscore.Rot>
1.4725

> <Gold.Chemscore.Internal.Correction>
   9.000000E+99

> <Gold.Chemscore.Hbonds>
donor molecule, donor type, donor heavy atom, donor atom, acceptor molecule, acceptor atom, score
      P1  H  7989  7998       L1    11  0.06
      P1  H  7997  8010       L1     3  0.51

> <Gold.Chemscore.Hbond.Weighted>
-5.3350

> <Gold.Chemscore.Metal.Weighted>
-0.0000

> <Gold.Chemscore.Lipo.Weighted>
-13.3883

> <Gold.Chemscore.Internal_Hbond.Weighted>
0.0000

> <Gold.Chemscore.DEClash.Weighted>
0.2059

> <Gold.Chemscore.DEInternal.Weighted>
1.7698

> <Gold.Chemscore.Rot.Weighted>
3.7697

> <Gold.Chemscore.Internal.Correction.Weighted>
   9.000000E+99

> <Gold.Protein.RotatedTorsions>
[ 6907 6896 6895 6894 ] final  -91.60 input  -60.11 | X-H torsion
[ 7974 7965 7964 7962 ] final   88.66 input  175.53 | X-H torsion
[ 8008 7997 7996 7995 ] final  -17.31 input   59.86 | X-H torsion
[ 10167 10162 10161 10158 ] final  114.00 input  -65.29 | X-H torsion
[ 10718 10713 10712 10709 ] final  -49.90 input   66.30 | X-H torsion
[ 10763 10752 10751 10750 ] final -116.97 input  -60.55 | X-H torsion
[ 11005 11000 10999 10996 ] final   28.68 input  -57.11 | X-H torsion

> <Gold.Protein.ActiveResidues>
 VAL166  LYS551  ARG553  GLY616  TRP617  ASP618  TYR619  PRO620  LYS621  CYS622 
 ASP623  PHE694  ASN695  SER759  ASP760  ASP761  ALA762  ILE779  LEU786  VAL792 
 PHE793  MET794  SER795  GLU796  ALA797  LYS798  CYS799  TRP800  GLU811  SER814 

> <Gold.Protein.RotatedAtoms>
  150.6894  134.2252  159.4412 H   0  0  0  0  0  0  0  0  0  0  0  0  # atno 6907 bound_to 6896
  152.0206  134.9822  160.0580 H   0  0  0  0  0  0  0  0  0  0  0  0  # atno 6908 bound_to 6896
  152.1401  133.4424  159.4799 H   0  0  0  0  0  0  0  0  0  0  0  0  # atno 6909 bound_to 6896
  145.5427  139.2290  143.2557 H   0  0  0  0  0  0  0  0  0  0  0  0  # atno 7974 bound_to 7965
  154.4987  140.2146  155.9392 H   0  0  0  0  0  0  0  0  0  0  0  0  # atno 8008 bound_to 7997
  156.1405  140.3180  155.8456 H   0  0  0  0  0  0  0  0  0  0  0  0  # atno 8009 bound_to 7997
  155.4128  140.0491  157.3021 H   0  0  0  0  0  0  0  0  0  0  0  0  # atno 8010 bound_to 7997
  139.6420  144.7124  151.2218 H   0  0  0  0  0  0  0  0  0  0  0  0  # atno 10167 bound_to 10162
  156.1850  130.4151  149.9452 H   0  0  0  0  0  0  0  0  0  0  0  0  # atno 10718 bound_to 10713
  154.8538  135.4326  154.1905 H   0  0  0  0  0  0  0  0  0  0  0  0  # atno 10763 bound_to 10752
  153.2974  135.6966  153.7241 H   0  0  0  0  0  0  0  0  0  0  0  0  # atno 10764 bound_to 10752
  153.6384  135.3472  155.3038 H   0  0  0  0  0  0  0  0  0  0  0  0  # atno 10765 bound_to 10752
  140.3130  134.2628  155.7730 H   0  0  0  0  0  0  0  0  0  0  0  0  # atno 11005 bound_to 11000
  146.1970  140.6247  142.9119 LP  0  0  0  0  0  0  0  0  0  0  0  0  # atno 17320 bound_to 7965
  144.7569  140.5328  143.6763 LP  0  0  0  0  0  0  0  0  0  0  0  0  # atno 17321 bound_to 7965
  140.7495  143.6296  150.8436 LP  0  0  0  0  0  0  0  0  0  0  0  0  # atno 17342 bound_to 10162
  139.9934  143.5822  152.2902 LP  0  0  0  0  0  0  0  0  0  0  0  0  # atno 17343 bound_to 10162
  156.7211  130.9007  151.3618 LP  0  0  0  0  0  0  0  0  0  0  0  0  # atno 17370 bound_to 10713
  157.6893  130.9217  150.0470 LP  0  0  0  0  0  0  0  0  0  0  0  0  # atno 17371 bound_to 10713
  141.2104  133.7721  156.9936 LP  0  0  0  0  0  0  0  0  0  0  0  0  # atno 17394 bound_to 11000
  140.1008  134.9537  157.1919 LP  0  0  0  0  0  0  0  0  0  0  0  0  # atno 17395 bound_to 11000

$$$$
