AV-unprocessed.smi:1464|AV-procd|sdf|5947|dock2
  -GOLD-   22720 6 33D 1   1.00000     0.00000
 Structure written by MMmdl.
 41 42  0  0  0  0  0  0  0  0  1 V2000
  152.7919  142.2464  159.5806 C   0  0  0  0  0  0  0  0  0  0  0  0
  152.3883  143.4484  158.7019 C   0  0  2  0  0  0  0  0  0  0  0  0
  152.1669  144.7201  159.5456 C   0  0  0  0  0  0  0  0  0  0  0  0
  150.8668  144.6558  160.3619 C   0  0  0  0  0  0  0  0  0  0  0  0
  149.6567  144.3937  159.4552 C   0  0  0  0  0  0  0  0  0  0  0  0
  149.8401  143.1258  158.5988 C   0  0  1  0  0  0  0  0  0  0  0  0
  148.6871  142.9975  157.7085 N   0  0  0  0  0  0  0  0  0  0  0  0
  147.5275  142.3873  157.9995 C   0  0  0  0  0  0  0  0  0  0  0  0
  147.3042  141.8302  159.0754 O   0  0  0  0  0  0  0  0  0  0  0  0
  146.4737  142.3905  156.8827 C   0  0  0  0  0  0  0  0  0  0  0  0
  146.7623  141.4348  155.8037 N   0  0  0  0  0  0  0  0  0  0  0  0
  147.8947  141.7401  155.0640 N   0  0  0  0  0  0  0  0  0  0  0  0
  148.2574  140.9706  154.0940 C   0  0  0  0  0  0  0  0  0  0  0  0
  149.3866  141.3085  153.3898 O   0  0  0  0  0  0  0  0  0  0  0  0
  147.5003  139.7863  153.7544 C   0  0  0  0  0  0  0  0  0  0  0  0
  146.3966  139.4990  154.4786 C   0  0  0  0  0  0  0  0  0  0  0  0
  145.9569  140.3499  155.5858 C   0  0  0  0  0  0  0  0  0  0  0  0
  144.9551  140.1139  156.2609 O   0  0  0  0  0  0  0  0  0  0  0  0
  151.1621  143.1831  157.7876 C   0  0  2  0  0  0  0  0  0  0  0  0
  151.3679  141.9579  156.8746 C   0  0  0  0  0  0  0  0  0  0  0  0
  149.5425  140.5841  152.8036 H   0  0  0  0  0  0  0  0  0  0  0  0
  151.9826  141.9230  160.2344 H   0  0  0  0  0  0  0  0  0  0  0  0
  153.6430  142.4970  160.2139 H   0  0  0  0  0  0  0  0  0  0  0  0
  153.0897  141.3901  158.9760 H   0  0  0  0  0  0  0  0  0  0  0  0
  153.2411  143.6488  158.0517 H   0  0  0  0  0  0  0  0  0  0  0  0
  153.0160  144.8871  160.2093 H   0  0  0  0  0  0  0  0  0  0  0  0
  152.1277  145.5866  158.8842 H   0  0  0  0  0  0  0  0  0  0  0  0
  150.9372  143.8735  161.1179 H   0  0  0  0  0  0  0  0  0  0  0  0
  150.7253  145.5912  160.9038 H   0  0  0  0  0  0  0  0  0  0  0  0
  148.7565  144.3048  160.0648 H   0  0  0  0  0  0  0  0  0  0  0  0
  149.5038  145.2574  158.8063 H   0  0  0  0  0  0  0  0  0  0  0  0
  149.8821  142.2706  159.2748 H   0  0  0  0  0  0  0  0  0  0  0  0
  148.7773  143.4172  156.7946 H   0  0  0  0  0  0  0  0  0  0  0  0
  145.4898  142.1833  157.3080 H   0  0  0  0  0  0  0  0  0  0  0  0
  146.4115  143.4042  156.4828 H   0  0  0  0  0  0  0  0  0  0  0  0
  147.8177  139.1529  152.9392 H   0  0  0  0  0  0  0  0  0  0  0  0
  145.8216  138.6176  154.2359 H   0  0  0  0  0  0  0  0  0  0  0  0
  151.0874  144.0445  157.1215 H   0  0  0  0  0  0  0  0  0  0  0  0
  151.3187  141.0257  157.4376 H   0  0  0  0  0  0  0  0  0  0  0  0
  152.3357  141.9978  156.3744 H   0  0  0  0  0  0  0  0  0  0  0  0
  150.6071  141.9084  156.0954 H   0  0  0  0  0  0  0  0  0  0  0  0
  1  2  1  0  0  0  0
  1 22  1  0  0  0  0
  1 23  1  0  0  0  0
  1 24  1  0  0  0  0
  2 19  1  0  0  0  0
  2  3  1  0  0  0  0
  2 25  1  0  0  0  0
  3  4  1  0  0  0  0
  3 26  1  0  0  0  0
  3 27  1  0  0  0  0
  4  5  1  0  0  0  0
  4 28  1  0  0  0  0
  4 29  1  0  0  0  0
  5  6  1  0  0  0  0
  5 30  1  0  0  0  0
  5 31  1  0  0  0  0
  6  7  1  0  0  0  0
  6 19  1  0  0  0  0
  6 32  1  0  0  0  0
  7  8  1  0  0  0  0
  7 33  1  0  0  0  0
  8  9  2  0  0  0  0
  8 10  1  0  0  0  0
 10 34  1  0  0  0  0
 10 35  1  0  0  0  0
 10 11  1  0  0  0  0
 11 12  1  0  0  0  0
 11 17  1  0  0  0  0
 12 13  2  0  0  0  0
 13 14  1  0  0  0  0
 13 15  1  0  0  0  0
 14 21  1  0  0  0  0
 15 36  1  0  0  0  0
 15 16  2  0  0  0  0
 16 37  1  0  0  0  0
 16 17  1  0  0  0  0
 17 18  2  0  0  0  0
 19 20  1  0  0  0  0
 19 38  1  0  0  0  0
 20 39  1  0  0  0  0
 20 40  1  0  0  0  0
 20 41  1  0  0  0  0
M  END
> <s_m_source_file>
AV-unprocessed.smi

> <i_m_source_file_index>
1464

> <i_lp_mmshare_version>
43012

> <i_f3d_flags>
0

> <s_epik_input>
W0NIM11bQ0BASF0xW0NIMl1bQ0gyXVtDSDJdW0NASF0oW0NASF0xW0NIM10pW05IXUMoPU8pW0NIMl1uMltuSF1jKD1PKVtjSF1bY0hdYzI9Tw==

> <s_epik_cmdline>
J2VwaWtfcHl0aG9uJywgJy1waCcsICc3LjAnLCAnLXRuJywgJzgnLCAnLW1hJywgJzIwMCcsICctbWV0YWxfYmluZGluZycsICctaW1hZScsICc8aW5maWxlLm1hZT4nLCAnLW9tYWUnLCAnPG91dGZpbGUubWFlPic=

> <r_lp_tautomer_probability>
0.9996

> <r_epik_Ionization_Penalty>
2.10335

> <r_epik_Ionization_Penalty_Charging>
3.98079e-08

> <r_epik_Ionization_Penalty_Neutral>
2.10335

> <r_epik_State_Penalty>
1.67957

> <r_epik_Charging_Adjusted_Penalty>
1.67957

> <i_epik_Tot_Q>
0

> <i_epik_Tot_abs_Q>
0

> <r_epik_Metal_State_Penalty>
1.67957

> <b_epik_Metal_Only>
0

> <s_lp_Force_Field>
OPLS_2005

> <r_lp_Energy>
25.8074

> <b_lp_Chiralities_Consistent>
1

> <s_lp_Variant>
AV-unprocessed.smi:1464-13

> <Gold.Version>
5.8.1

> <Gold.Id.Protein>
6NUR|6NUR_protein|mol2

> <Gold.PLP.Fitness>
44.8063

> <Gold.PLP.PLP>
-35.9652

> <Gold.PLP.part.hbond>
-6.1739

> <Gold.PLP.part.metal>
0.0000

> <Gold.PLP.part.buried>
-4.5726

> <Gold.PLP.part.nonpolar>
-26.5513

> <Gold.PLP.part.repulsive>
0.2848

> <Gold.PLP.ligand.clash>
0.0000

> <Gold.PLP.ligand.torsion>
0.6240

> <Gold.PLP.Chemscore.Hbond>
3.3600

> <Gold.PLP.Chemscore.CHOScore>
0.0000

> <Gold.PLP.Chemscore.Metal>
0.0000

> <Gold.Chemscore.Hbonds>
donor molecule, donor type, donor heavy atom, donor atom, acceptor molecule, acceptor atom, score
      L1  H     7    33       P1  8028  1.00
      L1  H    14    21       P1  7957  0.93
      P1  H  6934  6946       L1     9  0.48
      P1  H  8011  8017       L1    14  0.70

> <Gold.PLP.Chemscore.Internal.Correction>
0.0092

> <Gold.Rescore>
     Score         DG    S(hbond)    S(metal)    S(lipo)     H(rot)  DE(clash)    DE(int)     intcor
     17.48     -18.29       2.65        0.00      82.53       2.22       0.03       0.78       ----

> <Gold.Chemscore.Fitness>
17.4837

> <Gold.Chemscore.DG>
-18.2891

> <Gold.Chemscore.ZeroCoef>
-5.4800

> <Gold.Chemscore.Hbond>
2.6473

> <Gold.Chemscore.Metal>
0.0000

> <Gold.Chemscore.Lipo>
82.5347

> <Gold.Chemscore.Internal_Hbond>
0.0000

> <Gold.Chemscore.DEClash>
0.0270

> <Gold.Chemscore.DEInternal>
0.7783

> <Gold.Chemscore.Rot>
2.2224

> <Gold.Chemscore.Internal.Correction>
   9.000000E+99

> <Gold.Chemscore.Hbonds>
donor molecule, donor type, donor heavy atom, donor atom, acceptor molecule, acceptor atom, score
      L1  H     7    33       P1  8028  0.64
      L1  H    14    21       P1  7957  0.90
      P1  H  6934  6946       L1     9  0.48
      P1  H  8011  8017       L1    14  0.07

> <Gold.Chemscore.Hbond.Weighted>
-8.8419

> <Gold.Chemscore.Metal.Weighted>
-0.0000

> <Gold.Chemscore.Lipo.Weighted>
-9.6566

> <Gold.Chemscore.Internal_Hbond.Weighted>
0.0000

> <Gold.Chemscore.DEClash.Weighted>
0.0270

> <Gold.Chemscore.DEInternal.Weighted>
0.7783

> <Gold.Chemscore.Rot.Weighted>
5.6893

> <Gold.Chemscore.Internal.Correction.Weighted>
   9.000000E+99

> <Gold.Protein.RotatedTorsions>
[ 6907 6896 6895 6894 ] final  115.81 input  -60.11 | X-H torsion
[ 7974 7965 7964 7962 ] final   56.99 input  175.53 | X-H torsion
[ 8008 7997 7996 7995 ] final  -45.28 input   59.86 | X-H torsion
[ 10167 10162 10161 10158 ] final  -91.95 input  -65.29 | X-H torsion
[ 10718 10713 10712 10709 ] final   83.35 input   66.30 | X-H torsion
[ 10763 10752 10751 10750 ] final  116.83 input  -60.55 | X-H torsion
[ 11005 11000 10999 10996 ] final   44.68 input  -57.11 | X-H torsion

> <Gold.Protein.ActiveResidues>
 VAL166  LYS551  ARG553  GLY616  TRP617  ASP618  TYR619  PRO620  LYS621  CYS622 
 ASP623  PHE694  ASN695  SER759  ASP760  ASP761  ALA762  ILE779  LEU786  VAL792 
 PHE793  MET794  SER795  GLU796  ALA797  LYS798  CYS799  TRP800  GLU811  SER814 

> <Gold.Protein.RotatedAtoms>
  152.4718  133.8047  159.6971 H   0  0  0  0  0  0  0  0  0  0  0  0  # atno 6907 bound_to 6896
  150.8712  133.7494  159.2967 H   0  0  0  0  0  0  0  0  0  0  0  0  # atno 6908 bound_to 6896
  151.5028  135.1065  159.9885 H   0  0  0  0  0  0  0  0  0  0  0  0  # atno 6909 bound_to 6896
  145.9338  139.3830  143.0405 H   0  0  0  0  0  0  0  0  0  0  0  0  # atno 7974 bound_to 7965
  154.4000  140.1401  156.3821 H   0  0  0  0  0  0  0  0  0  0  0  0  # atno 8008 bound_to 7997
  155.7994  140.3476  155.5373 H   0  0  0  0  0  0  0  0  0  0  0  0  # atno 8009 bound_to 7997
  155.8499  140.0940  157.1672 H   0  0  0  0  0  0  0  0  0  0  0  0  # atno 8010 bound_to 7997
  140.3398  143.2949  151.9848 H   0  0  0  0  0  0  0  0  0  0  0  0  # atno 10167 bound_to 10162
  157.6877  131.0087  150.2511 H   0  0  0  0  0  0  0  0  0  0  0  0  # atno 10718 bound_to 10713
  153.5432  135.3554  155.2727 H   0  0  0  0  0  0  0  0  0  0  0  0  # atno 10763 bound_to 10752
  154.8715  135.4096  154.3020 H   0  0  0  0  0  0  0  0  0  0  0  0  # atno 10764 bound_to 10752
  153.3731  135.7065  153.6690 H   0  0  0  0  0  0  0  0  0  0  0  0  # atno 10765 bound_to 10752
  140.1529  134.4439  155.8369 H   0  0  0  0  0  0  0  0  0  0  0  0  # atno 11005 bound_to 11000
  145.8390  140.9590  143.0809 LP  0  0  0  0  0  0  0  0  0  0  0  0  # atno 17320 bound_to 7965
  144.6769  140.0260  143.7483 LP  0  0  0  0  0  0  0  0  0  0  0  0  # atno 17321 bound_to 7965
  139.4842  144.6166  151.7334 LP  0  0  0  0  0  0  0  0  0  0  0  0  # atno 17342 bound_to 10162
  140.5320  144.0715  150.6057 LP  0  0  0  0  0  0  0  0  0  0  0  0  # atno 17343 bound_to 10162
  156.3107  130.3771  149.7664 LP  0  0  0  0  0  0  0  0  0  0  0  0  # atno 17370 bound_to 10713
  156.5265  130.8238  151.3222 LP  0  0  0  0  0  0  0  0  0  0  0  0  # atno 17371 bound_to 10713
  141.2201  133.6880  156.7454 LP  0  0  0  0  0  0  0  0  0  0  0  0  # atno 17394 bound_to 11000
  140.2583  134.8487  157.3734 LP  0  0  0  0  0  0  0  0  0  0  0  0  # atno 17395 bound_to 11000

$$$$
