AV-unprocessed.smi:2477|AV-procd|sdf|9762|dock6
  -GOLD-   2272013403D 1   1.00000     0.00000
 Structure written by MMmdl.
 51 53  0  0  0  0  0  0  0  0  1 V2000
  150.5114  141.0284  155.1590 C   0  0  0  0  0  0  0  0  0  0  0  0
  149.3273  140.7637  154.3375 N   0  0  0  0  0  0  0  0  0  0  0  0
  148.5282  141.8613  153.9758 C   0  0  0  0  0  0  0  0  0  0  0  0
  147.4284  141.7130  153.2244 C   0  0  0  0  0  0  0  0  0  0  0  0
  147.0721  140.3858  152.7834 C   0  0  0  0  0  0  0  0  0  0  0  0
  147.8246  139.3106  153.1285 C   0  0  0  0  0  0  0  0  0  0  0  0
  147.5581  137.9865  152.7385 N   0  0  0  0  0  0  0  0  0  0  0  0
  146.4328  137.2626  152.8783 C   0  0  0  0  0  0  0  0  0  0  0  0
  145.3864  137.6481  153.3985 O   0  0  0  0  0  0  0  0  0  0  0  0
  146.6056  136.0206  152.4031 N   0  0  0  0  0  0  0  0  0  0  0  0
  145.6227  134.9417  152.4704 C   0  0  1  0  0  0  0  0  0  0  0  0
  144.2837  135.4489  151.9004 C   0  0  0  0  0  0  0  0  0  0  0  0
  143.2193  134.3407  151.8782 C   0  0  0  0  0  0  0  0  0  0  0  0
  143.7139  133.1113  151.1022 C   0  0  0  0  0  0  0  0  0  0  0  0
  145.0433  132.5980  151.6745 C   0  0  0  0  0  0  0  0  0  0  0  0
  146.1161  133.7011  151.6880 C   0  0  2  0  0  0  0  0  0  0  0  0
  147.2670  133.1571  152.3248 O   0  0  0  0  0  0  0  0  0  0  0  0
  147.1473  132.9774  153.7317 C   0  0  0  0  0  0  0  0  0  0  0  0
  147.8164  134.1352  154.4778 C   0  0  0  0  0  0  0  0  0  0  0  0
  149.3142  133.8242  154.4130 C   0  0  0  0  0  0  0  0  0  0  0  0
  149.4267  132.2974  154.2804 C   0  0  0  0  0  0  0  0  0  0  0  0
  147.9942  131.7679  154.1292 C   0  0  0  0  0  0  0  0  0  0  0  0
  149.0349  139.4849  153.9553 C   0  0  0  0  0  0  0  0  0  0  0  0
  149.7526  138.5394  154.2912 O   0  0  0  0  0  0  0  0  0  0  0  0
  150.6515  142.0894  155.3680 H   0  0  0  0  0  0  0  0  0  0  0  0
  151.4139  140.6761  154.6575 H   0  0  0  0  0  0  0  0  0  0  0  0
  150.4327  140.5149  156.1183 H   0  0  0  0  0  0  0  0  0  0  0  0
  148.8610  142.8208  154.3438 H   0  0  0  0  0  0  0  0  0  0  0  0
  146.8232  142.5659  152.9551 H   0  0  0  0  0  0  0  0  0  0  0  0
  146.1976  140.2955  152.1603 H   0  0  0  0  0  0  0  0  0  0  0  0
  148.3501  137.5039  152.3391 H   0  0  0  0  0  0  0  0  0  0  0  0
  147.4999  135.7910  151.9950 H   0  0  0  0  0  0  0  0  0  0  0  0
  145.4554  134.6577  153.5114 H   0  0  0  0  0  0  0  0  0  0  0  0
  143.9219  136.2912  152.4913 H   0  0  0  0  0  0  0  0  0  0  0  0
  144.4316  135.8248  150.8866 H   0  0  0  0  0  0  0  0  0  0  0  0
  142.9708  134.0529  152.9005 H   0  0  0  0  0  0  0  0  0  0  0  0
  142.2993  134.7176  151.4304 H   0  0  0  0  0  0  0  0  0  0  0  0
  142.9630  132.3215  151.1393 H   0  0  0  0  0  0  0  0  0  0  0  0
  143.8426  133.3679  150.0499 H   0  0  0  0  0  0  0  0  0  0  0  0
  144.8829  132.2306  152.6892 H   0  0  0  0  0  0  0  0  0  0  0  0
  145.3934  131.7462  151.0907 H   0  0  0  0  0  0  0  0  0  0  0  0
  146.3272  133.9840  150.6543 H   0  0  0  0  0  0  0  0  0  0  0  0
  146.1053  132.8364  154.0228 H   0  0  0  0  0  0  0  0  0  0  0  0
  147.5724  135.1156  154.0683 H   0  0  0  0  0  0  0  0  0  0  0  0
  147.4914  134.1267  155.5190 H   0  0  0  0  0  0  0  0  0  0  0  0
  149.7484  134.2990  153.5323 H   0  0  0  0  0  0  0  0  0  0  0  0
  149.8463  134.2049  155.2852 H   0  0  0  0  0  0  0  0  0  0  0  0
  150.0227  132.0433  153.4029 H   0  0  0  0  0  0  0  0  0  0  0  0
  149.9159  131.8525  155.1475 H   0  0  0  0  0  0  0  0  0  0  0  0
  147.6477  131.3901  155.0919 H   0  0  0  0  0  0  0  0  0  0  0  0
  147.9198  130.9481  153.4136 H   0  0  0  0  0  0  0  0  0  0  0  0
  1  2  1  0  0  0  0
  1 25  1  0  0  0  0
  1 26  1  0  0  0  0
  1 27  1  0  0  0  0
  2 23  1  0  0  0  0
  2  3  1  0  0  0  0
  3  4  2  0  0  0  0
  3 28  1  0  0  0  0
  4  5  1  0  0  0  0
  4 29  1  0  0  0  0
  5  6  2  0  0  0  0
  5 30  1  0  0  0  0
  6  7  1  0  0  0  0
  6 23  1  0  0  0  0
  7  8  1  0  0  0  0
  7 31  1  0  0  0  0
  8  9  2  0  0  0  0
  8 10  1  0  0  0  0
 10 11  1  0  0  0  0
 10 32  1  0  0  0  0
 11 16  1  0  0  0  0
 11 12  1  0  0  0  0
 11 33  1  0  0  0  0
 12 13  1  0  0  0  0
 12 34  1  0  0  0  0
 12 35  1  0  0  0  0
 13 14  1  0  0  0  0
 13 36  1  0  0  0  0
 13 37  1  0  0  0  0
 14 15  1  0  0  0  0
 14 38  1  0  0  0  0
 14 39  1  0  0  0  0
 15 16  1  0  0  0  0
 15 40  1  0  0  0  0
 15 41  1  0  0  0  0
 16 17  1  0  0  0  0
 16 42  1  0  0  0  0
 17 18  1  0  0  0  0
 18 22  1  0  0  0  0
 18 19  1  0  0  0  0
 18 43  1  0  0  0  0
 19 20  1  0  0  0  0
 19 44  1  0  0  0  0
 19 45  1  0  0  0  0
 20 21  1  0  0  0  0
 20 46  1  0  0  0  0
 20 47  1  0  0  0  0
 21 22  1  0  0  0  0
 21 48  1  0  0  0  0
 21 49  1  0  0  0  0
 22 50  1  0  0  0  0
 22 51  1  0  0  0  0
 23 24  2  0  0  0  0
M  END
> <s_m_source_file>
AV-unprocessed.smi

> <i_m_source_file_index>
2477

> <i_lp_mmshare_version>
43012

> <i_f3d_flags>
0

> <s_epik_input>
W0NIM11uMVtjSF1bY0hdW2NIXWMoYzE9TylbTkhdQyg9TylbTkhdW0NAQEhdMltDSDJdW0NIMl1bQ0gyXVtDSDJdW0NASF0yT1tDSF0zW0NIMl1bQ0gyXVtDSDJdW0NIMl0z

> <s_epik_cmdline>
J2VwaWtfcHl0aG9uJywgJy1waCcsICc3LjAnLCAnLXRuJywgJzgnLCAnLW1hJywgJzIwMCcsICctbWV0YWxfYmluZGluZycsICctaW1hZScsICc8aW5maWxlLm1hZT4nLCAnLW9tYWUnLCAnPG91dGZpbGUubWFlPic=

> <r_lp_tautomer_probability>
1

> <r_epik_Ionization_Penalty>
2.40753e-05

> <r_epik_Ionization_Penalty_Charging>
4.84018e-06

> <r_epik_Ionization_Penalty_Neutral>
1.92352e-05

> <r_epik_State_Penalty>
-0

> <r_epik_Charging_Adjusted_Penalty>
4.84018e-06

> <i_epik_Tot_Q>
0

> <i_epik_Tot_abs_Q>
0

> <r_epik_Metal_State_Penalty>
-0

> <b_epik_Metal_Only>
0

> <s_lp_Force_Field>
OPLS_2005

> <r_lp_Energy>
41.4138

> <b_lp_Chiralities_Consistent>
1

> <s_lp_Variant>
AV-unprocessed.smi:2477-4

> <Gold.Version>
5.8.1

> <Gold.Id.Protein>
6NUR|6NUR_protein|mol2

> <Gold.PLP.Fitness>
47.2370

> <Gold.PLP.PLP>
-40.3405

> <Gold.PLP.part.hbond>
-1.8231

> <Gold.PLP.part.metal>
0.0000

> <Gold.PLP.part.buried>
-4.2872

> <Gold.PLP.part.nonpolar>
-35.7609

> <Gold.PLP.part.repulsive>
0.5693

> <Gold.PLP.ligand.clash>
0.0000

> <Gold.PLP.ligand.torsion>
1.0774

> <Gold.PLP.Chemscore.Hbond>
2.0000

> <Gold.PLP.Chemscore.CHOScore>
1.0000

> <Gold.PLP.Chemscore.Metal>
0.0000

> <Gold.Chemscore.Hbonds>
donor molecule, donor type, donor heavy atom, donor atom, acceptor molecule, acceptor atom, score
      L1  H     7    31       P1  7948  0.84
      L1  H    10    32       P1  7948  0.84
      L1  C     3    28       P1  8028  1.00

> <Gold.PLP.Chemscore.Internal.Correction>
0.0511

> <Gold.Rescore>
     Score         DG    S(hbond)    S(metal)    S(lipo)     H(rot)  DE(clash)    DE(int)     intcor
     16.80     -19.11       1.94        0.00      90.92       1.36       0.01       2.30       ----

> <Gold.Chemscore.Fitness>
16.8010

> <Gold.Chemscore.DG>
-19.1122

> <Gold.Chemscore.ZeroCoef>
-5.4800

> <Gold.Chemscore.Hbond>
1.9363

> <Gold.Chemscore.Metal>
0.0000

> <Gold.Chemscore.Lipo>
90.9185

> <Gold.Chemscore.Internal_Hbond>
0.0000

> <Gold.Chemscore.DEClash>
0.0088

> <Gold.Chemscore.DEInternal>
2.3024

> <Gold.Chemscore.Rot>
1.3564

> <Gold.Chemscore.Internal.Correction>
   9.000000E+99

> <Gold.Chemscore.Hbonds>
donor molecule, donor type, donor heavy atom, donor atom, acceptor molecule, acceptor atom, score
      L1  H     7    31       P1  7948  0.78
      L1  H    10    32       P1  7948  0.79

> <Gold.Chemscore.Hbond.Weighted>
-6.4671

> <Gold.Chemscore.Metal.Weighted>
-0.0000

> <Gold.Chemscore.Lipo.Weighted>
-10.6375

> <Gold.Chemscore.Internal_Hbond.Weighted>
0.0000

> <Gold.Chemscore.DEClash.Weighted>
0.0088

> <Gold.Chemscore.DEInternal.Weighted>
2.3024

> <Gold.Chemscore.Rot.Weighted>
3.4724

> <Gold.Chemscore.Internal.Correction.Weighted>
   9.000000E+99

> <Gold.Protein.RotatedTorsions>
[ 6907 6896 6895 6894 ] final -103.31 input  -60.11 | X-H torsion
[ 7974 7965 7964 7962 ] final  138.00 input  175.53 | X-H torsion
[ 8008 7997 7996 7995 ] final   10.61 input   59.86 | X-H torsion
[ 10167 10162 10161 10158 ] final -145.25 input  -65.29 | X-H torsion
[ 10718 10713 10712 10709 ] final  -44.63 input   66.30 | X-H torsion
[ 10763 10752 10751 10750 ] final   76.04 input  -60.55 | X-H torsion
[ 11005 11000 10999 10996 ] final   98.78 input  -57.11 | X-H torsion

> <Gold.Protein.ActiveResidues>
 VAL166  LYS551  ARG553  GLY616  TRP617  ASP618  TYR619  PRO620  LYS621  CYS622 
 ASP623  PHE694  ASN695  SER759  ASP760  ASP761  ALA762  ILE779  LEU786  VAL792 
 PHE793  MET794  SER795  GLU796  ALA797  LYS798  CYS799  TRP800  GLU811  SER814 

> <Gold.Protein.RotatedAtoms>
  150.7235  134.0448  159.3777 H   0  0  0  0  0  0  0  0  0  0  0  0  # atno 6907 bound_to 6896
  151.8423  135.0584  160.0459 H   0  0  0  0  0  0  0  0  0  0  0  0  # atno 6908 bound_to 6896
  152.2853  133.5473  159.5560 H   0  0  0  0  0  0  0  0  0  0  0  0  # atno 6909 bound_to 6896
  144.9414  139.4926  143.5570 H   0  0  0  0  0  0  0  0  0  0  0  0  # atno 7974 bound_to 7965
  154.7957  140.2843  155.5959 H   0  0  0  0  0  0  0  0  0  0  0  0  # atno 8008 bound_to 7997
  156.2970  140.2596  156.2743 H   0  0  0  0  0  0  0  0  0  0  0  0  # atno 8009 bound_to 7997
  154.9618  140.0377  157.2183 H   0  0  0  0  0  0  0  0  0  0  0  0  # atno 8010 bound_to 7997
  139.7823  143.8083  152.2640 H   0  0  0  0  0  0  0  0  0  0  0  0  # atno 10167 bound_to 10162
  156.2366  130.4176  149.8811 H   0  0  0  0  0  0  0  0  0  0  0  0  # atno 10718 bound_to 10713
  153.0697  135.4966  154.8278 H   0  0  0  0  0  0  0  0  0  0  0  0  # atno 10763 bound_to 10752
  154.7005  135.3001  154.9351 H   0  0  0  0  0  0  0  0  0  0  0  0  # atno 10764 bound_to 10752
  154.0076  135.6758  153.4816 H   0  0  0  0  0  0  0  0  0  0  0  0  # atno 10765 bound_to 10752
  139.8771  134.9065  156.4507 H   0  0  0  0  0  0  0  0  0  0  0  0  # atno 11005 bound_to 11000
  146.3287  139.8436  142.8886 LP  0  0  0  0  0  0  0  0  0  0  0  0  # atno 17320 bound_to 7965
  145.2985  141.0187  143.3622 LP  0  0  0  0  0  0  0  0  0  0  0  0  # atno 17321 bound_to 7965
  139.8150  144.7320  150.9648 LP  0  0  0  0  0  0  0  0  0  0  0  0  # atno 17342 bound_to 10162
  140.7818  143.4214  151.0835 LP  0  0  0  0  0  0  0  0  0  0  0  0  # atno 17343 bound_to 10162
  156.6407  130.8703  151.3513 LP  0  0  0  0  0  0  0  0  0  0  0  0  # atno 17370 bound_to 10713
  157.7157  130.9494  150.1246 LP  0  0  0  0  0  0  0  0  0  0  0  0  # atno 17371 bound_to 10713
  140.8934  133.7832  155.9597 LP  0  0  0  0  0  0  0  0  0  0  0  0  # atno 17394 bound_to 11000
  140.8729  134.2704  157.5182 LP  0  0  0  0  0  0  0  0  0  0  0  0  # atno 17395 bound_to 11000

$$$$
