AV-unprocessed.smi:1388|AV-procd|sdf|5645|dock7
  -GOLD-   22720 5263D 1   1.00000     0.00000
 Structure written by MMmdl.
 45 46  0  0  0  0  0  0  0  0  3 V2000
  149.5675  131.9488  153.8380 C   0  0  0  0  0  0  0  0  0  0  0  0
  149.2728  133.3668  154.0085 N   0  5  0  0  0  0  0  0  0  0  0  0
  149.8382  134.1400  154.9764 C   0  0  0  0  0  0  0  0  0  0  0  0
  150.9233  134.0384  155.5571 O   0  0  0  0  0  0  0  0  0  0  0  0
  148.9194  135.3080  155.3558 C   0  0  0  0  0  0  0  0  0  0  0  0
  149.3619  136.5662  154.7015 N   0  3  2  0  0  0  0  0  0  0  0  0
  150.7521  136.9355  155.0691 C   0  0  0  0  0  0  0  0  0  0  0  0
  151.2377  138.1560  154.2658 C   0  0  0  0  0  0  0  0  0  0  0  0
  150.2938  139.3609  154.4185 C   0  0  2  0  0  0  0  0  0  0  0  0
  150.4019  139.9257  155.7633 N   0  0  0  0  0  0  0  0  0  0  0  0
  151.5478  140.1422  156.4256 C   0  0  0  0  0  0  0  0  0  0  0  0
  152.6588  139.8936  155.9571 O   0  0  0  0  0  0  0  0  0  0  0  0
  151.3120  140.6600  157.6443 N   0  0  0  0  0  0  0  0  0  0  0  0
  152.2510  141.0144  158.6538 C   0  0  0  0  0  0  0  0  0  0  0  0
  153.3022  140.2236  158.9855 N   0  0  0  0  0  0  0  0  0  0  0  0
  154.1522  140.6188  159.9553 C   0  0  0  0  0  0  0  0  0  0  0  0
  154.0085  141.8286  160.6556 C   0  0  0  0  0  0  0  0  0  0  0  0
  152.9257  142.6605  160.3233 C   0  0  0  0  0  0  0  0  0  0  0  0
  152.0311  142.2551  159.3100 C   0  0  0  0  0  0  0  0  0  0  0  0
  150.8593  143.1539  158.9496 C   0  0  0  0  0  0  0  0  0  0  0  0
  148.8498  138.9325  154.0917 C   0  0  0  0  0  0  0  0  0  0  0  0
  148.4171  137.6974  154.9013 C   0  0  0  0  0  0  0  0  0  0  0  0
  148.9622  131.5019  153.0497 H   0  0  0  0  0  0  0  0  0  0  0  0
  149.3708  131.3712  154.7418 H   0  0  0  0  0  0  0  0  0  0  0  0
  150.6087  131.7699  153.5684 H   0  0  0  0  0  0  0  0  0  0  0  0
  147.8837  135.0869  155.0925 H   0  0  0  0  0  0  0  0  0  0  0  0
  148.9478  135.4137  156.4417 H   0  0  0  0  0  0  0  0  0  0  0  0
  150.8043  137.1375  156.1399 H   0  0  0  0  0  0  0  0  0  0  0  0
  151.4181  136.0943  154.8734 H   0  0  0  0  0  0  0  0  0  0  0  0
  152.2498  138.4267  154.5694 H   0  0  0  0  0  0  0  0  0  0  0  0
  151.3012  137.8837  153.2112 H   0  0  0  0  0  0  0  0  0  0  0  0
  150.6045  140.1258  153.7044 H   0  0  0  0  0  0  0  0  0  0  0  0
  149.5368  140.1571  156.2290 H   0  0  0  0  0  0  0  0  0  0  0  0
  150.3444  140.8145  157.8844 H   0  0  0  0  0  0  0  0  0  0  0  0
  154.9702  139.9501  160.1788 H   0  0  0  0  0  0  0  0  0  0  0  0
  154.7102  142.1107  161.4266 H   0  0  0  0  0  0  0  0  0  0  0  0
  152.7866  143.5976  160.8417 H   0  0  0  0  0  0  0  0  0  0  0  0
  150.8552  144.0619  159.5532 H   0  0  0  0  0  0  0  0  0  0  0  0
  149.9146  142.6358  159.1172 H   0  0  0  0  0  0  0  0  0  0  0  0
  150.9130  143.4491  157.9014 H   0  0  0  0  0  0  0  0  0  0  0  0
  148.1556  139.7559  154.2641 H   0  0  0  0  0  0  0  0  0  0  0  0
  148.7792  138.6992  153.0283 H   0  0  0  0  0  0  0  0  0  0  0  0
  147.4132  137.4063  154.5907 H   0  0  0  0  0  0  0  0  0  0  0  0
  148.3575  137.9421  155.9630 H   0  0  0  0  0  0  0  0  0  0  0  0
  149.3717  136.3607  153.7118 H   0  0  0  0  0  0  0  0  0  0  0  0
  1  2  1  0  0  0  0
  1 23  1  0  0  0  0
  1 24  1  0  0  0  0
  1 25  1  0  0  0  0
  2  3  1  0  0  0  0
  3  4  2  0  0  0  0
  3  5  1  0  0  0  0
  5  6  1  0  0  0  0
  5 26  1  0  0  0  0
  5 27  1  0  0  0  0
  6 22  1  0  0  0  0
  6  7  1  0  0  0  0
  6 45  1  0  0  0  0
  7  8  1  0  0  0  0
  7 28  1  0  0  0  0
  7 29  1  0  0  0  0
  8  9  1  0  0  0  0
  8 30  1  0  0  0  0
  8 31  1  0  0  0  0
  9 10  1  0  0  0  0
  9 21  1  0  0  0  0
  9 32  1  0  0  0  0
 10 11  1  0  0  0  0
 10 33  1  0  0  0  0
 11 12  2  0  0  0  0
 11 13  1  0  0  0  0
 13 14  1  0  0  0  0
 13 34  1  0  0  0  0
 14 19  1  0  0  0  0
 14 15  2  0  0  0  0
 15 16  1  0  0  0  0
 16 17  2  0  0  0  0
 16 35  1  0  0  0  0
 17 18  1  0  0  0  0
 17 36  1  0  0  0  0
 18 19  2  0  0  0  0
 18 37  1  0  0  0  0
 19 20  1  0  0  0  0
 20 38  1  0  0  0  0
 20 39  1  0  0  0  0
 20 40  1  0  0  0  0
 21 22  1  0  0  0  0
 21 41  1  0  0  0  0
 21 42  1  0  0  0  0
 22 43  1  0  0  0  0
 22 44  1  0  0  0  0
M  CHG  1   2  -1
M  CHG  1   6   1
M  END
> <s_m_source_file>
AV-unprocessed.smi

> <i_m_source_file_index>
1388

> <i_lp_mmshare_version>
43012

> <i_f3d_flags>
0

> <s_epik_input>
W0NIM11bTkhdQyg9TylbQ0gyXU4xW0NIMl1bQ0gyXVtDSF0oW0NIMl1bQ0gyXTEpW05IXUMoPU8pW05IXWMybltjSF1bY0hdW2NIXWMyW0NIM10=

> <s_epik_cmdline>
J2VwaWtfcHl0aG9uJywgJy1waCcsICc3LjAnLCAnLXRuJywgJzgnLCAnLW1hJywgJzIwMCcsICctbWV0YWxfYmluZGluZycsICctaW1hZScsICc8aW5maWxlLm1hZT4nLCAnLW9tYWUnLCAnPG91dGZpbGUubWFlPic=

> <r_epik_Ionization_Penalty>
6.13951

> <r_epik_Ionization_Penalty_Charging>
6.13946

> <r_epik_Ionization_Penalty_Neutral>
4.54304e-05

> <r_epik_State_Penalty>
6.9595

> <r_epik_Charging_Adjusted_Penalty>
13.099

> <i_epik_Tot_Q>
0

> <i_epik_Tot_abs_Q>
2

> <r_epik_Metal_State_Penalty>
2.89141

> <b_epik_Metal_Only>
1

> <s_lp_Force_Field>
OPLS_2005

> <r_lp_Energy>
12.9207

> <b_lp_Chiralities_Consistent>
1

> <s_lp_Variant>
AV-unprocessed.smi:1388-5

> <Gold.Version>
5.8.1

> <Gold.Id.Protein>
6NUR|6NUR_protein|mol2

> <Gold.PLP.Fitness>
46.0144

> <Gold.PLP.PLP>
-38.8973

> <Gold.PLP.part.hbond>
-2.0000

> <Gold.PLP.part.metal>
0.0000

> <Gold.PLP.part.buried>
-4.2399

> <Gold.PLP.part.nonpolar>
-32.3553

> <Gold.PLP.part.repulsive>
0.3230

> <Gold.PLP.ligand.clash>
0.0000

> <Gold.PLP.ligand.torsion>
0.9865

> <Gold.PLP.Chemscore.Hbond>
3.0000

> <Gold.PLP.Chemscore.CHOScore>
0.0000

> <Gold.PLP.Chemscore.Metal>
0.0000

> <Gold.Chemscore.Hbonds>
donor molecule, donor type, donor heavy atom, donor atom, acceptor molecule, acceptor atom, score
      L1  H     6    45       P1  7948  2.00
      P1  H  7997  8009       L1    12  1.00

> <Gold.PLP.Chemscore.Internal.Correction>
0.0902

> <Gold.Rescore>
     Score         DG    S(hbond)    S(metal)    S(lipo)     H(rot)  DE(clash)    DE(int)     intcor
     15.99     -18.45       1.99        0.00      89.77       1.63       0.09       2.37       ----

> <Gold.Chemscore.Fitness>
15.9864

> <Gold.Chemscore.DG>
-18.4494

> <Gold.Chemscore.ZeroCoef>
-5.4800

> <Gold.Chemscore.Hbond>
1.9880

> <Gold.Chemscore.Metal>
0.0000

> <Gold.Chemscore.Lipo>
89.7688

> <Gold.Chemscore.Internal_Hbond>
0.0000

> <Gold.Chemscore.DEClash>
0.0942

> <Gold.Chemscore.DEInternal>
2.3689

> <Gold.Chemscore.Rot>
1.6303

> <Gold.Chemscore.Internal.Correction>
   9.000000E+99

> <Gold.Chemscore.Hbonds>
donor molecule, donor type, donor heavy atom, donor atom, acceptor molecule, acceptor atom, score
      L1  H     6    45       P1  7948  0.85
      P1  H  7997  8009       L1    12  1.00

> <Gold.Chemscore.Hbond.Weighted>
-6.6400

> <Gold.Chemscore.Metal.Weighted>
-0.0000

> <Gold.Chemscore.Lipo.Weighted>
-10.5029

> <Gold.Chemscore.Internal_Hbond.Weighted>
0.0000

> <Gold.Chemscore.DEClash.Weighted>
0.0942

> <Gold.Chemscore.DEInternal.Weighted>
2.3689

> <Gold.Chemscore.Rot.Weighted>
4.1735

> <Gold.Chemscore.Internal.Correction.Weighted>
   9.000000E+99

> <Gold.Protein.RotatedTorsions>
[ 6907 6896 6895 6894 ] final  -91.47 input  -60.11 | X-H torsion
[ 7974 7965 7964 7962 ] final  147.48 input  175.53 | X-H torsion
[ 8008 7997 7996 7995 ] final -164.05 input   59.86 | X-H torsion
[ 10167 10162 10161 10158 ] final -131.48 input  -65.29 | X-H torsion
[ 10718 10713 10712 10709 ] final  105.80 input   66.30 | X-H torsion
[ 10763 10752 10751 10750 ] final   33.88 input  -60.55 | X-H torsion
[ 11005 11000 10999 10996 ] final   81.65 input  -57.11 | X-H torsion

> <Gold.Protein.ActiveResidues>
 VAL166  LYS551  ARG553  GLY616  TRP617  ASP618  TYR619  PRO620  LYS621  CYS622 
 ASP623  PHE694  ASN695  SER759  ASP760  ASP761  ALA762  ILE779  LEU786  VAL792 
 PHE793  MET794  SER795  GLU796  ALA797  LYS798  CYS799  TRP800  GLU811  SER814 

> <Gold.Protein.RotatedAtoms>
  150.6893  134.2272  159.4419 H   0  0  0  0  0  0  0  0  0  0  0  0  # atno 6907 bound_to 6896
  152.0225  134.9812  160.0580 H   0  0  0  0  0  0  0  0  0  0  0  0  # atno 6908 bound_to 6896
  152.1383  133.4414  159.4791 H   0  0  0  0  0  0  0  0  0  0  0  0  # atno 6909 bound_to 6896
  144.8588  139.6034  143.5940 H   0  0  0  0  0  0  0  0  0  0  0  0  # atno 7974 bound_to 7965
  155.8301  140.0932  157.1798 H   0  0  0  0  0  0  0  0  0  0  0  0  # atno 8008 bound_to 7997
  154.3980  140.1420  156.3664 H   0  0  0  0  0  0  0  0  0  0  0  0  # atno 8009 bound_to 7997
  155.8175  140.3447  155.5497 H   0  0  0  0  0  0  0  0  0  0  0  0  # atno 8010 bound_to 7997
  139.9184  143.6411  152.2559 H   0  0  0  0  0  0  0  0  0  0  0  0  # atno 10167 bound_to 10162
  157.6692  131.0836  150.5911 H   0  0  0  0  0  0  0  0  0  0  0  0  # atno 10718 bound_to 10713
  153.0190  135.6375  154.1582 H   0  0  0  0  0  0  0  0  0  0  0  0  # atno 10763 bound_to 10752
  154.1318  135.2840  155.3185 H   0  0  0  0  0  0  0  0  0  0  0  0  # atno 10764 bound_to 10752
  154.6189  135.5531  153.7615 H   0  0  0  0  0  0  0  0  0  0  0  0  # atno 10765 bound_to 10752
  139.9090  134.8013  156.2070 H   0  0  0  0  0  0  0  0  0  0  0  0  # atno 11005 bound_to 11000
  146.2844  139.6965  142.9206 LP  0  0  0  0  0  0  0  0  0  0  0  0  # atno 17320 bound_to 7965
  145.4352  141.0418  143.2888 LP  0  0  0  0  0  0  0  0  0  0  0  0  # atno 17321 bound_to 7965
  139.6882  144.7649  151.1485 LP  0  0  0  0  0  0  0  0  0  0  0  0  # atno 17342 bound_to 10162
  140.7668  143.5626  150.9082 LP  0  0  0  0  0  0  0  0  0  0  0  0  # atno 17343 bound_to 10162
  156.6212  130.4406  149.5821 LP  0  0  0  0  0  0  0  0  0  0  0  0  # atno 17370 bound_to 10713
  156.2354  130.6820  151.1505 LP  0  0  0  0  0  0  0  0  0  0  0  0  # atno 17371 bound_to 10713
  141.0489  133.6899  156.1735 LP  0  0  0  0  0  0  0  0  0  0  0  0  # atno 17394 bound_to 11000
  140.6841  134.4736  157.5589 LP  0  0  0  0  0  0  0  0  0  0  0  0  # atno 17395 bound_to 11000

$$$$
