AV-unprocessed.smi:564|AV-procd|sdf|2948|dock5
  -GOLD-   2262023443D 1   1.00000     0.00000
 Structure written by MMmdl.
 50 51  0  0  0  0  0  0  0  0  2 V2000
  151.0836  138.2018  154.5031 C   0  0  0  0  0  0  0  0  0  0  0  0
  151.0549  139.2082  155.6178 C   0  0  0  0  0  0  0  0  0  0  0  0
  151.7361  138.9706  156.7263 N   0  0  0  0  0  0  0  0  0  0  0  0
  151.5086  140.0457  157.5070 N   0  0  0  0  0  0  0  0  0  0  0  0
  152.1167  140.1102  158.8220 C   0  0  0  0  0  0  0  0  0  0  0  0
  150.6804  140.9638  156.8909 C   0  0  0  0  0  0  0  0  0  0  0  0
  150.2791  142.2436  157.5506 C   0  0  0  0  0  0  0  0  0  0  0  0
  150.3610  140.4530  155.6609 C   0  0  0  0  0  0  0  0  0  0  0  0
  149.4833  141.0480  154.5886 C   0  0  0  0  0  0  0  0  0  0  0  0
  148.1995  140.2282  154.4343 C   0  0  0  0  0  0  0  0  0  0  0  0
  147.4882  139.9952  155.4121 O   0  0  0  0  0  0  0  0  0  0  0  0
  147.9102  139.7977  153.1976 N   0  0  0  0  0  0  0  0  0  0  0  0
  146.7377  139.0053  152.8536 C   0  0  0  0  0  0  0  0  0  0  0  0
  146.7265  137.6904  153.6513 C   0  0  0  0  0  0  0  0  0  0  0  0
  146.5398  136.4843  152.7997 N   0  3  1  0  0  0  0  0  0  0  0  0
  146.4874  135.2351  153.6071 C   0  0  0  0  0  0  0  0  0  0  0  0
  146.5183  133.9858  152.7126 C   0  0  0  0  0  0  0  0  0  0  0  0
  145.3837  134.0174  151.6834 C   0  0  0  0  0  0  0  0  0  0  0  0
  145.4492  135.3213  150.8767 C   0  0  0  0  0  0  0  0  0  0  0  0
  145.4428  136.5706  151.7837 C   0  0  1  0  0  0  0  0  0  0  0  0
  144.0506  136.8379  152.3954 C   0  0  0  0  0  0  0  0  0  0  0  0
  151.3518  138.6758  153.5587 H   0  0  0  0  0  0  0  0  0  0  0  0
  150.1067  137.7358  154.3751 H   0  0  0  0  0  0  0  0  0  0  0  0
  151.8082  137.4085  154.6909 H   0  0  0  0  0  0  0  0  0  0  0  0
  151.3430  140.0365  159.5861 H   0  0  0  0  0  0  0  0  0  0  0  0
  152.6445  141.0569  158.9380 H   0  0  0  0  0  0  0  0  0  0  0  0
  152.8276  139.2941  158.9580 H   0  0  0  0  0  0  0  0  0  0  0  0
  149.6657  142.8544  156.8886 H   0  0  0  0  0  0  0  0  0  0  0  0
  151.1561  142.8299  157.8254 H   0  0  0  0  0  0  0  0  0  0  0  0
  149.7040  142.0487  158.4559 H   0  0  0  0  0  0  0  0  0  0  0  0
  149.2035  142.0738  154.8300 H   0  0  0  0  0  0  0  0  0  0  0  0
  150.0111  141.0988  153.6354 H   0  0  0  0  0  0  0  0  0  0  0  0
  148.5471  140.0330  152.4499 H   0  0  0  0  0  0  0  0  0  0  0  0
  145.8558  139.6077  153.0707 H   0  0  0  0  0  0  0  0  0  0  0  0
  146.7319  138.7899  151.7838 H   0  0  0  0  0  0  0  0  0  0  0  0
  147.6873  137.6029  154.1608 H   0  0  0  0  0  0  0  0  0  0  0  0
  145.9740  137.7207  154.4396 H   0  0  0  0  0  0  0  0  0  0  0  0
  147.3421  135.2007  154.2837 H   0  0  0  0  0  0  0  0  0  0  0  0
  145.5961  135.2315  154.2354 H   0  0  0  0  0  0  0  0  0  0  0  0
  147.4782  133.9280  152.1976 H   0  0  0  0  0  0  0  0  0  0  0  0
  146.4414  133.0866  153.3246 H   0  0  0  0  0  0  0  0  0  0  0  0
  145.4590  133.1586  151.0156 H   0  0  0  0  0  0  0  0  0  0  0  0
  144.4203  133.9337  152.1874 H   0  0  0  0  0  0  0  0  0  0  0  0
  146.3601  135.3200  150.2763 H   0  0  0  0  0  0  0  0  0  0  0  0
  144.6223  135.3631  150.1667 H   0  0  0  0  0  0  0  0  0  0  0  0
  145.6646  137.4098  151.1256 H   0  0  0  0  0  0  0  0  0  0  0  0
  143.2870  136.8611  151.6174 H   0  0  0  0  0  0  0  0  0  0  0  0
  144.0080  137.8024  152.9008 H   0  0  0  0  0  0  0  0  0  0  0  0
  143.7568  136.0718  153.1122 H   0  0  0  0  0  0  0  0  0  0  0  0
  147.3917  136.4082  152.2618 H   0  0  0  0  0  0  0  0  0  0  0  0
  1  2  1  0  0  0  0
  1 22  1  0  0  0  0
  1 23  1  0  0  0  0
  1 24  1  0  0  0  0
  2  8  1  0  0  0  0
  2  3  2  0  0  0  0
  3  4  1  0  0  0  0
  4  5  1  0  0  0  0
  4  6  1  0  0  0  0
  5 25  1  0  0  0  0
  5 26  1  0  0  0  0
  5 27  1  0  0  0  0
  6  7  1  0  0  0  0
  6  8  2  0  0  0  0
  7 28  1  0  0  0  0
  7 29  1  0  0  0  0
  7 30  1  0  0  0  0
  8  9  1  0  0  0  0
  9 10  1  0  0  0  0
  9 31  1  0  0  0  0
  9 32  1  0  0  0  0
 10 11  2  0  0  0  0
 10 12  1  0  0  0  0
 12 13  1  0  0  0  0
 12 33  1  0  0  0  0
 13 14  1  0  0  0  0
 13 34  1  0  0  0  0
 13 35  1  0  0  0  0
 14 15  1  0  0  0  0
 14 36  1  0  0  0  0
 14 37  1  0  0  0  0
 15 20  1  0  0  0  0
 15 16  1  0  0  0  0
 15 50  1  0  0  0  0
 16 17  1  0  0  0  0
 16 38  1  0  0  0  0
 16 39  1  0  0  0  0
 17 18  1  0  0  0  0
 17 40  1  0  0  0  0
 17 41  1  0  0  0  0
 18 19  1  0  0  0  0
 18 42  1  0  0  0  0
 18 43  1  0  0  0  0
 19 20  1  0  0  0  0
 19 44  1  0  0  0  0
 19 45  1  0  0  0  0
 20 21  1  0  0  0  0
 20 46  1  0  0  0  0
 21 47  1  0  0  0  0
 21 48  1  0  0  0  0
 21 49  1  0  0  0  0
M  CHG  1  15   1
M  END
> <s_m_source_file>
AV-unprocessed.smi

> <i_m_source_file_index>
564

> <i_lp_mmshare_version>
43012

> <i_f3d_flags>
0

> <s_epik_input>
W0NIM11jMW5uKFtDSDNdKWMoW0NIM10pYzFbQ0gyXUMoPU8pW05IXVtDSDJdW0NIMl1OMltDSDJdW0NIMl1bQ0gyXVtDSDJdW0NASF0yW0NIM10=

> <s_epik_cmdline>
J2VwaWtfcHl0aG9uJywgJy1waCcsICc3LjAnLCAnLXRuJywgJzgnLCAnLW1hJywgJzIwMCcsICctbWV0YWxfYmluZGluZycsICctaW1hZScsICc8aW5maWxlLm1hZT4nLCAnLW9tYWUnLCAnPG91dGZpbGUubWFlPic=

> <r_lp_tautomer_probability>
1

> <r_epik_Ionization_Penalty>
0.00456826

> <r_epik_Ionization_Penalty_Charging>
0.00240401

> <r_epik_Ionization_Penalty_Neutral>
0.00216425

> <r_epik_State_Penalty>
-0

> <r_epik_Charging_Adjusted_Penalty>
0.00240401

> <i_epik_Tot_Q>
1

> <i_epik_Tot_abs_Q>
1

> <r_epik_Metal_State_Penalty>
-0

> <b_epik_Metal_Only>
0

> <s_lp_Force_Field>
OPLS_2005

> <r_lp_Energy>
16.0318

> <b_lp_Chiralities_Consistent>
1

> <s_lp_Variant>
AV-unprocessed.smi:564-2

> <Gold.Version>
5.8.1

> <Gold.Id.Protein>
6NUR|6NUR_protein|mol2

> <Gold.PLP.Fitness>
44.3403

> <Gold.PLP.PLP>
-36.3017

> <Gold.PLP.part.hbond>
-2.0000

> <Gold.PLP.part.metal>
0.0000

> <Gold.PLP.part.buried>
-2.1522

> <Gold.PLP.part.nonpolar>
-32.2870

> <Gold.PLP.part.repulsive>
0.1297

> <Gold.PLP.ligand.clash>
0.0000

> <Gold.PLP.ligand.torsion>
0.5114

> <Gold.PLP.Chemscore.Hbond>
3.0000

> <Gold.PLP.Chemscore.CHOScore>
0.0000

> <Gold.PLP.Chemscore.Metal>
0.0000

> <Gold.Chemscore.Hbonds>
donor molecule, donor type, donor heavy atom, donor atom, acceptor molecule, acceptor atom, score
      L1  H    12    33       P1  7957  1.00
      L1  H    15    50       P1  7948  2.00

> <Gold.PLP.Chemscore.Internal.Correction>
0.0614

> <Gold.Rescore>
     Score         DG    S(hbond)    S(metal)    S(lipo)     H(rot)  DE(clash)    DE(int)     intcor
     16.68     -18.05       1.99        0.00      85.91       1.61       0.13       1.24       ----

> <Gold.Chemscore.Fitness>
16.6807

> <Gold.Chemscore.DG>
-18.0545

> <Gold.Chemscore.ZeroCoef>
-5.4800

> <Gold.Chemscore.Hbond>
1.9925

> <Gold.Chemscore.Metal>
0.0000

> <Gold.Chemscore.Lipo>
85.9148

> <Gold.Chemscore.Internal_Hbond>
0.0000

> <Gold.Chemscore.DEClash>
0.1334

> <Gold.Chemscore.DEInternal>
1.2403

> <Gold.Chemscore.Rot>
1.6142

> <Gold.Chemscore.Internal.Correction>
   9.000000E+99

> <Gold.Chemscore.Hbonds>
donor molecule, donor type, donor heavy atom, donor atom, acceptor molecule, acceptor atom, score
      L1  H    12    33       P1  7957  1.00
      L1  H    15    50       P1  7948  0.99

> <Gold.Chemscore.Hbond.Weighted>
-6.6549

> <Gold.Chemscore.Metal.Weighted>
-0.0000

> <Gold.Chemscore.Lipo.Weighted>
-10.0520

> <Gold.Chemscore.Internal_Hbond.Weighted>
0.0000

> <Gold.Chemscore.DEClash.Weighted>
0.1334

> <Gold.Chemscore.DEInternal.Weighted>
1.2403

> <Gold.Chemscore.Rot.Weighted>
4.1324

> <Gold.Chemscore.Internal.Correction.Weighted>
   9.000000E+99

> <Gold.Protein.RotatedTorsions>
[ 6907 6896 6895 6894 ] final  147.72 input  -60.11 | X-H torsion
[ 7974 7965 7964 7962 ] final  -66.81 input  175.53 | X-H torsion
[ 8008 7997 7996 7995 ] final -176.77 input   59.86 | X-H torsion
[ 10167 10162 10161 10158 ] final  133.13 input  -65.29 | X-H torsion
[ 10718 10713 10712 10709 ] final   29.16 input   66.30 | X-H torsion
[ 10763 10752 10751 10750 ] final  175.19 input  -60.55 | X-H torsion
[ 11005 11000 10999 10996 ] final  142.11 input  -57.11 | X-H torsion

> <Gold.Protein.ActiveResidues>
 VAL166  LYS551  ARG553  GLY616  TRP617  ASP618  TYR619  PRO620  LYS621  CYS622 
 ASP623  PHE694  ASN695  SER759  ASP760  ASP761  ALA762  ILE779  LEU786  VAL792 
 PHE793  MET794  SER795  GLU796  ALA797  LYS798  CYS799  TRP800  GLU811  SER814 

> <Gold.Protein.RotatedAtoms>
  152.1511  133.4522  159.4813 H   0  0  0  0  0  0  0  0  0  0  0  0  # atno 6907 bound_to 6896
  150.6895  134.2188  159.4397 H   0  0  0  0  0  0  0  0  0  0  0  0  # atno 6908 bound_to 6896
  152.0085  134.9889  160.0618 H   0  0  0  0  0  0  0  0  0  0  0  0  # atno 6909 bound_to 6896
  145.7371  140.8970  143.0549 H   0  0  0  0  0  0  0  0  0  0  0  0  # atno 7974 bound_to 7965
  155.9989  140.1216  157.0567 H   0  0  0  0  0  0  0  0  0  0  0  0  # atno 8008 bound_to 7997
  154.4236  140.1111  156.5738 H   0  0  0  0  0  0  0  0  0  0  0  0  # atno 8009 bound_to 7997
  155.6240  140.3472  155.4663 H   0  0  0  0  0  0  0  0  0  0  0  0  # atno 8010 bound_to 7997
  139.5310  144.6630  151.4952 H   0  0  0  0  0  0  0  0  0  0  0  0  # atno 10167 bound_to 10162
  157.2429  130.7078  149.6367 H   0  0  0  0  0  0  0  0  0  0  0  0  # atno 10718 bound_to 10713
  154.4641  135.2769  155.1691 H   0  0  0  0  0  0  0  0  0  0  0  0  # atno 10763 bound_to 10752
  154.3466  135.6159  153.5626 H   0  0  0  0  0  0  0  0  0  0  0  0  # atno 10764 bound_to 10752
  152.9857  135.5801  154.5010 H   0  0  0  0  0  0  0  0  0  0  0  0  # atno 10765 bound_to 10752
  140.0452  134.9284  157.0916 H   0  0  0  0  0  0  0  0  0  0  0  0  # atno 11005 bound_to 11000
  144.6879  139.9410  143.7475 LP  0  0  0  0  0  0  0  0  0  0  0  0  # atno 17320 bound_to 7965
  146.0483  139.3486  143.0655 LP  0  0  0  0  0  0  0  0  0  0  0  0  # atno 17321 bound_to 7965
  140.6488  143.8740  150.6764 LP  0  0  0  0  0  0  0  0  0  0  0  0  # atno 17342 bound_to 10162
  140.2098  143.3892  152.1727 LP  0  0  0  0  0  0  0  0  0  0  0  0  # atno 17343 bound_to 10162
  155.9669  130.4452  150.5492 LP  0  0  0  0  0  0  0  0  0  0  0  0  # atno 17370 bound_to 10713
  157.3359  131.0708  151.1825 LP  0  0  0  0  0  0  0  0  0  0  0  0  # atno 17371 bound_to 10713
  140.4005  134.2088  155.7163 LP  0  0  0  0  0  0  0  0  0  0  0  0  # atno 17394 bound_to 11000
  141.1903  133.8219  157.0923 LP  0  0  0  0  0  0  0  0  0  0  0  0  # atno 17395 bound_to 11000

$$$$
