AV-unprocessed.smi:3147|AV-procd|sdf|11989|dock10
  -GOLD-   2272017393D 1   1.00000     0.00000
 Structure written by MMmdl.
 36 37  0  0  0  0  0  0  0  0  1 V2000
  152.6808  143.1815  162.6619 C   0  0  0  0  0  0  0  0  0  0  0  0
  152.2704  143.5855  161.2800 C   0  0  0  0  0  0  0  0  0  0  0  0
  151.6497  144.8086  161.0372 N   0  0  0  0  0  0  0  0  0  0  0  0
  151.4499  144.8070  159.7266 C   0  0  0  0  0  0  0  0  0  0  0  0
  151.8773  143.7024  159.0989 N   0  0  0  0  0  0  0  0  0  0  0  0
  151.7876  143.4265  157.6728 C   0  0  0  0  0  0  0  0  0  0  0  0
  150.9968  142.1506  157.3584 C   0  0  0  0  0  0  0  0  0  0  0  0
  151.4559  141.0365  157.6147 O   0  0  0  0  0  0  0  0  0  0  0  0
  149.7918  142.3381  156.7996 N   0  0  0  0  0  0  0  0  0  0  0  0
  148.8465  141.2797  156.4566 C   0  0  0  0  0  0  0  0  0  0  0  0
  148.6028  141.1708  154.9388 C   0  0  2  0  0  0  0  0  0  0  0  0
  147.4570  142.0230  154.3851 C   0  0  0  0  0  0  0  0  0  0  0  0
  147.0998  141.2646  153.1272 C   0  0  0  0  0  0  0  0  0  0  0  0
  147.2606  139.8185  153.5852 C   0  0  0  0  0  0  0  0  0  0  0  0
  148.3091  139.8305  154.5499 O   0  0  0  0  0  0  0  0  0  0  0  0
  152.4183  142.8932  160.0968 C   0  0  0  0  0  0  0  0  0  0  0  0
  153.0262  141.5541  159.8312 C   0  0  0  0  0  0  0  0  0  0  0  0
  152.2276  142.2308  162.9434 H   0  0  0  0  0  0  0  0  0  0  0  0
  152.3800  143.9220  163.4035 H   0  0  0  0  0  0  0  0  0  0  0  0
  153.7626  143.0662  162.7308 H   0  0  0  0  0  0  0  0  0  0  0  0
  150.9797  145.6309  159.2098 H   0  0  0  0  0  0  0  0  0  0  0  0
  151.3228  144.2808  157.1792 H   0  0  0  0  0  0  0  0  0  0  0  0
  152.7957  143.3327  157.2669 H   0  0  0  0  0  0  0  0  0  0  0  0
  149.4965  143.2865  156.6190 H   0  0  0  0  0  0  0  0  0  0  0  0
  149.2555  140.3386  156.8249 H   0  0  0  0  0  0  0  0  0  0  0  0
  147.9001  141.4241  156.9802 H   0  0  0  0  0  0  0  0  0  0  0  0
  149.5192  141.4500  154.4165 H   0  0  0  0  0  0  0  0  0  0  0  0
  146.6001  142.0324  155.0596 H   0  0  0  0  0  0  0  0  0  0  0  0
  147.7505  143.0554  154.1934 H   0  0  0  0  0  0  0  0  0  0  0  0
  146.0977  141.4870  152.7597 H   0  0  0  0  0  0  0  0  0  0  0  0
  147.8150  141.4916  152.3355 H   0  0  0  0  0  0  0  0  0  0  0  0
  146.3476  139.4738  154.0712 H   0  0  0  0  0  0  0  0  0  0  0  0
  147.4830  139.1400  152.7616 H   0  0  0  0  0  0  0  0  0  0  0  0
  153.3345  141.0702  160.7578 H   0  0  0  0  0  0  0  0  0  0  0  0
  153.9071  141.6510  159.1968 H   0  0  0  0  0  0  0  0  0  0  0  0
  152.3168  140.8954  159.3303 H   0  0  0  0  0  0  0  0  0  0  0  0
  1  2  1  0  0  0  0
  1 18  1  0  0  0  0
  1 19  1  0  0  0  0
  1 20  1  0  0  0  0
  2 16  2  0  0  0  0
  2  3  1  0  0  0  0
  3  4  2  0  0  0  0
  4  5  1  0  0  0  0
  4 21  1  0  0  0  0
  5  6  1  0  0  0  0
  5 16  1  0  0  0  0
  6  7  1  0  0  0  0
  6 22  1  0  0  0  0
  6 23  1  0  0  0  0
  7  8  2  0  0  0  0
  7  9  1  0  0  0  0
  9 10  1  0  0  0  0
  9 24  1  0  0  0  0
 10 11  1  0  0  0  0
 10 25  1  0  0  0  0
 10 26  1  0  0  0  0
 11 15  1  0  0  0  0
 11 12  1  0  0  0  0
 11 27  1  0  0  0  0
 12 13  1  0  0  0  0
 12 28  1  0  0  0  0
 12 29  1  0  0  0  0
 13 14  1  0  0  0  0
 13 30  1  0  0  0  0
 13 31  1  0  0  0  0
 14 15  1  0  0  0  0
 14 32  1  0  0  0  0
 14 33  1  0  0  0  0
 16 17  1  0  0  0  0
 17 34  1  0  0  0  0
 17 35  1  0  0  0  0
 17 36  1  0  0  0  0
M  END
> <s_m_source_file>
AV-unprocessed.smi

> <i_m_source_file_index>
3147

> <i_lp_mmshare_version>
43012

> <i_f3d_flags>
0

> <s_epik_input>
W0NIM11jMW5bY0hdbihjMVtDSDNdKVtDSDJdQyg9TylbTkhdW0NIMl1bQ0BASF0yW0NIMl1bQ0gyXVtDSDJdTzI=

> <s_epik_cmdline>
J2VwaWtfcHl0aG9uJywgJy1waCcsICc3LjAnLCAnLXRuJywgJzgnLCAnLW1hJywgJzIwMCcsICctbWV0YWxfYmluZGluZycsICctaW1hZScsICc8aW5maWxlLm1hZT4nLCAnLW9tYWUnLCAnPG91dGZpbGUubWFlPic=

> <r_lp_tautomer_probability>
1

> <r_epik_Ionization_Penalty>
0.957393

> <r_epik_Ionization_Penalty_Charging>
0.957393

> <r_epik_Ionization_Penalty_Neutral>
1.43432e-07

> <r_epik_State_Penalty>
1.0022

> <r_epik_Charging_Adjusted_Penalty>
1.9596

> <i_epik_Tot_Q>
0

> <i_epik_Tot_abs_Q>
0

> <r_epik_Metal_State_Penalty>
0.374967

> <b_epik_Metal_Only>
0

> <s_lp_Force_Field>
OPLS_2005

> <r_lp_Energy>
19.2408

> <b_lp_Chiralities_Consistent>
1

> <s_lp_Variant>
AV-unprocessed.smi:3147-3

> <Gold.Version>
5.8.1

> <Gold.Id.Protein>
6NUR|6NUR_protein|mol2

> <Gold.PLP.Fitness>
43.3720

> <Gold.PLP.PLP>
-41.3826

> <Gold.PLP.part.hbond>
-1.0000

> <Gold.PLP.part.metal>
0.0000

> <Gold.PLP.part.buried>
-6.2157

> <Gold.PLP.part.nonpolar>
-33.9024

> <Gold.PLP.part.repulsive>
0.5168

> <Gold.PLP.ligand.clash>
0.0000

> <Gold.PLP.ligand.torsion>
0.5056

> <Gold.PLP.Chemscore.Hbond>
1.0000

> <Gold.PLP.Chemscore.CHOScore>
0.0000

> <Gold.PLP.Chemscore.Metal>
0.0000

> <Gold.Chemscore.Hbonds>
donor molecule, donor type, donor heavy atom, donor atom, acceptor molecule, acceptor atom, score
      L1  H     9    24       P1  8028  1.00

> <Gold.PLP.Chemscore.Internal.Correction>
0.0006

> <Gold.Rescore>
     Score         DG    S(hbond)    S(metal)    S(lipo)     H(rot)  DE(clash)    DE(int)     intcor
     13.23     -15.33       1.00        0.00      93.06       1.70       0.23       1.86       ----

> <Gold.Chemscore.Fitness>
13.2337

> <Gold.Chemscore.DG>
-15.3302

> <Gold.Chemscore.ZeroCoef>
-5.4800

> <Gold.Chemscore.Hbond>
0.9950

> <Gold.Chemscore.Metal>
0.0000

> <Gold.Chemscore.Lipo>
93.0563

> <Gold.Chemscore.Internal_Hbond>
0.0000

> <Gold.Chemscore.DEClash>
0.2330

> <Gold.Chemscore.DEInternal>
1.8636

> <Gold.Chemscore.Rot>
1.7034

> <Gold.Chemscore.Internal.Correction>
   9.000000E+99

> <Gold.Chemscore.Hbonds>
donor molecule, donor type, donor heavy atom, donor atom, acceptor molecule, acceptor atom, score
      L1  H     9    24       P1  8028  0.99

> <Gold.Chemscore.Hbond.Weighted>
-3.3233

> <Gold.Chemscore.Metal.Weighted>
-0.0000

> <Gold.Chemscore.Lipo.Weighted>
-10.8876

> <Gold.Chemscore.Internal_Hbond.Weighted>
0.0000

> <Gold.Chemscore.DEClash.Weighted>
0.2330

> <Gold.Chemscore.DEInternal.Weighted>
1.8636

> <Gold.Chemscore.Rot.Weighted>
4.3607

> <Gold.Chemscore.Internal.Correction.Weighted>
   9.000000E+99

> <Gold.Protein.RotatedTorsions>
[ 6907 6896 6895 6894 ] final  -24.75 input  -60.11 | X-H torsion
[ 7974 7965 7964 7962 ] final -178.04 input  175.53 | X-H torsion
[ 8008 7997 7996 7995 ] final  -83.82 input   59.86 | X-H torsion
[ 10167 10162 10161 10158 ] final  -61.70 input  -65.29 | X-H torsion
[ 10718 10713 10712 10709 ] final  -16.82 input   66.30 | X-H torsion
[ 10763 10752 10751 10750 ] final  -10.72 input  -60.55 | X-H torsion
[ 11005 11000 10999 10996 ] final -101.64 input  -57.11 | X-H torsion

> <Gold.Protein.ActiveResidues>
 VAL166  LYS551  ARG553  GLY616  TRP617  ASP618  TYR619  PRO620  LYS621  CYS622 
 ASP623  PHE694  ASN695  SER759  ASP760  ASP761  ALA762  ILE779  LEU786  VAL792 
 PHE793  MET794  SER795  GLU796  ALA797  LYS798  CYS799  TRP800  GLU811  SER814 

> <Gold.Protein.RotatedAtoms>
  151.1850  135.0377  159.8808 H   0  0  0  0  0  0  0  0  0  0  0  0  # atno 6907 bound_to 6896
  152.5443  134.1020  159.8332 H   0  0  0  0  0  0  0  0  0  0  0  0  # atno 6908 bound_to 6896
  151.1142  133.5104  159.2636 H   0  0  0  0  0  0  0  0  0  0  0  0  # atno 6909 bound_to 6896
  144.7129  140.0929  143.6420 H   0  0  0  0  0  0  0  0  0  0  0  0  # atno 7974 bound_to 7965
  154.6231  140.0613  156.9640 H   0  0  0  0  0  0  0  0  0  0  0  0  # atno 8008 bound_to 7997
  155.1785  140.3297  155.4361 H   0  0  0  0  0  0  0  0  0  0  0  0  # atno 8009 bound_to 7997
  156.2442  140.1902  156.6883 H   0  0  0  0  0  0  0  0  0  0  0  0  # atno 8010 bound_to 7997
  140.5989  143.2357  151.5974 H   0  0  0  0  0  0  0  0  0  0  0  0  # atno 10167 bound_to 10162
  156.5822  130.4777  149.6315 H   0  0  0  0  0  0  0  0  0  0  0  0  # atno 10718 bound_to 10713
  153.4733  135.7017  153.5981 H   0  0  0  0  0  0  0  0  0  0  0  0  # atno 10763 bound_to 10752
  153.4225  135.3822  155.2120 H   0  0  0  0  0  0  0  0  0  0  0  0  # atno 10764 bound_to 10752
  154.8724  135.3931  154.4173 H   0  0  0  0  0  0  0  0  0  0  0  0  # atno 10765 bound_to 10752
  141.1222  133.8494  157.1258 H   0  0  0  0  0  0  0  0  0  0  0  0  # atno 11005 bound_to 11000
  145.9605  139.2797  143.1158 LP  0  0  0  0  0  0  0  0  0  0  0  0  # atno 17320 bound_to 7965
  145.9226  140.9104  143.0397 LP  0  0  0  0  0  0  0  0  0  0  0  0  # atno 17321 bound_to 7965
  139.5277  144.3009  152.1074 LP  0  0  0  0  0  0  0  0  0  0  0  0  # atno 17342 bound_to 10162
  140.2187  144.4489  150.6352 LP  0  0  0  0  0  0  0  0  0  0  0  0  # atno 17343 bound_to 10162
  156.2622  130.6969  151.1740 LP  0  0  0  0  0  0  0  0  0  0  0  0  # atno 17370 bound_to 10713
  157.7324  131.0600  150.5631 LP  0  0  0  0  0  0  0  0  0  0  0  0  # atno 17371 bound_to 10713
  140.0189  134.9955  157.0551 LP  0  0  0  0  0  0  0  0  0  0  0  0  # atno 17394 bound_to 11000
  140.4473  134.1619  155.7178 LP  0  0  0  0  0  0  0  0  0  0  0  0  # atno 17395 bound_to 11000

$$$$
