AV-unprocessed.smi:2176|AV-procd|sdf|8847|dock6
  -GOLD-   2272012 43D 1   1.00000     0.00000
 Structure written by MMmdl.
 28 29  0  0  0  0  0  0  0  0  2 V2000
  152.0193  142.0844  158.4125 O   0  0  0  0  0  0  0  0  0  0  0  0
  151.2171  142.4702  157.5612 C   0  0  0  0  0  0  0  0  0  0  0  0
  150.1928  141.4985  156.9612 C   0  0  0  0  0  0  0  0  0  0  0  0
  150.7870  140.1948  156.6258 N   0  0  0  0  0  0  0  0  0  0  0  0
  151.2838  139.4085  157.6801 C   0  0  0  0  0  0  0  0  0  0  0  0
  151.8381  138.2001  157.4649 C   0  0  0  0  0  0  0  0  0  0  0  0
  151.9172  137.7110  156.0940 C   0  0  0  0  0  0  0  0  0  0  0  0
  152.4248  136.6122  155.8784 O   0  0  0  0  0  0  0  0  0  0  0  0
  151.4174  138.5091  155.1058 N   0  5  0  0  0  0  0  0  0  0  0  0
  150.8538  139.7348  155.3397 C   0  0  0  0  0  0  0  0  0  0  0  0
  150.4064  140.4381  154.4328 O   0  0  0  0  0  0  0  0  0  0  0  0
  151.1948  143.7236  157.0868 N   0  0  0  0  0  0  0  0  0  0  0  0
  152.0715  144.7942  157.5375 C   0  0  0  0  0  0  0  0  0  0  0  0
  152.3901  144.7449  159.0169 C   0  0  0  0  0  0  0  0  0  0  0  0
  151.3107  144.4285  160.0252 C   0  0  0  0  0  0  0  0  0  0  0  0
  151.8920  145.8207  159.9531 C   0  0  0  0  0  0  0  0  0  0  0  0
  149.3530  141.3640  157.6459 H   0  0  0  0  0  0  0  0  0  0  0  0
  149.7648  141.9633  156.0722 H   0  0  0  0  0  0  0  0  0  0  0  0
  151.1807  139.8407  158.6645 H   0  0  0  0  0  0  0  0  0  0  0  0
  152.2118  137.6066  158.2861 H   0  0  0  0  0  0  0  0  0  0  0  0
  150.5049  143.9565  156.3873 H   0  0  0  0  0  0  0  0  0  0  0  0
  153.0052  144.7707  156.9723 H   0  0  0  0  0  0  0  0  0  0  0  0
  151.5942  145.7503  157.3191 H   0  0  0  0  0  0  0  0  0  0  0  0
  153.3728  144.3324  159.2394 H   0  0  0  0  0  0  0  0  0  0  0  0
  150.2964  144.2891  159.6562 H   0  0  0  0  0  0  0  0  0  0  0  0
  151.5850  143.8131  160.8795 H   0  0  0  0  0  0  0  0  0  0  0  0
  152.5570  146.1326  160.7557 H   0  0  0  0  0  0  0  0  0  0  0  0
  151.2659  146.6064  159.5347 H   0  0  0  0  0  0  0  0  0  0  0  0
  1  2  2  0  0  0  0
  2  3  1  0  0  0  0
  2 12  1  0  0  0  0
  3  4  1  0  0  0  0
  3 17  1  0  0  0  0
  3 18  1  0  0  0  0
  4 10  1  0  0  0  0
  4  5  1  0  0  0  0
  5  6  2  0  0  0  0
  5 19  1  0  0  0  0
  6  7  1  0  0  0  0
  6 20  1  0  0  0  0
  7  8  2  0  0  0  0
  7  9  1  0  0  0  0
  9 10  1  0  0  0  0
 10 11  2  0  0  0  0
 12 13  1  0  0  0  0
 12 21  1  0  0  0  0
 13 14  1  0  0  0  0
 13 22  1  0  0  0  0
 13 23  1  0  0  0  0
 14 16  1  0  0  0  0
 14 15  1  0  0  0  0
 14 24  1  0  0  0  0
 15 16  1  0  0  0  0
 15 25  1  0  0  0  0
 15 26  1  0  0  0  0
 16 27  1  0  0  0  0
 16 28  1  0  0  0  0
M  CHG  1   9  -1
M  END
> <s_m_source_file>
AV-unprocessed.smi

> <i_m_source_file_index>
2176

> <i_lp_mmshare_version>
43012

> <i_f3d_flags>
0

> <s_epik_input>
W0NIMl0xW0NIMl1bQ0hdMVtDSDJdW05IXUMoPU8pW0NIMl1uMltjSF1bY0hdYyg9TylbbkhdYzI9Tw==

> <s_epik_cmdline>
J2VwaWtfcHl0aG9uJywgJy1waCcsICc3LjAnLCAnLXRuJywgJzgnLCAnLW1hJywgJzIwMCcsICctbWV0YWxfYmluZGluZycsICctaW1hZScsICc8aW5maWxlLm1hZT4nLCAnLW9tYWUnLCAnPG91dGZpbGUubWFlPic=

> <r_lp_tautomer_probability>
0.999537

> <r_epik_Ionization_Penalty>
3.07884

> <r_epik_Ionization_Penalty_Charging>
2.64713e-08

> <r_epik_Ionization_Penalty_Neutral>
3.07884

> <r_epik_State_Penalty>
3.07787

> <r_epik_Charging_Adjusted_Penalty>
3.07787

> <i_epik_Tot_Q>
-1

> <i_epik_Tot_abs_Q>
1

> <r_epik_Metal_State_Penalty>
0.459857

> <b_epik_Metal_Only>
1

> <s_lp_Force_Field>
OPLS_2005

> <r_lp_Energy>
21.5126

> <b_lp_Chiralities_Consistent>
1

> <s_lp_Variant>
AV-unprocessed.smi:2176-2

> <Gold.Version>
5.8.1

> <Gold.Id.Protein>
6NUR|6NUR_protein|mol2

> <Gold.PLP.Fitness>
39.9563

> <Gold.PLP.PLP>
-32.0704

> <Gold.PLP.part.hbond>
-2.7640

> <Gold.PLP.part.metal>
0.0000

> <Gold.PLP.part.buried>
-5.6754

> <Gold.PLP.part.nonpolar>
-23.6934

> <Gold.PLP.part.repulsive>
0.2082

> <Gold.PLP.ligand.clash>
0.0000

> <Gold.PLP.ligand.torsion>
0.8276

> <Gold.PLP.Chemscore.Hbond>
3.0000

> <Gold.PLP.Chemscore.CHOScore>
0.0000

> <Gold.PLP.Chemscore.Metal>
0.0000

> <Gold.Chemscore.Hbonds>
donor molecule, donor type, donor heavy atom, donor atom, acceptor molecule, acceptor atom, score
      L1  H    12    21       P1  8028  1.00
      P1  H  7989  7998       L1    11  1.00
      P1  H 10752 10764       L1     8  1.00

> <Gold.PLP.Chemscore.Internal.Correction>
0.5411

> <Gold.Rescore>
     Score         DG    S(hbond)    S(metal)    S(lipo)     H(rot)  DE(clash)    DE(int)     intcor
     13.99     -17.66       2.90        0.00      64.91       1.99       0.23       3.44       ----

> <Gold.Chemscore.Fitness>
13.9876

> <Gold.Chemscore.DG>
-17.6593

> <Gold.Chemscore.ZeroCoef>
-5.4800

> <Gold.Chemscore.Hbond>
2.8974

> <Gold.Chemscore.Metal>
0.0000

> <Gold.Chemscore.Lipo>
64.9146

> <Gold.Chemscore.Internal_Hbond>
0.0000

> <Gold.Chemscore.DEClash>
0.2313

> <Gold.Chemscore.DEInternal>
3.4404

> <Gold.Chemscore.Rot>
1.9895

> <Gold.Chemscore.Internal.Correction>
   9.000000E+99

> <Gold.Chemscore.Hbonds>
donor molecule, donor type, donor heavy atom, donor atom, acceptor molecule, acceptor atom, score
      L1  H    12    21       P1  8028  0.99
      P1  H  7989  7998       L1    11  0.65
      P1  H 10752 10764       L1     8  0.92

> <Gold.Chemscore.Hbond.Weighted>
-9.6774

> <Gold.Chemscore.Metal.Weighted>
-0.0000

> <Gold.Chemscore.Lipo.Weighted>
-7.5950

> <Gold.Chemscore.Internal_Hbond.Weighted>
0.0000

> <Gold.Chemscore.DEClash.Weighted>
0.2313

> <Gold.Chemscore.DEInternal.Weighted>
3.4404

> <Gold.Chemscore.Rot.Weighted>
5.0931

> <Gold.Chemscore.Internal.Correction.Weighted>
   9.000000E+99

> <Gold.Protein.RotatedTorsions>
[ 6907 6896 6895 6894 ] final   57.18 input  -60.11 | X-H torsion
[ 7974 7965 7964 7962 ] final  142.47 input  175.53 | X-H torsion
[ 8008 7997 7996 7995 ] final -170.93 input   59.86 | X-H torsion
[ 10167 10162 10161 10158 ] final   52.61 input  -65.29 | X-H torsion
[ 10718 10713 10712 10709 ] final -174.78 input   66.30 | X-H torsion
[ 10763 10752 10751 10750 ] final  -31.28 input  -60.55 | X-H torsion
[ 11005 11000 10999 10996 ] final   22.43 input  -57.11 | X-H torsion

> <Gold.Protein.ActiveResidues>
 VAL166  LYS551  ARG553  GLY616  TRP617  ASP618  TYR619  PRO620  LYS621  CYS622 
 ASP623  PHE694  ASN695  SER759  ASP760  ASP761  ALA762  ILE779  LEU786  VAL792 
 PHE793  MET794  SER795  GLU796  ALA797  LYS798  CYS799  TRP800  GLU811  SER814 

> <Gold.Protein.RotatedAtoms>
  152.3707  134.6738  160.0176 H   0  0  0  0  0  0  0  0  0  0  0  0  # atno 6907 bound_to 6896
  151.7032  133.3306  159.3280 H   0  0  0  0  0  0  0  0  0  0  0  0  # atno 6908 bound_to 6896
  150.7672  134.6533  159.6344 H   0  0  0  0  0  0  0  0  0  0  0  0  # atno 6909 bound_to 6896
  144.9005  139.5430  143.5756 H   0  0  0  0  0  0  0  0  0  0  0  0  # atno 7974 bound_to 7965
  155.9249  140.1080  157.1178 H   0  0  0  0  0  0  0  0  0  0  0  0  # atno 8008 bound_to 7997
  154.4060  140.1249  156.4792 H   0  0  0  0  0  0  0  0  0  0  0  0  # atno 8009 bound_to 7997
  155.7151  140.3470  155.4993 H   0  0  0  0  0  0  0  0  0  0  0  0  # atno 8010 bound_to 7997
  140.2495  144.3494  150.6353 H   0  0  0  0  0  0  0  0  0  0  0  0  # atno 10167 bound_to 10162
  156.7901  130.9515  151.3120 H   0  0  0  0  0  0  0  0  0  0  0  0  # atno 10718 bound_to 10713
  153.7948  135.6895  153.4865 H   0  0  0  0  0  0  0  0  0  0  0  0  # atno 10763 bound_to 10752
  153.1726  135.4537  154.9921 H   0  0  0  0  0  0  0  0  0  0  0  0  # atno 10764 bound_to 10752
  154.8030  135.3345  154.7442 H   0  0  0  0  0  0  0  0  0  0  0  0  # atno 10765 bound_to 10752
  140.3806  134.1924  155.7664 H   0  0  0  0  0  0  0  0  0  0  0  0  # atno 11005 bound_to 11000
  146.3105  139.7731  142.9023 LP  0  0  0  0  0  0  0  0  0  0  0  0  # atno 17320 bound_to 7965
  145.3625  141.0328  143.3277 LP  0  0  0  0  0  0  0  0  0  0  0  0  # atno 17321 bound_to 7965
  140.6051  143.2167  151.6996 LP  0  0  0  0  0  0  0  0  0  0  0  0  # atno 17342 bound_to 10162
  139.5051  144.3731  152.0450 LP  0  0  0  0  0  0  0  0  0  0  0  0  # atno 17343 bound_to 10162
  157.6605  130.8961  149.9819 LP  0  0  0  0  0  0  0  0  0  0  0  0  # atno 17370 bound_to 10713
  156.1164  130.3647  149.9961 LP  0  0  0  0  0  0  0  0  0  0  0  0  # atno 17371 bound_to 10713
  141.1924  133.8173  157.0838 LP  0  0  0  0  0  0  0  0  0  0  0  0  # atno 17394 bound_to 11000
  140.0481  134.9820  157.1086 LP  0  0  0  0  0  0  0  0  0  0  0  0  # atno 17395 bound_to 11000

$$$$
