AV-unprocessed.smi:1971|AV-procd|sdf|7969|dock5
  -GOLD-   2272010143D 1   1.00000     0.00000
 Structure written by MMmdl.
 43 44  0  0  0  0  0  0  0  0  3 V2000
  152.1373  144.8849  158.8862 C   0  0  0  0  0  0  0  0  0  0  0  0
  152.2434  143.4118  159.3064 C   0  0  0  0  0  0  0  0  0  0  0  0
  152.1616  142.4828  158.1522 N   0  3  0  0  0  0  0  0  0  0  0  0
  151.0049  142.7774  157.2704 C   0  0  0  0  0  0  0  0  0  0  0  0
  150.9642  141.8041  156.0700 C   0  0  0  0  0  0  0  0  0  0  0  0
  150.8959  140.3983  156.4973 N   0  0  0  0  0  0  0  0  0  0  0  0
  149.6224  140.0155  157.1478 C   0  0  1  0  0  0  0  0  0  0  0  0
  148.4321  140.3236  156.2086 C   0  0  0  0  0  0  0  0  0  0  0  0
  149.6030  138.5194  157.5670 C   0  0  0  0  0  0  0  0  0  0  0  0
  148.7038  138.2661  158.6891 N   0  0  0  0  0  0  0  0  0  0  0  0
  148.6804  137.1509  159.4337 C   0  0  0  0  0  0  0  0  0  0  0  0
  149.4550  136.2248  159.1790 O   0  0  0  0  0  0  0  0  0  0  0  0
  147.7651  137.1796  160.4279 N   0  5  0  0  0  0  0  0  0  0  0  0
  147.3574  136.0352  161.0005 C   0  0  0  0  0  0  0  0  0  0  0  0
  146.5368  136.0001  162.0567 N   0  0  0  0  0  0  0  0  0  0  0  0
  146.2354  134.7054  162.4827 C   0  0  0  0  0  0  0  0  0  0  0  0
  146.8353  133.7316  161.7292 C   0  0  0  0  0  0  0  0  0  0  0  0
  147.8019  134.4161  160.4538 S   0  0  0  0  0  0  0  0  0  0  0  0
  152.1145  140.1575  157.2827 C   0  0  0  0  0  0  0  0  0  0  0  0
  152.1682  141.0497  158.5400 C   0  0  0  0  0  0  0  0  0  0  0  0
  152.0996  145.5319  159.7629 H   0  0  0  0  0  0  0  0  0  0  0  0
  151.2325  145.0651  158.3050 H   0  0  0  0  0  0  0  0  0  0  0  0
  152.9918  145.2022  158.2891 H   0  0  0  0  0  0  0  0  0  0  0  0
  153.1643  143.2360  159.8644 H   0  0  0  0  0  0  0  0  0  0  0  0
  151.4213  143.1989  159.9912 H   0  0  0  0  0  0  0  0  0  0  0  0
  150.0767  142.7447  157.8415 H   0  0  0  0  0  0  0  0  0  0  0  0
  151.0962  143.7968  156.8944 H   0  0  0  0  0  0  0  0  0  0  0  0
  150.1427  142.0575  155.4030 H   0  0  0  0  0  0  0  0  0  0  0  0
  151.8644  141.9394  155.4686 H   0  0  0  0  0  0  0  0  0  0  0  0
  149.4917  140.6063  158.0526 H   0  0  0  0  0  0  0  0  0  0  0  0
  147.4870  139.9765  156.6261 H   0  0  0  0  0  0  0  0  0  0  0  0
  148.5561  139.8390  155.2396 H   0  0  0  0  0  0  0  0  0  0  0  0
  148.2990  141.3909  156.0404 H   0  0  0  0  0  0  0  0  0  0  0  0
  149.2923  137.8957  156.7284 H   0  0  0  0  0  0  0  0  0  0  0  0
  150.5856  138.1630  157.8734 H   0  0  0  0  0  0  0  0  0  0  0  0
  148.0518  138.9988  158.9285 H   0  0  0  0  0  0  0  0  0  0  0  0
  145.5826  134.5694  163.3319 H   0  0  0  0  0  0  0  0  0  0  0  0
  146.7673  132.6604  161.8441 H   0  0  0  0  0  0  0  0  0  0  0  0
  152.2206  139.1065  157.5440 H   0  0  0  0  0  0  0  0  0  0  0  0
  152.9810  140.3707  156.6551 H   0  0  0  0  0  0  0  0  0  0  0  0
  153.0808  140.8197  159.0880 H   0  0  0  0  0  0  0  0  0  0  0  0
  151.3387  140.8333  159.2146 H   0  0  0  0  0  0  0  0  0  0  0  0
  152.9879  142.6376  157.5926 H   0  0  0  0  0  0  0  0  0  0  0  0
  1  2  1  0  0  0  0
  1 21  1  0  0  0  0
  1 22  1  0  0  0  0
  1 23  1  0  0  0  0
  2  3  1  0  0  0  0
  2 24  1  0  0  0  0
  2 25  1  0  0  0  0
  3 20  1  0  0  0  0
  3  4  1  0  0  0  0
  3 43  1  0  0  0  0
  4  5  1  0  0  0  0
  4 26  1  0  0  0  0
  4 27  1  0  0  0  0
  5  6  1  0  0  0  0
  5 28  1  0  0  0  0
  5 29  1  0  0  0  0
  6  7  1  0  0  0  0
  6 19  1  0  0  0  0
  7  8  1  0  0  0  0
  7  9  1  0  0  0  0
  7 30  1  0  0  0  0
  8 31  1  0  0  0  0
  8 32  1  0  0  0  0
  8 33  1  0  0  0  0
  9 10  1  0  0  0  0
  9 34  1  0  0  0  0
  9 35  1  0  0  0  0
 10 11  1  0  0  0  0
 10 36  1  0  0  0  0
 11 12  2  0  0  0  0
 11 13  1  0  0  0  0
 13 14  1  0  0  0  0
 14 18  1  0  0  0  0
 14 15  2  0  0  0  0
 15 16  1  0  0  0  0
 16 17  2  0  0  0  0
 16 37  1  0  0  0  0
 17 18  1  0  0  0  0
 17 38  1  0  0  0  0
 19 20  1  0  0  0  0
 19 39  1  0  0  0  0
 19 40  1  0  0  0  0
 20 41  1  0  0  0  0
 20 42  1  0  0  0  0
M  CHG  1   3   1
M  CHG  1  13  -1
M  END
> <s_m_source_file>
AV-unprocessed.smi

> <i_m_source_file_index>
1971

> <i_lp_mmshare_version>
43012

> <i_f3d_flags>
0

> <s_epik_input>
W0NIM11bQ0gyXU4xW0NIMl1bQ0gyXU4oW0NIMl1bQ0gyXTEpW0NASF0oW0NIM10pW0NIMl1bTkhdQyg9TylbTkhdYzJuW2NIXVtjSF1zMg==

> <s_epik_cmdline>
J2VwaWtfcHl0aG9uJywgJy1waCcsICc3LjAnLCAnLXRuJywgJzgnLCAnLW1hJywgJzIwMCcsICctbWV0YWxfYmluZGluZycsICctaW1hZScsICc8aW5maWxlLm1hZT4nLCAnLW9tYWUnLCAnPG91dGZpbGUubWFlPic=

> <r_lp_tautomer_probability>
0.999

> <r_epik_Ionization_Penalty>
7.06996

> <r_epik_Ionization_Penalty_Charging>
5.92347

> <r_epik_Ionization_Penalty_Neutral>
1.14649

> <r_epik_State_Penalty>
6.04391

> <r_epik_Charging_Adjusted_Penalty>
11.9674

> <i_epik_Tot_Q>
0

> <i_epik_Tot_abs_Q>
2

> <r_epik_Metal_State_Penalty>
2.01291

> <b_epik_Metal_Only>
1

> <s_lp_Force_Field>
OPLS_2005

> <r_lp_Energy>
11.7698

> <b_lp_Chiralities_Consistent>
1

> <s_lp_Variant>
AV-unprocessed.smi:1971-8

> <Gold.Version>
5.8.1

> <Gold.Id.Protein>
6NUR|6NUR_protein|mol2

> <Gold.PLP.Fitness>
46.2692

> <Gold.PLP.PLP>
-34.6092

> <Gold.PLP.part.hbond>
-3.0000

> <Gold.PLP.part.metal>
0.0000

> <Gold.PLP.part.buried>
-3.5836

> <Gold.PLP.part.nonpolar>
-29.7259

> <Gold.PLP.part.repulsive>
1.1278

> <Gold.PLP.ligand.clash>
0.0000

> <Gold.PLP.ligand.torsion>
0.4845

> <Gold.PLP.Chemscore.Hbond>
4.1712

> <Gold.PLP.Chemscore.CHOScore>
0.0000

> <Gold.PLP.Chemscore.Metal>
0.0000

> <Gold.Chemscore.Hbonds>
donor molecule, donor type, donor heavy atom, donor atom, acceptor molecule, acceptor atom, score
      P1  H  6896  6907       L1    12  0.91
      P1  H  6931  6943       L1    13  0.63
      P1  H  6934  6947       L1    13  1.76

> <Gold.PLP.Chemscore.Internal.Correction>
0.1154

> <Gold.Rescore>
     Score         DG    S(hbond)    S(metal)    S(lipo)     H(rot)  DE(clash)    DE(int)     intcor
     15.03     -17.15       1.79        0.00      86.94       1.75       0.05       2.08       ----

> <Gold.Chemscore.Fitness>
15.0254

> <Gold.Chemscore.DG>
-17.1527

> <Gold.Chemscore.ZeroCoef>
-5.4800

> <Gold.Chemscore.Hbond>
1.7910

> <Gold.Chemscore.Metal>
0.0000

> <Gold.Chemscore.Lipo>
86.9419

> <Gold.Chemscore.Internal_Hbond>
0.0000

> <Gold.Chemscore.DEClash>
0.0521

> <Gold.Chemscore.DEInternal>
2.0752

> <Gold.Chemscore.Rot>
1.7505

> <Gold.Chemscore.Internal.Correction>
   9.000000E+99

> <Gold.Chemscore.Hbonds>
donor molecule, donor type, donor heavy atom, donor atom, acceptor molecule, acceptor atom, score
      P1  H  6896  6907       L1    12  0.85
      P1  H  6931  6943       L1    13  0.03
      P1  H  6934  6947       L1    13  0.71

> <Gold.Chemscore.Hbond.Weighted>
-5.9818

> <Gold.Chemscore.Metal.Weighted>
-0.0000

> <Gold.Chemscore.Lipo.Weighted>
-10.1722

> <Gold.Chemscore.Internal_Hbond.Weighted>
0.0000

> <Gold.Chemscore.DEClash.Weighted>
0.0521

> <Gold.Chemscore.DEInternal.Weighted>
2.0752

> <Gold.Chemscore.Rot.Weighted>
4.4813

> <Gold.Chemscore.Internal.Correction.Weighted>
   9.000000E+99

> <Gold.Protein.RotatedTorsions>
[ 6907 6896 6895 6894 ] final  -69.48 input  -60.11 | X-H torsion
[ 7974 7965 7964 7962 ] final  -10.69 input  175.53 | X-H torsion
[ 8008 7997 7996 7995 ] final   66.76 input   59.86 | X-H torsion
[ 10167 10162 10161 10158 ] final -143.27 input  -65.29 | X-H torsion
[ 10718 10713 10712 10709 ] final -125.25 input   66.30 | X-H torsion
[ 10763 10752 10751 10750 ] final -114.20 input  -60.55 | X-H torsion
[ 11005 11000 10999 10996 ] final  156.99 input  -57.11 | X-H torsion

> <Gold.Protein.ActiveResidues>
 VAL166  LYS551  ARG553  GLY616  TRP617  ASP618  TYR619  PRO620  LYS621  CYS622 
 ASP623  PHE694  ASN695  SER759  ASP760  ASP761  ALA762  ILE779  LEU786  VAL792 
 PHE793  MET794  SER795  GLU796  ALA797  LYS798  CYS799  TRP800  GLU811  SER814 

> <Gold.Protein.RotatedAtoms>
  150.7303  134.5590  159.5832 H   0  0  0  0  0  0  0  0  0  0  0  0  # atno 6907 bound_to 6896
  152.3058  134.7553  160.0356 H   0  0  0  0  0  0  0  0  0  0  0  0  # atno 6908 bound_to 6896
  151.8118  133.3347  159.3594 H   0  0  0  0  0  0  0  0  0  0  0  0  # atno 6909 bound_to 6896
  146.2212  140.2801  142.8362 H   0  0  0  0  0  0  0  0  0  0  0  0  # atno 7974 bound_to 7965
  155.6824  140.3496  155.4861 H   0  0  0  0  0  0  0  0  0  0  0  0  # atno 8008 bound_to 7997
  155.9595  140.1134  157.0930 H   0  0  0  0  0  0  0  0  0  0  0  0  # atno 8009 bound_to 7997
  154.4140  140.1178  156.5146 H   0  0  0  0  0  0  0  0  0  0  0  0  # atno 8010 bound_to 7997
  139.8009  143.7835  152.2658 H   0  0  0  0  0  0  0  0  0  0  0  0  # atno 10167 bound_to 10162
  156.1659  130.6634  151.0114 H   0  0  0  0  0  0  0  0  0  0  0  0  # atno 10718 bound_to 10713
  154.8430  135.4426  154.1468 H   0  0  0  0  0  0  0  0  0  0  0  0  # atno 10763 bound_to 10752
  153.2639  135.6939  153.7556 H   0  0  0  0  0  0  0  0  0  0  0  0  # atno 10764 bound_to 10752
  153.6822  135.3401  155.3156 H   0  0  0  0  0  0  0  0  0  0  0  0  # atno 10765 bound_to 10752
  140.1727  134.8531  157.2710 H   0  0  0  0  0  0  0  0  0  0  0  0  # atno 11005 bound_to 11000
  144.9204  140.7861  143.5752 LP  0  0  0  0  0  0  0  0  0  0  0  0  # atno 17320 bound_to 7965
  145.2737  139.1945  143.4828 LP  0  0  0  0  0  0  0  0  0  0  0  0  # atno 17321 bound_to 7965
  139.7955  144.7394  150.9897 LP  0  0  0  0  0  0  0  0  0  0  0  0  # atno 17342 bound_to 10162
  140.7820  143.4398  151.0568 LP  0  0  0  0  0  0  0  0  0  0  0  0  # atno 17343 bound_to 10162
  157.6767  131.0848  150.7475 LP  0  0  0  0  0  0  0  0  0  0  0  0  # atno 17370 bound_to 10713
  156.7536  130.4776  149.5451 LP  0  0  0  0  0  0  0  0  0  0  0  0  # atno 17371 bound_to 10713
  140.2358  134.3854  155.7501 LP  0  0  0  0  0  0  0  0  0  0  0  0  # atno 17394 bound_to 11000
  141.2218  133.7239  156.8712 LP  0  0  0  0  0  0  0  0  0  0  0  0  # atno 17395 bound_to 11000

$$$$
