AV-unprocessed.smi:837|AV-procd|sdf|3907|dock6
  -GOLD-   22720 1373D 1   1.00000     0.00000
 Structure written by MMmdl.
 49 51  0  0  0  0  0  0  0  0  3 V2000
  152.0516  138.4104  159.2300 C   0  0  0  0  0  0  0  0  0  0  0  0
  151.7307  139.9087  159.0435 C   0  0  1  0  0  0  0  0  0  0  0  0
  152.7299  140.7834  159.8309 C   0  0  0  0  0  0  0  0  0  0  0  0
  152.3650  142.2731  159.7571 C   0  0  0  0  0  0  0  0  0  0  0  0
  152.2775  142.7493  158.3014 C   0  0  0  0  0  0  0  0  0  0  0  0
  151.2809  141.8979  157.4959 C   0  0  0  0  0  0  0  0  0  0  0  0
  151.6013  140.3814  157.5583 C   0  0  1  0  0  0  0  0  0  0  0  0
  152.7998  140.0901  156.7851 N   0  5  0  0  0  0  0  0  0  0  0  0
  152.4647  139.3009  155.7390 C   0  0  0  0  0  0  0  0  0  0  0  0
  153.2242  138.8678  154.8725 O   0  0  0  0  0  0  0  0  0  0  0  0
  151.1497  139.0114  155.7511 N   0  0  0  0  0  0  0  0  0  0  0  0
  150.4837  138.1212  154.7934 C   0  0  0  0  0  0  0  0  0  0  0  0
  150.7197  136.6499  155.1497 C   0  0  0  0  0  0  0  0  0  0  0  0
  151.5170  136.3444  156.0363 O   0  0  0  0  0  0  0  0  0  0  0  0
  150.0194  135.7520  154.4414 N   0  0  0  0  0  0  0  0  0  0  0  0
  150.1299  134.3009  154.5568 C   0  0  0  0  0  0  0  0  0  0  0  0
  148.7996  133.6042  154.9212 C   0  0  0  0  0  0  0  0  0  0  0  0
  147.8869  133.3270  153.7354 C   0  0  0  0  0  0  0  0  0  0  0  0
  146.6185  133.9438  153.6486 C   0  0  0  0  0  0  0  0  0  0  0  0
  145.7841  133.6628  152.5471 C   0  0  0  0  0  0  0  0  0  0  0  0
  146.2328  132.7646  151.5585 C   0  0  0  0  0  0  0  0  0  0  0  0
  147.4519  132.1940  151.6729 N   0  3  0  0  0  0  0  0  0  0  0  0
  148.2836  132.4429  152.7084 C   0  0  0  0  0  0  0  0  0  0  0  0
  150.5461  139.5973  156.7905 C   0  0  0  0  0  0  0  0  0  0  0  0
  149.3580  139.5250  157.1073 O   0  0  0  0  0  0  0  0  0  0  0  0
  153.0354  138.1650  158.8339 H   0  0  0  0  0  0  0  0  0  0  0  0
  151.3219  137.7680  158.7372 H   0  0  0  0  0  0  0  0  0  0  0  0
  152.0511  138.1429  160.2866 H   0  0  0  0  0  0  0  0  0  0  0  0
  150.7561  140.0652  159.5094 H   0  0  0  0  0  0  0  0  0  0  0  0
  152.7542  140.4716  160.8755 H   0  0  0  0  0  0  0  0  0  0  0  0
  153.7390  140.6347  159.4445 H   0  0  0  0  0  0  0  0  0  0  0  0
  151.4094  142.4413  160.2551 H   0  0  0  0  0  0  0  0  0  0  0  0
  153.1049  142.8640  160.2973 H   0  0  0  0  0  0  0  0  0  0  0  0
  151.9777  143.7969  158.2716 H   0  0  0  0  0  0  0  0  0  0  0  0
  153.2645  142.6997  157.8401 H   0  0  0  0  0  0  0  0  0  0  0  0
  150.2792  142.0752  157.8911 H   0  0  0  0  0  0  0  0  0  0  0  0
  151.2586  142.2456  156.4614 H   0  0  0  0  0  0  0  0  0  0  0  0
  149.4087  138.3074  154.7765 H   0  0  0  0  0  0  0  0  0  0  0  0
  150.8370  138.3320  153.7823 H   0  0  0  0  0  0  0  0  0  0  0  0
  149.3848  136.1047  153.7395 H   0  0  0  0  0  0  0  0  0  0  0  0
  150.5446  133.8795  153.6403 H   0  0  0  0  0  0  0  0  0  0  0  0
  150.8608  134.1059  155.3417 H   0  0  0  0  0  0  0  0  0  0  0  0
  149.0167  132.6614  155.4248 H   0  0  0  0  0  0  0  0  0  0  0  0
  148.2558  134.2090  155.6473 H   0  0  0  0  0  0  0  0  0  0  0  0
  146.2816  134.6188  154.4219 H   0  0  0  0  0  0  0  0  0  0  0  0
  144.8064  134.1155  152.4706 H   0  0  0  0  0  0  0  0  0  0  0  0
  145.6547  132.4824  150.6907 H   0  0  0  0  0  0  0  0  0  0  0  0
  149.2294  131.9219  152.6887 H   0  0  0  0  0  0  0  0  0  0  0  0
  147.7549  131.5431  150.9484 H   0  0  0  0  0  0  0  0  0  0  0  0
  1  2  1  0  0  0  0
  1 26  1  0  0  0  0
  1 27  1  0  0  0  0
  1 28  1  0  0  0  0
  2  7  1  0  0  0  0
  2  3  1  0  0  0  0
  2 29  1  0  0  0  0
  3  4  1  0  0  0  0
  3 30  1  0  0  0  0
  3 31  1  0  0  0  0
  4  5  1  0  0  0  0
  4 32  1  0  0  0  0
  4 33  1  0  0  0  0
  5  6  1  0  0  0  0
  5 34  1  0  0  0  0
  5 35  1  0  0  0  0
  6  7  1  0  0  0  0
  6 36  1  0  0  0  0
  6 37  1  0  0  0  0
  7 24  1  0  0  0  0
  7  8  1  0  0  0  0
  8  9  1  0  0  0  0
  9 10  2  0  0  0  0
  9 11  1  0  0  0  0
 11 12  1  0  0  0  0
 11 24  1  0  0  0  0
 12 13  1  0  0  0  0
 12 38  1  0  0  0  0
 12 39  1  0  0  0  0
 13 14  2  0  0  0  0
 13 15  1  0  0  0  0
 15 16  1  0  0  0  0
 15 40  1  0  0  0  0
 16 17  1  0  0  0  0
 16 41  1  0  0  0  0
 16 42  1  0  0  0  0
 17 18  1  0  0  0  0
 17 43  1  0  0  0  0
 17 44  1  0  0  0  0
 18 23  1  0  0  0  0
 18 19  2  0  0  0  0
 19 20  1  0  0  0  0
 19 45  1  0  0  0  0
 20 21  2  0  0  0  0
 20 46  1  0  0  0  0
 21 22  1  0  0  0  0
 21 47  1  0  0  0  0
 22 23  2  0  0  0  0
 22 49  1  0  0  0  0
 23 48  1  0  0  0  0
 24 25  2  0  0  0  0
M  CHG  1   8  -1
M  CHG  1  22   1
M  END
> <s_m_source_file>
AV-unprocessed.smi

> <i_m_source_file_index>
837

> <i_lp_mmshare_version>
43012

> <i_f3d_flags>
0

> <s_epik_input>
W0NIMl0xW0NIMl1bQ0gyXVtDSDJdW0NAQEhdKFtDSDNdKVtDQEBdMTJbTkhdQyg9TylOKEMyPU8pW0NIMl1DKD1PKVtOSF1bQ0gyXVtDSDJdYzNbY0hdW2NIXVtjSF1uW2NIXTM=

> <s_epik_cmdline>
J2VwaWtfcHl0aG9uJywgJy1waCcsICc3LjAnLCAnLXRuJywgJzgnLCAnLW1hJywgJzIwMCcsICctbWV0YWxfYmluZGluZycsICctaW1hZScsICc8aW5maWxlLm1hZT4nLCAnLW9tYWUnLCAnPG91dGZpbGUubWFlPic=

> <r_lp_tautomer_probability>
1

> <r_epik_Ionization_Penalty>
8.27169

> <r_epik_Ionization_Penalty_Charging>
8.27169

> <r_epik_Ionization_Penalty_Neutral>
1.56557e-07

> <r_epik_State_Penalty>
8.42098

> <r_epik_Charging_Adjusted_Penalty>
16.6927

> <i_epik_Tot_Q>
0

> <i_epik_Tot_abs_Q>
2

> <r_epik_Metal_State_Penalty>
4.38565

> <b_epik_Metal_Only>
1

> <s_lp_Force_Field>
OPLS_2005

> <r_lp_Energy>
17.1627

> <b_lp_Chiralities_Consistent>
1

> <s_lp_Variant>
AV-unprocessed.smi:837-16

> <Gold.Version>
5.8.1

> <Gold.Id.Protein>
6NUR|6NUR_protein|mol2

> <Gold.PLP.Fitness>
51.3687

> <Gold.PLP.PLP>
-38.2236

> <Gold.PLP.part.hbond>
-5.5394

> <Gold.PLP.part.metal>
0.0000

> <Gold.PLP.part.buried>
0.3787

> <Gold.PLP.part.nonpolar>
-32.7726

> <Gold.PLP.part.repulsive>
0.1413

> <Gold.PLP.ligand.clash>
0.0000

> <Gold.PLP.ligand.torsion>
0.4949

> <Gold.PLP.Chemscore.Hbond>
4.7033

> <Gold.PLP.Chemscore.CHOScore>
0.0000

> <Gold.PLP.Chemscore.Metal>
0.0000

> <Gold.Chemscore.Hbonds>
donor molecule, donor type, donor heavy atom, donor atom, acceptor molecule, acceptor atom, score
      L1  H    15    40       P1  7948  0.91
      L1  H    22    49       P1 10747  0.91
      P1  H  7997  8009       L1     8  2.00
      P1  H 10752 10765       L1    14  0.68

> <Gold.PLP.Chemscore.Internal.Correction>
0.0252

> <Gold.Rescore>
     Score         DG    S(hbond)    S(metal)    S(lipo)     H(rot)  DE(clash)    DE(int)     intcor
     19.13     -19.89       2.62        0.00      90.31       1.92       0.23       0.53       ----

> <Gold.Chemscore.Fitness>
19.1294

> <Gold.Chemscore.DG>
-19.8897

> <Gold.Chemscore.ZeroCoef>
-5.4800

> <Gold.Chemscore.Hbond>
2.6203

> <Gold.Chemscore.Metal>
0.0000

> <Gold.Chemscore.Lipo>
90.3118

> <Gold.Chemscore.Internal_Hbond>
0.0000

> <Gold.Chemscore.DEClash>
0.2277

> <Gold.Chemscore.DEInternal>
0.5326

> <Gold.Chemscore.Rot>
1.9175

> <Gold.Chemscore.Internal.Correction>
   9.000000E+99

> <Gold.Chemscore.Hbonds>
donor molecule, donor type, donor heavy atom, donor atom, acceptor molecule, acceptor atom, score
      L1  H    15    40       P1  7948  0.65
      L1  H    22    49       P1 10747  0.84
      P1  H  7997  8009       L1     8  0.24
      P1  H 10752 10765       L1    14  0.10

> <Gold.Chemscore.Hbond.Weighted>
-8.7519

> <Gold.Chemscore.Metal.Weighted>
-0.0000

> <Gold.Chemscore.Lipo.Weighted>
-10.5665

> <Gold.Chemscore.Internal_Hbond.Weighted>
0.0000

> <Gold.Chemscore.DEClash.Weighted>
0.2277

> <Gold.Chemscore.DEInternal.Weighted>
0.5326

> <Gold.Chemscore.Rot.Weighted>
4.9087

> <Gold.Chemscore.Internal.Correction.Weighted>
   9.000000E+99

> <Gold.Protein.RotatedTorsions>
[ 6907 6896 6895 6894 ] final -114.45 input  -60.11 | X-H torsion
[ 7974 7965 7964 7962 ] final -119.98 input  175.53 | X-H torsion
[ 8008 7997 7996 7995 ] final -179.04 input   59.86 | X-H torsion
[ 10167 10162 10161 10158 ] final  -34.91 input  -65.29 | X-H torsion
[ 10718 10713 10712 10709 ] final -101.06 input   66.30 | X-H torsion
[ 10763 10752 10751 10750 ] final -170.40 input  -60.55 | X-H torsion
[ 11005 11000 10999 10996 ] final  104.63 input  -57.11 | X-H torsion

> <Gold.Protein.ActiveResidues>
 VAL166  LYS551  ARG553  GLY616  TRP617  ASP618  TYR619  PRO620  LYS621  CYS622 
 ASP623  PHE694  ASN695  SER759  ASP760  ASP761  ALA762  ILE779  LEU786  VAL792 
 PHE793  MET794  SER795  GLU796  ALA797  LYS798  CYS799  TRP800  GLU811  SER814 

> <Gold.Protein.RotatedAtoms>
  150.7903  133.8799  159.3282 H   0  0  0  0  0  0  0  0  0  0  0  0  # atno 6907 bound_to 6896
  151.6638  135.0984  160.0194 H   0  0  0  0  0  0  0  0  0  0  0  0  # atno 6908 bound_to 6896
  152.3976  133.6731  159.6324 H   0  0  0  0  0  0  0  0  0  0  0  0  # atno 6909 bound_to 6896
  145.0565  140.8258  143.4178 H   0  0  0  0  0  0  0  0  0  0  0  0  # atno 7974 bound_to 7965
  156.0259  140.1271  157.0309 H   0  0  0  0  0  0  0  0  0  0  0  0  # atno 8008 bound_to 7997
  154.4330  140.1059  156.6100 H   0  0  0  0  0  0  0  0  0  0  0  0  # atno 8009 bound_to 7997
  155.5878  140.3469  155.4560 H   0  0  0  0  0  0  0  0  0  0  0  0  # atno 8010 bound_to 7997
  140.7176  143.3515  151.2147 H   0  0  0  0  0  0  0  0  0  0  0  0  # atno 10167 bound_to 10162
  156.0182  130.5356  150.6907 H   0  0  0  0  0  0  0  0  0  0  0  0  # atno 10718 bound_to 10713
  154.6419  135.2899  155.0093 H   0  0  0  0  0  0  0  0  0  0  0  0  # atno 10763 bound_to 10752
  154.1217  135.6547  153.4908 H   0  0  0  0  0  0  0  0  0  0  0  0  # atno 10764 bound_to 10752
  153.0331  135.5289  154.7289 H   0  0  0  0  0  0  0  0  0  0  0  0  # atno 10765 bound_to 10752
  139.8794  134.9307  156.5391 H   0  0  0  0  0  0  0  0  0  0  0  0  # atno 11005 bound_to 11000
  145.1462  139.2542  143.5464 LP  0  0  0  0  0  0  0  0  0  0  0  0  # atno 17320 bound_to 7965
  146.3521  140.1153  142.8602 LP  0  0  0  0  0  0  0  0  0  0  0  0  # atno 17321 bound_to 7965
  139.7046  143.9476  152.2921 LP  0  0  0  0  0  0  0  0  0  0  0  0  # atno 17342 bound_to 10162
  139.9181  144.6816  150.8491 LP  0  0  0  0  0  0  0  0  0  0  0  0  # atno 17343 bound_to 10162
  157.4589  131.0881  151.0766 LP  0  0  0  0  0  0  0  0  0  0  0  0  # atno 17370 bound_to 10713
  157.1260  130.6082  149.5517 LP  0  0  0  0  0  0  0  0  0  0  0  0  # atno 17371 bound_to 10713
  140.8324  133.8269  155.8996 LP  0  0  0  0  0  0  0  0  0  0  0  0  # atno 17394 bound_to 11000
  140.9316  134.2015  157.4860 LP  0  0  0  0  0  0  0  0  0  0  0  0  # atno 17395 bound_to 11000

$$$$
