AV-unprocessed.smi:281|AV-procd|sdf|2108|dock9
  -GOLD-   2262021403D 1   1.00000     0.00000
 Structure written by MMmdl.
 55 59  0  0  0  0  0  0  0  0  1 V2000
  146.9638  134.6717  156.2094 C   0  0  0  0  0  0  0  0  0  0  0  0
  147.4461  135.0891  157.6026 C   0  0  1  0  0  0  0  0  0  0  0  0
  148.5312  136.1778  157.5354 C   0  0  0  0  0  0  0  0  0  0  0  0
  148.8794  136.6103  158.8815 N   0  0  0  0  0  0  0  0  0  0  0  0
  149.9443  137.4350  158.9550 C   0  0  0  0  0  0  0  0  0  0  0  0
  151.0586  136.9480  159.5529 N   0  0  0  0  0  0  0  0  0  0  0  0
  152.1460  137.7173  159.6644 C   0  0  0  0  0  0  0  0  0  0  0  0
  152.3249  138.9753  159.2551 N   0  0  0  0  0  0  0  0  0  0  0  0
  151.2023  139.4682  158.6567 C   0  0  0  0  0  0  0  0  0  0  0  0
  149.9740  138.7737  158.4713 C   0  0  0  0  0  0  0  0  0  0  0  0
  149.0522  139.6016  157.8423 N   0  0  0  0  0  0  0  0  0  0  0  0
  149.7009  140.7188  157.6593 C   0  0  0  0  0  0  0  0  0  0  0  0
  151.0035  140.7225  158.1056 N   0  0  0  0  0  0  0  0  0  0  0  0
  151.9526  141.8228  158.0232 C   0  0  0  0  0  0  0  0  0  0  0  0
  151.2875  143.2013  157.7887 C   0  0  2  0  0  0  0  0  0  0  0  0
  150.7903  143.2518  156.4639 O   0  0  0  0  0  0  0  0  0  0  0  0
  152.2593  144.3649  158.0015 C   0  0  0  0  0  0  0  0  0  0  0  0
  151.7617  145.0222  159.2836 C   0  0  0  0  0  0  0  0  0  0  0  0
  150.3595  144.8422  159.2024 O   0  0  0  0  0  0  0  0  0  0  0  0
  150.1374  143.5085  158.7688 C   0  0  0  0  0  0  0  0  0  0  0  0
  147.7281  137.0909  159.6317 C   0  0  0  0  0  0  0  0  0  0  0  0
  146.6144  136.0136  159.6654 C   0  0  1  0  0  0  0  0  0  0  0  0
  146.9612  134.8305  160.5645 C   0  0  0  0  0  0  0  0  0  0  0  0
  146.5386  135.3126  161.9471 C   0  0  0  0  0  0  0  0  0  0  0  0
  145.4291  136.1746  161.7268 O   0  0  0  0  0  0  0  0  0  0  0  0
  145.3075  136.4782  160.3396 C   0  0  1  0  0  0  0  0  0  0  0  0
  144.9042  137.9456  160.1356 C   0  0  0  0  0  0  0  0  0  0  0  0
  146.3219  135.5850  158.3312 O   0  0  0  0  0  0  0  0  0  0  0  0
  147.7841  134.2707  155.6137 H   0  0  0  0  0  0  0  0  0  0  0  0
  146.5393  135.5181  155.6686 H   0  0  0  0  0  0  0  0  0  0  0  0
  146.1957  133.9011  156.2780 H   0  0  0  0  0  0  0  0  0  0  0  0
  147.8455  134.2062  158.1032 H   0  0  0  0  0  0  0  0  0  0  0  0
  149.4184  135.7961  157.0281 H   0  0  0  0  0  0  0  0  0  0  0  0
  148.1646  137.0247  156.9548 H   0  0  0  0  0  0  0  0  0  0  0  0
  152.9943  137.2594  160.1512 H   0  0  0  0  0  0  0  0  0  0  0  0
  149.2427  141.5754  157.1867 H   0  0  0  0  0  0  0  0  0  0  0  0
  152.5332  141.8400  158.9467 H   0  0  0  0  0  0  0  0  0  0  0  0
  152.6610  141.6046  157.2229 H   0  0  0  0  0  0  0  0  0  0  0  0
  150.1428  143.9383  156.4129 H   0  0  0  0  0  0  0  0  0  0  0  0
  153.3019  144.0534  158.0757 H   0  0  0  0  0  0  0  0  0  0  0  0
  152.1927  145.0856  157.1845 H   0  0  0  0  0  0  0  0  0  0  0  0
  152.1497  144.5080  160.1647 H   0  0  0  0  0  0  0  0  0  0  0  0
  152.0308  146.0764  159.3505 H   0  0  0  0  0  0  0  0  0  0  0  0
  149.1449  143.3878  158.3327 H   0  0  0  0  0  0  0  0  0  0  0  0
  150.1901  142.8675  159.6494 H   0  0  0  0  0  0  0  0  0  0  0  0
  148.0271  137.3716  160.6426 H   0  0  0  0  0  0  0  0  0  0  0  0
  147.3625  137.9956  159.1449 H   0  0  0  0  0  0  0  0  0  0  0  0
  146.3589  133.9646  160.2860 H   0  0  0  0  0  0  0  0  0  0  0  0
  148.0092  134.5325  160.5246 H   0  0  0  0  0  0  0  0  0  0  0  0
  146.2781  134.4899  162.6131 H   0  0  0  0  0  0  0  0  0  0  0  0
  147.3395  135.8857  162.4153 H   0  0  0  0  0  0  0  0  0  0  0  0
  144.4964  135.8482  159.9700 H   0  0  0  0  0  0  0  0  0  0  0  0
  144.8325  138.1883  159.0751 H   0  0  0  0  0  0  0  0  0  0  0  0
  145.6207  138.6280  160.5934 H   0  0  0  0  0  0  0  0  0  0  0  0
  143.9322  138.1439  160.5872 H   0  0  0  0  0  0  0  0  0  0  0  0
  1  2  1  0  0  0  0
  1 29  1  0  0  0  0
  1 30  1  0  0  0  0
  1 31  1  0  0  0  0
  2 28  1  0  0  0  0
  2  3  1  0  0  0  0
  2 32  1  0  0  0  0
  3  4  1  0  0  0  0
  3 33  1  0  0  0  0
  3 34  1  0  0  0  0
  4  5  1  0  0  0  0
  4 21  1  0  0  0  0
  5 10  1  0  0  0  0
  5  6  2  0  0  0  0
  6  7  1  0  0  0  0
  7  8  2  0  0  0  0
  7 35  1  0  0  0  0
  8  9  1  0  0  0  0
  9 13  1  0  0  0  0
  9 10  2  0  0  0  0
 10 11  1  0  0  0  0
 11 12  2  0  0  0  0
 12 13  1  0  0  0  0
 12 36  1  0  0  0  0
 13 14  1  0  0  0  0
 14 15  1  0  0  0  0
 14 37  1  0  0  0  0
 14 38  1  0  0  0  0
 15 20  1  0  0  0  0
 15 16  1  0  0  0  0
 15 17  1  0  0  0  0
 16 39  1  0  0  0  0
 17 18  1  0  0  0  0
 17 40  1  0  0  0  0
 17 41  1  0  0  0  0
 18 19  1  0  0  0  0
 18 42  1  0  0  0  0
 18 43  1  0  0  0  0
 19 20  1  0  0  0  0
 20 44  1  0  0  0  0
 20 45  1  0  0  0  0
 21 22  1  0  0  0  0
 21 46  1  0  0  0  0
 21 47  1  0  0  0  0
 22 26  1  0  0  0  0
 22 23  1  0  0  0  0
 22 28  1  0  0  0  0
 23 24  1  0  0  0  0
 23 48  1  0  0  0  0
 23 49  1  0  0  0  0
 24 25  1  0  0  0  0
 24 50  1  0  0  0  0
 24 51  1  0  0  0  0
 25 26  1  0  0  0  0
 26 27  1  0  0  0  0
 26 52  1  0  0  0  0
 27 53  1  0  0  0  0
 27 54  1  0  0  0  0
 27 55  1  0  0  0  0
M  END
> <s_m_source_file>
AV-unprocessed.smi

> <i_m_source_file_index>
281

> <i_lp_mmshare_version>
43012

> <i_f3d_flags>
0

> <s_epik_input>
W0NIM11bQ0BASF0xT1tDSDJdW0NIMl1bQ0BAXTEyW0NIMl1OKFtDSDJdW0NASF0oTzIpW0NIM10pYyhuW2NIXW4zKWMoYzM0KW5bY0hdbjRbQ0gyXVtDQEBdNShbT0hdKVtDSDJdW0NIMl1PW0NIMl01

> <s_epik_cmdline>
J2VwaWtfcHl0aG9uJywgJy1waCcsICc3LjAnLCAnLXRuJywgJzgnLCAnLW1hJywgJzIwMCcsICctbWV0YWxfYmluZGluZycsICctaW1hZScsICc8aW5maWxlLm1hZT4nLCAnLW9tYWUnLCAnPG91dGZpbGUubWFlPic=

> <r_lp_tautomer_probability>
1

> <r_epik_Ionization_Penalty>
0.00571331

> <r_epik_Ionization_Penalty_Charging>
0

> <r_epik_Ionization_Penalty_Neutral>
0.00571331

> <r_epik_State_Penalty>
0.00399586

> <r_epik_Charging_Adjusted_Penalty>
0.00399586

> <i_epik_Tot_Q>
0

> <i_epik_Tot_abs_Q>
0

> <r_epik_Metal_State_Penalty>
-0

> <b_epik_Metal_Only>
0

> <s_lp_Force_Field>
OPLS_2005

> <r_lp_Energy>
55.9706

> <b_lp_Chiralities_Consistent>
1

> <s_lp_Variant>
AV-unprocessed.smi:281-8

> <Gold.Version>
5.8.1

> <Gold.Id.Protein>
6NUR|6NUR_protein|mol2

> <Gold.PLP.Fitness>
45.5368

> <Gold.PLP.PLP>
-40.2568

> <Gold.PLP.part.hbond>
-2.5204

> <Gold.PLP.part.metal>
0.0000

> <Gold.PLP.part.buried>
-7.9371

> <Gold.PLP.part.nonpolar>
-30.0277

> <Gold.PLP.part.repulsive>
0.1797

> <Gold.PLP.ligand.clash>
0.0000

> <Gold.PLP.ligand.torsion>
0.4282

> <Gold.PLP.Chemscore.Hbond>
2.0000

> <Gold.PLP.Chemscore.CHOScore>
0.0000

> <Gold.PLP.Chemscore.Metal>
0.0000

> <Gold.Chemscore.Hbonds>
donor molecule, donor type, donor heavy atom, donor atom, acceptor molecule, acceptor atom, score
      L1  H    16    39       P1  8028  1.00
      P1  H  6896  6907       L1     6  1.00

> <Gold.PLP.Chemscore.Internal.Correction>
0.1363

> <Gold.Rescore>
     Score         DG    S(hbond)    S(metal)    S(lipo)     H(rot)  DE(clash)    DE(int)     intcor
     16.37     -18.10       1.89        0.00      99.82       2.09       0.08       1.65       ----

> <Gold.Chemscore.Fitness>
16.3725

> <Gold.Chemscore.DG>
-18.1019

> <Gold.Chemscore.ZeroCoef>
-5.4800

> <Gold.Chemscore.Hbond>
1.8862

> <Gold.Chemscore.Metal>
0.0000

> <Gold.Chemscore.Lipo>
99.8234

> <Gold.Chemscore.Internal_Hbond>
0.0000

> <Gold.Chemscore.DEClash>
0.0833

> <Gold.Chemscore.DEInternal>
1.6461

> <Gold.Chemscore.Rot>
2.0927

> <Gold.Chemscore.Internal.Correction>
   9.000000E+99

> <Gold.Chemscore.Hbonds>
donor molecule, donor type, donor heavy atom, donor atom, acceptor molecule, acceptor atom, score
      L1  H    16    39       P1  8028  0.97
      P1  H  6896  6907       L1     6  0.85

> <Gold.Chemscore.Hbond.Weighted>
-6.2999

> <Gold.Chemscore.Metal.Weighted>
-0.0000

> <Gold.Chemscore.Lipo.Weighted>
-11.6793

> <Gold.Chemscore.Internal_Hbond.Weighted>
0.0000

> <Gold.Chemscore.DEClash.Weighted>
0.0833

> <Gold.Chemscore.DEInternal.Weighted>
1.6461

> <Gold.Chemscore.Rot.Weighted>
5.3573

> <Gold.Chemscore.Internal.Correction.Weighted>
   9.000000E+99

> <Gold.Protein.RotatedTorsions>
[ 6907 6896 6895 6894 ] final  -10.81 input  -60.11 | X-H torsion
[ 7974 7965 7964 7962 ] final  112.25 input  175.53 | X-H torsion
[ 8008 7997 7996 7995 ] final  157.24 input   59.86 | X-H torsion
[ 10167 10162 10161 10158 ] final   29.67 input  -65.29 | X-H torsion
[ 10718 10713 10712 10709 ] final  155.15 input   66.30 | X-H torsion
[ 10763 10752 10751 10750 ] final  -24.42 input  -60.55 | X-H torsion
[ 11005 11000 10999 10996 ] final -118.10 input  -57.11 | X-H torsion

> <Gold.Protein.ActiveResidues>
 VAL166  LYS551  ARG553  GLY616  TRP617  ASP618  TYR619  PRO620  LYS621  CYS622 
 ASP623  PHE694  ASN695  SER759  ASP760  ASP761  ALA762  ILE779  LEU786  VAL792 
 PHE793  MET794  SER795  GLU796  ALA797  LYS798  CYS799  TRP800  GLU811  SER814 

> <Gold.Protein.RotatedAtoms>
  151.3961  135.0964  159.9541 H   0  0  0  0  0  0  0  0  0  0  0  0  # atno 6907 bound_to 6896
  152.5065  133.8933  159.7415 H   0  0  0  0  0  0  0  0  0  0  0  0  # atno 6908 bound_to 6896
  150.9397  133.6615  159.2822 H   0  0  0  0  0  0  0  0  0  0  0  0  # atno 6909 bound_to 6896
  145.2320  139.2815  143.4163 H   0  0  0  0  0  0  0  0  0  0  0  0  # atno 7974 bound_to 7965
  156.2375  140.1890  156.7079 H   0  0  0  0  0  0  0  0  0  0  0  0  # atno 8008 bound_to 7997
  154.6134  140.0618  156.9550 H   0  0  0  0  0  0  0  0  0  0  0  0  # atno 8009 bound_to 7997
  155.1978  140.3290  155.4350 H   0  0  0  0  0  0  0  0  0  0  0  0  # atno 8010 bound_to 7997
  140.4745  144.0711  150.6247 H   0  0  0  0  0  0  0  0  0  0  0  0  # atno 10167 bound_to 10162
  157.2222  131.0721  151.1905 H   0  0  0  0  0  0  0  0  0  0  0  0  # atno 10718 bound_to 10713
  153.6835  135.6965  153.5111 H   0  0  0  0  0  0  0  0  0  0  0  0  # atno 10763 bound_to 10752
  153.2467  135.4288  155.0754 H   0  0  0  0  0  0  0  0  0  0  0  0  # atno 10764 bound_to 10752
  154.8393  135.3521  154.6378 H   0  0  0  0  0  0  0  0  0  0  0  0  # atno 10765 bound_to 10752
  141.0309  133.9983  157.3144 H   0  0  0  0  0  0  0  0  0  0  0  0  # atno 11005 bound_to 11000
  146.3350  140.2658  142.8604 LP  0  0  0  0  0  0  0  0  0  0  0  0  # atno 17320 bound_to 7965
  144.9668  140.8329  143.5480 LP  0  0  0  0  0  0  0  0  0  0  0  0  # atno 17321 bound_to 7965
  140.3935  143.2740  152.0032 LP  0  0  0  0  0  0  0  0  0  0  0  0  # atno 17342 bound_to 10162
  139.4823  144.6057  151.7525 LP  0  0  0  0  0  0  0  0  0  0  0  0  # atno 17343 bound_to 10162
  157.3564  130.7108  149.6473 LP  0  0  0  0  0  0  0  0  0  0  0  0  # atno 17370 bound_to 10713
  155.9681  130.4238  150.4578 LP  0  0  0  0  0  0  0  0  0  0  0  0  # atno 17371 bound_to 10713
  139.9207  135.0200  156.8053 LP  0  0  0  0  0  0  0  0  0  0  0  0  # atno 17394 bound_to 11000
  140.6408  133.9820  155.7707 LP  0  0  0  0  0  0  0  0  0  0  0  0  # atno 17395 bound_to 11000

$$$$
