AV-unprocessed.smi:928|AV-procd|sdf|4191|dock3
  -GOLD-   22720 2 93D 1   1.00000     0.00000
 Structure written by MMmdl.
 43 44  0  0  0  0  0  0  0  0  1 V2000
  152.6649  143.2926  158.7811 C   0  0  0  0  0  0  0  0  0  0  0  0
  152.5785  141.7800  158.5504 C   0  0  0  0  0  0  0  0  0  0  0  0
  151.7820  141.4149  157.3413 C   0  0  0  0  0  0  0  0  0  0  0  0
  151.0563  142.2531  156.5310 C   0  0  0  0  0  0  0  0  0  0  0  0
  150.4274  141.6046  155.4657 N   0  0  0  0  0  0  0  0  0  0  0  0
  150.6523  140.2886  155.4660 C   0  0  0  0  0  0  0  0  0  0  0  0
  150.1309  139.3622  154.4196 C   0  0  0  0  0  0  0  0  0  0  0  0
  148.6212  139.5362  154.1871 C   0  0  0  0  0  0  0  0  0  0  0  0
  148.0783  138.4773  153.3445 N   0  0  0  0  0  0  0  0  0  0  0  0
  146.7815  138.1484  153.2690 C   0  0  0  0  0  0  0  0  0  0  0  0
  145.8892  138.7153  153.9003 O   0  0  0  0  0  0  0  0  0  0  0  0
  146.5761  137.1295  152.4226 N   0  0  0  0  0  0  0  0  0  0  0  0
  145.2770  136.5350  152.1127 C   0  0  2  0  0  0  0  0  0  0  0  0
  144.8433  135.6867  153.3260 C   0  0  0  0  0  0  0  0  0  0  0  0
  143.5556  134.8963  153.0532 C   0  0  0  0  0  0  0  0  0  0  0  0
  143.7112  134.0094  151.8111 C   0  0  0  0  0  0  0  0  0  0  0  0
  144.0933  134.8537  150.5882 C   0  0  0  0  0  0  0  0  0  0  0  0
  145.3782  135.6685  150.8332 C   0  0  1  0  0  0  0  0  0  0  0  0
  145.5723  136.4963  149.7036 O   0  0  0  0  0  0  0  0  0  0  0  0
  151.6923  139.7633  156.7843 S   0  0  0  0  0  0  0  0  0  0  0  0
  153.2467  143.5163  159.6753 H   0  0  0  0  0  0  0  0  0  0  0  0
  151.6734  143.7270  158.9117 H   0  0  0  0  0  0  0  0  0  0  0  0
  153.1428  143.7943  157.9391 H   0  0  0  0  0  0  0  0  0  0  0  0
  153.5851  141.3711  158.4566 H   0  0  0  0  0  0  0  0  0  0  0  0
  152.1427  141.3064  159.4308 H   0  0  0  0  0  0  0  0  0  0  0  0
  150.9381  143.3217  156.6349 H   0  0  0  0  0  0  0  0  0  0  0  0
  150.6820  139.5443  153.4963 H   0  0  0  0  0  0  0  0  0  0  0  0
  150.3515  138.3361  154.7169 H   0  0  0  0  0  0  0  0  0  0  0  0
  148.0935  139.5133  155.1411 H   0  0  0  0  0  0  0  0  0  0  0  0
  148.4135  140.5102  153.7404 H   0  0  0  0  0  0  0  0  0  0  0  0
  148.7372  137.9549  152.7858 H   0  0  0  0  0  0  0  0  0  0  0  0
  147.3773  136.7368  151.9506 H   0  0  0  0  0  0  0  0  0  0  0  0
  144.5232  137.3107  151.9622 H   0  0  0  0  0  0  0  0  0  0  0  0
  145.6376  134.9861  153.5884 H   0  0  0  0  0  0  0  0  0  0  0  0
  144.7008  136.3283  154.1965 H   0  0  0  0  0  0  0  0  0  0  0  0
  143.3058  134.2830  153.9193 H   0  0  0  0  0  0  0  0  0  0  0  0
  142.7231  135.5867  152.9112 H   0  0  0  0  0  0  0  0  0  0  0  0
  144.4760  133.2526  151.9905 H   0  0  0  0  0  0  0  0  0  0  0  0
  142.7820  133.4729  151.6172 H   0  0  0  0  0  0  0  0  0  0  0  0
  144.2218  134.2063  149.7198 H   0  0  0  0  0  0  0  0  0  0  0  0
  143.2680  135.5270  150.3504 H   0  0  0  0  0  0  0  0  0  0  0  0
  146.2249  134.9850  150.9137 H   0  0  0  0  0  0  0  0  0  0  0  0
  145.1791  137.3381  149.8767 H   0  0  0  0  0  0  0  0  0  0  0  0
  1  2  1  0  0  0  0
  1 21  1  0  0  0  0
  1 22  1  0  0  0  0
  1 23  1  0  0  0  0
  2  3  1  0  0  0  0
  2 24  1  0  0  0  0
  2 25  1  0  0  0  0
  3 20  1  0  0  0  0
  3  4  2  0  0  0  0
  4  5  1  0  0  0  0
  4 26  1  0  0  0  0
  5  6  2  0  0  0  0
  6  7  1  0  0  0  0
  6 20  1  0  0  0  0
  7  8  1  0  0  0  0
  7 27  1  0  0  0  0
  7 28  1  0  0  0  0
  8  9  1  0  0  0  0
  8 29  1  0  0  0  0
  8 30  1  0  0  0  0
  9 10  1  0  0  0  0
  9 31  1  0  0  0  0
 10 11  2  0  0  0  0
 10 12  1  0  0  0  0
 12 13  1  0  0  0  0
 12 32  1  0  0  0  0
 13 18  1  0  0  0  0
 13 14  1  0  0  0  0
 13 33  1  0  0  0  0
 14 15  1  0  0  0  0
 14 34  1  0  0  0  0
 14 35  1  0  0  0  0
 15 16  1  0  0  0  0
 15 36  1  0  0  0  0
 15 37  1  0  0  0  0
 16 17  1  0  0  0  0
 16 38  1  0  0  0  0
 16 39  1  0  0  0  0
 17 18  1  0  0  0  0
 17 40  1  0  0  0  0
 17 41  1  0  0  0  0
 18 19  1  0  0  0  0
 18 42  1  0  0  0  0
 19 43  1  0  0  0  0
M  END
> <s_m_source_file>
AV-unprocessed.smi

> <i_m_source_file_index>
928

> <i_lp_mmshare_version>
43012

> <i_f3d_flags>
0

> <s_epik_input>
W0NIM11bQ0gyXWMxW2NIXW5jKHMxKVtDSDJdW0NIMl1bTkhdQyg9TylbTkhdW0NAQEhdMltDSDJdW0NIMl1bQ0gyXVtDSDJdW0NASF0yW09IXQ==

> <s_epik_cmdline>
J2VwaWtfcHl0aG9uJywgJy1waCcsICc3LjAnLCAnLXRuJywgJzgnLCAnLW1hJywgJzIwMCcsICctbWV0YWxfYmluZGluZycsICctaW1hZScsICc8aW5maWxlLm1hZT4nLCAnLW9tYWUnLCAnPG91dGZpbGUubWFlPic=

> <r_epik_Ionization_Penalty>
0.000957396

> <r_epik_Ionization_Penalty_Charging>
0

> <r_epik_Ionization_Penalty_Neutral>
0.000957396

> <r_epik_State_Penalty>
0.000586538

> <r_epik_Charging_Adjusted_Penalty>
0.000586538

> <i_epik_Tot_Q>
0

> <i_epik_Tot_abs_Q>
0

> <r_epik_Metal_State_Penalty>
-0

> <b_epik_Metal_Only>
0

> <s_lp_Force_Field>
OPLS_2005

> <r_lp_Energy>
-3.08797

> <b_lp_Chiralities_Consistent>
1

> <s_lp_Variant>
AV-unprocessed.smi:928-1

> <Gold.Version>
5.8.1

> <Gold.Id.Protein>
6NUR|6NUR_protein|mol2

> <Gold.PLP.Fitness>
47.3029

> <Gold.PLP.PLP>
-36.9044

> <Gold.PLP.part.hbond>
-5.2581

> <Gold.PLP.part.metal>
0.0000

> <Gold.PLP.part.buried>
-4.1525

> <Gold.PLP.part.nonpolar>
-28.9266

> <Gold.PLP.part.repulsive>
0.5215

> <Gold.PLP.ligand.clash>
0.0000

> <Gold.PLP.ligand.torsion>
0.4906

> <Gold.PLP.Chemscore.Hbond>
2.8480

> <Gold.PLP.Chemscore.CHOScore>
0.9126

> <Gold.PLP.Chemscore.Metal>
0.0000

> <Gold.Chemscore.Hbonds>
donor molecule, donor type, donor heavy atom, donor atom, acceptor molecule, acceptor atom, score
      L1  H     9    31       P1  7948  0.86
      L1  H    12    32       P1  7948  1.00
      L1  H    19    43       P1 10171  1.00
      L1  C     4    26       P1  8028  0.62

> <Gold.PLP.Chemscore.Internal.Correction>
0.0978

> <Gold.Rescore>
     Score         DG    S(hbond)    S(metal)    S(lipo)     H(rot)  DE(clash)    DE(int)     intcor
     19.20     -19.58       2.75        0.00      90.47       2.21       0.03       0.35       ----

> <Gold.Chemscore.Fitness>
19.1963

> <Gold.Chemscore.DG>
-19.5837

> <Gold.Chemscore.ZeroCoef>
-5.4800

> <Gold.Chemscore.Hbond>
2.7460

> <Gold.Chemscore.Metal>
0.0000

> <Gold.Chemscore.Lipo>
90.4746

> <Gold.Chemscore.Internal_Hbond>
0.0000

> <Gold.Chemscore.DEClash>
0.0328

> <Gold.Chemscore.DEInternal>
0.3546

> <Gold.Chemscore.Rot>
2.2084

> <Gold.Chemscore.Internal.Correction>
   9.000000E+99

> <Gold.Chemscore.Hbonds>
donor molecule, donor type, donor heavy atom, donor atom, acceptor molecule, acceptor atom, score
      L1  H     9    31       P1  7948  0.84
      L1  H    12    32       P1  7948  0.98
      L1  H    19    43       P1 10171  0.98

> <Gold.Chemscore.Hbond.Weighted>
-9.1718

> <Gold.Chemscore.Metal.Weighted>
-0.0000

> <Gold.Chemscore.Lipo.Weighted>
-10.5855

> <Gold.Chemscore.Internal_Hbond.Weighted>
0.0000

> <Gold.Chemscore.DEClash.Weighted>
0.0328

> <Gold.Chemscore.DEInternal.Weighted>
0.3546

> <Gold.Chemscore.Rot.Weighted>
5.6535

> <Gold.Chemscore.Internal.Correction.Weighted>
   9.000000E+99

> <Gold.Protein.RotatedTorsions>
[ 6907 6896 6895 6894 ] final  142.72 input  -60.11 | X-H torsion
[ 7974 7965 7964 7962 ] final  -30.38 input  175.53 | X-H torsion
[ 8008 7997 7996 7995 ] final  -37.35 input   59.86 | X-H torsion
[ 10167 10162 10161 10158 ] final   -6.25 input  -65.29 | X-H torsion
[ 10718 10713 10712 10709 ] final -170.66 input   66.30 | X-H torsion
[ 10763 10752 10751 10750 ] final    9.25 input  -60.55 | X-H torsion
[ 11005 11000 10999 10996 ] final -146.95 input  -57.11 | X-H torsion

> <Gold.Protein.ActiveResidues>
 VAL166  LYS551  ARG553  GLY616  TRP617  ASP618  TYR619  PRO620  LYS621  CYS622 
 ASP623  PHE694  ASN695  SER759  ASP760  ASP761  ALA762  ILE779  LEU786  VAL792 
 PHE793  MET794  SER795  GLU796  ALA797  LYS798  CYS799  TRP800  GLU811  SER814 

> <Gold.Protein.RotatedAtoms>
  152.2152  133.4941  159.5131 H   0  0  0  0  0  0  0  0  0  0  0  0  # atno 6907 bound_to 6896
  150.6999  134.1415  159.4116 H   0  0  0  0  0  0  0  0  0  0  0  0  # atno 6908 bound_to 6896
  151.9335  135.0245  160.0581 H   0  0  0  0  0  0  0  0  0  0  0  0  # atno 6909 bound_to 6896
  146.1147  140.5532  142.8762 H   0  0  0  0  0  0  0  0  0  0  0  0  # atno 7974 bound_to 7965
  154.4055  140.1606  156.2522 H   0  0  0  0  0  0  0  0  0  0  0  0  # atno 8008 bound_to 7997
  155.9109  140.3427  155.6075 H   0  0  0  0  0  0  0  0  0  0  0  0  # atno 8009 bound_to 7997
  155.7337  140.0783  157.2268 H   0  0  0  0  0  0  0  0  0  0  0  0  # atno 8010 bound_to 7997
  140.6990  143.6216  150.8607 H   0  0  0  0  0  0  0  0  0  0  0  0  # atno 10167 bound_to 10162
  156.7294  130.9300  151.3103 H   0  0  0  0  0  0  0  0  0  0  0  0  # atno 10718 bound_to 10713
  153.2161  135.6875  153.8055 H   0  0  0  0  0  0  0  0  0  0  0  0  # atno 10763 bound_to 10752
  153.7271  135.3258  155.3279 H   0  0  0  0  0  0  0  0  0  0  0  0  # atno 10764 bound_to 10752
  154.8246  135.4627  154.0989 H   0  0  0  0  0  0  0  0  0  0  0  0  # atno 10765 bound_to 10752
  140.7767  134.3126  157.5058 H   0  0  0  0  0  0  0  0  0  0  0  0  # atno 11005 bound_to 11000
  144.7543  140.5268  143.6780 LP  0  0  0  0  0  0  0  0  0  0  0  0  # atno 17320 bound_to 7965
  145.5590  139.1479  143.3351 LP  0  0  0  0  0  0  0  0  0  0  0  0  # atno 17321 bound_to 7965
  139.9936  143.5820  152.2901 LP  0  0  0  0  0  0  0  0  0  0  0  0  # atno 17342 bound_to 10162
  139.6484  144.7659  151.2197 LP  0  0  0  0  0  0  0  0  0  0  0  0  # atno 17343 bound_to 10162
  157.6865  130.9191  150.0400 LP  0  0  0  0  0  0  0  0  0  0  0  0  # atno 17370 bound_to 10713
  156.1539  130.3643  149.9397 LP  0  0  0  0  0  0  0  0  0  0  0  0  # atno 17371 bound_to 10713
  139.8748  134.9294  156.3474 LP  0  0  0  0  0  0  0  0  0  0  0  0  # atno 17394 bound_to 11000
  140.9522  133.7443  156.0287 LP  0  0  0  0  0  0  0  0  0  0  0  0  # atno 17395 bound_to 11000

$$$$
