AV-unprocessed.smi:1424|AV-procd|sdf|5802|dock2
  -GOLD-   22720 5453D 1   1.00000     0.00000
 Structure written by MMmdl.
 46 48  0  0  0  0  0  0  0  0  2 V2000
  149.5208  132.7774  155.3091 O   0  0  0  0  0  0  0  0  0  0  0  0
  149.2313  133.5273  154.3768 C   0  0  0  0  0  0  0  0  0  0  0  0
  149.6089  134.8117  154.3136 N   0  0  0  0  0  0  0  0  0  0  0  0
  150.3967  135.5015  155.3301 C   0  0  0  0  0  0  0  0  0  0  0  0
  150.8200  136.9124  154.8765 C   0  0  1  0  0  0  0  0  0  0  0  0
  149.6196  137.8664  154.7259 C   0  0  0  0  0  0  0  0  0  0  0  0
  150.1499  139.2914  154.5432 C   0  0  0  0  0  0  0  0  0  0  0  0
  151.6645  139.3867  155.5675 S   0  0  0  0  0  0  0  0  0  0  0  0
  152.7760  139.8758  154.7379 O   0  0  0  0  0  0  0  0  0  0  0  0
  151.3456  140.0188  156.8566 O   0  0  0  0  0  0  0  0  0  0  0  0
  151.8368  137.5788  155.8199 C   0  0  0  0  0  0  0  0  0  0  0  0
  148.4856  133.1850  153.3130 N   0  0  0  0  0  0  0  0  0  0  0  0
  147.8788  131.9269  153.0357 C   0  0  0  0  0  0  0  0  0  0  0  0
  148.3408  130.7369  153.6551 C   0  0  0  0  0  0  0  0  0  0  0  0
  147.7107  129.5091  153.3787 C   0  0  0  0  0  0  0  0  0  0  0  0
  146.6293  129.4870  152.4821 C   0  0  0  0  0  0  0  0  0  0  0  0
  146.2262  130.6317  151.8930 N   0  3  0  0  0  0  0  0  0  0  0  0
  146.8006  131.8421  152.1063 C   0  0  0  0  0  0  0  0  0  0  0  0
  146.2746  132.9520  151.4059 N   0  0  0  0  0  0  0  0  0  0  0  0
  145.8951  134.1652  152.1209 C   0  0  0  0  0  0  0  0  0  0  0  0
  145.0735  134.9735  151.1204 C   0  0  0  0  0  0  0  0  0  0  0  0
  144.3417  133.8849  150.3414 C   0  0  0  0  0  0  0  0  0  0  0  0
  145.3454  132.7276  150.3030 C   0  0  0  0  0  0  0  0  0  0  0  0
  149.3256  135.3564  153.5124 H   0  0  0  0  0  0  0  0  0  0  0  0
  149.8330  135.5557  156.2632 H   0  0  0  0  0  0  0  0  0  0  0  0
  151.2791  134.8965  155.5406 H   0  0  0  0  0  0  0  0  0  0  0  0
  151.2876  136.8376  153.8935 H   0  0  0  0  0  0  0  0  0  0  0  0
  148.9721  137.5743  153.8987 H   0  0  0  0  0  0  0  0  0  0  0  0
  149.0142  137.8295  155.6327 H   0  0  0  0  0  0  0  0  0  0  0  0
  150.4329  139.4684  153.5052 H   0  0  0  0  0  0  0  0  0  0  0  0
  149.4369  140.0574  154.8480 H   0  0  0  0  0  0  0  0  0  0  0  0
  151.6043  137.3666  156.8638 H   0  0  0  0  0  0  0  0  0  0  0  0
  152.8636  137.2706  155.6231 H   0  0  0  0  0  0  0  0  0  0  0  0
  148.2433  133.9346  152.6819 H   0  0  0  0  0  0  0  0  0  0  0  0
  149.1771  130.7453  154.3378 H   0  0  0  0  0  0  0  0  0  0  0  0
  148.0527  128.5991  153.8497 H   0  0  0  0  0  0  0  0  0  0  0  0
  146.0832  128.5945  152.2127 H   0  0  0  0  0  0  0  0  0  0  0  0
  145.2787  133.9198  152.9870 H   0  0  0  0  0  0  0  0  0  0  0  0
  146.7706  134.7168  152.4652 H   0  0  0  0  0  0  0  0  0  0  0  0
  144.3992  135.6840  151.5993 H   0  0  0  0  0  0  0  0  0  0  0  0
  145.7354  135.5281  150.4535 H   0  0  0  0  0  0  0  0  0  0  0  0
  143.4498  133.5797  150.8904 H   0  0  0  0  0  0  0  0  0  0  0  0
  144.0296  134.2084  149.3480 H   0  0  0  0  0  0  0  0  0  0  0  0
  145.9019  132.7499  149.3656 H   0  0  0  0  0  0  0  0  0  0  0  0
  144.8414  131.7632  150.3783 H   0  0  0  0  0  0  0  0  0  0  0  0
  145.4447  130.5810  151.2393 H   0  0  0  0  0  0  0  0  0  0  0  0
  1  2  2  0  0  0  0
  2  3  1  0  0  0  0
  2 12  1  0  0  0  0
  3  4  1  0  0  0  0
  3 24  1  0  0  0  0
  4  5  1  0  0  0  0
  4 25  1  0  0  0  0
  4 26  1  0  0  0  0
  5 11  1  0  0  0  0
  5  6  1  0  0  0  0
  5 27  1  0  0  0  0
  6  7  1  0  0  0  0
  6 28  1  0  0  0  0
  6 29  1  0  0  0  0
  7  8  1  0  0  0  0
  7 30  1  0  0  0  0
  7 31  1  0  0  0  0
  8  9  2  0  0  0  0
  8 10  2  0  0  0  0
  8 11  1  0  0  0  0
 11 32  1  0  0  0  0
 11 33  1  0  0  0  0
 12 13  1  0  0  0  0
 12 34  1  0  0  0  0
 13 18  1  0  0  0  0
 13 14  2  0  0  0  0
 14 15  1  0  0  0  0
 14 35  1  0  0  0  0
 15 16  2  0  0  0  0
 15 36  1  0  0  0  0
 16 17  1  0  0  0  0
 16 37  1  0  0  0  0
 17 18  2  0  0  0  0
 17 46  1  0  0  0  0
 18 19  1  0  0  0  0
 19 23  1  0  0  0  0
 19 20  1  0  0  0  0
 20 21  1  0  0  0  0
 20 38  1  0  0  0  0
 20 39  1  0  0  0  0
 21 22  1  0  0  0  0
 21 40  1  0  0  0  0
 21 41  1  0  0  0  0
 22 23  1  0  0  0  0
 22 42  1  0  0  0  0
 22 43  1  0  0  0  0
 23 44  1  0  0  0  0
 23 45  1  0  0  0  0
M  CHG  1  17   1
M  END
> <s_m_source_file>
AV-unprocessed.smi

> <i_m_source_file_index>
1424

> <i_lp_mmshare_version>
43012

> <i_f3d_flags>
0

> <s_epik_input>
Tz1TMSg9TylbQ0gyXVtDSDJdW0NASF0oW0NIMl0xKVtDSDJdW05IXUMoPU8pW05IXWMyW2NIXVtjSF1bY0hdbmMyTjNbQ0gyXVtDSDJdW0NIMl1bQ0gyXTM=

> <s_epik_cmdline>
J2VwaWtfcHl0aG9uJywgJy1waCcsICc3LjAnLCAnLXRuJywgJzgnLCAnLW1hJywgJzIwMCcsICctbWV0YWxfYmluZGluZycsICctaW1hZScsICc8aW5maWxlLm1hZT4nLCAnLW9tYWUnLCAnPG91dGZpbGUubWFlPic=

> <r_lp_tautomer_probability>
0.999994

> <r_epik_Ionization_Penalty>
1.12573

> <r_epik_Ionization_Penalty_Charging>
1.12571

> <r_epik_Ionization_Penalty_Neutral>
1.92863e-05

> <r_epik_State_Penalty>
1.18495

> <r_epik_Charging_Adjusted_Penalty>
2.31065

> <i_epik_Tot_Q>
1

> <i_epik_Tot_abs_Q>
1

> <r_epik_Metal_State_Penalty>
1.26881

> <b_epik_Metal_Only>
0

> <s_lp_Force_Field>
OPLS_2005

> <r_lp_Energy>
39.7192

> <b_lp_Chiralities_Consistent>
1

> <s_lp_Variant>
AV-unprocessed.smi:1424-4

> <Gold.Version>
5.8.1

> <Gold.Id.Protein>
6NUR|6NUR_protein|mol2

> <Gold.PLP.Fitness>
44.1531

> <Gold.PLP.PLP>
-37.5165

> <Gold.PLP.part.hbond>
-3.3634

> <Gold.PLP.part.metal>
0.0000

> <Gold.PLP.part.buried>
-3.7586

> <Gold.PLP.part.nonpolar>
-30.5410

> <Gold.PLP.part.repulsive>
0.2529

> <Gold.PLP.ligand.clash>
0.0000

> <Gold.PLP.ligand.torsion>
0.3520

> <Gold.PLP.Chemscore.Hbond>
2.3120

> <Gold.PLP.Chemscore.CHOScore>
0.0000

> <Gold.PLP.Chemscore.Metal>
0.0000

> <Gold.Chemscore.Hbonds>
donor molecule, donor type, donor heavy atom, donor atom, acceptor molecule, acceptor atom, score
      L1  H     3    24       P1  7948  0.95
      P1  H  7989  7998       L1     9  0.37
      P1  H  7997  8010       L1     9  0.94

> <Gold.PLP.Chemscore.Internal.Correction>
0.4046

> <Gold.Rescore>
     Score         DG    S(hbond)    S(metal)    S(lipo)     H(rot)  DE(clash)    DE(int)     intcor
     13.45     -15.18       1.36        0.00      76.91       1.50       0.07       1.66       ----

> <Gold.Chemscore.Fitness>
13.4499

> <Gold.Chemscore.DG>
-15.1810

> <Gold.Chemscore.ZeroCoef>
-5.4800

> <Gold.Chemscore.Hbond>
1.3571

> <Gold.Chemscore.Metal>
0.0000

> <Gold.Chemscore.Lipo>
76.9097

> <Gold.Chemscore.Internal_Hbond>
0.0000

> <Gold.Chemscore.DEClash>
0.0668

> <Gold.Chemscore.DEInternal>
1.6643

> <Gold.Chemscore.Rot>
1.4962

> <Gold.Chemscore.Internal.Correction>
   9.000000E+99

> <Gold.Chemscore.Hbonds>
donor molecule, donor type, donor heavy atom, donor atom, acceptor molecule, acceptor atom, score
      L1  H     3    24       P1  7948  0.22
      P1  H  7989  7998       L1     9  0.06
      P1  H  7997  8010       L1     9  0.79

> <Gold.Chemscore.Hbond.Weighted>
-4.5328

> <Gold.Chemscore.Metal.Weighted>
-0.0000

> <Gold.Chemscore.Lipo.Weighted>
-8.9984

> <Gold.Chemscore.Internal_Hbond.Weighted>
0.0000

> <Gold.Chemscore.DEClash.Weighted>
0.0668

> <Gold.Chemscore.DEInternal.Weighted>
1.6643

> <Gold.Chemscore.Rot.Weighted>
3.8303

> <Gold.Chemscore.Internal.Correction.Weighted>
   9.000000E+99

> <Gold.Protein.RotatedTorsions>
[ 6907 6896 6895 6894 ] final  109.21 input  -60.11 | X-H torsion
[ 7974 7965 7964 7962 ] final -175.82 input  175.53 | X-H torsion
[ 8008 7997 7996 7995 ] final  111.16 input   59.86 | X-H torsion
[ 10167 10162 10161 10158 ] final   86.96 input  -65.29 | X-H torsion
[ 10718 10713 10712 10709 ] final  -89.19 input   66.30 | X-H torsion
[ 10763 10752 10751 10750 ] final   95.72 input  -60.55 | X-H torsion
[ 11005 11000 10999 10996 ] final   78.26 input  -57.11 | X-H torsion

> <Gold.Protein.ActiveResidues>
 VAL166  LYS551  ARG553  GLY616  TRP617  ASP618  TYR619  PRO620  LYS621  CYS622 
 ASP623  PHE694  ASN695  SER759  ASP760  ASP761  ALA762  ILE779  LEU786  VAL792 
 PHE793  MET794  SER795  GLU796  ALA797  LYS798  CYS799  TRP800  GLU811  SER814 

> <Gold.Protein.RotatedAtoms>
  152.5078  133.8978  159.7425 H   0  0  0  0  0  0  0  0  0  0  0  0  # atno 6907 bound_to 6896
  150.9401  133.6658  159.2799 H   0  0  0  0  0  0  0  0  0  0  0  0  # atno 6908 bound_to 6896
  151.3972  135.0970  159.9597 H   0  0  0  0  0  0  0  0  0  0  0  0  # atno 6909 bound_to 6896
  144.7127  140.1263  143.6402 H   0  0  0  0  0  0  0  0  0  0  0  0  # atno 7974 bound_to 7965
  156.2104  140.3025  155.9720 H   0  0  0  0  0  0  0  0  0  0  0  0  # atno 8008 bound_to 7997
  155.2738  140.0435  157.3026 H   0  0  0  0  0  0  0  0  0  0  0  0  # atno 8009 bound_to 7997
  154.5692  140.2343  155.8226 H   0  0  0  0  0  0  0  0  0  0  0  0  # atno 8010 bound_to 7997
  139.8822  144.6433  150.8830 H   0  0  0  0  0  0  0  0  0  0  0  0  # atno 10167 bound_to 10162
  155.9984  130.4863  150.5134 H   0  0  0  0  0  0  0  0  0  0  0  0  # atno 10718 bound_to 10713
  153.2565  135.4244  155.0851 H   0  0  0  0  0  0  0  0  0  0  0  0  # atno 10763 bound_to 10752
  154.8403  135.3438  154.6438 H   0  0  0  0  0  0  0  0  0  0  0  0  # atno 10764 bound_to 10752
  153.6859  135.7036  153.5161 H   0  0  0  0  0  0  0  0  0  0  0  0  # atno 10765 bound_to 10752
  139.9220  134.7749  156.1626 H   0  0  0  0  0  0  0  0  0  0  0  0  # atno 11005 bound_to 11000
  145.9326  139.2616  143.1316 LP  0  0  0  0  0  0  0  0  0  0  0  0  # atno 17320 bound_to 7965
  145.9506  140.8911  143.0261 LP  0  0  0  0  0  0  0  0  0  0  0  0  # atno 17321 bound_to 7965
  140.7742  143.3576  151.1890 LP  0  0  0  0  0  0  0  0  0  0  0  0  # atno 17342 bound_to 10162
  139.7185  143.9261  152.2976 LP  0  0  0  0  0  0  0  0  0  0  0  0  # atno 17343 bound_to 10162
  157.3104  131.0662  151.2005 LP  0  0  0  0  0  0  0  0  0  0  0  0  # atno 17370 bound_to 10713
  157.2953  130.6816  149.6135 LP  0  0  0  0  0  0  0  0  0  0  0  0  # atno 17371 bound_to 10713
  141.0748  133.6780  156.2215 LP  0  0  0  0  0  0  0  0  0  0  0  0  # atno 17394 bound_to 11000
  140.6446  134.5130  157.5572 LP  0  0  0  0  0  0  0  0  0  0  0  0  # atno 17395 bound_to 11000

$$$$
