AV-unprocessed.smi:3188|AV-procd|sdf|12185|dock1
  -GOLD-   2272018 23D 1   1.00000     0.00000
 Structure written by MMmdl.
 40 41  0  0  0  0  0  0  0  0  2 V2000
  153.9669  140.6881  160.8444 C   0  0  0  0  0  0  0  0  0  0  0  0
  153.1392  141.9509  160.6655 C   0  0  0  0  0  0  0  0  0  0  0  0
  152.9037  142.7473  161.7257 C   0  0  0  0  0  0  0  0  0  0  0  0
  152.1609  144.0614  161.6575 C   0  0  0  0  0  0  0  0  0  0  0  0
  152.1539  144.6145  160.2307 C   0  0  0  0  0  0  0  0  0  0  0  0
  151.7083  143.5479  159.2175 C   0  0  1  0  0  0  0  0  0  0  0  0
  151.6227  144.1801  157.8147 C   0  0  0  0  0  0  0  0  0  0  0  0
  152.6197  142.2817  159.2498 C   0  0  2  0  0  0  0  0  0  0  0  0
  151.8910  141.0863  158.5802 C   0  0  0  0  0  0  0  0  0  0  0  0
  151.7226  141.2624  157.1240 N   0  3  0  0  0  0  0  0  0  0  0  0
  150.3692  141.6842  156.7115 C   0  0  0  0  0  0  0  0  0  0  0  0
  150.1375  141.4390  155.2121 C   0  0  0  0  0  0  0  0  0  0  0  0
  148.7306  141.5237  154.8635 N   0  0  0  0  0  0  0  0  0  0  0  0
  148.1400  141.3582  153.6281 C   0  0  0  0  0  0  0  0  0  0  0  0
  146.8151  141.5755  153.8785 C   0  0  0  0  0  0  0  0  0  0  0  0
  146.6577  141.8616  155.2334 N   0  0  0  0  0  0  0  0  0  0  0  0
  147.8142  141.8216  155.8157 N   0  0  0  0  0  0  0  0  0  0  0  0
  154.7671  140.6455  160.1052 H   0  0  0  0  0  0  0  0  0  0  0  0
  153.3467  139.7970  160.7491 H   0  0  0  0  0  0  0  0  0  0  0  0
  154.4305  140.6535  161.8311 H   0  0  0  0  0  0  0  0  0  0  0  0
  153.2688  142.4660  162.7031 H   0  0  0  0  0  0  0  0  0  0  0  0
  151.1443  143.9078  162.0206 H   0  0  0  0  0  0  0  0  0  0  0  0
  152.6369  144.7773  162.3280 H   0  0  0  0  0  0  0  0  0  0  0  0
  151.4976  145.4846  160.1846 H   0  0  0  0  0  0  0  0  0  0  0  0
  153.1533  144.9682  159.9721 H   0  0  0  0  0  0  0  0  0  0  0  0
  150.6999  143.2448  159.5045 H   0  0  0  0  0  0  0  0  0  0  0  0
  152.6061  144.4917  157.4612 H   0  0  0  0  0  0  0  0  0  0  0  0
  150.9840  145.0639  157.8247 H   0  0  0  0  0  0  0  0  0  0  0  0
  151.2053  143.4995  157.0747 H   0  0  0  0  0  0  0  0  0  0  0  0
  153.5100  142.5110  158.6620 H   0  0  0  0  0  0  0  0  0  0  0  0
  152.4430  140.1663  158.7782 H   0  0  0  0  0  0  0  0  0  0  0  0
  150.8959  140.9426  158.9978 H   0  0  0  0  0  0  0  0  0  0  0  0
  152.3941  141.9412  156.7948 H   0  0  0  0  0  0  0  0  0  0  0  0
  149.6226  141.1401  157.2921 H   0  0  0  0  0  0  0  0  0  0  0  0
  150.2430  142.7431  156.9402 H   0  0  0  0  0  0  0  0  0  0  0  0
  150.6773  142.1835  154.6259 H   0  0  0  0  0  0  0  0  0  0  0  0
  150.5271  140.4638  154.9148 H   0  0  0  0  0  0  0  0  0  0  0  0
  148.6845  141.1171  152.7269 H   0  0  0  0  0  0  0  0  0  0  0  0
  145.9714  141.5531  153.2045 H   0  0  0  0  0  0  0  0  0  0  0  0
  151.9200  140.3754  156.6821 H   0  0  0  0  0  0  0  0  0  0  0  0
  1  2  1  0  0  0  0
  1 18  1  0  0  0  0
  1 19  1  0  0  0  0
  1 20  1  0  0  0  0
  2  8  1  0  0  0  0
  2  3  2  0  0  0  0
  3  4  1  0  0  0  0
  3 21  1  0  0  0  0
  4  5  1  0  0  0  0
  4 22  1  0  0  0  0
  4 23  1  0  0  0  0
  5  6  1  0  0  0  0
  5 24  1  0  0  0  0
  5 25  1  0  0  0  0
  6  7  1  0  0  0  0
  6  8  1  0  0  0  0
  6 26  1  0  0  0  0
  7 27  1  0  0  0  0
  7 28  1  0  0  0  0
  7 29  1  0  0  0  0
  8  9  1  0  0  0  0
  8 30  1  0  0  0  0
  9 10  1  0  0  0  0
  9 31  1  0  0  0  0
  9 32  1  0  0  0  0
 10 11  1  0  0  0  0
 10 33  1  0  0  0  0
 10 40  1  0  0  0  0
 11 12  1  0  0  0  0
 11 34  1  0  0  0  0
 11 35  1  0  0  0  0
 12 13  1  0  0  0  0
 12 36  1  0  0  0  0
 12 37  1  0  0  0  0
 13 17  1  0  0  0  0
 13 14  1  0  0  0  0
 14 15  2  0  0  0  0
 14 38  1  0  0  0  0
 15 16  1  0  0  0  0
 15 39  1  0  0  0  0
 16 17  2  0  0  0  0
M  CHG  1  10   1
M  END
> <s_m_source_file>
AV-unprocessed.smi

> <i_m_source_file_index>
3188

> <i_lp_mmshare_version>
43012

> <i_f3d_flags>
0

> <s_epik_input>
W0NIM11DMT1bQ0hdW0NIMl1bQ0gyXVtDQEBIXShbQ0gzXSlbQ0BIXTFbQ0gyXVtOSF1bQ0gyXVtDSDJdbjJbY0hdW2NIXW5uMg==

> <s_epik_cmdline>
J2VwaWtfcHl0aG9uJywgJy1waCcsICc3LjAnLCAnLXRuJywgJzgnLCAnLW1hJywgJzIwMCcsICctbWV0YWxfYmluZGluZycsICctaW1hZScsICc8aW5maWxlLm1hZT4nLCAnLW9tYWUnLCAnPG91dGZpbGUubWFlPic=

> <r_lp_tautomer_probability>
1

> <r_epik_Ionization_Penalty>
0.007268

> <r_epik_Ionization_Penalty_Charging>
0.00726786

> <r_epik_Ionization_Penalty_Neutral>
1.34882e-07

> <r_epik_State_Penalty>
0.00542069

> <r_epik_Charging_Adjusted_Penalty>
0.0126886

> <i_epik_Tot_Q>
1

> <i_epik_Tot_abs_Q>
1

> <r_epik_Metal_State_Penalty>
-0

> <b_epik_Metal_Only>
0

> <s_lp_Force_Field>
OPLS_2005

> <r_lp_Energy>
14.3192

> <b_lp_Chiralities_Consistent>
1

> <s_lp_Variant>
AV-unprocessed.smi:3188-3

> <Gold.Version>
5.8.1

> <Gold.Id.Protein>
6NUR|6NUR_protein|mol2

> <Gold.PLP.Fitness>
49.6818

> <Gold.PLP.PLP>
-44.5613

> <Gold.PLP.part.hbond>
0.0000

> <Gold.PLP.part.metal>
0.0000

> <Gold.PLP.part.buried>
-4.0101

> <Gold.PLP.part.nonpolar>
-40.6977

> <Gold.PLP.part.repulsive>
0.3346

> <Gold.PLP.ligand.clash>
0.0000

> <Gold.PLP.ligand.torsion>
0.4981

> <Gold.PLP.Chemscore.Hbond>
0.0000

> <Gold.PLP.Chemscore.CHOScore>
1.9652

> <Gold.PLP.Chemscore.Metal>
0.0000

> <Gold.Chemscore.Hbonds>
donor molecule, donor type, donor heavy atom, donor atom, acceptor molecule, acceptor atom, score
      L1  C    14    38       P1  7957  1.00
      L1  C    15    39       P1 10175  0.55

> <Gold.PLP.Chemscore.Internal.Correction>
0.2211

> <Gold.Rescore>
     Score         DG    S(hbond)    S(metal)    S(lipo)     H(rot)  DE(clash)    DE(int)     intcor
     14.28     -15.73       0.00        0.00     126.55       1.78       0.03       1.42       ----

> <Gold.Chemscore.Fitness>
14.2761

> <Gold.Chemscore.DG>
-15.7269

> <Gold.Chemscore.ZeroCoef>
-5.4800

> <Gold.Chemscore.Hbond>
0.0000

> <Gold.Chemscore.Metal>
0.0000

> <Gold.Chemscore.Lipo>
126.5458

> <Gold.Chemscore.Internal_Hbond>
0.0000

> <Gold.Chemscore.DEClash>
0.0282

> <Gold.Chemscore.DEInternal>
1.4225

> <Gold.Chemscore.Rot>
1.7809

> <Gold.Chemscore.Internal.Correction>
   9.000000E+99

> <Gold.Chemscore.Hbond.Weighted>
-0.0000

> <Gold.Chemscore.Metal.Weighted>
-0.0000

> <Gold.Chemscore.Lipo.Weighted>
-14.8059

> <Gold.Chemscore.Internal_Hbond.Weighted>
0.0000

> <Gold.Chemscore.DEClash.Weighted>
0.0282

> <Gold.Chemscore.DEInternal.Weighted>
1.4225

> <Gold.Chemscore.Rot.Weighted>
4.5590

> <Gold.Chemscore.Internal.Correction.Weighted>
   9.000000E+99

> <Gold.Protein.RotatedTorsions>
[ 6907 6896 6895 6894 ] final -169.77 input  -60.11 | X-H torsion
[ 7974 7965 7964 7962 ] final  156.01 input  175.53 | X-H torsion
[ 8008 7997 7996 7995 ] final  -78.12 input   59.86 | X-H torsion
[ 10167 10162 10161 10158 ] final   26.92 input  -65.29 | X-H torsion
[ 10718 10713 10712 10709 ] final -145.84 input   66.30 | X-H torsion
[ 10763 10752 10751 10750 ] final -121.08 input  -60.55 | X-H torsion
[ 11005 11000 10999 10996 ] final -148.40 input  -57.11 | X-H torsion

> <Gold.Protein.ActiveResidues>
 VAL166  LYS551  ARG553  GLY616  TRP617  ASP618  TYR619  PRO620  LYS621  CYS622 
 ASP623  PHE694  ASN695  SER759  ASP760  ASP761  ALA762  ILE779  LEU786  VAL792 
 PHE793  MET794  SER795  GLU796  ALA797  LYS798  CYS799  TRP800  GLU811  SER814 

> <Gold.Protein.RotatedAtoms>
  151.4970  133.3512  159.2862 H   0  0  0  0  0  0  0  0  0  0  0  0  # atno 6907 bound_to 6896
  150.8798  134.8189  159.7227 H   0  0  0  0  0  0  0  0  0  0  0  0  # atno 6908 bound_to 6896
  152.4755  134.4866  159.9734 H   0  0  0  0  0  0  0  0  0  0  0  0  # atno 6909 bound_to 6896
  144.7989  139.7145  143.6190 H   0  0  0  0  0  0  0  0  0  0  0  0  # atno 7974 bound_to 7965
  154.5660  140.0699  156.8892 H   0  0  0  0  0  0  0  0  0  0  0  0  # atno 8008 bound_to 7997
  155.2722  140.3366  155.4246 H   0  0  0  0  0  0  0  0  0  0  0  0  # atno 8009 bound_to 7997
  156.2081  140.1748  156.7742 H   0  0  0  0  0  0  0  0  0  0  0  0  # atno 8010 bound_to 7997
  140.4982  144.0357  150.6322 H   0  0  0  0  0  0  0  0  0  0  0  0  # atno 10167 bound_to 10162
  156.3875  130.7868  151.2067 H   0  0  0  0  0  0  0  0  0  0  0  0  # atno 10718 bound_to 10713
  154.8660  135.4180  154.2563 H   0  0  0  0  0  0  0  0  0  0  0  0  # atno 10763 bound_to 10752
  153.3499  135.6998  153.6802 H   0  0  0  0  0  0  0  0  0  0  0  0  # atno 10764 bound_to 10752
  153.5746  135.3584  155.2824 H   0  0  0  0  0  0  0  0  0  0  0  0  # atno 10765 bound_to 10752
  140.7616  134.3291  157.5100 H   0  0  0  0  0  0  0  0  0  0  0  0  # atno 11005 bound_to 11000
  146.2266  139.5733  142.9583 LP  0  0  0  0  0  0  0  0  0  0  0  0  # atno 17320 bound_to 7965
  145.5602  141.0405  143.2230 LP  0  0  0  0  0  0  0  0  0  0  0  0  # atno 17321 bound_to 7965
  140.3646  143.2889  152.0346 LP  0  0  0  0  0  0  0  0  0  0  0  0  # atno 17342 bound_to 10162
  139.4866  144.6277  151.7132 LP  0  0  0  0  0  0  0  0  0  0  0  0  # atno 17343 bound_to 10162
  157.7497  131.0325  150.4232 LP  0  0  0  0  0  0  0  0  0  0  0  0  # atno 17370 bound_to 10713
  156.4487  130.4007  149.6650 LP  0  0  0  0  0  0  0  0  0  0  0  0  # atno 17371 bound_to 10713
  139.8770  134.9206  156.3254 LP  0  0  0  0  0  0  0  0  0  0  0  0  # atno 17394 bound_to 11000
  140.9657  133.7359  156.0464 LP  0  0  0  0  0  0  0  0  0  0  0  0  # atno 17395 bound_to 11000

$$$$
