AV-unprocessed.smi:2640|AV-procd|sdf|10268|dock3
  -GOLD-   2272014283D 1   1.00000     0.00000
 Structure written by MMmdl.
 42 43  0  0  0  0  0  0  0  0  2 V2000
  144.5227  137.4035  152.6528 O   0  0  0  0  0  0  0  0  0  0  0  0
  145.7007  137.4361  152.2954 C   0  0  0  0  0  0  0  0  0  0  0  0
  146.4980  138.7386  152.3697 C   0  0  0  0  0  0  0  0  0  0  0  0
  147.9416  138.4877  152.5541 N   0  3  0  0  0  0  0  0  0  0  0  0
  148.4271  138.7288  153.9260 C   0  0  0  0  0  0  0  0  0  0  0  0
  148.5935  140.2321  154.1929 C   0  0  0  0  0  0  0  0  0  0  0  0
  149.7937  140.5168  154.9553 N   0  0  0  0  0  0  0  0  0  0  0  0
  150.0600  141.6002  155.7658 C   0  0  0  0  0  0  0  0  0  0  0  0
  151.3139  141.4260  156.2774 C   0  0  0  0  0  0  0  0  0  0  0  0
  151.7383  140.1882  155.7188 C   0  0  0  0  0  0  0  0  0  0  0  0
  150.8255  139.6462  154.9283 N   0  0  0  0  0  0  0  0  0  0  0  0
  146.3607  136.3611  151.8348 N   0  0  0  0  0  0  0  0  0  0  0  0
  145.7865  135.0248  151.6576 C   0  0  2  0  0  0  0  0  0  0  0  0
  144.6947  135.1249  150.5680 C   0  0  0  0  0  0  0  0  0  0  0  0
  144.3779  133.7843  149.8823 C   0  0  0  0  0  0  0  0  0  0  0  0
  143.7590  132.7166  150.7972 C   0  0  0  0  0  0  0  0  0  0  0  0
  144.6768  132.2837  151.9533 C   0  0  0  0  0  0  0  0  0  0  0  0
  144.6945  133.2601  153.0347 N   0  0  0  0  0  0  0  0  0  0  0  0
  145.1487  134.5210  152.9742 C   0  0  0  0  0  0  0  0  0  0  0  0
  145.0557  135.2638  153.9518 O   0  0  0  0  0  0  0  0  0  0  0  0
  146.3379  139.2998  151.4483 H   0  0  0  0  0  0  0  0  0  0  0  0
  146.1294  139.3492  153.1955 H   0  0  0  0  0  0  0  0  0  0  0  0
  148.1302  137.5268  152.3063 H   0  0  0  0  0  0  0  0  0  0  0  0
  147.7197  138.2951  154.6341 H   0  0  0  0  0  0  0  0  0  0  0  0
  149.3802  138.2169  154.0661 H   0  0  0  0  0  0  0  0  0  0  0  0
  148.6425  140.7813  153.2515 H   0  0  0  0  0  0  0  0  0  0  0  0
  147.7351  140.6213  154.7426 H   0  0  0  0  0  0  0  0  0  0  0  0
  149.3445  142.3963  155.9105 H   0  0  0  0  0  0  0  0  0  0  0  0
  151.8464  142.0815  156.9504 H   0  0  0  0  0  0  0  0  0  0  0  0
  152.6752  139.6709  155.8640 H   0  0  0  0  0  0  0  0  0  0  0  0
  147.3263  136.4757  151.5627 H   0  0  0  0  0  0  0  0  0  0  0  0
  146.5747  134.3410  151.3370 H   0  0  0  0  0  0  0  0  0  0  0  0
  143.7815  135.5688  150.9687 H   0  0  0  0  0  0  0  0  0  0  0  0
  145.0324  135.8088  149.7874 H   0  0  0  0  0  0  0  0  0  0  0  0
  143.6901  133.9715  149.0570 H   0  0  0  0  0  0  0  0  0  0  0  0
  145.2858  133.3880  149.4261 H   0  0  0  0  0  0  0  0  0  0  0  0
  142.8006  133.0625  151.1864 H   0  0  0  0  0  0  0  0  0  0  0  0
  143.5349  131.8398  150.1888 H   0  0  0  0  0  0  0  0  0  0  0  0
  144.3066  131.3481  152.3731 H   0  0  0  0  0  0  0  0  0  0  0  0
  145.6893  132.0818  151.6014 H   0  0  0  0  0  0  0  0  0  0  0  0
  144.2934  132.9596  153.9114 H   0  0  0  0  0  0  0  0  0  0  0  0
  148.4501  139.0873  151.9198 H   0  0  0  0  0  0  0  0  0  0  0  0
  1  2  2  0  0  0  0
  2  3  1  0  0  0  0
  2 12  1  0  0  0  0
  3  4  1  0  0  0  0
  3 21  1  0  0  0  0
  3 22  1  0  0  0  0
  4  5  1  0  0  0  0
  4 23  1  0  0  0  0
  4 42  1  0  0  0  0
  5  6  1  0  0  0  0
  5 24  1  0  0  0  0
  5 25  1  0  0  0  0
  6  7  1  0  0  0  0
  6 26  1  0  0  0  0
  6 27  1  0  0  0  0
  7 11  1  0  0  0  0
  7  8  1  0  0  0  0
  8  9  2  0  0  0  0
  8 28  1  0  0  0  0
  9 10  1  0  0  0  0
  9 29  1  0  0  0  0
 10 11  2  0  0  0  0
 10 30  1  0  0  0  0
 12 13  1  0  0  0  0
 12 31  1  0  0  0  0
 13 19  1  0  0  0  0
 13 14  1  0  0  0  0
 13 32  1  0  0  0  0
 14 15  1  0  0  0  0
 14 33  1  0  0  0  0
 14 34  1  0  0  0  0
 15 16  1  0  0  0  0
 15 35  1  0  0  0  0
 15 36  1  0  0  0  0
 16 17  1  0  0  0  0
 16 37  1  0  0  0  0
 16 38  1  0  0  0  0
 17 18  1  0  0  0  0
 17 39  1  0  0  0  0
 17 40  1  0  0  0  0
 18 19  1  0  0  0  0
 18 41  1  0  0  0  0
 19 20  2  0  0  0  0
M  CHG  1   4   1
M  END
> <s_m_source_file>
AV-unprocessed.smi

> <i_m_source_file_index>
2640

> <i_lp_mmshare_version>
43012

> <i_f3d_flags>
0

> <s_epik_input>
Tz1DMVtOSF1bQ0gyXVtDSDJdW0NIMl1bQ0gyXVtDQEhdMVtOSF1DKD1PKVtDSDJdW05IXVtDSDJdW0NIMl1uMltjSF1bY0hdW2NIXW4y

> <s_epik_cmdline>
J2VwaWtfcHl0aG9uJywgJy1waCcsICc3LjAnLCAnLXRuJywgJzgnLCAnLW1hJywgJzIwMCcsICctbWV0YWxfYmluZGluZycsICctaW1hZScsICc8aW5maWxlLm1hZT4nLCAnLW9tYWUnLCAnPG91dGZpbGUubWFlPic=

> <r_lp_tautomer_probability>
1

> <r_epik_Ionization_Penalty>
0.245908

> <r_epik_Ionization_Penalty_Charging>
0.245903

> <r_epik_Ionization_Penalty_Neutral>
5.38378e-06

> <r_epik_State_Penalty>
0.237496

> <r_epik_Charging_Adjusted_Penalty>
0.483398

> <i_epik_Tot_Q>
1

> <i_epik_Tot_abs_Q>
1

> <r_epik_Metal_State_Penalty>
0.237698

> <b_epik_Metal_Only>
0

> <s_lp_Force_Field>
OPLS_2005

> <r_lp_Energy>
8.65948

> <b_lp_Chiralities_Consistent>
1

> <s_lp_Variant>
AV-unprocessed.smi:2640-1

> <Gold.Version>
5.8.1

> <Gold.Id.Protein>
6NUR|6NUR_protein|mol2

> <Gold.PLP.Fitness>
50.5051

> <Gold.PLP.PLP>
-36.2720

> <Gold.PLP.part.hbond>
-4.7094

> <Gold.PLP.part.metal>
0.0000

> <Gold.PLP.part.buried>
-3.2490

> <Gold.PLP.part.nonpolar>
-29.9449

> <Gold.PLP.part.repulsive>
0.6144

> <Gold.PLP.ligand.clash>
0.0000

> <Gold.PLP.ligand.torsion>
1.4066

> <Gold.PLP.Chemscore.Hbond>
4.6445

> <Gold.PLP.Chemscore.CHOScore>
1.0000

> <Gold.PLP.Chemscore.Metal>
0.0000

> <Gold.Chemscore.Hbonds>
donor molecule, donor type, donor heavy atom, donor atom, acceptor molecule, acceptor atom, score
      L1  H     4    23       P1  7948  2.00
      L1  H     4    42       P1  7957  1.00
      L1  H    12    31       P1  7948  1.00
      L1  H    18    41       P1 10957  0.52
      P1  H  7989  7998       L1    11  0.06
      L1  C     8    28       P1  8028  1.00

> <Gold.PLP.Chemscore.Internal.Correction>
0.1127

> <Gold.Rescore>
     Score         DG    S(hbond)    S(metal)    S(lipo)     H(rot)  DE(clash)    DE(int)     intcor
     14.64     -20.25       3.68        0.00      74.75       2.45       0.06       5.55       ----

> <Gold.Chemscore.Fitness>
14.6372

> <Gold.Chemscore.DG>
-20.2530

> <Gold.Chemscore.ZeroCoef>
-5.4800

> <Gold.Chemscore.Hbond>
3.6796

> <Gold.Chemscore.Metal>
0.0000

> <Gold.Chemscore.Lipo>
74.7462

> <Gold.Chemscore.Internal_Hbond>
0.0000

> <Gold.Chemscore.DEClash>
0.0634

> <Gold.Chemscore.DEInternal>
5.5524

> <Gold.Chemscore.Rot>
2.4462

> <Gold.Chemscore.Internal.Correction>
   9.000000E+99

> <Gold.Chemscore.Hbonds>
donor molecule, donor type, donor heavy atom, donor atom, acceptor molecule, acceptor atom, score
      L1  H     4    23       P1  7948  0.97
      L1  H     4    42       P1  7957  0.97
      L1  H    12    31       P1  7948  0.96
      L1  H    18    41       P1 10957  0.45

> <Gold.Chemscore.Hbond.Weighted>
-12.2900

> <Gold.Chemscore.Metal.Weighted>
-0.0000

> <Gold.Chemscore.Lipo.Weighted>
-8.7453

> <Gold.Chemscore.Internal_Hbond.Weighted>
0.0000

> <Gold.Chemscore.DEClash.Weighted>
0.0634

> <Gold.Chemscore.DEInternal.Weighted>
5.5524

> <Gold.Chemscore.Rot.Weighted>
6.2623

> <Gold.Chemscore.Internal.Correction.Weighted>
   9.000000E+99

> <Gold.Protein.RotatedTorsions>
[ 6907 6896 6895 6894 ] final  174.32 input  -60.11 | X-H torsion
[ 7974 7965 7964 7962 ] final    8.16 input  175.53 | X-H torsion
[ 8008 7997 7996 7995 ] final   95.36 input   59.86 | X-H torsion
[ 10167 10162 10161 10158 ] final    3.98 input  -65.29 | X-H torsion
[ 10718 10713 10712 10709 ] final  -33.38 input   66.30 | X-H torsion
[ 10763 10752 10751 10750 ] final  125.57 input  -60.55 | X-H torsion
[ 11005 11000 10999 10996 ] final  -98.50 input  -57.11 | X-H torsion

> <Gold.Protein.ActiveResidues>
 VAL166  LYS551  ARG553  GLY616  TRP617  ASP618  TYR619  PRO620  LYS621  CYS622 
 ASP623  PHE694  ASN695  SER759  ASP760  ASP761  ALA762  ILE779  LEU786  VAL792 
 PHE793  MET794  SER795  GLU796  ALA797  LYS798  CYS799  TRP800  GLU811  SER814 

> <Gold.Protein.RotatedAtoms>
  151.7542  133.3329  159.3399 H   0  0  0  0  0  0  0  0  0  0  0  0  # atno 6907 bound_to 6896
  150.7523  134.6164  159.6122 H   0  0  0  0  0  0  0  0  0  0  0  0  # atno 6908 bound_to 6896
  152.3448  134.7088  160.0305 H   0  0  0  0  0  0  0  0  0  0  0  0  # atno 6909 bound_to 6896
  146.2419  139.9975  142.8419 H   0  0  0  0  0  0  0  0  0  0  0  0  # atno 7974 bound_to 7965
  156.0680  140.3287  155.7541 H   0  0  0  0  0  0  0  0  0  0  0  0  # atno 8008 bound_to 7997
  155.5351  140.0596  157.2899 H   0  0  0  0  0  0  0  0  0  0  0  0  # atno 8009 bound_to 7997
  154.4515  140.1920  156.0523 H   0  0  0  0  0  0  0  0  0  0  0  0  # atno 8010 bound_to 7997
  140.6558  143.7430  150.7651 H   0  0  0  0  0  0  0  0  0  0  0  0  # atno 10167 bound_to 10162
  156.3634  130.4327  149.7605 H   0  0  0  0  0  0  0  0  0  0  0  0  # atno 10718 bound_to 10713
  153.6795  135.3317  155.3174 H   0  0  0  0  0  0  0  0  0  0  0  0  # atno 10763 bound_to 10752
  154.8470  135.4405  154.1621 H   0  0  0  0  0  0  0  0  0  0  0  0  # atno 10764 bound_to 10752
  153.2634  135.6993  153.7632 H   0  0  0  0  0  0  0  0  0  0  0  0  # atno 10765 bound_to 10752
  141.1342  133.8250  157.0848 H   0  0  0  0  0  0  0  0  0  0  0  0  # atno 11005 bound_to 11000
  145.1446  140.9590  143.4469 LP  0  0  0  0  0  0  0  0  0  0  0  0  # atno 17320 bound_to 7965
  145.0263  139.3379  143.6047 LP  0  0  0  0  0  0  0  0  0  0  0  0  # atno 17321 bound_to 7965
  140.1090  143.4717  152.2381 LP  0  0  0  0  0  0  0  0  0  0  0  0  # atno 17342 bound_to 10162
  139.5781  144.7497  151.3713 LP  0  0  0  0  0  0  0  0  0  0  0  0  # atno 17343 bound_to 10162
  156.4760  130.8019  151.3035 LP  0  0  0  0  0  0  0  0  0  0  0  0  # atno 17370 bound_to 10713
  157.7476  131.0021  150.2987 LP  0  0  0  0  0  0  0  0  0  0  0  0  # atno 17371 bound_to 10713
  140.0429  134.9845  157.0995 LP  0  0  0  0  0  0  0  0  0  0  0  0  # atno 17394 bound_to 11000
  140.4107  134.1984  155.7163 LP  0  0  0  0  0  0  0  0  0  0  0  0  # atno 17395 bound_to 11000

$$$$
