AV-unprocessed.smi:66|AV-procd|sdf|617|dock7
  -GOLD-   2262016513D 1   1.00000     0.00000
 Structure written by MMmdl.
 28 30  0  0  0  0  0  0  0  0  2 V2000
  153.2267  138.4526  156.5101 O   0  0  0  0  0  0  0  0  0  0  0  0
  152.1516  138.1943  155.9263 C   0  0  0  0  0  0  0  0  0  0  0  0
  152.0130  137.3632  155.0008 O   0  5  0  0  0  0  0  0  0  0  0  0
  150.9064  138.9629  156.3985 C   0  0  2  0  0  0  0  0  0  0  0  0
  149.7536  138.8994  155.3802 C   0  0  0  0  0  0  0  0  0  0  0  0
  149.9301  140.1626  154.5393 C   0  0  1  0  0  0  0  0  0  0  0  0
  148.7315  140.5744  153.9164 O   0  0  0  0  0  0  0  0  0  0  0  0
  150.4371  141.1818  155.5594 C   0  0  0  0  0  0  0  0  0  0  0  0
  151.1747  140.3977  156.5411 N   0  0  0  0  0  0  0  0  0  0  0  0
  151.7084  140.9423  157.6695 C   0  0  0  0  0  0  0  0  0  0  0  0
  152.1960  140.1059  158.6250 N   0  0  0  0  0  0  0  0  0  0  0  0
  152.7334  140.5865  159.7492 C   0  0  0  0  0  0  0  0  0  0  0  0
  152.8836  141.8573  160.1249 N   0  0  0  0  0  0  0  0  0  0  0  0
  152.3994  142.7042  159.1753 C   0  0  0  0  0  0  0  0  0  0  0  0
  152.3816  144.0823  159.2060 N   0  0  0  0  0  0  0  0  0  0  0  0
  151.7985  144.4793  158.0295 C   0  0  0  0  0  0  0  0  0  0  0  0
  151.4393  143.5008  157.2439 N   0  0  0  0  0  0  0  0  0  0  0  0
  151.8015  142.3437  157.9320 C   0  0  0  0  0  0  0  0  0  0  0  0
  152.7426  144.6333  159.9712 H   0  0  0  0  0  0  0  0  0  0  0  0
  150.5666  138.5366  157.3435 H   0  0  0  0  0  0  0  0  0  0  0  0
  149.7529  137.9908  154.7763 H   0  0  0  0  0  0  0  0  0  0  0  0
  148.8036  138.9357  155.9156 H   0  0  0  0  0  0  0  0  0  0  0  0
  150.6911  139.9925  153.7763 H   0  0  0  0  0  0  0  0  0  0  0  0
  148.8013  140.3982  152.9906 H   0  0  0  0  0  0  0  0  0  0  0  0
  151.0672  141.9297  155.0777 H   0  0  0  0  0  0  0  0  0  0  0  0
  149.6080  141.6876  156.0572 H   0  0  0  0  0  0  0  0  0  0  0  0
  153.0933  139.8448  160.4471 H   0  0  0  0  0  0  0  0  0  0  0  0
  151.6489  145.5176  157.7723 H   0  0  0  0  0  0  0  0  0  0  0  0
  1  2  2  0  0  0  0
  2  3  1  0  0  0  0
  2  4  1  0  0  0  0
  4  5  1  0  0  0  0
  4 20  1  0  0  0  0
  4  9  1  0  0  0  0
  5  6  1  0  0  0  0
  5 21  1  0  0  0  0
  5 22  1  0  0  0  0
  6  7  1  0  0  0  0
  6  8  1  0  0  0  0
  6 23  1  0  0  0  0
  7 24  1  0  0  0  0
  8 25  1  0  0  0  0
  8 26  1  0  0  0  0
  8  9  1  0  0  0  0
  9 10  1  0  0  0  0
 10 11  1  0  0  0  0
 10 18  2  0  0  0  0
 11 12  2  0  0  0  0
 12 27  1  0  0  0  0
 12 13  1  0  0  0  0
 13 14  2  0  0  0  0
 14 15  1  0  0  0  0
 14 18  1  0  0  0  0
 15 16  1  0  0  0  0
 15 19  1  0  0  0  0
 16 17  2  0  0  0  0
 16 28  1  0  0  0  0
 17 18  1  0  0  0  0
M  CHG  1   3  -1
M  END
> <s_m_source_file>
AV-unprocessed.smi

> <i_m_source_file_index>
66

> <i_lp_mmshare_version>
43012

> <i_f3d_flags>
0

> <s_epik_input>
Tz1DKFtPSF0pW0NAQEhdMVtDSDJdW0NAQEhdKFtPSF0pW0NIMl1OMWMobltjSF1uMiljKGMyMylbbkhdW2NIXW4z

> <s_epik_cmdline>
J2VwaWtfcHl0aG9uJywgJy1waCcsICc3LjAnLCAnLXRuJywgJzgnLCAnLW1hJywgJzIwMCcsICctbWV0YWxfYmluZGluZycsICctaW1hZScsICc8aW5maWxlLm1hZT4nLCAnLW9tYWUnLCAnPG91dGZpbGUubWFlPic=

> <r_lp_tautomer_probability>
0.955585

> <r_epik_Ionization_Penalty>
0.00455415

> <r_epik_Ionization_Penalty_Charging>
0.000248217

> <r_epik_Ionization_Penalty_Neutral>
0.00430593

> <r_epik_State_Penalty>
0.0207074

> <r_epik_Charging_Adjusted_Penalty>
0.0209557

> <i_epik_Tot_Q>
-1

> <i_epik_Tot_abs_Q>
1

> <r_epik_Metal_State_Penalty>
0.337372

> <b_epik_Metal_Only>
0

> <s_lp_Force_Field>
OPLS_2005

> <r_lp_Energy>
24.8214

> <b_lp_Chiralities_Consistent>
1

> <s_lp_Variant>
AV-unprocessed.smi:66-1

> <Gold.Version>
5.8.1

> <Gold.Id.Protein>
6NUR|6NUR_protein|mol2

> <Gold.PLP.Fitness>
42.7082

> <Gold.PLP.PLP>
-30.3397

> <Gold.PLP.part.hbond>
-3.0000

> <Gold.PLP.part.metal>
0.0000

> <Gold.PLP.part.buried>
-5.2016

> <Gold.PLP.part.nonpolar>
-23.0962

> <Gold.PLP.part.repulsive>
0.2580

> <Gold.PLP.ligand.clash>
0.0000

> <Gold.PLP.ligand.torsion>
0.4361

> <Gold.PLP.Chemscore.Hbond>
4.3788

> <Gold.PLP.Chemscore.CHOScore>
0.0000

> <Gold.PLP.Chemscore.Metal>
0.0000

> <Gold.Chemscore.Hbonds>
donor molecule, donor type, donor heavy atom, donor atom, acceptor molecule, acceptor atom, score
      L1  H     7    24       P1  7957  1.00
      P1  H  7997  8009       L1     1  1.89
      P1  H 10752 10763       L1     3  1.73

> <Gold.PLP.Chemscore.Internal.Correction>
0.1041

> <Gold.Rescore>
     Score         DG    S(hbond)    S(metal)    S(lipo)     H(rot)  DE(clash)    DE(int)     intcor
     10.77     -13.51       2.61        0.00      33.30       1.78       0.26       2.48       ----

> <Gold.Chemscore.Fitness>
10.7708

> <Gold.Chemscore.DG>
-13.5123

> <Gold.Chemscore.ZeroCoef>
-5.4800

> <Gold.Chemscore.Hbond>
2.6060

> <Gold.Chemscore.Metal>
0.0000

> <Gold.Chemscore.Lipo>
33.2988

> <Gold.Chemscore.Internal_Hbond>
0.0000

> <Gold.Chemscore.DEClash>
0.2596

> <Gold.Chemscore.DEInternal>
2.4818

> <Gold.Chemscore.Rot>
1.7842

> <Gold.Chemscore.Internal.Correction>
   9.000000E+99

> <Gold.Chemscore.Hbonds>
donor molecule, donor type, donor heavy atom, donor atom, acceptor molecule, acceptor atom, score
      L1  H     7    24       P1  7957  0.93
      P1  H  7997  8009       L1     1  0.90
      P1  H 10752 10763       L1     3  0.79

> <Gold.Chemscore.Hbond.Weighted>
-8.7039

> <Gold.Chemscore.Metal.Weighted>
-0.0000

> <Gold.Chemscore.Lipo.Weighted>
-3.8960

> <Gold.Chemscore.Internal_Hbond.Weighted>
0.0000

> <Gold.Chemscore.DEClash.Weighted>
0.2596

> <Gold.Chemscore.DEInternal.Weighted>
2.4818

> <Gold.Chemscore.Rot.Weighted>
4.5676

> <Gold.Chemscore.Internal.Correction.Weighted>
   9.000000E+99

> <Gold.Protein.RotatedTorsions>
[ 6907 6896 6895 6894 ] final -111.93 input  -60.11 | X-H torsion
[ 7974 7965 7964 7962 ] final  149.63 input  175.53 | X-H torsion
[ 8008 7997 7996 7995 ] final -166.93 input   59.86 | X-H torsion
[ 10167 10162 10161 10158 ] final   61.73 input  -65.29 | X-H torsion
[ 10718 10713 10712 10709 ] final -168.48 input   66.30 | X-H torsion
[ 10763 10752 10751 10750 ] final   57.23 input  -60.55 | X-H torsion
[ 11005 11000 10999 10996 ] final   64.51 input  -57.11 | X-H torsion

> <Gold.Protein.ActiveResidues>
 VAL166  LYS551  ARG553  GLY616  TRP617  ASP618  TYR619  PRO620  LYS621  CYS622 
 ASP623  PHE694  ASN695  SER759  ASP760  ASP761  ALA762  ILE779  LEU786  VAL792 
 PHE793  MET794  SER795  GLU796  ALA797  LYS798  CYS799  TRP800  GLU811  SER814 

> <Gold.Protein.RotatedAtoms>
  150.7724  133.9163  159.3384 H   0  0  0  0  0  0  0  0  0  0  0  0  # atno 6907 bound_to 6896
  151.7046  135.0922  160.0266 H   0  0  0  0  0  0  0  0  0  0  0  0  # atno 6908 bound_to 6896
  152.3747  133.6427  159.6150 H   0  0  0  0  0  0  0  0  0  0  0  0  # atno 6909 bound_to 6896
  144.8423  139.6306  143.6011 H   0  0  0  0  0  0  0  0  0  0  0  0  # atno 7974 bound_to 7965
  155.8706  140.0993  157.1552 H   0  0  0  0  0  0  0  0  0  0  0  0  # atno 8008 bound_to 7997
  154.3997  140.1348  156.4137 H   0  0  0  0  0  0  0  0  0  0  0  0  # atno 8009 bound_to 7997
  155.7754  140.3460  155.5271 H   0  0  0  0  0  0  0  0  0  0  0  0  # atno 8010 bound_to 7997
  140.1516  144.4457  150.6756 H   0  0  0  0  0  0  0  0  0  0  0  0  # atno 10167 bound_to 10162
  156.6976  130.9184  151.3076 H   0  0  0  0  0  0  0  0  0  0  0  0  # atno 10718 bound_to 10713
  152.9846  135.5649  154.5357 H   0  0  0  0  0  0  0  0  0  0  0  0  # atno 10763 bound_to 10752
  154.4821  135.2789  155.1565 H   0  0  0  0  0  0  0  0  0  0  0  0  # atno 10764 bound_to 10752
  154.3069  135.6296  153.5502 H   0  0  0  0  0  0  0  0  0  0  0  0  # atno 10765 bound_to 10752
  139.9954  134.6525  156.0019 H   0  0  0  0  0  0  0  0  0  0  0  0  # atno 11005 bound_to 11000
  146.2714  139.6644  142.9293 LP  0  0  0  0  0  0  0  0  0  0  0  0  # atno 17320 bound_to 7965
  145.4668  141.0435  143.2721 LP  0  0  0  0  0  0  0  0  0  0  0  0  # atno 17321 bound_to 7965
  140.6699  143.2282  151.5651 LP  0  0  0  0  0  0  0  0  0  0  0  0  # atno 17342 bound_to 10162
  139.5423  144.2614  152.1375 LP  0  0  0  0  0  0  0  0  0  0  0  0  # atno 17343 bound_to 10162
  157.6985  130.9308  150.0716 LP  0  0  0  0  0  0  0  0  0  0  0  0  # atno 17370 bound_to 10713
  156.1752  130.3648  149.9110 LP  0  0  0  0  0  0  0  0  0  0  0  0  # atno 17371 bound_to 10713
  141.1600  133.6539  156.4287 LP  0  0  0  0  0  0  0  0  0  0  0  0  # atno 17394 bound_to 11000
  140.4828  134.6648  157.5178 LP  0  0  0  0  0  0  0  0  0  0  0  0  # atno 17395 bound_to 11000

$$$$
