AV-unprocessed.smi:149|AV-procd|sdf|1235|dock7
  -GOLD-   2262018443D 1   1.00000     0.00000
 Structure written by MMmdl.
 60 64  0  0  0  0  0  0  0  0  2 V2000
  148.6737  141.7222  154.1312 C   0  0  0  0  0  0  0  0  0  0  0  0
  147.3330  141.5714  154.8787 C   0  0  1  0  0  0  0  0  0  0  0  0
  146.5883  140.3126  154.4028 C   0  0  0  0  0  0  0  0  0  0  0  0
  146.8750  139.2756  155.3869 N   0  0  0  0  0  0  0  0  0  0  0  0
  146.9158  137.9640  155.0361 C   0  0  0  0  0  0  0  0  0  0  0  0
  147.4446  137.0696  155.9128 N   0  0  0  0  0  0  0  0  0  0  0  0
  147.5023  135.7713  155.6045 C   0  0  0  0  0  0  0  0  0  0  0  0
  147.0892  135.1596  154.4943 N   0  0  0  0  0  0  0  0  0  0  0  0
  146.5437  136.0447  153.6115 C   0  0  0  0  0  0  0  0  0  0  0  0
  146.4178  137.4518  153.8016 C   0  0  0  0  0  0  0  0  0  0  0  0
  145.8006  138.0194  152.6928 N   0  0  0  0  0  0  0  0  0  0  0  0
  145.5840  137.0126  151.8923 C   0  0  0  0  0  0  0  0  0  0  0  0
  145.9986  135.7874  152.3627 N   0  0  0  0  0  0  0  0  0  0  0  0
  145.8748  134.5290  151.6802 C   0  0  0  0  0  0  0  0  0  0  0  0
  144.9743  134.3674  150.4542 C   0  0  0  0  0  0  0  0  0  0  0  0
  144.6846  132.9071  150.8700 C   0  0  0  0  0  0  0  0  0  0  0  0
  143.2198  132.4645  150.7189 C   0  0  0  0  0  0  0  0  0  0  0  0
  142.9134  132.1502  149.3755 O   0  0  0  0  0  0  0  0  0  0  0  0
  145.6040  131.8494  150.2267 C   0  0  0  0  0  0  0  0  0  0  0  0
  146.0090  130.8740  151.1660 O   0  0  0  0  0  0  0  0  0  0  0  0
  145.0973  133.3615  152.2898 C   0  0  0  0  0  0  0  0  0  0  0  0
  147.7159  139.8094  156.4477 C   0  0  0  0  0  0  0  0  0  0  0  0
  147.4728  141.3213  156.3944 C   0  0  1  0  0  0  0  0  0  0  0  0
  148.5013  142.1526  157.0808 N   0  3  0  0  0  0  0  0  0  0  0  0
  148.0299  142.6847  158.3854 C   0  0  0  0  0  0  0  0  0  0  0  0
  149.1028  143.5798  159.0270 C   0  0  0  0  0  0  0  0  0  0  0  0
  150.3052  142.8392  159.1873 O   0  0  0  0  0  0  0  0  0  0  0  0
  150.8219  142.3960  157.9400 C   0  0  0  0  0  0  0  0  0  0  0  0
  149.8058  141.4644  157.2580 C   0  0  0  0  0  0  0  0  0  0  0  0
  149.3199  140.8572  154.2824 H   0  0  0  0  0  0  0  0  0  0  0  0
  149.2217  142.6066  154.4541 H   0  0  0  0  0  0  0  0  0  0  0  0
  148.5078  141.8225  153.0583 H   0  0  0  0  0  0  0  0  0  0  0  0
  146.7277  142.4579  154.6861 H   0  0  0  0  0  0  0  0  0  0  0  0
  145.5121  140.4885  154.3893 H   0  0  0  0  0  0  0  0  0  0  0  0
  146.8946  140.0231  153.3968 H   0  0  0  0  0  0  0  0  0  0  0  0
  147.9423  135.1305  156.3546 H   0  0  0  0  0  0  0  0  0  0  0  0
  145.1100  137.1401  150.9300 H   0  0  0  0  0  0  0  0  0  0  0  0
  146.8898  134.2091  151.4374 H   0  0  0  0  0  0  0  0  0  0  0  0
  144.0871  135.0012  150.4890 H   0  0  0  0  0  0  0  0  0  0  0  0
  145.4899  134.4764  149.4995 H   0  0  0  0  0  0  0  0  0  0  0  0
  142.9936  131.6023  151.3465 H   0  0  0  0  0  0  0  0  0  0  0  0
  142.5424  133.2581  151.0359 H   0  0  0  0  0  0  0  0  0  0  0  0
  142.3654  131.3801  149.3653 H   0  0  0  0  0  0  0  0  0  0  0  0
  145.1138  131.3491  149.3911 H   0  0  0  0  0  0  0  0  0  0  0  0
  146.5039  132.3078  149.8161 H   0  0  0  0  0  0  0  0  0  0  0  0
  146.9036  130.6324  150.9807 H   0  0  0  0  0  0  0  0  0  0  0  0
  145.7155  132.6522  152.8407 H   0  0  0  0  0  0  0  0  0  0  0  0
  144.2496  133.6846  152.8959 H   0  0  0  0  0  0  0  0  0  0  0  0
  147.4410  139.3876  157.4152 H   0  0  0  0  0  0  0  0  0  0  0  0
  148.7616  139.5707  156.2488 H   0  0  0  0  0  0  0  0  0  0  0  0
  146.5073  141.5179  156.8655 H   0  0  0  0  0  0  0  0  0  0  0  0
  147.1139  143.2607  158.2575 H   0  0  0  0  0  0  0  0  0  0  0  0
  147.7918  141.8556  159.0537 H   0  0  0  0  0  0  0  0  0  0  0  0
  149.2844  144.4691  158.4211 H   0  0  0  0  0  0  0  0  0  0  0  0
  148.7682  143.9238  160.0057 H   0  0  0  0  0  0  0  0  0  0  0  0
  151.0543  143.2515  157.3036 H   0  0  0  0  0  0  0  0  0  0  0  0
  151.7585  141.8665  158.1151 H   0  0  0  0  0  0  0  0  0  0  0  0
  149.6658  140.5621  157.8552 H   0  0  0  0  0  0  0  0  0  0  0  0
  150.2110  141.1530  156.2954 H   0  0  0  0  0  0  0  0  0  0  0  0
  148.6757  142.9474  156.4825 H   0  0  0  0  0  0  0  0  0  0  0  0
  1  2  1  0  0  0  0
  1 30  1  0  0  0  0
  1 31  1  0  0  0  0
  1 32  1  0  0  0  0
  2 23  1  0  0  0  0
  2  3  1  0  0  0  0
  2 33  1  0  0  0  0
  3  4  1  0  0  0  0
  3 34  1  0  0  0  0
  3 35  1  0  0  0  0
  4  5  1  0  0  0  0
  4 22  1  0  0  0  0
  5 10  1  0  0  0  0
  5  6  2  0  0  0  0
  6  7  1  0  0  0  0
  7  8  2  0  0  0  0
  7 36  1  0  0  0  0
  8  9  1  0  0  0  0
  9 13  1  0  0  0  0
  9 10  2  0  0  0  0
 10 11  1  0  0  0  0
 11 12  2  0  0  0  0
 12 13  1  0  0  0  0
 12 37  1  0  0  0  0
 13 14  1  0  0  0  0
 14 21  1  0  0  0  0
 14 15  1  0  0  0  0
 14 38  1  0  0  0  0
 15 16  1  0  0  0  0
 15 39  1  0  0  0  0
 15 40  1  0  0  0  0
 16 17  1  0  0  0  0
 16 19  1  0  0  0  0
 16 21  1  0  0  0  0
 17 18  1  0  0  0  0
 17 41  1  0  0  0  0
 17 42  1  0  0  0  0
 18 43  1  0  0  0  0
 19 20  1  0  0  0  0
 19 44  1  0  0  0  0
 19 45  1  0  0  0  0
 20 46  1  0  0  0  0
 21 47  1  0  0  0  0
 21 48  1  0  0  0  0
 22 23  1  0  0  0  0
 22 49  1  0  0  0  0
 22 50  1  0  0  0  0
 23 24  1  0  0  0  0
 23 51  1  0  0  0  0
 24 29  1  0  0  0  0
 24 25  1  0  0  0  0
 24 60  1  0  0  0  0
 25 26  1  0  0  0  0
 25 52  1  0  0  0  0
 25 53  1  0  0  0  0
 26 27  1  0  0  0  0
 26 54  1  0  0  0  0
 26 55  1  0  0  0  0
 27 28  1  0  0  0  0
 28 29  1  0  0  0  0
 28 56  1  0  0  0  0
 28 57  1  0  0  0  0
 29 58  1  0  0  0  0
 29 59  1  0  0  0  0
M  CHG  1  24   1
M  END
> <s_m_source_file>
AV-unprocessed.smi

> <i_m_source_file_index>
149

> <i_lp_mmshare_version>
43012

> <i_f3d_flags>
0

> <s_epik_input>
W0NIMl0xW0NIMl1PW0NIMl1bQ0gyXU4xW0NAQEhdMltDSDJdTihbQ0gyXVtDQEhdMltDSDNdKWMobltjSF1uMyljKGMzNCluW2NIXW40W0NIXShbQ0gyXTUpW0NIMl1DNShbQ0gyXVtPSF0pW0NIMl1bT0hd

> <s_epik_cmdline>
J2VwaWtfcHl0aG9uJywgJy1waCcsICc3LjAnLCAnLXRuJywgJzgnLCAnLW1hJywgJzIwMCcsICctbWV0YWxfYmluZGluZycsICctaW1hZScsICc8aW5maWxlLm1hZT4nLCAnLW9tYWUnLCAnPG91dGZpbGUubWFlPic=

> <r_lp_tautomer_probability>
1

> <r_epik_Ionization_Penalty>
0.404847

> <r_epik_Ionization_Penalty_Charging>
0.404623

> <r_epik_Ionization_Penalty_Neutral>
0.000224096

> <r_epik_State_Penalty>
0.238803

> <r_epik_Charging_Adjusted_Penalty>
0.643425

> <i_epik_Tot_Q>
1

> <i_epik_Tot_abs_Q>
1

> <r_epik_Metal_State_Penalty>
0.239083

> <b_epik_Metal_Only>
0

> <s_lp_Force_Field>
OPLS_2005

> <r_lp_Energy>
70.5457

> <b_lp_Chiralities_Consistent>
1

> <s_lp_Variant>
AV-unprocessed.smi:149-2

> <Gold.Version>
5.8.1

> <Gold.Id.Protein>
6NUR|6NUR_protein|mol2

> <Gold.PLP.Fitness>
46.3963

> <Gold.PLP.PLP>
-34.9376

> <Gold.PLP.part.hbond>
-5.2343

> <Gold.PLP.part.metal>
0.0000

> <Gold.PLP.part.buried>
0.0687

> <Gold.PLP.part.nonpolar>
-29.8946

> <Gold.PLP.part.repulsive>
0.4882

> <Gold.PLP.ligand.clash>
0.0000

> <Gold.PLP.ligand.torsion>
2.1268

> <Gold.PLP.Chemscore.Hbond>
4.0000

> <Gold.PLP.Chemscore.CHOScore>
1.0000

> <Gold.PLP.Chemscore.Metal>
0.0000

> <Gold.Chemscore.Hbonds>
donor molecule, donor type, donor heavy atom, donor atom, acceptor molecule, acceptor atom, score
      L1  H    18    43       P1 10952  1.00
      L1  H    20    46       P1 10747  0.60
      L1  H    24    60       P1  8028  2.00
      L1  C    12    37       P1 10171  1.00

> <Gold.PLP.Chemscore.Internal.Correction>
0.7123

> <Gold.Rescore>
     Score         DG    S(hbond)    S(metal)    S(lipo)     H(rot)  DE(clash)    DE(int)     intcor
     12.08     -16.89       2.89        0.00      82.56       3.09       1.53       3.28       ----

> <Gold.Chemscore.Fitness>
12.0821

> <Gold.Chemscore.DG>
-16.8936

> <Gold.Chemscore.ZeroCoef>
-5.4800

> <Gold.Chemscore.Hbond>
2.8945

> <Gold.Chemscore.Metal>
0.0000

> <Gold.Chemscore.Lipo>
82.5589

> <Gold.Chemscore.Internal_Hbond>
0.0000

> <Gold.Chemscore.DEClash>
1.5308

> <Gold.Chemscore.DEInternal>
3.2806

> <Gold.Chemscore.Rot>
3.0912

> <Gold.Chemscore.Internal.Correction>
   9.000000E+99

> <Gold.Chemscore.Hbonds>
donor molecule, donor type, donor heavy atom, donor atom, acceptor molecule, acceptor atom, score
      L1  H    18    43       P1 10952  0.99
      L1  H    20    46       P1 10747  0.58
      L1  H    24    60       P1  8028  0.93

> <Gold.Chemscore.Hbond.Weighted>
-9.6677

> <Gold.Chemscore.Metal.Weighted>
-0.0000

> <Gold.Chemscore.Lipo.Weighted>
-9.6594

> <Gold.Chemscore.Internal_Hbond.Weighted>
0.0000

> <Gold.Chemscore.DEClash.Weighted>
1.5308

> <Gold.Chemscore.DEInternal.Weighted>
3.2806

> <Gold.Chemscore.Rot.Weighted>
7.9135

> <Gold.Chemscore.Internal.Correction.Weighted>
   9.000000E+99

> <Gold.Protein.RotatedTorsions>
[ 6907 6896 6895 6894 ] final   31.96 input  -60.11 | X-H torsion
[ 7974 7965 7964 7962 ] final  143.39 input  175.53 | X-H torsion
[ 8008 7997 7996 7995 ] final -118.60 input   59.86 | X-H torsion
[ 10167 10162 10161 10158 ] final   58.60 input  -65.29 | X-H torsion
[ 10718 10713 10712 10709 ] final  171.75 input   66.30 | X-H torsion
[ 10763 10752 10751 10750 ] final -121.13 input  -60.55 | X-H torsion
[ 11005 11000 10999 10996 ] final   46.22 input  -57.11 | X-H torsion

> <Gold.Protein.ActiveResidues>
 VAL166  LYS551  ARG553  GLY616  TRP617  ASP618  TYR619  PRO620  LYS621  CYS622 
 ASP623  PHE694  ASN695  SER759  ASP760  ASP761  ALA762  ILE779  LEU786  VAL792 
 PHE793  MET794  SER795  GLU796  ALA797  LYS798  CYS799  TRP800  GLU811  SER814 

> <Gold.Protein.RotatedAtoms>
  152.0677  134.9553  160.0574 H   0  0  0  0  0  0  0  0  0  0  0  0  # atno 6907 bound_to 6896
  152.0892  133.4187  159.4544 H   0  0  0  0  0  0  0  0  0  0  0  0  # atno 6908 bound_to 6896
  150.6836  134.2811  159.4671 H   0  0  0  0  0  0  0  0  0  0  0  0  # atno 6909 bound_to 6896
  144.8925  139.5538  143.5792 H   0  0  0  0  0  0  0  0  0  0  0  0  # atno 7974 bound_to 7965
  155.1023  140.0396  157.2700 H   0  0  0  0  0  0  0  0  0  0  0  0  # atno 8008 bound_to 7997
  154.6748  140.2620  155.6944 H   0  0  0  0  0  0  0  0  0  0  0  0  # atno 8009 bound_to 7997
  156.2672  140.2790  156.1271 H   0  0  0  0  0  0  0  0  0  0  0  0  # atno 8010 bound_to 7997
  140.1855  144.4139  150.6595 H   0  0  0  0  0  0  0  0  0  0  0  0  # atno 10167 bound_to 10162
  156.9891  131.0142  151.2861 H   0  0  0  0  0  0  0  0  0  0  0  0  # atno 10718 bound_to 10713
  154.8661  135.4178  154.2571 H   0  0  0  0  0  0  0  0  0  0  0  0  # atno 10763 bound_to 10752
  153.3506  135.6998  153.6797 H   0  0  0  0  0  0  0  0  0  0  0  0  # atno 10764 bound_to 10752
  153.5739  135.3586  155.2821 H   0  0  0  0  0  0  0  0  0  0  0  0  # atno 10765 bound_to 10752
  140.1388  134.4610  155.8465 H   0  0  0  0  0  0  0  0  0  0  0  0  # atno 11005 bound_to 11000
  146.3062  139.7588  142.9054 LP  0  0  0  0  0  0  0  0  0  0  0  0  # atno 17320 bound_to 7965
  145.3758  141.0350  143.3205 LP  0  0  0  0  0  0  0  0  0  0  0  0  # atno 17321 bound_to 7965
  140.6491  143.2220  151.6118 LP  0  0  0  0  0  0  0  0  0  0  0  0  # atno 17342 bound_to 10162
  139.5278  144.3007  152.1076 LP  0  0  0  0  0  0  0  0  0  0  0  0  # atno 17343 bound_to 10162
  157.5472  130.8158  149.8100 LP  0  0  0  0  0  0  0  0  0  0  0  0  # atno 17370 bound_to 10713
  156.0214  130.3794  150.1950 LP  0  0  0  0  0  0  0  0  0  0  0  0  # atno 17371 bound_to 10713
  141.2182  133.6825  156.7208 LP  0  0  0  0  0  0  0  0  0  0  0  0  # atno 17394 bound_to 11000
  140.2748  134.8363  157.3880 LP  0  0  0  0  0  0  0  0  0  0  0  0  # atno 17395 bound_to 11000

$$$$
