AV-unprocessed.smi:2334|AV-procd|sdf|9322|dock2
  -GOLD-   2272012543D 1   1.00000     0.00000
 Structure written by MMmdl.
 50 52  0  0  0  0  0  0  0  0  2 V2000
  149.2998  140.8952  154.4062 C   0  0  0  0  0  0  0  0  0  0  0  0
  150.0160  140.9205  155.7465 C   0  0  0  0  0  0  0  0  0  0  0  0
  150.1886  142.1385  156.3071 N   0  3  0  0  0  0  0  0  0  0  0  0
  150.8021  142.3403  157.4923 C   0  0  0  0  0  0  0  0  0  0  0  0
  150.9071  143.6653  157.9383 N   0  0  0  0  0  0  0  0  0  0  0  0
  152.2684  144.1681  158.0117 C   0  0  0  0  0  0  0  0  0  0  0  0
  152.2007  145.4192  158.8924 C   0  0  0  0  0  0  0  0  0  0  0  0
  150.8927  145.2788  159.6801 C   0  0  0  0  0  0  0  0  0  0  0  0
  150.3106  143.9349  159.2361 C   0  0  0  0  0  0  0  0  0  0  0  0
  151.2984  141.2266  158.2056 C   0  0  0  0  0  0  0  0  0  0  0  0
  151.1432  139.9347  157.6656 C   0  0  0  0  0  0  0  0  0  0  0  0
  150.5043  139.7663  156.4109 C   0  0  0  0  0  0  0  0  0  0  0  0
  150.2960  138.4858  155.8257 N   0  0  0  0  0  0  0  0  0  0  0  0
  150.2779  137.2856  156.4309 C   0  0  0  0  0  0  0  0  0  0  0  0
  150.4780  137.1019  157.6311 O   0  0  0  0  0  0  0  0  0  0  0  0
  150.0298  136.3055  155.5448 N   0  0  0  0  0  0  0  0  0  0  0  0
  149.9219  134.8546  155.7612 C   0  0  0  0  0  0  0  0  0  0  0  0
  149.5067  134.2619  154.3971 C   0  0  0  0  0  0  0  0  0  0  0  0
  151.2811  134.2615  156.2138 C   0  0  0  0  0  0  0  0  0  0  0  0
  151.1543  132.7991  156.6784 C   0  0  0  0  0  0  0  0  0  0  0  0
  150.1736  132.6948  157.7030 O   0  0  0  0  0  0  0  0  0  0  0  0
  148.8714  133.0562  157.2597 C   0  0  0  0  0  0  0  0  0  0  0  0
  148.8489  134.5353  156.8339 C   0  0  0  0  0  0  0  0  0  0  0  0
  149.1898  139.8917  153.9974 H   0  0  0  0  0  0  0  0  0  0  0  0
  149.8518  141.4908  153.6785 H   0  0  0  0  0  0  0  0  0  0  0  0
  148.3027  141.3249  154.5070 H   0  0  0  0  0  0  0  0  0  0  0  0
  152.9263  143.4247  158.4643 H   0  0  0  0  0  0  0  0  0  0  0  0
  152.6549  144.3986  157.0185 H   0  0  0  0  0  0  0  0  0  0  0  0
  153.0709  145.4945  159.5453 H   0  0  0  0  0  0  0  0  0  0  0  0
  152.1694  146.3187  158.2763 H   0  0  0  0  0  0  0  0  0  0  0  0
  151.0498  145.3142  160.7586 H   0  0  0  0  0  0  0  0  0  0  0  0
  150.2132  146.0903  159.4165 H   0  0  0  0  0  0  0  0  0  0  0  0
  149.2229  143.9723  159.1688 H   0  0  0  0  0  0  0  0  0  0  0  0
  150.5766  143.1583  159.9539 H   0  0  0  0  0  0  0  0  0  0  0  0
  151.7922  141.3516  159.1580 H   0  0  0  0  0  0  0  0  0  0  0  0
  151.5070  139.0930  158.2344 H   0  0  0  0  0  0  0  0  0  0  0  0
  150.2169  138.4766  154.8194 H   0  0  0  0  0  0  0  0  0  0  0  0
  149.8916  136.5986  154.5887 H   0  0  0  0  0  0  0  0  0  0  0  0
  149.3947  133.1790  154.4275 H   0  0  0  0  0  0  0  0  0  0  0  0
  150.2460  134.4857  153.6270 H   0  0  0  0  0  0  0  0  0  0  0  0
  148.5538  134.6729  154.0613 H   0  0  0  0  0  0  0  0  0  0  0  0
  152.0172  134.3365  155.4126 H   0  0  0  0  0  0  0  0  0  0  0  0
  151.6896  134.8290  157.0492 H   0  0  0  0  0  0  0  0  0  0  0  0
  150.9054  132.1357  155.8495 H   0  0  0  0  0  0  0  0  0  0  0  0
  152.1088  132.4537  157.0756 H   0  0  0  0  0  0  0  0  0  0  0  0
  148.5543  132.4007  156.4480 H   0  0  0  0  0  0  0  0  0  0  0  0
  148.1698  132.8970  158.0788 H   0  0  0  0  0  0  0  0  0  0  0  0
  149.0134  135.1291  157.7323 H   0  0  0  0  0  0  0  0  0  0  0  0
  147.8557  134.8059  156.4740 H   0  0  0  0  0  0  0  0  0  0  0  0
  149.8333  142.9527  155.8054 H   0  0  0  0  0  0  0  0  0  0  0  0
  1  2  1  0  0  0  0
  1 24  1  0  0  0  0
  1 25  1  0  0  0  0
  1 26  1  0  0  0  0
  2 12  1  0  0  0  0
  2  3  2  0  0  0  0
  3  4  1  0  0  0  0
  3 50  1  0  0  0  0
  4  5  1  0  0  0  0
  4 10  2  0  0  0  0
  5  9  1  0  0  0  0
  5  6  1  0  0  0  0
  6  7  1  0  0  0  0
  6 27  1  0  0  0  0
  6 28  1  0  0  0  0
  7  8  1  0  0  0  0
  7 29  1  0  0  0  0
  7 30  1  0  0  0  0
  8  9  1  0  0  0  0
  8 31  1  0  0  0  0
  8 32  1  0  0  0  0
  9 33  1  0  0  0  0
  9 34  1  0  0  0  0
 10 11  1  0  0  0  0
 10 35  1  0  0  0  0
 11 12  2  0  0  0  0
 11 36  1  0  0  0  0
 12 13  1  0  0  0  0
 13 14  1  0  0  0  0
 13 37  1  0  0  0  0
 14 15  2  0  0  0  0
 14 16  1  0  0  0  0
 16 17  1  0  0  0  0
 16 38  1  0  0  0  0
 17 23  1  0  0  0  0
 17 18  1  0  0  0  0
 17 19  1  0  0  0  0
 18 39  1  0  0  0  0
 18 40  1  0  0  0  0
 18 41  1  0  0  0  0
 19 20  1  0  0  0  0
 19 42  1  0  0  0  0
 19 43  1  0  0  0  0
 20 21  1  0  0  0  0
 20 44  1  0  0  0  0
 20 45  1  0  0  0  0
 21 22  1  0  0  0  0
 22 23  1  0  0  0  0
 22 46  1  0  0  0  0
 22 47  1  0  0  0  0
 23 48  1  0  0  0  0
 23 49  1  0  0  0  0
M  CHG  1   3   1
M  END
> <s_m_source_file>
AV-unprocessed.smi

> <i_m_source_file_index>
2334

> <i_lp_mmshare_version>
43012

> <i_f3d_flags>
0

> <s_epik_input>
W0NIMl0xW0NIMl1bQ0gyXVtDSDJdTjFjKG5jMltDSDNdKVtjSF1bY0hdYzJbTkhdQyg9TylbTkhdQzMoW0NIM10pW0NIMl1bQ0gyXU9bQ0gyXVtDSDJdMw==

> <s_epik_cmdline>
J2VwaWtfcHl0aG9uJywgJy1waCcsICc3LjAnLCAnLXRuJywgJzgnLCAnLW1hJywgJzIwMCcsICctbWV0YWxfYmluZGluZycsICctaW1hZScsICc8aW5maWxlLm1hZT4nLCAnLW9tYWUnLCAnPG91dGZpbGUubWFlPic=

> <r_lp_tautomer_probability>
0.999994

> <r_epik_Ionization_Penalty>
0.526488

> <r_epik_Ionization_Penalty_Charging>
0.526468

> <r_epik_Ionization_Penalty_Neutral>
1.9901e-05

> <r_epik_State_Penalty>
0.534906

> <r_epik_Charging_Adjusted_Penalty>
1.06137

> <i_epik_Tot_Q>
1

> <i_epik_Tot_abs_Q>
1

> <r_epik_Metal_State_Penalty>
0.740533

> <b_epik_Metal_Only>
0

> <s_lp_Force_Field>
OPLS_2005

> <r_lp_Energy>
48.5671

> <b_lp_Chiralities_Consistent>
1

> <s_lp_Variant>
AV-unprocessed.smi:2334-2

> <Gold.Version>
5.8.1

> <Gold.Id.Protein>
6NUR|6NUR_protein|mol2

> <Gold.PLP.Fitness>
45.9078

> <Gold.PLP.PLP>
-37.2454

> <Gold.PLP.part.hbond>
-2.0000

> <Gold.PLP.part.metal>
0.0000

> <Gold.PLP.part.buried>
-5.4195

> <Gold.PLP.part.nonpolar>
-30.0451

> <Gold.PLP.part.repulsive>
0.3047

> <Gold.PLP.ligand.clash>
0.0000

> <Gold.PLP.ligand.torsion>
0.1759

> <Gold.PLP.Chemscore.Hbond>
3.0000

> <Gold.PLP.Chemscore.CHOScore>
0.0000

> <Gold.PLP.Chemscore.Metal>
0.0000

> <Gold.Chemscore.Hbonds>
donor molecule, donor type, donor heavy atom, donor atom, acceptor molecule, acceptor atom, score
      L1  H     3    50       P1  8028  2.00
      P1  H  6896  6908       L1    21  1.00

> <Gold.PLP.Chemscore.Internal.Correction>
0.0142

> <Gold.Rescore>
     Score         DG    S(hbond)    S(metal)    S(lipo)     H(rot)  DE(clash)    DE(int)     intcor
     18.65     -20.13       1.80        0.00      99.64       1.18       0.07       1.41       ----

> <Gold.Chemscore.Fitness>
18.6495

> <Gold.Chemscore.DG>
-20.1286

> <Gold.Chemscore.ZeroCoef>
-5.4800

> <Gold.Chemscore.Hbond>
1.7989

> <Gold.Chemscore.Metal>
0.0000

> <Gold.Chemscore.Lipo>
99.6406

> <Gold.Chemscore.Internal_Hbond>
0.0000

> <Gold.Chemscore.DEClash>
0.0689

> <Gold.Chemscore.DEInternal>
1.4102

> <Gold.Chemscore.Rot>
1.1788

> <Gold.Chemscore.Internal.Correction>
   9.000000E+99

> <Gold.Chemscore.Hbonds>
donor molecule, donor type, donor heavy atom, donor atom, acceptor molecule, acceptor atom, score
      L1  H     3    50       P1  8028  0.93
      P1  H  6896  6908       L1    21  0.44

> <Gold.Chemscore.Hbond.Weighted>
-6.0084

> <Gold.Chemscore.Metal.Weighted>
-0.0000

> <Gold.Chemscore.Lipo.Weighted>
-11.6580

> <Gold.Chemscore.Internal_Hbond.Weighted>
0.0000

> <Gold.Chemscore.DEClash.Weighted>
0.0689

> <Gold.Chemscore.DEInternal.Weighted>
1.4102

> <Gold.Chemscore.Rot.Weighted>
3.0178

> <Gold.Chemscore.Internal.Correction.Weighted>
   9.000000E+99

> <Gold.Protein.RotatedTorsions>
[ 6907 6896 6895 6894 ] final  101.85 input  -60.11 | X-H torsion
[ 7974 7965 7964 7962 ] final  -30.79 input  175.53 | X-H torsion
[ 8008 7997 7996 7995 ] final  -58.26 input   59.86 | X-H torsion
[ 10167 10162 10161 10158 ] final  -25.24 input  -65.29 | X-H torsion
[ 10718 10713 10712 10709 ] final  107.18 input   66.30 | X-H torsion
[ 10763 10752 10751 10750 ] final -174.57 input  -60.55 | X-H torsion
[ 11005 11000 10999 10996 ] final  -33.82 input  -57.11 | X-H torsion

> <Gold.Protein.ActiveResidues>
 VAL166  LYS551  ARG553  GLY616  TRP617  ASP618  TYR619  PRO620  LYS621  CYS622 
 ASP623  PHE694  ASN695  SER759  ASP760  ASP761  ALA762  ILE779  LEU786  VAL792 
 PHE793  MET794  SER795  GLU796  ALA797  LYS798  CYS799  TRP800  GLU811  SER814 

> <Gold.Protein.RotatedAtoms>
  152.5339  134.0063  159.7917 H   0  0  0  0  0  0  0  0  0  0  0  0  # atno 6907 bound_to 6896
  151.0273  133.5814  159.2671 H   0  0  0  0  0  0  0  0  0  0  0  0  # atno 6908 bound_to 6896
  151.2832  135.0727  159.9230 H   0  0  0  0  0  0  0  0  0  0  0  0  # atno 6909 bound_to 6896
  146.1116  140.5586  142.8775 H   0  0  0  0  0  0  0  0  0  0  0  0  # atno 7974 bound_to 7965
  154.4301  140.1088  156.5928 H   0  0  0  0  0  0  0  0  0  0  0  0  # atno 8008 bound_to 7997
  155.5993  140.3493  155.4570 H   0  0  0  0  0  0  0  0  0  0  0  0  # atno 8009 bound_to 7997
  156.0185  140.1234  157.0371 H   0  0  0  0  0  0  0  0  0  0  0  0  # atno 8010 bound_to 7997
  140.7287  143.4282  151.0844 H   0  0  0  0  0  0  0  0  0  0  0  0  # atno 10167 bound_to 10162
  157.6639  131.0867  150.6118 H   0  0  0  0  0  0  0  0  0  0  0  0  # atno 10718 bound_to 10713
  154.5947  135.2848  155.0599 H   0  0  0  0  0  0  0  0  0  0  0  0  # atno 10763 bound_to 10752
  154.1886  135.6444  153.5057 H   0  0  0  0  0  0  0  0  0  0  0  0  # atno 10764 bound_to 10752
  153.0134  135.5441  154.6644 H   0  0  0  0  0  0  0  0  0  0  0  0  # atno 10765 bound_to 10752
  140.9666  133.7133  156.1455 H   0  0  0  0  0  0  0  0  0  0  0  0  # atno 11005 bound_to 11000
  144.7516  140.5206  143.6797 LP  0  0  0  0  0  0  0  0  0  0  0  0  # atno 17320 bound_to 7965
  145.5652  139.1481  143.3319 LP  0  0  0  0  0  0  0  0  0  0  0  0  # atno 17321 bound_to 7965
  139.7936  143.8184  152.3155 LP  0  0  0  0  0  0  0  0  0  0  0  0  # atno 17342 bound_to 10162
  139.8176  144.7309  150.9615 LP  0  0  0  0  0  0  0  0  0  0  0  0  # atno 17343 bound_to 10162
  156.6419  130.4461  149.5749 LP  0  0  0  0  0  0  0  0  0  0  0  0  # atno 17370 bound_to 10713
  156.2202  130.6733  151.1361 LP  0  0  0  0  0  0  0  0  0  0  0  0  # atno 17371 bound_to 10713
  140.7390  134.4171  157.5557 LP  0  0  0  0  0  0  0  0  0  0  0  0  # atno 17394 bound_to 11000
  139.8897  134.8824  156.2409 LP  0  0  0  0  0  0  0  0  0  0  0  0  # atno 17395 bound_to 11000

$$$$
