AV-unprocessed.smi:3330|AV-procd|sdf|12802|dock8
  -GOLD-   2272019163D 1   1.00000     0.00000
 Structure written by MMmdl.
 39 40  0  0  0  0  0  0  0  0  2 V2000
  151.5684  141.0024  158.1688 C   0  0  0  0  0  0  0  0  0  0  0  0
  151.3874  142.4355  157.6237 C   0  0  1  0  0  0  0  0  0  0  0  0
  150.0058  142.6250  157.1239 N   0  3  0  0  0  0  0  0  0  0  0  0
  149.3742  141.4321  156.5233 C   0  0  0  0  0  0  0  0  0  0  0  0
  148.6230  141.8064  155.2364 C   0  0  0  0  0  0  0  0  0  0  0  0
  148.3507  140.6257  154.4125 N   0  0  0  0  0  0  0  0  0  0  0  0
  147.1244  140.2258  154.0524 C   0  0  0  0  0  0  0  0  0  0  0  0
  146.0515  140.7562  154.3381 O   0  0  0  0  0  0  0  0  0  0  0  0
  147.2550  138.9699  153.2186 C   0  0  0  0  0  0  0  0  0  0  0  0
  148.6942  138.8198  153.2456 N   0  0  0  0  0  0  0  0  0  0  0  0
  149.2963  139.7903  153.9453 C   0  0  0  0  0  0  0  0  0  0  0  0
  150.5089  139.8866  154.1276 O   0  0  0  0  0  0  0  0  0  0  0  0
  151.7122  143.5266  158.6794 C   0  0  2  0  0  0  0  0  0  0  0  0
  152.6654  144.6097  158.1372 C   0  0  0  0  0  0  0  0  0  0  0  0
  152.2475  142.9625  159.9126 N   0  0  0  0  0  0  0  0  0  0  0  0
  153.4504  142.3139  160.1034 C   0  0  0  0  0  0  0  0  0  0  0  0
  153.5219  141.9641  161.4211 C   0  0  0  0  0  0  0  0  0  0  0  0
  152.2988  142.4450  161.9655 C   0  0  0  0  0  0  0  0  0  0  0  0
  151.5391  143.0426  161.0619 N   0  0  0  0  0  0  0  0  0  0  0  0
  152.5942  140.8163  158.4871 H   0  0  0  0  0  0  0  0  0  0  0  0
  151.3412  140.2488  157.4155 H   0  0  0  0  0  0  0  0  0  0  0  0
  150.9188  140.8209  159.0256 H   0  0  0  0  0  0  0  0  0  0  0  0
  152.0718  142.5689  156.7841 H   0  0  0  0  0  0  0  0  0  0  0  0
  149.4277  142.9654  157.8789 H   0  0  0  0  0  0  0  0  0  0  0  0
  150.1430  140.6902  156.3027 H   0  0  0  0  0  0  0  0  0  0  0  0
  148.6830  140.9807  157.2348 H   0  0  0  0  0  0  0  0  0  0  0  0
  147.6858  142.3080  155.4847 H   0  0  0  0  0  0  0  0  0  0  0  0
  149.2028  142.5326  154.6635 H   0  0  0  0  0  0  0  0  0  0  0  0
  146.7521  138.1217  153.6838 H   0  0  0  0  0  0  0  0  0  0  0  0
  146.8850  139.1194  152.2038 H   0  0  0  0  0  0  0  0  0  0  0  0
  149.1766  138.0608  152.7858 H   0  0  0  0  0  0  0  0  0  0  0  0
  150.7763  144.0199  158.9474 H   0  0  0  0  0  0  0  0  0  0  0  0
  152.2334  145.1378  157.2872 H   0  0  0  0  0  0  0  0  0  0  0  0
  153.6149  144.1827  157.8126 H   0  0  0  0  0  0  0  0  0  0  0  0
  152.8830  145.3555  158.9024 H   0  0  0  0  0  0  0  0  0  0  0  0
  154.1494  142.1572  159.2950 H   0  0  0  0  0  0  0  0  0  0  0  0
  154.3252  141.4426  161.9202 H   0  0  0  0  0  0  0  0  0  0  0  0
  151.9433  142.3787  162.9833 H   0  0  0  0  0  0  0  0  0  0  0  0
  150.0408  143.3338  156.4051 H   0  0  0  0  0  0  0  0  0  0  0  0
  1  2  1  0  0  0  0
  1 20  1  0  0  0  0
  1 21  1  0  0  0  0
  1 22  1  0  0  0  0
  2  3  1  0  0  0  0
  2 13  1  0  0  0  0
  2 23  1  0  0  0  0
  3  4  1  0  0  0  0
  3 24  1  0  0  0  0
  3 39  1  0  0  0  0
  4  5  1  0  0  0  0
  4 25  1  0  0  0  0
  4 26  1  0  0  0  0
  5  6  1  0  0  0  0
  5 27  1  0  0  0  0
  5 28  1  0  0  0  0
  6 11  1  0  0  0  0
  6  7  1  0  0  0  0
  7  8  2  0  0  0  0
  7  9  1  0  0  0  0
  9 10  1  0  0  0  0
  9 29  1  0  0  0  0
  9 30  1  0  0  0  0
 10 11  1  0  0  0  0
 10 31  1  0  0  0  0
 11 12  2  0  0  0  0
 13 14  1  0  0  0  0
 13 15  1  0  0  0  0
 13 32  1  0  0  0  0
 14 33  1  0  0  0  0
 14 34  1  0  0  0  0
 14 35  1  0  0  0  0
 15 19  1  0  0  0  0
 15 16  1  0  0  0  0
 16 17  2  0  0  0  0
 16 36  1  0  0  0  0
 17 18  1  0  0  0  0
 17 37  1  0  0  0  0
 18 19  2  0  0  0  0
 18 38  1  0  0  0  0
M  CHG  1   3   1
M  END
> <s_m_source_file>
AV-unprocessed.smi

> <i_m_source_file_index>
3330

> <i_lp_mmshare_version>
43012

> <i_f3d_flags>
0

> <s_epik_input>
bjFbY0hdW2NIXVtjSF1uMVtDQEBIXShbQ0gzXSlbQ0BIXShbQ0gzXSlbTkhdW0NIMl1bQ0gyXU4yQyg9TylbQ0gyXVtOSF1DMj1P

> <s_epik_cmdline>
J2VwaWtfcHl0aG9uJywgJy1waCcsICc3LjAnLCAnLXRuJywgJzgnLCAnLW1hJywgJzIwMCcsICctbWV0YWxfYmluZGluZycsICctaW1hZScsICc8aW5maWxlLm1hZT4nLCAnLW9tYWUnLCAnPG91dGZpbGUubWFlPic=

> <r_lp_tautomer_probability>
1

> <r_epik_Ionization_Penalty>
0.0124905

> <r_epik_Ionization_Penalty_Charging>
0.0123685

> <r_epik_Ionization_Penalty_Neutral>
0.000122059

> <r_epik_State_Penalty>
0.00957041

> <r_epik_Charging_Adjusted_Penalty>
0.0219389

> <i_epik_Tot_Q>
1

> <i_epik_Tot_abs_Q>
1

> <r_epik_Metal_State_Penalty>
0.0858301

> <b_epik_Metal_Only>
0

> <s_lp_Force_Field>
OPLS_2005

> <r_lp_Energy>
24.6959

> <b_lp_Chiralities_Consistent>
1

> <s_lp_Variant>
AV-unprocessed.smi:3330-2

> <Gold.Version>
5.8.1

> <Gold.Id.Protein>
6NUR|6NUR_protein|mol2

> <Gold.PLP.Fitness>
49.9283

> <Gold.PLP.PLP>
-42.0634

> <Gold.PLP.part.hbond>
-5.0000

> <Gold.PLP.part.metal>
0.0000

> <Gold.PLP.part.buried>
-3.5551

> <Gold.PLP.part.nonpolar>
-35.3731

> <Gold.PLP.part.repulsive>
1.4359

> <Gold.PLP.ligand.clash>
0.0000

> <Gold.PLP.ligand.torsion>
2.0853

> <Gold.PLP.Chemscore.Hbond>
3.9868

> <Gold.PLP.Chemscore.CHOScore>
0.0000

> <Gold.PLP.Chemscore.Metal>
0.0000

> <Gold.Chemscore.Hbonds>
donor molecule, donor type, donor heavy atom, donor atom, acceptor molecule, acceptor atom, score
      L1  H     3    39       P1  8028  1.57
      L1  H    10    31       P1  7948  0.93
      P1  H  7989  7998       L1    12  1.00

> <Gold.PLP.Chemscore.Internal.Correction>
0.0753

> <Gold.Rescore>
     Score         DG    S(hbond)    S(metal)    S(lipo)     H(rot)  DE(clash)    DE(int)     intcor
     14.14     -18.72       2.81        0.00      91.19       2.67       0.92       3.66       ----

> <Gold.Chemscore.Fitness>
14.1419

> <Gold.Chemscore.DG>
-18.7206

> <Gold.Chemscore.ZeroCoef>
-5.4800

> <Gold.Chemscore.Hbond>
2.8137

> <Gold.Chemscore.Metal>
0.0000

> <Gold.Chemscore.Lipo>
91.1911

> <Gold.Chemscore.Internal_Hbond>
0.0000

> <Gold.Chemscore.DEClash>
0.9168

> <Gold.Chemscore.DEInternal>
3.6618

> <Gold.Chemscore.Rot>
2.6666

> <Gold.Chemscore.Internal.Correction>
   9.000000E+99

> <Gold.Chemscore.Hbonds>
donor molecule, donor type, donor heavy atom, donor atom, acceptor molecule, acceptor atom, score
      L1  H     3    39       P1  8028  0.77
      L1  H    10    31       P1  7948  0.82
      P1  H  7989  7998       L1    12  0.98

> <Gold.Chemscore.Hbond.Weighted>
-9.3977

> <Gold.Chemscore.Metal.Weighted>
-0.0000

> <Gold.Chemscore.Lipo.Weighted>
-10.6694

> <Gold.Chemscore.Internal_Hbond.Weighted>
0.0000

> <Gold.Chemscore.DEClash.Weighted>
0.9168

> <Gold.Chemscore.DEInternal.Weighted>
3.6618

> <Gold.Chemscore.Rot.Weighted>
6.8265

> <Gold.Chemscore.Internal.Correction.Weighted>
   9.000000E+99

> <Gold.Protein.RotatedTorsions>
[ 6907 6896 6895 6894 ] final  -16.77 input  -60.11 | X-H torsion
[ 7974 7965 7964 7962 ] final -157.11 input  175.53 | X-H torsion
[ 8008 7997 7996 7995 ] final  -35.72 input   59.86 | X-H torsion
[ 10167 10162 10161 10158 ] final  164.44 input  -65.29 | X-H torsion
[ 10718 10713 10712 10709 ] final   15.38 input   66.30 | X-H torsion
[ 10763 10752 10751 10750 ] final -169.11 input  -60.55 | X-H torsion
[ 11005 11000 10999 10996 ] final  -15.02 input  -57.11 | X-H torsion

> <Gold.Protein.ActiveResidues>
 VAL166  LYS551  ARG553  GLY616  TRP617  ASP618  TYR619  PRO620  LYS621  CYS622 
 ASP623  PHE694  ASN695  SER759  ASP760  ASP761  ALA762  ILE779  LEU786  VAL792 
 PHE793  MET794  SER795  GLU796  ALA797  LYS798  CYS799  TRP800  GLU811  SER814 

> <Gold.Protein.RotatedAtoms>
  151.3035  135.0775  159.9246 H   0  0  0  0  0  0  0  0  0  0  0  0  # atno 6907 bound_to 6896
  152.5293  133.9809  159.7816 H   0  0  0  0  0  0  0  0  0  0  0  0  # atno 6908 bound_to 6896
  151.0100  133.5923  159.2714 H   0  0  0  0  0  0  0  0  0  0  0  0  # atno 6909 bound_to 6896
  144.7563  140.4016  143.6010 H   0  0  0  0  0  0  0  0  0  0  0  0  # atno 7974 bound_to 7965
  154.4089  140.1650  156.2258 H   0  0  0  0  0  0  0  0  0  0  0  0  # atno 8008 bound_to 7997
  155.9325  140.3414  155.6238 H   0  0  0  0  0  0  0  0  0  0  0  0  # atno 8009 bound_to 7997
  155.7089  140.0754  157.2370 H   0  0  0  0  0  0  0  0  0  0  0  0  # atno 8010 bound_to 7997
  139.4889  144.4234  151.9158 H   0  0  0  0  0  0  0  0  0  0  0  0  # atno 10167 bound_to 10162
  157.0527  130.6276  149.5771 H   0  0  0  0  0  0  0  0  0  0  0  0  # atno 10718 bound_to 10713
  154.6558  135.2918  154.9929 H   0  0  0  0  0  0  0  0  0  0  0  0  # atno 10763 bound_to 10752
  154.1006  135.6577  153.4871 H   0  0  0  0  0  0  0  0  0  0  0  0  # atno 10764 bound_to 10752
  153.0402  135.5241  154.7487 H   0  0  0  0  0  0  0  0  0  0  0  0  # atno 10765 bound_to 10752
  140.7924  133.8278  155.9392 H   0  0  0  0  0  0  0  0  0  0  0  0  # atno 11005 bound_to 11000
  145.6769  139.1610  143.2723 LP  0  0  0  0  0  0  0  0  0  0  0  0  # atno 17320 bound_to 7965
  146.1576  140.6834  142.9292 LP  0  0  0  0  0  0  0  0  0  0  0  0  # atno 17321 bound_to 7965
  140.3679  144.2891  150.5924 LP  0  0  0  0  0  0  0  0  0  0  0  0  # atno 17342 bound_to 10162
  140.5345  143.2236  151.8185 LP  0  0  0  0  0  0  0  0  0  0  0  0  # atno 17343 bound_to 10162
  156.0002  130.5080  150.7636 LP  0  0  0  0  0  0  0  0  0  0  0  0  # atno 17370 bound_to 10713
  157.5017  131.0919  151.0306 LP  0  0  0  0  0  0  0  0  0  0  0  0  # atno 17371 bound_to 10713
  140.9376  134.1941  157.4820 LP  0  0  0  0  0  0  0  0  0  0  0  0  # atno 17394 bound_to 11000
  139.8730  134.9859  156.5300 LP  0  0  0  0  0  0  0  0  0  0  0  0  # atno 17395 bound_to 11000

$$$$
