AV-unprocessed.smi:907|AV-procd|sdf|4112|dock2
  -GOLD-   22720 2 03D 1   1.00000     0.00000
 Structure written by MMmdl.
 54 57  0  0  0  0  0  0  0  0  3 V2000
  150.0517  140.1292  154.2303 O   0  0  0  0  0  0  0  0  0  0  0  0
  149.2419  141.0206  154.4872 C   0  0  0  0  0  0  0  0  0  0  0  0
  149.5458  142.0454  155.3005 N   0  0  0  0  0  0  0  0  0  0  0  0
  150.8352  142.2253  155.9540 C   0  0  0  0  0  0  0  0  0  0  0  0
  150.7870  141.7148  157.4007 C   0  0  0  0  0  0  0  0  0  0  0  0
  151.1336  142.7993  158.4029 C   0  0  0  0  0  0  0  0  0  0  0  0
  152.0567  142.5874  159.4501 C   0  0  0  0  0  0  0  0  0  0  0  0
  152.3390  143.6418  160.3437 C   0  0  0  0  0  0  0  0  0  0  0  0
  151.6948  144.8846  160.1708 C   0  0  0  0  0  0  0  0  0  0  0  0
  150.7826  145.0415  159.1074 C   0  0  0  0  0  0  0  0  0  0  0  0
  150.5377  144.0071  158.2730 N   0  3  0  0  0  0  0  0  0  0  0  0
  147.9685  141.0242  154.0190 N   0  0  0  0  0  0  0  0  0  0  0  0
  147.2808  139.9108  153.3547 C   0  0  0  0  0  0  0  0  0  0  0  0
  146.2655  139.3023  154.3374 C   0  0  0  0  0  0  0  0  0  0  0  0
  145.2932  140.3158  154.8465 N   0  3  0  0  0  0  0  0  0  0  0  0
  144.3167  139.7084  155.8033 C   0  0  2  0  0  0  0  0  0  0  0  0
  143.4397  138.6246  155.1215 C   0  0  0  0  0  0  0  0  0  0  0  0
  142.0019  139.0672  155.4382 C   0  0  1  0  0  0  0  0  0  0  0  0
  141.7226  138.8730  156.9377 C   0  0  0  0  0  0  0  0  0  0  0  0
  142.5539  139.9979  157.5781 C   0  0  0  0  0  0  0  0  0  0  0  0
  143.2274  140.6675  156.3632 C   0  0  2  0  0  0  0  0  0  0  0  0
  142.1187  140.5809  155.3207 C   0  0  0  0  0  0  0  0  0  0  0  0
  145.9778  141.5407  155.3567 C   0  0  0  0  0  0  0  0  0  0  0  0
  147.0170  142.0831  154.3574 C   0  0  0  0  0  0  0  0  0  0  0  0
  148.8318  142.7336  155.4903 H   0  0  0  0  0  0  0  0  0  0  0  0
  151.5988  141.6863  155.3911 H   0  0  0  0  0  0  0  0  0  0  0  0
  151.1079  143.2819  155.9386 H   0  0  0  0  0  0  0  0  0  0  0  0
  149.7928  141.3276  157.6290 H   0  0  0  0  0  0  0  0  0  0  0  0
  151.4783  140.8799  157.5253 H   0  0  0  0  0  0  0  0  0  0  0  0
  152.5451  141.6308  159.5682 H   0  0  0  0  0  0  0  0  0  0  0  0
  153.0425  143.4996  161.1511 H   0  0  0  0  0  0  0  0  0  0  0  0
  151.8984  145.7052  160.8435 H   0  0  0  0  0  0  0  0  0  0  0  0
  150.2467  145.9563  158.8997 H   0  0  0  0  0  0  0  0  0  0  0  0
  146.7652  140.2841  152.4685 H   0  0  0  0  0  0  0  0  0  0  0  0
  147.9505  139.1308  152.9925 H   0  0  0  0  0  0  0  0  0  0  0  0
  145.7457  138.4842  153.8404 H   0  0  0  0  0  0  0  0  0  0  0  0
  146.7993  138.8623  155.1815 H   0  0  0  0  0  0  0  0  0  0  0  0
  144.8831  139.2803  156.6324 H   0  0  0  0  0  0  0  0  0  0  0  0
  143.5729  138.6139  154.0389 H   0  0  0  0  0  0  0  0  0  0  0  0
  143.6572  137.6216  155.4907 H   0  0  0  0  0  0  0  0  0  0  0  0
  141.2520  138.6110  154.7908 H   0  0  0  0  0  0  0  0  0  0  0  0
  140.6625  139.0051  157.1579 H   0  0  0  0  0  0  0  0  0  0  0  0
  142.0181  137.8833  157.2885 H   0  0  0  0  0  0  0  0  0  0  0  0
  141.9020  140.7031  158.0956 H   0  0  0  0  0  0  0  0  0  0  0  0
  143.2765  139.6224  158.3038 H   0  0  0  0  0  0  0  0  0  0  0  0
  143.5501  141.6770  156.6071 H   0  0  0  0  0  0  0  0  0  0  0  0
  142.4281  140.9187  154.3300 H   0  0  0  0  0  0  0  0  0  0  0  0
  141.2080  141.1085  155.6111 H   0  0  0  0  0  0  0  0  0  0  0  0
  145.2595  142.3384  155.5332 H   0  0  0  0  0  0  0  0  0  0  0  0
  146.4581  141.3176  156.3107 H   0  0  0  0  0  0  0  0  0  0  0  0
  147.5023  142.9693  154.7692 H   0  0  0  0  0  0  0  0  0  0  0  0
  146.5185  142.4203  153.4472 H   0  0  0  0  0  0  0  0  0  0  0  0
  144.7553  140.6194  154.0472 H   0  0  0  0  0  0  0  0  0  0  0  0
  149.8751  144.1449  157.5095 H   0  0  0  0  0  0  0  0  0  0  0  0
  1  2  2  0  0  0  0
  2  3  1  0  0  0  0
  2 12  1  0  0  0  0
  3  4  1  0  0  0  0
  3 25  1  0  0  0  0
  4  5  1  0  0  0  0
  4 26  1  0  0  0  0
  4 27  1  0  0  0  0
  5  6  1  0  0  0  0
  5 28  1  0  0  0  0
  5 29  1  0  0  0  0
  6 11  1  0  0  0  0
  6  7  2  0  0  0  0
  7  8  1  0  0  0  0
  7 30  1  0  0  0  0
  8  9  2  0  0  0  0
  8 31  1  0  0  0  0
  9 10  1  0  0  0  0
  9 32  1  0  0  0  0
 10 11  2  0  0  0  0
 10 33  1  0  0  0  0
 11 54  1  0  0  0  0
 12 24  1  0  0  0  0
 12 13  1  0  0  0  0
 13 14  1  0  0  0  0
 13 34  1  0  0  0  0
 13 35  1  0  0  0  0
 14 15  1  0  0  0  0
 14 36  1  0  0  0  0
 14 37  1  0  0  0  0
 15 16  1  0  0  0  0
 15 23  1  0  0  0  0
 15 53  1  0  0  0  0
 16 21  1  0  0  0  0
 16 17  1  0  0  0  0
 16 38  1  0  0  0  0
 17 18  1  0  0  0  0
 17 39  1  0  0  0  0
 17 40  1  0  0  0  0
 18 22  1  0  0  0  0
 18 19  1  0  0  0  0
 18 41  1  0  0  0  0
 19 20  1  0  0  0  0
 19 42  1  0  0  0  0
 19 43  1  0  0  0  0
 20 21  1  0  0  0  0
 20 44  1  0  0  0  0
 20 45  1  0  0  0  0
 21 22  1  0  0  0  0
 21 46  1  0  0  0  0
 22 47  1  0  0  0  0
 22 48  1  0  0  0  0
 23 24  1  0  0  0  0
 23 49  1  0  0  0  0
 23 50  1  0  0  0  0
 24 51  1  0  0  0  0
 24 52  1  0  0  0  0
M  CHG  1  11   1
M  CHG  1  15   1
M  END
> <s_m_source_file>
AV-unprocessed.smi

> <i_m_source_file_index>
907

> <i_lp_mmshare_version>
43012

> <i_f3d_flags>
0

> <s_epik_input>
W0NIMl0xW0NIMl1bQ0BASF0oW0NIMl0yKVtDQEBIXShbQ0gyXVtDQEhdMTIpTihbQ0gyXVtDSDJdMylbQ0gyXVtDSDJdTjNDKD1PKVtOSF1bQ0gyXVtDSDJdYzRbY0hdW2NIXVtjSF1bY0hdbjQ=

> <s_epik_cmdline>
J2VwaWtfcHl0aG9uJywgJy1waCcsICc3LjAnLCAnLXRuJywgJzgnLCAnLW1hJywgJzIwMCcsICctbWV0YWxfYmluZGluZycsICctaW1hZScsICc8aW5maWxlLm1hZT4nLCAnLW9tYWUnLCAnPG91dGZpbGUubWFlPic=

> <r_epik_Ionization_Penalty>
1.63018

> <r_epik_Ionization_Penalty_Charging>
1.63015

> <r_epik_Ionization_Penalty_Neutral>
2.64641e-05

> <r_epik_State_Penalty>
1.72761

> <r_epik_Charging_Adjusted_Penalty>
3.35777

> <i_epik_Tot_Q>
2

> <i_epik_Tot_abs_Q>
2

> <r_epik_Metal_State_Penalty>
1.76501

> <b_epik_Metal_Only>
0

> <s_lp_Force_Field>
OPLS_2005

> <r_lp_Energy>
104.955

> <b_lp_Chiralities_Consistent>
1

> <s_lp_Variant>
AV-unprocessed.smi:907-7

> <Gold.Version>
5.8.1

> <Gold.Id.Protein>
6NUR|6NUR_protein|mol2

> <Gold.PLP.Fitness>
54.9994

> <Gold.PLP.PLP>
-40.7306

> <Gold.PLP.part.hbond>
-3.9539

> <Gold.PLP.part.metal>
0.0000

> <Gold.PLP.part.buried>
-5.0054

> <Gold.PLP.part.nonpolar>
-31.3206

> <Gold.PLP.part.repulsive>
0.3605

> <Gold.PLP.ligand.clash>
1.8301

> <Gold.PLP.ligand.torsion>
0.7522

> <Gold.PLP.Chemscore.Hbond>
5.8320

> <Gold.PLP.Chemscore.CHOScore>
0.0000

> <Gold.PLP.Chemscore.Metal>
0.0000

> <Gold.Chemscore.Hbonds>
donor molecule, donor type, donor heavy atom, donor atom, acceptor molecule, acceptor atom, score
      L1  H     3    25       P1  8028  0.66
      L1  H    11    54       P1  8028  1.40
      L1  H    15    53       P1 10175  2.00
      P1  H  7989  7998       L1     1  0.96

> <Gold.PLP.Chemscore.Internal.Correction>
0.1074

> <Gold.Rescore>
     Score         DG    S(hbond)    S(metal)    S(lipo)     H(rot)  DE(clash)    DE(int)     intcor
     20.39     -22.43       2.74        0.00      98.60       1.46       1.35       0.69       ----

> <Gold.Chemscore.Fitness>
20.3880

> <Gold.Chemscore.DG>
-22.4334

> <Gold.Chemscore.ZeroCoef>
-5.4800

> <Gold.Chemscore.Hbond>
2.7387

> <Gold.Chemscore.Metal>
0.0000

> <Gold.Chemscore.Lipo>
98.6030

> <Gold.Chemscore.Internal_Hbond>
0.0000

> <Gold.Chemscore.DEClash>
1.3520

> <Gold.Chemscore.DEInternal>
0.6934

> <Gold.Chemscore.Rot>
1.4572

> <Gold.Chemscore.Internal.Correction>
   9.000000E+99

> <Gold.Chemscore.Hbonds>
donor molecule, donor type, donor heavy atom, donor atom, acceptor molecule, acceptor atom, score
      L1  H     3    25       P1  8028  0.64
      L1  H    11    54       P1  8028  0.32
      L1  H    15    53       P1 10175  0.99
      P1  H  7989  7998       L1     1  0.69

> <Gold.Chemscore.Hbond.Weighted>
-9.1474

> <Gold.Chemscore.Metal.Weighted>
-0.0000

> <Gold.Chemscore.Lipo.Weighted>
-11.5365

> <Gold.Chemscore.Internal_Hbond.Weighted>
0.0000

> <Gold.Chemscore.DEClash.Weighted>
1.3520

> <Gold.Chemscore.DEInternal.Weighted>
0.6934

> <Gold.Chemscore.Rot.Weighted>
3.7305

> <Gold.Chemscore.Internal.Correction.Weighted>
   9.000000E+99

> <Gold.Protein.RotatedTorsions>
[ 6907 6896 6895 6894 ] final   83.25 input  -60.11 | X-H torsion
[ 7974 7965 7964 7962 ] final   96.09 input  175.53 | X-H torsion
[ 8008 7997 7996 7995 ] final   89.10 input   59.86 | X-H torsion
[ 10167 10162 10161 10158 ] final  150.11 input  -65.29 | X-H torsion
[ 10718 10713 10712 10709 ] final -111.40 input   66.30 | X-H torsion
[ 10763 10752 10751 10750 ] final  -51.65 input  -60.55 | X-H torsion
[ 11005 11000 10999 10996 ] final  171.41 input  -57.11 | X-H torsion

> <Gold.Protein.ActiveResidues>
 VAL166  LYS551  ARG553  GLY616  TRP617  ASP618  TYR619  PRO620  LYS621  CYS622 
 ASP623  PHE694  ASN695  SER759  ASP760  ASP761  ALA762  ILE779  LEU786  VAL792 
 PHE793  MET794  SER795  GLU796  ALA797  LYS798  CYS799  TRP800  GLU811  SER814 

> <Gold.Protein.RotatedAtoms>
  152.5322  134.2924  159.9047 H   0  0  0  0  0  0  0  0  0  0  0  0  # atno 6907 bound_to 6896
  151.2876  133.4173  159.2638 H   0  0  0  0  0  0  0  0  0  0  0  0  # atno 6908 bound_to 6896
  151.0228  134.9498  159.8126 H   0  0  0  0  0  0  0  0  0  0  0  0  # atno 6909 bound_to 6896
  145.4435  139.2299  143.3079 H   0  0  0  0  0  0  0  0  0  0  0  0  # atno 7974 bound_to 7965
  155.9958  140.3364  155.6797 H   0  0  0  0  0  0  0  0  0  0  0  0  # atno 8008 bound_to 7997
  155.6358  140.0690  157.2652 H   0  0  0  0  0  0  0  0  0  0  0  0  # atno 8009 bound_to 7997
  154.4233  140.1751  156.1508 H   0  0  0  0  0  0  0  0  0  0  0  0  # atno 8010 bound_to 7997
  139.4853  144.5548  151.7337 H   0  0  0  0  0  0  0  0  0  0  0  0  # atno 10167 bound_to 10162
  156.0645  130.5865  150.8368 H   0  0  0  0  0  0  0  0  0  0  0  0  # atno 10718 bound_to 10713
  154.1300  135.6521  153.4920 H   0  0  0  0  0  0  0  0  0  0  0  0  # atno 10763 bound_to 10752
  153.0198  135.5290  154.7011 H   0  0  0  0  0  0  0  0  0  0  0  0  # atno 10764 bound_to 10752
  154.6243  135.2968  155.0261 H   0  0  0  0  0  0  0  0  0  0  0  0  # atno 10765 bound_to 10752
  140.3187  134.7455  157.4047 H   0  0  0  0  0  0  0  0  0  0  0  0  # atno 11005 bound_to 11000
  146.2543  140.5186  142.8880 LP  0  0  0  0  0  0  0  0  0  0  0  0  # atno 17320 bound_to 7965
  144.8106  140.6379  143.6417 LP  0  0  0  0  0  0  0  0  0  0  0  0  # atno 17321 bound_to 7965
  140.5108  144.1028  150.5994 LP  0  0  0  0  0  0  0  0  0  0  0  0  # atno 17342 bound_to 10162
  140.3953  143.2731  152.0012 LP  0  0  0  0  0  0  0  0  0  0  0  0  # atno 17343 bound_to 10162
  157.5677  131.0946  150.9465 LP  0  0  0  0  0  0  0  0  0  0  0  0  # atno 17370 bound_to 10713
  156.9688  130.5483  149.5289 LP  0  0  0  0  0  0  0  0  0  0  0  0  # atno 17371 bound_to 10713
  140.0961  134.5536  155.8397 LP  0  0  0  0  0  0  0  0  0  0  0  0  # atno 17394 bound_to 11000
  141.2091  133.6681  156.6420 LP  0  0  0  0  0  0  0  0  0  0  0  0  # atno 17395 bound_to 11000

$$$$
