AV-unprocessed.smi:2783|AV-procd|sdf|10725|dock1
  -GOLD-   2272015163D 1   1.00000     0.00000
 Structure written by MMmdl.
 28 28  0  0  0  0  0  0  0  0  2 V2000
  151.2108  138.2847  154.4462 C   0  0  0  0  0  0  0  0  0  0  0  0
  150.6760  139.6070  154.4314 O   0  0  0  0  0  0  0  0  0  0  0  0
  150.2554  140.1835  155.6770 C   0  0  0  0  0  0  0  0  0  0  0  0
  149.7341  141.5879  155.3248 C   0  0  0  0  0  0  0  0  0  0  0  0
  149.1084  139.3529  156.2993 C   0  0  0  0  0  0  0  0  0  0  0  0
  151.4478  140.3268  156.6522 C   0  0  0  0  0  0  0  0  0  0  0  0
  152.5361  139.8362  156.3509 O   0  0  0  0  0  0  0  0  0  0  0  0
  151.1955  140.9746  157.8063 N   0  0  0  0  0  0  0  0  0  0  0  0
  152.0533  141.2924  158.8985 C   0  0  0  0  0  0  0  0  0  0  0  0
  153.0469  140.4238  159.4139 C   0  0  0  0  0  0  0  0  0  0  0  0
  153.8360  140.8632  160.4951 C   0  0  0  0  0  0  0  0  0  0  0  0
  153.7041  142.0752  161.0718 N   0  0  0  0  0  0  0  0  0  0  0  0
  152.7628  142.9049  160.5766 C   0  0  0  0  0  0  0  0  0  0  0  0
  151.9180  142.5675  159.4987 C   0  0  0  0  0  0  0  0  0  0  0  0
  150.9919  143.4729  159.0571 O   0  5  0  0  0  0  0  0  0  0  0  0
  151.5924  138.0456  153.4539 H   0  0  0  0  0  0  0  0  0  0  0  0
  150.4448  137.5465  154.6826 H   0  0  0  0  0  0  0  0  0  0  0  0
  152.0348  138.1680  155.1498 H   0  0  0  0  0  0  0  0  0  0  0  0
  149.3778  142.1183  156.2089 H   0  0  0  0  0  0  0  0  0  0  0  0
  148.9051  141.5326  154.6186 H   0  0  0  0  0  0  0  0  0  0  0  0
  150.5125  142.1981  154.8642 H   0  0  0  0  0  0  0  0  0  0  0  0
  148.6506  139.8733  157.1415 H   0  0  0  0  0  0  0  0  0  0  0  0
  149.4551  138.3875  156.6695 H   0  0  0  0  0  0  0  0  0  0  0  0
  148.3211  139.1649  155.5689 H   0  0  0  0  0  0  0  0  0  0  0  0
  150.2414  141.2836  157.9283 H   0  0  0  0  0  0  0  0  0  0  0  0
  153.2308  139.4417  159.0103 H   0  0  0  0  0  0  0  0  0  0  0  0
  154.5997  140.2203  160.9069 H   0  0  0  0  0  0  0  0  0  0  0  0
  152.6835  143.8701  161.0554 H   0  0  0  0  0  0  0  0  0  0  0  0
  1  2  1  0  0  0  0
  1 16  1  0  0  0  0
  1 17  1  0  0  0  0
  1 18  1  0  0  0  0
  2  3  1  0  0  0  0
  3  4  1  0  0  0  0
  3  5  1  0  0  0  0
  3  6  1  0  0  0  0
  4 19  1  0  0  0  0
  4 20  1  0  0  0  0
  4 21  1  0  0  0  0
  5 22  1  0  0  0  0
  5 23  1  0  0  0  0
  5 24  1  0  0  0  0
  6  7  2  0  0  0  0
  6  8  1  0  0  0  0
  8 25  1  0  0  0  0
  8  9  1  0  0  0  0
  9 10  2  0  0  0  0
  9 14  1  0  0  0  0
 10 11  1  0  0  0  0
 10 26  1  0  0  0  0
 11 12  2  0  0  0  0
 11 27  1  0  0  0  0
 12 13  1  0  0  0  0
 13 14  2  0  0  0  0
 13 28  1  0  0  0  0
 14 15  1  0  0  0  0
M  CHG  1  15  -1
M  END
> <s_m_source_file>
AV-unprocessed.smi

> <i_m_source_file_index>
2783

> <i_lp_mmshare_version>
43012

> <i_f3d_flags>
0

> <s_epik_input>
W0NIM11PQyhbQ0gzXSkoW0NIM10pQyg9TylbTkhdYzFbY0hdW2NIXW5bY0hdYzFbT0hd

> <s_epik_cmdline>
J2VwaWtfcHl0aG9uJywgJy1waCcsICc3LjAnLCAnLXRuJywgJzgnLCAnLW1hJywgJzIwMCcsICctbWV0YWxfYmluZGluZycsICctaW1hZScsICc8aW5maWxlLm1hZT4nLCAnLW9tYWUnLCAnPG91dGZpbGUubWFlPic=

> <r_lp_tautomer_probability>
0.56342

> <r_epik_Ionization_Penalty>
4.44895

> <r_epik_Ionization_Penalty_Charging>
2.11839

> <r_epik_Ionization_Penalty_Neutral>
2.33056

> <r_epik_State_Penalty>
2.66573

> <r_epik_Charging_Adjusted_Penalty>
4.78411

> <i_epik_Tot_Q>
-1

> <i_epik_Tot_abs_Q>
1

> <r_epik_Metal_State_Penalty>
0.617134

> <b_epik_Metal_Only>
1

> <s_lp_Force_Field>
OPLS_2005

> <r_lp_Energy>
12.8614

> <b_lp_Chiralities_Consistent>
1

> <s_lp_Variant>
AV-unprocessed.smi:2783-3

> <Gold.Version>
5.8.1

> <Gold.Id.Protein>
6NUR|6NUR_protein|mol2

> <Gold.PLP.Fitness>
33.5715

> <Gold.PLP.PLP>
-28.2860

> <Gold.PLP.part.hbond>
-2.0000

> <Gold.PLP.part.metal>
0.0000

> <Gold.PLP.part.buried>
-4.3815

> <Gold.PLP.part.nonpolar>
-21.8659

> <Gold.PLP.part.repulsive>
0.2644

> <Gold.PLP.ligand.clash>
0.0000

> <Gold.PLP.ligand.torsion>
0.3750

> <Gold.PLP.Chemscore.Hbond>
2.0000

> <Gold.PLP.Chemscore.CHOScore>
0.0000

> <Gold.PLP.Chemscore.Metal>
0.0000

> <Gold.Chemscore.Hbonds>
donor molecule, donor type, donor heavy atom, donor atom, acceptor molecule, acceptor atom, score
      P1  H  7989  7998       L1     2  1.00
      P1  H  7997  8010       L1     7  1.00

> <Gold.PLP.Chemscore.Internal.Correction>
0.0356

> <Gold.Rescore>
     Score         DG    S(hbond)    S(metal)    S(lipo)     H(rot)  DE(clash)    DE(int)     intcor
     15.06     -16.83       1.85        0.00      71.22       1.24       0.09       1.68       ----

> <Gold.Chemscore.Fitness>
15.0620

> <Gold.Chemscore.DG>
-16.8308

> <Gold.Chemscore.ZeroCoef>
-5.4800

> <Gold.Chemscore.Hbond>
1.8543

> <Gold.Chemscore.Metal>
0.0000

> <Gold.Chemscore.Lipo>
71.2172

> <Gold.Chemscore.Internal_Hbond>
0.0000

> <Gold.Chemscore.DEClash>
0.0920

> <Gold.Chemscore.DEInternal>
1.6767

> <Gold.Chemscore.Rot>
1.2402

> <Gold.Chemscore.Internal.Correction>
   9.000000E+99

> <Gold.Chemscore.Hbonds>
donor molecule, donor type, donor heavy atom, donor atom, acceptor molecule, acceptor atom, score
      P1  H  7989  7998       L1     2  0.65
      P1  H  7997  8010       L1     7  1.00

> <Gold.Chemscore.Hbond.Weighted>
-6.1933

> <Gold.Chemscore.Metal.Weighted>
-0.0000

> <Gold.Chemscore.Lipo.Weighted>
-8.3324

> <Gold.Chemscore.Internal_Hbond.Weighted>
0.0000

> <Gold.Chemscore.DEClash.Weighted>
0.0920

> <Gold.Chemscore.DEInternal.Weighted>
1.6767

> <Gold.Chemscore.Rot.Weighted>
3.1750

> <Gold.Chemscore.Internal.Correction.Weighted>
   9.000000E+99

> <Gold.Protein.RotatedTorsions>
[ 6907 6896 6895 6894 ] final    0.31 input  -60.11 | X-H torsion
[ 7974 7965 7964 7962 ] final   54.80 input  175.53 | X-H torsion
[ 8008 7997 7996 7995 ] final   79.91 input   59.86 | X-H torsion
[ 10167 10162 10161 10158 ] final -174.55 input  -65.29 | X-H torsion
[ 10718 10713 10712 10709 ] final   86.54 input   66.30 | X-H torsion
[ 10763 10752 10751 10750 ] final   59.05 input  -60.55 | X-H torsion
[ 11005 11000 10999 10996 ] final -174.68 input  -57.11 | X-H torsion

> <Gold.Protein.ActiveResidues>
 VAL166  LYS551  ARG553  GLY616  TRP617  ASP618  TYR619  PRO620  LYS621  CYS622 
 ASP623  PHE694  ASN695  SER759  ASP760  ASP761  ALA762  ILE779  LEU786  VAL792 
 PHE793  MET794  SER795  GLU796  ALA797  LYS798  CYS799  TRP800  GLU811  SER814 

> <Gold.Protein.RotatedAtoms>
  151.5744  135.1061  160.0002 H   0  0  0  0  0  0  0  0  0  0  0  0  # atno 6907 bound_to 6896
  152.4385  133.7400  159.6646 H   0  0  0  0  0  0  0  0  0  0  0  0  # atno 6908 bound_to 6896
  150.8286  133.8060  159.3131 H   0  0  0  0  0  0  0  0  0  0  0  0  # atno 6909 bound_to 6896
  145.9571  139.4024  143.0271 H   0  0  0  0  0  0  0  0  0  0  0  0  # atno 7974 bound_to 7965
  155.8762  140.3446  155.5856 H   0  0  0  0  0  0  0  0  0  0  0  0  # atno 8008 bound_to 7997
  155.7771  140.0853  157.2097 H   0  0  0  0  0  0  0  0  0  0  0  0  # atno 8009 bound_to 7997
  154.4021  140.1507  156.2997 H   0  0  0  0  0  0  0  0  0  0  0  0  # atno 8010 bound_to 7997
  139.5628  144.1829  152.1265 H   0  0  0  0  0  0  0  0  0  0  0  0  # atno 10167 bound_to 10162
  157.6930  131.0219  150.2988 H   0  0  0  0  0  0  0  0  0  0  0  0  # atno 10718 bound_to 10713
  152.9885  135.5585  154.5651 H   0  0  0  0  0  0  0  0  0  0  0  0  # atno 10763 bound_to 10752
  154.5062  135.2800  155.1382 H   0  0  0  0  0  0  0  0  0  0  0  0  # atno 10764 bound_to 10752
  154.2792  135.6348  153.5393 H   0  0  0  0  0  0  0  0  0  0  0  0  # atno 10765 bound_to 10752
  140.4718  134.6158  157.4885 H   0  0  0  0  0  0  0  0  0  0  0  0  # atno 11005 bound_to 11000
  145.8092  140.9734  143.0958 LP  0  0  0  0  0  0  0  0  0  0  0  0  # atno 17320 bound_to 7965
  144.6807  139.9899  143.7484 LP  0  0  0  0  0  0  0  0  0  0  0  0  # atno 17321 bound_to 7965
  140.1346  144.5257  150.6781 LP  0  0  0  0  0  0  0  0  0  0  0  0  # atno 17342 bound_to 10162
  140.6909  143.2375  151.5134 LP  0  0  0  0  0  0  0  0  0  0  0  0  # atno 17343 bound_to 10162
  156.3507  130.3830  149.7332 LP  0  0  0  0  0  0  0  0  0  0  0  0  # atno 17370 bound_to 10713
  156.4810  130.8041  151.3055 LP  0  0  0  0  0  0  0  0  0  0  0  0  # atno 17371 bound_to 10713
  139.9880  134.7030  155.9739 LP  0  0  0  0  0  0  0  0  0  0  0  0  # atno 17394 bound_to 11000
  141.1573  133.6541  156.4203 LP  0  0  0  0  0  0  0  0  0  0  0  0  # atno 17395 bound_to 11000

$$$$
