AV-unprocessed.smi:37|AV-procd|sdf|329|dock9
  -GOLD-   2262016163D 1   1.00000     0.00000
 Structure written by MMmdl.
 43 44  0  0  0  0  0  0  0  0  2 V2000
  144.8996  135.4018  150.9750 C   0  0  0  0  0  0  0  0  0  0  0  0
  144.5065  135.8272  152.3972 C   0  0  0  0  0  0  0  0  0  0  0  0
  145.5300  136.7461  153.0678 C   0  0  0  0  0  0  0  0  0  0  0  0
  146.1826  136.4046  154.0559 O   0  0  0  0  0  0  0  0  0  0  0  0
  145.6146  137.9278  152.4461 O   0  0  0  0  0  0  0  0  0  0  0  0
  146.8362  138.6485  152.4399 C   0  0  0  0  0  0  0  0  0  0  0  0
  146.7890  139.8411  153.4133 C   0  0  2  0  0  0  0  0  0  0  0  0
  147.9330  140.6881  153.3173 O   0  0  0  0  0  0  0  0  0  0  0  0
  148.2658  141.2092  154.5754 C   0  0  2  0  0  0  0  0  0  0  0  0
  149.5931  140.6267  155.0310 N   0  0  0  0  0  0  0  0  0  0  0  0
  150.2213  139.6122  154.3253 C   0  0  0  0  0  0  0  0  0  0  0  0
  151.4005  139.0997  154.7306 C   0  0  0  0  0  0  0  0  0  0  0  0
  151.9780  138.1118  154.0253 F   0  0  0  0  0  0  0  0  0  0  0  0
  152.0405  139.6234  155.9348 C   0  0  0  0  0  0  0  0  0  0  0  0
  153.0994  139.1299  156.3189 O   0  0  0  0  0  0  0  0  0  0  0  0
  151.4260  140.6530  156.5851 N   0  5  0  0  0  0  0  0  0  0  0  0
  150.2398  141.1853  156.1686 C   0  0  0  0  0  0  0  0  0  0  0  0
  149.6970  142.1358  156.7319 O   0  0  0  0  0  0  0  0  0  0  0  0
  147.1273  140.8143  155.5359 C   0  0  1  0  0  0  0  0  0  0  0  0
  145.7260  142.2303  155.5111 Br  0  0  0  0  0  0  0  0  0  0  0  0
  146.5716  139.5482  154.9043 C   0  0  2  0  0  0  0  0  0  0  0  0
  147.3050  138.4059  155.3340 O   0  0  0  0  0  0  0  0  0  0  0  0
  147.4527  138.1375  156.6443 C   0  0  0  0  0  0  0  0  0  0  0  0
  146.9270  138.7565  157.5695 O   0  0  0  0  0  0  0  0  0  0  0  0
  148.3478  136.9275  156.9072 C   0  0  0  0  0  0  0  0  0  0  0  0
  148.5400  136.6433  158.4032 C   0  0  0  0  0  0  0  0  0  0  0  0
  144.1339  134.7576  150.5428 H   0  0  0  0  0  0  0  0  0  0  0  0
  145.8379  134.8458  150.9718 H   0  0  0  0  0  0  0  0  0  0  0  0
  145.0142  136.2642  150.3173 H   0  0  0  0  0  0  0  0  0  0  0  0
  143.5461  136.3430  152.3729 H   0  0  0  0  0  0  0  0  0  0  0  0
  144.3730  134.9434  153.0216 H   0  0  0  0  0  0  0  0  0  0  0  0
  147.6506  137.9782  152.7173 H   0  0  0  0  0  0  0  0  0  0  0  0
  147.0432  139.0095  151.4315 H   0  0  0  0  0  0  0  0  0  0  0  0
  145.9531  140.4659  153.0957 H   0  0  0  0  0  0  0  0  0  0  0  0
  148.4458  142.2839  154.5168 H   0  0  0  0  0  0  0  0  0  0  0  0
  149.7817  139.2139  153.4264 H   0  0  0  0  0  0  0  0  0  0  0  0
  147.4524  140.6916  156.5687 H   0  0  0  0  0  0  0  0  0  0  0  0
  145.5128  139.4069  155.1267 H   0  0  0  0  0  0  0  0  0  0  0  0
  147.8975  136.0581  156.4273 H   0  0  0  0  0  0  0  0  0  0  0  0
  149.3136  137.0874  156.4279 H   0  0  0  0  0  0  0  0  0  0  0  0
  149.0451  135.6891  158.5515 H   0  0  0  0  0  0  0  0  0  0  0  0
  147.5863  136.5992  158.9309 H   0  0  0  0  0  0  0  0  0  0  0  0
  149.1521  137.4126  158.8737 H   0  0  0  0  0  0  0  0  0  0  0  0
  1  2  1  0  0  0  0
  1 27  1  0  0  0  0
  1 28  1  0  0  0  0
  1 29  1  0  0  0  0
  2  3  1  0  0  0  0
  2 30  1  0  0  0  0
  2 31  1  0  0  0  0
  3  4  2  0  0  0  0
  3  5  1  0  0  0  0
  5  6  1  0  0  0  0
  6  7  1  0  0  0  0
  6 32  1  0  0  0  0
  6 33  1  0  0  0  0
  7 21  1  0  0  0  0
  7  8  1  0  0  0  0
  7 34  1  0  0  0  0
  8  9  1  0  0  0  0
  9 10  1  0  0  0  0
  9 19  1  0  0  0  0
  9 35  1  0  0  0  0
 10 17  1  0  0  0  0
 10 11  1  0  0  0  0
 11 12  2  0  0  0  0
 11 36  1  0  0  0  0
 12 13  1  0  0  0  0
 12 14  1  0  0  0  0
 14 15  2  0  0  0  0
 14 16  1  0  0  0  0
 16 17  1  0  0  0  0
 17 18  2  0  0  0  0
 19 20  1  0  0  0  0
 19 21  1  0  0  0  0
 19 37  1  0  0  0  0
 21 22  1  0  0  0  0
 21 38  1  0  0  0  0
 22 23  1  0  0  0  0
 23 24  2  0  0  0  0
 23 25  1  0  0  0  0
 25 26  1  0  0  0  0
 25 39  1  0  0  0  0
 25 40  1  0  0  0  0
 26 41  1  0  0  0  0
 26 42  1  0  0  0  0
 26 43  1  0  0  0  0
M  CHG  1  16  -1
M  END
> <s_m_source_file>
AV-unprocessed.smi

> <i_m_source_file_index>
37

> <i_lp_mmshare_version>
43012

> <i_f3d_flags>
0

> <s_epik_input>
W0NIM11bQ0gyXUMoPU8pT1tDSDJdW0NAQEhdMU9bQ0BASF0objJbY0hdYyhGKWMoPU8pW25IXWMyPU8pW0NAQEhdKEJyKVtDQEhdMU9DKD1PKVtDSDJdW0NIM10=

> <s_epik_cmdline>
J2VwaWtfcHl0aG9uJywgJy1waCcsICc3LjAnLCAnLXRuJywgJzgnLCAnLW1hJywgJzIwMCcsICctbWV0YWxfYmluZGluZycsICctaW1hZScsICc8aW5maWxlLm1hZT4nLCAnLW9tYWUnLCAnPG91dGZpbGUubWFlPic=

> <r_epik_Ionization_Penalty>
1.08158

> <r_epik_Ionization_Penalty_Charging>
9.05154e-09

> <r_epik_Ionization_Penalty_Neutral>
1.08158

> <r_epik_State_Penalty>
1.13706

> <r_epik_Charging_Adjusted_Penalty>
1.13706

> <i_epik_Tot_Q>
-1

> <i_epik_Tot_abs_Q>
1

> <r_epik_Metal_State_Penalty>
0.00343535

> <b_epik_Metal_Only>
0

> <s_epik_Chemistry_Notes>
This compound has an ester and may undergo hydrolysis at high or low pH. This compound contains an acetal/aminal-like group ( X-CH(R)-Y where X, Y are N, S, or O) that may be acid/base labile, releasing an aldehyde.

> <s_lp_Force_Field>
OPLS_2005

> <r_lp_Energy>
30.7461

> <b_lp_Chiralities_Consistent>
1

> <s_lp_Variant>
AV-unprocessed.smi:37-27

> <Gold.Version>
5.8.1

> <Gold.Id.Protein>
6NUR|6NUR_protein|mol2

> <Gold.PLP.Fitness>
36.4234

> <Gold.PLP.PLP>
-32.2682

> <Gold.PLP.part.hbond>
-1.0000

> <Gold.PLP.part.metal>
0.0000

> <Gold.PLP.part.buried>
-5.7576

> <Gold.PLP.part.nonpolar>
-29.9147

> <Gold.PLP.part.repulsive>
3.8665

> <Gold.PLP.ligand.clash>
0.0000

> <Gold.PLP.ligand.torsion>
1.0146

> <Gold.PLP.Chemscore.Hbond>
1.0000

> <Gold.PLP.Chemscore.CHOScore>
1.0000

> <Gold.PLP.Chemscore.Metal>
0.0000

> <Gold.Chemscore.Hbonds>
donor molecule, donor type, donor heavy atom, donor atom, acceptor molecule, acceptor atom, score
      P1  H  7997  8009       L1    15  1.00
      L1  C    11    36       P1  7957  1.00

> <Gold.PLP.Chemscore.Internal.Correction>
0.1843

> <Gold.Rescore>
     Score         DG    S(hbond)    S(metal)    S(lipo)     H(rot)  DE(clash)    DE(int)     intcor
      3.68      -6.40       0.97        0.00      51.64       3.27       0.21       2.51       ----

> <Gold.Chemscore.Fitness>
3.6824

> <Gold.Chemscore.DG>
-6.4023

> <Gold.Chemscore.ZeroCoef>
-5.4800

> <Gold.Chemscore.Hbond>
0.9713

> <Gold.Chemscore.Metal>
0.0000

> <Gold.Chemscore.Lipo>
51.6365

> <Gold.Chemscore.Internal_Hbond>
0.0000

> <Gold.Chemscore.DEClash>
0.2085

> <Gold.Chemscore.DEInternal>
2.5114

> <Gold.Chemscore.Rot>
3.2669

> <Gold.Chemscore.Internal.Correction>
   9.000000E+99

> <Gold.Chemscore.Hbonds>
donor molecule, donor type, donor heavy atom, donor atom, acceptor molecule, acceptor atom, score
      P1  H  7997  8009       L1    15  0.90

> <Gold.Chemscore.Hbond.Weighted>
-3.2442

> <Gold.Chemscore.Metal.Weighted>
-0.0000

> <Gold.Chemscore.Lipo.Weighted>
-6.0415

> <Gold.Chemscore.Internal_Hbond.Weighted>
0.0000

> <Gold.Chemscore.DEClash.Weighted>
0.2085

> <Gold.Chemscore.DEInternal.Weighted>
2.5114

> <Gold.Chemscore.Rot.Weighted>
8.3634

> <Gold.Chemscore.Internal.Correction.Weighted>
   9.000000E+99

> <Gold.Protein.RotatedTorsions>
[ 6907 6896 6895 6894 ] final  171.60 input  -60.11 | X-H torsion
[ 7974 7965 7964 7962 ] final    9.85 input  175.53 | X-H torsion
[ 8008 7997 7996 7995 ] final -164.99 input   59.86 | X-H torsion
[ 10167 10162 10161 10158 ] final   97.59 input  -65.29 | X-H torsion
[ 10718 10713 10712 10709 ] final  111.35 input   66.30 | X-H torsion
[ 10763 10752 10751 10750 ] final  -70.61 input  -60.55 | X-H torsion
[ 11005 11000 10999 10996 ] final  158.18 input  -57.11 | X-H torsion

> <Gold.Protein.ActiveResidues>
 VAL166  LYS551  ARG553  GLY616  TRP617  ASP618  TYR619  PRO620  LYS621  CYS622 
 ASP623  PHE694  ASN695  SER759  ASP760  ASP761  ALA762  ILE779  LEU786  VAL792 
 PHE793  MET794  SER795  GLU796  ALA797  LYS798  CYS799  TRP800  GLU811  SER814 

> <Gold.Protein.RotatedAtoms>
  151.7977  133.3366  159.3517 H   0  0  0  0  0  0  0  0  0  0  0  0  # atno 6907 bound_to 6896
  150.7369  134.5783  159.5935 H   0  0  0  0  0  0  0  0  0  0  0  0  # atno 6908 bound_to 6896
  152.3165  134.7434  160.0375 H   0  0  0  0  0  0  0  0  0  0  0  0  # atno 6909 bound_to 6896
  146.2397  139.9722  142.8445 H   0  0  0  0  0  0  0  0  0  0  0  0  # atno 7974 bound_to 7965
  155.8434  140.0952  157.1720 H   0  0  0  0  0  0  0  0  0  0  0  0  # atno 8008 bound_to 7997
  154.3982  140.1397  156.3817 H   0  0  0  0  0  0  0  0  0  0  0  0  # atno 8009 bound_to 7997
  155.8040  140.3452  155.5421 H   0  0  0  0  0  0  0  0  0  0  0  0  # atno 8010 bound_to 7997
  139.7787  144.6896  151.0053 H   0  0  0  0  0  0  0  0  0  0  0  0  # atno 10167 bound_to 10162
  157.6449  131.0949  150.6736 H   0  0  0  0  0  0  0  0  0  0  0  0  # atno 10718 bound_to 10713
  154.4201  135.5988  153.6004 H   0  0  0  0  0  0  0  0  0  0  0  0  # atno 10763 bound_to 10752
  152.9793  135.5950  154.3965 H   0  0  0  0  0  0  0  0  0  0  0  0  # atno 10764 bound_to 10752
  154.3790  135.2841  155.2201 H   0  0  0  0  0  0  0  0  0  0  0  0  # atno 10765 bound_to 10752
  140.1840  134.8455  157.2836 H   0  0  0  0  0  0  0  0  0  0  0  0  # atno 11005 bound_to 11000
  145.1670  140.9702  143.4344 LP  0  0  0  0  0  0  0  0  0  0  0  0  # atno 17320 bound_to 7965
  145.0063  139.3551  143.6142 LP  0  0  0  0  0  0  0  0  0  0  0  0  # atno 17321 bound_to 7965
  140.7817  143.4507  151.0416 LP  0  0  0  0  0  0  0  0  0  0  0  0  # atno 17342 bound_to 10162
  139.8189  143.7848  152.3176 LP  0  0  0  0  0  0  0  0  0  0  0  0  # atno 17343 bound_to 10162
  156.7055  130.4636  149.5561 LP  0  0  0  0  0  0  0  0  0  0  0  0  # atno 17370 bound_to 10713
  156.1766  130.6471  151.0901 LP  0  0  0  0  0  0  0  0  0  0  0  0  # atno 17371 bound_to 10713
  140.2235  134.3995  155.7555 LP  0  0  0  0  0  0  0  0  0  0  0  0  # atno 17394 bound_to 11000
  141.2224  133.7178  156.8528 LP  0  0  0  0  0  0  0  0  0  0  0  0  # atno 17395 bound_to 11000

$$$$
