AV-unprocessed.smi:609|AV-procd|sdf|3051|dock2
  -GOLD-   2262023573D 1   1.00000     0.00000
 Structure written by MMmdl.
 43 45  0  0  0  0  0  0  0  0  2 V2000
  152.0935  144.6166  160.4325 C   0  0  0  0  0  0  0  0  0  0  0  0
  151.9384  143.5090  159.4042 C   0  0  0  0  0  0  0  0  0  0  0  0
  151.0404  143.7065  158.3308 C   0  0  0  0  0  0  0  0  0  0  0  0
  150.9215  142.6764  157.4057 C   0  0  0  0  0  0  0  0  0  0  0  0
  150.1381  142.5650  156.2546 N   0  3  0  0  0  0  0  0  0  0  0  0
  150.3651  141.3579  155.6659 C   0  0  0  0  0  0  0  0  0  0  0  0
  151.2806  140.6976  156.4253 N   0  0  0  0  0  0  0  0  0  0  0  0
  151.8769  139.3682  156.2415 C   0  0  0  0  0  0  0  0  0  0  0  0
  150.8247  138.2441  156.1764 C   0  0  2  0  0  0  0  0  0  0  0  0
  150.1879  138.2675  154.9131 O   0  0  0  0  0  0  0  0  0  0  0  0
  149.7660  138.3845  157.2811 C   0  0  0  0  0  0  0  0  0  0  0  0
  150.4170  137.9094  158.9121 S   0  0  0  0  0  0  0  0  0  0  0  0
  149.0621  136.9461  159.5154 C   0  0  0  0  0  0  0  0  0  0  0  0
  148.3508  137.2209  160.6064 N   0  0  0  0  0  0  0  0  0  0  0  0
  147.4049  136.2049  160.6877 C   0  0  0  0  0  0  0  0  0  0  0  0
  147.5757  135.3408  159.6342 C   0  0  0  0  0  0  0  0  0  0  0  0
  148.6420  135.8294  158.8909 N   0  0  0  0  0  0  0  0  0  0  0  0
  149.1815  135.2369  157.6825 C   0  0  0  0  0  0  0  0  0  0  0  0
  151.6565  141.4809  157.5210 C   0  0  0  0  0  0  0  0  0  0  0  0
  152.5449  141.2687  158.5722 C   0  0  0  0  0  0  0  0  0  0  0  0
  152.6809  142.3053  159.5233 C   0  0  0  0  0  0  0  0  0  0  0  0
  153.6447  142.1044  160.6804 C   0  0  0  0  0  0  0  0  0  0  0  0
  151.4908  145.4883  160.1748 H   0  0  0  0  0  0  0  0  0  0  0  0
  153.1330  144.9386  160.4964 H   0  0  0  0  0  0  0  0  0  0  0  0
  151.7762  144.2710  161.4166 H   0  0  0  0  0  0  0  0  0  0  0  0
  150.4722  144.6201  158.2334 H   0  0  0  0  0  0  0  0  0  0  0  0
  149.9061  140.9919  154.7588 H   0  0  0  0  0  0  0  0  0  0  0  0
  152.4879  139.3866  155.3382 H   0  0  0  0  0  0  0  0  0  0  0  0
  152.5606  139.1984  157.0744 H   0  0  0  0  0  0  0  0  0  0  0  0
  151.3226  137.2797  156.2834 H   0  0  0  0  0  0  0  0  0  0  0  0
  150.1175  137.3788  154.5980 H   0  0  0  0  0  0  0  0  0  0  0  0
  149.4319  139.4212  157.3372 H   0  0  0  0  0  0  0  0  0  0  0  0
  148.8916  137.7761  157.0463 H   0  0  0  0  0  0  0  0  0  0  0  0
  146.6822  136.1749  161.4899 H   0  0  0  0  0  0  0  0  0  0  0  0
  147.0416  134.4429  159.3597 H   0  0  0  0  0  0  0  0  0  0  0  0
  148.6223  134.3381  157.4208 H   0  0  0  0  0  0  0  0  0  0  0  0
  150.2271  134.9694  157.8379 H   0  0  0  0  0  0  0  0  0  0  0  0
  149.1110  135.9486  156.8593 H   0  0  0  0  0  0  0  0  0  0  0  0
  153.1104  140.3528  158.6605 H   0  0  0  0  0  0  0  0  0  0  0  0
  154.0932  141.1107  160.6579 H   0  0  0  0  0  0  0  0  0  0  0  0
  153.1286  142.2135  161.6346 H   0  0  0  0  0  0  0  0  0  0  0  0
  154.4516  142.8359  160.6363 H   0  0  0  0  0  0  0  0  0  0  0  0
  149.4976  143.2603  155.8933 H   0  0  0  0  0  0  0  0  0  0  0  0
  1  2  1  0  0  0  0
  1 23  1  0  0  0  0
  1 24  1  0  0  0  0
  1 25  1  0  0  0  0
  2 21  1  0  0  0  0
  2  3  2  0  0  0  0
  3  4  1  0  0  0  0
  3 26  1  0  0  0  0
  4 19  2  0  0  0  0
  4  5  1  0  0  0  0
  5  6  2  0  0  0  0
  5 43  1  0  0  0  0
  6  7  1  0  0  0  0
  6 27  1  0  0  0  0
  7  8  1  0  0  0  0
  7 19  1  0  0  0  0
  8  9  1  0  0  0  0
  8 28  1  0  0  0  0
  8 29  1  0  0  0  0
  9 10  1  0  0  0  0
  9 11  1  0  0  0  0
  9 30  1  0  0  0  0
 10 31  1  0  0  0  0
 11 12  1  0  0  0  0
 11 32  1  0  0  0  0
 11 33  1  0  0  0  0
 12 13  1  0  0  0  0
 13 17  1  0  0  0  0
 13 14  2  0  0  0  0
 14 15  1  0  0  0  0
 15 16  2  0  0  0  0
 15 34  1  0  0  0  0
 16 17  1  0  0  0  0
 16 35  1  0  0  0  0
 17 18  1  0  0  0  0
 18 36  1  0  0  0  0
 18 37  1  0  0  0  0
 18 38  1  0  0  0  0
 19 20  1  0  0  0  0
 20 21  2  0  0  0  0
 20 39  1  0  0  0  0
 21 22  1  0  0  0  0
 22 40  1  0  0  0  0
 22 41  1  0  0  0  0
 22 42  1  0  0  0  0
M  CHG  1   5   1
M  END
> <s_m_source_file>
AV-unprocessed.smi

> <i_m_source_file_index>
609

> <i_lp_mmshare_version>
43012

> <i_f3d_flags>
0

> <s_epik_input>
W0NIM11jKFtjSF0xKWMoW0NIM10pW2NIXWMoYzEyKW4oW2NIXW4yKVtDSDJdW0NASF0oW09IXSlbQ0gyXVNjM25bY0hdW2NIXW4zW0NIM10=

> <s_epik_cmdline>
J2VwaWtfcHl0aG9uJywgJy1waCcsICc3LjAnLCAnLXRuJywgJzgnLCAnLW1hJywgJzIwMCcsICctbWV0YWxfYmluZGluZycsICctaW1hZScsICc8aW5maWxlLm1hZT4nLCAnLW9tYWUnLCAnPG91dGZpbGUubWFlPic=

> <r_epik_Ionization_Penalty>
2.09683

> <r_epik_Ionization_Penalty_Charging>
2.09682

> <r_epik_Ionization_Penalty_Neutral>
2.49751e-06

> <r_epik_State_Penalty>
2.21514

> <r_epik_Charging_Adjusted_Penalty>
4.31197

> <i_epik_Tot_Q>
1

> <i_epik_Tot_abs_Q>
1

> <r_epik_Metal_State_Penalty>
1.52634

> <b_epik_Metal_Only>
0

> <s_lp_Force_Field>
OPLS_2005

> <r_lp_Energy>
12.8682

> <b_lp_Chiralities_Consistent>
1

> <s_lp_Variant>
AV-unprocessed.smi:609-7

> <Gold.Version>
5.8.1

> <Gold.Id.Protein>
6NUR|6NUR_protein|mol2

> <Gold.PLP.Fitness>
51.9381

> <Gold.PLP.PLP>
-43.3362

> <Gold.PLP.part.hbond>
-3.0000

> <Gold.PLP.part.metal>
0.0000

> <Gold.PLP.part.buried>
-5.8066

> <Gold.PLP.part.nonpolar>
-34.6223

> <Gold.PLP.part.repulsive>
0.1025

> <Gold.PLP.ligand.clash>
0.0000

> <Gold.PLP.ligand.torsion>
0.5402

> <Gold.PLP.Chemscore.Hbond>
3.2256

> <Gold.PLP.Chemscore.CHOScore>
0.0000

> <Gold.PLP.Chemscore.Metal>
0.0000

> <Gold.Chemscore.Hbonds>
donor molecule, donor type, donor heavy atom, donor atom, acceptor molecule, acceptor atom, score
      L1  H     5    43       P1  8028  2.00
      P1  H  6931  6943       L1    14  0.77
      P1  H  6934  6947       L1    14  0.40

> <Gold.PLP.Chemscore.Internal.Correction>
0.0054

> <Gold.Rescore>
     Score         DG    S(hbond)    S(metal)    S(lipo)     H(rot)  DE(clash)    DE(int)     intcor
     18.19     -18.78       2.05        0.00     109.47       2.48       0.02       0.57       ----

> <Gold.Chemscore.Fitness>
18.1930

> <Gold.Chemscore.DG>
-18.7842

> <Gold.Chemscore.ZeroCoef>
-5.4800

> <Gold.Chemscore.Hbond>
2.0485

> <Gold.Chemscore.Metal>
0.0000

> <Gold.Chemscore.Lipo>
109.4710

> <Gold.Chemscore.Internal_Hbond>
0.0000

> <Gold.Chemscore.DEClash>
0.0166

> <Gold.Chemscore.DEInternal>
0.5745

> <Gold.Chemscore.Rot>
2.4789

> <Gold.Chemscore.Internal.Correction>
   9.000000E+99

> <Gold.Chemscore.Hbonds>
donor molecule, donor type, donor heavy atom, donor atom, acceptor molecule, acceptor atom, score
      L1  H     5    43       P1  8028  0.98
      P1  H  6931  6943       L1    14  0.76
      P1  H  6934  6947       L1    14  0.17

> <Gold.Chemscore.Hbond.Weighted>
-6.8419

> <Gold.Chemscore.Metal.Weighted>
-0.0000

> <Gold.Chemscore.Lipo.Weighted>
-12.8081

> <Gold.Chemscore.Internal_Hbond.Weighted>
0.0000

> <Gold.Chemscore.DEClash.Weighted>
0.0166

> <Gold.Chemscore.DEInternal.Weighted>
0.5745

> <Gold.Chemscore.Rot.Weighted>
6.3459

> <Gold.Chemscore.Internal.Correction.Weighted>
   9.000000E+99

> <Gold.Protein.RotatedTorsions>
[ 6907 6896 6895 6894 ] final -172.69 input  -60.11 | X-H torsion
[ 7974 7965 7964 7962 ] final  -92.25 input  175.53 | X-H torsion
[ 8008 7997 7996 7995 ] final  -83.88 input   59.86 | X-H torsion
[ 10167 10162 10161 10158 ] final  -38.44 input  -65.29 | X-H torsion
[ 10718 10713 10712 10709 ] final   51.38 input   66.30 | X-H torsion
[ 10763 10752 10751 10750 ] final   22.45 input  -60.55 | X-H torsion
[ 11005 11000 10999 10996 ] final  -10.79 input  -57.11 | X-H torsion

> <Gold.Protein.ActiveResidues>
 VAL166  LYS551  ARG553  GLY616  TRP617  ASP618  TYR619  PRO620  LYS621  CYS622 
 ASP623  PHE694  ASN695  SER759  ASP760  ASP761  ALA762  ILE779  LEU786  VAL792 
 PHE793  MET794  SER795  GLU796  ALA797  LYS798  CYS799  TRP800  GLU811  SER814 

> <Gold.Protein.RotatedAtoms>
  151.5441  133.3428  159.2940 H   0  0  0  0  0  0  0  0  0  0  0  0  # atno 6907 bound_to 6896
  150.8518  134.7847  159.7025 H   0  0  0  0  0  0  0  0  0  0  0  0  # atno 6908 bound_to 6896
  152.4562  134.5295  159.9858 H   0  0  0  0  0  0  0  0  0  0  0  0  # atno 6909 bound_to 6896
  145.4023  140.9538  143.2280 H   0  0  0  0  0  0  0  0  0  0  0  0  # atno 7974 bound_to 7965
  154.6238  140.0613  156.9648 H   0  0  0  0  0  0  0  0  0  0  0  0  # atno 8008 bound_to 7997
  155.1775  140.3296  155.4363 H   0  0  0  0  0  0  0  0  0  0  0  0  # atno 8009 bound_to 7997
  156.2446  140.1903  156.6873 H   0  0  0  0  0  0  0  0  0  0  0  0  # atno 8010 bound_to 7997
  140.7092  143.3277  151.2642 H   0  0  0  0  0  0  0  0  0  0  0  0  # atno 10167 bound_to 10162
  157.4975  130.8416  149.8276 H   0  0  0  0  0  0  0  0  0  0  0  0  # atno 10718 bound_to 10713
  153.0914  135.6648  153.9846 H   0  0  0  0  0  0  0  0  0  0  0  0  # atno 10763 bound_to 10752
  153.9442  135.2990  155.3443 H   0  0  0  0  0  0  0  0  0  0  0  0  # atno 10764 bound_to 10752
  154.7329  135.5115  153.9066 H   0  0  0  0  0  0  0  0  0  0  0  0  # atno 10765 bound_to 10752
  140.7485  133.8612  155.9025 H   0  0  0  0  0  0  0  0  0  0  0  0  # atno 11005 bound_to 11000
  144.8365  139.5541  143.6920 LP  0  0  0  0  0  0  0  0  0  0  0  0  # atno 17320 bound_to 7965
  146.2746  139.6719  142.9272 LP  0  0  0  0  0  0  0  0  0  0  0  0  # atno 17321 bound_to 7965
  139.6750  143.9954  152.2775 LP  0  0  0  0  0  0  0  0  0  0  0  0  # atno 17342 bound_to 10162
  139.9565  144.6586  150.8121 LP  0  0  0  0  0  0  0  0  0  0  0  0  # atno 17343 bound_to 10162
  156.0209  130.3796  150.1965 LP  0  0  0  0  0  0  0  0  0  0  0  0  # atno 17370 bound_to 10713
  157.0154  130.9963  151.3354 LP  0  0  0  0  0  0  0  0  0  0  0  0  # atno 17371 bound_to 10713
  140.9772  134.1453  157.4525 LP  0  0  0  0  0  0  0  0  0  0  0  0  # atno 17394 bound_to 11000
  139.8792  134.9998  156.5978 LP  0  0  0  0  0  0  0  0  0  0  0  0  # atno 17395 bound_to 11000

$$$$
