AV-unprocessed.smi:2152|AV-procd|sdf|8765|dock6
  -GOLD-   2272011543D 1   1.00000     0.00000
 Structure written by MMmdl.
 41 42  0  0  0  0  0  0  0  0  1 V2000
  152.7800  142.6607  162.5213 C   0  0  0  0  0  0  0  0  0  0  0  0
  152.2440  143.1396  161.1597 C   0  0  1  0  0  0  0  0  0  0  0  0
  152.4578  144.6587  160.9999 C   0  0  0  0  0  0  0  0  0  0  0  0
  151.9201  145.1756  159.6568 C   0  0  0  0  0  0  0  0  0  0  0  0
  152.5541  144.4198  158.4813 C   0  0  0  0  0  0  0  0  0  0  0  0
  152.3352  142.9064  158.6194 C   0  0  0  0  0  0  0  0  0  0  0  0
  152.8683  142.3741  159.9642 C   0  0  2  0  0  0  0  0  0  0  0  0
  152.5779  140.9441  160.0533 N   0  0  0  0  0  0  0  0  0  0  0  0
  153.3280  139.9540  159.5453 C   0  0  0  0  0  0  0  0  0  0  0  0
  154.3617  140.1443  158.9031 O   0  0  0  0  0  0  0  0  0  0  0  0
  152.8191  138.5288  159.7970 C   0  0  0  0  0  0  0  0  0  0  0  0
  153.5034  137.8710  160.9173 N   0  0  0  0  0  0  0  0  0  0  0  0
  154.0163  138.6333  161.9509 C   0  0  0  0  0  0  0  0  0  0  0  0
  154.6416  138.1063  163.0261 C   0  0  0  0  0  0  0  0  0  0  0  0
  154.8182  136.6652  163.1569 C   0  0  0  0  0  0  0  0  0  0  0  0
  155.3610  136.1397  164.1295 O   0  0  0  0  0  0  0  0  0  0  0  0
  154.3009  135.9095  162.0780 N   0  0  0  0  0  0  0  0  0  0  0  0
  154.4177  134.4672  162.1413 C   0  0  0  0  0  0  0  0  0  0  0  0
  153.6300  136.4656  160.9652 C   0  0  0  0  0  0  0  0  0  0  0  0
  153.1602  135.7638  160.0661 O   0  0  0  0  0  0  0  0  0  0  0  0
  153.8638  142.7668  162.5786 H   0  0  0  0  0  0  0  0  0  0  0  0
  152.5380  141.6140  162.7052 H   0  0  0  0  0  0  0  0  0  0  0  0
  152.3462  143.2376  163.3382 H   0  0  0  0  0  0  0  0  0  0  0  0
  151.1680  142.9578  161.1523 H   0  0  0  0  0  0  0  0  0  0  0  0
  151.9675  145.1921  161.8149 H   0  0  0  0  0  0  0  0  0  0  0  0
  153.5211  144.8901  161.0772 H   0  0  0  0  0  0  0  0  0  0  0  0
  150.8360  145.0596  159.6266 H   0  0  0  0  0  0  0  0  0  0  0  0
  152.1199  146.2435  159.5629 H   0  0  0  0  0  0  0  0  0  0  0  0
  152.1318  144.7728  157.5403 H   0  0  0  0  0  0  0  0  0  0  0  0
  153.6232  144.6333  158.4411 H   0  0  0  0  0  0  0  0  0  0  0  0
  151.2698  142.6877  158.5307 H   0  0  0  0  0  0  0  0  0  0  0  0
  152.8255  142.3902  157.7930 H   0  0  0  0  0  0  0  0  0  0  0  0
  153.9474  142.5395  159.9792 H   0  0  0  0  0  0  0  0  0  0  0  0
  151.7448  140.6858  160.5621 H   0  0  0  0  0  0  0  0  0  0  0  0
  151.7422  138.5420  159.9764 H   0  0  0  0  0  0  0  0  0  0  0  0
  152.9587  137.9519  158.8818 H   0  0  0  0  0  0  0  0  0  0  0  0
  153.9063  139.7071  161.9029 H   0  0  0  0  0  0  0  0  0  0  0  0
  155.0129  138.7596  163.8019 H   0  0  0  0  0  0  0  0  0  0  0  0
  154.5285  134.0684  161.1319 H   0  0  0  0  0  0  0  0  0  0  0  0
  153.5100  134.0974  162.6200 H   0  0  0  0  0  0  0  0  0  0  0  0
  155.3082  134.1936  162.7087 H   0  0  0  0  0  0  0  0  0  0  0  0
  1  2  1  0  0  0  0
  1 21  1  0  0  0  0
  1 22  1  0  0  0  0
  1 23  1  0  0  0  0
  2  7  1  0  0  0  0
  2  3  1  0  0  0  0
  2 24  1  0  0  0  0
  3  4  1  0  0  0  0
  3 25  1  0  0  0  0
  3 26  1  0  0  0  0
  4  5  1  0  0  0  0
  4 27  1  0  0  0  0
  4 28  1  0  0  0  0
  5  6  1  0  0  0  0
  5 29  1  0  0  0  0
  5 30  1  0  0  0  0
  6  7  1  0  0  0  0
  6 31  1  0  0  0  0
  6 32  1  0  0  0  0
  7  8  1  0  0  0  0
  7 33  1  0  0  0  0
  8  9  1  0  0  0  0
  8 34  1  0  0  0  0
  9 10  2  0  0  0  0
  9 11  1  0  0  0  0
 11 12  1  0  0  0  0
 11 35  1  0  0  0  0
 11 36  1  0  0  0  0
 12 19  1  0  0  0  0
 12 13  1  0  0  0  0
 13 14  2  0  0  0  0
 13 37  1  0  0  0  0
 14 15  1  0  0  0  0
 14 38  1  0  0  0  0
 15 16  2  0  0  0  0
 15 17  1  0  0  0  0
 17 18  1  0  0  0  0
 17 19  1  0  0  0  0
 18 39  1  0  0  0  0
 18 40  1  0  0  0  0
 18 41  1  0  0  0  0
 19 20  2  0  0  0  0
M  END
> <s_m_source_file>
AV-unprocessed.smi

> <i_m_source_file_index>
2152

> <i_lp_mmshare_version>
43012

> <i_f3d_flags>
0

> <s_epik_input>
W0NIM11bQ0BASF0xW0NIMl1bQ0gyXVtDSDJdW0NIMl1bQ0BIXTFbTkhdQyg9TylbQ0gyXW4yW2NIXVtjSF1jKD1PKW4oW0NIM10pYzI9Tw==

> <s_epik_cmdline>
J2VwaWtfcHl0aG9uJywgJy1waCcsICc3LjAnLCAnLXRuJywgJzgnLCAnLW1hJywgJzIwMCcsICctbWV0YWxfYmluZGluZycsICctaW1hZScsICc8aW5maWxlLm1hZT4nLCAnLW9tYWUnLCAnPG91dGZpbGUubWFlPic=

> <r_lp_tautomer_probability>
1

> <r_epik_Ionization_Penalty>
3.20555e-08

> <r_epik_Ionization_Penalty_Charging>
1.30086e-08

> <r_epik_Ionization_Penalty_Neutral>
1.90469e-08

> <r_epik_State_Penalty>
-0

> <r_epik_Charging_Adjusted_Penalty>
1.30086e-08

> <i_epik_Tot_Q>
0

> <i_epik_Tot_abs_Q>
0

> <r_epik_Metal_State_Penalty>
-0

> <b_epik_Metal_Only>
0

> <s_lp_Force_Field>
OPLS_2005

> <r_lp_Energy>
17.8687

> <b_lp_Chiralities_Consistent>
1

> <s_lp_Variant>
AV-unprocessed.smi:2152-4

> <Gold.Version>
5.8.1

> <Gold.Id.Protein>
6NUR|6NUR_protein|mol2

> <Gold.PLP.Fitness>
45.8787

> <Gold.PLP.PLP>
-42.2810

> <Gold.PLP.part.hbond>
-2.0000

> <Gold.PLP.part.metal>
0.0000

> <Gold.PLP.part.buried>
-2.9988

> <Gold.PLP.part.nonpolar>
-36.8375

> <Gold.PLP.part.repulsive>
0.1871

> <Gold.PLP.ligand.clash>
0.0000

> <Gold.PLP.ligand.torsion>
1.0244

> <Gold.PLP.Chemscore.Hbond>
1.8800

> <Gold.PLP.Chemscore.CHOScore>
0.0000

> <Gold.PLP.Chemscore.Metal>
0.0000

> <Gold.Chemscore.Hbonds>
donor molecule, donor type, donor heavy atom, donor atom, acceptor molecule, acceptor atom, score
      P1  H  6896  6907       L1    20  0.36
      P1  H  7997  8009       L1    10  0.91

> <Gold.PLP.Chemscore.Internal.Correction>
0.0064

> <Gold.Rescore>
     Score         DG    S(hbond)    S(metal)    S(lipo)     H(rot)  DE(clash)    DE(int)     intcor
     18.56     -20.03       1.79        0.00     106.76       1.52       0.43       1.04       ----

> <Gold.Chemscore.Fitness>
18.5609

> <Gold.Chemscore.DG>
-20.0344

> <Gold.Chemscore.ZeroCoef>
-5.4800

> <Gold.Chemscore.Hbond>
1.7862

> <Gold.Chemscore.Metal>
0.0000

> <Gold.Chemscore.Lipo>
106.7557

> <Gold.Chemscore.Internal_Hbond>
0.0000

> <Gold.Chemscore.DEClash>
0.4315

> <Gold.Chemscore.DEInternal>
1.0419

> <Gold.Chemscore.Rot>
1.5242

> <Gold.Chemscore.Internal.Correction>
   9.000000E+99

> <Gold.Chemscore.Hbonds>
donor molecule, donor type, donor heavy atom, donor atom, acceptor molecule, acceptor atom, score
      P1  H  6896  6907       L1    20  0.35
      P1  H  7997  8009       L1    10  0.90

> <Gold.Chemscore.Hbond.Weighted>
-5.9658

> <Gold.Chemscore.Metal.Weighted>
-0.0000

> <Gold.Chemscore.Lipo.Weighted>
-12.4904

> <Gold.Chemscore.Internal_Hbond.Weighted>
0.0000

> <Gold.Chemscore.DEClash.Weighted>
0.4315

> <Gold.Chemscore.DEInternal.Weighted>
1.0419

> <Gold.Chemscore.Rot.Weighted>
3.9019

> <Gold.Chemscore.Internal.Correction.Weighted>
   9.000000E+99

> <Gold.Protein.RotatedTorsions>
[ 6907 6896 6895 6894 ] final   56.60 input  -60.11 | X-H torsion
[ 7974 7965 7964 7962 ] final  128.15 input  175.53 | X-H torsion
[ 8008 7997 7996 7995 ] final  120.08 input   59.86 | X-H torsion
[ 10167 10162 10161 10158 ] final   27.19 input  -65.29 | X-H torsion
[ 10718 10713 10712 10709 ] final  154.12 input   66.30 | X-H torsion
[ 10763 10752 10751 10750 ] final  100.28 input  -60.55 | X-H torsion
[ 11005 11000 10999 10996 ] final   22.49 input  -57.11 | X-H torsion

> <Gold.Protein.ActiveResidues>
 VAL166  LYS551  ARG553  GLY616  TRP617  ASP618  TYR619  PRO620  LYS621  CYS622 
 ASP623  PHE694  ASN695  SER759  ASP760  ASP761  ALA762  ILE779  LEU786  VAL792 
 PHE793  MET794  SER795  GLU796  ALA797  LYS798  CYS799  TRP800  GLU811  SER814 

> <Gold.Protein.RotatedAtoms>
  152.3652  134.6815  160.0194 H   0  0  0  0  0  0  0  0  0  0  0  0  # atno 6907 bound_to 6896
  151.7125  133.3307  159.3302 H   0  0  0  0  0  0  0  0  0  0  0  0  # atno 6908 bound_to 6896
  150.7633  134.6454  159.6304 H   0  0  0  0  0  0  0  0  0  0  0  0  # atno 6909 bound_to 6896
  145.0427  139.3950  143.5094 H   0  0  0  0  0  0  0  0  0  0  0  0  # atno 7974 bound_to 7965
  156.2626  140.2838  156.1093 H   0  0  0  0  0  0  0  0  0  0  0  0  # atno 8008 bound_to 7997
  155.1275  140.0393  157.2783 H   0  0  0  0  0  0  0  0  0  0  0  0  # atno 8009 bound_to 7997
  154.6624  140.2569  155.7100 H   0  0  0  0  0  0  0  0  0  0  0  0  # atno 8010 bound_to 7997
  140.4959  144.0392  150.6314 H   0  0  0  0  0  0  0  0  0  0  0  0  # atno 10167 bound_to 10162
  157.2358  131.0749  151.1824 H   0  0  0  0  0  0  0  0  0  0  0  0  # atno 10718 bound_to 10713
  153.3120  135.4084  155.1344 H   0  0  0  0  0  0  0  0  0  0  0  0  # atno 10763 bound_to 10752
  154.8578  135.3566  154.5711 H   0  0  0  0  0  0  0  0  0  0  0  0  # atno 10764 bound_to 10752
  153.6140  135.7067  153.5394 H   0  0  0  0  0  0  0  0  0  0  0  0  # atno 10765 bound_to 10752
  140.3800  134.1931  155.7664 H   0  0  0  0  0  0  0  0  0  0  0  0  # atno 11005 bound_to 11000
  146.3511  140.0036  142.8674 LP  0  0  0  0  0  0  0  0  0  0  0  0  # atno 17320 bound_to 7965
  145.1628  140.9681  143.4367 LP  0  0  0  0  0  0  0  0  0  0  0  0  # atno 17321 bound_to 7965
  140.3674  143.2873  152.0316 LP  0  0  0  0  0  0  0  0  0  0  0  0  # atno 17342 bound_to 10162
  139.4861  144.6256  151.7171 LP  0  0  0  0  0  0  0  0  0  0  0  0  # atno 17343 bound_to 10162
  157.3430  130.7043  149.6393 LP  0  0  0  0  0  0  0  0  0  0  0  0  # atno 17370 bound_to 10713
  155.9672  130.4274  150.4743 LP  0  0  0  0  0  0  0  0  0  0  0  0  # atno 17371 bound_to 10713
  141.1926  133.8168  157.0830 LP  0  0  0  0  0  0  0  0  0  0  0  0  # atno 17394 bound_to 11000
  140.0486  134.9817  157.1094 LP  0  0  0  0  0  0  0  0  0  0  0  0  # atno 17395 bound_to 11000

$$$$
