AV-unprocessed.smi:1976|AV-procd|sdf|7990|dock4
  -GOLD-   2272010173D 1   1.00000     0.00000
 Structure written by MMmdl.
 45 47  0  0  0  0  0  0  0  0  2 V2000
  149.6706  135.0028  158.2463 O   0  0  0  0  0  0  0  0  0  0  0  0
  149.0582  136.0713  158.2354 C   0  0  0  0  0  0  0  0  0  0  0  0
  148.6162  136.7377  159.5457 C   0  0  0  0  0  0  0  0  0  0  0  0
  148.0685  135.7823  160.5229 N   0  0  0  0  0  0  0  0  0  0  0  0
  147.5604  134.5684  160.0202 C   0  0  0  0  0  0  0  0  0  0  0  0
  147.0227  133.6170  160.8075 C   0  0  0  0  0  0  0  0  0  0  0  0
  146.5398  132.2902  160.2425 C   0  0  0  0  0  0  0  0  0  0  0  0
  146.0660  131.5015  161.2072 F   0  0  0  0  0  0  0  0  0  0  0  0
  145.5625  132.5019  159.3622 F   0  0  0  0  0  0  0  0  0  0  0  0
  147.5261  131.6441  159.6199 F   0  0  0  0  0  0  0  0  0  0  0  0
  147.0156  133.8867  162.2320 C   0  0  0  0  0  0  0  0  0  0  0  0
  147.5101  135.0366  162.7305 C   0  0  0  0  0  0  0  0  0  0  0  0
  148.0773  136.0683  161.8593 C   0  0  0  0  0  0  0  0  0  0  0  0
  148.5336  137.1229  162.3021 O   0  0  0  0  0  0  0  0  0  0  0  0
  148.7201  136.7088  157.1052 N   0  0  0  0  0  0  0  0  0  0  0  0
  149.0479  136.2446  155.7618 C   0  0  1  0  0  0  0  0  0  0  0  0
  150.4197  135.5509  155.6558 C   0  0  0  0  0  0  0  0  0  0  0  0
  150.2133  134.3885  154.6642 C   0  0  0  0  0  0  0  0  0  0  0  0
  148.8233  134.5235  154.1882 N   0  3  1  0  0  0  0  0  0  0  0  0
  148.1605  133.3022  153.6812 C   0  0  0  0  0  0  0  0  0  0  0  0
  146.7548  133.6655  153.1612 C   0  0  0  0  0  0  0  0  0  0  0  0
  145.9284  134.4229  154.2214 C   0  0  0  0  0  0  0  0  0  0  0  0
  146.7089  135.6296  154.7784 C   0  0  0  0  0  0  0  0  0  0  0  0
  148.0820  135.1610  155.2865 C   0  0  2  0  0  0  0  0  0  0  0  0
  149.4569  137.2790  159.9843 H   0  0  0  0  0  0  0  0  0  0  0  0
  147.8791  137.5046  159.3037 H   0  0  0  0  0  0  0  0  0  0  0  0
  147.6464  134.4542  158.9494 H   0  0  0  0  0  0  0  0  0  0  0  0
  146.6038  133.1555  162.9119 H   0  0  0  0  0  0  0  0  0  0  0  0
  147.4871  135.2040  163.7974 H   0  0  0  0  0  0  0  0  0  0  0  0
  148.2136  137.5789  157.1829 H   0  0  0  0  0  0  0  0  0  0  0  0
  149.0131  137.0812  155.0606 H   0  0  0  0  0  0  0  0  0  0  0  0
  151.1854  136.2474  155.3124 H   0  0  0  0  0  0  0  0  0  0  0  0
  150.7432  135.1587  156.6212 H   0  0  0  0  0  0  0  0  0  0  0  0
  150.9127  134.4246  153.8285 H   0  0  0  0  0  0  0  0  0  0  0  0
  150.3446  133.4336  155.1759 H   0  0  0  0  0  0  0  0  0  0  0  0
  148.7580  132.8667  152.8795 H   0  0  0  0  0  0  0  0  0  0  0  0
  148.0940  132.5577  154.4762 H   0  0  0  0  0  0  0  0  0  0  0  0
  146.8506  134.2877  152.2701 H   0  0  0  0  0  0  0  0  0  0  0  0
  146.2273  132.7632  152.8500 H   0  0  0  0  0  0  0  0  0  0  0  0
  144.9811  134.7532  153.7941 H   0  0  0  0  0  0  0  0  0  0  0  0
  145.6793  133.7446  155.0384 H   0  0  0  0  0  0  0  0  0  0  0  0
  146.8321  136.3834  153.9995 H   0  0  0  0  0  0  0  0  0  0  0  0
  146.1465  136.1009  155.5851 H   0  0  0  0  0  0  0  0  0  0  0  0
  147.9440  134.4273  156.0845 H   0  0  0  0  0  0  0  0  0  0  0  0
  148.8432  135.1923  153.4316 H   0  0  0  0  0  0  0  0  0  0  0  0
  1  2  2  0  0  0  0
  2  3  1  0  0  0  0
  2 15  1  0  0  0  0
  3  4  1  0  0  0  0
  3 25  1  0  0  0  0
  3 26  1  0  0  0  0
  4 13  1  0  0  0  0
  4  5  1  0  0  0  0
  5  6  2  0  0  0  0
  5 27  1  0  0  0  0
  6  7  1  0  0  0  0
  6 11  1  0  0  0  0
  7  8  1  0  0  0  0
  7  9  1  0  0  0  0
  7 10  1  0  0  0  0
 11 12  2  0  0  0  0
 11 28  1  0  0  0  0
 12 13  1  0  0  0  0
 12 29  1  0  0  0  0
 13 14  2  0  0  0  0
 15 16  1  0  0  0  0
 15 30  1  0  0  0  0
 16 24  1  0  0  0  0
 16 17  1  0  0  0  0
 16 31  1  0  0  0  0
 17 18  1  0  0  0  0
 17 32  1  0  0  0  0
 17 33  1  0  0  0  0
 18 19  1  0  0  0  0
 18 34  1  0  0  0  0
 18 35  1  0  0  0  0
 19 24  1  0  0  0  0
 19 20  1  0  0  0  0
 19 45  1  0  0  0  0
 20 21  1  0  0  0  0
 20 36  1  0  0  0  0
 20 37  1  0  0  0  0
 21 22  1  0  0  0  0
 21 38  1  0  0  0  0
 21 39  1  0  0  0  0
 22 23  1  0  0  0  0
 22 40  1  0  0  0  0
 22 41  1  0  0  0  0
 23 24  1  0  0  0  0
 23 42  1  0  0  0  0
 23 43  1  0  0  0  0
 24 44  1  0  0  0  0
M  CHG  1  19   1
M  END
> <s_m_source_file>
AV-unprocessed.smi

> <i_m_source_file_index>
1976

> <i_lp_mmshare_version>
43012

> <i_f3d_flags>
0

> <s_epik_input>
W0NIMl0xW0NIMl1bQ0gyXVtDSDJdW0NASF0oTjEyKVtDQEBIXShbQ0gyXVtDSDJdMilbTkhdQyg9TylbQ0gyXW4zW2NIXWMoQyhGKShGKUYpW2NIXVtjSF1jMz1P

> <s_epik_cmdline>
J2VwaWtfcHl0aG9uJywgJy1waCcsICc3LjAnLCAnLXRuJywgJzgnLCAnLW1hJywgJzIwMCcsICctbWV0YWxfYmluZGluZycsICctaW1hZScsICc8aW5maWxlLm1hZT4nLCAnLW9tYWUnLCAnPG91dGZpbGUubWFlPic=

> <r_lp_tautomer_probability>
1

> <r_epik_Ionization_Penalty>
0.00171506

> <r_epik_Ionization_Penalty_Charging>
0.00171498

> <r_epik_Ionization_Penalty_Neutral>
7.81737e-08

> <r_epik_State_Penalty>
0.00115937

> <r_epik_Charging_Adjusted_Penalty>
0.00287436

> <i_epik_Tot_Q>
1

> <i_epik_Tot_abs_Q>
1

> <r_epik_Metal_State_Penalty>
-0

> <b_epik_Metal_Only>
0

> <s_lp_Force_Field>
OPLS_2005

> <r_lp_Energy>
46.2407

> <b_lp_Chiralities_Consistent>
1

> <s_lp_Variant>
AV-unprocessed.smi:1976-8

> <Gold.Version>
5.8.1

> <Gold.Id.Protein>
6NUR|6NUR_protein|mol2

> <Gold.PLP.Fitness>
48.6149

> <Gold.PLP.PLP>
-37.5033

> <Gold.PLP.part.hbond>
-4.0000

> <Gold.PLP.part.metal>
0.0000

> <Gold.PLP.part.buried>
-3.7617

> <Gold.PLP.part.nonpolar>
-29.1948

> <Gold.PLP.part.repulsive>
0.0276

> <Gold.PLP.ligand.clash>
0.0000

> <Gold.PLP.ligand.torsion>
0.8948

> <Gold.PLP.Chemscore.Hbond>
4.2734

> <Gold.PLP.Chemscore.CHOScore>
0.0000

> <Gold.PLP.Chemscore.Metal>
0.0000

> <Gold.Chemscore.Hbonds>
donor molecule, donor type, donor heavy atom, donor atom, acceptor molecule, acceptor atom, score
      L1  H    19    45       P1  7948  2.00
      P1  H  6896  6907       L1     1  1.00
      P1  H  6931  6943       L1    14  0.37

> <Gold.PLP.Chemscore.Internal.Correction>
0.0808

> <Gold.Rescore>
     Score         DG    S(hbond)    S(metal)    S(lipo)     H(rot)  DE(clash)    DE(int)     intcor
     14.83     -18.62       2.91        0.00      64.04       1.58       0.00       3.79       ----

> <Gold.Chemscore.Fitness>
14.8300

> <Gold.Chemscore.DG>
-18.6237

> <Gold.Chemscore.ZeroCoef>
-5.4800

> <Gold.Chemscore.Hbond>
2.9051

> <Gold.Chemscore.Metal>
0.0000

> <Gold.Chemscore.Lipo>
64.0420

> <Gold.Chemscore.Internal_Hbond>
0.0000

> <Gold.Chemscore.DEClash>
0.0009

> <Gold.Chemscore.DEInternal>
3.7928

> <Gold.Chemscore.Rot>
1.5830

> <Gold.Chemscore.Internal.Correction>
   9.000000E+99

> <Gold.Chemscore.Hbonds>
donor molecule, donor type, donor heavy atom, donor atom, acceptor molecule, acceptor atom, score
      L1  H    19    45       P1  7948  0.65
      P1  H  6896  6907       L1     1  0.99
      P1  H  6931  6943       L1    14  0.37

> <Gold.Chemscore.Hbond.Weighted>
-9.7031

> <Gold.Chemscore.Metal.Weighted>
-0.0000

> <Gold.Chemscore.Lipo.Weighted>
-7.4929

> <Gold.Chemscore.Internal_Hbond.Weighted>
0.0000

> <Gold.Chemscore.DEClash.Weighted>
0.0009

> <Gold.Chemscore.DEInternal.Weighted>
3.7928

> <Gold.Chemscore.Rot.Weighted>
4.0524

> <Gold.Chemscore.Internal.Correction.Weighted>
   9.000000E+99

> <Gold.Protein.RotatedTorsions>
[ 6907 6896 6895 6894 ] final  -80.23 input  -60.11 | X-H torsion
[ 7974 7965 7964 7962 ] final   15.31 input  175.53 | X-H torsion
[ 8008 7997 7996 7995 ] final -105.70 input   59.86 | X-H torsion
[ 10167 10162 10161 10158 ] final  -89.85 input  -65.29 | X-H torsion
[ 10718 10713 10712 10709 ] final   49.91 input   66.30 | X-H torsion
[ 10763 10752 10751 10750 ] final  -47.74 input  -60.55 | X-H torsion
[ 11005 11000 10999 10996 ] final  110.61 input  -57.11 | X-H torsion

> <Gold.Protein.ActiveResidues>
 VAL166  LYS551  ARG553  GLY616  TRP617  ASP618  TYR619  PRO620  LYS621  CYS622 
 ASP623  PHE694  ASN695  SER759  ASP760  ASP761  ALA762  ILE779  LEU786  VAL792 
 PHE793  MET794  SER795  GLU796  ALA797  LYS798  CYS799  TRP800  GLU811  SER814 

> <Gold.Protein.RotatedAtoms>
  150.6933  134.4001  159.5114 H   0  0  0  0  0  0  0  0  0  0  0  0  # atno 6907 bound_to 6896
  152.1776  134.8779  160.0538 H   0  0  0  0  0  0  0  0  0  0  0  0  # atno 6908 bound_to 6896
  151.9781  133.3713  159.4134 H   0  0  0  0  0  0  0  0  0  0  0  0  # atno 6909 bound_to 6896
  146.2282  139.8912  142.8554 H   0  0  0  0  0  0  0  0  0  0  0  0  # atno 7974 bound_to 7965
  154.9037  140.0412  157.1908 H   0  0  0  0  0  0  0  0  0  0  0  0  # atno 8008 bound_to 7997
  154.8417  140.2915  155.5634 H   0  0  0  0  0  0  0  0  0  0  0  0  # atno 8009 bound_to 7997
  156.2992  140.2481  156.3361 H   0  0  0  0  0  0  0  0  0  0  0  0  # atno 8010 bound_to 7997
  140.3607  143.2843  151.9617 H   0  0  0  0  0  0  0  0  0  0  0  0  # atno 10167 bound_to 10162
  157.4833  130.8329  149.8118 H   0  0  0  0  0  0  0  0  0  0  0  0  # atno 10718 bound_to 10713
  154.0664  135.6611  153.4818 H   0  0  0  0  0  0  0  0  0  0  0  0  # atno 10763 bound_to 10752
  153.0407  135.5147  154.7609 H   0  0  0  0  0  0  0  0  0  0  0  0  # atno 10764 bound_to 10752
  154.6662  135.3022  154.9770 H   0  0  0  0  0  0  0  0  0  0  0  0  # atno 10765 bound_to 10752
  139.8885  134.9488  156.6305 H   0  0  0  0  0  0  0  0  0  0  0  0  # atno 11005 bound_to 11000
  145.2416  141.0011  143.3933 LP  0  0  0  0  0  0  0  0  0  0  0  0  # atno 17320 bound_to 7965
  144.9447  139.4149  143.6431 LP  0  0  0  0  0  0  0  0  0  0  0  0  # atno 17321 bound_to 7965
  139.4814  144.5995  151.7631 LP  0  0  0  0  0  0  0  0  0  0  0  0  # atno 17342 bound_to 10162
  140.5129  144.0997  150.6000 LP  0  0  0  0  0  0  0  0  0  0  0  0  # atno 17343 bound_to 10162
  156.0133  130.3824  150.2192 LP  0  0  0  0  0  0  0  0  0  0  0  0  # atno 17370 bound_to 10713
  157.0379  131.0026  151.3292 LP  0  0  0  0  0  0  0  0  0  0  0  0  # atno 17371 bound_to 10713
  140.7670  133.8770  155.8462 LP  0  0  0  0  0  0  0  0  0  0  0  0  # atno 17394 bound_to 11000
  140.9874  134.1324  157.4440 LP  0  0  0  0  0  0  0  0  0  0  0  0  # atno 17395 bound_to 11000

$$$$
