AV-unprocessed.smi:1022|AV-procd|sdf|4458|dock1
  -GOLD-   22720 2433D 1   1.00000     0.00000
 Structure written by MMmdl.
 33 34  0  0  0  0  0  0  0  0  1 V2000
  151.1326  140.3499  156.1067 C   0  0  0  0  0  0  0  0  0  0  0  0
  150.2789  140.5875  155.0018 O   0  0  0  0  0  0  0  0  0  0  0  0
  148.9706  140.9702  155.3954 C   0  0  0  0  0  0  0  0  0  0  0  0
  148.2525  141.6221  154.2039 C   0  0  2  0  0  0  0  0  0  0  0  0
  146.9138  142.2494  154.6237 C   0  0  0  0  0  0  0  0  0  0  0  0
  148.0300  140.6230  153.1618 N   0  0  0  0  0  0  0  0  0  0  0  0
  147.0731  139.6839  153.1788 C   0  0  0  0  0  0  0  0  0  0  0  0
  146.2648  139.5537  154.0987 O   0  0  0  0  0  0  0  0  0  0  0  0
  147.1254  138.9183  152.0749 N   0  0  0  0  0  0  0  0  0  0  0  0
  146.2880  137.8279  151.7197 C   0  0  0  0  0  0  0  0  0  0  0  0
  146.4500  137.0946  150.6099 N   0  0  0  0  0  0  0  0  0  0  0  0
  145.4962  136.0916  150.5079 N   0  0  0  0  0  0  0  0  0  0  0  0
  144.6439  136.0940  151.5398 C   0  0  0  0  0  0  0  0  0  0  0  0
  143.5289  135.1082  151.6527 C   0  0  0  0  0  0  0  0  0  0  0  0
  143.3252  134.2769  152.9006 C   0  0  0  0  0  0  0  0  0  0  0  0
  143.8068  133.6228  151.6308 C   0  0  0  0  0  0  0  0  0  0  0  0
  144.9452  137.3454  152.7416 S   0  0  0  0  0  0  0  0  0  0  0  0
  152.1220  140.0632  155.7497 H   0  0  0  0  0  0  0  0  0  0  0  0
  150.7526  139.5406  156.7314 H   0  0  0  0  0  0  0  0  0  0  0  0
  151.2427  141.2448  156.7206 H   0  0  0  0  0  0  0  0  0  0  0  0
  148.4109  140.1034  155.7515 H   0  0  0  0  0  0  0  0  0  0  0  0
  149.0353  141.6791  156.2225 H   0  0  0  0  0  0  0  0  0  0  0  0
  148.8966  142.4145  153.8185 H   0  0  0  0  0  0  0  0  0  0  0  0
  147.0603  143.0046  155.3961 H   0  0  0  0  0  0  0  0  0  0  0  0
  146.2294  141.4978  155.0185 H   0  0  0  0  0  0  0  0  0  0  0  0
  146.4236  142.7361  153.7799 H   0  0  0  0  0  0  0  0  0  0  0  0
  148.6471  140.6583  152.3636 H   0  0  0  0  0  0  0  0  0  0  0  0
  147.8531  139.1391  151.4114 H   0  0  0  0  0  0  0  0  0  0  0  0
  142.6437  135.4683  151.1318 H   0  0  0  0  0  0  0  0  0  0  0  0
  144.0443  134.3770  153.7112 H   0  0  0  0  0  0  0  0  0  0  0  0
  142.3006  134.0798  153.2095 H   0  0  0  0  0  0  0  0  0  0  0  0
  143.1049  132.9889  151.0928 H   0  0  0  0  0  0  0  0  0  0  0  0
  144.8467  133.3037  151.5943 H   0  0  0  0  0  0  0  0  0  0  0  0
  1  2  1  0  0  0  0
  1 18  1  0  0  0  0
  1 19  1  0  0  0  0
  1 20  1  0  0  0  0
  2  3  1  0  0  0  0
  3  4  1  0  0  0  0
  3 21  1  0  0  0  0
  3 22  1  0  0  0  0
  4  5  1  0  0  0  0
  4  6  1  0  0  0  0
  4 23  1  0  0  0  0
  5 24  1  0  0  0  0
  5 25  1  0  0  0  0
  5 26  1  0  0  0  0
  6  7  1  0  0  0  0
  6 27  1  0  0  0  0
  7  8  2  0  0  0  0
  7  9  1  0  0  0  0
  9 10  1  0  0  0  0
  9 28  1  0  0  0  0
 10 17  1  0  0  0  0
 10 11  2  0  0  0  0
 11 12  1  0  0  0  0
 12 13  2  0  0  0  0
 13 14  1  0  0  0  0
 13 17  1  0  0  0  0
 14 16  1  0  0  0  0
 14 15  1  0  0  0  0
 14 29  1  0  0  0  0
 15 16  1  0  0  0  0
 15 30  1  0  0  0  0
 15 31  1  0  0  0  0
 16 32  1  0  0  0  0
 16 33  1  0  0  0  0
M  END
> <s_m_source_file>
AV-unprocessed.smi

> <i_m_source_file_index>
1022

> <i_lp_mmshare_version>
43012

> <i_f3d_flags>
0

> <s_epik_input>
W0NIM11PW0NIMl1bQ0BIXShbQ0gzXSlbTkhdQyg9TylbTkhdYzFubmMoczEpW0NIXTJbQ0gyXVtDSDJdMg==

> <s_epik_cmdline>
J2VwaWtfcHl0aG9uJywgJy1waCcsICc3LjAnLCAnLXRuJywgJzgnLCAnLW1hJywgJzIwMCcsICctbWV0YWxfYmluZGluZycsICctaW1hZScsICc8aW5maWxlLm1hZT4nLCAnLW9tYWUnLCAnPG91dGZpbGUubWFlPic=

> <r_lp_tautomer_probability>
1

> <r_epik_Ionization_Penalty>
0.00129266

> <r_epik_Ionization_Penalty_Charging>
0

> <r_epik_Ionization_Penalty_Neutral>
0.00129266

> <r_epik_State_Penalty>
-0

> <r_epik_Charging_Adjusted_Penalty>
0

> <i_epik_Tot_Q>
0

> <i_epik_Tot_abs_Q>
0

> <r_epik_Metal_State_Penalty>
0.30857

> <b_epik_Metal_Only>
0

> <s_lp_Force_Field>
OPLS_2005

> <r_lp_Energy>
1.45425

> <b_lp_Chiralities_Consistent>
1

> <s_lp_Variant>
AV-unprocessed.smi:1022-1

> <Gold.Version>
5.8.1

> <Gold.Id.Protein>
6NUR|6NUR_protein|mol2

> <Gold.PLP.Fitness>
37.1915

> <Gold.PLP.PLP>
-26.4890

> <Gold.PLP.part.hbond>
-4.3665

> <Gold.PLP.part.metal>
0.0000

> <Gold.PLP.part.buried>
0.1507

> <Gold.PLP.part.nonpolar>
-25.6610

> <Gold.PLP.part.repulsive>
3.3731

> <Gold.PLP.ligand.clash>
0.0000

> <Gold.PLP.ligand.torsion>
0.3833

> <Gold.PLP.Chemscore.Hbond>
3.7680

> <Gold.PLP.Chemscore.CHOScore>
0.0000

> <Gold.PLP.Chemscore.Metal>
0.0000

> <Gold.Chemscore.Hbonds>
donor molecule, donor type, donor heavy atom, donor atom, acceptor molecule, acceptor atom, score
      L1  H     6    27       P1  7957  1.00
      L1  H     9    28       P1  7957  0.94
      P1  H  7954  7966       L1    11  0.93
      P1  H  7989  7998       L1     2  0.92

> <Gold.PLP.Chemscore.Internal.Correction>
0.1651

> <Gold.Rescore>
     Score         DG    S(hbond)    S(metal)    S(lipo)     H(rot)  DE(clash)    DE(int)     intcor
     12.30     -17.06       3.12        0.00      47.82       1.73       1.92       2.85       ----

> <Gold.Chemscore.Fitness>
12.2989

> <Gold.Chemscore.DG>
-17.0645

> <Gold.Chemscore.ZeroCoef>
-5.4800

> <Gold.Chemscore.Hbond>
3.1208

> <Gold.Chemscore.Metal>
0.0000

> <Gold.Chemscore.Lipo>
47.8157

> <Gold.Chemscore.Internal_Hbond>
0.0000

> <Gold.Chemscore.DEClash>
1.9157

> <Gold.Chemscore.DEInternal>
2.8499

> <Gold.Chemscore.Rot>
1.7318

> <Gold.Chemscore.Internal.Correction>
   9.000000E+99

> <Gold.Chemscore.Hbonds>
donor molecule, donor type, donor heavy atom, donor atom, acceptor molecule, acceptor atom, score
      L1  H     6    27       P1  7957  0.99
      L1  H     9    28       P1  7957  0.77
      P1  H  7954  7966       L1    11  0.30
      P1  H  7989  7998       L1     2  0.29

> <Gold.Chemscore.Hbond.Weighted>
-10.4235

> <Gold.Chemscore.Metal.Weighted>
-0.0000

> <Gold.Chemscore.Lipo.Weighted>
-5.5944

> <Gold.Chemscore.Internal_Hbond.Weighted>
0.0000

> <Gold.Chemscore.DEClash.Weighted>
1.9157

> <Gold.Chemscore.DEInternal.Weighted>
2.8499

> <Gold.Chemscore.Rot.Weighted>
4.4335

> <Gold.Chemscore.Internal.Correction.Weighted>
   9.000000E+99

> <Gold.Protein.RotatedTorsions>
[ 6907 6896 6895 6894 ] final  -81.47 input  -60.11 | X-H torsion
[ 7974 7965 7964 7962 ] final  -69.74 input  175.53 | X-H torsion
[ 8008 7997 7996 7995 ] final -151.94 input   59.86 | X-H torsion
[ 10167 10162 10161 10158 ] final   63.43 input  -65.29 | X-H torsion
[ 10718 10713 10712 10709 ] final  -23.57 input   66.30 | X-H torsion
[ 10763 10752 10751 10750 ] final   38.90 input  -60.55 | X-H torsion
[ 11005 11000 10999 10996 ] final  -64.66 input  -57.11 | X-H torsion

> <Gold.Protein.ActiveResidues>
 VAL166  LYS551  ARG553  GLY616  TRP617  ASP618  TYR619  PRO620  LYS621  CYS622 
 ASP623  PHE694  ASN695  SER759  ASP760  ASP761  ALA762  ILE779  LEU786  VAL792 
 PHE793  MET794  SER795  GLU796  ALA797  LYS798  CYS799  TRP800  GLU811  SER814 

> <Gold.Protein.RotatedAtoms>
  150.6911  134.3813  159.5035 H   0  0  0  0  0  0  0  0  0  0  0  0  # atno 6907 bound_to 6896
  152.1615  134.8905  160.0550 H   0  0  0  0  0  0  0  0  0  0  0  0  # atno 6908 bound_to 6896
  151.9965  133.3775  159.4202 H   0  0  0  0  0  0  0  0  0  0  0  0  # atno 6909 bound_to 6896
  145.6999  140.9121  143.0737 H   0  0  0  0  0  0  0  0  0  0  0  0  # atno 7974 bound_to 7965
  155.6474  140.0708  157.2598 H   0  0  0  0  0  0  0  0  0  0  0  0  # atno 8008 bound_to 7997
  154.4170  140.1739  156.1687 H   0  0  0  0  0  0  0  0  0  0  0  0  # atno 8009 bound_to 7997
  155.9805  140.3354  155.6662 H   0  0  0  0  0  0  0  0  0  0  0  0  # atno 8010 bound_to 7997
  140.1331  144.4624  150.6853 H   0  0  0  0  0  0  0  0  0  0  0  0  # atno 10167 bound_to 10162
  156.4893  130.4563  149.6765 H   0  0  0  0  0  0  0  0  0  0  0  0  # atno 10718 bound_to 10713
  152.9985  135.6236  154.2379 H   0  0  0  0  0  0  0  0  0  0  0  0  # atno 10763 bound_to 10752
  154.2120  135.2799  155.2956 H   0  0  0  0  0  0  0  0  0  0  0  0  # atno 10764 bound_to 10752
  154.5598  135.5708  153.7056 H   0  0  0  0  0  0  0  0  0  0  0  0  # atno 10765 bound_to 10752
  141.1431  133.6669  156.5868 H   0  0  0  0  0  0  0  0  0  0  0  0  # atno 11005 bound_to 11000
  144.6972  139.8933  143.7454 LP  0  0  0  0  0  0  0  0  0  0  0  0  # atno 17320 bound_to 7965
  146.0807  139.3795  143.0466 LP  0  0  0  0  0  0  0  0  0  0  0  0  # atno 17321 bound_to 7965
  140.6805  143.2324  151.5397 LP  0  0  0  0  0  0  0  0  0  0  0  0  # atno 17342 bound_to 10162
  139.5509  144.2397  152.1529 LP  0  0  0  0  0  0  0  0  0  0  0  0  # atno 17343 bound_to 10162
  156.3443  130.7398  151.2348 LP  0  0  0  0  0  0  0  0  0  0  0  0  # atno 17370 bound_to 10713
  157.7475  131.0395  150.4553 LP  0  0  0  0  0  0  0  0  0  0  0  0  # atno 17371 bound_to 10713
  140.3795  134.7536  157.4651 LP  0  0  0  0  0  0  0  0  0  0  0  0  # atno 17394 bound_to 11000
  140.0649  134.5944  155.8707 LP  0  0  0  0  0  0  0  0  0  0  0  0  # atno 17395 bound_to 11000

$$$$
