AV-unprocessed.smi:1524|AV-procd|sdf|6140|dock7
  -GOLD-   22720 6283D 1   1.00000     0.00000
 Structure written by MMmdl.
 34 35  0  0  0  0  0  0  0  0  2 V2000
  147.1338  132.0070  153.0210 O   0  0  0  0  0  0  0  0  0  0  0  0
  147.4865  133.1791  152.9090 C   0  0  0  0  0  0  0  0  0  0  0  0
  148.4737  133.7682  153.6144 N   0  0  0  0  0  0  0  0  0  0  0  0
  149.2705  133.2509  154.6492 C   0  0  0  0  0  0  0  0  0  0  0  0
  149.7744  131.9862  154.6862 C   0  0  0  0  0  0  0  0  0  0  0  0
  150.5817  131.5028  155.7997 C   0  0  0  0  0  0  0  0  0  0  0  0
  151.1700  130.1065  155.8883 C   0  0  0  0  0  0  0  0  0  0  0  0
  150.8557  129.4052  154.7999 F   0  0  0  0  0  0  0  0  0  0  0  0
  152.4987  130.1698  155.9684 F   0  0  0  0  0  0  0  0  0  0  0  0
  150.7147  129.4518  156.9566 F   0  0  0  0  0  0  0  0  0  0  0  0
  150.7474  132.4576  156.7830 C   0  0  0  0  0  0  0  0  0  0  0  0
  150.2767  133.7232  156.8280 N   0  5  0  0  0  0  0  0  0  0  0  0
  149.5280  134.1678  155.7793 C   0  0  0  0  0  0  0  0  0  0  0  0
  149.0654  135.3092  155.7562 O   0  0  0  0  0  0  0  0  0  0  0  0
  146.8985  133.9914  152.0114 N   0  0  0  0  0  0  0  0  0  0  0  0
  145.8039  133.6863  151.0864 C   0  0  0  0  0  0  0  0  0  0  0  0
  144.5633  133.1808  151.8454 C   0  0  0  0  0  0  0  0  0  0  0  0
  143.4836  132.6948  150.8649 C   0  0  0  0  0  0  0  0  0  0  0  0
  144.0161  131.6882  150.0105 O   0  0  0  0  0  0  0  0  0  0  0  0
  145.0864  132.1611  149.2000 C   0  0  0  0  0  0  0  0  0  0  0  0
  146.2582  132.6108  150.0878 C   0  0  0  0  0  0  0  0  0  0  0  0
  148.7006  134.7170  153.3543 H   0  0  0  0  0  0  0  0  0  0  0  0
  149.5715  131.2883  153.8912 H   0  0  0  0  0  0  0  0  0  0  0  0
  151.3496  132.1559  157.6666 H   0  0  0  0  0  0  0  0  0  0  0  0
  147.2771  134.9249  151.9429 H   0  0  0  0  0  0  0  0  0  0  0  0
  145.5400  134.5795  150.5171 H   0  0  0  0  0  0  0  0  0  0  0  0
  144.8431  132.3584  152.5053 H   0  0  0  0  0  0  0  0  0  0  0  0
  144.1552  133.9663  152.4825 H   0  0  0  0  0  0  0  0  0  0  0  0
  142.6395  132.2787  151.4150 H   0  0  0  0  0  0  0  0  0  0  0  0
  143.0975  133.5243  150.2706 H   0  0  0  0  0  0  0  0  0  0  0  0
  145.4066  131.3579  148.5362 H   0  0  0  0  0  0  0  0  0  0  0  0
  144.7426  132.9794  148.5654 H   0  0  0  0  0  0  0  0  0  0  0  0
  147.0719  132.9892  149.4680 H   0  0  0  0  0  0  0  0  0  0  0  0
  146.6510  131.7460  150.6249 H   0  0  0  0  0  0  0  0  0  0  0  0
  1  2  2  0  0  0  0
  2  3  1  0  0  0  0
  2 15  1  0  0  0  0
  3  4  1  0  0  0  0
  3 22  1  0  0  0  0
  4 13  1  0  0  0  0
  4  5  2  0  0  0  0
  5  6  1  0  0  0  0
  5 23  1  0  0  0  0
  6  7  1  0  0  0  0
  6 11  2  0  0  0  0
  7  8  1  0  0  0  0
  7  9  1  0  0  0  0
  7 10  1  0  0  0  0
 11 12  1  0  0  0  0
 11 24  1  0  0  0  0
 12 13  1  0  0  0  0
 13 14  2  0  0  0  0
 15 16  1  0  0  0  0
 15 25  1  0  0  0  0
 16 21  1  0  0  0  0
 16 17  1  0  0  0  0
 16 26  1  0  0  0  0
 17 18  1  0  0  0  0
 17 27  1  0  0  0  0
 17 28  1  0  0  0  0
 18 19  1  0  0  0  0
 18 29  1  0  0  0  0
 18 30  1  0  0  0  0
 19 20  1  0  0  0  0
 20 21  1  0  0  0  0
 20 31  1  0  0  0  0
 20 32  1  0  0  0  0
 21 33  1  0  0  0  0
 21 34  1  0  0  0  0
M  CHG  1  12  -1
M  END
> <s_m_source_file>
AV-unprocessed.smi

> <i_m_source_file_index>
1524

> <i_lp_mmshare_version>
43012

> <i_f3d_flags>
0

> <s_epik_input>
W0NIMl0xW0NIMl1PW0NIMl1bQ0gyXVtDSF0xW05IXUMoPU8pW05IXWMyW2NIXWMoQyhGKShGKUYpW2NIXVtuSF1jMj1P

> <s_epik_cmdline>
J2VwaWtfcHl0aG9uJywgJy1waCcsICc3LjAnLCAnLXRuJywgJzgnLCAnLW1hJywgJzIwMCcsICctbWV0YWxfYmluZGluZycsICctaW1hZScsICc8aW5maWxlLm1hZT4nLCAnLW9tYWUnLCAnPG91dGZpbGUubWFlPic=

> <r_lp_tautomer_probability>
1

> <r_epik_Ionization_Penalty>
3.17101

> <r_epik_Ionization_Penalty_Charging>
0.175581

> <r_epik_Ionization_Penalty_Neutral>
2.99543

> <r_epik_State_Penalty>
2.99161

> <r_epik_Charging_Adjusted_Penalty>
3.16719

> <i_epik_Tot_Q>
-1

> <i_epik_Tot_abs_Q>
1

> <r_epik_Metal_State_Penalty>
0.453119

> <b_epik_Metal_Only>
1

> <s_lp_Force_Field>
OPLS_2005

> <r_lp_Energy>
32.5819

> <b_lp_Chiralities_Consistent>
1

> <s_lp_Variant>
AV-unprocessed.smi:1524-2

> <Gold.Version>
5.8.1

> <Gold.Id.Protein>
6NUR|6NUR_protein|mol2

> <Gold.PLP.Fitness>
42.4011

> <Gold.PLP.PLP>
-36.5155

> <Gold.PLP.part.hbond>
-2.7805

> <Gold.PLP.part.metal>
0.0000

> <Gold.PLP.part.buried>
-5.9535

> <Gold.PLP.part.nonpolar>
-28.5440

> <Gold.PLP.part.repulsive>
0.3875

> <Gold.PLP.ligand.clash>
0.0000

> <Gold.PLP.ligand.torsion>
0.3266

> <Gold.PLP.Chemscore.Hbond>
2.1784

> <Gold.PLP.Chemscore.CHOScore>
0.0000

> <Gold.PLP.Chemscore.Metal>
0.0000

> <Gold.Chemscore.Hbonds>
donor molecule, donor type, donor heavy atom, donor atom, acceptor molecule, acceptor atom, score
      L1  H     3    22       P1  7948  0.81
      L1  H    15    25       P1  7948  0.84
      P1  H 10785 10796       L1    19  0.51

> <Gold.PLP.Chemscore.Internal.Correction>
0.0036

> <Gold.Rescore>
     Score         DG    S(hbond)    S(metal)    S(lipo)     H(rot)  DE(clash)    DE(int)     intcor
     14.62     -15.79       1.82        0.00      58.11       1.00       0.00       1.17       ----

> <Gold.Chemscore.Fitness>
14.6236

> <Gold.Chemscore.DG>
-15.7917

> <Gold.Chemscore.ZeroCoef>
-5.4800

> <Gold.Chemscore.Hbond>
1.8183

> <Gold.Chemscore.Metal>
0.0000

> <Gold.Chemscore.Lipo>
58.1076

> <Gold.Chemscore.Internal_Hbond>
0.0000

> <Gold.Chemscore.DEClash>
0.0009

> <Gold.Chemscore.DEInternal>
1.1672

> <Gold.Chemscore.Rot>
1.0000

> <Gold.Chemscore.Internal.Correction>
   9.000000E+99

> <Gold.Chemscore.Hbonds>
donor molecule, donor type, donor heavy atom, donor atom, acceptor molecule, acceptor atom, score
      L1  H     3    22       P1  7948  0.30
      L1  H    15    25       P1  7948  0.73
      P1  H 10785 10796       L1    19  0.15

> <Gold.Chemscore.Hbond.Weighted>
-6.0731

> <Gold.Chemscore.Metal.Weighted>
-0.0000

> <Gold.Chemscore.Lipo.Weighted>
-6.7986

> <Gold.Chemscore.Internal_Hbond.Weighted>
0.0000

> <Gold.Chemscore.DEClash.Weighted>
0.0009

> <Gold.Chemscore.DEInternal.Weighted>
1.1672

> <Gold.Chemscore.Rot.Weighted>
2.5600

> <Gold.Chemscore.Internal.Correction.Weighted>
   9.000000E+99

> <Gold.Protein.RotatedTorsions>
[ 6907 6896 6895 6894 ] final  103.46 input  -60.11 | X-H torsion
[ 7974 7965 7964 7962 ] final  -74.42 input  175.53 | X-H torsion
[ 8008 7997 7996 7995 ] final -170.11 input   59.86 | X-H torsion
[ 10167 10162 10161 10158 ] final  137.76 input  -65.29 | X-H torsion
[ 10718 10713 10712 10709 ] final  -18.81 input   66.30 | X-H torsion
[ 10763 10752 10751 10750 ] final   33.56 input  -60.55 | X-H torsion
[ 11005 11000 10999 10996 ] final   67.71 input  -57.11 | X-H torsion

> <Gold.Protein.ActiveResidues>
 VAL166  LYS551  ARG553  GLY616  TRP617  ASP618  TYR619  PRO620  LYS621  CYS622 
 ASP623  PHE694  ASN695  SER759  ASP760  ASP761  ALA762  ILE779  LEU786  VAL792 
 PHE793  MET794  SER795  GLU796  ALA797  LYS798  CYS799  TRP800  GLU811  SER814 

> <Gold.Protein.RotatedAtoms>
  152.5295  133.9823  159.7812 H   0  0  0  0  0  0  0  0  0  0  0  0  # atno 6907 bound_to 6896
  151.0074  133.5989  159.2694 H   0  0  0  0  0  0  0  0  0  0  0  0  # atno 6908 bound_to 6896
  151.3076  135.0792  159.9314 H   0  0  0  0  0  0  0  0  0  0  0  0  # atno 6909 bound_to 6896
  145.6393  140.9315  143.1044 H   0  0  0  0  0  0  0  0  0  0  0  0  # atno 7974 bound_to 7965
  155.9139  140.1062  157.1258 H   0  0  0  0  0  0  0  0  0  0  0  0  # atno 8008 bound_to 7997
  154.4043  140.1269  156.4658 H   0  0  0  0  0  0  0  0  0  0  0  0  # atno 8009 bound_to 7997
  155.7277  140.3469  155.5047 H   0  0  0  0  0  0  0  0  0  0  0  0  # atno 8010 bound_to 7997
  139.5133  144.6391  151.5616 H   0  0  0  0  0  0  0  0  0  0  0  0  # atno 10167 bound_to 10162
  156.5543  130.4709  149.6437 H   0  0  0  0  0  0  0  0  0  0  0  0  # atno 10718 bound_to 10713
  153.0206  135.6383  154.1531 H   0  0  0  0  0  0  0  0  0  0  0  0  # atno 10763 bound_to 10752
  154.1266  135.2843  155.3197 H   0  0  0  0  0  0  0  0  0  0  0  0  # atno 10764 bound_to 10752
  154.6225  135.5520  153.7652 H   0  0  0  0  0  0  0  0  0  0  0  0  # atno 10765 bound_to 10752
  139.9754  134.6830  156.0363 H   0  0  0  0  0  0  0  0  0  0  0  0  # atno 11005 bound_to 11000
  144.7163  139.8185  143.7397 LP  0  0  0  0  0  0  0  0  0  0  0  0  # atno 17320 bound_to 7965
  146.1293  139.4326  143.0178 LP  0  0  0  0  0  0  0  0  0  0  0  0  # atno 17321 bound_to 7965
  140.6152  143.9362  150.6483 LP  0  0  0  0  0  0  0  0  0  0  0  0  # atno 17342 bound_to 10162
  140.2618  143.3518  152.1316 LP  0  0  0  0  0  0  0  0  0  0  0  0  # atno 17343 bound_to 10162
  156.2856  130.7095  151.1931 LP  0  0  0  0  0  0  0  0  0  0  0  0  # atno 17370 bound_to 10713
  157.7381  131.0544  150.5314 LP  0  0  0  0  0  0  0  0  0  0  0  0  # atno 17371 bound_to 10713
  141.1432  133.6561  156.3790 LP  0  0  0  0  0  0  0  0  0  0  0  0  # atno 17394 bound_to 11000
  140.5205  134.6309  157.5316 LP  0  0  0  0  0  0  0  0  0  0  0  0  # atno 17395 bound_to 11000

$$$$
