AV-unprocessed.smi:1521|AV-procd|sdf|6130|dock10
  -GOLD-   22720 6273D 1   1.00000     0.00000
 Structure written by MMmdl.
 36 37  0  0  0  0  0  0  0  0  1 V2000
  145.8659  135.3505  155.1490 O   0  0  0  0  0  0  0  0  0  0  0  0
  146.9295  135.5317  154.5563 C   0  0  0  0  0  0  0  0  0  0  0  0
  148.0782  135.8264  155.1803 N   0  0  0  0  0  0  0  0  0  0  0  0
  148.2395  135.9630  156.6239 C   0  0  0  0  0  0  0  0  0  0  0  0
  148.9367  134.7358  157.2351 C   0  0  2  0  0  0  0  0  0  0  0  0
  150.3591  134.5412  156.6731 C   0  0  0  0  0  0  0  0  0  0  0  0
  150.9318  133.3688  157.2378 O   0  0  0  0  0  0  0  0  0  0  0  0
  150.1596  132.2163  156.9294 C   0  0  0  0  0  0  0  0  0  0  0  0
  148.7379  132.4024  157.4848 C   0  0  0  0  0  0  0  0  0  0  0  0
  148.1715  133.5769  156.9190 O   0  0  0  0  0  0  0  0  0  0  0  0
  147.1140  135.4457  153.2262 N   0  0  0  0  0  0  0  0  0  0  0  0
  146.1704  135.1959  152.2158 C   0  0  0  0  0  0  0  0  0  0  0  0
  145.9378  133.9790  151.6581 C   0  0  0  0  0  0  0  0  0  0  0  0
  144.9323  133.7825  150.6271 C   0  0  0  0  0  0  0  0  0  0  0  0
  144.7347  132.4334  149.9533 C   0  0  0  0  0  0  0  0  0  0  0  0
  143.7827  132.4930  149.0214 F   0  0  0  0  0  0  0  0  0  0  0  0
  145.8616  132.0178  149.3745 F   0  0  0  0  0  0  0  0  0  0  0  0
  144.3734  131.5245  150.8581 F   0  0  0  0  0  0  0  0  0  0  0  0
  144.2454  134.8743  150.2433 C   0  0  0  0  0  0  0  0  0  0  0  0
  144.4631  136.1243  150.8272 N   0  0  0  0  0  0  0  0  0  0  0  0
  145.3783  136.3628  151.7931 C   0  0  0  0  0  0  0  0  0  0  0  0
  145.5086  137.4942  152.2593 O   0  0  0  0  0  0  0  0  0  0  0  0
  143.8953  136.8909  150.4961 H   0  0  0  0  0  0  0  0  0  0  0  0
  148.9075  135.9506  154.6180 H   0  0  0  0  0  0  0  0  0  0  0  0
  148.8241  136.8620  156.8203 H   0  0  0  0  0  0  0  0  0  0  0  0
  147.2667  136.1199  157.0930 H   0  0  0  0  0  0  0  0  0  0  0  0
  148.9913  134.8524  158.3190 H   0  0  0  0  0  0  0  0  0  0  0  0
  150.3447  134.4643  155.5846 H   0  0  0  0  0  0  0  0  0  0  0  0
  150.9880  135.3954  156.9252 H   0  0  0  0  0  0  0  0  0  0  0  0
  150.1375  132.0549  155.8508 H   0  0  0  0  0  0  0  0  0  0  0  0
  150.6305  131.3406  157.3763 H   0  0  0  0  0  0  0  0  0  0  0  0
  148.1148  131.5461  157.2269 H   0  0  0  0  0  0  0  0  0  0  0  0
  148.7508  132.4750  158.5733 H   0  0  0  0  0  0  0  0  0  0  0  0
  148.0651  135.5361  152.8988 H   0  0  0  0  0  0  0  0  0  0  0  0
  146.4817  133.1077  151.9853 H   0  0  0  0  0  0  0  0  0  0  0  0
  143.4918  134.8778  149.4695 H   0  0  0  0  0  0  0  0  0  0  0  0
  1  2  2  0  0  0  0
  2  3  1  0  0  0  0
  2 11  1  0  0  0  0
  3  4  1  0  0  0  0
  3 24  1  0  0  0  0
  4  5  1  0  0  0  0
  4 25  1  0  0  0  0
  4 26  1  0  0  0  0
  5 10  1  0  0  0  0
  5  6  1  0  0  0  0
  5 27  1  0  0  0  0
  6  7  1  0  0  0  0
  6 28  1  0  0  0  0
  6 29  1  0  0  0  0
  7  8  1  0  0  0  0
  8  9  1  0  0  0  0
  8 30  1  0  0  0  0
  8 31  1  0  0  0  0
  9 10  1  0  0  0  0
  9 32  1  0  0  0  0
  9 33  1  0  0  0  0
 11 12  1  0  0  0  0
 11 34  1  0  0  0  0
 12 21  1  0  0  0  0
 12 13  2  0  0  0  0
 13 14  1  0  0  0  0
 13 35  1  0  0  0  0
 14 15  1  0  0  0  0
 14 19  2  0  0  0  0
 15 16  1  0  0  0  0
 15 17  1  0  0  0  0
 15 18  1  0  0  0  0
 19 20  1  0  0  0  0
 19 36  1  0  0  0  0
 20 23  1  0  0  0  0
 20 21  1  0  0  0  0
 21 22  2  0  0  0  0
M  END
> <s_m_source_file>
AV-unprocessed.smi

> <i_m_source_file_index>
1521

> <i_lp_mmshare_version>
43012

> <i_f3d_flags>
0

> <s_epik_input>
Tz1jMVtuSF1bY0hdYyhDKEYpKEYpRilbY0hdYzFbTkhdQyg9TylbTkhdW0NIMl1bQ0BASF0yW0NIMl1PW0NIMl1bQ0gyXU8y

> <s_epik_cmdline>
J2VwaWtfcHl0aG9uJywgJy1waCcsICc3LjAnLCAnLXRuJywgJzgnLCAnLW1hJywgJzIwMCcsICctbWV0YWxfYmluZGluZycsICctaW1hZScsICc8aW5maWxlLm1hZT4nLCAnLW9tYWUnLCAnPG91dGZpbGUubWFlPic=

> <r_lp_tautomer_probability>
1

> <r_epik_Ionization_Penalty>
0.00396636

> <r_epik_Ionization_Penalty_Charging>
0.00394789

> <r_epik_Ionization_Penalty_Neutral>
1.84676e-05

> <r_epik_State_Penalty>
-0

> <r_epik_Charging_Adjusted_Penalty>
0.00394789

> <i_epik_Tot_Q>
0

> <i_epik_Tot_abs_Q>
0

> <r_epik_Metal_State_Penalty>
0.372669

> <b_epik_Metal_Only>
0

> <s_lp_Force_Field>
OPLS_2005

> <r_lp_Energy>
18.8562

> <b_lp_Chiralities_Consistent>
1

> <s_lp_Variant>
AV-unprocessed.smi:1521-1

> <Gold.Version>
5.8.1

> <Gold.Id.Protein>
6NUR|6NUR_protein|mol2

> <Gold.PLP.Fitness>
39.0925

> <Gold.PLP.PLP>
-31.0712

> <Gold.PLP.part.hbond>
-2.6387

> <Gold.PLP.part.metal>
0.0000

> <Gold.PLP.part.buried>
-3.3364

> <Gold.PLP.part.nonpolar>
-25.2555

> <Gold.PLP.part.repulsive>
0.3166

> <Gold.PLP.ligand.clash>
1.2208

> <Gold.PLP.ligand.torsion>
0.8542

> <Gold.PLP.Chemscore.Hbond>
2.6320

> <Gold.PLP.Chemscore.CHOScore>
1.0000

> <Gold.PLP.Chemscore.Metal>
0.0000

> <Gold.Chemscore.Hbonds>
donor molecule, donor type, donor heavy atom, donor atom, acceptor molecule, acceptor atom, score
      L1  H    11    34       P1  7948  0.86
      L1  H    20    23       P1 10171  0.94
      P1  H  6896  6909       L1     7  0.80
      L1  C    19    36       P1 10186  1.00

> <Gold.PLP.Chemscore.Internal.Correction>
0.0545

> <Gold.Rescore>
     Score         DG    S(hbond)    S(metal)    S(lipo)     H(rot)  DE(clash)    DE(int)     intcor
     14.74     -15.76       2.65        0.00      42.34       1.37       0.06       0.96       ----

> <Gold.Chemscore.Fitness>
14.7374

> <Gold.Chemscore.DG>
-15.7612

> <Gold.Chemscore.ZeroCoef>
-5.4800

> <Gold.Chemscore.Hbond>
2.6478

> <Gold.Chemscore.Metal>
0.0000

> <Gold.Chemscore.Lipo>
42.3396

> <Gold.Chemscore.Internal_Hbond>
0.0000

> <Gold.Chemscore.DEClash>
0.0611

> <Gold.Chemscore.DEInternal>
0.9627

> <Gold.Chemscore.Rot>
1.3735

> <Gold.Chemscore.Internal.Correction>
   9.000000E+99

> <Gold.Chemscore.Hbonds>
donor molecule, donor type, donor heavy atom, donor atom, acceptor molecule, acceptor atom, score
      L1  H    11    34       P1  7948  0.79
      L1  H    20    23       P1 10171  0.92
      P1  H  6896  6909       L1     7  0.45

> <Gold.Chemscore.Hbond.Weighted>
-8.8436

> <Gold.Chemscore.Metal.Weighted>
-0.0000

> <Gold.Chemscore.Lipo.Weighted>
-4.9537

> <Gold.Chemscore.Internal_Hbond.Weighted>
0.0000

> <Gold.Chemscore.DEClash.Weighted>
0.0611

> <Gold.Chemscore.DEInternal.Weighted>
0.9627

> <Gold.Chemscore.Rot.Weighted>
3.5162

> <Gold.Chemscore.Internal.Correction.Weighted>
   9.000000E+99

> <Gold.Protein.RotatedTorsions>
[ 6907 6896 6895 6894 ] final  -24.54 input  -60.11 | X-H torsion
[ 7974 7965 7964 7962 ] final   20.97 input  175.53 | X-H torsion
[ 8008 7997 7996 7995 ] final -178.82 input   59.86 | X-H torsion
[ 10167 10162 10161 10158 ] final   41.62 input  -65.29 | X-H torsion
[ 10718 10713 10712 10709 ] final -160.21 input   66.30 | X-H torsion
[ 10763 10752 10751 10750 ] final   -1.92 input  -60.55 | X-H torsion
[ 11005 11000 10999 10996 ] final  -63.64 input  -57.11 | X-H torsion

> <Gold.Protein.ActiveResidues>
 VAL166  LYS551  ARG553  GLY616  TRP617  ASP618  TYR619  PRO620  LYS621  CYS622 
 ASP623  PHE694  ASN695  SER759  ASP760  ASP761  ALA762  ILE779  LEU786  VAL792 
 PHE793  MET794  SER795  GLU796  ALA797  LYS798  CYS799  TRP800  GLU811  SER814 

> <Gold.Protein.RotatedAtoms>
  151.1880  135.0390  159.8820 H   0  0  0  0  0  0  0  0  0  0  0  0  # atno 6907 bound_to 6896
  152.5441  134.0988  159.8319 H   0  0  0  0  0  0  0  0  0  0  0  0  # atno 6908 bound_to 6896
  151.1113  133.5124  159.2638 H   0  0  0  0  0  0  0  0  0  0  0  0  # atno 6909 bound_to 6896
  146.2090  139.8094  142.8703 H   0  0  0  0  0  0  0  0  0  0  0  0  # atno 7974 bound_to 7965
  156.0233  140.1266  157.0335 H   0  0  0  0  0  0  0  0  0  0  0  0  # atno 8008 bound_to 7997
  154.4320  140.1064  156.6065 H   0  0  0  0  0  0  0  0  0  0  0  0  # atno 8009 bound_to 7997
  155.5913  140.3469  155.4569 H   0  0  0  0  0  0  0  0  0  0  0  0  # atno 8010 bound_to 7997
  140.3626  144.2209  150.6137 H   0  0  0  0  0  0  0  0  0  0  0  0  # atno 10167 bound_to 10162
  156.5789  130.8721  151.2859 H   0  0  0  0  0  0  0  0  0  0  0  0  # atno 10718 bound_to 10713
  153.3512  135.6986  153.6787 H   0  0  0  0  0  0  0  0  0  0  0  0  # atno 10763 bound_to 10752
  153.5512  135.3553  155.2761 H   0  0  0  0  0  0  0  0  0  0  0  0  # atno 10764 bound_to 10752
  154.8653  135.4227  154.2748 H   0  0  0  0  0  0  0  0  0  0  0  0  # atno 10765 bound_to 10752
  141.1399  133.6654  156.5711 H   0  0  0  0  0  0  0  0  0  0  0  0  # atno 11005 bound_to 11000
  145.3212  141.0244  143.3499 LP  0  0  0  0  0  0  0  0  0  0  0  0  # atno 17320 bound_to 7965
  144.8865  139.4832  143.6698 LP  0  0  0  0  0  0  0  0  0  0  0  0  # atno 17321 bound_to 7965
  140.5112  143.2290  151.8532 LP  0  0  0  0  0  0  0  0  0  0  0  0  # atno 17342 bound_to 10162
  139.4812  144.4947  151.9139 LP  0  0  0  0  0  0  0  0  0  0  0  0  # atno 17343 bound_to 10162
  157.7331  130.9725  150.1962 LP  0  0  0  0  0  0  0  0  0  0  0  0  # atno 17370 bound_to 10713
  156.2649  130.3715  149.8091 LP  0  0  0  0  0  0  0  0  0  0  0  0  # atno 17371 bound_to 10713
  140.3912  134.7438  157.4723 LP  0  0  0  0  0  0  0  0  0  0  0  0  # atno 17394 bound_to 11000
  140.0565  134.6057  155.8799 LP  0  0  0  0  0  0  0  0  0  0  0  0  # atno 17395 bound_to 11000

$$$$
