AV-unprocessed.smi:886|AV-procd|sdf|4049|dock10
  -GOLD-   22720 1533D 1   1.00000     0.00000
 Structure written by MMmdl.
 35 37  0  0  0  0  0  0  0  0  1 V2000
  146.3446  142.8634  153.9974 C   0  0  0  0  0  0  0  0  0  0  0  0
  147.5823  142.1123  154.1387 N   0  0  0  0  0  0  0  0  0  0  0  0
  147.9291  141.4309  155.2413 C   0  0  0  0  0  0  0  0  0  0  0  0
  147.2178  141.3625  156.2445 O   0  0  0  0  0  0  0  0  0  0  0  0
  149.2518  140.7122  155.1638 C   0  0  0  0  0  0  0  0  0  0  0  0
  149.3422  139.4960  154.4466 C   0  0  0  0  0  0  0  0  0  0  0  0
  150.5811  138.8388  154.3447 C   0  0  0  0  0  0  0  0  0  0  0  0
  151.6977  139.4270  154.9624 C   0  0  0  0  0  0  0  0  0  0  0  0
  151.6344  140.5868  155.6466 N   0  0  0  0  0  0  0  0  0  0  0  0
  150.4443  141.2278  155.7501 C   0  0  0  0  0  0  0  0  0  0  0  0
  150.4246  142.4221  156.4932 N   0  0  0  0  0  0  0  0  0  0  0  0
  151.5437  142.7882  157.3548 C   0  0  1  0  0  0  0  0  0  0  0  0
  151.7164  144.3059  157.5000 C   0  0  0  0  0  0  0  0  0  0  0  0
  151.6333  144.4918  159.0201 C   0  0  2  0  0  0  0  0  0  0  0  0
  152.8547  143.9105  159.7448 C   0  0  0  0  0  0  0  0  0  0  0  0
  152.6026  142.4079  159.6249 C   0  0  0  0  0  0  0  0  0  0  0  0
  151.2997  142.3693  158.8145 C   0  0  1  0  0  0  0  0  0  0  0  0
  150.6532  143.5195  159.3360 O   0  0  0  0  0  0  0  0  0  0  0  0
  146.2938  143.3137  153.0061 H   0  0  0  0  0  0  0  0  0  0  0  0
  146.2884  143.6618  154.7386 H   0  0  0  0  0  0  0  0  0  0  0  0
  145.4786  142.2117  154.1204 H   0  0  0  0  0  0  0  0  0  0  0  0
  148.2132  142.1068  153.3502 H   0  0  0  0  0  0  0  0  0  0  0  0
  148.4741  139.0662  153.9679 H   0  0  0  0  0  0  0  0  0  0  0  0
  150.6736  137.9097  153.8020 H   0  0  0  0  0  0  0  0  0  0  0  0
  152.6675  138.9553  154.9055 H   0  0  0  0  0  0  0  0  0  0  0  0
  149.8476  143.1761  156.1476 H   0  0  0  0  0  0  0  0  0  0  0  0
  152.4544  142.3144  156.9856 H   0  0  0  0  0  0  0  0  0  0  0  0
  152.6612  144.6609  157.0875 H   0  0  0  0  0  0  0  0  0  0  0  0
  150.9084  144.8525  157.0112 H   0  0  0  0  0  0  0  0  0  0  0  0
  151.3755  145.5055  159.3279 H   0  0  0  0  0  0  0  0  0  0  0  0
  153.7941  144.2215  159.2867 H   0  0  0  0  0  0  0  0  0  0  0  0
  152.8663  144.2136  160.7924 H   0  0  0  0  0  0  0  0  0  0  0  0
  153.4180  141.8783  159.1309 H   0  0  0  0  0  0  0  0  0  0  0  0
  152.4569  141.9659  160.6112 H   0  0  0  0  0  0  0  0  0  0  0  0
  150.7416  141.4396  158.9319 H   0  0  0  0  0  0  0  0  0  0  0  0
  1  2  1  0  0  0  0
  1 19  1  0  0  0  0
  1 20  1  0  0  0  0
  1 21  1  0  0  0  0
  2  3  1  0  0  0  0
  2 22  1  0  0  0  0
  3  4  2  0  0  0  0
  3  5  1  0  0  0  0
  5 10  1  0  0  0  0
  5  6  2  0  0  0  0
  6  7  1  0  0  0  0
  6 23  1  0  0  0  0
  7  8  2  0  0  0  0
  7 24  1  0  0  0  0
  8  9  1  0  0  0  0
  8 25  1  0  0  0  0
  9 10  2  0  0  0  0
 10 11  1  0  0  0  0
 11 12  1  0  0  0  0
 11 26  1  0  0  0  0
 12 17  1  0  0  0  0
 12 13  1  0  0  0  0
 12 27  1  0  0  0  0
 13 14  1  0  0  0  0
 13 28  1  0  0  0  0
 13 29  1  0  0  0  0
 14 18  1  0  0  0  0
 14 15  1  0  0  0  0
 14 30  1  0  0  0  0
 15 16  1  0  0  0  0
 15 31  1  0  0  0  0
 15 32  1  0  0  0  0
 16 17  1  0  0  0  0
 16 33  1  0  0  0  0
 16 34  1  0  0  0  0
 17 18  1  0  0  0  0
 17 35  1  0  0  0  0
M  END
> <s_m_source_file>
AV-unprocessed.smi

> <i_m_source_file_index>
886

> <i_lp_mmshare_version>
43012

> <i_f3d_flags>
0

> <s_epik_input>
W0NIM11bTkhdQyg9TyljMVtjSF1bY0hdW2NIXW5jMVtOSF1bQ0BIXShbQ0gyXVtDQEhdMjMpW0NASF0oTzMpW0NIMl1bQ0gyXTI=

> <s_epik_cmdline>
J2VwaWtfcHl0aG9uJywgJy1waCcsICc3LjAnLCAnLXRuJywgJzgnLCAnLW1hJywgJzIwMCcsICctbWV0YWxfYmluZGluZycsICctaW1hZScsICc8aW5maWxlLm1hZT4nLCAnLW9tYWUnLCAnPG91dGZpbGUubWFlPic=

> <r_lp_tautomer_probability>
1

> <r_epik_Ionization_Penalty>
0.0065447

> <r_epik_Ionization_Penalty_Charging>
0

> <r_epik_Ionization_Penalty_Neutral>
0.0065447

> <r_epik_State_Penalty>
0.00484214

> <r_epik_Charging_Adjusted_Penalty>
0.00484214

> <i_epik_Tot_Q>
0

> <i_epik_Tot_abs_Q>
0

> <r_epik_Metal_State_Penalty>
-0

> <b_epik_Metal_Only>
0

> <s_lp_Force_Field>
OPLS_2005

> <r_lp_Energy>
46.3803

> <b_lp_Chiralities_Consistent>
1

> <s_lp_Variant>
AV-unprocessed.smi:886-2

> <Gold.Version>
5.8.1

> <Gold.Id.Protein>
6NUR|6NUR_protein|mol2

> <Gold.PLP.Fitness>
41.3590

> <Gold.PLP.PLP>
-42.0287

> <Gold.PLP.part.hbond>
-2.4595

> <Gold.PLP.part.metal>
0.0000

> <Gold.PLP.part.buried>
-5.5940

> <Gold.PLP.part.nonpolar>
-34.8639

> <Gold.PLP.part.repulsive>
0.3830

> <Gold.PLP.ligand.clash>
0.0000

> <Gold.PLP.ligand.torsion>
1.8469

> <Gold.PLP.Chemscore.Hbond>
1.0000

> <Gold.PLP.Chemscore.CHOScore>
0.0000

> <Gold.PLP.Chemscore.Metal>
0.0000

> <Gold.Chemscore.Hbonds>
donor molecule, donor type, donor heavy atom, donor atom, acceptor molecule, acceptor atom, score
      L1  H    11    26       P1  8028  1.00

> <Gold.PLP.Chemscore.Internal.Correction>
0.0242

> <Gold.Rescore>
     Score         DG    S(hbond)    S(metal)    S(lipo)     H(rot)  DE(clash)    DE(int)     intcor
     16.77     -18.50       0.98        0.00     105.11       1.00       0.11       1.61       ----

> <Gold.Chemscore.Fitness>
16.7716

> <Gold.Chemscore.DG>
-18.4983

> <Gold.Chemscore.ZeroCoef>
-5.4800

> <Gold.Chemscore.Hbond>
0.9822

> <Gold.Chemscore.Metal>
0.0000

> <Gold.Chemscore.Lipo>
105.1097

> <Gold.Chemscore.Internal_Hbond>
0.0000

> <Gold.Chemscore.DEClash>
0.1133

> <Gold.Chemscore.DEInternal>
1.6134

> <Gold.Chemscore.Rot>
1.0000

> <Gold.Chemscore.Internal.Correction>
   9.000000E+99

> <Gold.Chemscore.Hbonds>
donor molecule, donor type, donor heavy atom, donor atom, acceptor molecule, acceptor atom, score
      L1  H    11    26       P1  8028  1.00

> <Gold.Chemscore.Hbond.Weighted>
-3.2805

> <Gold.Chemscore.Metal.Weighted>
-0.0000

> <Gold.Chemscore.Lipo.Weighted>
-12.2978

> <Gold.Chemscore.Internal_Hbond.Weighted>
0.0000

> <Gold.Chemscore.DEClash.Weighted>
0.1133

> <Gold.Chemscore.DEInternal.Weighted>
1.6134

> <Gold.Chemscore.Rot.Weighted>
2.5600

> <Gold.Chemscore.Internal.Correction.Weighted>
   9.000000E+99

> <Gold.Protein.RotatedTorsions>
[ 6907 6896 6895 6894 ] final   41.23 input  -60.11 | X-H torsion
[ 7974 7965 7964 7962 ] final -133.25 input  175.53 | X-H torsion
[ 8008 7997 7996 7995 ] final  -36.56 input   59.86 | X-H torsion
[ 10167 10162 10161 10158 ] final  -68.08 input  -65.29 | X-H torsion
[ 10718 10713 10712 10709 ] final  179.98 input   66.30 | X-H torsion
[ 10763 10752 10751 10750 ] final -133.85 input  -60.55 | X-H torsion
[ 11005 11000 10999 10996 ] final   48.89 input  -57.11 | X-H torsion

> <Gold.Protein.ActiveResidues>
 VAL166  LYS551  ARG553  GLY616  TRP617  ASP618  TYR619  PRO620  LYS621  CYS622 
 ASP623  PHE694  ASN695  SER759  ASP760  ASP761  ALA762  ILE779  LEU786  VAL792 
 PHE793  MET794  SER795  GLU796  ALA797  LYS798  CYS799  TRP800  GLU811  SER814 

> <Gold.Protein.RotatedAtoms>
  152.1927  134.8658  160.0515 H   0  0  0  0  0  0  0  0  0  0  0  0  # atno 6907 bound_to 6896
  151.9541  133.3670  159.4019 H   0  0  0  0  0  0  0  0  0  0  0  0  # atno 6908 bound_to 6896
  150.6938  134.4233  159.5259 H   0  0  0  0  0  0  0  0  0  0  0  0  # atno 6909 bound_to 6896
  144.9210  140.7014  143.4965 H   0  0  0  0  0  0  0  0  0  0  0  0  # atno 7974 bound_to 7965
  154.4071  140.1627  156.2393 H   0  0  0  0  0  0  0  0  0  0  0  0  # atno 8008 bound_to 7997
  155.9215  140.3421  155.6153 H   0  0  0  0  0  0  0  0  0  0  0  0  # atno 8009 bound_to 7997
  155.7217  140.0769  157.2318 H   0  0  0  0  0  0  0  0  0  0  0  0  # atno 8010 bound_to 7997
  140.5534  143.2312  151.6867 H   0  0  0  0  0  0  0  0  0  0  0  0  # atno 10167 bound_to 10162
  156.8677  130.9773  151.3076 H   0  0  0  0  0  0  0  0  0  0  0  0  # atno 10718 bound_to 10713
  154.8727  135.3753  154.4639 H   0  0  0  0  0  0  0  0  0  0  0  0  # atno 10763 bound_to 10752
  153.5305  135.7028  153.5691 H   0  0  0  0  0  0  0  0  0  0  0  0  # atno 10764 bound_to 10752
  153.3897  135.3975  155.1880 H   0  0  0  0  0  0  0  0  0  0  0  0  # atno 10765 bound_to 10752
  140.1151  134.4903  155.8644 H   0  0  0  0  0  0  0  0  0  0  0  0  # atno 11005 bound_to 11000
  145.3296  139.1763  143.4544 LP  0  0  0  0  0  0  0  0  0  0  0  0  # atno 17320 bound_to 7965
  146.3204  140.3324  142.8641 LP  0  0  0  0  0  0  0  0  0  0  0  0  # atno 17321 bound_to 7965
  139.5037  144.3780  152.0404 LP  0  0  0  0  0  0  0  0  0  0  0  0  # atno 17342 bound_to 10162
  140.2900  144.3765  150.6091 LP  0  0  0  0  0  0  0  0  0  0  0  0  # atno 17343 bound_to 10162
  157.6214  130.8658  149.9114 LP  0  0  0  0  0  0  0  0  0  0  0  0  # atno 17370 bound_to 10713
  156.0743  130.3681  150.0711 LP  0  0  0  0  0  0  0  0  0  0  0  0  # atno 17371 bound_to 10713
  141.2139  133.6740  156.6780 LP  0  0  0  0  0  0  0  0  0  0  0  0  # atno 17394 bound_to 11000
  140.3039  134.8141  157.4121 LP  0  0  0  0  0  0  0  0  0  0  0  0  # atno 17395 bound_to 11000

$$$$
