AV-unprocessed.smi:2042|AV-procd|sdf|8294|dock10
  -GOLD-   2272010563D 1   1.00000     0.00000
 Structure written by MMmdl.
 30 31  0  0  0  0  0  0  0  0  1 V2000
  144.6474  137.0056  152.3668 O   0  0  0  0  0  0  0  0  0  0  0  0
  145.8083  136.6522  152.1738 C   0  0  0  0  0  0  0  0  0  0  0  0
  146.1751  135.4556  151.6739 N   0  0  0  0  0  0  0  0  0  0  0  0
  145.3597  134.3458  151.3213 C   0  0  0  0  0  0  0  0  0  0  0  0
  145.8326  133.1727  150.6841 C   0  0  0  0  0  0  0  0  0  0  0  0
  144.9143  132.1521  150.3701 C   0  0  0  0  0  0  0  0  0  0  0  0
  143.5581  132.3425  150.6977 C   0  0  0  0  0  0  0  0  0  0  0  0
  143.0914  133.4594  151.2943 N   0  0  0  0  0  0  0  0  0  0  0  0
  143.9775  134.4338  151.5915 C   0  0  0  0  0  0  0  0  0  0  0  0
  146.8358  137.4819  152.4298 N   0  0  0  0  0  0  0  0  0  0  0  0
  146.7932  138.8412  152.9713 C   0  0  2  0  0  0  0  0  0  0  0  0
  146.7840  139.8852  151.8389 C   0  0  0  0  0  0  0  0  0  0  0  0
  147.0988  141.2623  152.4364 C   0  0  0  0  0  0  0  0  0  0  0  0
  148.1997  140.9547  153.8695 S   0  0  0  0  0  0  0  0  0  0  0  0
  149.5856  141.2902  153.5090 O   0  0  0  0  0  0  0  0  0  0  0  0
  147.5750  141.5129  155.0784 O   0  0  0  0  0  0  0  0  0  0  0  0
  148.0059  139.1330  153.8700 C   0  0  0  0  0  0  0  0  0  0  0  0
  147.1608  135.3405  151.4889 H   0  0  0  0  0  0  0  0  0  0  0  0
  146.8689  133.0380  150.4175 H   0  0  0  0  0  0  0  0  0  0  0  0
  145.2424  131.2453  149.8841 H   0  0  0  0  0  0  0  0  0  0  0  0
  142.8282  131.5797  150.4694 H   0  0  0  0  0  0  0  0  0  0  0  0
  143.5674  135.3144  152.0644 H   0  0  0  0  0  0  0  0  0  0  0  0
  147.7551  137.1350  152.1965 H   0  0  0  0  0  0  0  0  0  0  0  0
  145.8803  138.9868  153.5518 H   0  0  0  0  0  0  0  0  0  0  0  0
  147.5596  139.6358  151.1131 H   0  0  0  0  0  0  0  0  0  0  0  0
  145.8358  139.8912  151.3002 H   0  0  0  0  0  0  0  0  0  0  0  0
  147.5805  141.9347  151.7264 H   0  0  0  0  0  0  0  0  0  0  0  0
  146.1911  141.7391  152.8070 H   0  0  0  0  0  0  0  0  0  0  0  0
  147.8835  138.7697  154.8905 H   0  0  0  0  0  0  0  0  0  0  0  0
  148.9181  138.7025  153.4547 H   0  0  0  0  0  0  0  0  0  0  0  0
  1  2  2  0  0  0  0
  2  3  1  0  0  0  0
  2 10  1  0  0  0  0
  3  4  1  0  0  0  0
  3 18  1  0  0  0  0
  4  9  1  0  0  0  0
  4  5  2  0  0  0  0
  5  6  1  0  0  0  0
  5 19  1  0  0  0  0
  6  7  2  0  0  0  0
  6 20  1  0  0  0  0
  7  8  1  0  0  0  0
  7 21  1  0  0  0  0
  8  9  2  0  0  0  0
  9 22  1  0  0  0  0
 10 11  1  0  0  0  0
 10 23  1  0  0  0  0
 11 17  1  0  0  0  0
 11 12  1  0  0  0  0
 11 24  1  0  0  0  0
 12 13  1  0  0  0  0
 12 25  1  0  0  0  0
 12 26  1  0  0  0  0
 13 14  1  0  0  0  0
 13 27  1  0  0  0  0
 13 28  1  0  0  0  0
 14 15  2  0  0  0  0
 14 16  2  0  0  0  0
 14 17  1  0  0  0  0
 17 29  1  0  0  0  0
 17 30  1  0  0  0  0
M  END
> <s_m_source_file>
AV-unprocessed.smi

> <i_m_source_file_index>
2042

> <i_lp_mmshare_version>
43012

> <i_f3d_flags>
0

> <s_epik_input>
Tz1TMSg9TylbQ0gyXVtDSDJdW0NASF0oW0NIMl0xKVtOSF1DKD1PKVtOSF1jMltjSF1bY0hdW2NIXW5bY0hdMg==

> <s_epik_cmdline>
J2VwaWtfcHl0aG9uJywgJy1waCcsICc3LjAnLCAnLXRuJywgJzgnLCAnLW1hJywgJzIwMCcsICctbWV0YWxfYmluZGluZycsICctaW1hZScsICc8aW5maWxlLm1hZT4nLCAnLW9tYWUnLCAnPG91dGZpbGUubWFlPic=

> <r_epik_Ionization_Penalty>
0.00421056

> <r_epik_Ionization_Penalty_Charging>
0

> <r_epik_Ionization_Penalty_Neutral>
0.00421056

> <r_epik_State_Penalty>
0.00300625

> <r_epik_Charging_Adjusted_Penalty>
0.00300625

> <i_epik_Tot_Q>
0

> <i_epik_Tot_abs_Q>
0

> <r_epik_Metal_State_Penalty>
-0

> <b_epik_Metal_Only>
0

> <s_lp_Force_Field>
OPLS_2005

> <r_lp_Energy>
18.6302

> <b_lp_Chiralities_Consistent>
1

> <s_lp_Variant>
AV-unprocessed.smi:2042-1

> <Gold.Version>
5.8.1

> <Gold.Id.Protein>
6NUR|6NUR_protein|mol2

> <Gold.PLP.Fitness>
37.1536

> <Gold.PLP.PLP>
-25.7715

> <Gold.PLP.part.hbond>
-3.9186

> <Gold.PLP.part.metal>
0.0000

> <Gold.PLP.part.buried>
-2.9811

> <Gold.PLP.part.nonpolar>
-20.8812

> <Gold.PLP.part.repulsive>
2.7522

> <Gold.PLP.ligand.clash>
0.0000

> <Gold.PLP.ligand.torsion>
0.3631

> <Gold.PLP.Chemscore.Hbond>
3.0359

> <Gold.PLP.Chemscore.CHOScore>
1.0000

> <Gold.PLP.Chemscore.Metal>
0.0000

> <Gold.Chemscore.Hbonds>
donor molecule, donor type, donor heavy atom, donor atom, acceptor molecule, acceptor atom, score
      L1  H     3    18       P1  7948  0.85
      L1  H    10    23       P1  7948  0.98
      P1  H  7989  7998       L1    15  0.14
      P1  H  8011  8017       L1    15  0.94
      L1  C     7    21       P1 10952  1.00

> <Gold.PLP.Chemscore.Internal.Correction>
0.0005

> <Gold.Rescore>
     Score         DG    S(hbond)    S(metal)    S(lipo)     H(rot)  DE(clash)    DE(int)     intcor
     16.09     -19.43       2.66        0.00      65.11       1.00       1.54       1.80       ----

> <Gold.Chemscore.Fitness>
16.0931

> <Gold.Chemscore.DG>
-19.4317

> <Gold.Chemscore.ZeroCoef>
-5.4800

> <Gold.Chemscore.Hbond>
2.6630

> <Gold.Chemscore.Metal>
0.0000

> <Gold.Chemscore.Lipo>
65.1054

> <Gold.Chemscore.Internal_Hbond>
0.0000

> <Gold.Chemscore.DEClash>
1.5424

> <Gold.Chemscore.DEInternal>
1.7961

> <Gold.Chemscore.Rot>
1.0000

> <Gold.Chemscore.Internal.Correction>
   9.000000E+99

> <Gold.Chemscore.Hbonds>
donor molecule, donor type, donor heavy atom, donor atom, acceptor molecule, acceptor atom, score
      L1  H     3    18       P1  7948  0.77
      L1  H    10    23       P1  7948  0.92
      P1  H  7989  7998       L1    15  0.14
      P1  H  8011  8017       L1    15  0.87

> <Gold.Chemscore.Hbond.Weighted>
-8.8944

> <Gold.Chemscore.Metal.Weighted>
-0.0000

> <Gold.Chemscore.Lipo.Weighted>
-7.6173

> <Gold.Chemscore.Internal_Hbond.Weighted>
0.0000

> <Gold.Chemscore.DEClash.Weighted>
1.5424

> <Gold.Chemscore.DEInternal.Weighted>
1.7961

> <Gold.Chemscore.Rot.Weighted>
2.5600

> <Gold.Chemscore.Internal.Correction.Weighted>
   9.000000E+99

> <Gold.Protein.RotatedTorsions>
[ 6907 6896 6895 6894 ] final  161.19 input  -60.11 | X-H torsion
[ 7974 7965 7964 7962 ] final   18.34 input  175.53 | X-H torsion
[ 8008 7997 7996 7995 ] final -177.52 input   59.86 | X-H torsion
[ 10167 10162 10161 10158 ] final  -40.90 input  -65.29 | X-H torsion
[ 10718 10713 10712 10709 ] final  120.09 input   66.30 | X-H torsion
[ 10763 10752 10751 10750 ] final    4.11 input  -60.55 | X-H torsion
[ 11005 11000 10999 10996 ] final    6.35 input  -57.11 | X-H torsion

> <Gold.Protein.ActiveResidues>
 VAL166  LYS551  ARG553  GLY616  TRP617  ASP618  TYR619  PRO620  LYS621  CYS622 
 ASP623  PHE694  ASN695  SER759  ASP760  ASP761  ALA762  ILE779  LEU786  VAL792 
 PHE793  MET794  SER795  GLU796  ALA797  LYS798  CYS799  TRP800  GLU811  SER814 

> <Gold.Protein.RotatedAtoms>
  151.9593  133.3690  159.4028 H   0  0  0  0  0  0  0  0  0  0  0  0  # atno 6907 bound_to 6896
  150.6967  134.4257  159.5235 H   0  0  0  0  0  0  0  0  0  0  0  0  # atno 6908 bound_to 6896
  152.1944  134.8644  160.0565 H   0  0  0  0  0  0  0  0  0  0  0  0  # atno 6909 bound_to 6896
  146.2188  139.8471  142.8630 H   0  0  0  0  0  0  0  0  0  0  0  0  # atno 7974 bound_to 7965
  156.0079  140.1234  157.0483 H   0  0  0  0  0  0  0  0  0  0  0  0  # atno 8008 bound_to 7997
  154.4265  140.1093  156.5858 H   0  0  0  0  0  0  0  0  0  0  0  0  # atno 8009 bound_to 7997
  155.6120  140.3471  155.4627 H   0  0  0  0  0  0  0  0  0  0  0  0  # atno 8010 bound_to 7997
  140.7020  143.3126  151.2990 H   0  0  0  0  0  0  0  0  0  0  0  0  # atno 10167 bound_to 10162
  157.5915  131.1063  150.7987 H   0  0  0  0  0  0  0  0  0  0  0  0  # atno 10718 bound_to 10713
  153.2752  135.6936  153.7440 H   0  0  0  0  0  0  0  0  0  0  0  0  # atno 10763 bound_to 10752
  153.6449  135.3387  155.3083 H   0  0  0  0  0  0  0  0  0  0  0  0  # atno 10764 bound_to 10752
  154.8477  135.4440  154.1787 H   0  0  0  0  0  0  0  0  0  0  0  0  # atno 10765 bound_to 10752
  140.5604  134.0198  155.7969 H   0  0  0  0  0  0  0  0  0  0  0  0  # atno 11005 bound_to 11000
  145.2839  141.0147  143.3701 LP  0  0  0  0  0  0  0  0  0  0  0  0  # atno 17320 bound_to 7965
  144.9128  139.4507  143.6578 LP  0  0  0  0  0  0  0  0  0  0  0  0  # atno 17321 bound_to 7965
  139.6554  144.0286  152.2656 LP  0  0  0  0  0  0  0  0  0  0  0  0  # atno 17342 bound_to 10162
  139.9836  144.6411  150.7878 LP  0  0  0  0  0  0  0  0  0  0  0  0  # atno 17343 bound_to 10162
  156.8408  130.5047  149.5321 LP  0  0  0  0  0  0  0  0  0  0  0  0  # atno 17370 bound_to 10713
  156.0971  130.5940  150.9832 LP  0  0  0  0  0  0  0  0  0  0  0  0  # atno 17371 bound_to 10713
  141.1118  133.9604  157.2896 LP  0  0  0  0  0  0  0  0  0  0  0  0  # atno 17394 bound_to 11000
  139.9410  135.0191  156.8709 LP  0  0  0  0  0  0  0  0  0  0  0  0  # atno 17395 bound_to 11000

$$$$
