AV-unprocessed.smi:45|AV-procd|sdf|415|dock1
  -GOLD-   2262016283D 1   1.00000     0.00000
 Structure written by MMmdl.
 60 63  0  0  0  0  0  0  0  0  3 V2000
  151.1294  142.3114  156.9971 C   0  0  0  0  0  0  0  0  0  0  0  0
  151.4774  141.3476  156.0140 O   0  0  0  0  0  0  0  0  0  0  0  0
  150.4759  140.5533  155.4949 C   0  0  0  0  0  0  0  0  0  0  0  0
  149.1100  140.9327  155.4532 C   0  0  0  0  0  0  0  0  0  0  0  0
  148.1433  140.0680  154.9050 C   0  0  0  0  0  0  0  0  0  0  0  0
  148.5226  138.8127  154.3900 C   0  0  0  0  0  0  0  0  0  0  0  0
  147.4812  137.8845  153.7980 C   0  0  0  0  0  0  0  0  0  0  0  0
  146.3856  137.5996  154.7129 N   0  0  0  0  0  0  0  0  0  0  0  0
  145.7810  136.3317  154.7643 C   0  0  0  0  0  0  0  0  0  0  0  0
  145.6742  135.6369  153.6088 N   0  0  0  0  0  0  0  0  0  0  0  0
  145.1185  134.4182  153.5963 C   0  0  0  0  0  0  0  0  0  0  0  0
  145.0301  133.7203  152.3926 N   0  0  0  0  0  0  0  0  0  0  0  0
  145.0664  132.2623  152.3565 C   0  0  0  0  0  0  0  0  0  0  0  0
  145.7579  131.8908  151.0457 C   0  0  0  0  0  0  0  0  0  0  0  0
  145.4099  133.0602  150.1341 C   0  0  0  0  0  0  0  0  0  0  0  0
  145.4033  134.2656  151.0859 C   0  0  1  0  0  0  0  0  0  0  0  0
  144.4670  135.3947  150.6053 C   0  0  0  0  0  0  0  0  0  0  0  0
  145.0098  136.0183  149.4606 O   0  0  0  0  0  0  0  0  0  0  0  0
  144.6529  133.8391  154.7139 N   0  3  0  0  0  0  0  0  0  0  0  0
  144.7360  134.4915  155.8987 C   0  0  0  0  0  0  0  0  0  0  0  0
  145.3121  135.7782  155.9816 C   0  0  0  0  0  0  0  0  0  0  0  0
  145.3722  136.5092  157.2991 C   0  0  0  0  0  0  0  0  0  0  0  0
  145.6199  137.7199  157.2907 O   0  0  0  0  0  0  0  0  0  0  0  0
  145.1534  135.6719  158.3510 N   0  5  0  0  0  0  0  0  0  0  0  0
  144.7042  136.1138  159.6725 C   0  0  0  0  0  0  0  0  0  0  0  0
  145.7667  135.9123  160.7472 C   0  0  0  0  0  0  0  0  0  0  0  0
  146.1515  134.6526  160.9885 N   0  0  0  0  0  0  0  0  0  0  0  0
  147.0863  134.4691  161.9461 C   0  0  0  0  0  0  0  0  0  0  0  0
  147.6372  135.5507  162.6624 C   0  0  0  0  0  0  0  0  0  0  0  0
  147.1567  136.8313  162.3230 C   0  0  0  0  0  0  0  0  0  0  0  0
  146.2222  137.0096  161.3642 N   0  0  0  0  0  0  0  0  0  0  0  0
  149.8770  138.4281  154.4291 C   0  0  0  0  0  0  0  0  0  0  0  0
  150.8455  139.2910  154.9786 C   0  0  0  0  0  0  0  0  0  0  0  0
  152.4976  138.7875  155.0124 Cl  0  0  0  0  0  0  0  0  0  0  0  0
  146.4211  134.6497  151.1741 H   0  0  0  0  0  0  0  0  0  0  0  0
  152.0229  142.8606  157.2938 H   0  0  0  0  0  0  0  0  0  0  0  0
  150.7207  141.8395  157.8915 H   0  0  0  0  0  0  0  0  0  0  0  0
  150.4117  143.0357  156.6092 H   0  0  0  0  0  0  0  0  0  0  0  0
  148.7756  141.8846  155.8370 H   0  0  0  0  0  0  0  0  0  0  0  0
  147.1066  140.3717  154.8809 H   0  0  0  0  0  0  0  0  0  0  0  0
  147.0846  138.3447  152.8922 H   0  0  0  0  0  0  0  0  0  0  0  0
  147.9544  136.9476  153.5008 H   0  0  0  0  0  0  0  0  0  0  0  0
  146.0828  138.3200  155.3538 H   0  0  0  0  0  0  0  0  0  0  0  0
  145.5966  131.8380  153.2100 H   0  0  0  0  0  0  0  0  0  0  0  0
  144.0423  131.8880  152.3719 H   0  0  0  0  0  0  0  0  0  0  0  0
  146.8379  131.8498  151.1948 H   0  0  0  0  0  0  0  0  0  0  0  0
  145.4336  130.9275  150.6511 H   0  0  0  0  0  0  0  0  0  0  0  0
  146.1124  133.1778  149.3084 H   0  0  0  0  0  0  0  0  0  0  0  0
  144.4176  132.9019  149.7087 H   0  0  0  0  0  0  0  0  0  0  0  0
  143.4768  135.0042  150.3675 H   0  0  0  0  0  0  0  0  0  0  0  0
  144.3324  136.1603  151.3682 H   0  0  0  0  0  0  0  0  0  0  0  0
  144.7520  136.9278  149.4607 H   0  0  0  0  0  0  0  0  0  0  0  0
  144.3305  133.9596  156.7476 H   0  0  0  0  0  0  0  0  0  0  0  0
  144.4437  137.1729  159.6572 H   0  0  0  0  0  0  0  0  0  0  0  0
  143.7860  135.6099  159.9804 H   0  0  0  0  0  0  0  0  0  0  0  0
  147.3973  133.4535  162.1412 H   0  0  0  0  0  0  0  0  0  0  0  0
  148.3851  135.4062  163.4277 H   0  0  0  0  0  0  0  0  0  0  0  0
  147.5243  137.7159  162.8214 H   0  0  0  0  0  0  0  0  0  0  0  0
  150.1784  137.4670  154.0386 H   0  0  0  0  0  0  0  0  0  0  0  0
  144.2335  132.9100  154.6848 H   0  0  0  0  0  0  0  0  0  0  0  0
  1  2  1  0  0  0  0
  1 36  1  0  0  0  0
  1 37  1  0  0  0  0
  1 38  1  0  0  0  0
  2  3  1  0  0  0  0
  3 33  1  0  0  0  0
  3  4  2  0  0  0  0
  4  5  1  0  0  0  0
  4 39  1  0  0  0  0
  5  6  2  0  0  0  0
  5 40  1  0  0  0  0
  6  7  1  0  0  0  0
  6 32  1  0  0  0  0
  7  8  1  0  0  0  0
  7 41  1  0  0  0  0
  7 42  1  0  0  0  0
  8  9  1  0  0  0  0
  8 43  1  0  0  0  0
  9 21  1  0  0  0  0
  9 10  2  0  0  0  0
 10 11  1  0  0  0  0
 11 12  1  0  0  0  0
 11 19  2  0  0  0  0
 12 16  1  0  0  0  0
 12 13  1  0  0  0  0
 13 14  1  0  0  0  0
 13 44  1  0  0  0  0
 13 45  1  0  0  0  0
 14 15  1  0  0  0  0
 14 46  1  0  0  0  0
 14 47  1  0  0  0  0
 15 16  1  0  0  0  0
 15 48  1  0  0  0  0
 15 49  1  0  0  0  0
 16 35  1  0  0  0  0
 16 17  1  0  0  0  0
 17 18  1  0  0  0  0
 17 50  1  0  0  0  0
 17 51  1  0  0  0  0
 18 52  1  0  0  0  0
 19 20  1  0  0  0  0
 19 60  1  0  0  0  0
 20 21  2  0  0  0  0
 20 53  1  0  0  0  0
 21 22  1  0  0  0  0
 22 23  2  0  0  0  0
 22 24  1  0  0  0  0
 24 25  1  0  0  0  0
 25 26  1  0  0  0  0
 25 54  1  0  0  0  0
 25 55  1  0  0  0  0
 26 31  1  0  0  0  0
 26 27  2  0  0  0  0
 27 28  1  0  0  0  0
 28 29  2  0  0  0  0
 28 56  1  0  0  0  0
 29 30  1  0  0  0  0
 29 57  1  0  0  0  0
 30 31  2  0  0  0  0
 30 58  1  0  0  0  0
 32 33  2  0  0  0  0
 32 59  1  0  0  0  0
 33 34  1  0  0  0  0
M  CHG  1  19   1
M  CHG  1  24  -1
M  END
> <s_m_source_file>
AV-unprocessed.smi

> <i_m_source_file_index>
45

> <i_lp_mmshare_version>
43012

> <i_f3d_flags>
0

> <s_epik_input>
W0NIM11PYzFbY0hdW2NIXWMoW2NIXWMxQ2wpW0NIMl1bTkhdYzJuYyhOM1tDSDJdW0NIMl1bQ0gyXVtDQEhdM1tDSDJdW09IXSluW2NIXWMyQyg9TylbTkhdW0NIMl1jNG5bY0hdW2NIXVtjSF1uNA==

> <s_epik_cmdline>
J2VwaWtfcHl0aG9uJywgJy1waCcsICc3LjAnLCAnLXRuJywgJzgnLCAnLW1hJywgJzIwMCcsICctbWV0YWxfYmluZGluZycsICctaW1hZScsICc8aW5maWxlLm1hZT4nLCAnLW9tYWUnLCAnPG91dGZpbGUubWFlPic=

> <r_lp_tautomer_probability>
0.575011

> <r_epik_Ionization_Penalty>
6.73124

> <r_epik_Ionization_Penalty_Charging>
6.73106

> <r_epik_Ionization_Penalty_Neutral>
0.000179426

> <r_epik_State_Penalty>
8.26145

> <r_epik_Charging_Adjusted_Penalty>
14.9925

> <i_epik_Tot_Q>
0

> <i_epik_Tot_abs_Q>
2

> <r_epik_Metal_State_Penalty>
4.22532

> <b_epik_Metal_Only>
1

> <s_epik_Chemistry_Notes>
This compound contains an electron-poor aromatic ring that is susceptible to covalent hydrolysis at low pH, typically resulting in measured values for nitrogen ring protonation that are around two units higher than predicted values.

> <s_lp_Force_Field>
OPLS_2005

> <r_lp_Energy>
44.6193

> <b_lp_Chiralities_Consistent>
1

> <s_lp_Variant>
AV-unprocessed.smi:45-9

> <Gold.Version>
5.8.1

> <Gold.Id.Protein>
6NUR|6NUR_protein|mol2

> <Gold.PLP.Fitness>
53.3291

> <Gold.PLP.PLP>
-45.2483

> <Gold.PLP.part.hbond>
-3.5140

> <Gold.PLP.part.metal>
0.0000

> <Gold.PLP.part.buried>
-2.5606

> <Gold.PLP.part.nonpolar>
-39.1600

> <Gold.PLP.part.repulsive>
0.1092

> <Gold.PLP.ligand.clash>
0.0000

> <Gold.PLP.ligand.torsion>
1.2646

> <Gold.PLP.Chemscore.Hbond>
3.1365

> <Gold.PLP.Chemscore.CHOScore>
0.0000

> <Gold.PLP.Chemscore.Metal>
0.0000

> <Gold.Chemscore.Hbonds>
donor molecule, donor type, donor heavy atom, donor atom, acceptor molecule, acceptor atom, score
      L1  H    18    52       P1 10171  1.00
      L1  H    19    60       P1 10957  2.00
      P1  H  6934  6947       L1    31  0.17

> <Gold.PLP.Chemscore.Internal.Correction>
1.2005

> <Gold.Rescore>
     Score         DG    S(hbond)    S(metal)    S(lipo)     H(rot)  DE(clash)    DE(int)     intcor
     15.39     -18.25       1.99        0.00     115.81       2.90       0.10       2.76       ----

> <Gold.Chemscore.Fitness>
15.3861

> <Gold.Chemscore.DG>
-18.2480

> <Gold.Chemscore.ZeroCoef>
-5.4800

> <Gold.Chemscore.Hbond>
1.9879

> <Gold.Chemscore.Metal>
0.0000

> <Gold.Chemscore.Lipo>
115.8072

> <Gold.Chemscore.Internal_Hbond>
0.0000

> <Gold.Chemscore.DEClash>
0.1009

> <Gold.Chemscore.DEInternal>
2.7609

> <Gold.Chemscore.Rot>
2.8988

> <Gold.Chemscore.Internal.Correction>
   9.000000E+99

> <Gold.Chemscore.Hbonds>
donor molecule, donor type, donor heavy atom, donor atom, acceptor molecule, acceptor atom, score
      L1  H    18    52       P1 10171  1.00
      L1  H    19    60       P1 10957  0.95

> <Gold.Chemscore.Hbond.Weighted>
-6.6394

> <Gold.Chemscore.Metal.Weighted>
-0.0000

> <Gold.Chemscore.Lipo.Weighted>
-13.5494

> <Gold.Chemscore.Internal_Hbond.Weighted>
0.0000

> <Gold.Chemscore.DEClash.Weighted>
0.1009

> <Gold.Chemscore.DEInternal.Weighted>
2.7609

> <Gold.Chemscore.Rot.Weighted>
7.4209

> <Gold.Chemscore.Internal.Correction.Weighted>
   9.000000E+99

> <Gold.Protein.RotatedTorsions>
[ 6907 6896 6895 6894 ] final  -68.66 input  -60.11 | X-H torsion
[ 7974 7965 7964 7962 ] final  159.48 input  175.53 | X-H torsion
[ 8008 7997 7996 7995 ] final  106.40 input   59.86 | X-H torsion
[ 10167 10162 10161 10158 ] final   91.31 input  -65.29 | X-H torsion
[ 10718 10713 10712 10709 ] final -108.07 input   66.30 | X-H torsion
[ 10763 10752 10751 10750 ] final  -22.01 input  -60.55 | X-H torsion
[ 11005 11000 10999 10996 ] final  179.68 input  -57.11 | X-H torsion

> <Gold.Protein.ActiveResidues>
 VAL166  LYS551  ARG553  GLY616  TRP617  ASP618  TYR619  PRO620  LYS621  CYS622 
 ASP623  PHE694  ASN695  SER759  ASP760  ASP761  ALA762  ILE779  LEU786  VAL792 
 PHE793  MET794  SER795  GLU796  ALA797  LYS798  CYS799  TRP800  GLU811  SER814 

> <Gold.Protein.RotatedAtoms>
  150.7345  134.5708  159.5889 H   0  0  0  0  0  0  0  0  0  0  0  0  # atno 6907 bound_to 6896
  152.3147  134.7451  160.0337 H   0  0  0  0  0  0  0  0  0  0  0  0  # atno 6908 bound_to 6896
  151.7987  133.3332  159.3557 H   0  0  0  0  0  0  0  0  0  0  0  0  # atno 6909 bound_to 6896
  144.7788  139.7623  143.6268 H   0  0  0  0  0  0  0  0  0  0  0  0  # atno 7974 bound_to 7965
  156.1740  140.3113  155.9025 H   0  0  0  0  0  0  0  0  0  0  0  0  # atno 8008 bound_to 7997
  155.3526  140.0472  157.3063 H   0  0  0  0  0  0  0  0  0  0  0  0  # atno 8009 bound_to 7997
  154.5271  140.2218  155.8881 H   0  0  0  0  0  0  0  0  0  0  0  0  # atno 8010 bound_to 7997
  139.8387  144.6652  150.9310 H   0  0  0  0  0  0  0  0  0  0  0  0  # atno 10167 bound_to 10162
  156.0467  130.5694  150.7910 H   0  0  0  0  0  0  0  0  0  0  0  0  # atno 10718 bound_to 10713
  153.6452  135.6983  153.5228 H   0  0  0  0  0  0  0  0  0  0  0  0  # atno 10763 bound_to 10752
  153.2750  135.4203  155.1024 H   0  0  0  0  0  0  0  0  0  0  0  0  # atno 10764 bound_to 10752
  154.8490  135.3588  154.5996 H   0  0  0  0  0  0  0  0  0  0  0  0  # atno 10765 bound_to 10752
  140.4089  134.6710  157.4603 H   0  0  0  0  0  0  0  0  0  0  0  0  # atno 11005 bound_to 11000
  146.1984  139.5263  142.9759 LP  0  0  0  0  0  0  0  0  0  0  0  0  # atno 17320 bound_to 7965
  145.6110  141.0339  143.1967 LP  0  0  0  0  0  0  0  0  0  0  0  0  # atno 17321 bound_to 7965
  140.7800  143.3933  151.1273 LP  0  0  0  0  0  0  0  0  0  0  0  0  # atno 17342 bound_to 10162
  139.7581  143.8677  152.3093 LP  0  0  0  0  0  0  0  0  0  0  0  0  # atno 17343 bound_to 10162
  157.5350  131.0938  150.9904 LP  0  0  0  0  0  0  0  0  0  0  0  0  # atno 17370 bound_to 10713
  157.0201  130.5670  149.5330 LP  0  0  0  0  0  0  0  0  0  0  0  0  # atno 17371 bound_to 10713
  140.0282  134.6446  155.9143 LP  0  0  0  0  0  0  0  0  0  0  0  0  # atno 17394 bound_to 11000
  141.1829  133.6550  156.5093 LP  0  0  0  0  0  0  0  0  0  0  0  0  # atno 17395 bound_to 11000

$$$$
