AV-unprocessed.smi:3301|AV-procd|sdf|12652|dock5
  -GOLD-   2272018583D 1   1.00000     0.00000
 Structure written by MMmdl.
 37 38  0  0  0  0  0  0  0  0  2 V2000
  148.6304  140.4340  157.3064 C   0  0  0  0  0  0  0  0  0  0  0  0
  148.7596  141.4847  156.1957 C   0  0  2  0  0  0  0  0  0  0  0  0
  149.2629  140.8493  154.8807 C   0  0  0  0  0  0  0  0  0  0  0  0
  148.1783  140.3601  154.0222 N   0  0  0  0  0  0  0  0  0  0  0  0
  148.0465  139.1063  153.4828 C   0  0  0  0  0  0  0  0  0  0  0  0
  146.8931  139.1185  152.7419 C   0  0  0  0  0  0  0  0  0  0  0  0
  146.3654  140.3755  152.8677 N   0  3  0  0  0  0  0  0  0  0  0  0
  147.1447  141.1271  153.6521 C   0  0  0  0  0  0  0  0  0  0  0  0
  149.6623  142.5438  156.6464 N   0  0  0  0  0  0  0  0  0  0  0  0
  150.8283  142.3586  157.2856 C   0  0  0  0  0  0  0  0  0  0  0  0
  151.2868  141.2454  157.5470 O   0  0  0  0  0  0  0  0  0  0  0  0
  151.5913  143.6274  157.6843 C   0  0  0  0  0  0  0  0  0  0  0  0
  151.8752  143.6871  159.1190 N   0  0  0  0  0  0  0  0  0  0  0  0
  152.3534  142.5124  159.8293 C   0  0  0  0  0  0  0  0  0  0  0  0
  152.6501  142.9946  161.2572 C   0  0  0  0  0  0  0  0  0  0  0  0
  152.0876  144.4173  161.3517 C   0  0  0  0  0  0  0  0  0  0  0  0
  151.7122  144.7491  159.9181 C   0  0  0  0  0  0  0  0  0  0  0  0
  151.3078  145.8593  159.5746 O   0  0  0  0  0  0  0  0  0  0  0  0
  147.9379  139.6426  157.0185 H   0  0  0  0  0  0  0  0  0  0  0  0
  148.2537  140.8797  158.2278 H   0  0  0  0  0  0  0  0  0  0  0  0
  149.5914  139.9694  157.5298 H   0  0  0  0  0  0  0  0  0  0  0  0
  147.7629  141.8976  156.0294 H   0  0  0  0  0  0  0  0  0  0  0  0
  149.8522  141.5659  154.3065 H   0  0  0  0  0  0  0  0  0  0  0  0
  149.9161  140.0018  155.0930 H   0  0  0  0  0  0  0  0  0  0  0  0
  148.7698  138.3213  153.6509 H   0  0  0  0  0  0  0  0  0  0  0  0
  146.4228  138.3475  152.1494 H   0  0  0  0  0  0  0  0  0  0  0  0
  146.9794  142.1553  153.9211 H   0  0  0  0  0  0  0  0  0  0  0  0
  149.3711  143.4940  156.4663 H   0  0  0  0  0  0  0  0  0  0  0  0
  152.5258  143.6589  157.1229 H   0  0  0  0  0  0  0  0  0  0  0  0
  151.0239  144.5132  157.3930 H   0  0  0  0  0  0  0  0  0  0  0  0
  151.5780  141.7451  159.8259 H   0  0  0  0  0  0  0  0  0  0  0  0
  153.2437  142.1004  159.3525 H   0  0  0  0  0  0  0  0  0  0  0  0
  152.2023  142.3343  162.0009 H   0  0  0  0  0  0  0  0  0  0  0  0
  153.7261  143.0052  161.4359 H   0  0  0  0  0  0  0  0  0  0  0  0
  151.1981  144.4547  161.9812 H   0  0  0  0  0  0  0  0  0  0  0  0
  152.8221  145.1237  161.7399 H   0  0  0  0  0  0  0  0  0  0  0  0
  145.5101  140.6938  152.4296 H   0  0  0  0  0  0  0  0  0  0  0  0
  1  2  1  0  0  0  0
  1 19  1  0  0  0  0
  1 20  1  0  0  0  0
  1 21  1  0  0  0  0
  2  3  1  0  0  0  0
  2  9  1  0  0  0  0
  2 22  1  0  0  0  0
  3  4  1  0  0  0  0
  3 23  1  0  0  0  0
  3 24  1  0  0  0  0
  4  8  1  0  0  0  0
  4  5  1  0  0  0  0
  5  6  2  0  0  0  0
  5 25  1  0  0  0  0
  6  7  1  0  0  0  0
  6 26  1  0  0  0  0
  7  8  2  0  0  0  0
  7 37  1  0  0  0  0
  8 27  1  0  0  0  0
  9 10  1  0  0  0  0
  9 28  1  0  0  0  0
 10 11  2  0  0  0  0
 10 12  1  0  0  0  0
 12 13  1  0  0  0  0
 12 29  1  0  0  0  0
 12 30  1  0  0  0  0
 13 17  1  0  0  0  0
 13 14  1  0  0  0  0
 14 15  1  0  0  0  0
 14 31  1  0  0  0  0
 14 32  1  0  0  0  0
 15 16  1  0  0  0  0
 15 33  1  0  0  0  0
 15 34  1  0  0  0  0
 16 17  1  0  0  0  0
 16 35  1  0  0  0  0
 16 36  1  0  0  0  0
 17 18  2  0  0  0  0
M  CHG  1   7   1
M  END
> <s_m_source_file>
AV-unprocessed.smi

> <i_m_source_file_index>
3301

> <i_lp_mmshare_version>
43012

> <i_f3d_flags>
0

> <s_epik_input>
W2NIXTFuW2NIXVtjSF1uMVtDSDJdW0NAQEhdKFtDSDNdKVtOSF1DKD1PKVtDSDJdTjJbQ0gyXVtDSDJdW0NIMl1DMj1P

> <s_epik_cmdline>
J2VwaWtfcHl0aG9uJywgJy1waCcsICc3LjAnLCAnLXRuJywgJzgnLCAnLW1hJywgJzIwMCcsICctbWV0YWxfYmluZGluZycsICctaW1hZScsICc8aW5maWxlLm1hZT4nLCAnLW9tYWUnLCAnPG91dGZpbGUubWFlPic=

> <r_lp_tautomer_probability>
1

> <r_epik_Ionization_Penalty>
0.254232

> <r_epik_Ionization_Penalty_Charging>
0

> <r_epik_Ionization_Penalty_Neutral>
0.254232

> <r_epik_State_Penalty>
0.245698

> <r_epik_Charging_Adjusted_Penalty>
0.245698

> <i_epik_Tot_Q>
1

> <i_epik_Tot_abs_Q>
1

> <r_epik_Metal_State_Penalty>
0.5358

> <b_epik_Metal_Only>
0

> <s_lp_Force_Field>
OPLS_2005

> <r_lp_Energy>
13.6599

> <b_lp_Chiralities_Consistent>
1

> <s_lp_Variant>
AV-unprocessed.smi:3301-1

> <Gold.Version>
5.8.1

> <Gold.Id.Protein>
6NUR|6NUR_protein|mol2

> <Gold.PLP.Fitness>
50.2167

> <Gold.PLP.PLP>
-41.5276

> <Gold.PLP.part.hbond>
-3.5643

> <Gold.PLP.part.metal>
0.0000

> <Gold.PLP.part.buried>
-3.2477

> <Gold.PLP.part.nonpolar>
-35.6755

> <Gold.PLP.part.repulsive>
0.2539

> <Gold.PLP.ligand.clash>
0.0000

> <Gold.PLP.ligand.torsion>
0.8737

> <Gold.PLP.Chemscore.Hbond>
3.0000

> <Gold.PLP.Chemscore.CHOScore>
0.4665

> <Gold.PLP.Chemscore.Metal>
0.0000

> <Gold.Chemscore.Hbonds>
donor molecule, donor type, donor heavy atom, donor atom, acceptor molecule, acceptor atom, score
      L1  H     7    37       P1 10175  1.67
      L1  H     9    28       P1  8028  1.00
      L1  C     5    25       P1  7948  0.39

> <Gold.PLP.Chemscore.Internal.Correction>
0.0370

> <Gold.Rescore>
     Score         DG    S(hbond)    S(metal)    S(lipo)     H(rot)  DE(clash)    DE(int)     intcor
     10.61     -14.42       1.97        0.00      71.61       2.35       0.17       3.63       ----

> <Gold.Chemscore.Fitness>
10.6139

> <Gold.Chemscore.DG>
-14.4153

> <Gold.Chemscore.ZeroCoef>
-5.4800

> <Gold.Chemscore.Hbond>
1.9655

> <Gold.Chemscore.Metal>
0.0000

> <Gold.Chemscore.Lipo>
71.6143

> <Gold.Chemscore.Internal_Hbond>
0.0000

> <Gold.Chemscore.DEClash>
0.1698

> <Gold.Chemscore.DEInternal>
3.6317

> <Gold.Chemscore.Rot>
2.3470

> <Gold.Chemscore.Internal.Correction>
   9.000000E+99

> <Gold.Chemscore.Hbonds>
donor molecule, donor type, donor heavy atom, donor atom, acceptor molecule, acceptor atom, score
      L1  H     7    37       P1 10175  0.19
      L1  H     9    28       P1  8028  0.94

> <Gold.Chemscore.Hbond.Weighted>
-6.5648

> <Gold.Chemscore.Metal.Weighted>
-0.0000

> <Gold.Chemscore.Lipo.Weighted>
-8.3789

> <Gold.Chemscore.Internal_Hbond.Weighted>
0.0000

> <Gold.Chemscore.DEClash.Weighted>
0.1698

> <Gold.Chemscore.DEInternal.Weighted>
3.6317

> <Gold.Chemscore.Rot.Weighted>
6.0083

> <Gold.Chemscore.Internal.Correction.Weighted>
   9.000000E+99

> <Gold.Protein.RotatedTorsions>
[ 6907 6896 6895 6894 ] final   86.32 input  -60.11 | X-H torsion
[ 7974 7965 7964 7962 ] final  -39.65 input  175.53 | X-H torsion
[ 8008 7997 7996 7995 ] final   77.29 input   59.86 | X-H torsion
[ 10167 10162 10161 10158 ] final -108.07 input  -65.29 | X-H torsion
[ 10718 10713 10712 10709 ] final -166.21 input   66.30 | X-H torsion
[ 10763 10752 10751 10750 ] final -126.85 input  -60.55 | X-H torsion
[ 11005 11000 10999 10996 ] final   74.02 input  -57.11 | X-H torsion

> <Gold.Protein.ActiveResidues>
 VAL166  LYS551  ARG553  GLY616  TRP617  ASP618  TYR619  PRO620  LYS621  CYS622 
 ASP623  PHE694  ASN695  SER759  ASP760  ASP761  ALA762  ILE779  LEU786  VAL792 
 PHE793  MET794  SER795  GLU796  ALA797  LYS798  CYS799  TRP800  GLU811  SER814 

> <Gold.Protein.RotatedAtoms>
  152.5392  134.2449  159.8876 H   0  0  0  0  0  0  0  0  0  0  0  0  # atno 6907 bound_to 6896
  151.2415  133.4390  159.2615 H   0  0  0  0  0  0  0  0  0  0  0  0  # atno 6908 bound_to 6896
  151.0622  134.9758  159.8322 H   0  0  0  0  0  0  0  0  0  0  0  0  # atno 6909 bound_to 6896
  146.0377  140.6650  142.9102 H   0  0  0  0  0  0  0  0  0  0  0  0  # atno 7974 bound_to 7965
  155.8394  140.3463  155.5622 H   0  0  0  0  0  0  0  0  0  0  0  0  # atno 8008 bound_to 7997
  155.8156  140.0905  157.1898 H   0  0  0  0  0  0  0  0  0  0  0  0  # atno 8009 bound_to 7997
  154.4005  140.1439  156.3426 H   0  0  0  0  0  0  0  0  0  0  0  0  # atno 8010 bound_to 7997
  140.1701  143.4050  152.1361 H   0  0  0  0  0  0  0  0  0  0  0  0  # atno 10167 bound_to 10162
  156.6646  130.9060  151.3034 H   0  0  0  0  0  0  0  0  0  0  0  0  # atno 10718 bound_to 10713
  154.8748  135.3982  154.3497 H   0  0  0  0  0  0  0  0  0  0  0  0  # atno 10763 bound_to 10752
  153.4284  135.7024  153.6252 H   0  0  0  0  0  0  0  0  0  0  0  0  # atno 10764 bound_to 10752
  153.4884  135.3753  155.2448 H   0  0  0  0  0  0  0  0  0  0  0  0  # atno 10765 bound_to 10752
  139.9411  134.7397  156.1097 H   0  0  0  0  0  0  0  0  0  0  0  0  # atno 11005 bound_to 11000
  144.7059  140.3850  143.7118 LP  0  0  0  0  0  0  0  0  0  0  0  0  # atno 17320 bound_to 7965
  145.6937  139.1645  143.2632 LP  0  0  0  0  0  0  0  0  0  0  0  0  # atno 17321 bound_to 7965
  139.5342  144.7191  151.4952 LP  0  0  0  0  0  0  0  0  0  0  0  0  # atno 17342 bound_to 10162
  140.6587  143.8544  150.6864 LP  0  0  0  0  0  0  0  0  0  0  0  0  # atno 17343 bound_to 10162
  157.7098  130.9427  150.1050 LP  0  0  0  0  0  0  0  0  0  0  0  0  # atno 17370 bound_to 10713
  156.1984  130.3659  149.8819 LP  0  0  0  0  0  0  0  0  0  0  0  0  # atno 17371 bound_to 10713
  141.1046  133.6665  156.2833 LP  0  0  0  0  0  0  0  0  0  0  0  0  # atno 17394 bound_to 11000
  140.5949  134.5613  157.5506 LP  0  0  0  0  0  0  0  0  0  0  0  0  # atno 17395 bound_to 11000

$$$$
