AV-unprocessed.smi:1940|AV-procd|sdf|7840|dock2
  -GOLD-   22720 9583D 1   1.00000     0.00000
 Structure written by MMmdl.
 49 51  0  0  0  0  0  0  0  0  1 V2000
  149.7463  132.5402  154.7236 C   0  0  0  0  0  0  0  0  0  0  0  0
  148.5506  133.4001  154.2749 C   0  0  1  0  0  0  0  0  0  0  0  0
  148.9806  134.7819  154.0747 N   0  0  0  0  0  0  0  0  0  0  0  0
  149.3715  135.6246  155.0410 C   0  0  0  0  0  0  0  0  0  0  0  0
  149.4360  135.3110  156.2292 O   0  0  0  0  0  0  0  0  0  0  0  0
  149.6908  136.8264  154.5310 N   0  0  0  0  0  0  0  0  0  0  0  0
  150.1620  137.9869  155.2035 C   0  0  0  0  0  0  0  0  0  0  0  0
  150.4031  137.8905  156.5875 C   0  0  0  0  0  0  0  0  0  0  0  0
  150.8827  139.0151  157.2844 C   0  0  0  0  0  0  0  0  0  0  0  0
  151.1189  140.2156  156.5754 C   0  0  0  0  0  0  0  0  0  0  0  0
  151.6011  141.3549  157.2548 N   0  0  0  0  0  0  0  0  0  0  0  0
  152.0736  141.1761  158.6300 C   0  0  0  0  0  0  0  0  0  0  0  0
  152.9012  142.3864  159.0949 C   0  0  0  0  0  0  0  0  0  0  0  0
  152.1190  143.6943  158.9058 C   0  0  0  0  0  0  0  0  0  0  0  0
  151.6574  143.8246  157.4468 C   0  0  0  0  0  0  0  0  0  0  0  0
  150.8531  142.5890  157.0076 C   0  0  0  0  0  0  0  0  0  0  0  0
  150.8939  140.3074  155.2419 N   0  0  0  0  0  0  0  0  0  0  0  0
  150.4347  139.2263  154.5768 C   0  0  0  0  0  0  0  0  0  0  0  0
  147.9154  132.8789  152.9710 C   0  0  1  0  0  0  0  0  0  0  0  0
  147.1165  131.5831  153.1201 C   0  0  0  0  0  0  0  0  0  0  0  0
  146.1776  131.6649  151.9390 C   0  0  0  0  0  0  0  0  0  0  0  0
  145.8391  133.1516  151.9157 C   0  0  0  0  0  0  0  0  0  0  0  0
  146.9727  133.8216  152.4616 O   0  0  0  0  0  0  0  0  0  0  0  0
  149.4446  131.5113  154.9198 H   0  0  0  0  0  0  0  0  0  0  0  0
  150.1893  132.9242  155.6431 H   0  0  0  0  0  0  0  0  0  0  0  0
  150.5270  132.5192  153.9627 H   0  0  0  0  0  0  0  0  0  0  0  0
  147.7902  133.3783  155.0580 H   0  0  0  0  0  0  0  0  0  0  0  0
  148.9580  135.1268  153.1263 H   0  0  0  0  0  0  0  0  0  0  0  0
  149.6370  136.9050  153.5262 H   0  0  0  0  0  0  0  0  0  0  0  0
  150.2173  136.9666  157.1154 H   0  0  0  0  0  0  0  0  0  0  0  0
  151.0504  138.9503  158.3491 H   0  0  0  0  0  0  0  0  0  0  0  0
  151.2152  141.0368  159.2886 H   0  0  0  0  0  0  0  0  0  0  0  0
  152.6860  140.2763  158.7022 H   0  0  0  0  0  0  0  0  0  0  0  0
  153.1831  142.2655  160.1409 H   0  0  0  0  0  0  0  0  0  0  0  0
  153.8311  142.4322  158.5263 H   0  0  0  0  0  0  0  0  0  0  0  0
  151.2530  143.7044  159.5690 H   0  0  0  0  0  0  0  0  0  0  0  0
  152.7374  144.5482  159.1840 H   0  0  0  0  0  0  0  0  0  0  0  0
  151.0541  144.7243  157.3241 H   0  0  0  0  0  0  0  0  0  0  0  0
  152.5262  143.9428  156.7979 H   0  0  0  0  0  0  0  0  0  0  0  0
  150.5880  142.6956  155.9566 H   0  0  0  0  0  0  0  0  0  0  0  0
  149.9149  142.5418  157.5621 H   0  0  0  0  0  0  0  0  0  0  0  0
  150.3072  139.3766  153.5169 H   0  0  0  0  0  0  0  0  0  0  0  0
  148.6830  132.7360  152.2081 H   0  0  0  0  0  0  0  0  0  0  0  0
  147.7432  130.6910  153.1028 H   0  0  0  0  0  0  0  0  0  0  0  0
  146.5465  131.5845  154.0503 H   0  0  0  0  0  0  0  0  0  0  0  0
  146.7020  131.3835  151.0250 H   0  0  0  0  0  0  0  0  0  0  0  0
  145.2992  131.0275  152.0412 H   0  0  0  0  0  0  0  0  0  0  0  0
  145.6100  133.5089  150.9114 H   0  0  0  0  0  0  0  0  0  0  0  0
  144.9780  133.3566  152.5528 H   0  0  0  0  0  0  0  0  0  0  0  0
  1  2  1  0  0  0  0
  1 24  1  0  0  0  0
  1 25  1  0  0  0  0
  1 26  1  0  0  0  0
  2  3  1  0  0  0  0
  2 19  1  0  0  0  0
  2 27  1  0  0  0  0
  3  4  1  0  0  0  0
  3 28  1  0  0  0  0
  4  5  2  0  0  0  0
  4  6  1  0  0  0  0
  6  7  1  0  0  0  0
  6 29  1  0  0  0  0
  7 18  1  0  0  0  0
  7  8  2  0  0  0  0
  8  9  1  0  0  0  0
  8 30  1  0  0  0  0
  9 10  2  0  0  0  0
  9 31  1  0  0  0  0
 10 11  1  0  0  0  0
 10 17  1  0  0  0  0
 11 16  1  0  0  0  0
 11 12  1  0  0  0  0
 12 13  1  0  0  0  0
 12 32  1  0  0  0  0
 12 33  1  0  0  0  0
 13 14  1  0  0  0  0
 13 34  1  0  0  0  0
 13 35  1  0  0  0  0
 14 15  1  0  0  0  0
 14 36  1  0  0  0  0
 14 37  1  0  0  0  0
 15 16  1  0  0  0  0
 15 38  1  0  0  0  0
 15 39  1  0  0  0  0
 16 40  1  0  0  0  0
 16 41  1  0  0  0  0
 17 18  2  0  0  0  0
 18 42  1  0  0  0  0
 19 23  1  0  0  0  0
 19 20  1  0  0  0  0
 19 43  1  0  0  0  0
 20 21  1  0  0  0  0
 20 44  1  0  0  0  0
 20 45  1  0  0  0  0
 21 22  1  0  0  0  0
 21 46  1  0  0  0  0
 21 47  1  0  0  0  0
 22 23  1  0  0  0  0
 22 48  1  0  0  0  0
 22 49  1  0  0  0  0
M  END
> <s_m_source_file>
AV-unprocessed.smi

> <i_m_source_file_index>
1940

> <i_lp_mmshare_version>
43012

> <i_f3d_flags>
0

> <s_epik_input>
TzFbQ0gyXVtDSDJdW0NIMl1bQ0BIXTFbQ0BIXShbQ0gzXSlbTkhdQyg9TylbTkhdYzJbY0hdW2NIXWMobltjSF0yKU4zW0NIMl1bQ0gyXVtDSDJdW0NIMl1bQ0gyXTM=

> <s_epik_cmdline>
J2VwaWtfcHl0aG9uJywgJy1waCcsICc3LjAnLCAnLXRuJywgJzgnLCAnLW1hJywgJzIwMCcsICctbWV0YWxfYmluZGluZycsICctaW1hZScsICc8aW5maWxlLm1hZT4nLCAnLW9tYWUnLCAnPG91dGZpbGUubWFlPic=

> <r_lp_tautomer_probability>
1

> <r_epik_Ionization_Penalty>
0.105688

> <r_epik_Ionization_Penalty_Charging>
0

> <r_epik_Ionization_Penalty_Neutral>
0.105688

> <r_epik_State_Penalty>
0.0895745

> <r_epik_Charging_Adjusted_Penalty>
0.0895745

> <i_epik_Tot_Q>
0

> <i_epik_Tot_abs_Q>
0

> <r_epik_Metal_State_Penalty>
0.0765749

> <b_epik_Metal_Only>
0

> <s_lp_Force_Field>
OPLS_2005

> <r_lp_Energy>
33.4739

> <b_lp_Chiralities_Consistent>
1

> <s_lp_Variant>
AV-unprocessed.smi:1940-4

> <Gold.Version>
5.8.1

> <Gold.Id.Protein>
6NUR|6NUR_protein|mol2

> <Gold.PLP.Fitness>
48.8876

> <Gold.PLP.PLP>
-39.4615

> <Gold.PLP.part.hbond>
-3.0000

> <Gold.PLP.part.metal>
0.0000

> <Gold.PLP.part.buried>
-3.4429

> <Gold.PLP.part.nonpolar>
-33.7493

> <Gold.PLP.part.repulsive>
0.3393

> <Gold.PLP.ligand.clash>
0.0000

> <Gold.PLP.ligand.torsion>
0.4475

> <Gold.PLP.Chemscore.Hbond>
2.2920

> <Gold.PLP.Chemscore.CHOScore>
1.0000

> <Gold.PLP.Chemscore.Metal>
0.0000

> <Gold.Chemscore.Hbonds>
donor molecule, donor type, donor heavy atom, donor atom, acceptor molecule, acceptor atom, score
      L1  H     3    28       P1  7948  1.00
      L1  H     6    29       P1  7948  0.99
      P1  H  7989  7998       L1    17  0.30
      L1  C    18    42       P1  7957  0.99

> <Gold.PLP.Chemscore.Internal.Correction>
0.4451

> <Gold.Rescore>
     Score         DG    S(hbond)    S(metal)    S(lipo)     H(rot)  DE(clash)    DE(int)     intcor
     18.52     -20.23       1.76        0.00     105.04       1.34       0.00       1.71       ----

> <Gold.Chemscore.Fitness>
18.5205

> <Gold.Chemscore.DG>
-20.2301

> <Gold.Chemscore.ZeroCoef>
-5.4800

> <Gold.Chemscore.Hbond>
1.7605

> <Gold.Chemscore.Metal>
0.0000

> <Gold.Chemscore.Lipo>
105.0428

> <Gold.Chemscore.Internal_Hbond>
0.0000

> <Gold.Chemscore.DEClash>
0.0000

> <Gold.Chemscore.DEInternal>
1.7096

> <Gold.Chemscore.Rot>
1.3359

> <Gold.Chemscore.Internal.Correction>
   9.000000E+99

> <Gold.Chemscore.Hbonds>
donor molecule, donor type, donor heavy atom, donor atom, acceptor molecule, acceptor atom, score
      L1  H     3    28       P1  7948  0.30
      L1  H     6    29       P1  7948  0.66

> <Gold.Chemscore.Hbond.Weighted>
-5.8800

> <Gold.Chemscore.Metal.Weighted>
-0.0000

> <Gold.Chemscore.Lipo.Weighted>
-12.2900

> <Gold.Chemscore.Internal_Hbond.Weighted>
0.0000

> <Gold.Chemscore.DEClash.Weighted>
0.0000

> <Gold.Chemscore.DEInternal.Weighted>
1.7096

> <Gold.Chemscore.Rot.Weighted>
3.4199

> <Gold.Chemscore.Internal.Correction.Weighted>
   9.000000E+99

> <Gold.Protein.RotatedTorsions>
[ 6907 6896 6895 6894 ] final -112.53 input  -60.11 | X-H torsion
[ 7974 7965 7964 7962 ] final -124.40 input  175.53 | X-H torsion
[ 8008 7997 7996 7995 ] final  159.97 input   59.86 | X-H torsion
[ 10167 10162 10161 10158 ] final  162.87 input  -65.29 | X-H torsion
[ 10718 10713 10712 10709 ] final   34.48 input   66.30 | X-H torsion
[ 10763 10752 10751 10750 ] final -101.01 input  -60.55 | X-H torsion
[ 11005 11000 10999 10996 ] final   17.73 input  -57.11 | X-H torsion

> <Gold.Protein.ActiveResidues>
 VAL166  LYS551  ARG553  GLY616  TRP617  ASP618  TYR619  PRO620  LYS621  CYS622 
 ASP623  PHE694  ASN695  SER759  ASP760  ASP761  ALA762  ILE779  LEU786  VAL792 
 PHE793  MET794  SER795  GLU796  ALA797  LYS798  CYS799  TRP800  GLU811  SER814 

> <Gold.Protein.RotatedAtoms>
  150.7765  133.9076  159.3359 H   0  0  0  0  0  0  0  0  0  0  0  0  # atno 6907 bound_to 6896
  151.6949  135.0938  160.0250 H   0  0  0  0  0  0  0  0  0  0  0  0  # atno 6908 bound_to 6896
  152.3802  133.6498  159.6191 H   0  0  0  0  0  0  0  0  0  0  0  0  # atno 6909 bound_to 6896
  145.0084  140.7884  143.4453 H   0  0  0  0  0  0  0  0  0  0  0  0  # atno 7974 bound_to 7965
  156.2204  140.1817  156.7491 H   0  0  0  0  0  0  0  0  0  0  0  0  # atno 8008 bound_to 7997
  154.5856  140.0659  156.9195 H   0  0  0  0  0  0  0  0  0  0  0  0  # atno 8009 bound_to 7997
  155.2426  140.3323  155.4293 H   0  0  0  0  0  0  0  0  0  0  0  0  # atno 8010 bound_to 7997
  139.4866  144.4395  151.8970 H   0  0  0  0  0  0  0  0  0  0  0  0  # atno 10167 bound_to 10162
  157.3109  130.7398  149.6724 H   0  0  0  0  0  0  0  0  0  0  0  0  # atno 10718 bound_to 10713
  154.7624  135.4914  153.9489 H   0  0  0  0  0  0  0  0  0  0  0  0  # atno 10763 bound_to 10752
  153.1267  135.6744  153.9253 H   0  0  0  0  0  0  0  0  0  0  0  0  # atno 10764 bound_to 10752
  153.8969  135.3114  155.3427 H   0  0  0  0  0  0  0  0  0  0  0  0  # atno 10765 bound_to 10752
  140.4327  134.1403  155.7682 H   0  0  0  0  0  0  0  0  0  0  0  0  # atno 11005 bound_to 11000
  145.2056  139.2230  143.5170 LP  0  0  0  0  0  0  0  0  0  0  0  0  # atno 17320 bound_to 7965
  146.3465  140.1883  142.8589 LP  0  0  0  0  0  0  0  0  0  0  0  0  # atno 17321 bound_to 7965
  140.3846  144.2693  150.5905 LP  0  0  0  0  0  0  0  0  0  0  0  0  # atno 17342 bound_to 10162
  140.5202  143.2267  151.8400 LP  0  0  0  0  0  0  0  0  0  0  0  0  # atno 17343 bound_to 10162
  155.9678  130.4252  150.4641 LP  0  0  0  0  0  0  0  0  0  0  0  0  # atno 17370 bound_to 10713
  157.2639  131.0573  151.2302 LP  0  0  0  0  0  0  0  0  0  0  0  0  # atno 17371 bound_to 10713
  141.1739  133.8554  157.1485 LP  0  0  0  0  0  0  0  0  0  0  0  0  # atno 17394 bound_to 11000
  140.0123  134.9983  157.0421 LP  0  0  0  0  0  0  0  0  0  0  0  0  # atno 17395 bound_to 11000

$$$$
