AV-unprocessed.smi:922|AV-procd|sdf|4175|dock2
  -GOLD-   22720 2 83D 1   1.00000     0.00000
 Structure written by MMmdl.
 33 34  0  0  0  0  0  0  0  0  1 V2000
  148.0657  143.1619  158.7307 C   0  0  0  0  0  0  0  0  0  0  0  0
  149.5048  142.7353  158.4248 C   0  0  2  0  0  0  0  0  0  0  0  0
  149.6365  141.2053  158.3086 C   0  0  0  0  0  0  0  0  0  0  0  0
  151.0327  140.8270  158.1338 N   0  0  0  0  0  0  0  0  0  0  0  0
  151.5259  140.0201  157.1072 C   0  0  0  0  0  0  0  0  0  0  0  0
  151.1472  140.2958  155.7250 C   0  0  0  0  0  0  0  0  0  0  0  0
  151.5624  139.5973  154.7250 N   0  0  0  0  0  0  0  0  0  0  0  0
  152.4040  138.5433  154.9726 N   0  0  0  0  0  0  0  0  0  0  0  0
  152.8547  138.1389  156.1825 C   0  0  0  0  0  0  0  0  0  0  0  0
  153.6069  137.1725  156.2929 O   0  0  0  0  0  0  0  0  0  0  0  0
  152.3599  138.9534  157.3026 C   0  0  0  0  0  0  0  0  0  0  0  0
  152.8488  138.4493  158.8861 Cl  0  0  0  0  0  0  0  0  0  0  0  0
  151.8446  141.3148  159.2432 C   0  0  0  0  0  0  0  0  0  0  0  0
  151.7246  142.8495  159.3877 C   0  0  0  0  0  0  0  0  0  0  0  0
  152.3559  143.2967  160.7151 C   0  0  0  0  0  0  0  0  0  0  0  0
  152.4095  143.5963  158.2230 C   0  0  0  0  0  0  0  0  0  0  0  0
  150.3397  143.2036  159.4848 O   0  0  0  0  0  0  0  0  0  0  0  0
  152.6934  138.0414  154.1454 H   0  0  0  0  0  0  0  0  0  0  0  0
  147.3856  142.8399  157.9418 H   0  0  0  0  0  0  0  0  0  0  0  0
  147.9902  144.2465  158.8120 H   0  0  0  0  0  0  0  0  0  0  0  0
  147.7174  142.7320  159.6702 H   0  0  0  0  0  0  0  0  0  0  0  0
  149.8024  143.2105  157.4910 H   0  0  0  0  0  0  0  0  0  0  0  0
  149.2609  140.7292  159.2152 H   0  0  0  0  0  0  0  0  0  0  0  0
  149.0259  140.8241  157.4903 H   0  0  0  0  0  0  0  0  0  0  0  0
  150.4824  141.1475  155.5796 H   0  0  0  0  0  0  0  0  0  0  0  0
  151.5099  140.8209  160.1564 H   0  0  0  0  0  0  0  0  0  0  0  0
  152.8913  141.0411  159.1058 H   0  0  0  0  0  0  0  0  0  0  0  0
  153.4187  143.0547  160.7512 H   0  0  0  0  0  0  0  0  0  0  0  0
  151.8766  142.8091  161.5647 H   0  0  0  0  0  0  0  0  0  0  0  0
  152.2559  144.3733  160.8569 H   0  0  0  0  0  0  0  0  0  0  0  0
  153.4839  143.4111  158.2208 H   0  0  0  0  0  0  0  0  0  0  0  0
  152.2607  144.6732  158.3057 H   0  0  0  0  0  0  0  0  0  0  0  0
  152.0347  143.2855  157.2485 H   0  0  0  0  0  0  0  0  0  0  0  0
  1  2  1  0  0  0  0
  1 19  1  0  0  0  0
  1 20  1  0  0  0  0
  1 21  1  0  0  0  0
  2 17  1  0  0  0  0
  2  3  1  0  0  0  0
  2 22  1  0  0  0  0
  3  4  1  0  0  0  0
  3 23  1  0  0  0  0
  3 24  1  0  0  0  0
  4  5  1  0  0  0  0
  4 13  1  0  0  0  0
  5 11  2  0  0  0  0
  5  6  1  0  0  0  0
  6  7  2  0  0  0  0
  6 25  1  0  0  0  0
  7  8  1  0  0  0  0
  8 18  1  0  0  0  0
  8  9  1  0  0  0  0
  9 10  2  0  0  0  0
  9 11  1  0  0  0  0
 11 12  1  0  0  0  0
 13 14  1  0  0  0  0
 13 26  1  0  0  0  0
 13 27  1  0  0  0  0
 14 15  1  0  0  0  0
 14 16  1  0  0  0  0
 14 17  1  0  0  0  0
 15 28  1  0  0  0  0
 15 29  1  0  0  0  0
 15 30  1  0  0  0  0
 16 31  1  0  0  0  0
 16 32  1  0  0  0  0
 16 33  1  0  0  0  0
M  END
> <s_m_source_file>
AV-unprocessed.smi

> <i_m_source_file_index>
922

> <i_lp_mmshare_version>
43012

> <i_f3d_flags>
0

> <s_epik_input>
W0NIM11bQ0BASF0oTzEpW0NIMl1OKFtDSDJdQzEoW0NIM10pW0NIM10pYzJbY0hdbltuSF1jKD1PKWMyQ2w=

> <s_epik_cmdline>
J2VwaWtfcHl0aG9uJywgJy1waCcsICc3LjAnLCAnLXRuJywgJzgnLCAnLW1hJywgJzIwMCcsICctbWV0YWxfYmluZGluZycsICctaW1hZScsICc8aW5maWxlLm1hZT4nLCAnLW9tYWUnLCAnPG91dGZpbGUubWFlPic=

> <r_lp_tautomer_probability>
0.986175

> <r_epik_Ionization_Penalty>
0.00909695

> <r_epik_Ionization_Penalty_Charging>
0.00909694

> <r_epik_Ionization_Penalty_Neutral>
4.87729e-09

> <r_epik_State_Penalty>
1.54226

> <r_epik_Charging_Adjusted_Penalty>
1.55136

> <i_epik_Tot_Q>
0

> <i_epik_Tot_abs_Q>
0

> <r_epik_Metal_State_Penalty>
3.93934

> <b_epik_Metal_Only>
0

> <s_lp_Force_Field>
OPLS_2005

> <r_lp_Energy>
35.5656

> <b_lp_Chiralities_Consistent>
1

> <s_lp_Variant>
AV-unprocessed.smi:922-3

> <Gold.Version>
5.8.1

> <Gold.Id.Protein>
6NUR|6NUR_protein|mol2

> <Gold.PLP.Fitness>
32.2489

> <Gold.PLP.PLP>
-28.2234

> <Gold.PLP.part.hbond>
-2.9942

> <Gold.PLP.part.metal>
0.0000

> <Gold.PLP.part.buried>
-3.9053

> <Gold.PLP.part.nonpolar>
-22.1866

> <Gold.PLP.part.repulsive>
0.3479

> <Gold.PLP.ligand.clash>
0.0000

> <Gold.PLP.ligand.torsion>
0.7737

> <Gold.PLP.Chemscore.Hbond>
1.5440

> <Gold.PLP.Chemscore.CHOScore>
0.0000

> <Gold.PLP.Chemscore.Metal>
0.0000

> <Gold.Chemscore.Hbonds>
donor molecule, donor type, donor heavy atom, donor atom, acceptor molecule, acceptor atom, score
      P1  H  7989  7998       L1     7  1.00
      P1  H 10752 10765       L1    10  0.56

> <Gold.PLP.Chemscore.Internal.Correction>
0.9408

> <Gold.Rescore>
     Score         DG    S(hbond)    S(metal)    S(lipo)     H(rot)  DE(clash)    DE(int)     intcor
     18.53     -19.62       1.60        0.00      75.23       0.00       0.04       1.05       ----

> <Gold.Chemscore.Fitness>
18.5334

> <Gold.Chemscore.DG>
-19.6180

> <Gold.Chemscore.ZeroCoef>
-5.4800

> <Gold.Chemscore.Hbond>
1.5975

> <Gold.Chemscore.Metal>
0.0000

> <Gold.Chemscore.Lipo>
75.2331

> <Gold.Chemscore.Internal_Hbond>
0.0000

> <Gold.Chemscore.DEClash>
0.0354

> <Gold.Chemscore.DEInternal>
1.0492

> <Gold.Chemscore.Rot>
0.0000

> <Gold.Chemscore.Internal.Correction>
   9.000000E+99

> <Gold.Chemscore.Hbonds>
donor molecule, donor type, donor heavy atom, donor atom, acceptor molecule, acceptor atom, score
      P1  H  7989  7998       L1     7  0.25
      P1  H 10752 10765       L1    10  0.53

> <Gold.Chemscore.Hbond.Weighted>
-5.3357

> <Gold.Chemscore.Metal.Weighted>
-0.0000

> <Gold.Chemscore.Lipo.Weighted>
-8.8023

> <Gold.Chemscore.Internal_Hbond.Weighted>
0.0000

> <Gold.Chemscore.DEClash.Weighted>
0.0354

> <Gold.Chemscore.DEInternal.Weighted>
1.0492

> <Gold.Chemscore.Rot.Weighted>
0.0000

> <Gold.Chemscore.Internal.Correction.Weighted>
   9.000000E+99

> <Gold.Protein.RotatedTorsions>
[ 6907 6896 6895 6894 ] final  123.14 input  -60.11 | X-H torsion
[ 7974 7965 7964 7962 ] final  132.22 input  175.53 | X-H torsion
[ 8008 7997 7996 7995 ] final -127.64 input   59.86 | X-H torsion
[ 10167 10162 10161 10158 ] final   70.23 input  -65.29 | X-H torsion
[ 10718 10713 10712 10709 ] final  -68.68 input   66.30 | X-H torsion
[ 10763 10752 10751 10750 ] final -119.02 input  -60.55 | X-H torsion
[ 11005 11000 10999 10996 ] final   53.94 input  -57.11 | X-H torsion

> <Gold.Protein.ActiveResidues>
 VAL166  LYS551  ARG553  GLY616  TRP617  ASP618  TYR619  PRO620  LYS621  CYS622 
 ASP623  PHE694  ASN695  SER759  ASP760  ASP761  ALA762  ILE779  LEU786  VAL792 
 PHE793  MET794  SER795  GLU796  ALA797  LYS798  CYS799  TRP800  GLU811  SER814 

> <Gold.Protein.RotatedAtoms>
  152.4186  133.7079  159.6461 H   0  0  0  0  0  0  0  0  0  0  0  0  # atno 6907 bound_to 6896
  150.8062  133.8494  159.3210 H   0  0  0  0  0  0  0  0  0  0  0  0  # atno 6908 bound_to 6896
  151.6217  135.1033  160.0154 H   0  0  0  0  0  0  0  0  0  0  0  0  # atno 6909 bound_to 6896
  144.9991  139.4329  143.5301 H   0  0  0  0  0  0  0  0  0  0  0  0  # atno 7974 bound_to 7965
  155.2495  140.0432  157.2985 H   0  0  0  0  0  0  0  0  0  0  0  0  # atno 8008 bound_to 7997
  154.5778  140.2392  155.8067 H   0  0  0  0  0  0  0  0  0  0  0  0  # atno 8009 bound_to 7997
  156.2170  140.2981  155.9872 H   0  0  0  0  0  0  0  0  0  0  0  0  # atno 8010 bound_to 7997
  140.0592  144.5247  150.7307 H   0  0  0  0  0  0  0  0  0  0  0  0  # atno 10167 bound_to 10162
  156.0493  130.4299  150.2036 H   0  0  0  0  0  0  0  0  0  0  0  0  # atno 10718 bound_to 10713
  154.8605  135.4253  154.2232 H   0  0  0  0  0  0  0  0  0  0  0  0  # atno 10763 bound_to 10752
  153.3232  135.6983  153.7018 H   0  0  0  0  0  0  0  0  0  0  0  0  # atno 10764 bound_to 10752
  153.6064  135.3527  155.2937 H   0  0  0  0  0  0  0  0  0  0  0  0  # atno 10765 bound_to 10752
  140.0726  134.5448  155.9030 H   0  0  0  0  0  0  0  0  0  0  0  0  # atno 11005 bound_to 11000
  146.3448  139.9369  142.8746 LP  0  0  0  0  0  0  0  0  0  0  0  0  # atno 17320 bound_to 7965
  145.2178  140.9922  143.4063 LP  0  0  0  0  0  0  0  0  0  0  0  0  # atno 17321 bound_to 7965
  140.7180  143.2562  151.4371 LP  0  0  0  0  0  0  0  0  0  0  0  0  # atno 17342 bound_to 10162
  139.5905  144.1510  152.2082 LP  0  0  0  0  0  0  0  0  0  0  0  0  # atno 17343 bound_to 10162
  157.0121  130.9954  151.3363 LP  0  0  0  0  0  0  0  0  0  0  0  0  # atno 17370 bound_to 10713
  157.5403  130.8115  149.8020 LP  0  0  0  0  0  0  0  0  0  0  0  0  # atno 17371 bound_to 10713
  141.2018  133.6620  156.5969 LP  0  0  0  0  0  0  0  0  0  0  0  0  # atno 17394 bound_to 11000
  140.3604  134.7692  157.4530 LP  0  0  0  0  0  0  0  0  0  0  0  0  # atno 17395 bound_to 11000

$$$$
