AV-unprocessed.smi:2114|AV-procd|sdf|8620|dock2
  -GOLD-   2272011363D 1   1.00000     0.00000
 Structure written by MMmdl.
 47 48  0  0  0  0  0  0  0  0  1 V2000
  151.9691  144.5196  158.4883 C   0  0  0  0  0  0  0  0  0  0  0  0
  151.4397  143.3029  158.9849 O   0  0  0  0  0  0  0  0  0  0  0  0
  152.0506  142.8999  160.2001 C   0  0  0  0  0  0  0  0  0  0  0  0
  153.1850  141.9084  159.8990 C   0  0  1  0  0  0  0  0  0  0  0  0
  154.1066  141.7229  161.1156 C   0  0  0  0  0  0  0  0  0  0  0  0
  152.6181  140.6243  159.4958 N   0  0  0  0  0  0  0  0  0  0  0  0
  153.3238  139.5573  159.0861 C   0  0  0  0  0  0  0  0  0  0  0  0
  154.5509  139.5507  158.9868 O   0  0  0  0  0  0  0  0  0  0  0  0
  152.5146  138.3569  158.6878 C   0  0  0  0  0  0  0  0  0  0  0  0
  151.3498  137.9779  159.3903 C   0  0  0  0  0  0  0  0  0  0  0  0
  150.6508  136.8239  158.9877 C   0  0  0  0  0  0  0  0  0  0  0  0
  151.1367  136.0683  157.8949 C   0  0  0  0  0  0  0  0  0  0  0  0
  150.4541  134.9052  157.4799 N   0  0  0  0  0  0  0  0  0  0  0  0
  149.5918  135.0599  156.3119 C   0  0  0  0  0  0  0  0  0  0  0  0
  148.6500  133.8494  156.1568 C   0  0  2  0  0  0  0  0  0  0  0  0
  147.4847  133.8486  157.1625 C   0  0  0  0  0  0  0  0  0  0  0  0
  149.3988  132.6322  156.1955 O   0  0  0  0  0  0  0  0  0  0  0  0
  150.1985  132.4593  157.3647 C   0  0  1  0  0  0  0  0  0  0  0  0
  150.9300  131.1182  157.2464 C   0  0  0  0  0  0  0  0  0  0  0  0
  151.1790  133.6378  157.4972 C   0  0  0  0  0  0  0  0  0  0  0  0
  152.2627  136.4256  157.2303 N   0  0  0  0  0  0  0  0  0  0  0  0
  152.9288  137.5335  157.6190 C   0  0  0  0  0  0  0  0  0  0  0  0
  151.4631  144.7881  157.5612 H   0  0  0  0  0  0  0  0  0  0  0  0
  153.0350  144.4280  158.2754 H   0  0  0  0  0  0  0  0  0  0  0  0
  151.8224  145.3334  159.1998 H   0  0  0  0  0  0  0  0  0  0  0  0
  152.4521  143.7768  160.7106 H   0  0  0  0  0  0  0  0  0  0  0  0
  151.3125  142.4457  160.8637 H   0  0  0  0  0  0  0  0  0  0  0  0
  153.7770  142.3145  159.0766 H   0  0  0  0  0  0  0  0  0  0  0  0
  154.5455  142.6725  161.4228 H   0  0  0  0  0  0  0  0  0  0  0  0
  154.9283  141.0422  160.8913 H   0  0  0  0  0  0  0  0  0  0  0  0
  153.5612  141.3174  161.9684 H   0  0  0  0  0  0  0  0  0  0  0  0
  151.6117  140.5467  159.5164 H   0  0  0  0  0  0  0  0  0  0  0  0
  150.9915  138.5508  160.2333 H   0  0  0  0  0  0  0  0  0  0  0  0
  149.7673  136.5219  159.5302 H   0  0  0  0  0  0  0  0  0  0  0  0
  149.0023  135.9748  156.3556 H   0  0  0  0  0  0  0  0  0  0  0  0
  150.2283  135.1420  155.4299 H   0  0  0  0  0  0  0  0  0  0  0  0
  148.2065  133.9001  155.1620 H   0  0  0  0  0  0  0  0  0  0  0  0
  146.8473  134.7203  157.0140 H   0  0  0  0  0  0  0  0  0  0  0  0
  147.8294  133.8742  158.1961 H   0  0  0  0  0  0  0  0  0  0  0  0
  146.8638  132.9613  157.0377 H   0  0  0  0  0  0  0  0  0  0  0  0
  149.5574  132.4163  158.2455 H   0  0  0  0  0  0  0  0  0  0  0  0
  151.5498  130.9306  158.1236 H   0  0  0  0  0  0  0  0  0  0  0  0
  151.5764  131.0973  156.3685 H   0  0  0  0  0  0  0  0  0  0  0  0
  150.2213  130.2946  157.1581 H   0  0  0  0  0  0  0  0  0  0  0  0
  151.8992  133.6253  156.6774 H   0  0  0  0  0  0  0  0  0  0  0  0
  151.7404  133.5363  158.4271 H   0  0  0  0  0  0  0  0  0  0  0  0
  153.8192  137.7648  157.0524 H   0  0  0  0  0  0  0  0  0  0  0  0
  1  2  1  0  0  0  0
  1 23  1  0  0  0  0
  1 24  1  0  0  0  0
  1 25  1  0  0  0  0
  2  3  1  0  0  0  0
  3  4  1  0  0  0  0
  3 26  1  0  0  0  0
  3 27  1  0  0  0  0
  4  5  1  0  0  0  0
  4  6  1  0  0  0  0
  4 28  1  0  0  0  0
  5 29  1  0  0  0  0
  5 30  1  0  0  0  0
  5 31  1  0  0  0  0
  6  7  1  0  0  0  0
  6 32  1  0  0  0  0
  7  8  2  0  0  0  0
  7  9  1  0  0  0  0
  9 22  1  0  0  0  0
  9 10  2  0  0  0  0
 10 11  1  0  0  0  0
 10 33  1  0  0  0  0
 11 12  2  0  0  0  0
 11 34  1  0  0  0  0
 12 13  1  0  0  0  0
 12 21  1  0  0  0  0
 13 20  1  0  0  0  0
 13 14  1  0  0  0  0
 14 15  1  0  0  0  0
 14 35  1  0  0  0  0
 14 36  1  0  0  0  0
 15 16  1  0  0  0  0
 15 17  1  0  0  0  0
 15 37  1  0  0  0  0
 16 38  1  0  0  0  0
 16 39  1  0  0  0  0
 16 40  1  0  0  0  0
 17 18  1  0  0  0  0
 18 19  1  0  0  0  0
 18 20  1  0  0  0  0
 18 41  1  0  0  0  0
 19 42  1  0  0  0  0
 19 43  1  0  0  0  0
 19 44  1  0  0  0  0
 20 45  1  0  0  0  0
 20 46  1  0  0  0  0
 21 22  2  0  0  0  0
 22 47  1  0  0  0  0
M  END
> <s_m_source_file>
AV-unprocessed.smi

> <i_m_source_file_index>
2114

> <i_lp_mmshare_version>
43012

> <i_f3d_flags>
0

> <s_epik_input>
W0NIM11PW0NIMl1bQ0BIXShbQ0gzXSlbTkhdQyg9TyljMVtjSF1bY0hdYyhuW2NIXTEpTjJbQ0gyXVtDQEBIXShbQ0gzXSlPW0NAQEhdKFtDSDNdKVtDSDJdMg==

> <s_epik_cmdline>
J2VwaWtfcHl0aG9uJywgJy1waCcsICc3LjAnLCAnLXRuJywgJzgnLCAnLW1hJywgJzIwMCcsICctbWV0YWxfYmluZGluZycsICctaW1hZScsICc8aW5maWxlLm1hZT4nLCAnLW9tYWUnLCAnPG91dGZpbGUubWFlPic=

> <r_lp_tautomer_probability>
1

> <r_epik_Ionization_Penalty>
1.92915e-05

> <r_epik_Ionization_Penalty_Charging>
0

> <r_epik_Ionization_Penalty_Neutral>
1.92915e-05

> <r_epik_State_Penalty>
-0

> <r_epik_Charging_Adjusted_Penalty>
0

> <i_epik_Tot_Q>
0

> <i_epik_Tot_abs_Q>
0

> <r_epik_Metal_State_Penalty>
-0

> <b_epik_Metal_Only>
0

> <s_lp_Force_Field>
OPLS_2005

> <r_lp_Energy>
21.8338

> <b_lp_Chiralities_Consistent>
1

> <s_lp_Variant>
AV-unprocessed.smi:2114-4

> <Gold.Version>
5.8.1

> <Gold.Id.Protein>
6NUR|6NUR_protein|mol2

> <Gold.PLP.Fitness>
39.1609

> <Gold.PLP.PLP>
-35.0703

> <Gold.PLP.part.hbond>
-2.0000

> <Gold.PLP.part.metal>
0.0000

> <Gold.PLP.part.buried>
-4.8880

> <Gold.PLP.part.nonpolar>
-28.5392

> <Gold.PLP.part.repulsive>
0.2255

> <Gold.PLP.ligand.clash>
0.0000

> <Gold.PLP.ligand.torsion>
1.1362

> <Gold.PLP.Chemscore.Hbond>
2.0000

> <Gold.PLP.Chemscore.CHOScore>
0.0000

> <Gold.PLP.Chemscore.Metal>
0.0000

> <Gold.Chemscore.Hbonds>
donor molecule, donor type, donor heavy atom, donor atom, acceptor molecule, acceptor atom, score
      P1  H  7997  8010       L1     8  1.00

> <Gold.PLP.Chemscore.Internal.Correction>
0.3629

> <Gold.Rescore>
     Score         DG    S(hbond)    S(metal)    S(lipo)     H(rot)  DE(clash)    DE(int)     intcor
     17.16     -18.15       1.90        0.00      87.31       1.52       0.00       0.99       ----

> <Gold.Chemscore.Fitness>
17.1603

> <Gold.Chemscore.DG>
-18.1502

> <Gold.Chemscore.ZeroCoef>
-5.4800

> <Gold.Chemscore.Hbond>
1.9020

> <Gold.Chemscore.Metal>
0.0000

> <Gold.Chemscore.Lipo>
87.3109

> <Gold.Chemscore.Internal_Hbond>
0.0000

> <Gold.Chemscore.DEClash>
0.0000

> <Gold.Chemscore.DEInternal>
0.9899

> <Gold.Chemscore.Rot>
1.5226

> <Gold.Chemscore.Internal.Correction>
   9.000000E+99

> <Gold.Chemscore.Hbonds>
donor molecule, donor type, donor heavy atom, donor atom, acceptor molecule, acceptor atom, score
      P1  H  7997  8010       L1     8  0.85
      P1  H 10752 10764       L1    21  0.02

> <Gold.Chemscore.Hbond.Weighted>
-6.3528

> <Gold.Chemscore.Metal.Weighted>
-0.0000

> <Gold.Chemscore.Lipo.Weighted>
-10.2154

> <Gold.Chemscore.Internal_Hbond.Weighted>
0.0000

> <Gold.Chemscore.DEClash.Weighted>
0.0000

> <Gold.Chemscore.DEInternal.Weighted>
0.9899

> <Gold.Chemscore.Rot.Weighted>
3.8980

> <Gold.Chemscore.Internal.Correction.Weighted>
   9.000000E+99

> <Gold.Protein.RotatedTorsions>
[ 6907 6896 6895 6894 ] final  126.39 input  -60.11 | X-H torsion
[ 7974 7965 7964 7962 ] final  -22.50 input  175.53 | X-H torsion
[ 8008 7997 7996 7995 ] final   -2.06 input   59.86 | X-H torsion
[ 10167 10162 10161 10158 ] final   77.97 input  -65.29 | X-H torsion
[ 10718 10713 10712 10709 ] final  109.70 input   66.30 | X-H torsion
[ 10763 10752 10751 10750 ] final  -15.82 input  -60.55 | X-H torsion
[ 11005 11000 10999 10996 ] final   45.20 input  -57.11 | X-H torsion

> <Gold.Protein.ActiveResidues>
 VAL166  LYS551  ARG553  GLY616  TRP617  ASP618  TYR619  PRO620  LYS621  CYS622 
 ASP623  PHE694  ASN695  SER759  ASP760  ASP761  ALA762  ILE779  LEU786  VAL792 
 PHE793  MET794  SER795  GLU796  ALA797  LYS798  CYS799  TRP800  GLU811  SER814 

> <Gold.Protein.RotatedAtoms>
  152.3907  133.6675  159.6235 H   0  0  0  0  0  0  0  0  0  0  0  0  # atno 6907 bound_to 6896
  150.7816  133.8959  159.3336 H   0  0  0  0  0  0  0  0  0  0  0  0  # atno 6908 bound_to 6896
  151.6746  135.0972  160.0256 H   0  0  0  0  0  0  0  0  0  0  0  0  # atno 6909 bound_to 6896
  146.1672  140.4487  142.8547 H   0  0  0  0  0  0  0  0  0  0  0  0  # atno 7974 bound_to 7965
  154.6399  140.2544  155.7334 H   0  0  0  0  0  0  0  0  0  0  0  0  # atno 8008 bound_to 7997
  156.2523  140.2889  156.0709 H   0  0  0  0  0  0  0  0  0  0  0  0  # atno 8009 bound_to 7997
  155.1612  140.0384  157.2833 H   0  0  0  0  0  0  0  0  0  0  0  0  # atno 8010 bound_to 7997
  139.9758  144.5861  150.7944 H   0  0  0  0  0  0  0  0  0  0  0  0  # atno 10167 bound_to 10162
  157.6529  131.0919  150.6493 H   0  0  0  0  0  0  0  0  0  0  0  0  # atno 10718 bound_to 10713
  153.5492  135.7012  153.5599 H   0  0  0  0  0  0  0  0  0  0  0  0  # atno 10763 bound_to 10752
  153.3531  135.3990  155.1661 H   0  0  0  0  0  0  0  0  0  0  0  0  # atno 10764 bound_to 10752
  154.8663  135.3770  154.5002 H   0  0  0  0  0  0  0  0  0  0  0  0  # atno 10765 bound_to 10752
  140.1482  134.4496  155.8401 H   0  0  0  0  0  0  0  0  0  0  0  0  # atno 11005 bound_to 11000
  144.8109  140.6384  143.6416 LP  0  0  0  0  0  0  0  0  0  0  0  0  # atno 17320 bound_to 7965
  145.4437  139.1532  143.3956 LP  0  0  0  0  0  0  0  0  0  0  0  0  # atno 17321 bound_to 7965
  140.7506  143.2958  151.3208 LP  0  0  0  0  0  0  0  0  0  0  0  0  # atno 17342 bound_to 10162
  139.6446  144.0475  152.2581 LP  0  0  0  0  0  0  0  0  0  0  0  0  # atno 17343 bound_to 10162
  156.6802  130.4565  149.5630 LP  0  0  0  0  0  0  0  0  0  0  0  0  # atno 17370 bound_to 10713
  156.1934  130.6574  151.1087 LP  0  0  0  0  0  0  0  0  0  0  0  0  # atno 17371 bound_to 10713
  141.2195  133.6861  156.7372 LP  0  0  0  0  0  0  0  0  0  0  0  0  # atno 17394 bound_to 11000
  140.2638  134.8446  157.3783 LP  0  0  0  0  0  0  0  0  0  0  0  0  # atno 17395 bound_to 11000

$$$$
