AV-unprocessed.smi:677|AV-procd|sdf|3311|dock6
  -GOLD-   22720 0273D 1   1.00000     0.00000
 Structure written by MMmdl.
 43 44  0  0  0  0  0  0  0  0  1 V2000
  152.3039  144.1822  161.4717 C   0  0  0  0  0  0  0  0  0  0  0  0
  151.9601  143.5956  160.1185 C   0  0  0  0  0  0  0  0  0  0  0  0
  152.3445  142.2789  159.7909 C   0  0  0  0  0  0  0  0  0  0  0  0
  152.0025  141.7763  158.5207 C   0  0  0  0  0  0  0  0  0  0  0  0
  151.2925  142.6071  157.6294 C   0  0  0  0  0  0  0  0  0  0  0  0
  150.8758  142.1029  156.2592 C   0  0  0  0  0  0  0  0  0  0  0  0
  149.5288  141.3891  156.3640 C   0  0  0  0  0  0  0  0  0  0  0  0
  149.3880  140.4537  157.1511 O   0  0  0  0  0  0  0  0  0  0  0  0
  148.5421  141.8678  155.5900 N   0  0  0  0  0  0  0  0  0  0  0  0
  147.1463  141.4451  155.6354 C   0  0  0  0  0  0  0  0  0  0  0  0
  146.1869  142.6347  155.4263 C   0  0  0  0  0  0  0  0  0  0  0  0
  144.8507  142.4827  156.1794 C   0  0  0  0  0  0  0  0  0  0  0  0
  143.9025  143.6565  155.8786 C   0  0  0  0  0  0  0  0  0  0  0  0
  143.6430  143.7496  154.4398 N   0  0  0  0  0  0  0  0  0  0  0  0
  142.7116  144.8391  154.1673 C   0  0  0  0  0  0  0  0  0  0  0  0
  143.2231  146.1464  154.6124 C   0  0  0  0  0  0  0  0  0  0  0  0
  143.6243  147.1737  154.9626 N   0  0  0  0  0  0  0  0  0  0  0  0
  144.8946  144.0129  153.7294 C   0  0  0  0  0  0  0  0  0  0  0  0
  145.8822  142.8509  153.9349 C   0  0  0  0  0  0  0  0  0  0  0  0
  150.9609  143.9116  158.0537 C   0  0  0  0  0  0  0  0  0  0  0  0
  151.2834  144.4010  159.2700 N   0  0  0  0  0  0  0  0  0  0  0  0
  152.2045  143.4274  162.2524 H   0  0  0  0  0  0  0  0  0  0  0  0
  151.6459  145.0154  161.7220 H   0  0  0  0  0  0  0  0  0  0  0  0
  153.3321  144.5443  161.4734 H   0  0  0  0  0  0  0  0  0  0  0  0
  152.8860  141.6660  160.4964 H   0  0  0  0  0  0  0  0  0  0  0  0
  152.2738  140.7691  158.2399 H   0  0  0  0  0  0  0  0  0  0  0  0
  150.8063  142.9341  155.5561 H   0  0  0  0  0  0  0  0  0  0  0  0
  151.6308  141.4182  155.8701 H   0  0  0  0  0  0  0  0  0  0  0  0
  148.7614  142.6358  154.9722 H   0  0  0  0  0  0  0  0  0  0  0  0
  146.9988  140.7107  154.8431 H   0  0  0  0  0  0  0  0  0  0  0  0
  146.9166  140.9317  156.5705 H   0  0  0  0  0  0  0  0  0  0  0  0
  146.6813  143.5332  155.7996 H   0  0  0  0  0  0  0  0  0  0  0  0
  144.3715  141.5426  155.9025 H   0  0  0  0  0  0  0  0  0  0  0  0
  145.0214  142.4369  157.2552 H   0  0  0  0  0  0  0  0  0  0  0  0
  142.9662  143.5023  156.4153 H   0  0  0  0  0  0  0  0  0  0  0  0
  144.3296  144.5915  156.2447 H   0  0  0  0  0  0  0  0  0  0  0  0
  142.4763  144.8976  153.1037 H   0  0  0  0  0  0  0  0  0  0  0  0
  141.7761  144.6694  154.7016 H   0  0  0  0  0  0  0  0  0  0  0  0
  144.6898  144.1281  152.6645 H   0  0  0  0  0  0  0  0  0  0  0  0
  145.3326  144.9509  154.0743 H   0  0  0  0  0  0  0  0  0  0  0  0
  146.8054  143.0567  153.3921 H   0  0  0  0  0  0  0  0  0  0  0  0
  145.4671  141.9391  153.5027 H   0  0  0  0  0  0  0  0  0  0  0  0
  150.4123  144.5773  157.4038 H   0  0  0  0  0  0  0  0  0  0  0  0
  1  2  1  0  0  0  0
  1 22  1  0  0  0  0
  1 23  1  0  0  0  0
  1 24  1  0  0  0  0
  2 21  1  0  0  0  0
  2  3  2  0  0  0  0
  3  4  1  0  0  0  0
  3 25  1  0  0  0  0
  4  5  2  0  0  0  0
  4 26  1  0  0  0  0
  5  6  1  0  0  0  0
  5 20  1  0  0  0  0
  6  7  1  0  0  0  0
  6 27  1  0  0  0  0
  6 28  1  0  0  0  0
  7  8  2  0  0  0  0
  7  9  1  0  0  0  0
  9 10  1  0  0  0  0
  9 29  1  0  0  0  0
 10 11  1  0  0  0  0
 10 30  1  0  0  0  0
 10 31  1  0  0  0  0
 11 19  1  0  0  0  0
 11 12  1  0  0  0  0
 11 32  1  0  0  0  0
 12 13  1  0  0  0  0
 12 33  1  0  0  0  0
 12 34  1  0  0  0  0
 13 14  1  0  0  0  0
 13 35  1  0  0  0  0
 13 36  1  0  0  0  0
 14 15  1  0  0  0  0
 14 18  1  0  0  0  0
 15 16  1  0  0  0  0
 15 37  1  0  0  0  0
 15 38  1  0  0  0  0
 16 17  3  0  0  0  0
 18 19  1  0  0  0  0
 18 39  1  0  0  0  0
 18 40  1  0  0  0  0
 19 41  1  0  0  0  0
 19 42  1  0  0  0  0
 20 21  2  0  0  0  0
 20 43  1  0  0  0  0
M  END
> <s_m_source_file>
AV-unprocessed.smi

> <i_m_source_file_index>
677

> <i_lp_mmshare_version>
43012

> <i_f3d_flags>
0

> <s_epik_input>
W0NIM11jMVtjSF1bY0hdYyhbY0hdbjEpW0NIMl1DKD1PKVtOSF1bQ0gyXVtDSF0yW0NIMl1bQ0gyXU4oW0NIMl1DI04pW0NIMl1bQ0gyXTI=

> <s_epik_cmdline>
J2VwaWtfcHl0aG9uJywgJy1waCcsICc3LjAnLCAnLXRuJywgJzgnLCAnLW1hJywgJzIwMCcsICctbWV0YWxfYmluZGluZycsICctaW1hZScsICc8aW5maWxlLm1hZT4nLCAnLW9tYWUnLCAnPG91dGZpbGUubWFlPic=

> <r_epik_Ionization_Penalty>
0.0175809

> <r_epik_Ionization_Penalty_Charging>
0

> <r_epik_Ionization_Penalty_Neutral>
0.0175809

> <r_epik_State_Penalty>
0.0130795

> <r_epik_Charging_Adjusted_Penalty>
0.0130795

> <i_epik_Tot_Q>
0

> <i_epik_Tot_abs_Q>
0

> <r_epik_Metal_State_Penalty>
0.0127214

> <b_epik_Metal_Only>
0

> <s_lp_Force_Field>
OPLS_2005

> <r_lp_Energy>
13.8767

> <b_lp_Chiralities_Consistent>
1

> <s_lp_Variant>
AV-unprocessed.smi:677-1

> <Gold.Version>
5.8.1

> <Gold.Id.Protein>
6NUR|6NUR_protein|mol2

> <Gold.PLP.Fitness>
44.1336

> <Gold.PLP.PLP>
-41.3196

> <Gold.PLP.part.hbond>
-2.0000

> <Gold.PLP.part.metal>
0.0000

> <Gold.PLP.part.buried>
-7.6021

> <Gold.PLP.part.nonpolar>
-31.4921

> <Gold.PLP.part.repulsive>
0.3498

> <Gold.PLP.ligand.clash>
0.0000

> <Gold.PLP.ligand.torsion>
0.9178

> <Gold.PLP.Chemscore.Hbond>
0.5392

> <Gold.PLP.Chemscore.CHOScore>
1.0000

> <Gold.PLP.Chemscore.Metal>
0.0000

> <Gold.Chemscore.Hbonds>
donor molecule, donor type, donor heavy atom, donor atom, acceptor molecule, acceptor atom, score
      L1  H     9    29       P1  8028  0.29
      L1  C    20    43       P1  8028  1.00

> <Gold.PLP.Chemscore.Internal.Correction>
0.0318

> <Gold.Rescore>
     Score         DG    S(hbond)    S(metal)    S(lipo)     H(rot)  DE(clash)    DE(int)     intcor
     14.72     -15.64       0.93        0.00      99.02       1.78       0.02       0.90       ----

> <Gold.Chemscore.Fitness>
14.7207

> <Gold.Chemscore.DG>
-15.6403

> <Gold.Chemscore.ZeroCoef>
-5.4800

> <Gold.Chemscore.Hbond>
0.9337

> <Gold.Chemscore.Metal>
0.0000

> <Gold.Chemscore.Lipo>
99.0247

> <Gold.Chemscore.Internal_Hbond>
0.0000

> <Gold.Chemscore.DEClash>
0.0179

> <Gold.Chemscore.DEInternal>
0.9016

> <Gold.Chemscore.Rot>
1.7751

> <Gold.Chemscore.Internal.Correction>
   9.000000E+99

> <Gold.Chemscore.Hbonds>
donor molecule, donor type, donor heavy atom, donor atom, acceptor molecule, acceptor atom, score
      L1  H     9    29       P1  8028  0.30

> <Gold.Chemscore.Hbond.Weighted>
-3.1186

> <Gold.Chemscore.Metal.Weighted>
-0.0000

> <Gold.Chemscore.Lipo.Weighted>
-11.5859

> <Gold.Chemscore.Internal_Hbond.Weighted>
0.0000

> <Gold.Chemscore.DEClash.Weighted>
0.0179

> <Gold.Chemscore.DEInternal.Weighted>
0.9016

> <Gold.Chemscore.Rot.Weighted>
4.5442

> <Gold.Chemscore.Internal.Correction.Weighted>
   9.000000E+99

> <Gold.Protein.RotatedTorsions>
[ 6907 6896 6895 6894 ] final  -55.54 input  -60.11 | X-H torsion
[ 7974 7965 7964 7962 ] final  -34.48 input  175.53 | X-H torsion
[ 8008 7997 7996 7995 ] final  -40.09 input   59.86 | X-H torsion
[ 10167 10162 10161 10158 ] final   47.69 input  -65.29 | X-H torsion
[ 10718 10713 10712 10709 ] final -154.22 input   66.30 | X-H torsion
[ 10763 10752 10751 10750 ] final    8.40 input  -60.55 | X-H torsion
[ 11005 11000 10999 10996 ] final -134.54 input  -57.11 | X-H torsion

> <Gold.Protein.ActiveResidues>
 VAL166  LYS551  ARG553  GLY616  TRP617  ASP618  TYR619  PRO620  LYS621  CYS622 
 ASP623  PHE694  ASN695  SER759  ASP760  ASP761  ALA762  ILE779  LEU786  VAL792 
 PHE793  MET794  SER795  GLU796  ALA797  LYS798  CYS799  TRP800  GLU811  SER814 

> <Gold.Protein.RotatedAtoms>
  150.8243  134.7466  159.6798 H   0  0  0  0  0  0  0  0  0  0  0  0  # atno 6907 bound_to 6896
  152.4355  134.5691  159.9926 H   0  0  0  0  0  0  0  0  0  0  0  0  # atno 6908 bound_to 6896
  151.5867  133.3334  159.3055 H   0  0  0  0  0  0  0  0  0  0  0  0  # atno 6909 bound_to 6896
  146.0826  140.6043  142.8901 H   0  0  0  0  0  0  0  0  0  0  0  0  # atno 7974 bound_to 7965
  154.4015  140.1534  156.2971 H   0  0  0  0  0  0  0  0  0  0  0  0  # atno 8008 bound_to 7997
  155.8734  140.3447  155.5815 H   0  0  0  0  0  0  0  0  0  0  0  0  # atno 8009 bound_to 7997
  155.7749  140.0835  157.2080 H   0  0  0  0  0  0  0  0  0  0  0  0  # atno 8010 bound_to 7997
  140.3011  144.2933  150.6219 H   0  0  0  0  0  0  0  0  0  0  0  0  # atno 10167 bound_to 10162
  156.4964  130.8371  151.2591 H   0  0  0  0  0  0  0  0  0  0  0  0  # atno 10718 bound_to 10713
  153.2255  135.6886  153.7950 H   0  0  0  0  0  0  0  0  0  0  0  0  # atno 10763 bound_to 10752
  153.7134  135.3278  155.3252 H   0  0  0  0  0  0  0  0  0  0  0  0  # atno 10764 bound_to 10752
  154.8289  135.4596  154.1119 H   0  0  0  0  0  0  0  0  0  0  0  0  # atno 10765 bound_to 10752
  140.8980  134.1726  157.4481 H   0  0  0  0  0  0  0  0  0  0  0  0  # atno 11005 bound_to 11000
  144.7304  140.4653  143.6942 LP  0  0  0  0  0  0  0  0  0  0  0  0  # atno 17320 bound_to 7965
  145.6189  139.1522  143.3033 LP  0  0  0  0  0  0  0  0  0  0  0  0  # atno 17321 bound_to 7965
  140.5650  143.2187  151.7699 LP  0  0  0  0  0  0  0  0  0  0  0  0  # atno 17342 bound_to 10162
  139.4915  144.4296  151.9887 LP  0  0  0  0  0  0  0  0  0  0  0  0  # atno 17343 bound_to 10162
  157.7468  130.9996  150.2897 LP  0  0  0  0  0  0  0  0  0  0  0  0  # atno 17370 bound_to 10713
  156.3376  130.3810  149.7436 LP  0  0  0  0  0  0  0  0  0  0  0  0  # atno 17371 bound_to 10713
  139.8738  134.9886  156.5421 LP  0  0  0  0  0  0  0  0  0  0  0  0  # atno 17394 bound_to 11000
  140.8265  133.8313  155.8944 LP  0  0  0  0  0  0  0  0  0  0  0  0  # atno 17395 bound_to 11000

$$$$
