AV-unprocessed.smi:3234|AV-procd|sdf|12359|dock3
  -GOLD-   2272018223D 1   1.00000     0.00000
 Structure written by MMmdl.
 37 39  0  0  0  0  0  0  0  0  4 V2000
  151.5631  137.6204  155.9978 O   0  0  0  0  0  0  0  0  0  0  0  0
  150.9260  137.1040  155.0726 C   0  0  0  0  0  0  0  0  0  0  0  0
  150.0713  137.8429  154.3430 N   0  0  0  0  0  0  0  0  0  0  0  0
  149.7325  139.2140  154.4936 C   0  0  0  0  0  0  0  0  0  0  0  0
  148.5231  139.6626  153.9185 C   0  0  0  0  0  0  0  0  0  0  0  0
  148.1436  141.0122  154.0658 C   0  0  0  0  0  0  0  0  0  0  0  0
  148.9291  141.8596  154.7648 N   0  3  0  0  0  0  0  0  0  0  0  0
  150.0835  141.4718  155.3486 C   0  0  0  0  0  0  0  0  0  0  0  0
  150.5150  140.1347  155.2349 C   0  0  0  0  0  0  0  0  0  0  0  0
  150.9820  135.8124  154.6478 N   0  5  0  0  0  0  0  0  0  0  0  0
  150.0692  134.7493  155.0812 C   0  0  1  0  0  0  0  0  0  0  0  0
  148.7232  135.3385  155.5548 C   0  0  0  0  0  0  0  0  0  0  0  0
  147.6523  134.6485  154.7070 C   0  0  0  0  0  0  0  0  0  0  0  0
  148.3504  134.2431  153.4754 N   0  3  2  0  0  0  0  0  0  0  0  0
  147.6336  133.2284  152.6743 C   0  0  0  0  0  0  0  0  0  0  0  0
  146.1348  133.2697  152.8515 C   0  0  0  0  0  0  0  0  0  0  0  0
  146.9468  132.1755  153.5106 C   0  0  0  0  0  0  0  0  0  0  0  0
  149.7072  133.8441  153.8914 C   0  0  0  0  0  0  0  0  0  0  0  0
  149.6752  137.3794  153.5384 H   0  0  0  0  0  0  0  0  0  0  0  0
  147.8952  138.9821  153.3618 H   0  0  0  0  0  0  0  0  0  0  0  0
  147.2405  141.4351  153.6505 H   0  0  0  0  0  0  0  0  0  0  0  0
  150.6211  142.2351  155.8917 H   0  0  0  0  0  0  0  0  0  0  0  0
  151.4288  139.8331  155.7250 H   0  0  0  0  0  0  0  0  0  0  0  0
  150.5039  134.1316  155.8684 H   0  0  0  0  0  0  0  0  0  0  0  0
  148.5584  135.1743  156.6201 H   0  0  0  0  0  0  0  0  0  0  0  0
  148.6756  136.4161  155.3871 H   0  0  0  0  0  0  0  0  0  0  0  0
  147.2705  133.7650  155.2239 H   0  0  0  0  0  0  0  0  0  0  0  0
  146.8057  135.3016  154.4923 H   0  0  0  0  0  0  0  0  0  0  0  0
  148.0677  132.9746  151.7088 H   0  0  0  0  0  0  0  0  0  0  0  0
  145.7139  134.0412  153.4940 H   0  0  0  0  0  0  0  0  0  0  0  0
  145.5210  132.9898  151.9980 H   0  0  0  0  0  0  0  0  0  0  0  0
  146.8673  131.1747  153.0915 H   0  0  0  0  0  0  0  0  0  0  0  0
  147.0644  132.2193  154.5918 H   0  0  0  0  0  0  0  0  0  0  0  0
  150.4122  133.9050  153.0606 H   0  0  0  0  0  0  0  0  0  0  0  0
  149.6864  132.8049  154.2242 H   0  0  0  0  0  0  0  0  0  0  0  0
  148.4581  135.0756  152.9138 H   0  0  0  0  0  0  0  0  0  0  0  0
  148.6358  142.8320  154.8610 H   0  0  0  0  0  0  0  0  0  0  0  0
  1  2  2  0  0  0  0
  2  3  1  0  0  0  0
  2 10  1  0  0  0  0
  3  4  1  0  0  0  0
  3 19  1  0  0  0  0
  4  9  1  0  0  0  0
  4  5  2  0  0  0  0
  5  6  1  0  0  0  0
  5 20  1  0  0  0  0
  6  7  2  0  0  0  0
  6 21  1  0  0  0  0
  7  8  1  0  0  0  0
  7 37  1  0  0  0  0
  8  9  2  0  0  0  0
  8 22  1  0  0  0  0
  9 23  1  0  0  0  0
 10 11  1  0  0  0  0
 11 18  1  0  0  0  0
 11 12  1  0  0  0  0
 11 24  1  0  0  0  0
 12 13  1  0  0  0  0
 12 25  1  0  0  0  0
 12 26  1  0  0  0  0
 13 14  1  0  0  0  0
 13 27  1  0  0  0  0
 13 28  1  0  0  0  0
 14 15  1  0  0  0  0
 14 18  1  0  0  0  0
 14 36  1  0  0  0  0
 15 17  1  0  0  0  0
 15 16  1  0  0  0  0
 15 29  1  0  0  0  0
 16 17  1  0  0  0  0
 16 30  1  0  0  0  0
 16 31  1  0  0  0  0
 17 32  1  0  0  0  0
 17 33  1  0  0  0  0
 18 34  1  0  0  0  0
 18 35  1  0  0  0  0
M  CHG  1   7   1
M  CHG  1  10  -1
M  CHG  1  14   1
M  END
> <s_m_source_file>
AV-unprocessed.smi

> <i_m_source_file_index>
3234

> <i_lp_mmshare_version>
43012

> <i_f3d_flags>
0

> <s_epik_input>
W2NIXTFbY0hdbltjSF1bY0hdYzFbTkhdQyg9TylbTkhdW0NAQEhdMltDSDJdW0NIMl1OKFtDSDJdMilbQ0hdM1tDSDJdW0NIMl0z

> <s_epik_cmdline>
J2VwaWtfcHl0aG9uJywgJy1waCcsICc3LjAnLCAnLXRuJywgJzgnLCAnLW1hJywgJzIwMCcsICctbWV0YWxfYmluZGluZycsICctaW1hZScsICc8aW5maWxlLm1hZT4nLCAnLW9tYWUnLCAnPG91dGZpbGUubWFlPic=

> <r_epik_Ionization_Penalty>
8.3234

> <r_epik_Ionization_Penalty_Charging>
8.3234

> <r_epik_Ionization_Penalty_Neutral>
3.58513e-06

> <r_epik_State_Penalty>
7.99376

> <r_epik_Charging_Adjusted_Penalty>
16.3172

> <i_epik_Tot_Q>
1

> <i_epik_Tot_abs_Q>
3

> <r_epik_Metal_State_Penalty>
3.98956

> <b_epik_Metal_Only>
1

> <s_lp_Force_Field>
OPLS_2005

> <r_lp_Energy>
40.8025

> <b_lp_Chiralities_Consistent>
1

> <s_lp_Variant>
AV-unprocessed.smi:3234-12

> <Gold.Version>
5.8.1

> <Gold.Id.Protein>
6NUR|6NUR_protein|mol2

> <Gold.PLP.Fitness>
45.6099

> <Gold.PLP.PLP>
-27.7677

> <Gold.PLP.part.hbond>
-3.5718

> <Gold.PLP.part.metal>
0.0000

> <Gold.PLP.part.buried>
-0.8476

> <Gold.PLP.part.nonpolar>
-22.4546

> <Gold.PLP.part.repulsive>
0.4369

> <Gold.PLP.ligand.clash>
0.0000

> <Gold.PLP.ligand.torsion>
1.7725

> <Gold.PLP.Chemscore.Hbond>
6.6988

> <Gold.PLP.Chemscore.CHOScore>
0.0000

> <Gold.PLP.Chemscore.Metal>
0.0000

> <Gold.Chemscore.Hbonds>
donor molecule, donor type, donor heavy atom, donor atom, acceptor molecule, acceptor atom, score
      L1  H     3    19       P1  7948  0.76
      L1  H     7    37       P1  8028  1.92
      L1  H    14    36       P1  7948  2.00
      P1  H 10752 10763       L1    10  2.00

> <Gold.PLP.Chemscore.Internal.Correction>
1.2909

> <Gold.Rescore>
     Score         DG    S(hbond)    S(metal)    S(lipo)     H(rot)  DE(clash)    DE(int)     intcor
     15.99     -19.44       2.84        0.00      64.67       1.21       0.33       3.12       ----

> <Gold.Chemscore.Fitness>
15.9945

> <Gold.Chemscore.DG>
-19.4418

> <Gold.Chemscore.ZeroCoef>
-5.4800

> <Gold.Chemscore.Hbond>
2.8428

> <Gold.Chemscore.Metal>
0.0000

> <Gold.Chemscore.Lipo>
64.6687

> <Gold.Chemscore.Internal_Hbond>
0.0000

> <Gold.Chemscore.DEClash>
0.3265

> <Gold.Chemscore.DEInternal>
3.1207

> <Gold.Chemscore.Rot>
1.2108

> <Gold.Chemscore.Internal.Correction>
   9.000000E+99

> <Gold.Chemscore.Hbonds>
donor molecule, donor type, donor heavy atom, donor atom, acceptor molecule, acceptor atom, score
      L1  H     3    19       P1  7948  0.60
      L1  H     7    37       P1  8028  0.88
      L1  H    14    36       P1  7948  0.74
      P1  H 10752 10763       L1    10  0.25

> <Gold.Chemscore.Hbond.Weighted>
-9.4951

> <Gold.Chemscore.Metal.Weighted>
-0.0000

> <Gold.Chemscore.Lipo.Weighted>
-7.5662

> <Gold.Chemscore.Internal_Hbond.Weighted>
0.0000

> <Gold.Chemscore.DEClash.Weighted>
0.3265

> <Gold.Chemscore.DEInternal.Weighted>
3.1207

> <Gold.Chemscore.Rot.Weighted>
3.0996

> <Gold.Chemscore.Internal.Correction.Weighted>
   9.000000E+99

> <Gold.Protein.RotatedTorsions>
[ 6907 6896 6895 6894 ] final  114.97 input  -60.11 | X-H torsion
[ 7974 7965 7964 7962 ] final   81.56 input  175.53 | X-H torsion
[ 8008 7997 7996 7995 ] final  -35.13 input   59.86 | X-H torsion
[ 10167 10162 10161 10158 ] final   62.11 input  -65.29 | X-H torsion
[ 10718 10713 10712 10709 ] final  135.17 input   66.30 | X-H torsion
[ 10763 10752 10751 10750 ] final   61.41 input  -60.55 | X-H torsion
[ 11005 11000 10999 10996 ] final  145.85 input  -57.11 | X-H torsion

> <Gold.Protein.ActiveResidues>
 VAL166  LYS551  ARG553  GLY616  TRP617  ASP618  TYR619  PRO620  LYS621  CYS622 
 ASP623  PHE694  ASN695  SER759  ASP760  ASP761  ALA762  ILE779  LEU786  VAL792 
 PHE793  MET794  SER795  GLU796  ALA797  LYS798  CYS799  TRP800  GLU811  SER814 

> <Gold.Protein.RotatedAtoms>
  152.4770  133.8162  159.7029 H   0  0  0  0  0  0  0  0  0  0  0  0  # atno 6907 bound_to 6896
  150.8794  133.7384  159.2943 H   0  0  0  0  0  0  0  0  0  0  0  0  # atno 6908 bound_to 6896
  151.4893  135.1060  159.9851 H   0  0  0  0  0  0  0  0  0  0  0  0  # atno 6909 bound_to 6896
  145.6366  139.2416  143.2054 H   0  0  0  0  0  0  0  0  0  0  0  0  # atno 7974 bound_to 7965
  154.4103  140.1665  156.2162 H   0  0  0  0  0  0  0  0  0  0  0  0  # atno 8008 bound_to 7997
  155.9402  140.3408  155.6298 H   0  0  0  0  0  0  0  0  0  0  0  0  # atno 8009 bound_to 7997
  155.6998  140.0744  157.2405 H   0  0  0  0  0  0  0  0  0  0  0  0  # atno 8010 bound_to 7997
  140.1475  144.4495  150.6777 H   0  0  0  0  0  0  0  0  0  0  0  0  # atno 10167 bound_to 10162
  157.4597  131.1072  150.9934 H   0  0  0  0  0  0  0  0  0  0  0  0  # atno 10718 bound_to 10713
  152.9950  135.5501  154.6030 H   0  0  0  0  0  0  0  0  0  0  0  0  # atno 10763 bound_to 10752
  154.5367  135.2817  155.1134 H   0  0  0  0  0  0  0  0  0  0  0  0  # atno 10764 bound_to 10752
  154.2428  135.6413  153.5265 H   0  0  0  0  0  0  0  0  0  0  0  0  # atno 10765 bound_to 10752
  140.0745  134.9132  157.1400 H   0  0  0  0  0  0  0  0  0  0  0  0  # atno 11005 bound_to 11000
  146.1314  140.7180  142.9410 LP  0  0  0  0  0  0  0  0  0  0  0  0  # atno 17320 bound_to 7965
  144.7173  140.4254  143.7034 LP  0  0  0  0  0  0  0  0  0  0  0  0  # atno 17321 bound_to 7965
  140.6723  143.2290  151.5595 LP  0  0  0  0  0  0  0  0  0  0  0  0  # atno 17342 bound_to 10162
  139.5442  144.2566  152.1410 LP  0  0  0  0  0  0  0  0  0  0  0  0  # atno 17343 bound_to 10162
  157.0736  130.5874  149.5407 LP  0  0  0  0  0  0  0  0  0  0  0  0  # atno 17370 bound_to 10713
  156.0023  130.5104  150.7708 LP  0  0  0  0  0  0  0  0  0  0  0  0  # atno 17371 bound_to 10713
  140.3578  134.2528  155.7190 LP  0  0  0  0  0  0  0  0  0  0  0  0  # atno 17394 bound_to 11000
  141.2024  133.7938  157.0391 LP  0  0  0  0  0  0  0  0  0  0  0  0  # atno 17395 bound_to 11000

$$$$
