AV-unprocessed.smi:579|AV-procd|sdf|2987|dock6
  -GOLD-   2262023493D 1   1.00000     0.00000
 Structure written by MMmdl.
 26 27  0  0  0  0  0  0  0  0  1 V2000
  150.1057  142.1285  155.5929 N   0  0  0  0  0  0  0  0  0  0  0  0
  150.7178  141.9582  156.8337 C   0  0  0  0  0  0  0  0  0  0  0  0
  151.1558  140.6869  157.2535 C   0  0  0  0  0  0  0  0  0  0  0  0
  151.7693  140.5636  158.5149 C   0  0  0  0  0  0  0  0  0  0  0  0
  151.9216  141.7182  159.3112 C   0  0  0  0  0  0  0  0  0  0  0  0
  152.5338  141.6007  160.5670 N   0  0  0  0  0  0  0  0  0  0  0  0
  153.8345  140.9447  160.5175 C   0  0  0  0  0  0  0  0  0  0  0  0
  154.3768  140.7437  161.9432 C   0  0  0  0  0  0  0  0  0  0  0  0
  154.4265  141.9982  162.6173 O   0  0  0  0  0  0  0  0  0  0  0  0
  153.1391  142.5996  162.7254 C   0  0  0  0  0  0  0  0  0  0  0  0
  152.5667  142.8487  161.3194 C   0  0  0  0  0  0  0  0  0  0  0  0
  151.5012  142.9426  158.9107 N   0  0  0  0  0  0  0  0  0  0  0  0
  150.9143  143.0532  157.6997 C   0  0  0  0  0  0  0  0  0  0  0  0
  149.7878  143.0351  155.2814 H   0  0  0  0  0  0  0  0  0  0  0  0
  149.9673  141.3524  154.9612 H   0  0  0  0  0  0  0  0  0  0  0  0
  151.0261  139.8194  156.6229 H   0  0  0  0  0  0  0  0  0  0  0  0
  152.1152  139.6011  158.8626 H   0  0  0  0  0  0  0  0  0  0  0  0
  153.7449  139.9829  160.0112 H   0  0  0  0  0  0  0  0  0  0  0  0
  154.5326  141.5514  159.9388 H   0  0  0  0  0  0  0  0  0  0  0  0
  153.7530  140.0435  162.5013 H   0  0  0  0  0  0  0  0  0  0  0  0
  155.3800  140.3190  161.9078 H   0  0  0  0  0  0  0  0  0  0  0  0
  152.4747  141.9594  163.3081 H   0  0  0  0  0  0  0  0  0  0  0  0
  153.2307  143.5411  163.2669 H   0  0  0  0  0  0  0  0  0  0  0  0
  153.1817  143.5813  160.7950 H   0  0  0  0  0  0  0  0  0  0  0  0
  151.5604  143.2633  161.3919 H   0  0  0  0  0  0  0  0  0  0  0  0
  150.5935  144.0452  157.4166 H   0  0  0  0  0  0  0  0  0  0  0  0
  1  2  1  0  0  0  0
  1 14  1  0  0  0  0
  1 15  1  0  0  0  0
  2 13  1  0  0  0  0
  2  3  2  0  0  0  0
  3  4  1  0  0  0  0
  3 16  1  0  0  0  0
  4  5  2  0  0  0  0
  4 17  1  0  0  0  0
  5  6  1  0  0  0  0
  5 12  1  0  0  0  0
  6 11  1  0  0  0  0
  6  7  1  0  0  0  0
  7  8  1  0  0  0  0
  7 18  1  0  0  0  0
  7 19  1  0  0  0  0
  8  9  1  0  0  0  0
  8 20  1  0  0  0  0
  8 21  1  0  0  0  0
  9 10  1  0  0  0  0
 10 11  1  0  0  0  0
 10 22  1  0  0  0  0
 10 23  1  0  0  0  0
 11 24  1  0  0  0  0
 11 25  1  0  0  0  0
 12 13  2  0  0  0  0
 13 26  1  0  0  0  0
M  END
> <s_m_source_file>
AV-unprocessed.smi

> <i_m_source_file_index>
579

> <i_lp_mmshare_version>
43012

> <i_f3d_flags>
0

> <s_epik_input>
W05IMl1jMVtjSF1bY0hdYyhuW2NIXTEpTjJbQ0gyXVtDSDJdT1tDSDJdW0NIMl0y

> <s_epik_cmdline>
J2VwaWtfcHl0aG9uJywgJy1waCcsICc3LjAnLCAnLXRuJywgJzgnLCAnLW1hJywgJzIwMCcsICctbWV0YWxfYmluZGluZycsICctaW1hZScsICc8aW5maWxlLm1hZT4nLCAnLW9tYWUnLCAnPG91dGZpbGUubWFlPic=

> <r_lp_tautomer_probability>
1

> <r_epik_Ionization_Penalty>
0.00957298

> <r_epik_Ionization_Penalty_Charging>
0

> <r_epik_Ionization_Penalty_Neutral>
0.00957298

> <r_epik_State_Penalty>
0.00726246

> <r_epik_Charging_Adjusted_Penalty>
0.00726246

> <i_epik_Tot_Q>
0

> <i_epik_Tot_abs_Q>
0

> <r_epik_Metal_State_Penalty>
7.30711e-06

> <b_epik_Metal_Only>
0

> <s_lp_Force_Field>
OPLS_2005

> <r_lp_Energy>
21.013

> <b_lp_Chiralities_Consistent>
1

> <s_lp_Variant>
AV-unprocessed.smi:579-1

> <Gold.Version>
5.8.1

> <Gold.Id.Protein>
6NUR|6NUR_protein|mol2

> <Gold.PLP.Fitness>
33.9934

> <Gold.PLP.PLP>
-28.0094

> <Gold.PLP.part.hbond>
-2.0000

> <Gold.PLP.part.metal>
0.0000

> <Gold.PLP.part.buried>
-2.2581

> <Gold.PLP.part.nonpolar>
-23.3971

> <Gold.PLP.part.repulsive>
0.2006

> <Gold.PLP.ligand.clash>
0.0000

> <Gold.PLP.ligand.torsion>
0.0572

> <Gold.PLP.Chemscore.Hbond>
1.0000

> <Gold.PLP.Chemscore.CHOScore>
0.9987

> <Gold.PLP.Chemscore.Metal>
0.0000

> <Gold.Chemscore.Hbonds>
donor molecule, donor type, donor heavy atom, donor atom, acceptor molecule, acceptor atom, score
      L1  H     1    14       P1  8028  1.00
      L1  C    13    26       P1  8028  1.00

> <Gold.PLP.Chemscore.Internal.Correction>
0.1023

> <Gold.Rescore>
     Score         DG    S(hbond)    S(metal)    S(lipo)     H(rot)  DE(clash)    DE(int)     intcor
     13.14     -14.44       1.00        0.00      70.01       1.00       1.24       0.06       ----

> <Gold.Chemscore.Fitness>
13.1422

> <Gold.Chemscore.DG>
-14.4439

> <Gold.Chemscore.ZeroCoef>
-5.4800

> <Gold.Chemscore.Hbond>
0.9978

> <Gold.Chemscore.Metal>
0.0000

> <Gold.Chemscore.Lipo>
70.0095

> <Gold.Chemscore.Internal_Hbond>
0.0000

> <Gold.Chemscore.DEClash>
1.2424

> <Gold.Chemscore.DEInternal>
0.0593

> <Gold.Chemscore.Rot>
1.0000

> <Gold.Chemscore.Internal.Correction>
   9.000000E+99

> <Gold.Chemscore.Hbonds>
donor molecule, donor type, donor heavy atom, donor atom, acceptor molecule, acceptor atom, score
      L1  H     1    14       P1  8028  0.94

> <Gold.Chemscore.Hbond.Weighted>
-3.3327

> <Gold.Chemscore.Metal.Weighted>
-0.0000

> <Gold.Chemscore.Lipo.Weighted>
-8.1911

> <Gold.Chemscore.Internal_Hbond.Weighted>
0.0000

> <Gold.Chemscore.DEClash.Weighted>
1.2424

> <Gold.Chemscore.DEInternal.Weighted>
0.0593

> <Gold.Chemscore.Rot.Weighted>
2.5600

> <Gold.Chemscore.Internal.Correction.Weighted>
   9.000000E+99

> <Gold.Protein.RotatedTorsions>
[ 6907 6896 6895 6894 ] final  161.84 input  -60.11 | X-H torsion
[ 7974 7965 7964 7962 ] final   36.25 input  175.53 | X-H torsion
[ 8008 7997 7996 7995 ] final -166.53 input   59.86 | X-H torsion
[ 10167 10162 10161 10158 ] final  168.31 input  -65.29 | X-H torsion
[ 10718 10713 10712 10709 ] final  160.14 input   66.30 | X-H torsion
[ 10763 10752 10751 10750 ] final  -15.19 input  -60.55 | X-H torsion
[ 11005 11000 10999 10996 ] final  -75.36 input  -57.11 | X-H torsion

> <Gold.Protein.ActiveResidues>
 VAL166  LYS551  ARG553  GLY616  TRP617  ASP618  TYR619  PRO620  LYS621  CYS622 
 ASP623  PHE694  ASN695  SER759  ASP760  ASP761  ALA762  ILE779  LEU786  VAL792 
 PHE793  MET794  SER795  GLU796  ALA797  LYS798  CYS799  TRP800  GLU811  SER814 

> <Gold.Protein.RotatedAtoms>
  151.9495  133.3662  159.3994 H   0  0  0  0  0  0  0  0  0  0  0  0  # atno 6907 bound_to 6896
  150.6983  134.4355  159.5277 H   0  0  0  0  0  0  0  0  0  0  0  0  # atno 6908 bound_to 6896
  152.2025  134.8574  160.0557 H   0  0  0  0  0  0  0  0  0  0  0  0  # atno 6909 bound_to 6896
  146.1225  139.6041  142.9280 H   0  0  0  0  0  0  0  0  0  0  0  0  # atno 7974 bound_to 7965
  155.8651  140.0984  157.1587 H   0  0  0  0  0  0  0  0  0  0  0  0  # atno 8008 bound_to 7997
  154.3993  140.1357  156.4071 H   0  0  0  0  0  0  0  0  0  0  0  0  # atno 8009 bound_to 7997
  155.7813  140.3458  155.5301 H   0  0  0  0  0  0  0  0  0  0  0  0  # atno 8010 bound_to 7997
  139.4965  144.3828  151.9603 H   0  0  0  0  0  0  0  0  0  0  0  0  # atno 10167 bound_to 10162
  157.1544  131.0572  151.2264 H   0  0  0  0  0  0  0  0  0  0  0  0  # atno 10718 bound_to 10713
  153.5395  135.7013  153.5643 H   0  0  0  0  0  0  0  0  0  0  0  0  # atno 10763 bound_to 10752
  153.3615  135.3968  155.1722 H   0  0  0  0  0  0  0  0  0  0  0  0  # atno 10764 bound_to 10752
  154.8675  135.3790  154.4899 H   0  0  0  0  0  0  0  0  0  0  0  0  # atno 10765 bound_to 10752
  141.1644  133.6944  156.7504 H   0  0  0  0  0  0  0  0  0  0  0  0  # atno 11005 bound_to 11000
  145.5435  141.0419  143.2317 LP  0  0  0  0  0  0  0  0  0  0  0  0  # atno 17320 bound_to 7965
  144.7611  139.6955  143.7234 LP  0  0  0  0  0  0  0  0  0  0  0  0  # atno 17321 bound_to 7965
  140.3265  144.3367  150.5997 LP  0  0  0  0  0  0  0  0  0  0  0  0  # atno 17342 bound_to 10162
  140.5680  143.2184  151.7649 LP  0  0  0  0  0  0  0  0  0  0  0  0  # atno 17343 bound_to 10162
  157.4190  130.7427  149.6898 LP  0  0  0  0  0  0  0  0  0  0  0  0  # atno 17370 bound_to 10713
  155.9764  130.4075  150.3778 LP  0  0  0  0  0  0  0  0  0  0  0  0  # atno 17371 bound_to 10713
  140.2608  134.8468  157.3757 LP  0  0  0  0  0  0  0  0  0  0  0  0  # atno 17394 bound_to 11000
  140.1613  134.4725  155.7893 LP  0  0  0  0  0  0  0  0  0  0  0  0  # atno 17395 bound_to 11000

$$$$
