AV-unprocessed.smi:2137|AV-procd|sdf|8706|dock8
  -GOLD-   2272011463D 1   1.00000     0.00000
 Structure written by MMmdl.
 50 51  0  0  0  0  0  0  0  0  2 V2000
  146.0714  129.9835  151.0318 C   0  0  0  0  0  0  0  0  0  0  0  0
  145.1506  131.0218  151.6874 C   0  0  2  0  0  0  0  0  0  0  0  0
  144.5173  131.9520  150.6392 C   0  0  0  0  0  0  0  0  0  0  0  0
  143.6254  132.9951  151.3239 C   0  0  0  0  0  0  0  0  0  0  0  0
  144.4072  133.7688  152.3974 C   0  0  0  0  0  0  0  0  0  0  0  0
  145.0026  132.8448  153.3972 N   0  3  2  0  0  0  0  0  0  0  0  0
  145.6478  133.5725  154.5190 C   0  0  0  0  0  0  0  0  0  0  0  0
  146.4740  134.7811  154.0388 C   0  0  0  0  0  0  0  0  0  0  0  0
  146.9211  135.7077  155.1836 C   0  0  0  0  0  0  0  0  0  0  0  0
  147.5020  136.9531  154.6949 N   0  0  0  0  0  0  0  0  0  0  0  0
  146.9129  138.1575  154.7514 C   0  0  0  0  0  0  0  0  0  0  0  0
  145.8014  138.3452  155.2449 O   0  0  0  0  0  0  0  0  0  0  0  0
  147.6981  139.3342  154.1641 C   0  0  0  0  0  0  0  0  0  0  0  0
  149.0279  139.4598  154.7733 N   0  0  0  0  0  0  0  0  0  0  0  0
  150.0278  138.5759  154.4090 C   0  0  0  0  0  0  0  0  0  0  0  0
  151.2773  138.6111  154.9209 C   0  0  0  0  0  0  0  0  0  0  0  0
  151.6486  139.6091  155.9160 C   0  0  0  0  0  0  0  0  0  0  0  0
  152.7760  139.6917  156.4054 O   0  0  0  0  0  0  0  0  0  0  0  0
  150.6074  140.4936  156.2798 N   0  0  0  0  0  0  0  0  0  0  0  0
  150.9320  141.5064  157.2630 C   0  0  0  0  0  0  0  0  0  0  0  0
  149.3039  140.4604  155.7316 C   0  0  0  0  0  0  0  0  0  0  0  0
  148.4283  141.2636  156.0625 O   0  0  0  0  0  0  0  0  0  0  0  0
  145.8998  131.8483  152.7521 C   0  0  0  0  0  0  0  0  0  0  0  0
  146.9004  130.4619  150.5091 H   0  0  0  0  0  0  0  0  0  0  0  0
  145.5265  129.3778  150.3073 H   0  0  0  0  0  0  0  0  0  0  0  0
  146.4932  129.3065  151.7753 H   0  0  0  0  0  0  0  0  0  0  0  0
  144.3469  130.4785  152.1870 H   0  0  0  0  0  0  0  0  0  0  0  0
  145.2978  132.4555  150.0668 H   0  0  0  0  0  0  0  0  0  0  0  0
  143.9302  131.3740  149.9244 H   0  0  0  0  0  0  0  0  0  0  0  0
  143.2258  133.6873  150.5819 H   0  0  0  0  0  0  0  0  0  0  0  0
  142.7664  132.5009  151.7800 H   0  0  0  0  0  0  0  0  0  0  0  0
  145.1959  134.3646  151.9348 H   0  0  0  0  0  0  0  0  0  0  0  0
  143.7319  134.4665  152.8944 H   0  0  0  0  0  0  0  0  0  0  0  0
  144.8909  133.8738  155.2448 H   0  0  0  0  0  0  0  0  0  0  0  0
  146.3235  132.8951  155.0433 H   0  0  0  0  0  0  0  0  0  0  0  0
  147.3616  134.4219  153.5166 H   0  0  0  0  0  0  0  0  0  0  0  0
  145.9124  135.3654  153.3106 H   0  0  0  0  0  0  0  0  0  0  0  0
  146.0680  135.9562  155.8155 H   0  0  0  0  0  0  0  0  0  0  0  0
  147.6368  135.1921  155.8265 H   0  0  0  0  0  0  0  0  0  0  0  0
  148.4116  136.8944  154.2591 H   0  0  0  0  0  0  0  0  0  0  0  0
  147.8020  139.1877  153.0876 H   0  0  0  0  0  0  0  0  0  0  0  0
  147.1200  140.2533  154.2748 H   0  0  0  0  0  0  0  0  0  0  0  0
  149.7995  137.8153  153.6764 H   0  0  0  0  0  0  0  0  0  0  0  0
  152.0116  137.8911  154.5902 H   0  0  0  0  0  0  0  0  0  0  0  0
  150.0337  142.0057  157.6252 H   0  0  0  0  0  0  0  0  0  0  0  0
  151.5995  142.2193  156.7765 H   0  0  0  0  0  0  0  0  0  0  0  0
  151.4205  141.0117  158.1045 H   0  0  0  0  0  0  0  0  0  0  0  0
  146.3067  131.1709  153.5020 H   0  0  0  0  0  0  0  0  0  0  0  0
  146.7500  132.3635  152.3011 H   0  0  0  0  0  0  0  0  0  0  0  0
  144.2306  132.3307  153.7971 H   0  0  0  0  0  0  0  0  0  0  0  0
  1  2  1  0  0  0  0
  1 24  1  0  0  0  0
  1 25  1  0  0  0  0
  1 26  1  0  0  0  0
  2 23  1  0  0  0  0
  2  3  1  0  0  0  0
  2 27  1  0  0  0  0
  3  4  1  0  0  0  0
  3 28  1  0  0  0  0
  3 29  1  0  0  0  0
  4  5  1  0  0  0  0
  4 30  1  0  0  0  0
  4 31  1  0  0  0  0
  5  6  1  0  0  0  0
  5 32  1  0  0  0  0
  5 33  1  0  0  0  0
  6  7  1  0  0  0  0
  6 23  1  0  0  0  0
  6 50  1  0  0  0  0
  7  8  1  0  0  0  0
  7 34  1  0  0  0  0
  7 35  1  0  0  0  0
  8  9  1  0  0  0  0
  8 36  1  0  0  0  0
  8 37  1  0  0  0  0
  9 10  1  0  0  0  0
  9 38  1  0  0  0  0
  9 39  1  0  0  0  0
 10 11  1  0  0  0  0
 10 40  1  0  0  0  0
 11 12  2  0  0  0  0
 11 13  1  0  0  0  0
 13 14  1  0  0  0  0
 13 41  1  0  0  0  0
 13 42  1  0  0  0  0
 14 21  1  0  0  0  0
 14 15  1  0  0  0  0
 15 16  2  0  0  0  0
 15 43  1  0  0  0  0
 16 17  1  0  0  0  0
 16 44  1  0  0  0  0
 17 18  2  0  0  0  0
 17 19  1  0  0  0  0
 19 20  1  0  0  0  0
 19 21  1  0  0  0  0
 20 45  1  0  0  0  0
 20 46  1  0  0  0  0
 20 47  1  0  0  0  0
 21 22  2  0  0  0  0
 23 48  1  0  0  0  0
 23 49  1  0  0  0  0
M  CHG  1   6   1
M  END
> <s_m_source_file>
AV-unprocessed.smi

> <i_m_source_file_index>
2137

> <i_lp_mmshare_version>
43012

> <i_f3d_flags>
0

> <s_epik_input>
W0NIM11bQ0BASF0xW0NIMl1bQ0gyXVtDSDJdTihbQ0gyXTEpW0NIMl1bQ0gyXVtDSDJdW05IXUMoPU8pW0NIMl1uMltjSF1bY0hdYyg9TyluKFtDSDNdKWMyPU8=

> <s_epik_cmdline>
J2VwaWtfcHl0aG9uJywgJy1waCcsICc3LjAnLCAnLXRuJywgJzgnLCAnLW1hJywgJzIwMCcsICctbWV0YWxfYmluZGluZycsICctaW1hZScsICc8aW5maWxlLm1hZT4nLCAnLW9tYWUnLCAnPG91dGZpbGUubWFlPic=

> <r_lp_tautomer_probability>
1

> <r_epik_Ionization_Penalty>
0.000384839

> <r_epik_Ionization_Penalty_Charging>
0.000384812

> <r_epik_Ionization_Penalty_Neutral>
2.6907e-08

> <r_epik_State_Penalty>
0.000235226

> <r_epik_Charging_Adjusted_Penalty>
0.000620038

> <i_epik_Tot_Q>
1

> <i_epik_Tot_abs_Q>
1

> <r_epik_Metal_State_Penalty>
-0

> <b_epik_Metal_Only>
0

> <s_lp_Force_Field>
OPLS_2005

> <r_lp_Energy>
29.3938

> <b_lp_Chiralities_Consistent>
1

> <s_lp_Variant>
AV-unprocessed.smi:2137-1

> <Gold.Version>
5.8.1

> <Gold.Id.Protein>
6NUR|6NUR_protein|mol2

> <Gold.PLP.Fitness>
50.3960

> <Gold.PLP.PLP>
-38.5822

> <Gold.PLP.part.hbond>
-3.0000

> <Gold.PLP.part.metal>
0.0000

> <Gold.PLP.part.buried>
-1.2677

> <Gold.PLP.part.nonpolar>
-34.7633

> <Gold.PLP.part.repulsive>
0.2300

> <Gold.PLP.ligand.clash>
0.0000

> <Gold.PLP.ligand.torsion>
0.5531

> <Gold.PLP.Chemscore.Hbond>
3.1830

> <Gold.PLP.Chemscore.CHOScore>
1.1045

> <Gold.PLP.Chemscore.Metal>
0.0000

> <Gold.Chemscore.Hbonds>
donor molecule, donor type, donor heavy atom, donor atom, acceptor molecule, acceptor atom, score
      L1  H     6    50       P1 10957  2.00
      P1  H  7997  8008       L1    18  1.00
      L1  C    15    43       P1  7948  1.00

> <Gold.PLP.Chemscore.Internal.Correction>
0.0574

> <Gold.Rescore>
     Score         DG    S(hbond)    S(metal)    S(lipo)     H(rot)  DE(clash)    DE(int)     intcor
     13.75     -14.60       1.96        0.00      71.91       2.27       0.08       0.78       ----

> <Gold.Chemscore.Fitness>
13.7476

> <Gold.Chemscore.DG>
-14.6038

> <Gold.Chemscore.ZeroCoef>
-5.4800

> <Gold.Chemscore.Hbond>
1.9563

> <Gold.Chemscore.Metal>
0.0000

> <Gold.Chemscore.Lipo>
71.9069

> <Gold.Chemscore.Internal_Hbond>
0.0000

> <Gold.Chemscore.DEClash>
0.0750

> <Gold.Chemscore.DEInternal>
0.7812

> <Gold.Chemscore.Rot>
2.2748

> <Gold.Chemscore.Internal.Correction>
   9.000000E+99

> <Gold.Chemscore.Hbonds>
donor molecule, donor type, donor heavy atom, donor atom, acceptor molecule, acceptor atom, score
      L1  H     6    50       P1 10957  0.25
      P1  H  7997  8008       L1    18  0.99

> <Gold.Chemscore.Hbond.Weighted>
-6.5341

> <Gold.Chemscore.Metal.Weighted>
-0.0000

> <Gold.Chemscore.Lipo.Weighted>
-8.4131

> <Gold.Chemscore.Internal_Hbond.Weighted>
0.0000

> <Gold.Chemscore.DEClash.Weighted>
0.0750

> <Gold.Chemscore.DEInternal.Weighted>
0.7812

> <Gold.Chemscore.Rot.Weighted>
5.8234

> <Gold.Chemscore.Internal.Correction.Weighted>
   9.000000E+99

> <Gold.Protein.RotatedTorsions>
[ 6907 6896 6895 6894 ] final  -81.58 input  -60.11 | X-H torsion
[ 7974 7965 7964 7962 ] final  -60.60 input  175.53 | X-H torsion
[ 8008 7997 7996 7995 ] final  -39.46 input   59.86 | X-H torsion
[ 10167 10162 10161 10158 ] final  117.07 input  -65.29 | X-H torsion
[ 10718 10713 10712 10709 ] final   26.75 input   66.30 | X-H torsion
[ 10763 10752 10751 10750 ] final  139.98 input  -60.55 | X-H torsion
[ 11005 11000 10999 10996 ] final  -74.77 input  -57.11 | X-H torsion

> <Gold.Protein.ActiveResidues>
 VAL166  LYS551  ARG553  GLY616  TRP617  ASP618  TYR619  PRO620  LYS621  CYS622 
 ASP623  PHE694  ASN695  SER759  ASP760  ASP761  ALA762  ILE779  LEU786  VAL792 
 PHE793  MET794  SER795  GLU796  ALA797  LYS798  CYS799  TRP800  GLU811  SER814 

> <Gold.Protein.RotatedAtoms>
  150.6910  134.3795  159.5027 H   0  0  0  0  0  0  0  0  0  0  0  0  # atno 6907 bound_to 6896
  152.1600  134.8917  160.0551 H   0  0  0  0  0  0  0  0  0  0  0  0  # atno 6908 bound_to 6896
  151.9983  133.3781  159.4208 H   0  0  0  0  0  0  0  0  0  0  0  0  # atno 6909 bound_to 6896
  145.8136  140.8583  143.0169 H   0  0  0  0  0  0  0  0  0  0  0  0  # atno 7974 bound_to 7965
  154.4023  140.1551  156.2868 H   0  0  0  0  0  0  0  0  0  0  0  0  # atno 8008 bound_to 7997
  155.8821  140.3443  155.5873 H   0  0  0  0  0  0  0  0  0  0  0  0  # atno 8009 bound_to 7997
  155.7655  140.0823  157.2124 H   0  0  0  0  0  0  0  0  0  0  0  0  # atno 8010 bound_to 7997
  139.6204  144.7100  151.2647 H   0  0  0  0  0  0  0  0  0  0  0  0  # atno 10167 bound_to 10162
  157.2110  130.6934  149.6228 H   0  0  0  0  0  0  0  0  0  0  0  0  # atno 10718 bound_to 10713
  153.9151  135.3007  155.3448 H   0  0  0  0  0  0  0  0  0  0  0  0  # atno 10763 bound_to 10752
  154.7604  135.4937  153.9456 H   0  0  0  0  0  0  0  0  0  0  0  0  # atno 10764 bound_to 10752
  153.1172  135.6773  153.9500 H   0  0  0  0  0  0  0  0  0  0  0  0  # atno 10765 bound_to 10752
  141.1639  133.6923  156.7415 H   0  0  0  0  0  0  0  0  0  0  0  0  # atno 11005 bound_to 11000
  144.6755  140.0431  143.7480 LP  0  0  0  0  0  0  0  0  0  0  0  0  # atno 17320 bound_to 7965
  145.9751  139.2898  143.1076 LP  0  0  0  0  0  0  0  0  0  0  0  0  # atno 17321 bound_to 7965
  140.7378  143.6667  150.8117 LP  0  0  0  0  0  0  0  0  0  0  0  0  # atno 17342 bound_to 10162
  140.0277  143.5476  152.2774 LP  0  0  0  0  0  0  0  0  0  0  0  0  # atno 17343 bound_to 10162
  155.9690  130.4551  150.5875 LP  0  0  0  0  0  0  0  0  0  0  0  0  # atno 17370 bound_to 10713
  157.3672  131.0759  151.1588 LP  0  0  0  0  0  0  0  0  0  0  0  0  # atno 17371 bound_to 10713
  140.2670  134.8422  157.3812 LP  0  0  0  0  0  0  0  0  0  0  0  0  # atno 17394 bound_to 11000
  140.1557  134.4793  155.7930 LP  0  0  0  0  0  0  0  0  0  0  0  0  # atno 17395 bound_to 11000

$$$$
