AV-unprocessed.smi:1419|AV-procd|sdf|5775|dock6
  -GOLD-   22720 5423D 1   1.00000     0.00000
 Structure written by MMmdl.
 42 43  0  0  0  0  0  0  0  0  2 V2000
  149.0182  140.8694  157.5328 C   0  0  0  0  0  0  0  0  0  0  0  0
  150.4991  140.4964  157.3836 C   0  0  1  0  0  0  0  0  0  0  0  0
  150.9433  140.5424  155.9057 C   0  0  0  0  0  0  0  0  0  0  0  0
  150.7467  139.2649  155.2110 N   0  0  0  0  0  0  0  0  0  0  0  0
  151.2694  138.0446  155.5542 C   0  0  0  0  0  0  0  0  0  0  0  0
  150.8335  137.1530  154.6081 C   0  0  0  0  0  0  0  0  0  0  0  0
  150.0598  137.8649  153.7310 N   0  3  0  0  0  0  0  0  0  0  0  0
  150.0032  139.1478  154.1024 C   0  0  0  0  0  0  0  0  0  0  0  0
  151.3029  141.4093  158.1953 N   0  0  0  0  0  0  0  0  0  0  0  0
  152.1983  141.0516  159.1330 C   0  0  0  0  0  0  0  0  0  0  0  0
  152.3771  139.8766  159.4567 O   0  0  0  0  0  0  0  0  0  0  0  0
  152.8808  142.0843  159.6852 N   0  0  0  0  0  0  0  0  0  0  0  0
  153.6886  142.0394  160.9112 C   0  0  0  0  0  0  0  0  0  0  0  0
  152.8661  142.6871  162.0436 C   0  0  1  0  0  0  0  0  0  0  0  0
  153.6375  142.7355  163.3667 C   0  0  0  0  0  0  0  0  0  0  0  0
  152.5333  144.0250  161.6720 O   0  0  0  0  0  0  0  0  0  0  0  0
  151.8011  144.1253  160.4499 C   0  0  1  0  0  0  0  0  0  0  0  0
  151.5119  145.6063  160.1841 C   0  0  0  0  0  0  0  0  0  0  0  0
  152.6215  143.4772  159.3159 C   0  0  0  0  0  0  0  0  0  0  0  0
  148.3835  140.1912  156.9615 H   0  0  0  0  0  0  0  0  0  0  0  0
  148.8247  141.8826  157.1786 H   0  0  0  0  0  0  0  0  0  0  0  0
  148.7020  140.8141  158.5750 H   0  0  0  0  0  0  0  0  0  0  0  0
  150.6117  139.4753  157.7527 H   0  0  0  0  0  0  0  0  0  0  0  0
  150.3696  141.2941  155.3619 H   0  0  0  0  0  0  0  0  0  0  0  0
  151.9939  140.8268  155.8232 H   0  0  0  0  0  0  0  0  0  0  0  0
  151.9034  137.9072  156.4184 H   0  0  0  0  0  0  0  0  0  0  0  0
  151.0128  136.0934  154.4957 H   0  0  0  0  0  0  0  0  0  0  0  0
  149.4723  139.9355  153.5977 H   0  0  0  0  0  0  0  0  0  0  0  0
  151.1971  142.3950  158.0041 H   0  0  0  0  0  0  0  0  0  0  0  0
  153.9987  141.0346  161.1985 H   0  0  0  0  0  0  0  0  0  0  0  0
  154.6144  142.5950  160.7527 H   0  0  0  0  0  0  0  0  0  0  0  0
  151.9445  142.1230  162.1977 H   0  0  0  0  0  0  0  0  0  0  0  0
  153.9040  141.7332  163.7031 H   0  0  0  0  0  0  0  0  0  0  0  0
  153.0385  143.2006  164.1500 H   0  0  0  0  0  0  0  0  0  0  0  0
  154.5580  143.3111  163.2655 H   0  0  0  0  0  0  0  0  0  0  0  0
  150.8510  143.5998  160.5634 H   0  0  0  0  0  0  0  0  0  0  0  0
  150.9376  145.7355  159.2664 H   0  0  0  0  0  0  0  0  0  0  0  0
  152.4359  146.1770  160.0845 H   0  0  0  0  0  0  0  0  0  0  0  0
  150.9365  146.0436  161.0004 H   0  0  0  0  0  0  0  0  0  0  0  0
  153.5688  144.0020  159.1821 H   0  0  0  0  0  0  0  0  0  0  0  0
  152.0937  143.5676  158.3651 H   0  0  0  0  0  0  0  0  0  0  0  0
  149.5970  137.4784  152.9176 H   0  0  0  0  0  0  0  0  0  0  0  0
  1  2  1  0  0  0  0
  1 20  1  0  0  0  0
  1 21  1  0  0  0  0
  1 22  1  0  0  0  0
  2  3  1  0  0  0  0
  2  9  1  0  0  0  0
  2 23  1  0  0  0  0
  3  4  1  0  0  0  0
  3 24  1  0  0  0  0
  3 25  1  0  0  0  0
  4  8  1  0  0  0  0
  4  5  1  0  0  0  0
  5  6  2  0  0  0  0
  5 26  1  0  0  0  0
  6  7  1  0  0  0  0
  6 27  1  0  0  0  0
  7  8  2  0  0  0  0
  7 42  1  0  0  0  0
  8 28  1  0  0  0  0
  9 10  1  0  0  0  0
  9 29  1  0  0  0  0
 10 11  2  0  0  0  0
 10 12  1  0  0  0  0
 12 19  1  0  0  0  0
 12 13  1  0  0  0  0
 13 14  1  0  0  0  0
 13 30  1  0  0  0  0
 13 31  1  0  0  0  0
 14 15  1  0  0  0  0
 14 16  1  0  0  0  0
 14 32  1  0  0  0  0
 15 33  1  0  0  0  0
 15 34  1  0  0  0  0
 15 35  1  0  0  0  0
 16 17  1  0  0  0  0
 17 18  1  0  0  0  0
 17 19  1  0  0  0  0
 17 36  1  0  0  0  0
 18 37  1  0  0  0  0
 18 38  1  0  0  0  0
 18 39  1  0  0  0  0
 19 40  1  0  0  0  0
 19 41  1  0  0  0  0
M  CHG  1   7   1
M  END
> <s_m_source_file>
AV-unprocessed.smi

> <i_m_source_file_index>
1419

> <i_lp_mmshare_version>
43012

> <i_f3d_flags>
0

> <s_epik_input>
W2NIXTFuW2NIXVtjSF1uMVtDSDJdW0NAQEhdKFtDSDNdKVtOSF1DKD1PKU4yW0NIMl1bQ0BASF0oW0NIM10pT1tDQEBIXShbQ0gzXSlbQ0gyXTI=

> <s_epik_cmdline>
J2VwaWtfcHl0aG9uJywgJy1waCcsICc3LjAnLCAnLXRuJywgJzgnLCAnLW1hJywgJzIwMCcsICctbWV0YWxfYmluZGluZycsICctaW1hZScsICc8aW5maWxlLm1hZT4nLCAnLW9tYWUnLCAnPG91dGZpbGUubWFlPic=

> <r_lp_tautomer_probability>
1

> <r_epik_Ionization_Penalty>
0.253607

> <r_epik_Ionization_Penalty_Charging>
0

> <r_epik_Ionization_Penalty_Neutral>
0.253607

> <r_epik_State_Penalty>
0.245018

> <r_epik_Charging_Adjusted_Penalty>
0.245018

> <i_epik_Tot_Q>
1

> <i_epik_Tot_abs_Q>
1

> <r_epik_Metal_State_Penalty>
0.535379

> <b_epik_Metal_Only>
0

> <s_lp_Force_Field>
OPLS_2005

> <r_lp_Energy>
29.1854

> <b_lp_Chiralities_Consistent>
1

> <s_lp_Variant>
AV-unprocessed.smi:1419-2

> <Gold.Version>
5.8.1

> <Gold.Id.Protein>
6NUR|6NUR_protein|mol2

> <Gold.PLP.Fitness>
52.6036

> <Gold.PLP.PLP>
-46.6616

> <Gold.PLP.part.hbond>
-2.0000

> <Gold.PLP.part.metal>
0.0000

> <Gold.PLP.part.buried>
-4.2842

> <Gold.PLP.part.nonpolar>
-40.8080

> <Gold.PLP.part.repulsive>
0.3033

> <Gold.PLP.ligand.clash>
1.9295

> <Gold.PLP.ligand.torsion>
0.4813

> <Gold.PLP.Chemscore.Hbond>
2.0000

> <Gold.PLP.Chemscore.CHOScore>
0.9218

> <Gold.PLP.Chemscore.Metal>
0.0000

> <Gold.Chemscore.Hbonds>
donor molecule, donor type, donor heavy atom, donor atom, acceptor molecule, acceptor atom, score
      L1  H     7    42       P1  7948  2.00
      L1  C     8    28       P1  7957  0.76

> <Gold.PLP.Chemscore.Internal.Correction>
0.0685

> <Gold.Rescore>
     Score         DG    S(hbond)    S(metal)    S(lipo)     H(rot)  DE(clash)    DE(int)     intcor
     15.28     -15.71       0.93        0.00      96.39       1.63       0.06       0.37       ----

> <Gold.Chemscore.Fitness>
15.2781

> <Gold.Chemscore.DG>
-15.7088

> <Gold.Chemscore.ZeroCoef>
-5.4800

> <Gold.Chemscore.Hbond>
0.9333

> <Gold.Chemscore.Metal>
0.0000

> <Gold.Chemscore.Lipo>
96.3890

> <Gold.Chemscore.Internal_Hbond>
0.0000

> <Gold.Chemscore.DEClash>
0.0572

> <Gold.Chemscore.DEInternal>
0.3734

> <Gold.Chemscore.Rot>
1.6273

> <Gold.Chemscore.Internal.Correction>
   9.000000E+99

> <Gold.Chemscore.Hbonds>
donor molecule, donor type, donor heavy atom, donor atom, acceptor molecule, acceptor atom, score
      L1  H     7    42       P1  7948  0.69

> <Gold.Chemscore.Hbond.Weighted>
-3.1171

> <Gold.Chemscore.Metal.Weighted>
-0.0000

> <Gold.Chemscore.Lipo.Weighted>
-11.2775

> <Gold.Chemscore.Internal_Hbond.Weighted>
0.0000

> <Gold.Chemscore.DEClash.Weighted>
0.0572

> <Gold.Chemscore.DEInternal.Weighted>
0.3734

> <Gold.Chemscore.Rot.Weighted>
4.1658

> <Gold.Chemscore.Internal.Correction.Weighted>
   9.000000E+99

> <Gold.Protein.RotatedTorsions>
[ 6907 6896 6895 6894 ] final  115.50 input  -60.11 | X-H torsion
[ 7974 7965 7964 7962 ] final -144.84 input  175.53 | X-H torsion
[ 8008 7997 7996 7995 ] final  -87.58 input   59.86 | X-H torsion
[ 10167 10162 10161 10158 ] final -101.57 input  -65.29 | X-H torsion
[ 10718 10713 10712 10709 ] final   -7.00 input   66.30 | X-H torsion
[ 10763 10752 10751 10750 ] final   36.38 input  -60.55 | X-H torsion
[ 11005 11000 10999 10996 ] final   22.22 input  -57.11 | X-H torsion

> <Gold.Protein.ActiveResidues>
 VAL166  LYS551  ARG553  GLY616  TRP617  ASP618  TYR619  PRO620  LYS621  CYS622 
 ASP623  PHE694  ASN695  SER759  ASP760  ASP761  ALA762  ILE779  LEU786  VAL792 
 PHE793  MET794  SER795  GLU796  ALA797  LYS798  CYS799  TRP800  GLU811  SER814 

> <Gold.Protein.RotatedAtoms>
  152.4737  133.8089  159.6992 H   0  0  0  0  0  0  0  0  0  0  0  0  # atno 6907 bound_to 6896
  150.8741  133.7454  159.2958 H   0  0  0  0  0  0  0  0  0  0  0  0  # atno 6908 bound_to 6896
  151.4979  135.1064  159.9873 H   0  0  0  0  0  0  0  0  0  0  0  0  # atno 6909 bound_to 6896
  144.8269  140.5659  143.5541 H   0  0  0  0  0  0  0  0  0  0  0  0  # atno 7974 bound_to 7965
  154.6649  140.0564  157.0102 H   0  0  0  0  0  0  0  0  0  0  0  0  # atno 8008 bound_to 7997
  155.1174  140.3244  155.4487 H   0  0  0  0  0  0  0  0  0  0  0  0  # atno 8009 bound_to 7997
  156.2633  140.2003  156.6297 H   0  0  0  0  0  0  0  0  0  0  0  0  # atno 8010 bound_to 7997
  140.2399  143.3546  152.0811 H   0  0  0  0  0  0  0  0  0  0  0  0  # atno 10167 bound_to 10162
  156.7237  130.5158  149.5862 H   0  0  0  0  0  0  0  0  0  0  0  0  # atno 10718 bound_to 10713
  153.0079  135.6307  154.1976 H   0  0  0  0  0  0  0  0  0  0  0  0  # atno 10763 bound_to 10752
  154.1720  135.2818  155.3080 H   0  0  0  0  0  0  0  0  0  0  0  0  # atno 10764 bound_to 10752
  154.5901  135.5620  153.7330 H   0  0  0  0  0  0  0  0  0  0  0  0  # atno 10765 bound_to 10752
  140.3830  134.1900  155.7663 H   0  0  0  0  0  0  0  0  0  0  0  0  # atno 11005 bound_to 11000
  145.4981  139.1485  143.3672 LP  0  0  0  0  0  0  0  0  0  0  0  0  # atno 17320 bound_to 7965
  146.2574  140.5120  142.8868 LP  0  0  0  0  0  0  0  0  0  0  0  0  # atno 17321 bound_to 7965
  139.5081  144.6843  151.5927 LP  0  0  0  0  0  0  0  0  0  0  0  0  # atno 17342 bound_to 10162
  140.6121  143.9416  150.6461 LP  0  0  0  0  0  0  0  0  0  0  0  0  # atno 17343 bound_to 10162
  156.1577  130.6353  151.0678 LP  0  0  0  0  0  0  0  0  0  0  0  0  # atno 17370 bound_to 10713
  157.6887  131.0817  150.7168 LP  0  0  0  0  0  0  0  0  0  0  0  0  # atno 17371 bound_to 10713
  141.1917  133.8190  157.0869 LP  0  0  0  0  0  0  0  0  0  0  0  0  # atno 17394 bound_to 11000
  140.0464  134.9828  157.1056 LP  0  0  0  0  0  0  0  0  0  0  0  0  # atno 17395 bound_to 11000

$$$$
