AV-unprocessed.smi:1664|AV-procd|sdf|6668|dock1
  -GOLD-   22720 7373D 1   1.00000     0.00000
 Structure written by MMmdl.
 35 36  0  0  0  0  0  0  0  0  3 V2000
  145.1429  134.9113  154.2043 C   0  0  0  0  0  0  0  0  0  0  0  0
  146.6808  134.9862  154.1257 C   0  0  2  0  0  0  0  0  0  0  0  0
  147.2467  134.7629  155.4726 C   0  0  0  0  0  0  0  0  0  0  0  0
  147.6901  134.5873  156.5274 N   0  0  0  0  0  0  0  0  0  0  0  0
  147.0758  136.2988  153.6123 N   0  0  0  0  0  0  0  0  0  0  0  0
  146.8790  137.5019  154.1831 C   0  0  0  0  0  0  0  0  0  0  0  0
  146.3041  137.6462  155.2606 O   0  0  0  0  0  0  0  0  0  0  0  0
  147.4022  138.7481  153.4478 C   0  0  0  0  0  0  0  0  0  0  0  0
  148.5391  139.4244  154.0995 N   0  0  0  0  0  0  0  0  0  0  0  0
  149.7459  138.7023  154.1857 C   0  0  0  0  0  0  0  0  0  0  0  0
  150.8518  139.2208  154.7547 C   0  0  0  0  0  0  0  0  0  0  0  0
  152.0859  138.4696  154.8232 N   0  3  0  0  0  0  0  0  0  0  0  0
  152.0881  137.3055  154.4362 O   0  0  0  0  0  0  0  0  0  0  0  0
  153.0917  139.0159  155.2665 O   0  5  0  0  0  0  0  0  0  0  0  0
  150.7664  140.5654  155.2910 C   0  0  0  0  0  0  0  0  0  0  0  0
  149.6169  141.2638  155.2058 C   0  0  0  0  0  0  0  0  0  0  0  0
  148.4179  140.7012  154.5763 C   0  0  0  0  0  0  0  0  0  0  0  0
  147.3713  141.3410  154.4766 O   0  0  0  0  0  0  0  0  0  0  0  0
  147.1705  133.8938  153.1775 C   0  0  0  0  0  0  0  0  0  0  0  0
  147.3089  132.4484  153.6011 C   0  0  0  0  0  0  0  0  0  0  0  0
  148.5425  133.2677  153.2903 C   0  0  0  0  0  0  0  0  0  0  0  0
  144.8159  133.9222  154.5263 H   0  0  0  0  0  0  0  0  0  0  0  0
  144.6844  135.1097  153.2346 H   0  0  0  0  0  0  0  0  0  0  0  0
  144.7354  135.6293  154.9162 H   0  0  0  0  0  0  0  0  0  0  0  0
  147.5619  136.2906  152.7277 H   0  0  0  0  0  0  0  0  0  0  0  0
  147.6631  138.4619  152.4274 H   0  0  0  0  0  0  0  0  0  0  0  0
  146.5701  139.4450  153.3359 H   0  0  0  0  0  0  0  0  0  0  0  0
  149.7073  137.7135  153.7512 H   0  0  0  0  0  0  0  0  0  0  0  0
  151.6229  141.0221  155.7649 H   0  0  0  0  0  0  0  0  0  0  0  0
  149.5758  142.2640  155.6116 H   0  0  0  0  0  0  0  0  0  0  0  0
  146.8162  134.0376  152.1579 H   0  0  0  0  0  0  0  0  0  0  0  0
  147.1233  132.1945  154.6425 H   0  0  0  0  0  0  0  0  0  0  0  0
  147.0187  131.6860  152.8809 H   0  0  0  0  0  0  0  0  0  0  0  0
  149.0693  133.0490  152.3638 H   0  0  0  0  0  0  0  0  0  0  0  0
  149.1773  133.5589  154.1245 H   0  0  0  0  0  0  0  0  0  0  0  0
  1  2  1  0  0  0  0
  1 22  1  0  0  0  0
  1 23  1  0  0  0  0
  1 24  1  0  0  0  0
  2  3  1  0  0  0  0
  2  5  1  0  0  0  0
  2 19  1  0  0  0  0
  3  4  3  0  0  0  0
  5  6  1  0  0  0  0
  5 25  1  0  0  0  0
  6  7  2  0  0  0  0
  6  8  1  0  0  0  0
  8  9  1  0  0  0  0
  8 26  1  0  0  0  0
  8 27  1  0  0  0  0
  9 17  1  0  0  0  0
  9 10  1  0  0  0  0
 10 11  2  0  0  0  0
 10 28  1  0  0  0  0
 11 12  1  0  0  0  0
 11 15  1  0  0  0  0
 12 13  2  0  0  0  0
 12 14  1  0  0  0  0
 15 16  2  0  0  0  0
 15 29  1  0  0  0  0
 16 17  1  0  0  0  0
 16 30  1  0  0  0  0
 17 18  2  0  0  0  0
 19 21  1  0  0  0  0
 19 20  1  0  0  0  0
 19 31  1  0  0  0  0
 20 21  1  0  0  0  0
 20 32  1  0  0  0  0
 20 33  1  0  0  0  0
 21 34  1  0  0  0  0
 21 35  1  0  0  0  0
M  CHG  1  12   1
M  CHG  1  14  -1
M  END
> <s_m_source_file>
AV-unprocessed.smi

> <i_m_source_file_index>
1664

> <i_lp_mmshare_version>
43012

> <i_f3d_flags>
0

> <s_epik_input>
W0NIMl0xW0NIMl1bQ0hdMVtDQF0oW0NIM10pKEMjTilbTkhdQyg9TylbQ0gyXW4yW2NIXWMoW04rXSg9TylbTy1dKVtjSF1bY0hdYzI9Tw==

> <s_epik_cmdline>
J2VwaWtfcHl0aG9uJywgJy1waCcsICc3LjAnLCAnLXRuJywgJzgnLCAnLW1hJywgJzIwMCcsICctbWV0YWxfYmluZGluZycsICctaW1hZScsICc8aW5maWxlLm1hZT4nLCAnLW9tYWUnLCAnPG91dGZpbGUubWFlPic=

> <r_lp_tautomer_probability>
1

> <r_epik_Ionization_Penalty>
4.65324e-07

> <r_epik_Ionization_Penalty_Charging>
6.17383e-11

> <r_epik_Ionization_Penalty_Neutral>
4.65262e-07

> <r_epik_State_Penalty>
-0

> <r_epik_Charging_Adjusted_Penalty>
6.17383e-11

> <i_epik_Tot_Q>
0

> <i_epik_Tot_abs_Q>
2

> <r_epik_Metal_State_Penalty>
-0

> <b_epik_Metal_Only>
0

> <s_lp_Force_Field>
OPLS_2005

> <r_lp_Energy>
24.1204

> <b_lp_Chiralities_Consistent>
1

> <s_lp_Variant>
AV-unprocessed.smi:1664-2

> <Gold.Version>
5.8.1

> <Gold.Id.Protein>
6NUR|6NUR_protein|mol2

> <Gold.PLP.Fitness>
41.9848

> <Gold.PLP.PLP>
-30.5440

> <Gold.PLP.part.hbond>
-3.0000

> <Gold.PLP.part.metal>
0.0000

> <Gold.PLP.part.buried>
-0.8358

> <Gold.PLP.part.nonpolar>
-26.4255

> <Gold.PLP.part.repulsive>
0.3038

> <Gold.PLP.ligand.clash>
0.0000

> <Gold.PLP.ligand.torsion>
0.8859

> <Gold.PLP.Chemscore.Hbond>
2.8800

> <Gold.PLP.Chemscore.CHOScore>
1.0000

> <Gold.PLP.Chemscore.Metal>
0.0000

> <Gold.Chemscore.Hbonds>
donor molecule, donor type, donor heavy atom, donor atom, acceptor molecule, acceptor atom, score
      L1  H     5    25       P1  7948  1.00
      P1  H  7997  8009       L1    14  1.00
      P1  H 10752 10763       L1    13  0.88
      L1  C    10    28       P1  7948  1.00

> <Gold.PLP.Chemscore.Internal.Correction>
1.5727

> <Gold.Rescore>
     Score         DG    S(hbond)    S(metal)    S(lipo)     H(rot)  DE(clash)    DE(int)     intcor
     14.70     -16.19       2.79        0.00      54.32       1.94       0.07       1.42       ----

> <Gold.Chemscore.Fitness>
14.7021

> <Gold.Chemscore.DG>
-16.1874

> <Gold.Chemscore.ZeroCoef>
-5.4800

> <Gold.Chemscore.Hbond>
2.7888

> <Gold.Chemscore.Metal>
0.0000

> <Gold.Chemscore.Lipo>
54.3194

> <Gold.Chemscore.Internal_Hbond>
0.0000

> <Gold.Chemscore.DEClash>
0.0679

> <Gold.Chemscore.DEInternal>
1.4173

> <Gold.Chemscore.Rot>
1.9386

> <Gold.Chemscore.Internal.Correction>
   9.000000E+99

> <Gold.Chemscore.Hbonds>
donor molecule, donor type, donor heavy atom, donor atom, acceptor molecule, acceptor atom, score
      L1  H     5    25       P1  7948  0.95
      P1  H  7997  8009       L1    14  0.96
      P1  H 10752 10763       L1    13  0.86

> <Gold.Chemscore.Hbond.Weighted>
-9.3147

> <Gold.Chemscore.Metal.Weighted>
-0.0000

> <Gold.Chemscore.Lipo.Weighted>
-6.3554

> <Gold.Chemscore.Internal_Hbond.Weighted>
0.0000

> <Gold.Chemscore.DEClash.Weighted>
0.0679

> <Gold.Chemscore.DEInternal.Weighted>
1.4173

> <Gold.Chemscore.Rot.Weighted>
4.9627

> <Gold.Chemscore.Internal.Correction.Weighted>
   9.000000E+99

> <Gold.Protein.RotatedTorsions>
[ 6907 6896 6895 6894 ] final  167.43 input  -60.11 | X-H torsion
[ 7974 7965 7964 7962 ] final  -57.50 input  175.53 | X-H torsion
[ 8008 7997 7996 7995 ] final -126.97 input   59.86 | X-H torsion
[ 10167 10162 10161 10158 ] final   21.31 input  -65.29 | X-H torsion
[ 10718 10713 10712 10709 ] final  172.51 input   66.30 | X-H torsion
[ 10763 10752 10751 10750 ] final   39.52 input  -60.55 | X-H torsion
[ 11005 11000 10999 10996 ] final  159.78 input  -57.11 | X-H torsion

> <Gold.Protein.ActiveResidues>
 VAL166  LYS551  ARG553  GLY616  TRP617  ASP618  TYR619  PRO620  LYS621  CYS622 
 ASP623  PHE694  ASN695  SER759  ASP760  ASP761  ALA762  ILE779  LEU786  VAL792 
 PHE793  MET794  SER795  GLU796  ALA797  LYS798  CYS799  TRP800  GLU811  SER814 

> <Gold.Protein.RotatedAtoms>
  151.8635  133.3461  159.3711 H   0  0  0  0  0  0  0  0  0  0  0  0  # atno 6907 bound_to 6896
  150.7172  134.5183  159.5650 H   0  0  0  0  0  0  0  0  0  0  0  0  # atno 6908 bound_to 6896
  152.2701  134.7942  160.0466 H   0  0  0  0  0  0  0  0  0  0  0  0  # atno 6909 bound_to 6896
  145.8503  140.8357  142.9989 H   0  0  0  0  0  0  0  0  0  0  0  0  # atno 7974 bound_to 7965
  155.2385  140.0428  157.2972 H   0  0  0  0  0  0  0  0  0  0  0  0  # atno 8008 bound_to 7997
  154.5843  140.2409  155.7979 H   0  0  0  0  0  0  0  0  0  0  0  0  # atno 8009 bound_to 7997
  156.2215  140.2968  155.9972 H   0  0  0  0  0  0  0  0  0  0  0  0  # atno 8010 bound_to 7997
  140.5437  143.9633  150.6534 H   0  0  0  0  0  0  0  0  0  0  0  0  # atno 10167 bound_to 10162
  156.9778  131.0110  151.2889 H   0  0  0  0  0  0  0  0  0  0  0  0  # atno 10718 bound_to 10713
  152.9965  135.6218  154.2478 H   0  0  0  0  0  0  0  0  0  0  0  0  # atno 10763 bound_to 10752
  154.2217  135.2795  155.2924 H   0  0  0  0  0  0  0  0  0  0  0  0  # atno 10764 bound_to 10752
  154.5523  135.5730  153.6991 H   0  0  0  0  0  0  0  0  0  0  0  0  # atno 10765 bound_to 10752
  140.1995  134.8348  157.3002 H   0  0  0  0  0  0  0  0  0  0  0  0  # atno 11005 bound_to 11000
  144.6729  140.0943  143.7463 LP  0  0  0  0  0  0  0  0  0  0  0  0  # atno 17320 bound_to 7965
  145.9365  139.2640  143.1294 LP  0  0  0  0  0  0  0  0  0  0  0  0  # atno 17321 bound_to 7965
  140.3040  143.3242  152.0944 LP  0  0  0  0  0  0  0  0  0  0  0  0  # atno 17342 bound_to 10162
  139.4999  144.6679  151.6313 LP  0  0  0  0  0  0  0  0  0  0  0  0  # atno 17343 bound_to 10162
  157.5547  130.8206  149.8190 LP  0  0  0  0  0  0  0  0  0  0  0  0  # atno 17370 bound_to 10713
  156.0256  130.3780  150.1832 LP  0  0  0  0  0  0  0  0  0  0  0  0  # atno 17371 bound_to 10713
  140.2070  134.4185  155.7632 LP  0  0  0  0  0  0  0  0  0  0  0  0  # atno 17394 bound_to 11000
  141.2227  133.7099  156.8276 LP  0  0  0  0  0  0  0  0  0  0  0  0  # atno 17395 bound_to 11000

$$$$
