AV-unprocessed.smi:1050|AV-procd|sdf|4612|dock6
  -GOLD-   22720 3113D 1   1.00000     0.00000
 Structure written by MMmdl.
 48 49  0  0  0  0  0  0  0  0  1 V2000
  147.4134  136.4740  162.8827 C   0  0  0  0  0  0  0  0  0  0  0  0
  147.6828  137.1369  161.6521 O   0  0  0  0  0  0  0  0  0  0  0  0
  147.9500  136.3660  160.5393 C   0  0  0  0  0  0  0  0  0  0  0  0
  147.9495  134.9658  160.6703 C   0  0  0  0  0  0  0  0  0  0  0  0
  148.2213  134.1793  159.5365 C   0  0  0  0  0  0  0  0  0  0  0  0
  148.4756  134.8147  158.2967 C   0  0  0  0  0  0  0  0  0  0  0  0
  148.7979  134.0974  157.1079 N   0  0  0  0  0  0  0  0  0  0  0  0
  149.5837  133.0162  156.9537 C   0  0  0  0  0  0  0  0  0  0  0  0
  150.1879  132.4537  157.8665 O   0  0  0  0  0  0  0  0  0  0  0  0
  149.6931  132.4766  155.5174 C   0  0  2  0  0  0  0  0  0  0  0  0
  150.1077  133.5778  154.5293 C   0  0  0  0  0  0  0  0  0  0  0  0
  148.4392  131.9562  155.0831 O   0  0  0  0  0  0  0  0  0  0  0  0
  148.3945  131.5304  153.7269 C   0  0  0  0  0  0  0  0  0  0  0  0
  148.4688  136.2345  158.2640 C   0  0  0  0  0  0  0  0  0  0  0  0
  148.7198  136.9232  157.0612 N   0  0  0  0  0  0  0  0  0  0  0  0
  150.0746  136.8199  156.5155 C   0  0  0  0  0  0  0  0  0  0  0  0
  150.1352  137.4358  155.1059 C   0  0  0  0  0  0  0  0  0  0  0  0
  149.6466  138.8192  155.1772 N   0  0  0  0  0  0  0  0  0  0  0  0
  150.4028  139.9303  155.0103 C   0  0  0  0  0  0  0  0  0  0  0  0
  149.7603  141.3066  155.1957 C   0  0  0  0  0  0  0  0  0  0  0  0
  151.5960  139.8838  154.7119 O   0  0  0  0  0  0  0  0  0  0  0  0
  148.2423  138.8657  155.6057 C   0  0  0  0  0  0  0  0  0  0  0  0
  148.1275  138.2606  157.0186 C   0  0  0  0  0  0  0  0  0  0  0  0
  148.2081  136.9833  159.3620 N   0  0  0  0  0  0  0  0  0  0  0  0
  147.2268  137.2158  163.6590 H   0  0  0  0  0  0  0  0  0  0  0  0
  148.2614  135.8666  163.2025 H   0  0  0  0  0  0  0  0  0  0  0  0
  146.5274  135.8413  162.8095 H   0  0  0  0  0  0  0  0  0  0  0  0
  147.7509  134.5019  161.6252 H   0  0  0  0  0  0  0  0  0  0  0  0
  148.2462  133.1069  159.6479 H   0  0  0  0  0  0  0  0  0  0  0  0
  148.3075  134.4029  156.2795 H   0  0  0  0  0  0  0  0  0  0  0  0
  150.4458  131.6866  155.4775 H   0  0  0  0  0  0  0  0  0  0  0  0
  151.0585  134.0290  154.8155 H   0  0  0  0  0  0  0  0  0  0  0  0
  149.3617  134.3718  154.4740 H   0  0  0  0  0  0  0  0  0  0  0  0
  150.2265  133.1701  153.5251 H   0  0  0  0  0  0  0  0  0  0  0  0
  147.3780  131.2261  153.4780 H   0  0  0  0  0  0  0  0  0  0  0  0
  149.0470  130.6766  153.5417 H   0  0  0  0  0  0  0  0  0  0  0  0
  148.6752  132.3389  153.0509 H   0  0  0  0  0  0  0  0  0  0  0  0
  150.7778  137.3353  157.1715 H   0  0  0  0  0  0  0  0  0  0  0  0
  150.3752  135.7721  156.4781 H   0  0  0  0  0  0  0  0  0  0  0  0
  151.1441  137.3448  154.7066 H   0  0  0  0  0  0  0  0  0  0  0  0
  149.4992  136.8688  154.4242 H   0  0  0  0  0  0  0  0  0  0  0  0
  148.9277  141.4420  154.5045 H   0  0  0  0  0  0  0  0  0  0  0  0
  150.4846  142.0986  155.0018 H   0  0  0  0  0  0  0  0  0  0  0  0
  149.3986  141.4294  156.2168 H   0  0  0  0  0  0  0  0  0  0  0  0
  147.8302  139.8755  155.6029 H   0  0  0  0  0  0  0  0  0  0  0  0
  147.6345  138.2938  154.9029 H   0  0  0  0  0  0  0  0  0  0  0  0
  147.0802  138.2265  157.3191 H   0  0  0  0  0  0  0  0  0  0  0  0
  148.6412  138.8982  157.7395 H   0  0  0  0  0  0  0  0  0  0  0  0
  1  2  1  0  0  0  0
  1 25  1  0  0  0  0
  1 26  1  0  0  0  0
  1 27  1  0  0  0  0
  2  3  1  0  0  0  0
  3 24  1  0  0  0  0
  3  4  2  0  0  0  0
  4  5  1  0  0  0  0
  4 28  1  0  0  0  0
  5  6  2  0  0  0  0
  5 29  1  0  0  0  0
  6  7  1  0  0  0  0
  6 14  1  0  0  0  0
  7  8  1  0  0  0  0
  7 30  1  0  0  0  0
  8  9  2  0  0  0  0
  8 10  1  0  0  0  0
 10 11  1  0  0  0  0
 10 12  1  0  0  0  0
 10 31  1  0  0  0  0
 11 32  1  0  0  0  0
 11 33  1  0  0  0  0
 11 34  1  0  0  0  0
 12 13  1  0  0  0  0
 13 35  1  0  0  0  0
 13 36  1  0  0  0  0
 13 37  1  0  0  0  0
 14 15  1  0  0  0  0
 14 24  2  0  0  0  0
 15 23  1  0  0  0  0
 15 16  1  0  0  0  0
 16 17  1  0  0  0  0
 16 38  1  0  0  0  0
 16 39  1  0  0  0  0
 17 18  1  0  0  0  0
 17 40  1  0  0  0  0
 17 41  1  0  0  0  0
 18 19  1  0  0  0  0
 18 22  1  0  0  0  0
 19 20  1  0  0  0  0
 19 21  2  0  0  0  0
 20 42  1  0  0  0  0
 20 43  1  0  0  0  0
 20 44  1  0  0  0  0
 22 23  1  0  0  0  0
 22 45  1  0  0  0  0
 22 46  1  0  0  0  0
 23 47  1  0  0  0  0
 23 48  1  0  0  0  0
M  END
> <s_m_source_file>
AV-unprocessed.smi

> <i_m_source_file_index>
1050

> <i_lp_mmshare_version>
43012

> <i_f3d_flags>
0

> <s_epik_input>
W0NIM11PYzFbY0hdW2NIXWMoW05IXUMoPU8pW0NASF0oW0NIM10pT1tDSDNdKWMobjEpTjJbQ0gyXVtDSDJdTihDKD1PKVtDSDNdKVtDSDJdW0NIMl0y

> <s_epik_cmdline>
J2VwaWtfcHl0aG9uJywgJy1waCcsICc3LjAnLCAnLXRuJywgJzgnLCAnLW1hJywgJzIwMCcsICctbWV0YWxfYmluZGluZycsICctaW1hZScsICc8aW5maWxlLm1hZT4nLCAnLW9tYWUnLCAnPG91dGZpbGUubWFlPic=

> <r_lp_tautomer_probability>
1

> <r_epik_Ionization_Penalty>
0.000150604

> <r_epik_Ionization_Penalty_Charging>
0

> <r_epik_Ionization_Penalty_Neutral>
0.000150604

> <r_epik_State_Penalty>
-0

> <r_epik_Charging_Adjusted_Penalty>
0

> <i_epik_Tot_Q>
0

> <i_epik_Tot_abs_Q>
0

> <r_epik_Metal_State_Penalty>
-0

> <b_epik_Metal_Only>
0

> <s_lp_Force_Field>
OPLS_2005

> <r_lp_Energy>
41.1233

> <b_lp_Chiralities_Consistent>
1

> <s_lp_Variant>
AV-unprocessed.smi:1050-1

> <Gold.Version>
5.8.1

> <Gold.Id.Protein>
6NUR|6NUR_protein|mol2

> <Gold.PLP.Fitness>
39.6741

> <Gold.PLP.PLP>
-30.5127

> <Gold.PLP.part.hbond>
-3.9730

> <Gold.PLP.part.metal>
0.0000

> <Gold.PLP.part.buried>
-3.6037

> <Gold.PLP.part.nonpolar>
-22.8014

> <Gold.PLP.part.repulsive>
0.1242

> <Gold.PLP.ligand.clash>
0.6974

> <Gold.PLP.ligand.torsion>
0.8465

> <Gold.PLP.Chemscore.Hbond>
3.7360

> <Gold.PLP.Chemscore.CHOScore>
0.0000

> <Gold.PLP.Chemscore.Metal>
0.0000

> <Gold.Chemscore.Hbonds>
donor molecule, donor type, donor heavy atom, donor atom, acceptor molecule, acceptor atom, score
      P1  H  6896  6908       L1     9  1.00
      P1  H  6931  6943       L1     2  1.00
      P1  H  6934  6947       L1     2  0.67
      P1  H  7989  7998       L1    21  1.00

> <Gold.PLP.Chemscore.Internal.Correction>
0.3437

> <Gold.Rescore>
     Score         DG    S(hbond)    S(metal)    S(lipo)     H(rot)  DE(clash)    DE(int)     intcor
     15.22     -16.45       2.69        0.00      54.34       1.71       0.16       1.08       ----

> <Gold.Chemscore.Fitness>
15.2184

> <Gold.Chemscore.DG>
-16.4550

> <Gold.Chemscore.ZeroCoef>
-5.4800

> <Gold.Chemscore.Hbond>
2.6934

> <Gold.Chemscore.Metal>
0.0000

> <Gold.Chemscore.Lipo>
54.3419

> <Gold.Chemscore.Internal_Hbond>
0.0000

> <Gold.Chemscore.DEClash>
0.1611

> <Gold.Chemscore.DEInternal>
1.0755

> <Gold.Chemscore.Rot>
1.7106

> <Gold.Chemscore.Internal.Correction>
   9.000000E+99

> <Gold.Chemscore.Hbonds>
donor molecule, donor type, donor heavy atom, donor atom, acceptor molecule, acceptor atom, score
      P1  H  6896  6908       L1     9  0.95
      P1  H  6931  6943       L1     2  0.44
      P1  H  6934  6947       L1     2  0.39
      P1  H  7989  7998       L1    21  0.33

> <Gold.Chemscore.Hbond.Weighted>
-8.9960

> <Gold.Chemscore.Metal.Weighted>
-0.0000

> <Gold.Chemscore.Lipo.Weighted>
-6.3580

> <Gold.Chemscore.Internal_Hbond.Weighted>
0.0000

> <Gold.Chemscore.DEClash.Weighted>
0.1611

> <Gold.Chemscore.DEInternal.Weighted>
1.0755

> <Gold.Chemscore.Rot.Weighted>
4.3790

> <Gold.Chemscore.Internal.Correction.Weighted>
   9.000000E+99

> <Gold.Protein.RotatedTorsions>
[ 6907 6896 6895 6894 ] final  103.55 input  -60.11 | X-H torsion
[ 7974 7965 7964 7962 ] final  154.66 input  175.53 | X-H torsion
[ 8008 7997 7996 7995 ] final  -23.67 input   59.86 | X-H torsion
[ 10167 10162 10161 10158 ] final -169.58 input  -65.29 | X-H torsion
[ 10718 10713 10712 10709 ] final  -61.75 input   66.30 | X-H torsion
[ 10763 10752 10751 10750 ] final -132.72 input  -60.55 | X-H torsion
[ 11005 11000 10999 10996 ] final  -52.37 input  -57.11 | X-H torsion

> <Gold.Protein.ActiveResidues>
 VAL166  LYS551  ARG553  GLY616  TRP617  ASP618  TYR619  PRO620  LYS621  CYS622 
 ASP623  PHE694  ASN695  SER759  ASP760  ASP761  ALA762  ILE779  LEU786  VAL792 
 PHE793  MET794  SER795  GLU796  ALA797  LYS798  CYS799  TRP800  GLU811  SER814 

> <Gold.Protein.RotatedAtoms>
  152.5292  133.9809  159.7805 H   0  0  0  0  0  0  0  0  0  0  0  0  # atno 6907 bound_to 6896
  151.0063  133.6000  159.2695 H   0  0  0  0  0  0  0  0  0  0  0  0  # atno 6908 bound_to 6896
  151.3091  135.0796  159.9319 H   0  0  0  0  0  0  0  0  0  0  0  0  # atno 6909 bound_to 6896
  144.8074  139.6964  143.6156 H   0  0  0  0  0  0  0  0  0  0  0  0  # atno 7974 bound_to 7965
  154.4572  140.1974  156.0346 H   0  0  0  0  0  0  0  0  0  0  0  0  # atno 8008 bound_to 7997
  156.0770  140.3277  155.7618 H   0  0  0  0  0  0  0  0  0  0  0  0  # atno 8009 bound_to 7997
  155.5173  140.0567  157.2904 H   0  0  0  0  0  0  0  0  0  0  0  0  # atno 8010 bound_to 7997
  139.5914  144.1205  152.1639 H   0  0  0  0  0  0  0  0  0  0  0  0  # atno 10167 bound_to 10162
  156.0901  130.4201  150.1038 H   0  0  0  0  0  0  0  0  0  0  0  0  # atno 10718 bound_to 10713
  154.8740  135.3789  154.4455 H   0  0  0  0  0  0  0  0  0  0  0  0  # atno 10763 bound_to 10752
  153.5136  135.7029  153.5773 H   0  0  0  0  0  0  0  0  0  0  0  0  # atno 10764 bound_to 10752
  153.4051  135.3938  155.1980 H   0  0  0  0  0  0  0  0  0  0  0  0  # atno 10765 bound_to 10752
  141.0921  133.6631  156.4015 H   0  0  0  0  0  0  0  0  0  0  0  0  # atno 11005 bound_to 11000
  146.2368  139.5921  142.9518 LP  0  0  0  0  0  0  0  0  0  0  0  0  # atno 17320 bound_to 7965
  145.5405  141.0421  143.2333 LP  0  0  0  0  0  0  0  0  0  0  0  0  # atno 17321 bound_to 7965
  140.0780  144.5724  150.7143 LP  0  0  0  0  0  0  0  0  0  0  0  0  # atno 17342 bound_to 10162
  140.7176  143.2559  151.4383 LP  0  0  0  0  0  0  0  0  0  0  0  0  # atno 17343 bound_to 10162
  156.9050  130.9633  151.3571 LP  0  0  0  0  0  0  0  0  0  0  0  0  # atno 17370 bound_to 10713
  157.6047  130.8538  149.8857 LP  0  0  0  0  0  0  0  0  0  0  0  0  # atno 17371 bound_to 10713
  140.5228  134.6288  157.5324 LP  0  0  0  0  0  0  0  0  0  0  0  0  # atno 17394 bound_to 11000
  139.9749  134.7232  155.9969 LP  0  0  0  0  0  0  0  0  0  0  0  0  # atno 17395 bound_to 11000

$$$$
