AV-unprocessed.smi:3277|AV-procd|sdf|12536|dock3
  -GOLD-   2272018453D 1   1.00000     0.00000
 Structure written by MMmdl.
 35 37  0  0  0  0  0  0  0  0  1 V2000
  151.0760  140.2747  155.9105 C   0  0  0  0  0  0  0  0  0  0  0  0
  151.6879  139.6407  157.0677 N   0  0  0  0  0  0  0  0  0  0  0  0
  152.8525  138.9759  157.0374 C   0  0  0  0  0  0  0  0  0  0  0  0
  153.5273  138.8408  156.0170 O   0  0  0  0  0  0  0  0  0  0  0  0
  153.3348  138.3759  158.3593 C   0  0  0  0  0  0  0  0  0  0  0  0
  153.5343  139.4937  159.3319 C   0  0  0  0  0  0  0  0  0  0  0  0
  153.1633  140.7545  159.0939 N   0  0  0  0  0  0  0  0  0  0  0  0
  153.4528  141.6187  160.1562 C   0  0  0  0  0  0  0  0  0  0  0  0
  153.1158  143.0848  160.0778 C   0  0  2  0  0  0  0  0  0  0  0  0
  152.1888  143.6038  161.1982 C   0  0  0  0  0  0  0  0  0  0  0  0
  151.1166  144.3821  160.4105 C   0  0  1  0  0  0  0  0  0  0  0  0
  151.7447  145.6288  159.7559 C   0  0  0  0  0  0  0  0  0  0  0  0
  152.5723  145.0304  158.5998 C   0  0  0  0  0  0  0  0  0  0  0  0
  152.3701  143.5148  158.7924 C   0  0  2  0  0  0  0  0  0  0  0  0
  150.9007  143.4732  159.2072 C   0  0  0  0  0  0  0  0  0  0  0  0
  154.0495  140.9805  161.2154 C   0  0  0  0  0  0  0  0  0  0  0  0
  154.2671  139.2782  160.9177 S   0  0  0  0  0  0  0  0  0  0  0  0
  150.1101  140.6980  156.1855 H   0  0  0  0  0  0  0  0  0  0  0  0
  150.9158  139.5524  155.1092 H   0  0  0  0  0  0  0  0  0  0  0  0
  151.7064  141.0805  155.5334 H   0  0  0  0  0  0  0  0  0  0  0  0
  151.1946  139.7074  157.9462 H   0  0  0  0  0  0  0  0  0  0  0  0
  152.5984  137.6714  158.7481 H   0  0  0  0  0  0  0  0  0  0  0  0
  154.2715  137.8347  158.2209 H   0  0  0  0  0  0  0  0  0  0  0  0
  154.0549  143.6379  160.1311 H   0  0  0  0  0  0  0  0  0  0  0  0
  151.7221  142.7824  161.7437 H   0  0  0  0  0  0  0  0  0  0  0  0
  152.7160  144.2241  161.9236 H   0  0  0  0  0  0  0  0  0  0  0  0
  150.2193  144.5967  160.9914 H   0  0  0  0  0  0  0  0  0  0  0  0
  150.9750  146.2979  159.3693 H   0  0  0  0  0  0  0  0  0  0  0  0
  152.3589  146.1940  160.4578 H   0  0  0  0  0  0  0  0  0  0  0  0
  152.1724  145.3522  157.6374 H   0  0  0  0  0  0  0  0  0  0  0  0
  153.6211  145.3269  158.6373 H   0  0  0  0  0  0  0  0  0  0  0  0
  152.6288  142.9322  157.9076 H   0  0  0  0  0  0  0  0  0  0  0  0
  150.5453  142.4779  159.4758 H   0  0  0  0  0  0  0  0  0  0  0  0
  150.2275  143.8973  158.4600 H   0  0  0  0  0  0  0  0  0  0  0  0
  154.3729  141.4087  162.1527 H   0  0  0  0  0  0  0  0  0  0  0  0
  1  2  1  0  0  0  0
  1 18  1  0  0  0  0
  1 19  1  0  0  0  0
  1 20  1  0  0  0  0
  2  3  1  0  0  0  0
  2 21  1  0  0  0  0
  3  4  2  0  0  0  0
  3  5  1  0  0  0  0
  5  6  1  0  0  0  0
  5 22  1  0  0  0  0
  5 23  1  0  0  0  0
  6 17  1  0  0  0  0
  6  7  2  0  0  0  0
  7  8  1  0  0  0  0
  8  9  1  0  0  0  0
  8 16  2  0  0  0  0
  9 14  1  0  0  0  0
  9 10  1  0  0  0  0
  9 24  1  0  0  0  0
 10 11  1  0  0  0  0
 10 25  1  0  0  0  0
 10 26  1  0  0  0  0
 11 15  1  0  0  0  0
 11 12  1  0  0  0  0
 11 27  1  0  0  0  0
 12 13  1  0  0  0  0
 12 28  1  0  0  0  0
 12 29  1  0  0  0  0
 13 14  1  0  0  0  0
 13 30  1  0  0  0  0
 13 31  1  0  0  0  0
 14 15  1  0  0  0  0
 14 32  1  0  0  0  0
 15 33  1  0  0  0  0
 15 34  1  0  0  0  0
 16 17  1  0  0  0  0
 16 35  1  0  0  0  0
M  END
> <s_m_source_file>
AV-unprocessed.smi

> <i_m_source_file_index>
3277

> <i_lp_mmshare_version>
43012

> <i_f3d_flags>
0

> <s_epik_input>
W0NIM11bTkhdQyg9TylbQ0gyXWMxbmMoW2NIXXMxKVtDQEhdKFtDSDJdW0NAQEhdMjMpW0NAQEhdKFtDSDJdMylbQ0gyXVtDSDJdMg==

> <s_epik_cmdline>
J2VwaWtfcHl0aG9uJywgJy1waCcsICc3LjAnLCAnLXRuJywgJzgnLCAnLW1hJywgJzIwMCcsICctbWV0YWxfYmluZGluZycsICctaW1hZScsICc8aW5maWxlLm1hZT4nLCAnLW9tYWUnLCAnPG91dGZpbGUubWFlPic=

> <r_lp_tautomer_probability>
1

> <r_epik_Ionization_Penalty>
8.50008e-05

> <r_epik_Ionization_Penalty_Charging>
0

> <r_epik_Ionization_Penalty_Neutral>
8.50008e-05

> <r_epik_State_Penalty>
-0

> <r_epik_Charging_Adjusted_Penalty>
0

> <i_epik_Tot_Q>
0

> <i_epik_Tot_abs_Q>
0

> <r_epik_Metal_State_Penalty>
-0

> <b_epik_Metal_Only>
0

> <s_lp_Force_Field>
OPLS_2005

> <r_lp_Energy>
44.9061

> <b_lp_Chiralities_Consistent>
1

> <s_lp_Variant>
AV-unprocessed.smi:3277-1

> <Gold.Version>
5.8.1

> <Gold.Id.Protein>
6NUR|6NUR_protein|mol2

> <Gold.PLP.Fitness>
43.9560

> <Gold.PLP.PLP>
-41.1138

> <Gold.PLP.part.hbond>
-1.0000

> <Gold.PLP.part.metal>
0.0000

> <Gold.PLP.part.buried>
-4.4546

> <Gold.PLP.part.nonpolar>
-35.8133

> <Gold.PLP.part.repulsive>
0.0595

> <Gold.PLP.ligand.clash>
0.0000

> <Gold.PLP.ligand.torsion>
0.0802

> <Gold.PLP.Chemscore.Hbond>
1.0000

> <Gold.PLP.Chemscore.CHOScore>
0.0000

> <Gold.PLP.Chemscore.Metal>
0.0000

> <Gold.Chemscore.Hbonds>
donor molecule, donor type, donor heavy atom, donor atom, acceptor molecule, acceptor atom, score
      P1  H  7997  8010       L1     4  0.76

> <Gold.PLP.Chemscore.Internal.Correction>
0.0026

> <Gold.Rescore>
     Score         DG    S(hbond)    S(metal)    S(lipo)     H(rot)  DE(clash)    DE(int)     intcor
     18.35     -19.70       0.96        0.00     125.00       1.41       0.03       1.32       ----

> <Gold.Chemscore.Fitness>
18.3515

> <Gold.Chemscore.DG>
-19.6964

> <Gold.Chemscore.ZeroCoef>
-5.4800

> <Gold.Chemscore.Hbond>
0.9600

> <Gold.Chemscore.Metal>
0.0000

> <Gold.Chemscore.Lipo>
125.0006

> <Gold.Chemscore.Internal_Hbond>
0.0000

> <Gold.Chemscore.DEClash>
0.0263

> <Gold.Chemscore.DEInternal>
1.3186

> <Gold.Chemscore.Rot>
1.4122

> <Gold.Chemscore.Internal.Correction>
   9.000000E+99

> <Gold.Chemscore.Hbonds>
donor molecule, donor type, donor heavy atom, donor atom, acceptor molecule, acceptor atom, score
      P1  H  7997  8010       L1     4  0.12

> <Gold.Chemscore.Hbond.Weighted>
-3.2065

> <Gold.Chemscore.Metal.Weighted>
-0.0000

> <Gold.Chemscore.Lipo.Weighted>
-14.6251

> <Gold.Chemscore.Internal_Hbond.Weighted>
0.0000

> <Gold.Chemscore.DEClash.Weighted>
0.0263

> <Gold.Chemscore.DEInternal.Weighted>
1.3186

> <Gold.Chemscore.Rot.Weighted>
3.6151

> <Gold.Chemscore.Internal.Correction.Weighted>
   9.000000E+99

> <Gold.Protein.RotatedTorsions>
[ 6907 6896 6895 6894 ] final   72.87 input  -60.11 | X-H torsion
[ 7974 7965 7964 7962 ] final  -44.75 input  175.53 | X-H torsion
[ 8008 7997 7996 7995 ] final   86.17 input   59.86 | X-H torsion
[ 10167 10162 10161 10158 ] final -164.81 input  -65.29 | X-H torsion
[ 10718 10713 10712 10709 ] final  -68.74 input   66.30 | X-H torsion
[ 10763 10752 10751 10750 ] final -104.71 input  -60.55 | X-H torsion
[ 11005 11000 10999 10996 ] final  165.14 input  -57.11 | X-H torsion

> <Gold.Protein.ActiveResidues>
 VAL166  LYS551  ARG553  GLY616  TRP617  ASP618  TYR619  PRO620  LYS621  CYS622 
 ASP623  PHE694  ASN695  SER759  ASP760  ASP761  ALA762  ILE779  LEU786  VAL792 
 PHE793  MET794  SER795  GLU796  ALA797  LYS798  CYS799  TRP800  GLU811  SER814 

> <Gold.Protein.RotatedAtoms>
  152.4892  134.4507  159.9573 H   0  0  0  0  0  0  0  0  0  0  0  0  # atno 6907 bound_to 6896
  151.4497  133.3615  159.2801 H   0  0  0  0  0  0  0  0  0  0  0  0  # atno 6908 bound_to 6896
  150.9030  134.8468  159.7433 H   0  0  0  0  0  0  0  0  0  0  0  0  # atno 6909 bound_to 6896
  145.9889  140.7202  142.9327 H   0  0  0  0  0  0  0  0  0  0  0  0  # atno 7974 bound_to 7965
  155.9594  140.3394  155.6477 H   0  0  0  0  0  0  0  0  0  0  0  0  # atno 8008 bound_to 7997
  155.6818  140.0738  157.2500 H   0  0  0  0  0  0  0  0  0  0  0  0  # atno 8009 bound_to 7997
  154.4139  140.1673  156.1978 H   0  0  0  0  0  0  0  0  0  0  0  0  # atno 8010 bound_to 7997
  139.6225  144.0596  152.1945 H   0  0  0  0  0  0  0  0  0  0  0  0  # atno 10167 bound_to 10162
  156.0490  130.4300  150.2044 H   0  0  0  0  0  0  0  0  0  0  0  0  # atno 10718 bound_to 10713
  154.7897  135.4776  154.0024 H   0  0  0  0  0  0  0  0  0  0  0  0  # atno 10763 bound_to 10752
  153.1612  135.6809  153.8747 H   0  0  0  0  0  0  0  0  0  0  0  0  # atno 10764 bound_to 10752
  153.8360  135.3185  155.3400 H   0  0  0  0  0  0  0  0  0  0  0  0  # atno 10765 bound_to 10752
  140.2531  134.7961  157.3520 H   0  0  0  0  0  0  0  0  0  0  0  0  # atno 11005 bound_to 11000
  144.6883  140.3036  143.7259 LP  0  0  0  0  0  0  0  0  0  0  0  0  # atno 17320 bound_to 7965
  145.7659  139.1840  143.2240 LP  0  0  0  0  0  0  0  0  0  0  0  0  # atno 17321 bound_to 7965
  140.0242  144.6130  150.7541 LP  0  0  0  0  0  0  0  0  0  0  0  0  # atno 17342 bound_to 10162
  140.7391  143.2786  151.3665 LP  0  0  0  0  0  0  0  0  0  0  0  0  # atno 17343 bound_to 10162
  157.0130  130.9956  151.3360 LP  0  0  0  0  0  0  0  0  0  0  0  0  # atno 17370 bound_to 10713
  157.5397  130.8112  149.8014 LP  0  0  0  0  0  0  0  0  0  0  0  0  # atno 17371 bound_to 10713
  140.1538  134.4815  155.7942 LP  0  0  0  0  0  0  0  0  0  0  0  0  # atno 17394 bound_to 11000
  141.2199  133.6873  156.7426 LP  0  0  0  0  0  0  0  0  0  0  0  0  # atno 17395 bound_to 11000

$$$$
