AV-unprocessed.smi:530|AV-procd|sdf|2843|dock2
  -GOLD-   2262023333D 1   1.00000     0.00000
 Structure written by MMmdl.
 35 37  0  0  0  0  0  0  0  0  1 V2000
  150.9349  145.3321  159.2486 C   0  0  0  0  0  0  0  0  0  0  0  0
  151.6863  144.0843  159.5896 C   0  0  0  0  0  0  0  0  0  0  0  0
  152.3092  143.9260  160.7578 N   0  0  0  0  0  0  0  0  0  0  0  0
  152.8529  142.6610  160.6417 C   0  0  0  0  0  0  0  0  0  0  0  0
  153.6331  141.9097  161.5497 C   0  0  0  0  0  0  0  0  0  0  0  0
  154.0846  140.6188  161.2052 C   0  0  0  0  0  0  0  0  0  0  0  0
  153.7635  140.0617  159.9503 C   0  0  0  0  0  0  0  0  0  0  0  0
  152.9856  140.7923  159.0316 C   0  0  0  0  0  0  0  0  0  0  0  0
  152.5365  142.0800  159.3806 C   0  0  0  0  0  0  0  0  0  0  0  0
  151.7730  143.0424  158.7268 N   0  0  0  0  0  0  0  0  0  0  0  0
  151.1945  142.9321  157.3944 C   0  0  0  0  0  0  0  0  0  0  0  0
  150.1659  141.7894  157.2782 C   0  0  1  0  0  0  0  0  0  0  0  0
  148.8779  142.3184  157.0269 O   0  0  0  0  0  0  0  0  0  0  0  0
  150.5877  140.7773  156.2244 C   0  0  0  0  0  0  0  0  0  0  0  0
  151.8646  140.1754  156.2745 C   0  0  0  0  0  0  0  0  0  0  0  0
  152.2434  139.2317  155.2999 C   0  0  0  0  0  0  0  0  0  0  0  0
  151.3474  138.8824  154.2715 C   0  0  0  0  0  0  0  0  0  0  0  0
  150.0715  139.4757  154.2193 C   0  0  0  0  0  0  0  0  0  0  0  0
  149.6921  140.4193  155.1938 C   0  0  0  0  0  0  0  0  0  0  0  0
  150.9851  146.0452  160.0722 H   0  0  0  0  0  0  0  0  0  0  0  0
  149.8862  145.1030  159.0589 H   0  0  0  0  0  0  0  0  0  0  0  0
  151.3612  145.8028  158.3630 H   0  0  0  0  0  0  0  0  0  0  0  0
  153.8852  142.3281  162.5128 H   0  0  0  0  0  0  0  0  0  0  0  0
  154.6809  140.0537  161.9065 H   0  0  0  0  0  0  0  0  0  0  0  0
  154.1150  139.0730  159.6930 H   0  0  0  0  0  0  0  0  0  0  0  0
  152.7404  140.3702  158.0684 H   0  0  0  0  0  0  0  0  0  0  0  0
  150.7317  143.8859  157.1378 H   0  0  0  0  0  0  0  0  0  0  0  0
  152.0005  142.7875  156.6748 H   0  0  0  0  0  0  0  0  0  0  0  0
  150.1021  141.2726  158.2362 H   0  0  0  0  0  0  0  0  0  0  0  0
  148.9696  143.0791  156.4738 H   0  0  0  0  0  0  0  0  0  0  0  0
  152.5568  140.4336  157.0626 H   0  0  0  0  0  0  0  0  0  0  0  0
  153.2214  138.7750  155.3424 H   0  0  0  0  0  0  0  0  0  0  0  0
  151.6377  138.1585  153.5245 H   0  0  0  0  0  0  0  0  0  0  0  0
  149.3827  139.2062  153.4322 H   0  0  0  0  0  0  0  0  0  0  0  0
  148.7095  140.8657  155.1473 H   0  0  0  0  0  0  0  0  0  0  0  0
  1  2  1  0  0  0  0
  1 20  1  0  0  0  0
  1 21  1  0  0  0  0
  1 22  1  0  0  0  0
  2 10  1  0  0  0  0
  2  3  2  0  0  0  0
  3  4  1  0  0  0  0
  4  9  2  0  0  0  0
  4  5  1  0  0  0  0
  5  6  2  0  0  0  0
  5 23  1  0  0  0  0
  6  7  1  0  0  0  0
  6 24  1  0  0  0  0
  7  8  2  0  0  0  0
  7 25  1  0  0  0  0
  8  9  1  0  0  0  0
  8 26  1  0  0  0  0
  9 10  1  0  0  0  0
 10 11  1  0  0  0  0
 11 12  1  0  0  0  0
 11 27  1  0  0  0  0
 11 28  1  0  0  0  0
 12 13  1  0  0  0  0
 12 14  1  0  0  0  0
 12 29  1  0  0  0  0
 13 30  1  0  0  0  0
 14 19  1  0  0  0  0
 14 15  2  0  0  0  0
 15 16  1  0  0  0  0
 15 31  1  0  0  0  0
 16 17  2  0  0  0  0
 16 32  1  0  0  0  0
 17 18  1  0  0  0  0
 17 33  1  0  0  0  0
 18 19  2  0  0  0  0
 18 34  1  0  0  0  0
 19 35  1  0  0  0  0
M  END
> <s_m_source_file>
AV-unprocessed.smi

> <i_m_source_file_index>
530

> <i_lp_mmshare_version>
43012

> <i_f3d_flags>
0

> <s_epik_input>
W2NIXTFbY0hdW2NIXVtjSF1jKGMxMiluKGMobjIpW0NIM10pW0NIMl1bQ0BIXShbT0hdKWMzW2NIXVtjSF1bY0hdW2NIXVtjSF0z

> <s_epik_cmdline>
J2VwaWtfcHl0aG9uJywgJy1waCcsICc3LjAnLCAnLXRuJywgJzgnLCAnLW1hJywgJzIwMCcsICctbWV0YWxfYmluZGluZycsICctaW1hZScsICc8aW5maWxlLm1hZT4nLCAnLW9tYWUnLCAnPG91dGZpbGUubWFlPic=

> <r_epik_Ionization_Penalty>
0.129663

> <r_epik_Ionization_Penalty_Charging>
0

> <r_epik_Ionization_Penalty_Neutral>
0.129663

> <r_epik_State_Penalty>
0.119073

> <r_epik_Charging_Adjusted_Penalty>
0.119073

> <i_epik_Tot_Q>
0

> <i_epik_Tot_abs_Q>
0

> <r_epik_Metal_State_Penalty>
0.000131867

> <b_epik_Metal_Only>
0

> <s_lp_Force_Field>
OPLS_2005

> <r_lp_Energy>
11.6979

> <b_lp_Chiralities_Consistent>
1

> <s_lp_Variant>
AV-unprocessed.smi:530-2

> <Gold.Version>
5.8.1

> <Gold.Id.Protein>
6NUR|6NUR_protein|mol2

> <Gold.PLP.Fitness>
50.2421

> <Gold.PLP.PLP>
-48.8028

> <Gold.PLP.part.hbond>
-1.0000

> <Gold.PLP.part.metal>
0.0000

> <Gold.PLP.part.buried>
-5.0593

> <Gold.PLP.part.nonpolar>
-42.9493

> <Gold.PLP.part.repulsive>
0.0706

> <Gold.PLP.ligand.clash>
0.0000

> <Gold.PLP.ligand.torsion>
0.8009

> <Gold.PLP.Chemscore.Hbond>
1.0000

> <Gold.PLP.Chemscore.CHOScore>
0.0000

> <Gold.PLP.Chemscore.Metal>
0.0000

> <Gold.Chemscore.Hbonds>
donor molecule, donor type, donor heavy atom, donor atom, acceptor molecule, acceptor atom, score
      L1  H    13    30       P1  8028  1.00

> <Gold.PLP.Chemscore.Internal.Correction>
0.0411

> <Gold.Rescore>
     Score         DG    S(hbond)    S(metal)    S(lipo)     H(rot)  DE(clash)    DE(int)     intcor
     18.77     -19.58       0.98        0.00     129.79       1.70       0.06       0.75       ----

> <Gold.Chemscore.Fitness>
18.7657

> <Gold.Chemscore.DG>
-19.5807

> <Gold.Chemscore.ZeroCoef>
-5.4800

> <Gold.Chemscore.Hbond>
0.9794

> <Gold.Chemscore.Metal>
0.0000

> <Gold.Chemscore.Lipo>
129.7850

> <Gold.Chemscore.Internal_Hbond>
0.0000

> <Gold.Chemscore.DEClash>
0.0627

> <Gold.Chemscore.DEInternal>
0.7522

> <Gold.Chemscore.Rot>
1.7013

> <Gold.Chemscore.Internal.Correction>
   9.000000E+99

> <Gold.Chemscore.Hbonds>
donor molecule, donor type, donor heavy atom, donor atom, acceptor molecule, acceptor atom, score
      L1  H    13    30       P1  8028  0.99

> <Gold.Chemscore.Hbond.Weighted>
-3.2712

> <Gold.Chemscore.Metal.Weighted>
-0.0000

> <Gold.Chemscore.Lipo.Weighted>
-15.1848

> <Gold.Chemscore.Internal_Hbond.Weighted>
0.0000

> <Gold.Chemscore.DEClash.Weighted>
0.0627

> <Gold.Chemscore.DEInternal.Weighted>
0.7522

> <Gold.Chemscore.Rot.Weighted>
4.3554

> <Gold.Chemscore.Internal.Correction.Weighted>
   9.000000E+99

> <Gold.Protein.RotatedTorsions>
[ 6907 6896 6895 6894 ] final   83.88 input  -60.11 | X-H torsion
[ 7974 7965 7964 7962 ] final  175.80 input  175.53 | X-H torsion
[ 8008 7997 7996 7995 ] final  139.71 input   59.86 | X-H torsion
[ 10167 10162 10161 10158 ] final  165.58 input  -65.29 | X-H torsion
[ 10718 10713 10712 10709 ] final -135.53 input   66.30 | X-H torsion
[ 10763 10752 10751 10750 ] final  -94.55 input  -60.55 | X-H torsion
[ 11005 11000 10999 10996 ] final   63.43 input  -57.11 | X-H torsion

> <Gold.Protein.ActiveResidues>
 VAL166  LYS551  ARG553  GLY616  TRP617  ASP618  TYR619  PRO620  LYS621  CYS622 
 ASP623  PHE694  ASN695  SER759  ASP760  ASP761  ALA762  ILE779  LEU786  VAL792 
 PHE793  MET794  SER795  GLU796  ALA797  LYS798  CYS799  TRP800  GLU811  SER814 

> <Gold.Protein.RotatedAtoms>
  152.5338  134.2828  159.9013 H   0  0  0  0  0  0  0  0  0  0  0  0  # atno 6907 bound_to 6896
  151.2781  133.4216  159.2633 H   0  0  0  0  0  0  0  0  0  0  0  0  # atno 6908 bound_to 6896
  151.0307  134.9552  159.8166 H   0  0  0  0  0  0  0  0  0  0  0  0  # atno 6909 bound_to 6896
  144.7195  140.0001  143.6440 H   0  0  0  0  0  0  0  0  0  0  0  0  # atno 7974 bound_to 7965
  156.2987  140.2360  156.4281 H   0  0  0  0  0  0  0  0  0  0  0  0  # atno 8008 bound_to 7997
  154.8295  140.0433  157.1487 H   0  0  0  0  0  0  0  0  0  0  0  0  # atno 8009 bound_to 7997
  154.9224  140.3005  155.5213 H   0  0  0  0  0  0  0  0  0  0  0  0  # atno 8010 bound_to 7997
  139.4908  144.4117  151.9291 H   0  0  0  0  0  0  0  0  0  0  0  0  # atno 10167 bound_to 10162
  156.2672  130.7244  151.1199 H   0  0  0  0  0  0  0  0  0  0  0  0  # atno 10718 bound_to 10713
  154.7066  135.5153  153.8604 H   0  0  0  0  0  0  0  0  0  0  0  0  # atno 10763 bound_to 10752
  153.0746  135.6612  154.0183 H   0  0  0  0  0  0  0  0  0  0  0  0  # atno 10764 bound_to 10752
  154.0032  135.3009  155.3380 H   0  0  0  0  0  0  0  0  0  0  0  0  # atno 10765 bound_to 10752
  140.0025  134.6420  155.9908 H   0  0  0  0  0  0  0  0  0  0  0  0  # atno 11005 bound_to 11000
  146.0342  139.3362  143.0736 LP  0  0  0  0  0  0  0  0  0  0  0  0  # atno 17320 bound_to 7965
  145.8415  140.9578  143.0797 LP  0  0  0  0  0  0  0  0  0  0  0  0  # atno 17321 bound_to 7965
  140.3559  144.3032  150.5941 LP  0  0  0  0  0  0  0  0  0  0  0  0  # atno 17342 bound_to 10162
  140.5445  143.2217  151.8030 LP  0  0  0  0  0  0  0  0  0  0  0  0  # atno 17343 bound_to 10162
  157.7271  131.0641  150.5879 LP  0  0  0  0  0  0  0  0  0  0  0  0  # atno 17370 bound_to 10713
  156.5972  130.4345  149.5912 LP  0  0  0  0  0  0  0  0  0  0  0  0  # atno 17371 bound_to 10713
  141.1652  133.6537  156.4456 LP  0  0  0  0  0  0  0  0  0  0  0  0  # atno 17394 bound_to 11000
  140.4702  134.6761  157.5125 LP  0  0  0  0  0  0  0  0  0  0  0  0  # atno 17395 bound_to 11000

$$$$
