AV-unprocessed.smi:730|AV-procd|sdf|3522|dock5
  -GOLD-   22720 0513D 1   1.00000     0.00000
 Structure written by MMmdl.
 40 41  0  0  0  0  0  0  0  0  1 V2000
  149.0901  141.3804  154.1900 C   0  0  0  0  0  0  0  0  0  0  0  0
  147.5643  141.3457  154.4079 C   0  0  0  0  0  0  0  0  0  0  0  0
  147.2774  141.6765  155.8846 C   0  0  0  0  0  0  0  0  0  0  0  0
  146.9216  142.4217  153.5127 C   0  0  0  0  0  0  0  0  0  0  0  0
  147.0059  139.9920  154.0683 C   0  0  0  0  0  0  0  0  0  0  0  0
  146.9988  139.2342  152.9286 C   0  0  0  0  0  0  0  0  0  0  0  0
  146.3014  138.0614  153.3211 C   0  0  0  0  0  0  0  0  0  0  0  0
  146.0796  137.0041  152.4022 N   0  0  0  0  0  0  0  0  0  0  0  0
  144.9164  136.3904  152.1263 C   0  0  0  0  0  0  0  0  0  0  0  0
  143.8318  136.6587  152.6439 O   0  0  0  0  0  0  0  0  0  0  0  0
  145.0785  135.4307  151.2041 N   0  0  0  0  0  0  0  0  0  0  0  0
  144.0107  134.5830  150.6782 C   0  0  2  0  0  0  0  0  0  0  0  0
  143.6436  133.4822  151.6914 C   0  0  0  0  0  0  0  0  0  0  0  0
  144.3693  132.2270  151.2109 C   0  0  0  0  0  0  0  0  0  0  0  0
  144.3207  132.3421  149.6911 C   0  0  0  0  0  0  0  0  0  0  0  0
  144.4875  133.8418  149.4080 C   0  0  1  0  0  0  0  0  0  0  0  0
  143.7282  134.2102  148.2750 O   0  0  0  0  0  0  0  0  0  0  0  0
  145.9145  138.0942  154.5861 N   0  0  0  0  0  0  0  0  0  0  0  0
  146.3633  139.3278  155.0702 O   0  0  0  0  0  0  0  0  0  0  0  0
  149.5055  142.3583  154.4361 H   0  0  0  0  0  0  0  0  0  0  0  0
  149.3488  141.1682  153.1518 H   0  0  0  0  0  0  0  0  0  0  0  0
  149.5984  140.6443  154.8139 H   0  0  0  0  0  0  0  0  0  0  0  0
  147.7248  140.9369  156.5494 H   0  0  0  0  0  0  0  0  0  0  0  0
  146.2062  141.6948  156.0894 H   0  0  0  0  0  0  0  0  0  0  0  0
  147.6784  142.6523  156.1603 H   0  0  0  0  0  0  0  0  0  0  0  0
  147.3180  143.4133  153.7335 H   0  0  0  0  0  0  0  0  0  0  0  0
  145.8408  142.4651  153.6522 H   0  0  0  0  0  0  0  0  0  0  0  0
  147.1075  142.2210  152.4569 H   0  0  0  0  0  0  0  0  0  0  0  0
  147.4263  139.4802  151.9679 H   0  0  0  0  0  0  0  0  0  0  0  0
  146.8940  136.6806  151.9018 H   0  0  0  0  0  0  0  0  0  0  0  0
  146.0048  135.2765  150.8336 H   0  0  0  0  0  0  0  0  0  0  0  0
  143.1324  135.1970  150.4676 H   0  0  0  0  0  0  0  0  0  0  0  0
  143.8902  133.7346  152.7236 H   0  0  0  0  0  0  0  0  0  0  0  0
  142.5675  133.3074  151.6536 H   0  0  0  0  0  0  0  0  0  0  0  0
  145.4051  132.2447  151.5524 H   0  0  0  0  0  0  0  0  0  0  0  0
  143.9095  131.3093  151.5788 H   0  0  0  0  0  0  0  0  0  0  0  0
  145.0809  131.7352  149.1984 H   0  0  0  0  0  0  0  0  0  0  0  0
  143.3463  131.9938  149.3439 H   0  0  0  0  0  0  0  0  0  0  0  0
  145.5386  134.0551  149.2052 H   0  0  0  0  0  0  0  0  0  0  0  0
  142.8241  134.2995  148.5358 H   0  0  0  0  0  0  0  0  0  0  0  0
  1  2  1  0  0  0  0
  1 20  1  0  0  0  0
  1 21  1  0  0  0  0
  1 22  1  0  0  0  0
  2  3  1  0  0  0  0
  2  4  1  0  0  0  0
  2  5  1  0  0  0  0
  3 23  1  0  0  0  0
  3 24  1  0  0  0  0
  3 25  1  0  0  0  0
  4 26  1  0  0  0  0
  4 27  1  0  0  0  0
  4 28  1  0  0  0  0
  5 19  1  0  0  0  0
  5  6  2  0  0  0  0
  6  7  1  0  0  0  0
  6 29  1  0  0  0  0
  7  8  1  0  0  0  0
  7 18  2  0  0  0  0
  8  9  1  0  0  0  0
  8 30  1  0  0  0  0
  9 10  2  0  0  0  0
  9 11  1  0  0  0  0
 11 12  1  0  0  0  0
 11 31  1  0  0  0  0
 12 16  1  0  0  0  0
 12 13  1  0  0  0  0
 12 32  1  0  0  0  0
 13 14  1  0  0  0  0
 13 33  1  0  0  0  0
 13 34  1  0  0  0  0
 14 15  1  0  0  0  0
 14 35  1  0  0  0  0
 14 36  1  0  0  0  0
 15 16  1  0  0  0  0
 15 37  1  0  0  0  0
 15 38  1  0  0  0  0
 16 17  1  0  0  0  0
 16 39  1  0  0  0  0
 17 40  1  0  0  0  0
 18 19  1  0  0  0  0
M  END
> <s_m_source_file>
AV-unprocessed.smi

> <i_m_source_file_index>
730

> <i_lp_mmshare_version>
43012

> <i_f3d_flags>
0

> <s_epik_input>
W0NIM11DKFtDSDNdKShbQ0gzXSljMVtjSF1jKG5vMSlbTkhdQyg9TylbTkhdW0NAQEhdMltDSDJdW0NIMl1bQ0gyXVtDQEhdMltPSF0=

> <s_epik_cmdline>
J2VwaWtfcHl0aG9uJywgJy1waCcsICc3LjAnLCAnLXRuJywgJzgnLCAnLW1hJywgJzIwMCcsICctbWV0YWxfYmluZGluZycsICctaW1hZScsICc8aW5maWxlLm1hZT4nLCAnLW9tYWUnLCAnPG91dGZpbGUubWFlPic=

> <r_lp_tautomer_probability>
1

> <r_epik_Ionization_Penalty>
2.23071e-05

> <r_epik_Ionization_Penalty_Charging>
0

> <r_epik_Ionization_Penalty_Neutral>
2.23071e-05

> <r_epik_State_Penalty>
-0

> <r_epik_Charging_Adjusted_Penalty>
0

> <i_epik_Tot_Q>
0

> <i_epik_Tot_abs_Q>
0

> <r_epik_Metal_State_Penalty>
-0

> <b_epik_Metal_Only>
0

> <s_lp_Force_Field>
OPLS_2005

> <r_lp_Energy>
16.5614

> <b_lp_Chiralities_Consistent>
1

> <s_lp_Variant>
AV-unprocessed.smi:730-1

> <Gold.Version>
5.8.1

> <Gold.Id.Protein>
6NUR|6NUR_protein|mol2

> <Gold.PLP.Fitness>
35.7226

> <Gold.PLP.PLP>
-31.0315

> <Gold.PLP.part.hbond>
-3.4781

> <Gold.PLP.part.metal>
0.0000

> <Gold.PLP.part.buried>
-2.4027

> <Gold.PLP.part.nonpolar>
-24.8994

> <Gold.PLP.part.repulsive>
0.2987

> <Gold.PLP.ligand.clash>
0.0000

> <Gold.PLP.ligand.torsion>
0.6444

> <Gold.PLP.Chemscore.Hbond>
1.9913

> <Gold.PLP.Chemscore.CHOScore>
0.0000

> <Gold.PLP.Chemscore.Metal>
0.0000

> <Gold.Chemscore.Hbonds>
donor molecule, donor type, donor heavy atom, donor atom, acceptor molecule, acceptor atom, score
      L1  H     8    30       P1  7948  0.86
      L1  H    17    40       P1 10186  0.91

> <Gold.PLP.Chemscore.Internal.Correction>
0.0061

> <Gold.Rescore>
     Score         DG    S(hbond)    S(metal)    S(lipo)     H(rot)  DE(clash)    DE(int)     intcor
     15.13     -16.07       1.86        0.00      74.74       1.71       0.44       0.50       ----

> <Gold.Chemscore.Fitness>
15.1317

> <Gold.Chemscore.DG>
-16.0670

> <Gold.Chemscore.ZeroCoef>
-5.4800

> <Gold.Chemscore.Hbond>
1.8641

> <Gold.Chemscore.Metal>
0.0000

> <Gold.Chemscore.Lipo>
74.7423

> <Gold.Chemscore.Internal_Hbond>
0.0000

> <Gold.Chemscore.DEClash>
0.4360

> <Gold.Chemscore.DEInternal>
0.4992

> <Gold.Chemscore.Rot>
1.7125

> <Gold.Chemscore.Internal.Correction>
   9.000000E+99

> <Gold.Chemscore.Hbonds>
donor molecule, donor type, donor heavy atom, donor atom, acceptor molecule, acceptor atom, score
      L1  H     8    30       P1  7948  0.80
      L1  H    17    40       P1 10186  0.89

> <Gold.Chemscore.Hbond.Weighted>
-6.2262

> <Gold.Chemscore.Metal.Weighted>
-0.0000

> <Gold.Chemscore.Lipo.Weighted>
-8.7449

> <Gold.Chemscore.Internal_Hbond.Weighted>
0.0000

> <Gold.Chemscore.DEClash.Weighted>
0.4360

> <Gold.Chemscore.DEInternal.Weighted>
0.4992

> <Gold.Chemscore.Rot.Weighted>
4.3841

> <Gold.Chemscore.Internal.Correction.Weighted>
   9.000000E+99

> <Gold.Protein.RotatedTorsions>
[ 6907 6896 6895 6894 ] final  -80.54 input  -60.11 | X-H torsion
[ 7974 7965 7964 7962 ] final  139.18 input  175.53 | X-H torsion
[ 8008 7997 7996 7995 ] final  117.52 input   59.86 | X-H torsion
[ 10167 10162 10161 10158 ] final   79.39 input  -65.29 | X-H torsion
[ 10718 10713 10712 10709 ] final  -96.43 input   66.30 | X-H torsion
[ 10763 10752 10751 10750 ] final -119.41 input  -60.55 | X-H torsion
[ 11005 11000 10999 10996 ] final   22.56 input  -57.11 | X-H torsion

> <Gold.Protein.ActiveResidues>
 VAL166  LYS551  ARG553  GLY616  TRP617  ASP618  TYR619  PRO620  LYS621  CYS622 
 ASP623  PHE694  ASN695  SER759  ASP760  ASP761  ALA762  ILE779  LEU786  VAL792 
 PHE793  MET794  SER795  GLU796  ALA797  LYS798  CYS799  TRP800  GLU811  SER814 

> <Gold.Protein.RotatedAtoms>
  150.6927  134.3953  159.5094 H   0  0  0  0  0  0  0  0  0  0  0  0  # atno 6907 bound_to 6896
  152.1735  134.8811  160.0541 H   0  0  0  0  0  0  0  0  0  0  0  0  # atno 6908 bound_to 6896
  151.9828  133.3729  159.4151 H   0  0  0  0  0  0  0  0  0  0  0  0  # atno 6909 bound_to 6896
  144.9302  139.5056  143.5621 H   0  0  0  0  0  0  0  0  0  0  0  0  # atno 7974 bound_to 7965
  156.2498  140.2894  156.0691 H   0  0  0  0  0  0  0  0  0  0  0  0  # atno 8008 bound_to 7997
  155.1690  140.0401  157.2876 H   0  0  0  0  0  0  0  0  0  0  0  0  # atno 8009 bound_to 7997
  154.6339  140.2506  155.7408 H   0  0  0  0  0  0  0  0  0  0  0  0  # atno 8010 bound_to 7997
  139.9609  144.5962  150.8073 H   0  0  0  0  0  0  0  0  0  0  0  0  # atno 10167 bound_to 10162
  156.0062  130.5151  150.6225 H   0  0  0  0  0  0  0  0  0  0  0  0  # atno 10718 bound_to 10713
  154.8616  135.4239  154.2294 H   0  0  0  0  0  0  0  0  0  0  0  0  # atno 10763 bound_to 10752
  153.3282  135.6986  153.6976 H   0  0  0  0  0  0  0  0  0  0  0  0  # atno 10764 bound_to 10752
  153.6004  135.3538  155.2916 H   0  0  0  0  0  0  0  0  0  0  0  0  # atno 10765 bound_to 10752
  140.3793  134.1938  155.7664 H   0  0  0  0  0  0  0  0  0  0  0  0  # atno 11005 bound_to 11000
  146.3244  139.8247  142.8920 LP  0  0  0  0  0  0  0  0  0  0  0  0  # atno 17320 bound_to 7965
  145.3154  141.0230  143.3531 LP  0  0  0  0  0  0  0  0  0  0  0  0  # atno 17321 bound_to 7965
  140.7553  143.3044  151.2998 LP  0  0  0  0  0  0  0  0  0  0  0  0  # atno 17342 bound_to 10162
  139.6555  144.0284  152.2656 LP  0  0  0  0  0  0  0  0  0  0  0  0  # atno 17343 bound_to 10162
  157.4038  131.0814  151.1284 LP  0  0  0  0  0  0  0  0  0  0  0  0  # atno 17370 bound_to 10713
  157.1937  130.6363  149.5713 LP  0  0  0  0  0  0  0  0  0  0  0  0  # atno 17371 bound_to 10713
  141.1929  133.8163  157.0821 LP  0  0  0  0  0  0  0  0  0  0  0  0  # atno 17394 bound_to 11000
  140.0491  134.9815  157.1103 LP  0  0  0  0  0  0  0  0  0  0  0  0  # atno 17395 bound_to 11000

$$$$
