AV-unprocessed.smi:249|AV-procd|sdf|1927|dock7
  -GOLD-   2262021 43D 1   1.00000     0.00000
 Structure written by MMmdl.
 64 67  0  0  0  0  0  0  0  0  2 V2000
  146.3901  128.0484  151.6549 C   0  0  0  0  0  0  0  0  0  0  0  0
  146.4219  129.2049  152.6680 C   0  0  0  0  0  0  0  0  0  0  0  0
  146.5699  130.5490  152.0373 N   0  3  1  0  0  0  0  0  0  0  0  0
  145.4232  130.8682  151.1381 C   0  0  0  0  0  0  0  0  0  0  0  0
  145.6021  132.2156  150.4212 C   0  0  0  0  0  0  0  0  0  0  0  0
  145.7680  133.3688  151.4246 C   0  0  1  0  0  0  0  0  0  0  0  0
  144.5376  133.6235  152.1919 N   0  0  0  0  0  0  0  0  0  0  0  0
  143.2706  133.5362  151.4724 C   0  0  0  0  0  0  0  0  0  0  0  0
  144.5581  134.7248  152.9752 C   0  0  0  0  0  0  0  0  0  0  0  0
  144.5578  135.9295  152.3538 N   0  0  0  0  0  0  0  0  0  0  0  0
  144.5682  137.0525  153.0788 C   0  0  0  0  0  0  0  0  0  0  0  0
  144.5814  137.1894  154.4068 N   0  0  0  0  0  0  0  0  0  0  0  0
  144.5896  135.9765  155.0314 C   0  0  0  0  0  0  0  0  0  0  0  0
  144.5808  134.7031  154.3976 C   0  0  0  0  0  0  0  0  0  0  0  0
  144.5971  133.6946  155.3532 N   0  0  0  0  0  0  0  0  0  0  0  0
  144.6188  134.3362  156.4899 C   0  0  0  0  0  0  0  0  0  0  0  0
  144.6178  135.7089  156.3886 N   0  0  0  0  0  0  0  0  0  0  0  0
  144.6416  136.6582  157.4864 C   0  0  0  0  0  0  0  0  0  0  0  0
  143.8770  136.1696  158.7480 C   0  0  1  0  0  0  0  0  0  0  0  0
  143.9598  137.1557  159.9394 C   0  0  0  0  0  0  0  0  0  0  0  0
  145.2902  137.3588  160.3703 O   0  0  0  0  0  0  0  0  0  0  0  0
  142.3957  135.8023  158.4654 C   0  0  1  0  0  0  0  0  0  0  0  0
  141.6112  135.1683  159.6131 C   0  0  0  0  0  0  0  0  0  0  0  0
  140.1878  135.7062  159.4322 C   0  0  0  0  0  0  0  0  0  0  0  0
  140.1917  136.3740  158.1773 O   0  0  0  0  0  0  0  0  0  0  0  0
  141.4803  136.9385  158.0057 C   0  0  0  0  0  0  0  0  0  0  0  0
  146.9863  133.0096  152.3028 C   0  0  0  0  0  0  0  0  0  0  0  0
  146.8293  131.6496  153.0224 C   0  0  2  0  0  0  0  0  0  0  0  0
  148.0827  131.4056  153.8881 C   0  0  0  0  0  0  0  0  0  0  0  0
  146.4522  127.0906  152.1715 H   0  0  0  0  0  0  0  0  0  0  0  0
  147.2311  128.1031  150.9632 H   0  0  0  0  0  0  0  0  0  0  0  0
  145.4686  128.0316  151.0737 H   0  0  0  0  0  0  0  0  0  0  0  0
  145.5293  129.1850  153.2948 H   0  0  0  0  0  0  0  0  0  0  0  0
  147.2657  129.0011  153.3232 H   0  0  0  0  0  0  0  0  0  0  0  0
  145.3167  130.1034  150.3706 H   0  0  0  0  0  0  0  0  0  0  0  0
  144.4961  130.8656  151.7136 H   0  0  0  0  0  0  0  0  0  0  0  0
  146.4850  132.1644  149.7825 H   0  0  0  0  0  0  0  0  0  0  0  0
  144.7665  132.3974  149.7454 H   0  0  0  0  0  0  0  0  0  0  0  0
  145.9997  134.2745  150.8632 H   0  0  0  0  0  0  0  0  0  0  0  0
  142.4532  134.0048  152.0235 H   0  0  0  0  0  0  0  0  0  0  0  0
  142.9975  132.4928  151.3155 H   0  0  0  0  0  0  0  0  0  0  0  0
  143.3448  134.0216  150.4985 H   0  0  0  0  0  0  0  0  0  0  0  0
  144.5648  137.9734  152.5146 H   0  0  0  0  0  0  0  0  0  0  0  0
  144.6414  133.8234  157.4404 H   0  0  0  0  0  0  0  0  0  0  0  0
  145.6830  136.8752  157.7208 H   0  0  0  0  0  0  0  0  0  0  0  0
  144.2137  137.5865  157.1108 H   0  0  0  0  0  0  0  0  0  0  0  0
  144.3516  135.2409  159.0695 H   0  0  0  0  0  0  0  0  0  0  0  0
  143.5066  138.1138  159.6825 H   0  0  0  0  0  0  0  0  0  0  0  0
  143.4094  136.7684  160.7974 H   0  0  0  0  0  0  0  0  0  0  0  0
  145.8665  137.2410  159.6304 H   0  0  0  0  0  0  0  0  0  0  0  0
  142.3913  135.0780  157.6488 H   0  0  0  0  0  0  0  0  0  0  0  0
  141.6392  134.0802  159.5433 H   0  0  0  0  0  0  0  0  0  0  0  0
  141.9930  135.4411  160.5961 H   0  0  0  0  0  0  0  0  0  0  0  0
  139.4361  134.9169  159.4528 H   0  0  0  0  0  0  0  0  0  0  0  0
  139.9483  136.4234  160.2185 H   0  0  0  0  0  0  0  0  0  0  0  0
  141.5576  137.8265  158.6326 H   0  0  0  0  0  0  0  0  0  0  0  0
  141.6569  137.2294  156.9698 H   0  0  0  0  0  0  0  0  0  0  0  0
  147.8744  132.9738  151.6697 H   0  0  0  0  0  0  0  0  0  0  0  0
  147.1888  133.8004  153.0258 H   0  0  0  0  0  0  0  0  0  0  0  0
  145.9696  131.7087  153.6912 H   0  0  0  0  0  0  0  0  0  0  0  0
  148.3269  132.2906  154.4767 H   0  0  0  0  0  0  0  0  0  0  0  0
  148.9527  131.1709  153.2739 H   0  0  0  0  0  0  0  0  0  0  0  0
  147.9421  130.5992  154.6069 H   0  0  0  0  0  0  0  0  0  0  0  0
  147.3900  130.5007  151.4497 H   0  0  0  0  0  0  0  0  0  0  0  0
  1  2  1  0  0  0  0
  1 30  1  0  0  0  0
  1 31  1  0  0  0  0
  1 32  1  0  0  0  0
  2  3  1  0  0  0  0
  2 33  1  0  0  0  0
  2 34  1  0  0  0  0
  3 28  1  0  0  0  0
  3  4  1  0  0  0  0
  3 64  1  0  0  0  0
  4  5  1  0  0  0  0
  4 35  1  0  0  0  0
  4 36  1  0  0  0  0
  5  6  1  0  0  0  0
  5 37  1  0  0  0  0
  5 38  1  0  0  0  0
  6  7  1  0  0  0  0
  6 27  1  0  0  0  0
  6 39  1  0  0  0  0
  7  8  1  0  0  0  0
  7  9  1  0  0  0  0
  8 40  1  0  0  0  0
  8 41  1  0  0  0  0
  8 42  1  0  0  0  0
  9 14  1  0  0  0  0
  9 10  2  0  0  0  0
 10 11  1  0  0  0  0
 11 12  2  0  0  0  0
 11 43  1  0  0  0  0
 12 13  1  0  0  0  0
 13 17  1  0  0  0  0
 13 14  2  0  0  0  0
 14 15  1  0  0  0  0
 15 16  2  0  0  0  0
 16 17  1  0  0  0  0
 16 44  1  0  0  0  0
 17 18  1  0  0  0  0
 18 19  1  0  0  0  0
 18 45  1  0  0  0  0
 18 46  1  0  0  0  0
 19 20  1  0  0  0  0
 19 22  1  0  0  0  0
 19 47  1  0  0  0  0
 20 21  1  0  0  0  0
 20 48  1  0  0  0  0
 20 49  1  0  0  0  0
 21 50  1  0  0  0  0
 22 26  1  0  0  0  0
 22 23  1  0  0  0  0
 22 51  1  0  0  0  0
 23 24  1  0  0  0  0
 23 52  1  0  0  0  0
 23 53  1  0  0  0  0
 24 25  1  0  0  0  0
 24 54  1  0  0  0  0
 24 55  1  0  0  0  0
 25 26  1  0  0  0  0
 26 56  1  0  0  0  0
 26 57  1  0  0  0  0
 27 28  1  0  0  0  0
 27 58  1  0  0  0  0
 27 59  1  0  0  0  0
 28 29  1  0  0  0  0
 28 60  1  0  0  0  0
 29 61  1  0  0  0  0
 29 62  1  0  0  0  0
 29 63  1  0  0  0  0
M  CHG  1   3   1
M  END
> <s_m_source_file>
AV-unprocessed.smi

> <i_m_source_file_index>
249

> <i_lp_mmshare_version>
43012

> <i_f3d_flags>
0

> <s_epik_input>
W0NIM11bQ0gyXU4xW0NIMl1bQ0gyXVtDQEhdKFtDSDJdW0NASF0xW0NIM10pTihbQ0gzXSljKG5bY0hdbjIpYyhjMjMpbltjSF1uM1tDSDJdW0NASF0oW0NIMl1bT0hdKVtDQEBIXTRbQ0gyXVtDSDJdT1tDSDJdNA==

> <s_epik_cmdline>
J2VwaWtfcHl0aG9uJywgJy1waCcsICc3LjAnLCAnLXRuJywgJzgnLCAnLW1hJywgJzIwMCcsICctbWV0YWxfYmluZGluZycsICctaW1hZScsICc8aW5maWxlLm1hZT4nLCAnLW9tYWUnLCAnPG91dGZpbGUubWFlPic=

> <r_lp_tautomer_probability>
1

> <r_epik_Ionization_Penalty>
0.00294688

> <r_epik_Ionization_Penalty_Charging>
0.00169971

> <r_epik_Ionization_Penalty_Neutral>
0.00124717

> <r_epik_State_Penalty>
-0

> <r_epik_Charging_Adjusted_Penalty>
0.00169971

> <i_epik_Tot_Q>
1

> <i_epik_Tot_abs_Q>
1

> <r_epik_Metal_State_Penalty>
-0

> <b_epik_Metal_Only>
0

> <s_lp_Force_Field>
OPLS_2005

> <r_lp_Energy>
57.5801

> <b_lp_Chiralities_Consistent>
1

> <s_lp_Variant>
AV-unprocessed.smi:249-30

> <Gold.Version>
5.8.1

> <Gold.Id.Protein>
6NUR|6NUR_protein|mol2

> <Gold.PLP.Fitness>
45.9671

> <Gold.PLP.PLP>
-32.2857

> <Gold.PLP.part.hbond>
-3.0000

> <Gold.PLP.part.metal>
0.0000

> <Gold.PLP.part.buried>
-5.3072

> <Gold.PLP.part.nonpolar>
-24.6424

> <Gold.PLP.part.repulsive>
0.4369

> <Gold.PLP.ligand.clash>
0.0000

> <Gold.PLP.ligand.torsion>
0.7736

> <Gold.PLP.Chemscore.Hbond>
2.8480

> <Gold.PLP.Chemscore.CHOScore>
2.0000

> <Gold.PLP.Chemscore.Metal>
0.0000

> <Gold.Chemscore.Hbonds>
donor molecule, donor type, donor heavy atom, donor atom, acceptor molecule, acceptor atom, score
      L1  H     3    64       P1 10747  1.00
      P1  H 11000 11005       L1    25  0.45
      L1  C    11    43       P1 10171  0.20
      L1  C    11    43       P1 10175  0.76

> <Gold.PLP.Chemscore.Internal.Correction>
0.6846

> <Gold.Rescore>
     Score         DG    S(hbond)    S(metal)    S(lipo)     H(rot)  DE(clash)    DE(int)     intcor
     14.84     -15.86       2.56        0.00      79.11       2.90       0.01       1.01       ----

> <Gold.Chemscore.Fitness>
14.8436

> <Gold.Chemscore.DG>
-15.8620

> <Gold.Chemscore.ZeroCoef>
-5.4800

> <Gold.Chemscore.Hbond>
2.5604

> <Gold.Chemscore.Metal>
0.0000

> <Gold.Chemscore.Lipo>
79.1095

> <Gold.Chemscore.Internal_Hbond>
0.0000

> <Gold.Chemscore.DEClash>
0.0106

> <Gold.Chemscore.DEInternal>
1.0078

> <Gold.Chemscore.Rot>
2.9006

> <Gold.Chemscore.Internal.Correction>
   9.000000E+99

> <Gold.Chemscore.Hbonds>
donor molecule, donor type, donor heavy atom, donor atom, acceptor molecule, acceptor atom, score
      L1  H     3    64       P1 10747  0.97
      P1  H 11000 11005       L1    25  0.01

> <Gold.Chemscore.Hbond.Weighted>
-8.5518

> <Gold.Chemscore.Metal.Weighted>
-0.0000

> <Gold.Chemscore.Lipo.Weighted>
-9.2558

> <Gold.Chemscore.Internal_Hbond.Weighted>
0.0000

> <Gold.Chemscore.DEClash.Weighted>
0.0106

> <Gold.Chemscore.DEInternal.Weighted>
1.0078

> <Gold.Chemscore.Rot.Weighted>
7.4256

> <Gold.Chemscore.Internal.Correction.Weighted>
   9.000000E+99

> <Gold.Protein.RotatedTorsions>
[ 6907 6896 6895 6894 ] final  160.65 input  -60.11 | X-H torsion
[ 7974 7965 7964 7962 ] final   -7.73 input  175.53 | X-H torsion
[ 8008 7997 7996 7995 ] final  -98.68 input   59.86 | X-H torsion
[ 10167 10162 10161 10158 ] final   38.65 input  -65.29 | X-H torsion
[ 10718 10713 10712 10709 ] final  -29.94 input   66.30 | X-H torsion
[ 10763 10752 10751 10750 ] final  -65.95 input  -60.55 | X-H torsion
[ 11005 11000 10999 10996 ] final  165.52 input  -57.11 | X-H torsion

> <Gold.Protein.ActiveResidues>
 VAL166  LYS551  ARG553  GLY616  TRP617  ASP618  TYR619  PRO620  LYS621  CYS622 
 ASP623  PHE694  ASN695  SER759  ASP760  ASP761  ALA762  ILE779  LEU786  VAL792 
 PHE793  MET794  SER795  GLU796  ALA797  LYS798  CYS799  TRP800  GLU811  SER814 

> <Gold.Protein.RotatedAtoms>
  151.9674  133.3714  159.4057 H   0  0  0  0  0  0  0  0  0  0  0  0  # atno 6907 bound_to 6896
  150.6954  134.4176  159.5199 H   0  0  0  0  0  0  0  0  0  0  0  0  # atno 6908 bound_to 6896
  152.1875  134.8701  160.0571 H   0  0  0  0  0  0  0  0  0  0  0  0  # atno 6909 bound_to 6896
  146.2299  140.2364  142.8342 H   0  0  0  0  0  0  0  0  0  0  0  0  # atno 7974 bound_to 7965
  154.8045  140.0453  157.1297 H   0  0  0  0  0  0  0  0  0  0  0  0  # atno 8008 bound_to 7997
  154.9440  140.3056  155.5087 H   0  0  0  0  0  0  0  0  0  0  0  0  # atno 8009 bound_to 7997
  156.2965  140.2300  156.4512 H   0  0  0  0  0  0  0  0  0  0  0  0  # atno 8010 bound_to 7997
  140.3916  144.1845  150.6131 H   0  0  0  0  0  0  0  0  0  0  0  0  # atno 10167 bound_to 10162
  156.4061  130.4399  149.7286 H   0  0  0  0  0  0  0  0  0  0  0  0  # atno 10718 bound_to 10713
  154.3527  135.6133  153.5651 H   0  0  0  0  0  0  0  0  0  0  0  0  # atno 10763 bound_to 10752
  152.9797  135.5796  154.4725 H   0  0  0  0  0  0  0  0  0  0  0  0  # atno 10764 bound_to 10752
  154.4449  135.2851  155.1799 H   0  0  0  0  0  0  0  0  0  0  0  0  # atno 10765 bound_to 10752
  140.2570  134.7932  157.3555 H   0  0  0  0  0  0  0  0  0  0  0  0  # atno 11005 bound_to 11000
  144.9518  140.8186  143.5567 LP  0  0  0  0  0  0  0  0  0  0  0  0  # atno 17320 bound_to 7965
  145.2325  139.2108  143.5035 LP  0  0  0  0  0  0  0  0  0  0  0  0  # atno 17321 bound_to 7965
  140.4834  143.2371  151.8923 LP  0  0  0  0  0  0  0  0  0  0  0  0  # atno 17342 bound_to 10162
  139.4789  144.5245  151.8755 LP  0  0  0  0  0  0  0  0  0  0  0  0  # atno 17343 bound_to 10162
  156.4283  130.7803  151.2822 LP  0  0  0  0  0  0  0  0  0  0  0  0  # atno 17370 bound_to 10713
  157.7505  131.0162  150.3533 LP  0  0  0  0  0  0  0  0  0  0  0  0  # atno 17371 bound_to 10713
  140.1502  134.4859  155.7967 LP  0  0  0  0  0  0  0  0  0  0  0  0  # atno 17394 bound_to 11000
  141.2195  133.6859  156.7365 LP  0  0  0  0  0  0  0  0  0  0  0  0  # atno 17395 bound_to 11000

$$$$
