AV-unprocessed.smi:287|AV-procd|sdf|2183|dock3
  -GOLD-   2262021563D 1   1.00000     0.00000
 Structure written by MMmdl.
 55 58  0  0  0  0  0  0  0  0  1 V2000
  151.3554  142.1615  158.0266 C   0  0  0  0  0  0  0  0  0  0  0  0
  150.8066  141.4336  156.8477 C   0  0  0  0  0  0  0  0  0  0  0  0
  149.5720  141.3653  156.2713 C   0  0  0  0  0  0  0  0  0  0  0  0
  149.6696  140.4788  155.1570 C   0  0  0  0  0  0  0  0  0  0  0  0
  148.5393  140.0952  154.2113 C   0  0  1  0  0  0  0  0  0  0  0  0
  147.9553  141.3600  153.5613 C   0  0  0  0  0  0  0  0  0  0  0  0
  148.9769  139.2868  153.1359 O   0  0  0  0  0  0  0  0  0  0  0  0
  147.4206  139.2937  154.9161 C   0  0  0  0  0  0  0  0  0  0  0  0
  146.5205  138.6333  153.9791 N   0  0  0  0  0  0  0  0  0  0  0  0
  146.2816  137.3082  154.0623 C   0  0  0  0  0  0  0  0  0  0  0  0
  146.5743  136.7371  155.2552 N   0  0  0  0  0  0  0  0  0  0  0  0
  146.3732  135.4299  155.4426 C   0  0  0  0  0  0  0  0  0  0  0  0
  145.8971  134.5276  154.5829 N   0  0  0  0  0  0  0  0  0  0  0  0
  145.6020  135.0955  153.3779 C   0  0  0  0  0  0  0  0  0  0  0  0
  145.7630  136.4677  153.0327 C   0  0  0  0  0  0  0  0  0  0  0  0
  145.3598  136.6565  151.7145 N   0  0  0  0  0  0  0  0  0  0  0  0
  144.9875  135.4709  151.3148 C   0  0  0  0  0  0  0  0  0  0  0  0
  145.1044  134.4715  152.2555 N   0  0  0  0  0  0  0  0  0  0  0  0
  144.7733  133.0157  152.1370 C   0  0  1  0  0  0  0  0  0  0  0  0
  143.8296  132.8807  151.1160 O   0  0  0  0  0  0  0  0  0  0  0  0
  144.3099  132.0177  150.0852 C   0  0  1  0  0  0  0  0  0  0  0  0
  143.7609  132.4381  148.7103 C   0  0  0  0  0  0  0  0  0  0  0  0
  143.8398  133.8401  148.5665 O   0  0  0  0  0  0  0  0  0  0  0  0
  145.8381  132.0475  150.2278 C   0  0  1  0  0  0  0  0  0  0  0  0
  146.4033  133.1401  149.5225 O   0  0  0  0  0  0  0  0  0  0  0  0
  146.0014  132.1773  151.7355 C   0  0  1  0  0  0  0  0  0  0  0  0
  147.2620  132.7039  152.1155 O   0  0  0  0  0  0  0  0  0  0  0  0
  150.9874  140.0895  155.1343 C   0  0  0  0  0  0  0  0  0  0  0  0
  151.7914  139.2028  154.2419 C   0  0  0  0  0  0  0  0  0  0  0  0
  151.6813  140.6583  156.1595 O   0  0  0  0  0  0  0  0  0  0  0  0
  144.3530  132.7466  153.1065 H   0  0  0  0  0  0  0  0  0  0  0  0
  143.9792  131.0048  150.3229 H   0  0  0  0  0  0  0  0  0  0  0  0
  146.2957  131.1316  149.8524 H   0  0  0  0  0  0  0  0  0  0  0  0
  145.8809  131.1940  152.1917 H   0  0  0  0  0  0  0  0  0  0  0  0
  150.5551  142.6204  158.6075 H   0  0  0  0  0  0  0  0  0  0  0  0
  152.0386  142.9495  157.7097 H   0  0  0  0  0  0  0  0  0  0  0  0
  151.9010  141.4824  158.6821 H   0  0  0  0  0  0  0  0  0  0  0  0
  148.6914  141.8875  156.6152 H   0  0  0  0  0  0  0  0  0  0  0  0
  147.5531  142.0407  154.3125 H   0  0  0  0  0  0  0  0  0  0  0  0
  147.1451  141.1184  152.8720 H   0  0  0  0  0  0  0  0  0  0  0  0
  148.7160  141.9041  152.9999 H   0  0  0  0  0  0  0  0  0  0  0  0
  148.7202  139.7013  152.3264 H   0  0  0  0  0  0  0  0  0  0  0  0
  147.8836  138.5146  155.5233 H   0  0  0  0  0  0  0  0  0  0  0  0
  146.8567  139.9330  155.5969 H   0  0  0  0  0  0  0  0  0  0  0  0
  146.1743  139.2120  153.2271 H   0  0  0  0  0  0  0  0  0  0  0  0
  146.6319  135.0534  156.4212 H   0  0  0  0  0  0  0  0  0  0  0  0
  144.6174  135.2948  150.3153 H   0  0  0  0  0  0  0  0  0  0  0  0
  144.2966  131.9443  147.8991 H   0  0  0  0  0  0  0  0  0  0  0  0
  142.7097  132.1608  148.6237 H   0  0  0  0  0  0  0  0  0  0  0  0
  144.1642  134.0351  147.7007 H   0  0  0  0  0  0  0  0  0  0  0  0
  145.6983  133.6901  149.2150 H   0  0  0  0  0  0  0  0  0  0  0  0
  147.9230  132.3341  151.5496 H   0  0  0  0  0  0  0  0  0  0  0  0
  151.6326  139.4615  153.1950 H   0  0  0  0  0  0  0  0  0  0  0  0
  151.5101  138.1587  154.3801 H   0  0  0  0  0  0  0  0  0  0  0  0
  152.8575  139.2946  154.4506 H   0  0  0  0  0  0  0  0  0  0  0  0
  1  2  1  0  0  0  0
  1 35  1  0  0  0  0
  1 36  1  0  0  0  0
  1 37  1  0  0  0  0
  2 30  1  0  0  0  0
  2  3  2  0  0  0  0
  3  4  1  0  0  0  0
  3 38  1  0  0  0  0
  4  5  1  0  0  0  0
  4 28  2  0  0  0  0
  5  6  1  0  0  0  0
  5  7  1  0  0  0  0
  5  8  1  0  0  0  0
  6 39  1  0  0  0  0
  6 40  1  0  0  0  0
  6 41  1  0  0  0  0
  7 42  1  0  0  0  0
  8  9  1  0  0  0  0
  8 43  1  0  0  0  0
  8 44  1  0  0  0  0
  9 10  1  0  0  0  0
  9 45  1  0  0  0  0
 10 15  1  0  0  0  0
 10 11  2  0  0  0  0
 11 12  1  0  0  0  0
 12 13  2  0  0  0  0
 12 46  1  0  0  0  0
 13 14  1  0  0  0  0
 14 18  1  0  0  0  0
 14 15  2  0  0  0  0
 15 16  1  0  0  0  0
 16 17  2  0  0  0  0
 17 18  1  0  0  0  0
 17 47  1  0  0  0  0
 18 19  1  0  0  0  0
 19 31  1  0  0  0  0
 19 26  1  0  0  0  0
 19 20  1  0  0  0  0
 20 21  1  0  0  0  0
 21 32  1  0  0  0  0
 21 22  1  0  0  0  0
 21 24  1  0  0  0  0
 22 23  1  0  0  0  0
 22 48  1  0  0  0  0
 22 49  1  0  0  0  0
 23 50  1  0  0  0  0
 24 33  1  0  0  0  0
 24 25  1  0  0  0  0
 24 26  1  0  0  0  0
 25 51  1  0  0  0  0
 26 34  1  0  0  0  0
 26 27  1  0  0  0  0
 27 52  1  0  0  0  0
 28 29  1  0  0  0  0
 28 30  1  0  0  0  0
 29 53  1  0  0  0  0
 29 54  1  0  0  0  0
 29 55  1  0  0  0  0
M  END
> <s_m_source_file>
AV-unprocessed.smi

> <i_m_source_file_index>
287

> <i_lp_mmshare_version>
43012

> <i_f3d_flags>
0

> <s_epik_input>
W0NIM11jMVtjSF1jKGMobzEpW0NIM10pW0NAQF0oW0NIM10pKFtPSF0pW0NIMl1bTkhdYyhuW2NIXW4yKWMoYzIzKW5bY0hdbjNbQ0BASF00T1tDQEhdKFtDSDJdW09IXSlbQ0BASF0oW09IXSlbQ0BIXTRbT0hd

> <s_epik_cmdline>
J2VwaWtfcHl0aG9uJywgJy1waCcsICc3LjAnLCAnLXRuJywgJzgnLCAnLW1hJywgJzIwMCcsICctbWV0YWxfYmluZGluZycsICctaW1hZScsICc8aW5maWxlLm1hZT4nLCAnLW9tYWUnLCAnPG91dGZpbGUubWFlPic=

> <r_lp_tautomer_probability>
1

> <r_epik_Ionization_Penalty>
0.000992612

> <r_epik_Ionization_Penalty_Charging>
0

> <r_epik_Ionization_Penalty_Neutral>
0.000992612

> <r_epik_State_Penalty>
-0

> <r_epik_Charging_Adjusted_Penalty>
0

> <i_epik_Tot_Q>
0

> <i_epik_Tot_abs_Q>
0

> <r_epik_Metal_State_Penalty>
-0

> <b_epik_Metal_Only>
0

> <s_epik_Chemistry_Notes>
This compound contains an acetal/aminal-like group ( X-CH(R)-Y where X, Y are N, S, or O) that may be acid/base labile, releasing an aldehyde.

> <s_lp_Force_Field>
OPLS_2005

> <r_lp_Energy>
47.3874

> <b_lp_Chiralities_Consistent>
1

> <s_lp_Variant>
AV-unprocessed.smi:287-7

> <Gold.Version>
5.8.1

> <Gold.Id.Protein>
6NUR|6NUR_protein|mol2

> <Gold.PLP.Fitness>
54.8792

> <Gold.PLP.PLP>
-45.1266

> <Gold.PLP.part.hbond>
-7.3484

> <Gold.PLP.part.metal>
0.0000

> <Gold.PLP.part.buried>
-2.7552

> <Gold.PLP.part.nonpolar>
-34.8324

> <Gold.PLP.part.repulsive>
0.5019

> <Gold.PLP.ligand.clash>
0.0000

> <Gold.PLP.ligand.torsion>
1.1384

> <Gold.PLP.Chemscore.Hbond>
3.7632

> <Gold.PLP.Chemscore.CHOScore>
0.0000

> <Gold.PLP.Chemscore.Metal>
0.0000

> <Gold.Chemscore.Hbonds>
donor molecule, donor type, donor heavy atom, donor atom, acceptor molecule, acceptor atom, score
      L1  H     7    42       P1  7957  0.51
      L1  H    23    50       P1  7921  0.29
      L1  H    25    51       P1  7921  0.29
      L1  H    27    52       P1 10747  0.55

> <Gold.PLP.Chemscore.Internal.Correction>
0.7398

> <Gold.Rescore>
     Score         DG    S(hbond)    S(metal)    S(lipo)     H(rot)  DE(clash)    DE(int)     intcor
      7.17     -11.67       2.26        0.00     103.61       5.27       2.61       1.89       ----

> <Gold.Chemscore.Fitness>
7.1685

> <Gold.Chemscore.DG>
-11.6683

> <Gold.Chemscore.ZeroCoef>
-5.4800

> <Gold.Chemscore.Hbond>
2.2603

> <Gold.Chemscore.Metal>
0.0000

> <Gold.Chemscore.Lipo>
103.6128

> <Gold.Chemscore.Internal_Hbond>
0.0000

> <Gold.Chemscore.DEClash>
2.6146

> <Gold.Chemscore.DEInternal>
1.8853

> <Gold.Chemscore.Rot>
5.2672

> <Gold.Chemscore.Internal.Correction>
   9.000000E+99

> <Gold.Chemscore.Hbonds>
donor molecule, donor type, donor heavy atom, donor atom, acceptor molecule, acceptor atom, score
      L1  H     7    42       P1  7957  0.50
      L1  H    23    50       P1  7921  0.29
      L1  H    25    51       P1  7921  0.07
      L1  H    27    52       P1 10747  0.54

> <Gold.Chemscore.Hbond.Weighted>
-7.5496

> <Gold.Chemscore.Metal.Weighted>
-0.0000

> <Gold.Chemscore.Lipo.Weighted>
-12.1227

> <Gold.Chemscore.Internal_Hbond.Weighted>
0.0000

> <Gold.Chemscore.DEClash.Weighted>
2.6146

> <Gold.Chemscore.DEInternal.Weighted>
1.8853

> <Gold.Chemscore.Rot.Weighted>
13.4839

> <Gold.Chemscore.Internal.Correction.Weighted>
   9.000000E+99

> <Gold.Protein.RotatedTorsions>
[ 6907 6896 6895 6894 ] final  -55.92 input  -60.11 | X-H torsion
[ 7974 7965 7964 7962 ] final   65.61 input  175.53 | X-H torsion
[ 8008 7997 7996 7995 ] final -152.05 input   59.86 | X-H torsion
[ 10167 10162 10161 10158 ] final  -16.27 input  -65.29 | X-H torsion
[ 10718 10713 10712 10709 ] final   30.22 input   66.30 | X-H torsion
[ 10763 10752 10751 10750 ] final -171.37 input  -60.55 | X-H torsion
[ 11005 11000 10999 10996 ] final  -17.00 input  -57.11 | X-H torsion

> <Gold.Protein.ActiveResidues>
 VAL166  LYS551  ARG553  GLY616  TRP617  ASP618  TYR619  PRO620  LYS621  CYS622 
 ASP623  PHE694  ASN695  SER759  ASP760  ASP761  ALA762  ILE779  LEU786  VAL792 
 PHE793  MET794  SER795  GLU796  ALA797  LYS798  CYS799  TRP800  GLU811  SER814 

> <Gold.Protein.RotatedAtoms>
  150.8211  134.7419  159.6772 H   0  0  0  0  0  0  0  0  0  0  0  0  # atno 6907 bound_to 6896
  152.4326  134.5745  159.9940 H   0  0  0  0  0  0  0  0  0  0  0  0  # atno 6908 bound_to 6896
  151.5929  133.3327  159.3067 H   0  0  0  0  0  0  0  0  0  0  0  0  # atno 6909 bound_to 6896
  145.8365  139.3170  143.0957 H   0  0  0  0  0  0  0  0  0  0  0  0  # atno 7974 bound_to 7965
  155.6490  140.0710  157.2593 H   0  0  0  0  0  0  0  0  0  0  0  0  # atno 8008 bound_to 7997
  154.4166  140.1736  156.1704 H   0  0  0  0  0  0  0  0  0  0  0  0  # atno 8009 bound_to 7997
  155.9792  140.3355  155.6650 H   0  0  0  0  0  0  0  0  0  0  0  0  # atno 8010 bound_to 7997
  140.7231  143.5133  150.9723 H   0  0  0  0  0  0  0  0  0  0  0  0  # atno 10167 bound_to 10162
  157.2567  130.7141  149.6433 H   0  0  0  0  0  0  0  0  0  0  0  0  # atno 10718 bound_to 10713
  154.6312  135.2887  155.0214 H   0  0  0  0  0  0  0  0  0  0  0  0  # atno 10763 bound_to 10752
  154.1374  135.6524  153.4938 H   0  0  0  0  0  0  0  0  0  0  0  0  # atno 10764 bound_to 10752
  153.0281  135.5325  154.7140 H   0  0  0  0  0  0  0  0  0  0  0  0  # atno 10765 bound_to 10752
  140.8125  133.8130  155.9577 H   0  0  0  0  0  0  0  0  0  0  0  0  # atno 11005 bound_to 11000
  145.9513  140.8906  143.0257 LP  0  0  0  0  0  0  0  0  0  0  0  0  # atno 17320 bound_to 7965
  144.6736  140.1684  143.7416 LP  0  0  0  0  0  0  0  0  0  0  0  0  # atno 17321 bound_to 7965
  139.8847  143.7028  152.3153 LP  0  0  0  0  0  0  0  0  0  0  0  0  # atno 17342 bound_to 10162
  139.7322  144.7579  151.0783 LP  0  0  0  0  0  0  0  0  0  0  0  0  # atno 17343 bound_to 10162
  155.9665  130.4410  150.5323 LP  0  0  0  0  0  0  0  0  0  0  0  0  # atno 17370 bound_to 10713
  157.3219  131.0683  151.1925 LP  0  0  0  0  0  0  0  0  0  0  0  0  # atno 17371 bound_to 10713
  140.9183  134.2173  157.4942 LP  0  0  0  0  0  0  0  0  0  0  0  0  # atno 17394 bound_to 11000
  139.8713  134.9781  156.4984 LP  0  0  0  0  0  0  0  0  0  0  0  0  # atno 17395 bound_to 11000

$$$$
