AV-unprocessed.smi:862|AV-procd|sdf|3976|dock10
  -GOLD-   22720 1453D 1   1.00000     0.00000
 Structure written by MMmdl.
 44 46  0  0  0  0  0  0  0  0  2 V2000
  143.1250  133.9428  153.3494 N   0  0  0  0  0  0  0  0  0  0  0  0
  142.6254  135.1506  153.6287 C   0  0  0  0  0  0  0  0  0  0  0  0
  141.6957  135.2830  154.4224 O   0  0  0  0  0  0  0  0  0  0  0  0
  143.2459  136.1897  153.0150 N   0  0  0  0  0  0  0  0  0  0  0  0
  143.3986  137.5502  153.5566 C   0  0  0  0  0  0  0  0  0  0  0  0
  144.8501  137.7297  154.0386 C   0  0  0  0  0  0  0  0  0  0  0  0
  145.8556  137.4635  152.8984 C   0  0  0  0  0  0  0  0  0  0  0  0
  147.2374  137.5125  153.4263 N   0  3  0  0  0  0  0  0  0  0  0  0
  147.6168  138.7486  154.1483 C   0  0  2  0  0  0  0  0  0  0  0  0
  146.9674  140.0177  153.5885 C   0  0  0  0  0  0  0  0  0  0  0  0
  147.8803  141.1672  154.0350 C   0  0  0  0  0  0  0  0  0  0  0  0
  149.2414  140.5379  154.3728 C   0  0  0  0  0  0  0  0  0  0  0  0
  149.1147  139.0487  154.0187 C   0  0  1  0  0  0  0  0  0  0  0  0
  149.9501  138.1850  154.8390 N   0  0  0  0  0  0  0  0  0  0  0  0
  149.8371  137.9344  156.2023 C   0  0  0  0  0  0  0  0  0  0  0  0
  150.8402  137.0497  156.5262 C   0  0  0  0  0  0  0  0  0  0  0  0
  151.5767  136.7403  155.3861 N   0  0  0  0  0  0  0  0  0  0  0  0
  150.9943  137.4507  154.4295 C   0  0  0  0  0  0  0  0  0  0  0  0
  145.5597  136.1078  152.2172 C   0  0  0  0  0  0  0  0  0  0  0  0
  144.0763  135.9982  151.8200 C   0  0  0  0  0  0  0  0  0  0  0  0
  142.7194  133.1239  153.7793 H   0  0  0  0  0  0  0  0  0  0  0  0
  143.9098  133.8523  152.7210 H   0  0  0  0  0  0  0  0  0  0  0  0
  143.1730  138.2752  152.7731 H   0  0  0  0  0  0  0  0  0  0  0  0
  142.7104  137.7808  154.3698 H   0  0  0  0  0  0  0  0  0  0  0  0
  144.9875  138.7387  154.4293 H   0  0  0  0  0  0  0  0  0  0  0  0
  145.0397  137.0481  154.8694 H   0  0  0  0  0  0  0  0  0  0  0  0
  145.7275  138.2592  152.1624 H   0  0  0  0  0  0  0  0  0  0  0  0
  147.3195  136.7589  154.0938 H   0  0  0  0  0  0  0  0  0  0  0  0
  147.3566  138.6491  155.2036 H   0  0  0  0  0  0  0  0  0  0  0  0
  146.9475  139.9779  152.4982 H   0  0  0  0  0  0  0  0  0  0  0  0
  145.9427  140.1517  153.9359 H   0  0  0  0  0  0  0  0  0  0  0  0
  147.9664  141.9251  153.2555 H   0  0  0  0  0  0  0  0  0  0  0  0
  147.4699  141.6566  154.9191 H   0  0  0  0  0  0  0  0  0  0  0  0
  150.0571  141.0102  153.8241 H   0  0  0  0  0  0  0  0  0  0  0  0
  149.4455  140.6771  155.4353 H   0  0  0  0  0  0  0  0  0  0  0  0
  149.4099  138.9230  152.9748 H   0  0  0  0  0  0  0  0  0  0  0  0
  149.0761  138.3944  156.8158 H   0  0  0  0  0  0  0  0  0  0  0  0
  151.0864  136.6156  157.4842 H   0  0  0  0  0  0  0  0  0  0  0  0
  151.3348  137.4320  153.4045 H   0  0  0  0  0  0  0  0  0  0  0  0
  146.1784  135.9763  151.3307 H   0  0  0  0  0  0  0  0  0  0  0  0
  145.8124  135.2896  152.8933 H   0  0  0  0  0  0  0  0  0  0  0  0
  143.8898  135.0417  151.3294 H   0  0  0  0  0  0  0  0  0  0  0  0
  143.8273  136.7605  151.0804 H   0  0  0  0  0  0  0  0  0  0  0  0
  147.8898  137.3398  152.6747 H   0  0  0  0  0  0  0  0  0  0  0  0
  1  2  1  0  0  0  0
  1 21  1  0  0  0  0
  1 22  1  0  0  0  0
  2  3  2  0  0  0  0
  2  4  1  0  0  0  0
  4 20  1  0  0  0  0
  4  5  1  0  0  0  0
  5  6  1  0  0  0  0
  5 23  1  0  0  0  0
  5 24  1  0  0  0  0
  6  7  1  0  0  0  0
  6 25  1  0  0  0  0
  6 26  1  0  0  0  0
  7  8  1  0  0  0  0
  7 19  1  0  0  0  0
  7 27  1  0  0  0  0
  8  9  1  0  0  0  0
  8 28  1  0  0  0  0
  8 44  1  0  0  0  0
  9 13  1  0  0  0  0
  9 10  1  0  0  0  0
  9 29  1  0  0  0  0
 10 11  1  0  0  0  0
 10 30  1  0  0  0  0
 10 31  1  0  0  0  0
 11 12  1  0  0  0  0
 11 32  1  0  0  0  0
 11 33  1  0  0  0  0
 12 13  1  0  0  0  0
 12 34  1  0  0  0  0
 12 35  1  0  0  0  0
 13 14  1  0  0  0  0
 13 36  1  0  0  0  0
 14 18  1  0  0  0  0
 14 15  1  0  0  0  0
 15 16  2  0  0  0  0
 15 37  1  0  0  0  0
 16 17  1  0  0  0  0
 16 38  1  0  0  0  0
 17 18  2  0  0  0  0
 18 39  1  0  0  0  0
 19 20  1  0  0  0  0
 19 40  1  0  0  0  0
 19 41  1  0  0  0  0
 20 42  1  0  0  0  0
 20 43  1  0  0  0  0
M  CHG  1   8   1
M  END
> <s_m_source_file>
AV-unprocessed.smi

> <i_m_source_file_index>
862

> <i_lp_mmshare_version>
43012

> <i_f3d_flags>
0

> <s_epik_input>
W05IMl1DKD1PKU4xW0NIMl1bQ0gyXVtDSF0oW0NIMl1bQ0gyXTEpW05IXVtDQEBIXTJbQ0gyXVtDSDJdW0NIMl1bQ0BIXTJuM1tjSF1bY0hdbltjSF0z

> <s_epik_cmdline>
J2VwaWtfcHl0aG9uJywgJy1waCcsICc3LjAnLCAnLXRuJywgJzgnLCAnLW1hJywgJzIwMCcsICctbWV0YWxfYmluZGluZycsICctaW1hZScsICc8aW5maWxlLm1hZT4nLCAnLW9tYWUnLCAnPG91dGZpbGUubWFlPic=

> <r_lp_tautomer_probability>
1

> <r_epik_Ionization_Penalty>
0.0731506

> <r_epik_Ionization_Penalty_Charging>
0.0731

> <r_epik_Ionization_Penalty_Neutral>
5.05966e-05

> <r_epik_State_Penalty>
0.128895

> <r_epik_Charging_Adjusted_Penalty>
0.201995

> <i_epik_Tot_Q>
1

> <i_epik_Tot_abs_Q>
1

> <r_epik_Metal_State_Penalty>
0.113934

> <b_epik_Metal_Only>
0

> <s_lp_Force_Field>
OPLS_2005

> <r_lp_Energy>
56.1174

> <b_lp_Chiralities_Consistent>
1

> <s_lp_Variant>
AV-unprocessed.smi:862-1

> <Gold.Version>
5.8.1

> <Gold.Id.Protein>
6NUR|6NUR_protein|mol2

> <Gold.PLP.Fitness>
45.4768

> <Gold.PLP.PLP>
-31.0948

> <Gold.PLP.part.hbond>
-4.0000

> <Gold.PLP.part.metal>
0.0000

> <Gold.PLP.part.buried>
-3.6291

> <Gold.PLP.part.nonpolar>
-24.0272

> <Gold.PLP.part.repulsive>
0.2177

> <Gold.PLP.ligand.clash>
0.6182

> <Gold.PLP.ligand.torsion>
0.6946

> <Gold.PLP.Chemscore.Hbond>
4.4455

> <Gold.PLP.Chemscore.CHOScore>
1.0000

> <Gold.PLP.Chemscore.Metal>
0.0000

> <Gold.Chemscore.Hbonds>
donor molecule, donor type, donor heavy atom, donor atom, acceptor molecule, acceptor atom, score
      L1  H     1    21       P1 10957  1.00
      L1  H     8    44       P1  7948  1.98
      P1  H 10752 10765       L1    17  1.00
      P1  H 11000 11005       L1     3  0.55
      L1  C    18    39       P1  7949  1.00

> <Gold.PLP.Chemscore.Internal.Correction>
0.0530

> <Gold.Rescore>
     Score         DG    S(hbond)    S(metal)    S(lipo)     H(rot)  DE(clash)    DE(int)     intcor
     18.45     -19.15       3.52        0.00      52.13       1.64       0.03       0.66       ----

> <Gold.Chemscore.Fitness>
18.4482

> <Gold.Chemscore.DG>
-19.1455

> <Gold.Chemscore.ZeroCoef>
-5.4800

> <Gold.Chemscore.Hbond>
3.5231

> <Gold.Chemscore.Metal>
0.0000

> <Gold.Chemscore.Lipo>
52.1330

> <Gold.Chemscore.Internal_Hbond>
0.0000

> <Gold.Chemscore.DEClash>
0.0339

> <Gold.Chemscore.DEInternal>
0.6635

> <Gold.Chemscore.Rot>
1.6411

> <Gold.Chemscore.Internal.Correction>
   9.000000E+99

> <Gold.Chemscore.Hbonds>
donor molecule, donor type, donor heavy atom, donor atom, acceptor molecule, acceptor atom, score
      L1  H     1    21       P1 10957  0.99
      L1  H     8    44       P1  7948  0.94
      P1  H 10752 10765       L1    17  0.47
      P1  H 11000 11005       L1     3  0.53

> <Gold.Chemscore.Hbond.Weighted>
-11.7673

> <Gold.Chemscore.Metal.Weighted>
-0.0000

> <Gold.Chemscore.Lipo.Weighted>
-6.0996

> <Gold.Chemscore.Internal_Hbond.Weighted>
0.0000

> <Gold.Chemscore.DEClash.Weighted>
0.0339

> <Gold.Chemscore.DEInternal.Weighted>
0.6635

> <Gold.Chemscore.Rot.Weighted>
4.2013

> <Gold.Chemscore.Internal.Correction.Weighted>
   9.000000E+99

> <Gold.Protein.RotatedTorsions>
[ 6907 6896 6895 6894 ] final  110.40 input  -60.11 | X-H torsion
[ 7974 7965 7964 7962 ] final -134.64 input  175.53 | X-H torsion
[ 8008 7997 7996 7995 ] final  -76.54 input   59.86 | X-H torsion
[ 10167 10162 10161 10158 ] final  -40.69 input  -65.29 | X-H torsion
[ 10718 10713 10712 10709 ] final   98.54 input   66.30 | X-H torsion
[ 10763 10752 10751 10750 ] final  169.94 input  -60.55 | X-H torsion
[ 11005 11000 10999 10996 ] final    9.13 input  -57.11 | X-H torsion

> <Gold.Protein.ActiveResidues>
 VAL166  LYS551  ARG553  GLY616  TRP617  ASP618  TYR619  PRO620  LYS621  CYS622 
 ASP623  PHE694  ASN695  SER759  ASP760  ASP761  ALA762  ILE779  LEU786  VAL792 
 PHE793  MET794  SER795  GLU796  ALA797  LYS798  CYS799  TRP800  GLU811  SER814 

> <Gold.Protein.RotatedAtoms>
  152.5021  133.8805  159.7343 H   0  0  0  0  0  0  0  0  0  0  0  0  # atno 6907 bound_to 6896
  150.9269  133.6805  159.2826 H   0  0  0  0  0  0  0  0  0  0  0  0  # atno 6908 bound_to 6896
  151.4162  135.0996  159.9653 H   0  0  0  0  0  0  0  0  0  0  0  0  # atno 6909 bound_to 6896
  144.9084  140.6864  143.5040 H   0  0  0  0  0  0  0  0  0  0  0  0  # atno 7974 bound_to 7965
  154.5514  140.0725  156.8674 H   0  0  0  0  0  0  0  0  0  0  0  0  # atno 8008 bound_to 7997
  155.2986  140.3382  155.4230 H   0  0  0  0  0  0  0  0  0  0  0  0  # atno 8009 bound_to 7997
  156.1964  140.1705  156.7974 H   0  0  0  0  0  0  0  0  0  0  0  0  # atno 8010 bound_to 7997
  140.7026  143.3138  151.2960 H   0  0  0  0  0  0  0  0  0  0  0  0  # atno 10167 bound_to 10162
  157.6893  131.0643  150.4812 H   0  0  0  0  0  0  0  0  0  0  0  0  # atno 10718 bound_to 10713
  154.3904  135.2754  155.2158 H   0  0  0  0  0  0  0  0  0  0  0  0  # atno 10763 bound_to 10752
  154.4226  135.5996  153.6023 H   0  0  0  0  0  0  0  0  0  0  0  0  # atno 10764 bound_to 10752
  152.9832  135.5976  154.4158 H   0  0  0  0  0  0  0  0  0  0  0  0  # atno 10765 bound_to 10752
  140.5292  134.0483  155.7868 H   0  0  0  0  0  0  0  0  0  0  0  0  # atno 11005 bound_to 11000
  145.3495  139.1710  143.4442 LP  0  0  0  0  0  0  0  0  0  0  0  0  # atno 17320 bound_to 7965
  146.3146  140.3546  142.8659 LP  0  0  0  0  0  0  0  0  0  0  0  0  # atno 17321 bound_to 7965
  139.6570  144.0258  152.2666 LP  0  0  0  0  0  0  0  0  0  0  0  0  # atno 17342 bound_to 10162
  139.9813  144.6426  150.7898 LP  0  0  0  0  0  0  0  0  0  0  0  0  # atno 17343 bound_to 10162
  156.5143  130.4147  149.6284 LP  0  0  0  0  0  0  0  0  0  0  0  0  # atno 17370 bound_to 10713
  156.3212  130.7281  151.2193 LP  0  0  0  0  0  0  0  0  0  0  0  0  # atno 17371 bound_to 10713
  141.1291  133.9333  157.2574 LP  0  0  0  0  0  0  0  0  0  0  0  0  # atno 17394 bound_to 11000
  139.9563  135.0164  156.9138 LP  0  0  0  0  0  0  0  0  0  0  0  0  # atno 17395 bound_to 11000

$$$$
