AV-unprocessed.smi:2627|AV-procd|sdf|10242|dock4
  -GOLD-   2272014253D 1   1.00000     0.00000
 Structure written by MMmdl.
 40 42  0  0  0  0  0  0  0  0  2 V2000
  150.5808  137.5994  156.7893 C   0  0  0  0  0  0  0  0  0  0  0  0
  150.4834  137.5540  155.2588 C   0  0  1  0  0  0  0  0  0  0  0  0
  149.8710  136.3378  154.8833 O   0  0  0  0  0  0  0  0  0  0  0  0
  149.7345  138.7423  154.7385 C   0  0  0  0  0  0  0  0  0  0  0  0
  148.6889  138.6960  153.8642 N   0  3  0  0  0  0  0  0  0  0  0  0
  148.2103  139.9839  153.6264 C   0  0  0  0  0  0  0  0  0  0  0  0
  147.1694  140.4341  152.8203 C   0  0  0  0  0  0  0  0  0  0  0  0
  146.9342  141.8245  152.8087 C   0  0  0  0  0  0  0  0  0  0  0  0
  147.7178  142.7076  153.5798 C   0  0  0  0  0  0  0  0  0  0  0  0
  148.7710  142.2389  154.3927 C   0  0  0  0  0  0  0  0  0  0  0  0
  148.9998  140.8628  154.3955 C   0  0  0  0  0  0  0  0  0  0  0  0
  149.9312  140.0554  155.0597 N   0  0  0  0  0  0  0  0  0  0  0  0
  150.9088  140.6859  155.9585 C   0  0  0  0  0  0  0  0  0  0  0  0
  150.2512  141.2041  157.2428 C   0  0  0  0  0  0  0  0  0  0  0  0
  151.0050  142.3077  157.7231 O   0  0  0  0  0  0  0  0  0  0  0  0
  151.7691  142.1304  158.8567 C   0  0  0  0  0  0  0  0  0  0  0  0
  152.2082  143.2944  159.5214 C   0  0  0  0  0  0  0  0  0  0  0  0
  152.9967  143.2067  160.6849 C   0  0  0  0  0  0  0  0  0  0  0  0
  153.3559  141.9469  161.1978 C   0  0  0  0  0  0  0  0  0  0  0  0
  152.9236  140.7770  160.5463 C   0  0  0  0  0  0  0  0  0  0  0  0
  152.1339  140.8649  159.3831 C   0  0  0  0  0  0  0  0  0  0  0  0
  151.0883  138.5043  157.1243 H   0  0  0  0  0  0  0  0  0  0  0  0
  151.1421  136.7472  157.1734 H   0  0  0  0  0  0  0  0  0  0  0  0
  149.5934  137.5827  157.2522 H   0  0  0  0  0  0  0  0  0  0  0  0
  151.4892  137.5497  154.8404 H   0  0  0  0  0  0  0  0  0  0  0  0
  149.7312  136.3475  153.9484 H   0  0  0  0  0  0  0  0  0  0  0  0
  146.5659  139.7586  152.2318 H   0  0  0  0  0  0  0  0  0  0  0  0
  146.1359  142.2213  152.1982 H   0  0  0  0  0  0  0  0  0  0  0  0
  147.5068  143.7667  153.5474 H   0  0  0  0  0  0  0  0  0  0  0  0
  149.3617  142.9253  154.9811 H   0  0  0  0  0  0  0  0  0  0  0  0
  151.6762  139.9500  156.1969 H   0  0  0  0  0  0  0  0  0  0  0  0
  151.4178  141.4903  155.4272 H   0  0  0  0  0  0  0  0  0  0  0  0
  149.2238  141.5100  157.0387 H   0  0  0  0  0  0  0  0  0  0  0  0
  150.2299  140.4091  157.9894 H   0  0  0  0  0  0  0  0  0  0  0  0
  151.9389  144.2661  159.1341 H   0  0  0  0  0  0  0  0  0  0  0  0
  153.3269  144.1064  161.1828 H   0  0  0  0  0  0  0  0  0  0  0  0
  153.9622  141.8777  162.0890 H   0  0  0  0  0  0  0  0  0  0  0  0
  153.1988  139.8092  160.9390 H   0  0  0  0  0  0  0  0  0  0  0  0
  151.8216  139.9450  158.9129 H   0  0  0  0  0  0  0  0  0  0  0  0
  148.3302  137.8378  153.4653 H   0  0  0  0  0  0  0  0  0  0  0  0
  1  2  1  0  0  0  0
  1 22  1  0  0  0  0
  1 23  1  0  0  0  0
  1 24  1  0  0  0  0
  2  3  1  0  0  0  0
  2  4  1  0  0  0  0
  2 25  1  0  0  0  0
  3 26  1  0  0  0  0
  4 12  1  0  0  0  0
  4  5  2  0  0  0  0
  5  6  1  0  0  0  0
  5 40  1  0  0  0  0
  6 11  2  0  0  0  0
  6  7  1  0  0  0  0
  7  8  2  0  0  0  0
  7 27  1  0  0  0  0
  8  9  1  0  0  0  0
  8 28  1  0  0  0  0
  9 10  2  0  0  0  0
  9 29  1  0  0  0  0
 10 11  1  0  0  0  0
 10 30  1  0  0  0  0
 11 12  1  0  0  0  0
 12 13  1  0  0  0  0
 13 14  1  0  0  0  0
 13 31  1  0  0  0  0
 13 32  1  0  0  0  0
 14 15  1  0  0  0  0
 14 33  1  0  0  0  0
 14 34  1  0  0  0  0
 15 16  1  0  0  0  0
 16 21  1  0  0  0  0
 16 17  2  0  0  0  0
 17 18  1  0  0  0  0
 17 35  1  0  0  0  0
 18 19  2  0  0  0  0
 18 36  1  0  0  0  0
 19 20  1  0  0  0  0
 19 37  1  0  0  0  0
 20 21  2  0  0  0  0
 20 38  1  0  0  0  0
 21 39  1  0  0  0  0
M  CHG  1   5   1
M  END
> <s_m_source_file>
AV-unprocessed.smi

> <i_m_source_file_index>
2627

> <i_lp_mmshare_version>
43012

> <i_f3d_flags>
0

> <s_epik_input>
W2NIXTFbY0hdW2NIXVtjSF1jKGMxMiluKGMobjIpW0NASF0oW0NIM10pW09IXSlbQ0gyXVtDSDJdT2MzW2NIXVtjSF1bY0hdW2NIXVtjSF0z

> <s_epik_cmdline>
J2VwaWtfcHl0aG9uJywgJy1waCcsICc3LjAnLCAnLXRuJywgJzgnLCAnLW1hJywgJzIwMCcsICctbWV0YWxfYmluZGluZycsICctaW1hZScsICc8aW5maWxlLm1hZT4nLCAnLW9tYWUnLCAnPG91dGZpbGUubWFlPic=

> <r_lp_tautomer_probability>
1

> <r_epik_Ionization_Penalty>
1.52183

> <r_epik_Ionization_Penalty_Charging>
1.5218

> <r_epik_Ionization_Penalty_Neutral>
2.92192e-05

> <r_epik_State_Penalty>
1.61369

> <r_epik_Charging_Adjusted_Penalty>
3.13549

> <i_epik_Tot_Q>
1

> <i_epik_Tot_abs_Q>
1

> <r_epik_Metal_State_Penalty>
5.66625

> <b_epik_Metal_Only>
0

> <s_lp_Force_Field>
OPLS_2005

> <r_lp_Energy>
19.8189

> <b_lp_Chiralities_Consistent>
1

> <s_lp_Variant>
AV-unprocessed.smi:2627-4

> <Gold.Version>
5.8.1

> <Gold.Id.Protein>
6NUR|6NUR_protein|mol2

> <Gold.PLP.Fitness>
58.3506

> <Gold.PLP.PLP>
-48.3051

> <Gold.PLP.part.hbond>
-4.0000

> <Gold.PLP.part.metal>
0.0000

> <Gold.PLP.part.buried>
1.9623

> <Gold.PLP.part.nonpolar>
-46.1409

> <Gold.PLP.part.repulsive>
0.1205

> <Gold.PLP.ligand.clash>
0.0000

> <Gold.PLP.ligand.torsion>
1.0273

> <Gold.PLP.Chemscore.Hbond>
4.0000

> <Gold.PLP.Chemscore.CHOScore>
0.0000

> <Gold.PLP.Chemscore.Metal>
0.0000

> <Gold.Chemscore.Hbonds>
donor molecule, donor type, donor heavy atom, donor atom, acceptor molecule, acceptor atom, score
      L1  H     3    26       P1  7948  0.59
      L1  H     5    40       P1  7948  0.34

> <Gold.PLP.Chemscore.Internal.Correction>
0.1001

> <Gold.Rescore>
     Score         DG    S(hbond)    S(metal)    S(lipo)     H(rot)  DE(clash)    DE(int)     intcor
     19.91     -20.89       1.88        0.00     124.57       2.13       0.13       0.86       ----

> <Gold.Chemscore.Fitness>
19.9113

> <Gold.Chemscore.DG>
-20.8940

> <Gold.Chemscore.ZeroCoef>
-5.4800

> <Gold.Chemscore.Hbond>
1.8837

> <Gold.Chemscore.Metal>
0.0000

> <Gold.Chemscore.Lipo>
124.5726

> <Gold.Chemscore.Internal_Hbond>
0.0000

> <Gold.Chemscore.DEClash>
0.1274

> <Gold.Chemscore.DEInternal>
0.8553

> <Gold.Chemscore.Rot>
2.1299

> <Gold.Chemscore.Internal.Correction>
   9.000000E+99

> <Gold.Chemscore.Hbonds>
donor molecule, donor type, donor heavy atom, donor atom, acceptor molecule, acceptor atom, score
      L1  H     3    26       P1  7948  0.29
      L1  H     5    40       P1  7948  0.17

> <Gold.Chemscore.Hbond.Weighted>
-6.2916

> <Gold.Chemscore.Metal.Weighted>
-0.0000

> <Gold.Chemscore.Lipo.Weighted>
-14.5750

> <Gold.Chemscore.Internal_Hbond.Weighted>
0.0000

> <Gold.Chemscore.DEClash.Weighted>
0.1274

> <Gold.Chemscore.DEInternal.Weighted>
0.8553

> <Gold.Chemscore.Rot.Weighted>
5.4526

> <Gold.Chemscore.Internal.Correction.Weighted>
   9.000000E+99

> <Gold.Protein.RotatedTorsions>
[ 6907 6896 6895 6894 ] final   64.04 input  -60.11 | X-H torsion
[ 7974 7965 7964 7962 ] final   -3.71 input  175.53 | X-H torsion
[ 8008 7997 7996 7995 ] final   56.71 input   59.86 | X-H torsion
[ 10167 10162 10161 10158 ] final  164.02 input  -65.29 | X-H torsion
[ 10718 10713 10712 10709 ] final  102.80 input   66.30 | X-H torsion
[ 10763 10752 10751 10750 ] final   38.40 input  -60.55 | X-H torsion
[ 11005 11000 10999 10996 ] final  104.02 input  -57.11 | X-H torsion

> <Gold.Protein.ActiveResidues>
 VAL166  LYS551  ARG553  GLY616  TRP617  ASP618  TYR619  PRO620  LYS621  CYS622 
 ASP623  PHE694  ASN695  SER759  ASP760  ASP761  ALA762  ILE779  LEU786  VAL792 
 PHE793  MET794  SER795  GLU796  ALA797  LYS798  CYS799  TRP800  GLU811  SER814 

> <Gold.Protein.RotatedAtoms>
  152.4300  134.5795  159.9943 H   0  0  0  0  0  0  0  0  0  0  0  0  # atno 6907 bound_to 6896
  151.5921  133.3359  159.3038 H   0  0  0  0  0  0  0  0  0  0  0  0  # atno 6908 bound_to 6896
  150.8192  134.7427  159.6822 H   0  0  0  0  0  0  0  0  0  0  0  0  # atno 6909 bound_to 6896
  146.2385  140.1761  142.8332 H   0  0  0  0  0  0  0  0  0  0  0  0  # atno 7974 bound_to 7965
  155.5219  140.3480  155.4408 H   0  0  0  0  0  0  0  0  0  0  0  0  # atno 8008 bound_to 7997
  156.0778  140.1379  156.9776 H   0  0  0  0  0  0  0  0  0  0  0  0  # atno 8009 bound_to 7997
  154.4563  140.0952  156.6742 H   0  0  0  0  0  0  0  0  0  0  0  0  # atno 8010 bound_to 7997
  139.4882  144.4278  151.9108 H   0  0  0  0  0  0  0  0  0  0  0  0  # atno 10167 bound_to 10162
  157.6792  131.0762  150.5458 H   0  0  0  0  0  0  0  0  0  0  0  0  # atno 10718 bound_to 10713
  153.0002  135.6250  154.2298 H   0  0  0  0  0  0  0  0  0  0  0  0  # atno 10763 bound_to 10752
  154.2041  135.2803  155.2982 H   0  0  0  0  0  0  0  0  0  0  0  0  # atno 10764 bound_to 10752
  154.5660  135.5691  153.7110 H   0  0  0  0  0  0  0  0  0  0  0  0  # atno 10765 bound_to 10752
  139.8788  134.9285  156.5298 H   0  0  0  0  0  0  0  0  0  0  0  0  # atno 11005 bound_to 11000
  144.9972  140.8599  143.5304 LP  0  0  0  0  0  0  0  0  0  0  0  0  # atno 17320 bound_to 7965
  145.1776  139.2370  143.5309 LP  0  0  0  0  0  0  0  0  0  0  0  0  # atno 17321 bound_to 7965
  140.3725  144.2838  150.5918 LP  0  0  0  0  0  0  0  0  0  0  0  0  # atno 17342 bound_to 10162
  140.5306  143.2244  151.8244 LP  0  0  0  0  0  0  0  0  0  0  0  0  # atno 17343 bound_to 10162
  156.5764  130.4293  149.5996 LP  0  0  0  0  0  0  0  0  0  0  0  0  # atno 17370 bound_to 10713
  156.2698  130.7010  151.1804 LP  0  0  0  0  0  0  0  0  0  0  0  0  # atno 17371 bound_to 10713
  140.8389  133.8220  155.9056 LP  0  0  0  0  0  0  0  0  0  0  0  0  # atno 17394 bound_to 11000
  140.9256  134.2086  157.4898 LP  0  0  0  0  0  0  0  0  0  0  0  0  # atno 17395 bound_to 11000

$$$$
