AV-unprocessed.smi:2237|AV-procd|sdf|9046|dock3
  -GOLD-   2272012253D 1   1.00000     0.00000
 Structure written by MMmdl.
 55 57  0  0  0  0  0  0  0  0  3 V2000
  153.3258  141.1444  160.1533 C   0  0  0  0  0  0  0  0  0  0  0  0
  152.7300  142.3270  159.4189 C   0  0  0  0  0  0  0  0  0  0  0  0
  153.0622  143.6467  159.7818 C   0  0  0  0  0  0  0  0  0  0  0  0
  152.4725  144.7005  159.0611 C   0  0  0  0  0  0  0  0  0  0  0  0
  151.5803  144.3934  158.0156 C   0  0  0  0  0  0  0  0  0  0  0  0
  151.2992  143.0412  157.7166 C   0  0  0  0  0  0  0  0  0  0  0  0
  150.3898  142.8379  156.6449 N   0  0  0  0  0  0  0  0  0  0  0  0
  150.0832  141.6860  156.0228 C   0  0  0  0  0  0  0  0  0  0  0  0
  150.5433  140.5786  156.3025 O   0  0  0  0  0  0  0  0  0  0  0  0
  149.1934  141.8870  155.0399 N   0  0  0  0  0  0  0  0  0  0  0  0
  148.6602  140.8463  154.1657 C   0  0  2  0  0  0  0  0  0  0  0  0
  147.4535  141.3859  153.3873 C   0  0  0  0  0  0  0  0  0  0  0  0
  146.8073  140.2939  152.5173 C   0  0  0  0  0  0  0  0  0  0  0  0
  146.4049  139.1070  153.3279 N   0  3  1  0  0  0  0  0  0  0  0  0
  145.6587  138.0379  152.5849 C   0  0  2  0  0  0  0  0  0  0  0  0
  145.2351  136.8265  153.4541 C   0  0  0  0  0  0  0  0  0  0  0  0
  144.5263  135.7409  152.6250 C   0  0  0  0  0  0  0  0  0  0  0  0
  145.3807  135.2778  151.5062 N   0  3  1  0  0  0  0  0  0  0  0  0
  144.7733  134.1557  150.7581 C   0  0  0  0  0  0  0  0  0  0  0  0
  145.7739  136.3989  150.6207 C   0  0  0  0  0  0  0  0  0  0  0  0
  146.5070  137.4978  151.4090 C   0  0  0  0  0  0  0  0  0  0  0  0
  147.5776  138.5592  154.0690 C   0  0  0  0  0  0  0  0  0  0  0  0
  148.2242  139.6166  154.9776 C   0  0  0  0  0  0  0  0  0  0  0  0
  151.8733  142.0319  158.4174 N   0  0  0  0  0  0  0  0  0  0  0  0
  154.1639  141.4508  160.7799 H   0  0  0  0  0  0  0  0  0  0  0  0
  153.6873  140.3962  159.4470 H   0  0  0  0  0  0  0  0  0  0  0  0
  152.5734  140.6802  160.7911 H   0  0  0  0  0  0  0  0  0  0  0  0
  153.7501  143.8491  160.5897 H   0  0  0  0  0  0  0  0  0  0  0  0
  152.7000  145.7277  159.3053 H   0  0  0  0  0  0  0  0  0  0  0  0
  151.1191  145.1916  157.4524 H   0  0  0  0  0  0  0  0  0  0  0  0
  149.9233  143.6680  156.3103 H   0  0  0  0  0  0  0  0  0  0  0  0
  148.8688  142.8295  154.8798 H   0  0  0  0  0  0  0  0  0  0  0  0
  149.4287  140.5506  153.4485 H   0  0  0  0  0  0  0  0  0  0  0  0
  146.7096  141.7794  154.0822 H   0  0  0  0  0  0  0  0  0  0  0  0
  147.7599  142.2226  152.7580 H   0  0  0  0  0  0  0  0  0  0  0  0
  145.9424  140.7498  152.0375 H   0  0  0  0  0  0  0  0  0  0  0  0
  147.4925  139.9838  151.7268 H   0  0  0  0  0  0  0  0  0  0  0  0
  144.7452  138.4842  152.1876 H   0  0  0  0  0  0  0  0  0  0  0  0
  146.1085  136.3935  153.9445 H   0  0  0  0  0  0  0  0  0  0  0  0
  144.5482  137.1364  154.2422 H   0  0  0  0  0  0  0  0  0  0  0  0
  144.2792  134.8956  153.2688 H   0  0  0  0  0  0  0  0  0  0  0  0
  143.5837  136.1248  152.2309 H   0  0  0  0  0  0  0  0  0  0  0  0
  143.8470  134.4644  150.2715 H   0  0  0  0  0  0  0  0  0  0  0  0
  144.5481  133.3237  151.4261 H   0  0  0  0  0  0  0  0  0  0  0  0
  145.4569  133.7895  149.9913 H   0  0  0  0  0  0  0  0  0  0  0  0
  146.4240  136.0252  149.8286 H   0  0  0  0  0  0  0  0  0  0  0  0
  144.8877  136.8115  150.1352 H   0  0  0  0  0  0  0  0  0  0  0  0
  146.7712  138.2918  150.7125 H   0  0  0  0  0  0  0  0  0  0  0  0
  147.4498  137.1018  151.7890 H   0  0  0  0  0  0  0  0  0  0  0  0
  147.2882  137.7124  154.6882 H   0  0  0  0  0  0  0  0  0  0  0  0
  148.3144  138.1838  153.3565 H   0  0  0  0  0  0  0  0  0  0  0  0
  149.0824  139.1806  155.4905 H   0  0  0  0  0  0  0  0  0  0  0  0
  147.5171  139.9117  155.7544 H   0  0  0  0  0  0  0  0  0  0  0  0
  145.7641  139.4623  154.0234 H   0  0  0  0  0  0  0  0  0  0  0  0
  146.2306  134.9180  151.9174 H   0  0  0  0  0  0  0  0  0  0  0  0
  1  2  1  0  0  0  0
  1 25  1  0  0  0  0
  1 26  1  0  0  0  0
  1 27  1  0  0  0  0
  2 24  1  0  0  0  0
  2  3  2  0  0  0  0
  3  4  1  0  0  0  0
  3 28  1  0  0  0  0
  4  5  2  0  0  0  0
  4 29  1  0  0  0  0
  5  6  1  0  0  0  0
  5 30  1  0  0  0  0
  6  7  1  0  0  0  0
  6 24  2  0  0  0  0
  7  8  1  0  0  0  0
  7 31  1  0  0  0  0
  8  9  2  0  0  0  0
  8 10  1  0  0  0  0
 10 11  1  0  0  0  0
 10 32  1  0  0  0  0
 11 23  1  0  0  0  0
 11 12  1  0  0  0  0
 11 33  1  0  0  0  0
 12 13  1  0  0  0  0
 12 34  1  0  0  0  0
 12 35  1  0  0  0  0
 13 14  1  0  0  0  0
 13 36  1  0  0  0  0
 13 37  1  0  0  0  0
 14 15  1  0  0  0  0
 14 22  1  0  0  0  0
 14 54  1  0  0  0  0
 15 21  1  0  0  0  0
 15 16  1  0  0  0  0
 15 38  1  0  0  0  0
 16 17  1  0  0  0  0
 16 39  1  0  0  0  0
 16 40  1  0  0  0  0
 17 18  1  0  0  0  0
 17 41  1  0  0  0  0
 17 42  1  0  0  0  0
 18 19  1  0  0  0  0
 18 20  1  0  0  0  0
 18 55  1  0  0  0  0
 19 43  1  0  0  0  0
 19 44  1  0  0  0  0
 19 45  1  0  0  0  0
 20 21  1  0  0  0  0
 20 46  1  0  0  0  0
 20 47  1  0  0  0  0
 21 48  1  0  0  0  0
 21 49  1  0  0  0  0
 22 23  1  0  0  0  0
 22 50  1  0  0  0  0
 22 51  1  0  0  0  0
 23 52  1  0  0  0  0
 23 53  1  0  0  0  0
M  CHG  1  14   1
M  CHG  1  18   1
M  END
> <s_m_source_file>
AV-unprocessed.smi

> <i_m_source_file_index>
2237

> <i_lp_mmshare_version>
43012

> <i_f3d_flags>
0

> <s_epik_input>
W0NIM11jMVtjSF1bY0hdW2NIXWMobjEpW05IXUMoPU8pW05IXVtDSF0yW0NIMl1bQ0gyXU4oW0NIMl1bQ0gyXTIpW0NIXTNbQ0gyXVtDSDJdTihbQ0gzXSlbQ0gyXVtDSDJdMw==

> <s_epik_cmdline>
J2VwaWtfcHl0aG9uJywgJy1waCcsICc3LjAnLCAnLXRuJywgJzgnLCAnLW1hJywgJzIwMCcsICctbWV0YWxfYmluZGluZycsICctaW1hZScsICc8aW5maWxlLm1hZT4nLCAnLW9tYWUnLCAnPG91dGZpbGUubWFlPic=

> <r_epik_Ionization_Penalty>
0.180851

> <r_epik_Ionization_Penalty_Charging>
0.180787

> <r_epik_Ionization_Penalty_Neutral>
6.38624e-05

> <r_epik_State_Penalty>
0.153592

> <r_epik_Charging_Adjusted_Penalty>
0.334379

> <i_epik_Tot_Q>
2

> <i_epik_Tot_abs_Q>
2

> <r_epik_Metal_State_Penalty>
0.153595

> <b_epik_Metal_Only>
0

> <s_lp_Force_Field>
OPLS_2005

> <r_lp_Energy>
40.5749

> <b_lp_Chiralities_Consistent>
1

> <s_lp_Variant>
AV-unprocessed.smi:2237-1

> <Gold.Version>
5.8.1

> <Gold.Id.Protein>
6NUR|6NUR_protein|mol2

> <Gold.PLP.Fitness>
49.3796

> <Gold.PLP.PLP>
-44.0599

> <Gold.PLP.part.hbond>
-2.5460

> <Gold.PLP.part.metal>
0.0000

> <Gold.PLP.part.buried>
0.6146

> <Gold.PLP.part.nonpolar>
-42.4580

> <Gold.PLP.part.repulsive>
0.2907

> <Gold.PLP.ligand.clash>
0.0000

> <Gold.PLP.ligand.torsion>
0.2016

> <Gold.PLP.Chemscore.Hbond>
1.8960

> <Gold.PLP.Chemscore.CHOScore>
0.0000

> <Gold.PLP.Chemscore.Metal>
0.0000

> <Gold.Chemscore.Hbonds>
donor molecule, donor type, donor heavy atom, donor atom, acceptor molecule, acceptor atom, score
      L1  H     7    31       P1  8028  1.00
      L1  H    10    32       P1  8028  0.88

> <Gold.PLP.Chemscore.Internal.Correction>
0.0348

> <Gold.Rescore>
     Score         DG    S(hbond)    S(metal)    S(lipo)     H(rot)  DE(clash)    DE(int)     intcor
     19.13     -23.70       1.91        0.00     127.99       1.23       1.91       2.66       ----

> <Gold.Chemscore.Fitness>
19.1330

> <Gold.Chemscore.DG>
-23.7037

> <Gold.Chemscore.ZeroCoef>
-5.4800

> <Gold.Chemscore.Hbond>
1.9150

> <Gold.Chemscore.Metal>
0.0000

> <Gold.Chemscore.Lipo>
127.9917

> <Gold.Chemscore.Internal_Hbond>
0.0000

> <Gold.Chemscore.DEClash>
1.9068

> <Gold.Chemscore.DEInternal>
2.6639

> <Gold.Chemscore.Rot>
1.2295

> <Gold.Chemscore.Internal.Correction>
   9.000000E+99

> <Gold.Chemscore.Hbonds>
donor molecule, donor type, donor heavy atom, donor atom, acceptor molecule, acceptor atom, score
      L1  H     7    31       P1  8028  0.99
      L1  H    10    32       P1  8028  0.81

> <Gold.Chemscore.Hbond.Weighted>
-6.3961

> <Gold.Chemscore.Metal.Weighted>
-0.0000

> <Gold.Chemscore.Lipo.Weighted>
-14.9750

> <Gold.Chemscore.Internal_Hbond.Weighted>
0.0000

> <Gold.Chemscore.DEClash.Weighted>
1.9068

> <Gold.Chemscore.DEInternal.Weighted>
2.6639

> <Gold.Chemscore.Rot.Weighted>
3.1474

> <Gold.Chemscore.Internal.Correction.Weighted>
   9.000000E+99

> <Gold.Protein.RotatedTorsions>
[ 6907 6896 6895 6894 ] final -159.78 input  -60.11 | X-H torsion
[ 7974 7965 7964 7962 ] final -132.06 input  175.53 | X-H torsion
[ 8008 7997 7996 7995 ] final   -9.96 input   59.86 | X-H torsion
[ 10167 10162 10161 10158 ] final  115.10 input  -65.29 | X-H torsion
[ 10718 10713 10712 10709 ] final  -65.59 input   66.30 | X-H torsion
[ 10763 10752 10751 10750 ] final  -37.01 input  -60.55 | X-H torsion
[ 11005 11000 10999 10996 ] final   33.54 input  -57.11 | X-H torsion

> <Gold.Protein.ActiveResidues>
 VAL166  LYS551  ARG553  GLY616  TRP617  ASP618  TYR619  PRO620  LYS621  CYS622 
 ASP623  PHE694  ASN695  SER759  ASP760  ASP761  ALA762  ILE779  LEU786  VAL792 
 PHE793  MET794  SER795  GLU796  ALA797  LYS798  CYS799  TRP800  GLU811  SER814 

> <Gold.Protein.RotatedAtoms>
  151.3389  133.3970  159.2669 H   0  0  0  0  0  0  0  0  0  0  0  0  # atno 6907 bound_to 6896
  150.9894  134.9233  159.7901 H   0  0  0  0  0  0  0  0  0  0  0  0  # atno 6908 bound_to 6896
  152.5242  134.3354  159.9250 H   0  0  0  0  0  0  0  0  0  0  0  0  # atno 6909 bound_to 6896
  144.9321  140.7141  143.4899 H   0  0  0  0  0  0  0  0  0  0  0  0  # atno 7974 bound_to 7965
  154.5598  140.2341  155.8353 H   0  0  0  0  0  0  0  0  0  0  0  0  # atno 8008 bound_to 7997
  156.2019  140.3050  155.9505 H   0  0  0  0  0  0  0  0  0  0  0  0  # atno 8009 bound_to 7997
  155.2911  140.0427  157.3013 H   0  0  0  0  0  0  0  0  0  0  0  0  # atno 8010 bound_to 7997
  139.6341  144.7118  151.2371 H   0  0  0  0  0  0  0  0  0  0  0  0  # atno 10167 bound_to 10162
  156.0661  130.4249  150.1586 H   0  0  0  0  0  0  0  0  0  0  0  0  # atno 10718 bound_to 10713
  153.8892  135.6814  153.4761 H   0  0  0  0  0  0  0  0  0  0  0  0  # atno 10763 bound_to 10752
  153.1190  135.4748  154.9162 H   0  0  0  0  0  0  0  0  0  0  0  0  # atno 10764 bound_to 10752
  154.7631  135.3216  154.8293 H   0  0  0  0  0  0  0  0  0  0  0  0  # atno 10765 bound_to 10752
  140.2620  134.3181  155.7854 H   0  0  0  0  0  0  0  0  0  0  0  0  # atno 11005 bound_to 11000
  145.3125  139.1814  143.4631 LP  0  0  0  0  0  0  0  0  0  0  0  0  # atno 17320 bound_to 7965
  146.3251  140.3132  142.8628 LP  0  0  0  0  0  0  0  0  0  0  0  0  # atno 17321 bound_to 7965
  140.7455  143.6428  150.8319 LP  0  0  0  0  0  0  0  0  0  0  0  0  # atno 17342 bound_to 10162
  140.0057  143.5697  152.2859 LP  0  0  0  0  0  0  0  0  0  0  0  0  # atno 17343 bound_to 10162
  156.9645  130.9815  151.3472 LP  0  0  0  0  0  0  0  0  0  0  0  0  # atno 17370 bound_to 10713
  157.5703  130.8306  149.8382 LP  0  0  0  0  0  0  0  0  0  0  0  0  # atno 17371 bound_to 10713
  141.2189  133.7415  156.9202 LP  0  0  0  0  0  0  0  0  0  0  0  0  # atno 17394 bound_to 11000
  140.1455  134.9265  157.2524 LP  0  0  0  0  0  0  0  0  0  0  0  0  # atno 17395 bound_to 11000

$$$$
