AV-unprocessed.smi:2306|AV-procd|sdf|9249|dock6
  -GOLD-   2272012473D 1   1.00000     0.00000
 Structure written by MMmdl.
 41 42  0  0  0  0  0  0  0  0  1 V2000
  145.1930  131.7829  150.7153 C   0  0  0  0  0  0  0  0  0  0  0  0
  145.3386  133.1855  151.2786 C   0  0  0  0  0  0  0  0  0  0  0  0
  144.5877  134.1750  150.6376 N   0  0  0  0  0  0  0  0  0  0  0  0
  144.6539  135.3999  151.0455 C   0  0  0  0  0  0  0  0  0  0  0  0
  145.4686  135.7754  152.1271 N   0  0  0  0  0  0  0  0  0  0  0  0
  145.4583  137.2024  152.4917 C   0  0  0  0  0  0  0  0  0  0  0  0
  146.7221  137.9409  151.9951 C   0  0  1  0  0  0  0  0  0  0  0  0
  146.7229  138.0360  150.5850 O   0  0  0  0  0  0  0  0  0  0  0  0
  146.8419  139.3696  152.5535 C   0  0  0  0  0  0  0  0  0  0  0  0
  147.5405  139.3509  153.7888 O   0  0  0  0  0  0  0  0  0  0  0  0
  148.2455  140.5539  154.0465 C   0  0  0  0  0  0  0  0  0  0  0  0
  149.6407  140.2859  154.5777 C   0  0  0  0  0  0  0  0  0  0  0  0
  150.3427  139.1297  154.1764 C   0  0  0  0  0  0  0  0  0  0  0  0
  151.6327  138.8735  154.6813 C   0  0  0  0  0  0  0  0  0  0  0  0
  152.2230  139.7684  155.5947 C   0  0  0  0  0  0  0  0  0  0  0  0
  151.5219  140.9188  156.0049 C   0  0  0  0  0  0  0  0  0  0  0  0
  150.2323  141.1758  155.4997 C   0  0  0  0  0  0  0  0  0  0  0  0
  146.2195  134.8704  152.8185 C   0  0  0  0  0  0  0  0  0  0  0  0
  146.9123  135.2046  153.7812 O   0  0  0  0  0  0  0  0  0  0  0  0
  146.1408  133.4816  152.3375 C   0  0  0  0  0  0  0  0  0  0  0  0
  146.9818  132.4463  153.0740 C   0  0  0  0  0  0  0  0  0  0  0  0
  144.8287  131.0986  151.4818 H   0  0  0  0  0  0  0  0  0  0  0  0
  146.1524  131.4176  150.3482 H   0  0  0  0  0  0  0  0  0  0  0  0
  144.4866  131.7594  149.8847 H   0  0  0  0  0  0  0  0  0  0  0  0
  144.0841  136.2081  150.5836 H   0  0  0  0  0  0  0  0  0  0  0  0
  144.5553  137.7017  152.1350 H   0  0  0  0  0  0  0  0  0  0  0  0
  145.3966  137.2904  153.5786 H   0  0  0  0  0  0  0  0  0  0  0  0
  147.6180  137.3912  152.2862 H   0  0  0  0  0  0  0  0  0  0  0  0
  145.8272  138.0444  150.2829 H   0  0  0  0  0  0  0  0  0  0  0  0
  147.3998  139.9837  151.8449 H   0  0  0  0  0  0  0  0  0  0  0  0
  145.8572  139.8269  152.6671 H   0  0  0  0  0  0  0  0  0  0  0  0
  148.3344  141.1389  153.1300 H   0  0  0  0  0  0  0  0  0  0  0  0
  147.6890  141.1566  154.7661 H   0  0  0  0  0  0  0  0  0  0  0  0
  149.8960  138.4366  153.4787 H   0  0  0  0  0  0  0  0  0  0  0  0
  152.1689  137.9896  154.3689 H   0  0  0  0  0  0  0  0  0  0  0  0
  153.2117  139.5719  155.9822 H   0  0  0  0  0  0  0  0  0  0  0  0
  151.9726  141.6036  156.7081 H   0  0  0  0  0  0  0  0  0  0  0  0
  149.6993  142.0587  155.8213 H   0  0  0  0  0  0  0  0  0  0  0  0
  148.0359  132.7240  153.0390 H   0  0  0  0  0  0  0  0  0  0  0  0
  146.8942  131.4449  152.6559 H   0  0  0  0  0  0  0  0  0  0  0  0
  146.6806  132.3931  154.1208 H   0  0  0  0  0  0  0  0  0  0  0  0
  1  2  1  0  0  0  0
  1 22  1  0  0  0  0
  1 23  1  0  0  0  0
  1 24  1  0  0  0  0
  2 20  2  0  0  0  0
  2  3  1  0  0  0  0
  3  4  2  0  0  0  0
  4  5  1  0  0  0  0
  4 25  1  0  0  0  0
  5  6  1  0  0  0  0
  5 18  1  0  0  0  0
  6  7  1  0  0  0  0
  6 26  1  0  0  0  0
  6 27  1  0  0  0  0
  7  8  1  0  0  0  0
  7  9  1  0  0  0  0
  7 28  1  0  0  0  0
  8 29  1  0  0  0  0
  9 10  1  0  0  0  0
  9 30  1  0  0  0  0
  9 31  1  0  0  0  0
 10 11  1  0  0  0  0
 11 12  1  0  0  0  0
 11 32  1  0  0  0  0
 11 33  1  0  0  0  0
 12 17  1  0  0  0  0
 12 13  2  0  0  0  0
 13 14  1  0  0  0  0
 13 34  1  0  0  0  0
 14 15  2  0  0  0  0
 14 35  1  0  0  0  0
 15 16  1  0  0  0  0
 15 36  1  0  0  0  0
 16 17  2  0  0  0  0
 16 37  1  0  0  0  0
 17 38  1  0  0  0  0
 18 19  2  0  0  0  0
 18 20  1  0  0  0  0
 20 21  1  0  0  0  0
 21 39  1  0  0  0  0
 21 40  1  0  0  0  0
 21 41  1  0  0  0  0
M  END
> <s_m_source_file>
AV-unprocessed.smi

> <i_m_source_file_index>
2306

> <i_lp_mmshare_version>
43012

> <i_f3d_flags>
0

> <s_epik_input>
W0NIM11jMW5bY0hdbihjKD1PKWMxW0NIM10pW0NIMl1bQ0BIXShbT0hdKVtDSDJdT1tDSDJdYzJbY0hdW2NIXVtjSF1bY0hdW2NIXTI=

> <s_epik_cmdline>
J2VwaWtfcHl0aG9uJywgJy1waCcsICc3LjAnLCAnLXRuJywgJzgnLCAnLW1hJywgJzIwMCcsICctbWV0YWxfYmluZGluZycsICctaW1hZScsICc8aW5maWxlLm1hZT4nLCAnLW9tYWUnLCAnPG91dGZpbGUubWFlPic=

> <r_lp_tautomer_probability>
1

> <r_epik_Ionization_Penalty>
5.35985e-05

> <r_epik_Ionization_Penalty_Charging>
1.17753e-07

> <r_epik_Ionization_Penalty_Neutral>
5.34808e-05

> <r_epik_State_Penalty>
-0

> <r_epik_Charging_Adjusted_Penalty>
1.17753e-07

> <i_epik_Tot_Q>
0

> <i_epik_Tot_abs_Q>
0

> <r_epik_Metal_State_Penalty>
-0

> <b_epik_Metal_Only>
0

> <s_lp_Force_Field>
OPLS_2005

> <r_lp_Energy>
24.4772

> <b_lp_Chiralities_Consistent>
1

> <s_lp_Variant>
AV-unprocessed.smi:2306-2

> <Gold.Version>
5.8.1

> <Gold.Id.Protein>
6NUR|6NUR_protein|mol2

> <Gold.PLP.Fitness>
49.6720

> <Gold.PLP.PLP>
-43.8201

> <Gold.PLP.part.hbond>
-2.4176

> <Gold.PLP.part.metal>
0.0000

> <Gold.PLP.part.buried>
-3.3571

> <Gold.PLP.part.nonpolar>
-40.0699

> <Gold.PLP.part.repulsive>
1.6499

> <Gold.PLP.ligand.clash>
0.0000

> <Gold.PLP.ligand.torsion>
1.5093

> <Gold.PLP.Chemscore.Hbond>
1.9280

> <Gold.PLP.Chemscore.CHOScore>
1.0000

> <Gold.PLP.Chemscore.Metal>
0.0000

> <Gold.Chemscore.Hbonds>
donor molecule, donor type, donor heavy atom, donor atom, acceptor molecule, acceptor atom, score
      L1  H     8    29       P1 10171  0.91
      P1  H  7954  7966       L1     8  1.00
      L1  C     4    25       P1 10171  1.00

> <Gold.PLP.Chemscore.Internal.Correction>
0.0863

> <Gold.Rescore>
     Score         DG    S(hbond)    S(metal)    S(lipo)     H(rot)  DE(clash)    DE(int)     intcor
     14.52     -16.39       1.76        0.00      98.21       2.52       0.46       1.41       ----

> <Gold.Chemscore.Fitness>
14.5246

> <Gold.Chemscore.DG>
-16.3946

> <Gold.Chemscore.ZeroCoef>
-5.4800

> <Gold.Chemscore.Hbond>
1.7561

> <Gold.Chemscore.Metal>
0.0000

> <Gold.Chemscore.Lipo>
98.2110

> <Gold.Chemscore.Internal_Hbond>
0.0000

> <Gold.Chemscore.DEClash>
0.4608

> <Gold.Chemscore.DEInternal>
1.4093

> <Gold.Chemscore.Rot>
2.5162

> <Gold.Chemscore.Internal.Correction>
   9.000000E+99

> <Gold.Chemscore.Hbonds>
donor molecule, donor type, donor heavy atom, donor atom, acceptor molecule, acceptor atom, score
      L1  H     8    29       P1 10171  0.87
      P1  H  7954  7966       L1     8  0.87

> <Gold.Chemscore.Hbond.Weighted>
-5.8653

> <Gold.Chemscore.Metal.Weighted>
-0.0000

> <Gold.Chemscore.Lipo.Weighted>
-11.4907

> <Gold.Chemscore.Internal_Hbond.Weighted>
0.0000

> <Gold.Chemscore.DEClash.Weighted>
0.4608

> <Gold.Chemscore.DEInternal.Weighted>
1.4093

> <Gold.Chemscore.Rot.Weighted>
6.4414

> <Gold.Chemscore.Internal.Correction.Weighted>
   9.000000E+99

> <Gold.Protein.RotatedTorsions>
[ 6907 6896 6895 6894 ] final   82.55 input  -60.11 | X-H torsion
[ 7974 7965 7964 7962 ] final  -96.48 input  175.53 | X-H torsion
[ 8008 7997 7996 7995 ] final   37.26 input   59.86 | X-H torsion
[ 10167 10162 10161 10158 ] final  -23.75 input  -65.29 | X-H torsion
[ 10718 10713 10712 10709 ] final -161.20 input   66.30 | X-H torsion
[ 10763 10752 10751 10750 ] final  -85.80 input  -60.55 | X-H torsion
[ 11005 11000 10999 10996 ] final   41.20 input  -57.11 | X-H torsion

> <Gold.Protein.ActiveResidues>
 VAL166  LYS551  ARG553  GLY616  TRP617  ASP618  TYR619  PRO620  LYS621  CYS622 
 ASP623  PHE694  ASN695  SER759  ASP760  ASP761  ALA762  ILE779  LEU786  VAL792 
 PHE793  MET794  SER795  GLU796  ALA797  LYS798  CYS799  TRP800  GLU811  SER814 

> <Gold.Protein.RotatedAtoms>
  152.5302  134.3033  159.9086 H   0  0  0  0  0  0  0  0  0  0  0  0  # atno 6907 bound_to 6896
  151.2983  133.4127  159.2645 H   0  0  0  0  0  0  0  0  0  0  0  0  # atno 6908 bound_to 6896
  151.0141  134.9435  159.8080 H   0  0  0  0  0  0  0  0  0  0  0  0  # atno 6909 bound_to 6896
  145.3463  140.9469  143.2579 H   0  0  0  0  0  0  0  0  0  0  0  0  # atno 7974 bound_to 7965
  155.2008  140.3315  155.4343 H   0  0  0  0  0  0  0  0  0  0  0  0  # atno 8008 bound_to 7997
  156.2407  140.1894  156.7045 H   0  0  0  0  0  0  0  0  0  0  0  0  # atno 8009 bound_to 7997
  154.6142  140.0604  156.9519 H   0  0  0  0  0  0  0  0  0  0  0  0  # atno 8010 bound_to 7997
  140.7288  143.4415  151.0650 H   0  0  0  0  0  0  0  0  0  0  0  0  # atno 10167 bound_to 10162
  156.5928  130.8777  151.2894 H   0  0  0  0  0  0  0  0  0  0  0  0  # atno 10718 bound_to 10713
  154.6153  135.5472  153.7516 H   0  0  0  0  0  0  0  0  0  0  0  0  # atno 10763 bound_to 10752
  153.0213  135.6399  154.1520 H   0  0  0  0  0  0  0  0  0  0  0  0  # atno 10764 bound_to 10752
  154.1456  135.2906  155.3129 H   0  0  0  0  0  0  0  0  0  0  0  0  # atno 10765 bound_to 10752
  140.1857  134.4048  155.8174 H   0  0  0  0  0  0  0  0  0  0  0  0  # atno 11005 bound_to 11000
  144.8751  139.4982  143.6749 LP  0  0  0  0  0  0  0  0  0  0  0  0  # atno 17320 bound_to 7965
  146.2986  139.7356  142.9108 LP  0  0  0  0  0  0  0  0  0  0  0  0  # atno 17321 bound_to 7965
  139.8082  143.7987  152.3169 LP  0  0  0  0  0  0  0  0  0  0  0  0  # atno 17342 bound_to 10162
  139.8028  144.7367  150.9802 LP  0  0  0  0  0  0  0  0  0  0  0  0  # atno 17343 bound_to 10162
  157.7299  130.9678  150.1809 LP  0  0  0  0  0  0  0  0  0  0  0  0  # atno 17370 bound_to 10713
  156.2535  130.3703  149.8207 LP  0  0  0  0  0  0  0  0  0  0  0  0  # atno 17371 bound_to 10713
  141.2225  133.7022  156.8009 LP  0  0  0  0  0  0  0  0  0  0  0  0  # atno 17394 bound_to 11000
  140.2216  134.8753  157.3383 LP  0  0  0  0  0  0  0  0  0  0  0  0  # atno 17395 bound_to 11000

$$$$
