AV-unprocessed.smi:1584|AV-procd|sdf|6366|dock9
  -GOLD-   22720 6593D 1   1.00000     0.00000
 Structure written by MMmdl.
 39 40  0  0  0  0  0  0  0  0  1 V2000
  145.6277  131.4934  158.2420 C   0  0  0  0  0  0  0  0  0  0  0  0
  144.7300  132.6528  158.6947 C   0  0  1  0  0  0  0  0  0  0  0  0
  143.2364  132.3273  158.4725 C   0  0  0  0  0  0  0  0  0  0  0  0
  142.7718  131.2204  159.2907 N   0  0  0  0  0  0  0  0  0  0  0  0
  141.5322  130.6155  159.2899 C   0  0  0  0  0  0  0  0  0  0  0  0
  141.5714  129.6078  160.2101 C   0  0  0  0  0  0  0  0  0  0  0  0
  142.8927  129.6800  160.7337 C   0  0  0  0  0  0  0  0  0  0  0  0
  143.6068  130.6498  160.1856 N   0  0  0  0  0  0  0  0  0  0  0  0
  144.9936  132.9360  160.1051 N   0  0  0  0  0  0  0  0  0  0  0  0
  146.2024  133.1595  160.6456 C   0  0  0  0  0  0  0  0  0  0  0  0
  147.2517  133.0908  160.0045 O   0  0  0  0  0  0  0  0  0  0  0  0
  146.2254  133.5341  162.1372 C   0  0  2  0  0  0  0  0  0  0  0  0
  144.8439  133.9609  162.6535 C   0  0  0  0  0  0  0  0  0  0  0  0
  144.4436  135.3465  162.1288 C   0  0  0  0  0  0  0  0  0  0  0  0
  145.5019  136.3515  162.2899 N   0  0  0  0  0  0  0  0  0  0  0  0
  145.0463  137.7419  162.2396 C   0  0  0  0  0  0  0  0  0  0  0  0
  146.8210  136.0673  162.4175 C   0  0  0  0  0  0  0  0  0  0  0  0
  147.6757  136.9484  162.5178 O   0  0  0  0  0  0  0  0  0  0  0  0
  147.2957  134.6017  162.4609 C   0  0  0  0  0  0  0  0  0  0  0  0
  145.4778  131.2720  157.1849 H   0  0  0  0  0  0  0  0  0  0  0  0
  145.4179  130.5834  158.8053 H   0  0  0  0  0  0  0  0  0  0  0  0
  146.6819  131.7359  158.3799 H   0  0  0  0  0  0  0  0  0  0  0  0
  144.9948  133.5195  158.0861 H   0  0  0  0  0  0  0  0  0  0  0  0
  142.6231  133.1990  158.7054 H   0  0  0  0  0  0  0  0  0  0  0  0
  143.0497  132.0883  157.4245 H   0  0  0  0  0  0  0  0  0  0  0  0
  140.7384  130.9424  158.6348 H   0  0  0  0  0  0  0  0  0  0  0  0
  140.7787  128.9217  160.4683 H   0  0  0  0  0  0  0  0  0  0  0  0
  143.3508  129.0611  161.4910 H   0  0  0  0  0  0  0  0  0  0  0  0
  144.1886  133.0050  160.7107 H   0  0  0  0  0  0  0  0  0  0  0  0
  146.5064  132.6292  162.6791 H   0  0  0  0  0  0  0  0  0  0  0  0
  144.0849  133.2264  162.3803 H   0  0  0  0  0  0  0  0  0  0  0  0
  144.8631  133.9825  163.7440 H   0  0  0  0  0  0  0  0  0  0  0  0
  144.1851  135.2889  161.0708 H   0  0  0  0  0  0  0  0  0  0  0  0
  143.5397  135.6680  162.6479 H   0  0  0  0  0  0  0  0  0  0  0  0
  145.5655  138.2917  161.4531 H   0  0  0  0  0  0  0  0  0  0  0  0
  145.2390  138.2414  163.1898 H   0  0  0  0  0  0  0  0  0  0  0  0
  143.9781  137.8199  162.0343 H   0  0  0  0  0  0  0  0  0  0  0  0
  147.6673  134.4240  163.4706 H   0  0  0  0  0  0  0  0  0  0  0  0
  148.1633  134.4933  161.8079 H   0  0  0  0  0  0  0  0  0  0  0  0
  1  2  1  0  0  0  0
  1 20  1  0  0  0  0
  1 21  1  0  0  0  0
  1 22  1  0  0  0  0
  2  3  1  0  0  0  0
  2  9  1  0  0  0  0
  2 23  1  0  0  0  0
  3  4  1  0  0  0  0
  3 24  1  0  0  0  0
  3 25  1  0  0  0  0
  4  8  1  0  0  0  0
  4  5  1  0  0  0  0
  5  6  2  0  0  0  0
  5 26  1  0  0  0  0
  6  7  1  0  0  0  0
  6 27  1  0  0  0  0
  7  8  2  0  0  0  0
  7 28  1  0  0  0  0
  9 10  1  0  0  0  0
  9 29  1  0  0  0  0
 10 11  2  0  0  0  0
 10 12  1  0  0  0  0
 12 19  1  0  0  0  0
 12 13  1  0  0  0  0
 12 30  1  0  0  0  0
 13 14  1  0  0  0  0
 13 31  1  0  0  0  0
 13 32  1  0  0  0  0
 14 15  1  0  0  0  0
 14 33  1  0  0  0  0
 14 34  1  0  0  0  0
 15 16  1  0  0  0  0
 15 17  1  0  0  0  0
 16 35  1  0  0  0  0
 16 36  1  0  0  0  0
 16 37  1  0  0  0  0
 17 18  2  0  0  0  0
 17 19  1  0  0  0  0
 19 38  1  0  0  0  0
 19 39  1  0  0  0  0
M  END
> <s_m_source_file>
AV-unprocessed.smi

> <i_m_source_file_index>
1584

> <i_lp_mmshare_version>
43012

> <i_f3d_flags>
0

> <s_epik_input>
bjFbY0hdW2NIXVtjSF1uMVtDSDJdW0NAQEhdKFtDSDNdKVtOSF1DKD1PKVtDQEBIXTJbQ0gyXVtDSDJdTihbQ0gzXSlDKD1PKVtDSDJdMg==

> <s_epik_cmdline>
J2VwaWtfcHl0aG9uJywgJy1waCcsICc3LjAnLCAnLXRuJywgJzgnLCAnLW1hJywgJzIwMCcsICctbWV0YWxfYmluZGluZycsICctaW1hZScsICc8aW5maWxlLm1hZT4nLCAnLW9tYWUnLCAnPG91dGZpbGUubWFlPic=

> <r_lp_tautomer_probability>
1

> <r_epik_Ionization_Penalty>
0.000299422

> <r_epik_Ionization_Penalty_Charging>
0

> <r_epik_Ionization_Penalty_Neutral>
0.000299422

> <r_epik_State_Penalty>
-0

> <r_epik_Charging_Adjusted_Penalty>
0

> <i_epik_Tot_Q>
0

> <i_epik_Tot_abs_Q>
0

> <r_epik_Metal_State_Penalty>
-0

> <b_epik_Metal_Only>
0

> <s_lp_Force_Field>
OPLS_2005

> <r_lp_Energy>
11.5075

> <b_lp_Chiralities_Consistent>
1

> <s_lp_Variant>
AV-unprocessed.smi:1584-2

> <Gold.Version>
5.8.1

> <Gold.Id.Protein>
6NUR|6NUR_protein|mol2

> <Gold.PLP.Fitness>
40.2025

> <Gold.PLP.PLP>
-35.3464

> <Gold.PLP.part.hbond>
-1.0000

> <Gold.PLP.part.metal>
0.0000

> <Gold.PLP.part.buried>
-6.0016

> <Gold.PLP.part.nonpolar>
-27.5908

> <Gold.PLP.part.repulsive>
0.0522

> <Gold.PLP.ligand.clash>
0.0000

> <Gold.PLP.ligand.torsion>
0.5972

> <Gold.PLP.Chemscore.Hbond>
1.0000

> <Gold.PLP.Chemscore.CHOScore>
1.0000

> <Gold.PLP.Chemscore.Metal>
0.0000

> <Gold.Chemscore.Hbonds>
donor molecule, donor type, donor heavy atom, donor atom, acceptor molecule, acceptor atom, score
      P1  H  6931  6943       L1    18  0.94
      L1  C     5    26       P1 10998  0.95

> <Gold.PLP.Chemscore.Internal.Correction>
0.0504

> <Gold.Rescore>
     Score         DG    S(hbond)    S(metal)    S(lipo)     H(rot)  DE(clash)    DE(int)     intcor
     10.65     -13.51       1.77        0.00      54.84       1.67       0.01       2.85       ----

> <Gold.Chemscore.Fitness>
10.6546

> <Gold.Chemscore.DG>
-13.5105

> <Gold.Chemscore.ZeroCoef>
-5.4800

> <Gold.Chemscore.Hbond>
1.7659

> <Gold.Chemscore.Metal>
0.0000

> <Gold.Chemscore.Lipo>
54.8402

> <Gold.Chemscore.Internal_Hbond>
0.0000

> <Gold.Chemscore.DEClash>
0.0106

> <Gold.Chemscore.DEInternal>
2.8453

> <Gold.Chemscore.Rot>
1.6734

> <Gold.Chemscore.Internal.Correction>
   9.000000E+99

> <Gold.Chemscore.Hbonds>
donor molecule, donor type, donor heavy atom, donor atom, acceptor molecule, acceptor atom, score
      P1  H  6931  6943       L1    18  0.91

> <Gold.Chemscore.Hbond.Weighted>
-5.8982

> <Gold.Chemscore.Metal.Weighted>
-0.0000

> <Gold.Chemscore.Lipo.Weighted>
-6.4163

> <Gold.Chemscore.Internal_Hbond.Weighted>
0.0000

> <Gold.Chemscore.DEClash.Weighted>
0.0106

> <Gold.Chemscore.DEInternal.Weighted>
2.8453

> <Gold.Chemscore.Rot.Weighted>
4.2840

> <Gold.Chemscore.Internal.Correction.Weighted>
   9.000000E+99

> <Gold.Protein.RotatedTorsions>
[ 6907 6896 6895 6894 ] final  -99.03 input  -60.11 | X-H torsion
[ 7974 7965 7964 7962 ] final   49.82 input  175.53 | X-H torsion
[ 8008 7997 7996 7995 ] final  -15.36 input   59.86 | X-H torsion
[ 10167 10162 10161 10158 ] final  107.39 input  -65.29 | X-H torsion
[ 10718 10713 10712 10709 ] final  139.36 input   66.30 | X-H torsion
[ 10763 10752 10751 10750 ] final -152.44 input  -60.55 | X-H torsion
[ 11005 11000 10999 10996 ] final  -39.75 input  -57.11 | X-H torsion

> <Gold.Protein.ActiveResidues>
 VAL166  LYS551  ARG553  GLY616  TRP617  ASP618  TYR619  PRO620  LYS621  CYS622 
 ASP623  PHE694  ASN695  SER759  ASP760  ASP761  ALA762  ILE779  LEU786  VAL792 
 PHE793  MET794  SER795  GLU796  ALA797  LYS798  CYS799  TRP800  GLU811  SER814 

> <Gold.Protein.RotatedAtoms>
  150.7066  134.1103  159.3997 H   0  0  0  0  0  0  0  0  0  0  0  0  # atno 6907 bound_to 6896
  151.9090  135.0344  160.0522 H   0  0  0  0  0  0  0  0  0  0  0  0  # atno 6908 bound_to 6896
  152.2352  133.5055  159.5275 H   0  0  0  0  0  0  0  0  0  0  0  0  # atno 6909 bound_to 6896
  146.0072  139.4503  142.9978 H   0  0  0  0  0  0  0  0  0  0  0  0  # atno 7974 bound_to 7965
  154.5136  140.2198  155.9108 H   0  0  0  0  0  0  0  0  0  0  0  0  # atno 8008 bound_to 7997
  156.1582  140.3147  155.8727 H   0  0  0  0  0  0  0  0  0  0  0  0  # atno 8009 bound_to 7997
  155.3805  140.0472  157.3034 H   0  0  0  0  0  0  0  0  0  0  0  0  # atno 8010 bound_to 7997
  139.6931  144.7105  151.1313 H   0  0  0  0  0  0  0  0  0  0  0  0  # atno 10167 bound_to 10162
  157.4152  131.1032  151.0412 H   0  0  0  0  0  0  0  0  0  0  0  0  # atno 10718 bound_to 10713
  154.7994  135.3236  154.7587 H   0  0  0  0  0  0  0  0  0  0  0  0  # atno 10763 bound_to 10752
  153.8259  135.6883  153.4825 H   0  0  0  0  0  0  0  0  0  0  0  0  # atno 10764 bound_to 10752
  153.1702  135.4626  154.9835 H   0  0  0  0  0  0  0  0  0  0  0  0  # atno 10765 bound_to 10752
  141.0125  133.6901  156.2229 H   0  0  0  0  0  0  0  0  0  0  0  0  # atno 11005 bound_to 11000
  145.7397  141.0012  143.1307 LP  0  0  0  0  0  0  0  0  0  0  0  0  # atno 17320 bound_to 7965
  144.6940  139.9084  143.7462 LP  0  0  0  0  0  0  0  0  0  0  0  0  # atno 17321 bound_to 7965
  140.7688  143.5530  150.9183 LP  0  0  0  0  0  0  0  0  0  0  0  0  # atno 17342 bound_to 10162
  139.9208  143.6608  152.3097 LP  0  0  0  0  0  0  0  0  0  0  0  0  # atno 17343 bound_to 10162
  157.1362  130.6123  149.5543 LP  0  0  0  0  0  0  0  0  0  0  0  0  # atno 17370 bound_to 10713
  155.9863  130.4897  150.7072 LP  0  0  0  0  0  0  0  0  0  0  0  0  # atno 17371 bound_to 10713
  140.6710  134.4868  157.5587 LP  0  0  0  0  0  0  0  0  0  0  0  0  # atno 17394 bound_to 11000
  139.9098  134.8370  156.1571 LP  0  0  0  0  0  0  0  0  0  0  0  0  # atno 17395 bound_to 11000

$$$$
