AV-unprocessed.smi:21|AV-procd|sdf|121|dock3
  -GOLD-   2262015293D 1   1.00000     0.00000
 Structure written by MMmdl.
 62 65  0  0  0  0  0  0  0  0  2 V2000
  145.4023  132.1146  149.2832 C   0  0  0  0  0  0  0  0  0  0  0  0
  145.9744  132.2102  150.5775 O   0  0  0  0  0  0  0  0  0  0  0  0
  145.5115  133.3282  151.3200 C   0  0  1  0  0  0  0  0  0  0  0  0
  145.9869  133.2415  152.7636 C   0  0  0  0  0  0  0  0  0  0  0  0
  145.9147  134.6957  153.2374 C   0  0  1  0  0  0  0  0  0  0  0  0
  146.8442  134.9978  154.4318 C   0  0  0  0  0  0  0  0  0  0  0  0
  146.5300  136.2502  155.1161 N   0  0  0  0  0  0  0  0  0  0  0  0
  145.2610  136.2765  155.8293 C   0  0  0  0  0  0  0  0  0  0  0  0
  147.5369  136.7500  155.8654 C   0  0  0  0  0  0  0  0  0  0  0  0
  148.4938  135.8828  156.2769 N   0  0  0  0  0  0  0  0  0  0  0  0
  149.5091  136.3182  157.0296 C   0  0  0  0  0  0  0  0  0  0  0  0
  149.7503  137.5545  157.4723 N   0  0  0  0  0  0  0  0  0  0  0  0
  148.7883  138.4277  157.0568 C   0  0  0  0  0  0  0  0  0  0  0  0
  147.6544  138.1130  156.2574 C   0  0  0  0  0  0  0  0  0  0  0  0
  146.8952  139.2561  156.0373 N   0  0  0  0  0  0  0  0  0  0  0  0
  147.5502  140.1968  156.6617 C   0  0  0  0  0  0  0  0  0  0  0  0
  148.7005  139.7875  157.2974 N   0  0  0  0  0  0  0  0  0  0  0  0
  149.6111  140.6251  158.0595 C   0  0  0  0  0  0  0  0  0  0  0  0
  150.2561  141.7543  157.2162 C   0  0  2  0  0  0  0  0  0  0  0  0
  151.2587  141.1746  156.1845 C   0  0  0  0  0  0  0  0  0  0  0  0
  150.6035  140.5023  155.1302 O   0  0  0  0  0  0  0  0  0  0  0  0
  150.9143  142.8156  158.1415 C   0  0  2  0  0  0  0  0  0  0  0  0
  151.5474  143.9932  157.4172 C   0  0  0  0  0  0  0  0  0  0  0  0
  152.4694  144.5813  158.4796 C   0  0  0  0  0  0  0  0  0  0  0  0
  152.8789  143.4841  159.2861 O   0  0  0  0  0  0  0  0  0  0  0  0
  152.1191  142.3270  158.9541 C   0  0  0  0  0  0  0  0  0  0  0  0
  146.2780  135.5057  152.0511 N   0  3  2  0  0  0  0  0  0  0  0  0
  145.5836  136.8098  151.9757 C   0  0  0  0  0  0  0  0  0  0  0  0
  146.1033  134.6620  150.8448 C   0  0  0  0  0  0  0  0  0  0  0  0
  144.4208  133.3762  151.3125 H   0  0  0  0  0  0  0  0  0  0  0  0
  144.8764  134.9193  153.4905 H   0  0  0  0  0  0  0  0  0  0  0  0
  145.7853  131.2265  148.7805 H   0  0  0  0  0  0  0  0  0  0  0  0
  145.6540  132.9794  148.6686 H   0  0  0  0  0  0  0  0  0  0  0  0
  144.3164  132.0267  149.3373 H   0  0  0  0  0  0  0  0  0  0  0  0
  145.3799  132.5664  153.3676 H   0  0  0  0  0  0  0  0  0  0  0  0
  147.0177  132.8845  152.7941 H   0  0  0  0  0  0  0  0  0  0  0  0
  146.7824  134.1830  155.1542 H   0  0  0  0  0  0  0  0  0  0  0  0
  147.8819  135.0244  154.0982 H   0  0  0  0  0  0  0  0  0  0  0  0
  145.1068  137.2371  156.3231 H   0  0  0  0  0  0  0  0  0  0  0  0
  145.2190  135.4904  156.5843 H   0  0  0  0  0  0  0  0  0  0  0  0
  144.4357  136.1227  155.1339 H   0  0  0  0  0  0  0  0  0  0  0  0
  150.2331  135.5697  157.3167 H   0  0  0  0  0  0  0  0  0  0  0  0
  147.2131  141.2234  156.6737 H   0  0  0  0  0  0  0  0  0  0  0  0
  149.0393  141.0378  158.8901 H   0  0  0  0  0  0  0  0  0  0  0  0
  150.3842  139.9953  158.5013 H   0  0  0  0  0  0  0  0  0  0  0  0
  149.4497  142.2391  156.6632 H   0  0  0  0  0  0  0  0  0  0  0  0
  151.8953  141.9613  155.7789 H   0  0  0  0  0  0  0  0  0  0  0  0
  151.9216  140.4398  156.6382 H   0  0  0  0  0  0  0  0  0  0  0  0
  149.7245  140.8419  155.0577 H   0  0  0  0  0  0  0  0  0  0  0  0
  150.1653  143.2035  158.8344 H   0  0  0  0  0  0  0  0  0  0  0  0
  152.1336  143.6455  156.5652 H   0  0  0  0  0  0  0  0  0  0  0  0
  150.8216  144.7233  157.0580 H   0  0  0  0  0  0  0  0  0  0  0  0
  153.3249  145.1003  158.0472 H   0  0  0  0  0  0  0  0  0  0  0  0
  151.9251  145.2881  159.1069 H   0  0  0  0  0  0  0  0  0  0  0  0
  151.8259  141.7879  159.8550 H   0  0  0  0  0  0  0  0  0  0  0  0
  152.7486  141.6685  158.3542 H   0  0  0  0  0  0  0  0  0  0  0  0
  144.5063  136.6765  151.8678 H   0  0  0  0  0  0  0  0  0  0  0  0
  145.9446  137.3841  151.1221 H   0  0  0  0  0  0  0  0  0  0  0  0
  145.7673  137.3967  152.8763 H   0  0  0  0  0  0  0  0  0  0  0  0
  147.0901  134.5053  150.4076 H   0  0  0  0  0  0  0  0  0  0  0  0
  145.4782  135.1302  150.0831 H   0  0  0  0  0  0  0  0  0  0  0  0
  147.2677  135.6958  152.1197 H   0  0  0  0  0  0  0  0  0  0  0  0
  1  2  1  0  0  0  0
  1 32  1  0  0  0  0
  1 33  1  0  0  0  0
  1 34  1  0  0  0  0
  2  3  1  0  0  0  0
  3 30  1  0  0  0  0
  3 29  1  0  0  0  0
  3  4  1  0  0  0  0
  4  5  1  0  0  0  0
  4 35  1  0  0  0  0
  4 36  1  0  0  0  0
  5 31  1  0  0  0  0
  5  6  1  0  0  0  0
  5 27  1  0  0  0  0
  6  7  1  0  0  0  0
  6 37  1  0  0  0  0
  6 38  1  0  0  0  0
  7  8  1  0  0  0  0
  7  9  1  0  0  0  0
  8 39  1  0  0  0  0
  8 40  1  0  0  0  0
  8 41  1  0  0  0  0
  9 14  1  0  0  0  0
  9 10  2  0  0  0  0
 10 11  1  0  0  0  0
 11 12  2  0  0  0  0
 11 42  1  0  0  0  0
 12 13  1  0  0  0  0
 13 17  1  0  0  0  0
 13 14  2  0  0  0  0
 14 15  1  0  0  0  0
 15 16  2  0  0  0  0
 16 17  1  0  0  0  0
 16 43  1  0  0  0  0
 17 18  1  0  0  0  0
 18 19  1  0  0  0  0
 18 44  1  0  0  0  0
 18 45  1  0  0  0  0
 19 20  1  0  0  0  0
 19 22  1  0  0  0  0
 19 46  1  0  0  0  0
 20 21  1  0  0  0  0
 20 47  1  0  0  0  0
 20 48  1  0  0  0  0
 21 49  1  0  0  0  0
 22 26  1  0  0  0  0
 22 23  1  0  0  0  0
 22 50  1  0  0  0  0
 23 24  1  0  0  0  0
 23 51  1  0  0  0  0
 23 52  1  0  0  0  0
 24 25  1  0  0  0  0
 24 53  1  0  0  0  0
 24 54  1  0  0  0  0
 25 26  1  0  0  0  0
 26 55  1  0  0  0  0
 26 56  1  0  0  0  0
 27 28  1  0  0  0  0
 27 29  1  0  0  0  0
 27 62  1  0  0  0  0
 28 57  1  0  0  0  0
 28 58  1  0  0  0  0
 28 59  1  0  0  0  0
 29 60  1  0  0  0  0
 29 61  1  0  0  0  0
M  CHG  1  27   1
M  END
> <s_m_source_file>
AV-unprocessed.smi

> <i_m_source_file_index>
21

> <i_lp_mmshare_version>
43012

> <i_f3d_flags>
0

> <s_epik_input>
W0NIM11PW0NASF0xW0NIMl1bQ0BIXShOKFtDSDNdKVtDSDJdMSlbQ0gyXU4oW0NIM10pYyhuW2NIXW4yKWMoYzIzKW5bY0hdbjNbQ0gyXVtDQEhdKFtDSDJdW09IXSlbQ0BASF00W0NIMl1bQ0gyXU9bQ0gyXTQ=

> <s_epik_cmdline>
J2VwaWtfcHl0aG9uJywgJy1waCcsICc3LjAnLCAnLXRuJywgJzgnLCAnLW1hJywgJzIwMCcsICctbWV0YWxfYmluZGluZycsICctaW1hZScsICc8aW5maWxlLm1hZT4nLCAnLW9tYWUnLCAnPG91dGZpbGUubWFlPic=

> <r_lp_tautomer_probability>
1

> <r_epik_Ionization_Penalty>
0.0157465

> <r_epik_Ionization_Penalty_Charging>
0.015354

> <r_epik_Ionization_Penalty_Neutral>
0.000392529

> <r_epik_State_Penalty>
0.0120612

> <r_epik_Charging_Adjusted_Penalty>
0.0274152

> <i_epik_Tot_Q>
1

> <i_epik_Tot_abs_Q>
1

> <r_epik_Metal_State_Penalty>
0.0121253

> <b_epik_Metal_Only>
0

> <s_lp_Force_Field>
OPLS_2005

> <r_lp_Energy>
60.2547

> <b_lp_Chiralities_Consistent>
1

> <s_lp_Variant>
AV-unprocessed.smi:21-1

> <Gold.Version>
5.8.1

> <Gold.Id.Protein>
6NUR|6NUR_protein|mol2

> <Gold.PLP.Fitness>
44.8039

> <Gold.PLP.PLP>
-36.7294

> <Gold.PLP.part.hbond>
-2.0000

> <Gold.PLP.part.metal>
0.0000

> <Gold.PLP.part.buried>
-7.0054

> <Gold.PLP.part.nonpolar>
-27.9936

> <Gold.PLP.part.repulsive>
0.2534

> <Gold.PLP.ligand.clash>
0.0000

> <Gold.PLP.ligand.torsion>
0.8639

> <Gold.PLP.Chemscore.Hbond>
3.0000

> <Gold.PLP.Chemscore.CHOScore>
0.0000

> <Gold.PLP.Chemscore.Metal>
0.0000

> <Gold.Chemscore.Hbonds>
donor molecule, donor type, donor heavy atom, donor atom, acceptor molecule, acceptor atom, score
      L1  H    27    62       P1  7948  2.00
      P1  H  7989  7998       L1    21  1.00

> <Gold.PLP.Chemscore.Internal.Correction>
0.8022

> <Gold.Rescore>
     Score         DG    S(hbond)    S(metal)    S(lipo)     H(rot)  DE(clash)    DE(int)     intcor
     13.96     -14.98       1.86        0.00     101.25       3.35       0.09       0.93       ----

> <Gold.Chemscore.Fitness>
13.9624

> <Gold.Chemscore.DG>
-14.9825

> <Gold.Chemscore.ZeroCoef>
-5.4800

> <Gold.Chemscore.Hbond>
1.8622

> <Gold.Chemscore.Metal>
0.0000

> <Gold.Chemscore.Lipo>
101.2518

> <Gold.Chemscore.Internal_Hbond>
0.0000

> <Gold.Chemscore.DEClash>
0.0865

> <Gold.Chemscore.DEInternal>
0.9336

> <Gold.Chemscore.Rot>
3.3452

> <Gold.Chemscore.Internal.Correction>
   9.000000E+99

> <Gold.Chemscore.Hbonds>
donor molecule, donor type, donor heavy atom, donor atom, acceptor molecule, acceptor atom, score
      L1  H    27    62       P1  7948  1.00
      P1  H  7989  7998       L1    21  0.40

> <Gold.Chemscore.Hbond.Weighted>
-6.2197

> <Gold.Chemscore.Metal.Weighted>
-0.0000

> <Gold.Chemscore.Lipo.Weighted>
-11.8465

> <Gold.Chemscore.Internal_Hbond.Weighted>
0.0000

> <Gold.Chemscore.DEClash.Weighted>
0.0865

> <Gold.Chemscore.DEInternal.Weighted>
0.9336

> <Gold.Chemscore.Rot.Weighted>
8.5636

> <Gold.Chemscore.Internal.Correction.Weighted>
   9.000000E+99

> <Gold.Protein.RotatedTorsions>
[ 6907 6896 6895 6894 ] final   50.05 input  -60.11 | X-H torsion
[ 7974 7965 7964 7962 ] final -102.30 input  175.53 | X-H torsion
[ 8008 7997 7996 7995 ] final  -35.83 input   59.86 | X-H torsion
[ 10167 10162 10161 10158 ] final  108.20 input  -65.29 | X-H torsion
[ 10718 10713 10712 10709 ] final -145.88 input   66.30 | X-H torsion
[ 10763 10752 10751 10750 ] final    5.56 input  -60.55 | X-H torsion
[ 11005 11000 10999 10996 ] final -121.58 input  -57.11 | X-H torsion

> <Gold.Protein.ActiveResidues>
 VAL166  LYS551  ARG553  GLY616  TRP617  ASP618  TYR619  PRO620  LYS621  CYS622 
 ASP623  PHE694  ASN695  SER759  ASP760  ASP761  ALA762  ILE779  LEU786  VAL792 
 PHE793  MET794  SER795  GLU796  ALA797  LYS798  CYS799  TRP800  GLU811  SER814 

> <Gold.Protein.RotatedAtoms>
  152.2976  134.7649  160.0364 H   0  0  0  0  0  0  0  0  0  0  0  0  # atno 6907 bound_to 6896
  151.8174  133.3384  159.3582 H   0  0  0  0  0  0  0  0  0  0  0  0  # atno 6908 bound_to 6896
  150.7258  134.5536  159.5851 H   0  0  0  0  0  0  0  0  0  0  0  0  # atno 6909 bound_to 6896
  145.2706  140.9297  143.2989 H   0  0  0  0  0  0  0  0  0  0  0  0  # atno 7974 bound_to 7965
  154.4086  140.1647  156.2275 H   0  0  0  0  0  0  0  0  0  0  0  0  # atno 8008 bound_to 7997
  155.9311  140.3414  155.6227 H   0  0  0  0  0  0  0  0  0  0  0  0  # atno 8009 bound_to 7997
  155.7105  140.0756  157.2363 H   0  0  0  0  0  0  0  0  0  0  0  0  # atno 8010 bound_to 7997
  139.6865  144.7113  151.1423 H   0  0  0  0  0  0  0  0  0  0  0  0  # atno 10167 bound_to 10162
  156.3879  130.7870  151.2070 H   0  0  0  0  0  0  0  0  0  0  0  0  # atno 10718 bound_to 10713
  153.2579  135.6920  153.7609 H   0  0  0  0  0  0  0  0  0  0  0  0  # atno 10763 bound_to 10752
  153.6679  135.3349  155.3146 H   0  0  0  0  0  0  0  0  0  0  0  0  # atno 10764 bound_to 10752
  154.8419  135.4493  154.1560 H   0  0  0  0  0  0  0  0  0  0  0  0  # atno 10765 bound_to 10752
  141.0059  134.0335  157.3477 H   0  0  0  0  0  0  0  0  0  0  0  0  # atno 11005 bound_to 11000
  144.9339  139.4267  143.6482 LP  0  0  0  0  0  0  0  0  0  0  0  0  # atno 17320 bound_to 7965
  146.3248  139.8264  142.8917 LP  0  0  0  0  0  0  0  0  0  0  0  0  # atno 17321 bound_to 7965
  140.7669  143.5622  150.9087 LP  0  0  0  0  0  0  0  0  0  0  0  0  # atno 17342 bound_to 10162
  139.9297  143.6508  152.3079 LP  0  0  0  0  0  0  0  0  0  0  0  0  # atno 17343 bound_to 10162
  157.7497  131.0324  150.4226 LP  0  0  0  0  0  0  0  0  0  0  0  0  # atno 17370 bound_to 10713
  156.4482  130.4006  149.6653 LP  0  0  0  0  0  0  0  0  0  0  0  0  # atno 17371 bound_to 10713
  139.9063  135.0180  156.7501 LP  0  0  0  0  0  0  0  0  0  0  0  0  # atno 17394 bound_to 11000
  140.6813  133.9472  155.7912 LP  0  0  0  0  0  0  0  0  0  0  0  0  # atno 17395 bound_to 11000

$$$$
