AV-unprocessed.smi:1871|AV-procd|sdf|7600|dock3
  -GOLD-   22720 9313D 1   1.00000     0.00000
 Structure written by MMmdl.
 40 42  0  0  0  0  0  0  0  0  1 V2000
  152.3977  137.5537  155.0785 O   0  0  0  0  0  0  0  0  0  0  0  0
  151.5644  138.6707  154.8411 C   0  0  0  0  0  0  0  0  0  0  0  0
  151.6261  139.7162  155.9203 C   0  0  0  0  0  0  0  0  0  0  0  0
  152.4757  139.6330  156.9474 N   0  0  0  0  0  0  0  0  0  0  0  0
  152.2135  140.7843  157.6605 C   0  0  0  0  0  0  0  0  0  0  0  0
  152.7910  141.2764  158.8528 C   0  0  0  0  0  0  0  0  0  0  0  0
  152.3574  142.4995  159.4045 C   0  0  0  0  0  0  0  0  0  0  0  0
  151.3451  143.2480  158.7705 C   0  0  0  0  0  0  0  0  0  0  0  0
  150.7595  142.7764  157.5802 C   0  0  0  0  0  0  0  0  0  0  0  0
  151.1896  141.5502  157.0368 C   0  0  0  0  0  0  0  0  0  0  0  0
  150.8183  140.8097  155.9160 N   0  0  0  0  0  0  0  0  0  0  0  0
  149.7831  141.1794  154.9527 C   0  0  0  0  0  0  0  0  0  0  0  0
  148.3381  141.0388  155.4870 C   0  0  1  0  0  0  0  0  0  0  0  0
  147.6982  142.2985  155.5249 O   0  0  0  0  0  0  0  0  0  0  0  0
  147.5303  139.9857  154.7381 C   0  0  0  0  0  0  0  0  0  0  0  0
  146.8753  138.9401  155.4254 C   0  0  0  0  0  0  0  0  0  0  0  0
  146.1098  137.9943  154.7175 C   0  0  0  0  0  0  0  0  0  0  0  0
  145.9918  138.0696  153.3155 C   0  0  0  0  0  0  0  0  0  0  0  0
  145.2119  137.1251  152.6864 O   0  0  0  0  0  0  0  0  0  0  0  0
  145.7344  136.3987  151.6628 C   0  0  0  0  0  0  0  0  0  0  0  0
  144.9609  135.3104  151.4325 F   0  0  0  0  0  0  0  0  0  0  0  0
  145.7553  137.1330  150.5234 F   0  0  0  0  0  0  0  0  0  0  0  0
  146.6434  139.1220  152.6283 C   0  0  0  0  0  0  0  0  0  0  0  0
  147.4091  140.0685  153.3357 C   0  0  0  0  0  0  0  0  0  0  0  0
  152.9691  137.7544  155.8033 H   0  0  0  0  0  0  0  0  0  0  0  0
  151.8604  139.1051  153.8870 H   0  0  0  0  0  0  0  0  0  0  0  0
  150.5396  138.3160  154.7423 H   0  0  0  0  0  0  0  0  0  0  0  0
  153.5694  140.7112  159.3436 H   0  0  0  0  0  0  0  0  0  0  0  0
  152.8048  142.8654  160.3171 H   0  0  0  0  0  0  0  0  0  0  0  0
  151.0176  144.1841  159.1986 H   0  0  0  0  0  0  0  0  0  0  0  0
  149.9826  143.3482  157.0957 H   0  0  0  0  0  0  0  0  0  0  0  0
  149.9598  142.2101  154.6437 H   0  0  0  0  0  0  0  0  0  0  0  0
  149.9054  140.5840  154.0489 H   0  0  0  0  0  0  0  0  0  0  0  0
  148.4016  140.7127  156.5258 H   0  0  0  0  0  0  0  0  0  0  0  0
  148.3537  142.9626  155.6756 H   0  0  0  0  0  0  0  0  0  0  0  0
  146.9397  138.8674  156.5011 H   0  0  0  0  0  0  0  0  0  0  0  0
  145.6054  137.2058  155.2569 H   0  0  0  0  0  0  0  0  0  0  0  0
  146.7417  136.0485  151.8892 H   0  0  0  0  0  0  0  0  0  0  0  0
  146.5569  139.2232  151.5570 H   0  0  0  0  0  0  0  0  0  0  0  0
  147.8940  140.8693  152.7972 H   0  0  0  0  0  0  0  0  0  0  0  0
  1  2  1  0  0  0  0
  1 25  1  0  0  0  0
  2  3  1  0  0  0  0
  2 26  1  0  0  0  0
  2 27  1  0  0  0  0
  3 11  1  0  0  0  0
  3  4  2  0  0  0  0
  4  5  1  0  0  0  0
  5 10  2  0  0  0  0
  5  6  1  0  0  0  0
  6  7  2  0  0  0  0
  6 28  1  0  0  0  0
  7  8  1  0  0  0  0
  7 29  1  0  0  0  0
  8  9  2  0  0  0  0
  8 30  1  0  0  0  0
  9 10  1  0  0  0  0
  9 31  1  0  0  0  0
 10 11  1  0  0  0  0
 11 12  1  0  0  0  0
 12 13  1  0  0  0  0
 12 32  1  0  0  0  0
 12 33  1  0  0  0  0
 13 14  1  0  0  0  0
 13 15  1  0  0  0  0
 13 34  1  0  0  0  0
 14 35  1  0  0  0  0
 15 24  1  0  0  0  0
 15 16  2  0  0  0  0
 16 17  1  0  0  0  0
 16 36  1  0  0  0  0
 17 18  2  0  0  0  0
 17 37  1  0  0  0  0
 18 19  1  0  0  0  0
 18 23  1  0  0  0  0
 19 20  1  0  0  0  0
 20 21  1  0  0  0  0
 20 22  1  0  0  0  0
 20 38  1  0  0  0  0
 23 24  2  0  0  0  0
 23 39  1  0  0  0  0
 24 40  1  0  0  0  0
M  END
> <s_m_source_file>
AV-unprocessed.smi

> <i_m_source_file_index>
1871

> <i_lp_mmshare_version>
43012

> <i_f3d_flags>
0

> <s_epik_input>
W2NIXTFbY0hdW2NIXVtjSF1jKGMxMiluKGMobjIpW0NIMl1bT0hdKVtDSDJdW0NASF0oW09IXSljM1tjSF1bY0hdYyhPW0NIXShGKUYpW2NIXVtjSF0z

> <s_epik_cmdline>
J2VwaWtfcHl0aG9uJywgJy1waCcsICc3LjAnLCAnLXRuJywgJzgnLCAnLW1hJywgJzIwMCcsICctbWV0YWxfYmluZGluZycsICctaW1hZScsICc8aW5maWxlLm1hZT4nLCAnLW9tYWUnLCAnPG91dGZpbGUubWFlPic=

> <r_lp_tautomer_probability>
1

> <r_epik_Ionization_Penalty>
0.0634717

> <r_epik_Ionization_Penalty_Charging>
0

> <r_epik_Ionization_Penalty_Neutral>
0.0634717

> <r_epik_State_Penalty>
0.0551572

> <r_epik_Charging_Adjusted_Penalty>
0.0551572

> <i_epik_Tot_Q>
0

> <i_epik_Tot_abs_Q>
0

> <r_epik_Metal_State_Penalty>
5.78034e-05

> <b_epik_Metal_Only>
0

> <s_lp_Force_Field>
OPLS_2005

> <r_lp_Energy>
11.9527

> <b_lp_Chiralities_Consistent>
1

> <s_lp_Variant>
AV-unprocessed.smi:1871-2

> <Gold.Version>
5.8.1

> <Gold.Id.Protein>
6NUR|6NUR_protein|mol2

> <Gold.PLP.Fitness>
46.4627

> <Gold.PLP.PLP>
-41.4547

> <Gold.PLP.part.hbond>
-3.0000

> <Gold.PLP.part.metal>
0.0000

> <Gold.PLP.part.buried>
2.6020

> <Gold.PLP.part.nonpolar>
-41.2747

> <Gold.PLP.part.repulsive>
0.2211

> <Gold.PLP.ligand.clash>
0.0000

> <Gold.PLP.ligand.torsion>
1.2412

> <Gold.PLP.Chemscore.Hbond>
2.4306

> <Gold.PLP.Chemscore.CHOScore>
0.0000

> <Gold.PLP.Chemscore.Metal>
0.0000

> <Gold.Chemscore.Hbonds>
donor molecule, donor type, donor heavy atom, donor atom, acceptor molecule, acceptor atom, score
      L1  H    14    35       P1  8028  0.99
      P1  H  7997  8009       L1     4  0.85
      P1  H 10752 10765       L1     1  0.58

> <Gold.PLP.Chemscore.Internal.Correction>
0.1988

> <Gold.Rescore>
     Score         DG    S(hbond)    S(metal)    S(lipo)     H(rot)  DE(clash)    DE(int)     intcor
     11.57     -14.02       1.32        0.00     107.20       3.29       1.25       1.20       ----

> <Gold.Chemscore.Fitness>
11.5720

> <Gold.Chemscore.DG>
-14.0182

> <Gold.Chemscore.ZeroCoef>
-5.4800

> <Gold.Chemscore.Hbond>
1.3203

> <Gold.Chemscore.Metal>
0.0000

> <Gold.Chemscore.Lipo>
107.2010

> <Gold.Chemscore.Internal_Hbond>
0.0000

> <Gold.Chemscore.DEClash>
1.2465

> <Gold.Chemscore.DEInternal>
1.1997

> <Gold.Chemscore.Rot>
3.2868

> <Gold.Chemscore.Internal.Correction>
   9.000000E+99

> <Gold.Chemscore.Hbonds>
donor molecule, donor type, donor heavy atom, donor atom, acceptor molecule, acceptor atom, score
      L1  H    14    35       P1  8028  0.91
      P1  H  7997  8009       L1     4  0.11
      P1  H 10752 10765       L1     1  0.19

> <Gold.Chemscore.Hbond.Weighted>
-4.4100

> <Gold.Chemscore.Metal.Weighted>
-0.0000

> <Gold.Chemscore.Lipo.Weighted>
-12.5425

> <Gold.Chemscore.Internal_Hbond.Weighted>
0.0000

> <Gold.Chemscore.DEClash.Weighted>
1.2465

> <Gold.Chemscore.DEInternal.Weighted>
1.1997

> <Gold.Chemscore.Rot.Weighted>
8.4143

> <Gold.Chemscore.Internal.Correction.Weighted>
   9.000000E+99

> <Gold.Protein.RotatedTorsions>
[ 6907 6896 6895 6894 ] final   71.18 input  -60.11 | X-H torsion
[ 7974 7965 7964 7962 ] final  -20.73 input  175.53 | X-H torsion
[ 8008 7997 7996 7995 ] final -163.80 input   59.86 | X-H torsion
[ 10167 10162 10161 10158 ] final  119.07 input  -65.29 | X-H torsion
[ 10718 10713 10712 10709 ] final -105.27 input   66.30 | X-H torsion
[ 10763 10752 10751 10750 ] final -179.49 input  -60.55 | X-H torsion
[ 11005 11000 10999 10996 ] final  -29.31 input  -57.11 | X-H torsion

> <Gold.Protein.ActiveResidues>
 VAL166  LYS551  ARG553  GLY616  TRP617  ASP618  TYR619  PRO620  LYS621  CYS622 
 ASP623  PHE694  ASN695  SER759  ASP760  ASP761  ALA762  ILE779  LEU786  VAL792 
 PHE793  MET794  SER795  GLU796  ALA797  LYS798  CYS799  TRP800  GLU811  SER814 

> <Gold.Protein.RotatedAtoms>
  152.4794  134.4759  159.9649 H   0  0  0  0  0  0  0  0  0  0  0  0  # atno 6907 bound_to 6896
  151.4768  133.3550  159.2840 H   0  0  0  0  0  0  0  0  0  0  0  0  # atno 6908 bound_to 6896
  150.8856  134.8279  159.7317 H   0  0  0  0  0  0  0  0  0  0  0  0  # atno 6909 bound_to 6896
  146.1772  140.4242  142.8509 H   0  0  0  0  0  0  0  0  0  0  0  0  # atno 7974 bound_to 7965
  155.8265  140.0927  157.1818 H   0  0  0  0  0  0  0  0  0  0  0  0  # atno 8008 bound_to 7997
  154.3979  140.1427  156.3623 H   0  0  0  0  0  0  0  0  0  0  0  0  # atno 8009 bound_to 7997
  155.8211  140.3446  155.5517 H   0  0  0  0  0  0  0  0  0  0  0  0  # atno 8010 bound_to 7997
  139.6070  144.7072  151.2931 H   0  0  0  0  0  0  0  0  0  0  0  0  # atno 10167 bound_to 10162
  156.0339  130.5555  150.7515 H   0  0  0  0  0  0  0  0  0  0  0  0  # atno 10718 bound_to 10713
  154.5344  135.2802  155.1152 H   0  0  0  0  0  0  0  0  0  0  0  0  # atno 10763 bound_to 10752
  154.2659  135.6313  153.5295 H   0  0  0  0  0  0  0  0  0  0  0  0  # atno 10764 bound_to 10752
  152.9964  135.5616  154.5866 H   0  0  0  0  0  0  0  0  0  0  0  0  # atno 10765 bound_to 10752
  140.9285  133.7353  156.0902 H   0  0  0  0  0  0  0  0  0  0  0  0  # atno 11005 bound_to 11000
  144.8256  140.6622  143.6324 LP  0  0  0  0  0  0  0  0  0  0  0  0  # atno 17320 bound_to 7965
  145.4178  139.1569  143.4091 LP  0  0  0  0  0  0  0  0  0  0  0  0  # atno 17321 bound_to 7965
  140.7292  143.6915  150.7918 LP  0  0  0  0  0  0  0  0  0  0  0  0  # atno 17342 bound_to 10162
  140.0502  143.5257  152.2677 LP  0  0  0  0  0  0  0  0  0  0  0  0  # atno 17343 bound_to 10162
  157.5058  131.0922  151.0259 LP  0  0  0  0  0  0  0  0  0  0  0  0  # atno 17370 bound_to 10713
  157.0627  130.5832  149.5388 LP  0  0  0  0  0  0  0  0  0  0  0  0  # atno 17371 bound_to 10713
  140.7894  134.3634  157.5468 LP  0  0  0  0  0  0  0  0  0  0  0  0  # atno 17394 bound_to 11000
  139.8791  134.9131  156.3076 LP  0  0  0  0  0  0  0  0  0  0  0  0  # atno 17395 bound_to 11000

$$$$
