AV-unprocessed.smi:2829|AV-procd|sdf|10904|dock3
  -GOLD-   2272015353D 1   1.00000     0.00000
 Structure written by MMmdl.
 50 53  0  0  0  0  0  0  0  0  1 V2000
  145.4630  131.5716  152.0583 C   0  0  0  0  0  0  0  0  0  0  0  0
  144.9481  132.3893  150.8556 C   0  0  0  0  0  0  0  0  0  0  0  0
  145.8253  132.1117  149.6170 C   0  0  0  0  0  0  0  0  0  0  0  0
  143.5205  131.8926  150.5334 C   0  0  0  0  0  0  0  0  0  0  0  0
  144.9851  133.8901  151.1948 C   0  0  0  0  0  0  0  0  0  0  0  0
  143.8293  134.7023  151.2342 C   0  0  0  0  0  0  0  0  0  0  0  0
  143.9936  136.0578  151.5636 C   0  0  0  0  0  0  0  0  0  0  0  0
  145.2926  136.5303  151.8358 C   0  0  0  0  0  0  0  0  0  0  0  0
  145.3773  137.9058  152.1703 N   0  0  0  0  0  0  0  0  0  0  0  0
  146.4776  138.6375  152.4312 C   0  0  0  0  0  0  0  0  0  0  0  0
  147.6328  138.2288  152.3288 O   0  0  0  0  0  0  0  0  0  0  0  0
  146.2140  139.9006  152.8086 N   0  0  0  0  0  0  0  0  0  0  0  0
  147.1806  140.9407  153.1594 C   0  0  2  0  0  0  0  0  0  0  0  0
  148.1553  140.4901  154.2492 C   0  0  1  0  0  0  0  0  0  0  0  0
  149.6049  140.1644  154.2697 C   0  0  0  0  0  0  0  0  0  0  0  0
  149.9719  140.9271  155.5683 C   0  0  0  0  0  0  0  0  0  0  0  0
  148.7983  141.7015  155.9160 O   0  0  0  0  0  0  0  0  0  0  0  0
  148.1631  141.9497  154.6764 C   0  0  2  0  0  0  0  0  0  0  0  0
  146.6836  141.9303  154.2655 C   0  0  0  0  0  0  0  0  0  0  0  0
  145.9469  143.2356  153.9400 C   0  0  0  0  0  0  0  0  0  0  0  0
  145.2375  143.1116  155.2929 C   0  0  0  0  0  0  0  0  0  0  0  0
  145.5700  141.6159  155.2823 C   0  0  0  0  0  0  0  0  0  0  0  0
  146.3598  135.6951  151.7778 N   0  0  0  0  0  0  0  0  0  0  0  0
  146.2101  134.4046  151.4645 N   0  0  0  0  0  0  0  0  0  0  0  0
  145.4295  130.5006  151.8551 H   0  0  0  0  0  0  0  0  0  0  0  0
  144.8608  131.7565  152.9486 H   0  0  0  0  0  0  0  0  0  0  0  0
  146.4965  131.8188  152.3040 H   0  0  0  0  0  0  0  0  0  0  0  0
  146.8687  132.3773  149.7910 H   0  0  0  0  0  0  0  0  0  0  0  0
  145.4806  132.6817  148.7534 H   0  0  0  0  0  0  0  0  0  0  0  0
  145.8048  131.0560  149.3437 H   0  0  0  0  0  0  0  0  0  0  0  0
  143.5166  130.8278  150.2971 H   0  0  0  0  0  0  0  0  0  0  0  0
  143.0980  132.4113  149.6722 H   0  0  0  0  0  0  0  0  0  0  0  0
  142.8444  132.0334  151.3775 H   0  0  0  0  0  0  0  0  0  0  0  0
  142.8406  134.3245  151.0259 H   0  0  0  0  0  0  0  0  0  0  0  0
  143.1383  136.7165  151.6085 H   0  0  0  0  0  0  0  0  0  0  0  0
  144.4936  138.3829  152.2695 H   0  0  0  0  0  0  0  0  0  0  0  0
  145.2434  140.1794  152.8139 H   0  0  0  0  0  0  0  0  0  0  0  0
  147.6757  141.4198  152.3104 H   0  0  0  0  0  0  0  0  0  0  0  0
  147.6293  139.8546  154.9715 H   0  0  0  0  0  0  0  0  0  0  0  0
  149.7980  139.0938  154.3431 H   0  0  0  0  0  0  0  0  0  0  0  0
  150.1253  140.5645  153.3986 H   0  0  0  0  0  0  0  0  0  0  0  0
  150.2189  140.2484  156.3850 H   0  0  0  0  0  0  0  0  0  0  0  0
  150.8262  141.5849  155.4034 H   0  0  0  0  0  0  0  0  0  0  0  0
  148.7690  142.5966  154.0329 H   0  0  0  0  0  0  0  0  0  0  0  0
  146.5883  144.1119  153.8418 H   0  0  0  0  0  0  0  0  0  0  0  0
  145.2587  143.1438  153.0997 H   0  0  0  0  0  0  0  0  0  0  0  0
  145.7529  143.6507  156.0892 H   0  0  0  0  0  0  0  0  0  0  0  0
  144.1719  143.3415  155.2720 H   0  0  0  0  0  0  0  0  0  0  0  0
  144.7600  141.0144  154.8672 H   0  0  0  0  0  0  0  0  0  0  0  0
  145.9161  141.2223  156.2385 H   0  0  0  0  0  0  0  0  0  0  0  0
  1  2  1  0  0  0  0
  1 25  1  0  0  0  0
  1 26  1  0  0  0  0
  1 27  1  0  0  0  0
  2  3  1  0  0  0  0
  2  4  1  0  0  0  0
  2  5  1  0  0  0  0
  3 28  1  0  0  0  0
  3 29  1  0  0  0  0
  3 30  1  0  0  0  0
  4 31  1  0  0  0  0
  4 32  1  0  0  0  0
  4 33  1  0  0  0  0
  5 24  1  0  0  0  0
  5  6  2  0  0  0  0
  6  7  1  0  0  0  0
  6 34  1  0  0  0  0
  7  8  2  0  0  0  0
  7 35  1  0  0  0  0
  8  9  1  0  0  0  0
  8 23  1  0  0  0  0
  9 10  1  0  0  0  0
  9 36  1  0  0  0  0
 10 11  2  0  0  0  0
 10 12  1  0  0  0  0
 12 13  1  0  0  0  0
 12 37  1  0  0  0  0
 13 19  1  0  0  0  0
 13 14  1  0  0  0  0
 13 38  1  0  0  0  0
 14 18  1  0  0  0  0
 14 15  1  0  0  0  0
 14 39  1  0  0  0  0
 15 16  1  0  0  0  0
 15 40  1  0  0  0  0
 15 41  1  0  0  0  0
 16 17  1  0  0  0  0
 16 42  1  0  0  0  0
 16 43  1  0  0  0  0
 17 18  1  0  0  0  0
 18 19  1  0  0  0  0
 18 44  1  0  0  0  0
 19 22  1  0  0  0  0
 19 20  1  0  0  0  0
 20 21  1  0  0  0  0
 20 45  1  0  0  0  0
 20 46  1  0  0  0  0
 21 22  1  0  0  0  0
 21 47  1  0  0  0  0
 21 48  1  0  0  0  0
 22 49  1  0  0  0  0
 22 50  1  0  0  0  0
 23 24  2  0  0  0  0
M  END
> <s_m_source_file>
AV-unprocessed.smi

> <i_m_source_file_index>
2829

> <i_lp_mmshare_version>
43012

> <i_f3d_flags>
0

> <s_epik_input>
W0NIM11DKFtDSDNdKShbQ0gzXSljMVtjSF1bY0hdYyhubjEpW05IXUMoPU8pW05IXVtDQEBIXTJbQ0BIXShbQ0gyXVtDSDJdTzMpW0NAQEhdM0MyNFtDSDJdW0NIMl1bQ0gyXTQ=

> <s_epik_cmdline>
J2VwaWtfcHl0aG9uJywgJy1waCcsICc3LjAnLCAnLXRuJywgJzgnLCAnLW1hJywgJzIwMCcsICctbWV0YWxfYmluZGluZycsICctaW1hZScsICc8aW5maWxlLm1hZT4nLCAnLW9tYWUnLCAnPG91dGZpbGUubWFlPic=

> <r_lp_tautomer_probability>
1

> <r_epik_Ionization_Penalty>
0.011915

> <r_epik_Ionization_Penalty_Charging>
0

> <r_epik_Ionization_Penalty_Neutral>
0.011915

> <r_epik_State_Penalty>
0.00486223

> <r_epik_Charging_Adjusted_Penalty>
0.00486223

> <i_epik_Tot_Q>
0

> <i_epik_Tot_abs_Q>
0

> <r_epik_Metal_State_Penalty>
-0

> <b_epik_Metal_Only>
0

> <s_lp_Force_Field>
OPLS_2005

> <r_lp_Energy>
82.9542

> <b_lp_Chiralities_Consistent>
1

> <s_lp_Variant>
AV-unprocessed.smi:2829-7

> <Gold.Version>
5.8.1

> <Gold.Id.Protein>
6NUR|6NUR_protein|mol2

> <Gold.PLP.Fitness>
42.8976

> <Gold.PLP.PLP>
-38.6910

> <Gold.PLP.part.hbond>
-2.8362

> <Gold.PLP.part.metal>
0.0000

> <Gold.PLP.part.buried>
-5.2344

> <Gold.PLP.part.nonpolar>
-40.7308

> <Gold.PLP.part.repulsive>
10.1664

> <Gold.PLP.ligand.clash>
0.0000

> <Gold.PLP.ligand.torsion>
0.2080

> <Gold.PLP.Chemscore.Hbond>
1.4326

> <Gold.PLP.Chemscore.CHOScore>
0.0000

> <Gold.PLP.Chemscore.Metal>
0.0000

> <Gold.Chemscore.Hbonds>
donor molecule, donor type, donor heavy atom, donor atom, acceptor molecule, acceptor atom, score
      L1  H     9    36       P1 10175  0.41
      L1  H    12    37       P1 10175  1.00

> <Gold.PLP.Chemscore.Internal.Correction>
0.3246

> <Gold.Rescore>
     Score         DG    S(hbond)    S(metal)    S(lipo)     H(rot)  DE(clash)    DE(int)     intcor
     12.83     -20.47       1.73        0.00     104.14       1.16       4.65       2.99       ----

> <Gold.Chemscore.Fitness>
12.8349

> <Gold.Chemscore.DG>
-20.4699

> <Gold.Chemscore.ZeroCoef>
-5.4800

> <Gold.Chemscore.Hbond>
1.7306

> <Gold.Chemscore.Metal>
0.0000

> <Gold.Chemscore.Lipo>
104.1358

> <Gold.Chemscore.Internal_Hbond>
0.0000

> <Gold.Chemscore.DEClash>
4.6467

> <Gold.Chemscore.DEInternal>
2.9883

> <Gold.Chemscore.Rot>
1.1618

> <Gold.Chemscore.Internal.Correction>
   9.000000E+99

> <Gold.Chemscore.Hbonds>
donor molecule, donor type, donor heavy atom, donor atom, acceptor molecule, acceptor atom, score
      L1  H     9    36       P1 10175  0.42
      L1  H    12    37       P1 10175  0.97
      P1  H  7954  7966       L1    11  0.01

> <Gold.Chemscore.Hbond.Weighted>
-5.7802

> <Gold.Chemscore.Metal.Weighted>
-0.0000

> <Gold.Chemscore.Lipo.Weighted>
-12.1839

> <Gold.Chemscore.Internal_Hbond.Weighted>
0.0000

> <Gold.Chemscore.DEClash.Weighted>
4.6467

> <Gold.Chemscore.DEInternal.Weighted>
2.9883

> <Gold.Chemscore.Rot.Weighted>
2.9741

> <Gold.Chemscore.Internal.Correction.Weighted>
   9.000000E+99

> <Gold.Protein.RotatedTorsions>
[ 6907 6896 6895 6894 ] final   62.87 input  -60.11 | X-H torsion
[ 7974 7965 7964 7962 ] final   58.94 input  175.53 | X-H torsion
[ 8008 7997 7996 7995 ] final -105.79 input   59.86 | X-H torsion
[ 10167 10162 10161 10158 ] final   77.66 input  -65.29 | X-H torsion
[ 10718 10713 10712 10709 ] final -132.23 input   66.30 | X-H torsion
[ 10763 10752 10751 10750 ] final  -60.49 input  -60.55 | X-H torsion
[ 11005 11000 10999 10996 ] final -104.67 input  -57.11 | X-H torsion

> <Gold.Protein.ActiveResidues>
 VAL166  LYS551  ARG553  GLY616  TRP617  ASP618  TYR619  PRO620  LYS621  CYS622 
 ASP623  PHE694  ASN695  SER759  ASP760  ASP761  ALA762  ILE779  LEU786  VAL792 
 PHE793  MET794  SER795  GLU796  ALA797  LYS798  CYS799  TRP800  GLU811  SER814 

> <Gold.Protein.RotatedAtoms>
  152.4207  134.5960  159.9986 H   0  0  0  0  0  0  0  0  0  0  0  0  # atno 6907 bound_to 6896
  151.6110  133.3341  159.3075 H   0  0  0  0  0  0  0  0  0  0  0  0  # atno 6908 bound_to 6896
  150.8095  134.7280  159.6741 H   0  0  0  0  0  0  0  0  0  0  0  0  # atno 6909 bound_to 6896
  145.9126  139.3666  143.0526 H   0  0  0  0  0  0  0  0  0  0  0  0  # atno 7974 bound_to 7965
  154.9050  140.0411  157.1914 H   0  0  0  0  0  0  0  0  0  0  0  0  # atno 8008 bound_to 7997
  154.8405  140.2913  155.5641 H   0  0  0  0  0  0  0  0  0  0  0  0  # atno 8009 bound_to 7997
  156.2992  140.2483  156.3347 H   0  0  0  0  0  0  0  0  0  0  0  0  # atno 8010 bound_to 7997
  139.9792  144.5838  150.7916 H   0  0  0  0  0  0  0  0  0  0  0  0  # atno 10167 bound_to 10162
  156.2325  130.7046  151.0873 H   0  0  0  0  0  0  0  0  0  0  0  0  # atno 10718 bound_to 10713
  154.2699  135.6292  153.5306 H   0  0  0  0  0  0  0  0  0  0  0  0  # atno 10763 bound_to 10752
  152.9882  135.5608  154.5611 H   0  0  0  0  0  0  0  0  0  0  0  0  # atno 10764 bound_to 10752
  154.5179  135.2880  155.1263 H   0  0  0  0  0  0  0  0  0  0  0  0  # atno 10765 bound_to 10752
  141.1089  133.8743  157.1640 H   0  0  0  0  0  0  0  0  0  0  0  0  # atno 11005 bound_to 11000
  145.8652  140.9452  143.0679 LP  0  0  0  0  0  0  0  0  0  0  0  0  # atno 17320 bound_to 7965
  144.6745  140.0582  143.7477 LP  0  0  0  0  0  0  0  0  0  0  0  0  # atno 17321 bound_to 7965
  140.7495  143.2939  151.3255 LP  0  0  0  0  0  0  0  0  0  0  0  0  # atno 17342 bound_to 10162
  139.6422  144.0517  152.2563 LP  0  0  0  0  0  0  0  0  0  0  0  0  # atno 17343 bound_to 10162
  157.7139  131.0720  150.6398 LP  0  0  0  0  0  0  0  0  0  0  0  0  # atno 17370 bound_to 10713
  156.6467  130.4473  149.5733 LP  0  0  0  0  0  0  0  0  0  0  0  0  # atno 17371 bound_to 10713
  139.9973  135.0042  157.0111 LP  0  0  0  0  0  0  0  0  0  0  0  0  # atno 17394 bound_to 11000
  140.4828  134.1272  155.7219 LP  0  0  0  0  0  0  0  0  0  0  0  0  # atno 17395 bound_to 11000

$$$$
