AV-unprocessed.smi:3283|AV-procd|sdf|12569|dock5
  -GOLD-   2272018493D 1   1.00000     0.00000
 Structure written by MMmdl.
 44 45  0  0  0  0  0  0  0  0  2 V2000
  144.7886  142.0917  157.2842 C   0  0  0  0  0  0  0  0  0  0  0  0
  145.6833  142.2368  156.0644 C   0  0  0  0  0  0  0  0  0  0  0  0
  145.3598  143.1203  155.1009 C   0  0  0  0  0  0  0  0  0  0  0  0
  146.1294  143.2959  153.8124 C   0  0  0  0  0  0  0  0  0  0  0  0
  146.9730  142.0566  153.5045 C   0  0  0  0  0  0  0  0  0  0  0  0
  147.8102  141.6304  154.7215 C   0  0  2  0  0  0  0  0  0  0  0  0
  148.7073  140.4386  154.3334 C   0  0  0  0  0  0  0  0  0  0  0  0
  146.9284  141.3303  155.9731 C   0  0  1  0  0  0  0  0  0  0  0  0
  147.7974  141.3726  157.2582 C   0  0  0  0  0  0  0  0  0  0  0  0
  148.9338  142.3093  157.1504 N   0  3  0  0  0  0  0  0  0  0  0  0
  150.1809  141.6973  156.6513 C   0  0  0  0  0  0  0  0  0  0  0  0
  151.2141  141.5173  157.7739 C   0  0  0  0  0  0  0  0  0  0  0  0
  151.6888  142.8093  158.3662 C   0  0  0  0  0  0  0  0  0  0  0  0
  151.4611  144.0909  157.9491 C   0  0  0  0  0  0  0  0  0  0  0  0
  152.1725  144.8931  158.8828 C   0  0  0  0  0  0  0  0  0  0  0  0
  152.7920  144.1716  159.8001 N   0  0  0  0  0  0  0  0  0  0  0  0
  152.4930  142.8919  159.4917 N   0  0  0  0  0  0  0  0  0  0  0  0
  153.0258  141.8295  160.3246 C   0  0  0  0  0  0  0  0  0  0  0  0
  144.5239  141.0462  157.4401 H   0  0  0  0  0  0  0  0  0  0  0  0
  143.8600  142.6504  157.1623 H   0  0  0  0  0  0  0  0  0  0  0  0
  145.2807  142.4728  158.1786 H   0  0  0  0  0  0  0  0  0  0  0  0
  144.4901  143.7511  155.2168 H   0  0  0  0  0  0  0  0  0  0  0  0
  145.4272  143.4751  152.9977 H   0  0  0  0  0  0  0  0  0  0  0  0
  146.7568  144.1836  153.8974 H   0  0  0  0  0  0  0  0  0  0  0  0
  146.3182  141.2359  153.2066 H   0  0  0  0  0  0  0  0  0  0  0  0
  147.6178  142.2622  152.6493 H   0  0  0  0  0  0  0  0  0  0  0  0
  148.4629  142.4711  154.9628 H   0  0  0  0  0  0  0  0  0  0  0  0
  148.1107  139.5588  154.0895 H   0  0  0  0  0  0  0  0  0  0  0  0
  149.3977  140.1588  155.1276 H   0  0  0  0  0  0  0  0  0  0  0  0
  149.3132  140.6758  153.4582 H   0  0  0  0  0  0  0  0  0  0  0  0
  146.5402  140.3173  155.8567 H   0  0  0  0  0  0  0  0  0  0  0  0
  147.2102  141.6858  158.1200 H   0  0  0  0  0  0  0  0  0  0  0  0
  148.1659  140.3715  157.4876 H   0  0  0  0  0  0  0  0  0  0  0  0
  148.6710  143.0566  156.5236 H   0  0  0  0  0  0  0  0  0  0  0  0
  149.9550  140.7327  156.1946 H   0  0  0  0  0  0  0  0  0  0  0  0
  150.5982  142.3323  155.8687 H   0  0  0  0  0  0  0  0  0  0  0  0
  150.7679  140.9141  158.5652 H   0  0  0  0  0  0  0  0  0  0  0  0
  152.0570  140.9323  157.4062 H   0  0  0  0  0  0  0  0  0  0  0  0
  150.8741  144.4091  157.1002 H   0  0  0  0  0  0  0  0  0  0  0  0
  152.2585  145.9692  158.9192 H   0  0  0  0  0  0  0  0  0  0  0  0
  152.2431  141.1076  160.5582 H   0  0  0  0  0  0  0  0  0  0  0  0
  153.4107  142.2345  161.2619 H   0  0  0  0  0  0  0  0  0  0  0  0
  153.8381  141.3258  159.8020 H   0  0  0  0  0  0  0  0  0  0  0  0
  149.1121  142.7025  158.0637 H   0  0  0  0  0  0  0  0  0  0  0  0
  1  2  1  0  0  0  0
  1 19  1  0  0  0  0
  1 20  1  0  0  0  0
  1 21  1  0  0  0  0
  2  8  1  0  0  0  0
  2  3  2  0  0  0  0
  3  4  1  0  0  0  0
  3 22  1  0  0  0  0
  4  5  1  0  0  0  0
  4 23  1  0  0  0  0
  4 24  1  0  0  0  0
  5  6  1  0  0  0  0
  5 25  1  0  0  0  0
  5 26  1  0  0  0  0
  6  7  1  0  0  0  0
  6  8  1  0  0  0  0
  6 27  1  0  0  0  0
  7 28  1  0  0  0  0
  7 29  1  0  0  0  0
  7 30  1  0  0  0  0
  8  9  1  0  0  0  0
  8 31  1  0  0  0  0
  9 10  1  0  0  0  0
  9 32  1  0  0  0  0
  9 33  1  0  0  0  0
 10 11  1  0  0  0  0
 10 34  1  0  0  0  0
 10 44  1  0  0  0  0
 11 12  1  0  0  0  0
 11 35  1  0  0  0  0
 11 36  1  0  0  0  0
 12 13  1  0  0  0  0
 12 37  1  0  0  0  0
 12 38  1  0  0  0  0
 13 17  1  0  0  0  0
 13 14  2  0  0  0  0
 14 15  1  0  0  0  0
 14 39  1  0  0  0  0
 15 16  2  0  0  0  0
 15 40  1  0  0  0  0
 16 17  1  0  0  0  0
 17 18  1  0  0  0  0
 18 41  1  0  0  0  0
 18 42  1  0  0  0  0
 18 43  1  0  0  0  0
M  CHG  1  10   1
M  END
> <s_m_source_file>
AV-unprocessed.smi

> <i_m_source_file_index>
3283

> <i_lp_mmshare_version>
43012

> <i_f3d_flags>
0

> <s_epik_input>
W0NIM11DMT1bQ0hdW0NIMl1bQ0gyXVtDQEBIXShbQ0gzXSlbQ0BIXTFbQ0gyXVtOSF1bQ0gyXVtDSDJdYzJbY0hdW2NIXW5uMltDSDNd

> <s_epik_cmdline>
J2VwaWtfcHl0aG9uJywgJy1waCcsICc3LjAnLCAnLXRuJywgJzgnLCAnLW1hJywgJzIwMCcsICctbWV0YWxfYmluZGluZycsICctaW1hZScsICc8aW5maWxlLm1hZT4nLCAnLW9tYWUnLCAnPG91dGZpbGUubWFlPic=

> <r_lp_tautomer_probability>
1

> <r_epik_Ionization_Penalty>
0.000866911

> <r_epik_Ionization_Penalty_Charging>
0.000836385

> <r_epik_Ionization_Penalty_Neutral>
3.05258e-05

> <r_epik_State_Penalty>
-0

> <r_epik_Charging_Adjusted_Penalty>
0.000836385

> <i_epik_Tot_Q>
1

> <i_epik_Tot_abs_Q>
1

> <r_epik_Metal_State_Penalty>
-0

> <b_epik_Metal_Only>
0

> <s_lp_Force_Field>
OPLS_2005

> <r_lp_Energy>
14.6109

> <b_lp_Chiralities_Consistent>
1

> <s_lp_Variant>
AV-unprocessed.smi:3283-2

> <Gold.Version>
5.8.1

> <Gold.Id.Protein>
6NUR|6NUR_protein|mol2

> <Gold.PLP.Fitness>
44.5750

> <Gold.PLP.PLP>
-40.5875

> <Gold.PLP.part.hbond>
-1.0000

> <Gold.PLP.part.metal>
0.0000

> <Gold.PLP.part.buried>
-5.1571

> <Gold.PLP.part.nonpolar>
-35.0983

> <Gold.PLP.part.repulsive>
0.0400

> <Gold.PLP.ligand.clash>
0.0000

> <Gold.PLP.ligand.torsion>
1.0431

> <Gold.PLP.Chemscore.Hbond>
2.0000

> <Gold.PLP.Chemscore.CHOScore>
0.0000

> <Gold.PLP.Chemscore.Metal>
0.0000

> <Gold.Chemscore.Hbonds>
donor molecule, donor type, donor heavy atom, donor atom, acceptor molecule, acceptor atom, score
      L1  H    10    34       P1  8028  2.00

> <Gold.PLP.Chemscore.Internal.Correction>
0.0737

> <Gold.Rescore>
     Score         DG    S(hbond)    S(metal)    S(lipo)     H(rot)  DE(clash)    DE(int)     intcor
     14.63     -15.74       0.85        0.00      96.01       1.48       0.01       1.11       ----

> <Gold.Chemscore.Fitness>
14.6255

> <Gold.Chemscore.DG>
-15.7429

> <Gold.Chemscore.ZeroCoef>
-5.4800

> <Gold.Chemscore.Hbond>
0.8475

> <Gold.Chemscore.Metal>
0.0000

> <Gold.Chemscore.Lipo>
96.0090

> <Gold.Chemscore.Internal_Hbond>
0.0000

> <Gold.Chemscore.DEClash>
0.0082

> <Gold.Chemscore.DEInternal>
1.1092

> <Gold.Chemscore.Rot>
1.4847

> <Gold.Chemscore.Internal.Correction>
   9.000000E+99

> <Gold.Chemscore.Hbonds>
donor molecule, donor type, donor heavy atom, donor atom, acceptor molecule, acceptor atom, score
      L1  H    10    34       P1  8028  0.89

> <Gold.Chemscore.Hbond.Weighted>
-2.8306

> <Gold.Chemscore.Metal.Weighted>
-0.0000

> <Gold.Chemscore.Lipo.Weighted>
-11.2331

> <Gold.Chemscore.Internal_Hbond.Weighted>
0.0000

> <Gold.Chemscore.DEClash.Weighted>
0.0082

> <Gold.Chemscore.DEInternal.Weighted>
1.1092

> <Gold.Chemscore.Rot.Weighted>
3.8008

> <Gold.Chemscore.Internal.Correction.Weighted>
   9.000000E+99

> <Gold.Protein.RotatedTorsions>
[ 6907 6896 6895 6894 ] final  -36.72 input  -60.11 | X-H torsion
[ 7974 7965 7964 7962 ] final -165.84 input  175.53 | X-H torsion
[ 8008 7997 7996 7995 ] final -156.01 input   59.86 | X-H torsion
[ 10167 10162 10161 10158 ] final -151.37 input  -65.29 | X-H torsion
[ 10718 10713 10712 10709 ] final  -26.45 input   66.30 | X-H torsion
[ 10763 10752 10751 10750 ] final  -94.80 input  -60.55 | X-H torsion
[ 11005 11000 10999 10996 ] final  -76.23 input  -57.11 | X-H torsion

> <Gold.Protein.ActiveResidues>
 VAL166  LYS551  ARG553  GLY616  TRP617  ASP618  TYR619  PRO620  LYS621  CYS622 
 ASP623  PHE694  ASN695  SER759  ASP760  ASP761  ALA762  ILE779  LEU786  VAL792 
 PHE793  MET794  SER795  GLU796  ALA797  LYS798  CYS799  TRP800  GLU811  SER814 

> <Gold.Protein.RotatedAtoms>
  151.0237  134.9488  159.8073 H   0  0  0  0  0  0  0  0  0  0  0  0  # atno 6907 bound_to 6896
  152.5331  134.2870  159.9039 H   0  0  0  0  0  0  0  0  0  0  0  0  # atno 6908 bound_to 6896
  151.2878  133.4137  159.2665 H   0  0  0  0  0  0  0  0  0  0  0  0  # atno 6909 bound_to 6896
  144.7260  140.2754  143.6244 H   0  0  0  0  0  0  0  0  0  0  0  0  # atno 7974 bound_to 7965
  155.7106  140.0778  157.2373 H   0  0  0  0  0  0  0  0  0  0  0  0  # atno 8008 bound_to 7997
  154.4059  140.1631  156.2345 H   0  0  0  0  0  0  0  0  0  0  0  0  # atno 8009 bound_to 7997
  155.9286  140.3393  155.6234 H   0  0  0  0  0  0  0  0  0  0  0  0  # atno 8010 bound_to 7997
  139.7273  143.8863  152.2523 H   0  0  0  0  0  0  0  0  0  0  0  0  # atno 10167 bound_to 10162
  156.4511  130.4484  149.6989 H   0  0  0  0  0  0  0  0  0  0  0  0  # atno 10718 bound_to 10713
  154.7089  135.5144  153.8636 H   0  0  0  0  0  0  0  0  0  0  0  0  # atno 10763 bound_to 10752
  153.0764  135.6617  154.0146 H   0  0  0  0  0  0  0  0  0  0  0  0  # atno 10764 bound_to 10752
  153.9992  135.3012  155.3384 H   0  0  0  0  0  0  0  0  0  0  0  0  # atno 10765 bound_to 10752
  141.1652  133.6976  156.7638 H   0  0  0  0  0  0  0  0  0  0  0  0  # atno 11005 bound_to 11000
  145.8001  139.1961  143.2053 LP  0  0  0  0  0  0  0  0  0  0  0  0  # atno 17320 bound_to 7965
  146.0683  140.7896  142.9700 LP  0  0  0  0  0  0  0  0  0  0  0  0  # atno 17321 bound_to 7965
  139.8776  144.7035  150.8915 LP  0  0  0  0  0  0  0  0  0  0  0  0  # atno 17342 bound_to 10162
  140.7765  143.3687  151.1690 LP  0  0  0  0  0  0  0  0  0  0  0  0  # atno 17343 bound_to 10162
  156.3815  130.7581  151.2575 LP  0  0  0  0  0  0  0  0  0  0  0  0  # atno 17370 bound_to 10713
  157.7503  131.0294  150.4091 LP  0  0  0  0  0  0  0  0  0  0  0  0  # atno 17371 bound_to 10713
  140.2514  134.8537  157.3671 LP  0  0  0  0  0  0  0  0  0  0  0  0  # atno 17394 bound_to 11000
  140.1699  134.4622  155.7839 LP  0  0  0  0  0  0  0  0  0  0  0  0  # atno 17395 bound_to 11000

$$$$
