AV-unprocessed.smi:418|AV-procd|sdf|2529|dock7
  -GOLD-   2262022483D 1   1.00000     0.00000
 Structure written by MMmdl.
 40 42  0  0  0  0  0  0  0  0  1 V2000
  154.4138  141.2025  161.1040 C   0  0  0  0  0  0  0  0  0  0  0  0
  153.4310  141.1953  160.0272 N   0  0  0  0  0  0  0  0  0  0  0  0
  153.0537  140.1344  159.2757 C   0  0  0  0  0  0  0  0  0  0  0  0
  153.4858  138.9861  159.3747 O   0  0  0  0  0  0  0  0  0  0  0  0
  152.1205  140.5588  158.3912 N   0  0  0  0  0  0  0  0  0  0  0  0
  151.4561  139.7481  157.3730 C   0  0  0  0  0  0  0  0  0  0  0  0
  151.3428  140.4992  156.0312 C   0  0  1  0  0  0  0  0  0  0  0  0
  152.3735  140.1002  155.1510 O   0  0  0  0  0  0  0  0  0  0  0  0
  149.9999  140.2634  155.3201 C   0  0  0  0  0  0  0  0  0  0  0  0
  148.9278  140.5098  156.2221 O   0  0  0  0  0  0  0  0  0  0  0  0
  147.8188  141.1831  155.7559 C   0  0  0  0  0  0  0  0  0  0  0  0
  147.6117  141.5305  154.3965 C   0  0  0  0  0  0  0  0  0  0  0  0
  146.4482  142.2220  154.0064 C   0  0  0  0  0  0  0  0  0  0  0  0
  145.4799  142.5738  154.9648 C   0  0  0  0  0  0  0  0  0  0  0  0
  145.6763  142.2323  156.3155 C   0  0  0  0  0  0  0  0  0  0  0  0
  146.8393  141.5412  156.7069 C   0  0  0  0  0  0  0  0  0  0  0  0
  147.0163  141.2190  158.0107 F   0  0  0  0  0  0  0  0  0  0  0  0
  151.9059  141.9327  158.5731 C   0  0  0  0  0  0  0  0  0  0  0  0
  151.0577  142.8340  157.9063 C   0  0  0  0  0  0  0  0  0  0  0  0
  151.0813  144.1816  158.3364 C   0  0  0  0  0  0  0  0  0  0  0  0
  151.9314  144.5923  159.3964 C   0  0  0  0  0  0  0  0  0  0  0  0
  152.7763  143.6640  160.0491 C   0  0  0  0  0  0  0  0  0  0  0  0
  152.7314  142.3320  159.6026 C   0  0  0  0  0  0  0  0  0  0  0  0
  154.7423  140.1958  161.3652 H   0  0  0  0  0  0  0  0  0  0  0  0
  153.9906  141.6585  161.9993 H   0  0  0  0  0  0  0  0  0  0  0  0
  155.2908  141.7787  160.8078 H   0  0  0  0  0  0  0  0  0  0  0  0
  151.9632  138.7900  157.2438 H   0  0  0  0  0  0  0  0  0  0  0  0
  150.4591  139.5056  157.7431 H   0  0  0  0  0  0  0  0  0  0  0  0
  151.4510  141.5722  156.1947 H   0  0  0  0  0  0  0  0  0  0  0  0
  152.0299  139.4390  154.5692 H   0  0  0  0  0  0  0  0  0  0  0  0
  149.9244  140.9556  154.4802 H   0  0  0  0  0  0  0  0  0  0  0  0
  149.9535  139.2492  154.9191 H   0  0  0  0  0  0  0  0  0  0  0  0
  148.3308  141.2780  153.6323 H   0  0  0  0  0  0  0  0  0  0  0  0
  146.2990  142.4831  152.9691 H   0  0  0  0  0  0  0  0  0  0  0  0
  144.5882  143.1043  154.6646 H   0  0  0  0  0  0  0  0  0  0  0  0
  144.9346  142.5006  157.0533 H   0  0  0  0  0  0  0  0  0  0  0  0
  150.4152  142.5159  157.0985 H   0  0  0  0  0  0  0  0  0  0  0  0
  150.4453  144.9075  157.8515 H   0  0  0  0  0  0  0  0  0  0  0  0
  151.9344  145.6265  159.7076 H   0  0  0  0  0  0  0  0  0  0  0  0
  153.4275  143.9688  160.8550 H   0  0  0  0  0  0  0  0  0  0  0  0
  1  2  1  0  0  0  0
  1 24  1  0  0  0  0
  1 25  1  0  0  0  0
  1 26  1  0  0  0  0
  2 23  1  0  0  0  0
  2  3  1  0  0  0  0
  3  4  2  0  0  0  0
  3  5  1  0  0  0  0
  5  6  1  0  0  0  0
  5 18  1  0  0  0  0
  6  7  1  0  0  0  0
  6 27  1  0  0  0  0
  6 28  1  0  0  0  0
  7  8  1  0  0  0  0
  7  9  1  0  0  0  0
  7 29  1  0  0  0  0
  8 30  1  0  0  0  0
  9 10  1  0  0  0  0
  9 31  1  0  0  0  0
  9 32  1  0  0  0  0
 10 11  1  0  0  0  0
 11 16  1  0  0  0  0
 11 12  2  0  0  0  0
 12 13  1  0  0  0  0
 12 33  1  0  0  0  0
 13 14  2  0  0  0  0
 13 34  1  0  0  0  0
 14 15  1  0  0  0  0
 14 35  1  0  0  0  0
 15 16  2  0  0  0  0
 15 36  1  0  0  0  0
 16 17  1  0  0  0  0
 18 23  2  0  0  0  0
 18 19  1  0  0  0  0
 19 20  2  0  0  0  0
 19 37  1  0  0  0  0
 20 21  1  0  0  0  0
 20 38  1  0  0  0  0
 21 22  2  0  0  0  0
 21 39  1  0  0  0  0
 22 23  1  0  0  0  0
 22 40  1  0  0  0  0
M  END
> <s_m_source_file>
AV-unprocessed.smi

> <i_m_source_file_index>
418

> <i_lp_mmshare_version>
43012

> <i_f3d_flags>
0

> <s_epik_input>
W2NIXTFbY0hdW2NIXVtjSF1jKGMxMiluKFtDSDNdKWMoPU8pbjJbQ0gyXVtDQEhdKFtPSF0pW0NIMl1PYzNbY0hdW2NIXVtjSF1bY0hdYzNG

> <s_epik_cmdline>
J2VwaWtfcHl0aG9uJywgJy1waCcsICc3LjAnLCAnLXRuJywgJzgnLCAnLW1hJywgJzIwMCcsICctbWV0YWxfYmluZGluZycsICctaW1hZScsICc8aW5maWxlLm1hZT4nLCAnLW9tYWUnLCAnPG91dGZpbGUubWFlPic=

> <r_lp_tautomer_probability>
1

> <r_epik_Ionization_Penalty>
2.40171e-06

> <r_epik_Ionization_Penalty_Charging>
2.41238e-09

> <r_epik_Ionization_Penalty_Neutral>
2.3993e-06

> <r_epik_State_Penalty>
-0

> <r_epik_Charging_Adjusted_Penalty>
2.41238e-09

> <i_epik_Tot_Q>
0

> <i_epik_Tot_abs_Q>
0

> <r_epik_Metal_State_Penalty>
-0

> <b_epik_Metal_Only>
0

> <s_lp_Force_Field>
OPLS_2005

> <r_lp_Energy>
48.5553

> <b_lp_Chiralities_Consistent>
1

> <s_lp_Variant>
AV-unprocessed.smi:418-2

> <Gold.Version>
5.8.1

> <Gold.Id.Protein>
6NUR|6NUR_protein|mol2

> <Gold.PLP.Fitness>
53.8665

> <Gold.PLP.PLP>
-53.1884

> <Gold.PLP.part.hbond>
-2.0000

> <Gold.PLP.part.metal>
0.0000

> <Gold.PLP.part.buried>
-5.9546

> <Gold.PLP.part.nonpolar>
-45.2393

> <Gold.PLP.part.repulsive>
0.0481

> <Gold.PLP.ligand.clash>
0.0000

> <Gold.PLP.ligand.torsion>
1.1688

> <Gold.PLP.Chemscore.Hbond>
0.9913

> <Gold.PLP.Chemscore.CHOScore>
0.0000

> <Gold.PLP.Chemscore.Metal>
0.0000

> <Gold.Chemscore.Hbonds>
donor molecule, donor type, donor heavy atom, donor atom, acceptor molecule, acceptor atom, score
      P1  H  7997  8009       L1     8  0.59

> <Gold.PLP.Chemscore.Internal.Correction>
0.0421

> <Gold.Rescore>
     Score         DG    S(hbond)    S(metal)    S(lipo)     H(rot)  DE(clash)    DE(int)     intcor
     16.10     -17.27       0.91        0.00     124.62       2.27       0.20       0.97       ----

> <Gold.Chemscore.Fitness>
16.1049

> <Gold.Chemscore.DG>
-17.2743

> <Gold.Chemscore.ZeroCoef>
-5.4800

> <Gold.Chemscore.Hbond>
0.9062

> <Gold.Chemscore.Metal>
0.0000

> <Gold.Chemscore.Lipo>
124.6186

> <Gold.Chemscore.Internal_Hbond>
0.0000

> <Gold.Chemscore.DEClash>
0.1967

> <Gold.Chemscore.DEInternal>
0.9727

> <Gold.Chemscore.Rot>
2.2706

> <Gold.Chemscore.Internal.Correction>
   9.000000E+99

> <Gold.Chemscore.Hbonds>
donor molecule, donor type, donor heavy atom, donor atom, acceptor molecule, acceptor atom, score
      P1  H  7997  8009       L1     8  0.50

> <Gold.Chemscore.Hbond.Weighted>
-3.0267

> <Gold.Chemscore.Metal.Weighted>
-0.0000

> <Gold.Chemscore.Lipo.Weighted>
-14.5804

> <Gold.Chemscore.Internal_Hbond.Weighted>
0.0000

> <Gold.Chemscore.DEClash.Weighted>
0.1967

> <Gold.Chemscore.DEInternal.Weighted>
0.9727

> <Gold.Chemscore.Rot.Weighted>
5.8128

> <Gold.Chemscore.Internal.Correction.Weighted>
   9.000000E+99

> <Gold.Protein.RotatedTorsions>
[ 6907 6896 6895 6894 ] final  117.45 input  -60.11 | X-H torsion
[ 7974 7965 7964 7962 ] final   34.12 input  175.53 | X-H torsion
[ 8008 7997 7996 7995 ] final -147.09 input   59.86 | X-H torsion
[ 10167 10162 10161 10158 ] final  -33.89 input  -65.29 | X-H torsion
[ 10718 10713 10712 10709 ] final   61.65 input   66.30 | X-H torsion
[ 10763 10752 10751 10750 ] final   53.42 input  -60.55 | X-H torsion
[ 11005 11000 10999 10996 ] final    1.40 input  -57.11 | X-H torsion

> <Gold.Protein.ActiveResidues>
 VAL166  LYS551  ARG553  GLY616  TRP617  ASP618  TYR619  PRO620  LYS621  CYS622 
 ASP623  PHE694  ASN695  SER759  ASP760  ASP761  ALA762  ILE779  LEU786  VAL792 
 PHE793  MET794  SER795  GLU796  ALA797  LYS798  CYS799  TRP800  GLU811  SER814 

> <Gold.Protein.RotatedAtoms>
  152.4611  133.7824  159.6857 H   0  0  0  0  0  0  0  0  0  0  0  0  # atno 6907 bound_to 6896
  150.8555  133.7711  159.3016 H   0  0  0  0  0  0  0  0  0  0  0  0  # atno 6908 bound_to 6896
  151.5293  135.1071  159.9950 H   0  0  0  0  0  0  0  0  0  0  0  0  # atno 6909 bound_to 6896
  146.1374  139.6309  142.9186 H   0  0  0  0  0  0  0  0  0  0  0  0  # atno 7974 bound_to 7965
  155.5699  140.0633  157.2809 H   0  0  0  0  0  0  0  0  0  0  0  0  # atno 8008 bound_to 7997
  154.4364  140.1870  156.0915 H   0  0  0  0  0  0  0  0  0  0  0  0  # atno 8009 bound_to 7997
  156.0384  140.3298  155.7220 H   0  0  0  0  0  0  0  0  0  0  0  0  # atno 8010 bound_to 7997
  140.7196  143.3587  151.2006 H   0  0  0  0  0  0  0  0  0  0  0  0  # atno 10167 bound_to 10162
  157.5844  130.9007  149.9488 H   0  0  0  0  0  0  0  0  0  0  0  0  # atno 10718 bound_to 10713
  152.9795  135.5779  154.4738 H   0  0  0  0  0  0  0  0  0  0  0  0  # atno 10763 bound_to 10752
  154.4297  135.2773  155.1923 H   0  0  0  0  0  0  0  0  0  0  0  0  # atno 10764 bound_to 10752
  154.3636  135.6183  153.5757 H   0  0  0  0  0  0  0  0  0  0  0  0  # atno 10765 bound_to 10752
  140.6159  133.9706  155.8200 H   0  0  0  0  0  0  0  0  0  0  0  0  # atno 11005 bound_to 11000
  145.5124  141.0435  143.2480 LP  0  0  0  0  0  0  0  0  0  0  0  0  # atno 17320 bound_to 7965
  144.7755  139.6640  143.7177 LP  0  0  0  0  0  0  0  0  0  0  0  0  # atno 17321 bound_to 7965
  139.7134  143.9339  152.2957 LP  0  0  0  0  0  0  0  0  0  0  0  0  # atno 17342 bound_to 10162
  139.9072  144.6878  150.8601 LP  0  0  0  0  0  0  0  0  0  0  0  0  # atno 17343 bound_to 10162
  156.0892  130.3665  150.0428 LP  0  0  0  0  0  0  0  0  0  0  0  0  # atno 17370 bound_to 10713
  156.8562  130.9476  151.3621 LP  0  0  0  0  0  0  0  0  0  0  0  0  # atno 17371 bound_to 10713
  141.0776  134.0111  157.3434 LP  0  0  0  0  0  0  0  0  0  0  0  0  # atno 17394 bound_to 11000
  139.9173  135.0198  156.7930 LP  0  0  0  0  0  0  0  0  0  0  0  0  # atno 17395 bound_to 11000

$$$$
