AV-unprocessed.smi:742|AV-procd|sdf|3558|dock10
  -GOLD-   22720 0553D 1   1.00000     0.00000
 Structure written by MMmdl.
 25 25  0  0  0  0  0  0  0  0  2 V2000
  147.5294  138.7041  151.8819 N   0  3  0  0  0  0  0  0  0  0  0  0
  147.1622  139.0931  153.2533 C   0  0  0  0  0  0  0  0  0  0  0  0
  148.4044  139.4535  154.0811 C   0  0  0  0  0  0  0  0  0  0  0  0
  149.5057  138.5354  153.7894 N   0  0  0  0  0  0  0  0  0  0  0  0
  150.8608  138.3672  154.8481 S   0  0  0  0  0  0  0  0  0  0  0  0
  151.6244  137.1833  154.4235 O   0  0  0  0  0  0  0  0  0  0  0  0
  151.5087  139.6852  154.9206 O   0  0  0  0  0  0  0  0  0  0  0  0
  150.0588  138.0358  156.4798 C   0  0  0  0  0  0  0  0  0  0  0  0
  151.0902  137.7656  157.5394 C   0  0  0  0  0  0  0  0  0  0  0  0
  152.1255  138.6261  158.0000 C   0  0  0  0  0  0  0  0  0  0  0  0
  152.7614  137.8800  158.9501 C   0  0  0  0  0  0  0  0  0  0  0  0
  152.1753  136.6623  159.0684 O   0  0  0  0  0  0  0  0  0  0  0  0
  151.1131  136.5963  158.1597 N   0  0  0  0  0  0  0  0  0  0  0  0
  148.2665  139.3080  151.5471 H   0  0  0  0  0  0  0  0  0  0  0  0
  146.7242  138.7898  151.2783 H   0  0  0  0  0  0  0  0  0  0  0  0
  146.4748  139.9370  153.1945 H   0  0  0  0  0  0  0  0  0  0  0  0
  146.6195  138.2705  153.7201 H   0  0  0  0  0  0  0  0  0  0  0  0
  148.7275  140.4705  153.8573 H   0  0  0  0  0  0  0  0  0  0  0  0
  148.1791  139.4170  155.1473 H   0  0  0  0  0  0  0  0  0  0  0  0
  149.2915  137.7198  153.2155 H   0  0  0  0  0  0  0  0  0  0  0  0
  149.4623  138.9103  156.7416 H   0  0  0  0  0  0  0  0  0  0  0  0
  149.3726  137.1969  156.3657 H   0  0  0  0  0  0  0  0  0  0  0  0
  152.3630  139.6311  157.6841 H   0  0  0  0  0  0  0  0  0  0  0  0
  153.6061  138.0654  159.5970 H   0  0  0  0  0  0  0  0  0  0  0  0
  147.8533  137.7472  151.8792 H   0  0  0  0  0  0  0  0  0  0  0  0
  1  2  1  0  0  0  0
  1 14  1  0  0  0  0
  1 15  1  0  0  0  0
  1 25  1  0  0  0  0
  2  3  1  0  0  0  0
  2 16  1  0  0  0  0
  2 17  1  0  0  0  0
  3  4  1  0  0  0  0
  3 18  1  0  0  0  0
  3 19  1  0  0  0  0
  4  5  1  0  0  0  0
  4 20  1  0  0  0  0
  5  6  2  0  0  0  0
  5  7  2  0  0  0  0
  5  8  1  0  0  0  0
  8  9  1  0  0  0  0
  8 21  1  0  0  0  0
  8 22  1  0  0  0  0
  9 13  2  0  0  0  0
  9 10  1  0  0  0  0
 10 11  2  0  0  0  0
 10 23  1  0  0  0  0
 11 12  1  0  0  0  0
 11 24  1  0  0  0  0
 12 13  1  0  0  0  0
M  CHG  1   1   1
M  END
> <s_m_source_file>
AV-unprocessed.smi

> <i_m_source_file_index>
742

> <i_lp_mmshare_version>
43012

> <i_f3d_flags>
0

> <s_epik_input>
W05IMl1bQ0gyXVtDSDJdW05IXVMoPU8pKD1PKVtDSDJdYzFbY0hdW2NIXW9uMQ==

> <s_epik_cmdline>
J2VwaWtfcHl0aG9uJywgJy1waCcsICc3LjAnLCAnLXRuJywgJzgnLCAnLW1hJywgJzIwMCcsICctbWV0YWxfYmluZGluZycsICctaW1hZScsICc8aW5maWxlLm1hZT4nLCAnLW9tYWUnLCAnPG91dGZpbGUubWFlPic=

> <r_lp_tautomer_probability>
1

> <r_epik_Ionization_Penalty>
0.00734165

> <r_epik_Ionization_Penalty_Charging>
0.00580839

> <r_epik_Ionization_Penalty_Neutral>
0.00153326

> <r_epik_State_Penalty>
-0

> <r_epik_Charging_Adjusted_Penalty>
0.00580839

> <i_epik_Tot_Q>
1

> <i_epik_Tot_abs_Q>
1

> <r_epik_Metal_State_Penalty>
0.322493

> <b_epik_Metal_Only>
0

> <s_lp_Force_Field>
OPLS_2005

> <r_lp_Energy>
-3.29025

> <b_lp_Chiralities_Consistent>
1

> <s_lp_Variant>
AV-unprocessed.smi:742-1

> <Gold.Version>
5.8.1

> <Gold.Id.Protein>
6NUR|6NUR_protein|mol2

> <Gold.PLP.Fitness>
39.1895

> <Gold.PLP.PLP>
-19.1953

> <Gold.PLP.part.hbond>
-7.8440

> <Gold.PLP.part.metal>
0.0000

> <Gold.PLP.part.buried>
-5.1167

> <Gold.PLP.part.nonpolar>
-7.6322

> <Gold.PLP.part.repulsive>
0.3799

> <Gold.PLP.ligand.clash>
0.0000

> <Gold.PLP.ligand.torsion>
0.8245

> <Gold.PLP.Chemscore.Hbond>
6.8480

> <Gold.PLP.Chemscore.CHOScore>
0.0000

> <Gold.PLP.Chemscore.Metal>
0.0000

> <Gold.Chemscore.Hbonds>
donor molecule, donor type, donor heavy atom, donor atom, acceptor molecule, acceptor atom, score
      L1  H     1    14       P1  7957  1.00
      L1  H     1    25       P1  7948  2.00
      L1  H     4    20       P1  7948  1.00
      P1  H  6896  6908       L1    12  0.83
      P1  H  7989  7998       L1     7  1.00
      P1  H 10752 10765       L1     6  1.00

> <Gold.PLP.Chemscore.Internal.Correction>
1.0992

> <Gold.Rescore>
     Score         DG    S(hbond)    S(metal)    S(lipo)     H(rot)  DE(clash)    DE(int)     intcor
     20.03     -21.01       5.43        0.00      27.59       2.28       0.06       0.92       ----

> <Gold.Chemscore.Fitness>
20.0347

> <Gold.Chemscore.DG>
-21.0057

> <Gold.Chemscore.ZeroCoef>
-5.4800

> <Gold.Chemscore.Hbond>
5.4292

> <Gold.Chemscore.Metal>
0.0000

> <Gold.Chemscore.Lipo>
27.5925

> <Gold.Chemscore.Internal_Hbond>
0.0000

> <Gold.Chemscore.DEClash>
0.0551

> <Gold.Chemscore.DEInternal>
0.9159

> <Gold.Chemscore.Rot>
2.2798

> <Gold.Chemscore.Internal.Correction>
   9.000000E+99

> <Gold.Chemscore.Hbonds>
donor molecule, donor type, donor heavy atom, donor atom, acceptor molecule, acceptor atom, score
      L1  H     1    14       P1  7957  0.88
      L1  H     1    25       P1  7948  1.00
      L1  H     4    20       P1  7948  0.93
      P1  H  6896  6908       L1    12  0.28
      P1  H  7989  7998       L1     7  0.99
      P1  H 10752 10765       L1     6  0.93

> <Gold.Chemscore.Hbond.Weighted>
-18.1336

> <Gold.Chemscore.Metal.Weighted>
-0.0000

> <Gold.Chemscore.Lipo.Weighted>
-3.2283

> <Gold.Chemscore.Internal_Hbond.Weighted>
0.0000

> <Gold.Chemscore.DEClash.Weighted>
0.0551

> <Gold.Chemscore.DEInternal.Weighted>
0.9159

> <Gold.Chemscore.Rot.Weighted>
5.8362

> <Gold.Chemscore.Internal.Correction.Weighted>
   9.000000E+99

> <Gold.Protein.RotatedTorsions>
[ 6907 6896 6895 6894 ] final  -96.88 input  -60.11 | X-H torsion
[ 7974 7965 7964 7962 ] final  -78.72 input  175.53 | X-H torsion
[ 8008 7997 7996 7995 ] final  -32.93 input   59.86 | X-H torsion
[ 10167 10162 10161 10158 ] final  171.29 input  -65.29 | X-H torsion
[ 10718 10713 10712 10709 ] final  -22.11 input   66.30 | X-H torsion
[ 10763 10752 10751 10750 ] final  158.47 input  -60.55 | X-H torsion
[ 11005 11000 10999 10996 ] final -155.28 input  -57.11 | X-H torsion

> <Gold.Protein.ActiveResidues>
 VAL166  LYS551  ARG553  GLY616  TRP617  ASP618  TYR619  PRO620  LYS621  CYS622 
 ASP623  PHE694  ASN695  SER759  ASP760  ASP761  ALA762  ILE779  LEU786  VAL792 
 PHE793  MET794  SER795  GLU796  ALA797  LYS798  CYS799  TRP800  GLU811  SER814 

> <Gold.Protein.RotatedAtoms>
  150.7001  134.1434  159.4113 H   0  0  0  0  0  0  0  0  0  0  0  0  # atno 6907 bound_to 6896
  151.9419  135.0207  160.0545 H   0  0  0  0  0  0  0  0  0  0  0  0  # atno 6908 bound_to 6896
  152.2087  133.4859  159.5135 H   0  0  0  0  0  0  0  0  0  0  0  0  # atno 6909 bound_to 6896
  145.5828  140.9445  143.1335 H   0  0  0  0  0  0  0  0  0  0  0  0  # atno 7974 bound_to 7965
  154.4164  140.1724  156.1806 H   0  0  0  0  0  0  0  0  0  0  0  0  # atno 8008 bound_to 7997
  155.9685  140.3387  155.6530 H   0  0  0  0  0  0  0  0  0  0  0  0  # atno 8009 bound_to 7997
  155.6656  140.0706  157.2529 H   0  0  0  0  0  0  0  0  0  0  0  0  # atno 8010 bound_to 7997
  139.5042  144.3502  151.9930 H   0  0  0  0  0  0  0  0  0  0  0  0  # atno 10167 bound_to 10162
  156.5090  130.4605  149.6659 H   0  0  0  0  0  0  0  0  0  0  0  0  # atno 10718 bound_to 10713
  154.2166  135.2784  155.2939 H   0  0  0  0  0  0  0  0  0  0  0  0  # atno 10763 bound_to 10752
  154.5735  135.5611  153.7121 H   0  0  0  0  0  0  0  0  0  0  0  0  # atno 10764 bound_to 10752
  153.0051  135.6327  154.2306 H   0  0  0  0  0  0  0  0  0  0  0  0  # atno 10765 bound_to 10752
  140.6882  134.4070  157.5221 H   0  0  0  0  0  0  0  0  0  0  0  0  # atno 11005 bound_to 11000
  144.7386  139.7513  143.7319 LP  0  0  0  0  0  0  0  0  0  0  0  0  # atno 17320 bound_to 7965
  146.1704  139.4852  142.9931 LP  0  0  0  0  0  0  0  0  0  0  0  0  # atno 17321 bound_to 7965
  140.2939  144.3723  150.6080 LP  0  0  0  0  0  0  0  0  0  0  0  0  # atno 17342 bound_to 10162
  140.5925  143.2167  151.7225 LP  0  0  0  0  0  0  0  0  0  0  0  0  # atno 17343 bound_to 10162
  156.3259  130.7305  151.2226 LP  0  0  0  0  0  0  0  0  0  0  0  0  # atno 17370 bound_to 10713
  157.7453  131.0443  150.4786 LP  0  0  0  0  0  0  0  0  0  0  0  0  # atno 17371 bound_to 10713
  139.8931  134.8738  156.2238 LP  0  0  0  0  0  0  0  0  0  0  0  0  # atno 17394 bound_to 11000
  141.0263  133.7013  156.1353 LP  0  0  0  0  0  0  0  0  0  0  0  0  # atno 17395 bound_to 11000

$$$$
