AV-unprocessed.smi:2751|AV-procd|sdf|10595|dock10
  -GOLD-   2272015 43D 1   1.00000     0.00000
 Structure written by MMmdl.
 34 35  0  0  0  0  0  0  0  0  1 V2000
  141.4502  136.3115  152.5363 O   0  0  0  0  0  0  0  0  0  0  0  0
  141.9960  137.4153  152.5200 C   0  0  0  0  0  0  0  0  0  0  0  0
  143.3249  137.5829  152.4561 N   0  0  0  0  0  0  0  0  0  0  0  0
  144.3018  136.5026  152.3830 C   0  0  0  0  0  0  0  0  0  0  0  0
  144.2901  135.8182  151.0053 C   0  0  0  0  0  0  0  0  0  0  0  0
  144.6417  134.3241  151.0807 C   0  0  2  0  0  0  0  0  0  0  0  0
  146.0950  134.0954  151.5397 C   0  0  0  0  0  0  0  0  0  0  0  0
  146.4316  132.6000  151.5357 C   0  0  0  0  0  0  0  0  0  0  0  0
  146.1055  132.0004  150.1638 C   0  0  0  0  0  0  0  0  0  0  0  0
  144.6603  132.3379  149.7640 C   0  0  0  0  0  0  0  0  0  0  0  0
  144.4676  133.7491  149.7868 O   0  0  0  0  0  0  0  0  0  0  0  0
  141.3561  138.5960  152.5620 N   0  0  0  0  0  0  0  0  0  0  0  0
  139.9571  138.8178  152.6201 C   0  0  0  0  0  0  0  0  0  0  0  0
  139.3450  139.9829  152.8378 N   0  0  0  0  0  0  0  0  0  0  0  0
  137.9919  139.6786  152.8042 C   0  0  0  0  0  0  0  0  0  0  0  0
  137.8613  138.3346  152.5658 C   0  0  0  0  0  0  0  0  0  0  0  0
  139.1044  137.7735  152.4450 O   0  0  0  0  0  0  0  0  0  0  0  0
  143.6882  138.5250  152.4501 H   0  0  0  0  0  0  0  0  0  0  0  0
  145.2985  136.8822  152.6140 H   0  0  0  0  0  0  0  0  0  0  0  0
  144.0593  135.7790  153.1616 H   0  0  0  0  0  0  0  0  0  0  0  0
  143.3119  135.9422  150.5384 H   0  0  0  0  0  0  0  0  0  0  0  0
  145.0070  136.3173  150.3519 H   0  0  0  0  0  0  0  0  0  0  0  0
  143.9612  133.8396  151.7835 H   0  0  0  0  0  0  0  0  0  0  0  0
  146.7792  134.6249  150.8753 H   0  0  0  0  0  0  0  0  0  0  0  0
  146.2464  134.5074  152.5380 H   0  0  0  0  0  0  0  0  0  0  0  0
  147.4828  132.4447  151.7800 H   0  0  0  0  0  0  0  0  0  0  0  0
  145.8507  132.0914  152.3062 H   0  0  0  0  0  0  0  0  0  0  0  0
  146.7924  132.3998  149.4165 H   0  0  0  0  0  0  0  0  0  0  0  0
  146.2517  130.9201  150.1787 H   0  0  0  0  0  0  0  0  0  0  0  0
  144.4538  131.9703  148.7589 H   0  0  0  0  0  0  0  0  0  0  0  0
  143.9477  131.8526  150.4326 H   0  0  0  0  0  0  0  0  0  0  0  0
  141.9299  139.4259  152.5406 H   0  0  0  0  0  0  0  0  0  0  0  0
  137.2352  140.4349  152.9523 H   0  0  0  0  0  0  0  0  0  0  0  0
  137.0164  137.6702  152.4608 H   0  0  0  0  0  0  0  0  0  0  0  0
  1  2  2  0  0  0  0
  2  3  1  0  0  0  0
  2 12  1  0  0  0  0
  3  4  1  0  0  0  0
  3 18  1  0  0  0  0
  4  5  1  0  0  0  0
  4 19  1  0  0  0  0
  4 20  1  0  0  0  0
  5  6  1  0  0  0  0
  5 21  1  0  0  0  0
  5 22  1  0  0  0  0
  6 11  1  0  0  0  0
  6  7  1  0  0  0  0
  6 23  1  0  0  0  0
  7  8  1  0  0  0  0
  7 24  1  0  0  0  0
  7 25  1  0  0  0  0
  8  9  1  0  0  0  0
  8 26  1  0  0  0  0
  8 27  1  0  0  0  0
  9 10  1  0  0  0  0
  9 28  1  0  0  0  0
  9 29  1  0  0  0  0
 10 11  1  0  0  0  0
 10 30  1  0  0  0  0
 10 31  1  0  0  0  0
 12 13  1  0  0  0  0
 12 32  1  0  0  0  0
 13 17  1  0  0  0  0
 13 14  2  0  0  0  0
 14 15  1  0  0  0  0
 15 16  2  0  0  0  0
 15 33  1  0  0  0  0
 16 17  1  0  0  0  0
 16 34  1  0  0  0  0
M  END
> <s_m_source_file>
AV-unprocessed.smi

> <i_m_source_file_index>
2751

> <i_lp_mmshare_version>
43012

> <i_f3d_flags>
0

> <s_epik_input>
bzFbY0hdW2NIXW5jMVtOSF1DKD1PKVtOSF1bQ0gyXVtDSDJdW0NAQEhdMltDSDJdW0NIMl1bQ0gyXVtDSDJdTzI=

> <s_epik_cmdline>
J2VwaWtfcHl0aG9uJywgJy1waCcsICc3LjAnLCAnLXRuJywgJzgnLCAnLW1hJywgJzIwMCcsICctbWV0YWxfYmluZGluZycsICctaW1hZScsICc8aW5maWxlLm1hZT4nLCAnLW9tYWUnLCAnPG91dGZpbGUubWFlPic=

> <r_lp_tautomer_probability>
0.785861

> <r_epik_Ionization_Penalty>
4.88827e-05

> <r_epik_Ionization_Penalty_Charging>
0

> <r_epik_Ionization_Penalty_Neutral>
4.88827e-05

> <r_epik_State_Penalty>
0.0434822

> <r_epik_Charging_Adjusted_Penalty>
0.0434822

> <i_epik_Tot_Q>
0

> <i_epik_Tot_abs_Q>
0

> <r_epik_Metal_State_Penalty>
0.0598982

> <b_epik_Metal_Only>
0

> <s_lp_Force_Field>
OPLS_2005

> <r_lp_Energy>
7.87484

> <b_lp_Chiralities_Consistent>
1

> <s_lp_Variant>
AV-unprocessed.smi:2751-1

> <Gold.Version>
5.8.1

> <Gold.Id.Protein>
6NUR|6NUR_protein|mol2

> <Gold.PLP.Fitness>
35.7411

> <Gold.PLP.PLP>
-30.3567

> <Gold.PLP.part.hbond>
-3.4991

> <Gold.PLP.part.metal>
0.0000

> <Gold.PLP.part.buried>
-4.0383

> <Gold.PLP.part.nonpolar>
-23.5247

> <Gold.PLP.part.repulsive>
0.8511

> <Gold.PLP.ligand.clash>
0.0000

> <Gold.PLP.ligand.torsion>
0.3096

> <Gold.PLP.Chemscore.Hbond>
2.0000

> <Gold.PLP.Chemscore.CHOScore>
0.0000

> <Gold.PLP.Chemscore.Metal>
0.0000

> <Gold.Chemscore.Hbonds>
donor molecule, donor type, donor heavy atom, donor atom, acceptor molecule, acceptor atom, score
      L1  H     3    18       P1 10175  1.00
      L1  H    12    32       P1 10175  1.00

> <Gold.PLP.Chemscore.Internal.Correction>
0.0036

> <Gold.Rescore>
     Score         DG    S(hbond)    S(metal)    S(lipo)     H(rot)  DE(clash)    DE(int)     intcor
     13.11     -15.11       1.85        0.00      65.20       1.63       0.29       1.70       ----

> <Gold.Chemscore.Fitness>
13.1141

> <Gold.Chemscore.DG>
-15.1101

> <Gold.Chemscore.ZeroCoef>
-5.4800

> <Gold.Chemscore.Hbond>
1.8509

> <Gold.Chemscore.Metal>
0.0000

> <Gold.Chemscore.Lipo>
65.1954

> <Gold.Chemscore.Internal_Hbond>
0.0000

> <Gold.Chemscore.DEClash>
0.2915

> <Gold.Chemscore.DEInternal>
1.7045

> <Gold.Chemscore.Rot>
1.6328

> <Gold.Chemscore.Internal.Correction>
   9.000000E+99

> <Gold.Chemscore.Hbonds>
donor molecule, donor type, donor heavy atom, donor atom, acceptor molecule, acceptor atom, score
      L1  H     3    18       P1 10175  0.99
      L1  H    12    32       P1 10175  0.44

> <Gold.Chemscore.Hbond.Weighted>
-6.1822

> <Gold.Chemscore.Metal.Weighted>
-0.0000

> <Gold.Chemscore.Lipo.Weighted>
-7.6279

> <Gold.Chemscore.Internal_Hbond.Weighted>
0.0000

> <Gold.Chemscore.DEClash.Weighted>
0.2915

> <Gold.Chemscore.DEInternal.Weighted>
1.7045

> <Gold.Chemscore.Rot.Weighted>
4.1799

> <Gold.Chemscore.Internal.Correction.Weighted>
   9.000000E+99

> <Gold.Protein.RotatedTorsions>
[ 6907 6896 6895 6894 ] final -177.96 input  -60.11 | X-H torsion
[ 7974 7965 7964 7962 ] final -157.28 input  175.53 | X-H torsion
[ 8008 7997 7996 7995 ] final  -61.43 input   59.86 | X-H torsion
[ 10167 10162 10161 10158 ] final  115.15 input  -65.29 | X-H torsion
[ 10718 10713 10712 10709 ] final  -87.42 input   66.30 | X-H torsion
[ 10763 10752 10751 10750 ] final   63.94 input  -60.55 | X-H torsion
[ 11005 11000 10999 10996 ] final   18.23 input  -57.11 | X-H torsion

> <Gold.Protein.ActiveResidues>
 VAL166  LYS551  ARG553  GLY616  TRP617  ASP618  TYR619  PRO620  LYS621  CYS622 
 ASP623  PHE694  ASN695  SER759  ASP760  ASP761  ALA762  ILE779  LEU786  VAL792 
 PHE793  MET794  SER795  GLU796  ALA797  LYS798  CYS799  TRP800  GLU811  SER814 

> <Gold.Protein.RotatedAtoms>
  151.6294  133.3333  159.3105 H   0  0  0  0  0  0  0  0  0  0  0  0  # atno 6907 bound_to 6896
  150.8064  134.7195  159.6659 H   0  0  0  0  0  0  0  0  0  0  0  0  # atno 6908 bound_to 6896
  152.4160  134.6046  160.0061 H   0  0  0  0  0  0  0  0  0  0  0  0  # atno 6909 bound_to 6896
  144.7555  140.3991  143.6015 H   0  0  0  0  0  0  0  0  0  0  0  0  # atno 7974 bound_to 7965
  154.4448  140.1018  156.6430 H   0  0  0  0  0  0  0  0  0  0  0  0  # atno 8008 bound_to 7997
  155.5481  140.3485  155.4443 H   0  0  0  0  0  0  0  0  0  0  0  0  # atno 8009 bound_to 7997
  156.0549  140.1312  156.9997 H   0  0  0  0  0  0  0  0  0  0  0  0  # atno 8010 bound_to 7997
  139.6337  144.7117  151.2378 H   0  0  0  0  0  0  0  0  0  0  0  0  # atno 10167 bound_to 10162
  155.9985  130.4799  150.4865 H   0  0  0  0  0  0  0  0  0  0  0  0  # atno 10718 bound_to 10713
  153.0036  135.5411  154.6431 H   0  0  0  0  0  0  0  0  0  0  0  0  # atno 10763 bound_to 10752
  154.5682  135.2839  155.0856 H   0  0  0  0  0  0  0  0  0  0  0  0  # atno 10764 bound_to 10752
  154.2032  135.6480  153.5145 H   0  0  0  0  0  0  0  0  0  0  0  0  # atno 10765 bound_to 10752
  140.4271  134.1458  155.7677 H   0  0  0  0  0  0  0  0  0  0  0  0  # atno 11005 bound_to 11000
  145.6794  139.1615  143.2709 LP  0  0  0  0  0  0  0  0  0  0  0  0  # atno 17320 bound_to 7965
  146.1560  140.6857  142.9300 LP  0  0  0  0  0  0  0  0  0  0  0  0  # atno 17321 bound_to 7965
  140.7453  143.6434  150.8314 LP  0  0  0  0  0  0  0  0  0  0  0  0  # atno 17342 bound_to 10162
  140.0062  143.5691  152.2857 LP  0  0  0  0  0  0  0  0  0  0  0  0  # atno 17343 bound_to 10162
  157.2865  131.0617  151.2163 LP  0  0  0  0  0  0  0  0  0  0  0  0  # atno 17370 bound_to 10713
  157.3191  130.6928  149.6259 LP  0  0  0  0  0  0  0  0  0  0  0  0  # atno 17371 bound_to 10713
  141.1760  133.8512  157.1418 LP  0  0  0  0  0  0  0  0  0  0  0  0  # atno 17394 bound_to 11000
  140.0159  134.9967  157.0493 LP  0  0  0  0  0  0  0  0  0  0  0  0  # atno 17395 bound_to 11000

$$$$
