AV-unprocessed.smi:1697|AV-procd|sdf|6808|dock2
  -GOLD-   22720 7583D 1   1.00000     0.00000
 Structure written by MMmdl.
 55 57  0  0  0  0  0  0  0  0  3 V2000
  144.5485  135.2456  150.1186 C   0  0  0  0  0  0  0  0  0  0  0  0
  145.5651  135.7164  151.1673 C   0  0  0  0  0  0  0  0  0  0  0  0
  144.9123  136.3219  152.2763 O   0  0  0  0  0  0  0  0  0  0  0  0
  145.7073  137.2311  153.0271 C   0  0  2  0  0  0  0  0  0  0  0  0
  146.3513  138.2178  152.0438 C   0  0  0  0  0  0  0  0  0  0  0  0
  147.3164  139.1700  152.7687 C   0  0  0  0  0  0  0  0  0  0  0  0
  148.3677  138.4160  153.5002 N   0  3  1  0  0  0  0  0  0  0  0  0
  149.3838  139.3177  154.1023 C   0  0  0  0  0  0  0  0  0  0  0  0
  150.5060  138.5574  154.8447 C   0  0  1  0  0  0  0  0  0  0  0  0
  151.0572  137.5843  153.9811 O   0  0  0  0  0  0  0  0  0  0  0  0
  151.6627  139.4721  155.2980 C   0  0  0  0  0  0  0  0  0  0  0  0
  151.2145  140.6286  156.0848 N   0  0  0  0  0  0  0  0  0  0  0  0
  150.3478  141.6272  155.7614 C   0  0  0  0  0  0  0  0  0  0  0  0
  150.2661  142.4625  156.8341 N   0  3  0  0  0  0  0  0  0  0  0  0
  151.1026  141.9981  157.8515 C   0  0  0  0  0  0  0  0  0  0  0  0
  151.3618  142.5035  159.1198 C   0  0  0  0  0  0  0  0  0  0  0  0
  152.2824  141.7917  159.9218 C   0  0  0  0  0  0  0  0  0  0  0  0
  152.5916  142.3192  161.3126 C   0  0  0  0  0  0  0  0  0  0  0  0
  152.9106  140.6131  159.4418 C   0  0  0  0  0  0  0  0  0  0  0  0
  153.9038  139.8600  160.3105 C   0  0  0  0  0  0  0  0  0  0  0  0
  152.6308  140.1134  158.1499 C   0  0  0  0  0  0  0  0  0  0  0  0
  151.7195  140.8255  157.3744 C   0  0  0  0  0  0  0  0  0  0  0  0
  147.7746  137.4633  154.4775 C   0  0  0  0  0  0  0  0  0  0  0  0
  146.8150  136.4803  153.7864 C   0  0  0  0  0  0  0  0  0  0  0  0
  145.0563  134.8420  149.2424 H   0  0  0  0  0  0  0  0  0  0  0  0
  143.9206  136.0727  149.7861 H   0  0  0  0  0  0  0  0  0  0  0  0
  143.8949  134.4650  150.5066 H   0  0  0  0  0  0  0  0  0  0  0  0
  146.2146  134.8977  151.4782 H   0  0  0  0  0  0  0  0  0  0  0  0
  146.2119  136.4686  150.7154 H   0  0  0  0  0  0  0  0  0  0  0  0
  145.0929  137.7954  153.7300 H   0  0  0  0  0  0  0  0  0  0  0  0
  146.8916  137.6706  151.2697 H   0  0  0  0  0  0  0  0  0  0  0  0
  145.5772  138.7921  151.5331 H   0  0  0  0  0  0  0  0  0  0  0  0
  147.7790  139.8318  152.0355 H   0  0  0  0  0  0  0  0  0  0  0  0
  146.7676  139.8039  153.4671 H   0  0  0  0  0  0  0  0  0  0  0  0
  149.8438  139.9302  153.3248 H   0  0  0  0  0  0  0  0  0  0  0  0
  148.8731  140.0129  154.7695 H   0  0  0  0  0  0  0  0  0  0  0  0
  150.1097  138.0417  155.7179 H   0  0  0  0  0  0  0  0  0  0  0  0
  150.7657  137.7526  153.0980 H   0  0  0  0  0  0  0  0  0  0  0  0
  152.3908  138.9175  155.8922 H   0  0  0  0  0  0  0  0  0  0  0  0
  152.2014  139.8586  154.4314 H   0  0  0  0  0  0  0  0  0  0  0  0
  149.8176  141.7362  154.8261 H   0  0  0  0  0  0  0  0  0  0  0  0
  150.8832  143.4037  159.4774 H   0  0  0  0  0  0  0  0  0  0  0  0
  152.3851  141.5609  162.0682 H   0  0  0  0  0  0  0  0  0  0  0  0
  151.9893  143.1968  161.5499 H   0  0  0  0  0  0  0  0  0  0  0  0
  153.6413  142.6050  161.3862 H   0  0  0  0  0  0  0  0  0  0  0  0
  154.3170  138.9969  159.7879 H   0  0  0  0  0  0  0  0  0  0  0  0
  153.4212  139.4997  161.2194 H   0  0  0  0  0  0  0  0  0  0  0  0
  154.7348  140.5073  160.5919 H   0  0  0  0  0  0  0  0  0  0  0  0
  153.1111  139.2181  157.7831 H   0  0  0  0  0  0  0  0  0  0  0  0
  148.5564  136.8942  154.9790 H   0  0  0  0  0  0  0  0  0  0  0  0
  147.2440  138.0180  155.2530 H   0  0  0  0  0  0  0  0  0  0  0  0
  146.3837  135.8104  154.5301 H   0  0  0  0  0  0  0  0  0  0  0  0
  147.3746  135.8512  153.0928 H   0  0  0  0  0  0  0  0  0  0  0  0
  148.8497  137.8660  152.8035 H   0  0  0  0  0  0  0  0  0  0  0  0
  149.6872  143.2924  156.8644 H   0  0  0  0  0  0  0  0  0  0  0  0
  1  2  1  0  0  0  0
  1 25  1  0  0  0  0
  1 26  1  0  0  0  0
  1 27  1  0  0  0  0
  2  3  1  0  0  0  0
  2 28  1  0  0  0  0
  2 29  1  0  0  0  0
  3  4  1  0  0  0  0
  4 24  1  0  0  0  0
  4  5  1  0  0  0  0
  4 30  1  0  0  0  0
  5  6  1  0  0  0  0
  5 31  1  0  0  0  0
  5 32  1  0  0  0  0
  6  7  1  0  0  0  0
  6 33  1  0  0  0  0
  6 34  1  0  0  0  0
  7  8  1  0  0  0  0
  7 23  1  0  0  0  0
  7 54  1  0  0  0  0
  8  9  1  0  0  0  0
  8 35  1  0  0  0  0
  8 36  1  0  0  0  0
  9 10  1  0  0  0  0
  9 11  1  0  0  0  0
  9 37  1  0  0  0  0
 10 38  1  0  0  0  0
 11 12  1  0  0  0  0
 11 39  1  0  0  0  0
 11 40  1  0  0  0  0
 12 22  1  0  0  0  0
 12 13  1  0  0  0  0
 13 14  2  0  0  0  0
 13 41  1  0  0  0  0
 14 15  1  0  0  0  0
 14 55  1  0  0  0  0
 15 22  2  0  0  0  0
 15 16  1  0  0  0  0
 16 17  2  0  0  0  0
 16 42  1  0  0  0  0
 17 18  1  0  0  0  0
 17 19  1  0  0  0  0
 18 43  1  0  0  0  0
 18 44  1  0  0  0  0
 18 45  1  0  0  0  0
 19 20  1  0  0  0  0
 19 21  2  0  0  0  0
 20 46  1  0  0  0  0
 20 47  1  0  0  0  0
 20 48  1  0  0  0  0
 21 22  1  0  0  0  0
 21 49  1  0  0  0  0
 23 24  1  0  0  0  0
 23 50  1  0  0  0  0
 23 51  1  0  0  0  0
 24 52  1  0  0  0  0
 24 53  1  0  0  0  0
M  CHG  1   7   1
M  CHG  1  14   1
M  END
> <s_m_source_file>
AV-unprocessed.smi

> <i_m_source_file_index>
1697

> <i_lp_mmshare_version>
43012

> <i_f3d_flags>
0

> <s_epik_input>
W0NIM11bQ0gyXU9bQ0hdMVtDSDJdW0NIMl1OKFtDSDJdW0NIMl0xKVtDSDJdW0NASF0oW09IXSlbQ0gyXW4oW2NIXW4yKWMoYzIzKVtjSF1jKFtDSDNdKWMoW2NIXTMpW0NIM10=

> <s_epik_cmdline>
J2VwaWtfcHl0aG9uJywgJy1waCcsICc3LjAnLCAnLXRuJywgJzgnLCAnLW1hJywgJzIwMCcsICctbWV0YWxfYmluZGluZycsICctaW1hZScsICc8aW5maWxlLm1hZT4nLCAnLW9tYWUnLCAnPG91dGZpbGUubWFlPic=

> <r_epik_Ionization_Penalty>
1.20016

> <r_epik_Ionization_Penalty_Charging>
1.20016

> <r_epik_Ionization_Penalty_Neutral>
1.70998e-06

> <r_epik_State_Penalty>
1.27959

> <r_epik_Charging_Adjusted_Penalty>
2.47975

> <i_epik_Tot_Q>
2

> <i_epik_Tot_abs_Q>
2

> <r_epik_Metal_State_Penalty>
5.29682

> <b_epik_Metal_Only>
0

> <s_lp_Force_Field>
OPLS_2005

> <r_lp_Energy>
35.517

> <b_lp_Chiralities_Consistent>
1

> <s_lp_Variant>
AV-unprocessed.smi:1697-6

> <Gold.Version>
5.8.1

> <Gold.Id.Protein>
6NUR|6NUR_protein|mol2

> <Gold.PLP.Fitness>
59.4760

> <Gold.PLP.PLP>
-47.7833

> <Gold.PLP.part.hbond>
-3.4254

> <Gold.PLP.part.metal>
0.0000

> <Gold.PLP.part.buried>
-3.3942

> <Gold.PLP.part.nonpolar>
-41.2816

> <Gold.PLP.part.repulsive>
0.2166

> <Gold.PLP.ligand.clash>
0.0000

> <Gold.PLP.ligand.torsion>
0.2372

> <Gold.PLP.Chemscore.Hbond>
4.0000

> <Gold.PLP.Chemscore.CHOScore>
0.0000

> <Gold.PLP.Chemscore.Metal>
0.0000

> <Gold.Chemscore.Hbonds>
donor molecule, donor type, donor heavy atom, donor atom, acceptor molecule, acceptor atom, score
      L1  H     7    54       P1  7948  1.95
      L1  H    10    38       P1  7949  0.01
      L1  H    14    55       P1  8028  1.70

> <Gold.PLP.Chemscore.Internal.Correction>
0.1671

> <Gold.Rescore>
     Score         DG    S(hbond)    S(metal)    S(lipo)     H(rot)  DE(clash)    DE(int)     intcor
     19.20     -19.77       1.95        0.00     117.78       2.35       0.03       0.55       ----

> <Gold.Chemscore.Fitness>
19.1962

> <Gold.Chemscore.DG>
-19.7725

> <Gold.Chemscore.ZeroCoef>
-5.4800

> <Gold.Chemscore.Hbond>
1.9522

> <Gold.Chemscore.Metal>
0.0000

> <Gold.Chemscore.Lipo>
117.7765

> <Gold.Chemscore.Internal_Hbond>
0.0000

> <Gold.Chemscore.DEClash>
0.0259

> <Gold.Chemscore.DEInternal>
0.5503

> <Gold.Chemscore.Rot>
2.3468

> <Gold.Chemscore.Internal.Correction>
   9.000000E+99

> <Gold.Chemscore.Hbonds>
donor molecule, donor type, donor heavy atom, donor atom, acceptor molecule, acceptor atom, score
      L1  H     7    54       P1  7948  0.93
      L1  H    14    55       P1  8028  0.77

> <Gold.Chemscore.Hbond.Weighted>
-6.5204

> <Gold.Chemscore.Metal.Weighted>
-0.0000

> <Gold.Chemscore.Lipo.Weighted>
-13.7799

> <Gold.Chemscore.Internal_Hbond.Weighted>
0.0000

> <Gold.Chemscore.DEClash.Weighted>
0.0259

> <Gold.Chemscore.DEInternal.Weighted>
0.5503

> <Gold.Chemscore.Rot.Weighted>
6.0077

> <Gold.Chemscore.Internal.Correction.Weighted>
   9.000000E+99

> <Gold.Protein.RotatedTorsions>
[ 6907 6896 6895 6894 ] final  -37.41 input  -60.11 | X-H torsion
[ 7974 7965 7964 7962 ] final   92.55 input  175.53 | X-H torsion
[ 8008 7997 7996 7995 ] final   55.61 input   59.86 | X-H torsion
[ 10167 10162 10161 10158 ] final  -37.05 input  -65.29 | X-H torsion
[ 10718 10713 10712 10709 ] final -146.53 input   66.30 | X-H torsion
[ 10763 10752 10751 10750 ] final   75.28 input  -60.55 | X-H torsion
[ 11005 11000 10999 10996 ] final  154.93 input  -57.11 | X-H torsion

> <Gold.Protein.ActiveResidues>
 VAL166  LYS551  ARG553  GLY616  TRP617  ASP618  TYR619  PRO620  LYS621  CYS622 
 ASP623  PHE694  ASN695  SER759  ASP760  ASP761  ALA762  ILE779  LEU786  VAL792 
 PHE793  MET794  SER795  GLU796  ALA797  LYS798  CYS799  TRP800  GLU811  SER814 

> <Gold.Protein.RotatedAtoms>
  151.0150  134.9426  159.8027 H   0  0  0  0  0  0  0  0  0  0  0  0  # atno 6907 bound_to 6896
  152.5312  134.2978  159.9077 H   0  0  0  0  0  0  0  0  0  0  0  0  # atno 6908 bound_to 6896
  151.2984  133.4091  159.2672 H   0  0  0  0  0  0  0  0  0  0  0  0  # atno 6909 bound_to 6896
  145.4907  139.2276  143.2831 H   0  0  0  0  0  0  0  0  0  0  0  0  # atno 7974 bound_to 7965
  155.5039  140.3475  155.4376 H   0  0  0  0  0  0  0  0  0  0  0  0  # atno 8008 bound_to 7997
  156.0895  140.1407  156.9637 H   0  0  0  0  0  0  0  0  0  0  0  0  # atno 8009 bound_to 7997
  154.4626  140.0929  156.6913 H   0  0  0  0  0  0  0  0  0  0  0  0  # atno 8010 bound_to 7997
  140.7128  143.3367  151.2446 H   0  0  0  0  0  0  0  0  0  0  0  0  # atno 10167 bound_to 10162
  156.3960  130.7910  151.2116 H   0  0  0  0  0  0  0  0  0  0  0  0  # atno 10718 bound_to 10713
  153.0644  135.4994  154.8167 H   0  0  0  0  0  0  0  0  0  0  0  0  # atno 10763 bound_to 10752
  154.6932  135.2988  154.9452 H   0  0  0  0  0  0  0  0  0  0  0  0  # atno 10764 bound_to 10752
  154.0200  135.6743  153.4824 H   0  0  0  0  0  0  0  0  0  0  0  0  # atno 10765 bound_to 10752
  140.1534  134.8659  157.2484 H   0  0  0  0  0  0  0  0  0  0  0  0  # atno 11005 bound_to 11000
  146.2285  140.5701  142.8985 LP  0  0  0  0  0  0  0  0  0  0  0  0  # atno 17320 bound_to 7965
  144.7835  140.5889  143.6589 LP  0  0  0  0  0  0  0  0  0  0  0  0  # atno 17321 bound_to 7965
  139.6864  143.9766  152.2836 LP  0  0  0  0  0  0  0  0  0  0  0  0  # atno 17342 bound_to 10162
  139.9413  144.6680  150.8263 LP  0  0  0  0  0  0  0  0  0  0  0  0  # atno 17343 bound_to 10162
  157.7501  131.0301  150.4122 LP  0  0  0  0  0  0  0  0  0  0  0  0  # atno 17370 bound_to 10713
  156.4393  130.3988  149.6708 LP  0  0  0  0  0  0  0  0  0  0  0  0  # atno 17371 bound_to 10713
  140.2577  134.3608  155.7418 LP  0  0  0  0  0  0  0  0  0  0  0  0  # atno 17394 bound_to 11000
  141.2201  133.7352  156.9032 LP  0  0  0  0  0  0  0  0  0  0  0  0  # atno 17395 bound_to 11000

$$$$
