AV-unprocessed.smi:3345|AV-procd|sdf|12905|dock2
  -GOLD-   2272019313D 1   1.00000     0.00000
 Structure written by MMmdl.
 41 42  0  0  0  0  0  0  0  0  2 V2000
  146.5721  138.8659  151.1794 C   0  0  0  0  0  0  0  0  0  0  0  0
  145.9094  137.9008  152.1718 C   0  0  2  0  0  0  0  0  0  0  0  0
  146.3092  138.2304  153.6289 C   0  0  0  0  0  0  0  0  0  0  0  0
  146.0906  139.6558  153.9825 N   0  3  0  0  0  0  0  0  0  0  0  0
  145.7532  139.8599  155.4103 C   0  0  0  0  0  0  0  0  0  0  0  0
  145.4537  141.3455  155.6757 C   0  0  0  0  0  0  0  0  0  0  0  0
  146.5709  142.1361  155.2881 O   0  0  0  0  0  0  0  0  0  0  0  0
  146.8623  142.0069  153.9016 C   0  0  0  0  0  0  0  0  0  0  0  0
  147.2098  140.5432  153.5841 C   0  0  0  0  0  0  0  0  0  0  0  0
  146.2737  136.5287  151.8159 N   0  0  0  0  0  0  0  0  0  0  0  0
  145.4373  135.5797  151.3634 C   0  0  0  0  0  0  0  0  0  0  0  0
  144.2279  135.7618  151.2204 O   0  0  0  0  0  0  0  0  0  0  0  0
  146.0653  134.2177  151.0336 C   0  0  1  0  0  0  0  0  0  0  0  0
  146.8725  133.6462  152.2166 C   0  0  0  0  0  0  0  0  0  0  0  0
  145.0409  133.2948  150.5614 N   0  0  0  0  0  0  0  0  0  0  0  0
  144.8415  132.7872  149.3427 C   0  0  0  0  0  0  0  0  0  0  0  0
  143.7740  132.0070  149.2517 N   0  0  0  0  0  0  0  0  0  0  0  0
  143.3206  132.0897  150.5376 C   0  0  0  0  0  0  0  0  0  0  0  0
  144.0349  132.8580  151.3599 N   0  0  0  0  0  0  0  0  0  0  0  0
  146.3044  139.8997  151.3997 H   0  0  0  0  0  0  0  0  0  0  0  0
  146.2556  138.6565  150.1569 H   0  0  0  0  0  0  0  0  0  0  0  0
  147.6595  138.7897  151.2139 H   0  0  0  0  0  0  0  0  0  0  0  0
  144.8316  138.0256  152.0587 H   0  0  0  0  0  0  0  0  0  0  0  0
  145.7135  137.6020  154.2930 H   0  0  0  0  0  0  0  0  0  0  0  0
  147.3508  137.9635  153.8144 H   0  0  0  0  0  0  0  0  0  0  0  0
  144.8825  139.2596  155.6770 H   0  0  0  0  0  0  0  0  0  0  0  0
  146.5819  139.5237  156.0357 H   0  0  0  0  0  0  0  0  0  0  0  0
  144.5617  141.6655  155.1341 H   0  0  0  0  0  0  0  0  0  0  0  0
  145.2574  141.5059  156.7360 H   0  0  0  0  0  0  0  0  0  0  0  0
  146.0131  142.3441  153.3045 H   0  0  0  0  0  0  0  0  0  0  0  0
  147.7035  142.6549  153.6550 H   0  0  0  0  0  0  0  0  0  0  0  0
  148.1175  140.2522  154.1150 H   0  0  0  0  0  0  0  0  0  0  0  0
  147.4166  140.4417  152.5191 H   0  0  0  0  0  0  0  0  0  0  0  0
  147.2506  136.2868  151.9020 H   0  0  0  0  0  0  0  0  0  0  0  0
  146.7653  134.3644  150.2092 H   0  0  0  0  0  0  0  0  0  0  0  0
  147.6660  134.3313  152.5166 H   0  0  0  0  0  0  0  0  0  0  0  0
  147.3439  132.7015  151.9444 H   0  0  0  0  0  0  0  0  0  0  0  0
  146.2482  133.4624  153.0922 H   0  0  0  0  0  0  0  0  0  0  0  0
  145.4888  132.9957  148.5034 H   0  0  0  0  0  0  0  0  0  0  0  0
  142.4340  131.5741  150.8760 H   0  0  0  0  0  0  0  0  0  0  0  0
  145.2803  139.9545  153.4578 H   0  0  0  0  0  0  0  0  0  0  0  0
  1  2  1  0  0  0  0
  1 20  1  0  0  0  0
  1 21  1  0  0  0  0
  1 22  1  0  0  0  0
  2  3  1  0  0  0  0
  2 10  1  0  0  0  0
  2 23  1  0  0  0  0
  3  4  1  0  0  0  0
  3 24  1  0  0  0  0
  3 25  1  0  0  0  0
  4  9  1  0  0  0  0
  4  5  1  0  0  0  0
  4 41  1  0  0  0  0
  5  6  1  0  0  0  0
  5 26  1  0  0  0  0
  5 27  1  0  0  0  0
  6  7  1  0  0  0  0
  6 28  1  0  0  0  0
  6 29  1  0  0  0  0
  7  8  1  0  0  0  0
  8  9  1  0  0  0  0
  8 30  1  0  0  0  0
  8 31  1  0  0  0  0
  9 32  1  0  0  0  0
  9 33  1  0  0  0  0
 10 11  1  0  0  0  0
 10 34  1  0  0  0  0
 11 12  2  0  0  0  0
 11 13  1  0  0  0  0
 13 14  1  0  0  0  0
 13 15  1  0  0  0  0
 13 35  1  0  0  0  0
 14 36  1  0  0  0  0
 14 37  1  0  0  0  0
 14 38  1  0  0  0  0
 15 19  1  0  0  0  0
 15 16  1  0  0  0  0
 16 17  2  0  0  0  0
 16 39  1  0  0  0  0
 17 18  1  0  0  0  0
 18 19  2  0  0  0  0
 18 40  1  0  0  0  0
M  CHG  1   4   1
M  END
> <s_m_source_file>
AV-unprocessed.smi

> <i_m_source_file_index>
3345

> <i_lp_mmshare_version>
43012

> <i_f3d_flags>
0

> <s_epik_input>
W0NIMl0xW0NIMl1PW0NIMl1bQ0gyXU4xW0NIMl1bQ0BASF0oW0NIM10pW05IXUMoPU8pW0NASF0oW0NIM10pbjJbY0hdbltjSF1uMg==

> <s_epik_cmdline>
J2VwaWtfcHl0aG9uJywgJy1waCcsICc3LjAnLCAnLXRuJywgJzgnLCAnLW1hJywgJzIwMCcsICctbWV0YWxfYmluZGluZycsICctaW1hZScsICc8aW5maWxlLm1hZT4nLCAnLW9tYWUnLCAnPG91dGZpbGUubWFlPic=

> <r_lp_tautomer_probability>
1

> <r_epik_Ionization_Penalty>
0.71326

> <r_epik_Ionization_Penalty_Charging>
0.713252

> <r_epik_Ionization_Penalty_Neutral>
8.27671e-06

> <r_epik_State_Penalty>
0.737017

> <r_epik_Charging_Adjusted_Penalty>
1.45027

> <i_epik_Tot_Q>
1

> <i_epik_Tot_abs_Q>
1

> <r_epik_Metal_State_Penalty>
0.73702

> <b_epik_Metal_Only>
0

> <s_lp_Force_Field>
OPLS_2005

> <r_lp_Energy>
28.0971

> <b_lp_Chiralities_Consistent>
1

> <s_lp_Variant>
AV-unprocessed.smi:3345-7

> <Gold.Version>
5.8.1

> <Gold.Id.Protein>
6NUR|6NUR_protein|mol2

> <Gold.PLP.Fitness>
45.7280

> <Gold.PLP.PLP>
-30.6016

> <Gold.PLP.part.hbond>
-3.0000

> <Gold.PLP.part.metal>
0.0000

> <Gold.PLP.part.buried>
-1.0255

> <Gold.PLP.part.nonpolar>
-28.0273

> <Gold.PLP.part.repulsive>
0.8275

> <Gold.PLP.ligand.clash>
0.0000

> <Gold.PLP.ligand.torsion>
0.4852

> <Gold.PLP.Chemscore.Hbond>
3.8320

> <Gold.PLP.Chemscore.CHOScore>
1.4677

> <Gold.PLP.Chemscore.Metal>
0.0000

> <Gold.Chemscore.Hbonds>
donor molecule, donor type, donor heavy atom, donor atom, acceptor molecule, acceptor atom, score
      L1  H     4    41       P1 10175  2.00
      L1  H    10    34       P1  7948  1.00
      P1  H 10785 10796       L1    17  0.83
      L1  C    16    39       P1  7921  0.58
      L1  C    18    40       P1 10952  0.80

> <Gold.PLP.Chemscore.Internal.Correction>
0.1978

> <Gold.Rescore>
     Score         DG    S(hbond)    S(metal)    S(lipo)     H(rot)  DE(clash)    DE(int)     intcor
     12.09     -14.49       2.93        0.00      50.57       2.61       0.49       1.91       ----

> <Gold.Chemscore.Fitness>
12.0880

> <Gold.Chemscore.DG>
-14.4911

> <Gold.Chemscore.ZeroCoef>
-5.4800

> <Gold.Chemscore.Hbond>
2.9298

> <Gold.Chemscore.Metal>
0.0000

> <Gold.Chemscore.Lipo>
50.5717

> <Gold.Chemscore.Internal_Hbond>
0.0000

> <Gold.Chemscore.DEClash>
0.4932

> <Gold.Chemscore.DEInternal>
1.9098

> <Gold.Chemscore.Rot>
2.6138

> <Gold.Chemscore.Internal.Correction>
   9.000000E+99

> <Gold.Chemscore.Hbonds>
donor molecule, donor type, donor heavy atom, donor atom, acceptor molecule, acceptor atom, score
      L1  H     4    41       P1 10175  0.99
      L1  H    10    34       P1  7948  1.00
      P1  H 10785 10796       L1    17  0.27

> <Gold.Chemscore.Hbond.Weighted>
-9.7854

> <Gold.Chemscore.Metal.Weighted>
-0.0000

> <Gold.Chemscore.Lipo.Weighted>
-5.9169

> <Gold.Chemscore.Internal_Hbond.Weighted>
0.0000

> <Gold.Chemscore.DEClash.Weighted>
0.4932

> <Gold.Chemscore.DEInternal.Weighted>
1.9098

> <Gold.Chemscore.Rot.Weighted>
6.6912

> <Gold.Chemscore.Internal.Correction.Weighted>
   9.000000E+99

> <Gold.Protein.RotatedTorsions>
[ 6907 6896 6895 6894 ] final   72.09 input  -60.11 | X-H torsion
[ 7974 7965 7964 7962 ] final  -39.10 input  175.53 | X-H torsion
[ 8008 7997 7996 7995 ] final   64.29 input   59.86 | X-H torsion
[ 10167 10162 10161 10158 ] final  -64.60 input  -65.29 | X-H torsion
[ 10718 10713 10712 10709 ] final  155.83 input   66.30 | X-H torsion
[ 10763 10752 10751 10750 ] final  -31.97 input  -60.55 | X-H torsion
[ 11005 11000 10999 10996 ] final  -33.36 input  -57.11 | X-H torsion

> <Gold.Protein.ActiveResidues>
 VAL166  LYS551  ARG553  GLY616  TRP617  ASP618  TYR619  PRO620  LYS621  CYS622 
 ASP623  PHE694  ASN695  SER759  ASP760  ASP761  ALA762  ILE779  LEU786  VAL792 
 PHE793  MET794  SER795  GLU796  ALA797  LYS798  CYS799  TRP800  GLU811  SER814 

> <Gold.Protein.RotatedAtoms>
  152.4848  134.4624  159.9609 H   0  0  0  0  0  0  0  0  0  0  0  0  # atno 6907 bound_to 6896
  151.4622  133.3584  159.2819 H   0  0  0  0  0  0  0  0  0  0  0  0  # atno 6908 bound_to 6896
  150.8948  134.8381  159.7380 H   0  0  0  0  0  0  0  0  0  0  0  0  # atno 6909 bound_to 6896
  146.0427  140.6587  142.9079 H   0  0  0  0  0  0  0  0  0  0  0  0  # atno 7974 bound_to 7965
  155.6437  140.3497  155.4723 H   0  0  0  0  0  0  0  0  0  0  0  0  # atno 8008 bound_to 7997
  155.9905  140.1193  157.0666 H   0  0  0  0  0  0  0  0  0  0  0  0  # atno 8009 bound_to 7997
  154.4218  140.1120  156.5545 H   0  0  0  0  0  0  0  0  0  0  0  0  # atno 8010 bound_to 7997
  140.5789  143.2325  151.6383 H   0  0  0  0  0  0  0  0  0  0  0  0  # atno 10167 bound_to 10162
  157.2130  131.0702  151.1958 H   0  0  0  0  0  0  0  0  0  0  0  0  # atno 10718 bound_to 10713
  153.8061  135.6886  153.4848 H   0  0  0  0  0  0  0  0  0  0  0  0  # atno 10763 bound_to 10752
  153.1657  135.4562  154.9833 H   0  0  0  0  0  0  0  0  0  0  0  0  # atno 10764 bound_to 10752
  154.7986  135.3329  154.7546 H   0  0  0  0  0  0  0  0  0  0  0  0  # atno 10765 bound_to 10752
  140.9629  133.7154  156.1398 H   0  0  0  0  0  0  0  0  0  0  0  0  # atno 11005 bound_to 11000
  144.7082  140.3937  143.7101 LP  0  0  0  0  0  0  0  0  0  0  0  0  # atno 17320 bound_to 7965
  145.6858  139.1628  143.2675 LP  0  0  0  0  0  0  0  0  0  0  0  0  # atno 17321 bound_to 7965
  139.5158  144.3365  152.0779 LP  0  0  0  0  0  0  0  0  0  0  0  0  # atno 17342 bound_to 10162
  140.2513  144.4166  150.6221 LP  0  0  0  0  0  0  0  0  0  0  0  0  # atno 17343 bound_to 10162
  157.3653  130.7152  149.6528 LP  0  0  0  0  0  0  0  0  0  0  0  0  # atno 17370 bound_to 10713
  155.9689  130.4214  150.4468 LP  0  0  0  0  0  0  0  0  0  0  0  0  # atno 17371 bound_to 10713
  140.7442  134.4117  157.5550 LP  0  0  0  0  0  0  0  0  0  0  0  0  # atno 17394 bound_to 11000
  139.8884  134.8857  156.2475 LP  0  0  0  0  0  0  0  0  0  0  0  0  # atno 17395 bound_to 11000

$$$$
