AV-unprocessed.smi:99|AV-procd|sdf|872|dock4
  -GOLD-   2262017333D 1   1.00000     0.00000
 Structure written by MMmdl.
 53 56  0  0  0  0  0  0  0  0  1 V2000
  146.4013  137.8891  159.4042 O   0  0  0  0  0  0  0  0  0  0  0  0
  146.5918  136.6740  159.3204 C   0  0  0  0  0  0  0  0  0  0  0  0
  146.5941  135.9985  158.1546 O   0  0  0  0  0  0  0  0  0  0  0  0
  146.0994  136.6148  156.9776 C   0  0  0  0  0  0  0  0  0  0  0  0
  146.8005  136.0007  155.7499 C   0  0  1  0  0  0  0  0  0  0  0  0
  145.8412  135.2537  155.0131 O   0  0  0  0  0  0  0  0  0  0  0  0
  145.1969  136.0840  154.0960 C   0  0  2  0  0  0  0  0  0  0  0  0
  144.9878  135.2910  152.8231 N   0  0  0  0  0  0  0  0  0  0  0  0
  146.0583  134.6586  152.2057 C   0  0  0  0  0  0  0  0  0  0  0  0
  145.9323  133.9275  151.0732 C   0  0  0  0  0  0  0  0  0  0  0  0
  144.6287  133.7687  150.4367 C   0  0  0  0  0  0  0  0  0  0  0  0
  144.4136  133.1240  149.4126 O   0  0  0  0  0  0  0  0  0  0  0  0
  143.5806  134.4253  151.0890 N   0  0  0  0  0  0  0  0  0  0  0  0
  143.6987  135.1842  152.2551 C   0  0  0  0  0  0  0  0  0  0  0  0
  142.7053  135.7291  152.7346 O   0  0  0  0  0  0  0  0  0  0  0  0
  146.0665  137.3470  153.8971 C   0  0  2  0  0  0  0  0  0  0  0  0
  146.4151  137.6193  152.5514 O   0  0  0  0  0  0  0  0  0  0  0  0
  147.3069  137.0240  154.7241 C   0  0  1  0  0  0  0  0  0  0  0  0
  147.8293  138.1771  155.3751 O   0  0  0  0  0  0  0  0  0  0  0  0
  148.9863  138.7415  154.9697 C   0  0  0  0  0  0  0  0  0  0  0  0
  149.6274  138.3586  153.9893 O   0  0  0  0  0  0  0  0  0  0  0  0
  149.4040  139.8849  155.8308 C   0  0  0  0  0  0  0  0  0  0  0  0
  148.5383  140.3326  156.8559 C   0  0  0  0  0  0  0  0  0  0  0  0
  148.9060  141.4091  157.6861 C   0  0  0  0  0  0  0  0  0  0  0  0
  150.1438  142.0516  157.5011 C   0  0  0  0  0  0  0  0  0  0  0  0
  151.0135  141.6166  156.4843 C   0  0  0  0  0  0  0  0  0  0  0  0
  150.6480  140.5397  155.6532 C   0  0  0  0  0  0  0  0  0  0  0  0
  146.8438  135.7969  160.5001 C   0  0  0  0  0  0  0  0  0  0  0  0
  147.0351  136.3846  161.7726 C   0  0  0  0  0  0  0  0  0  0  0  0
  147.2731  135.5817  162.9049 C   0  0  0  0  0  0  0  0  0  0  0  0
  147.3236  134.1812  162.7790 C   0  0  0  0  0  0  0  0  0  0  0  0
  147.1353  133.5843  161.5188 C   0  0  0  0  0  0  0  0  0  0  0  0
  146.8962  134.3855  160.3851 C   0  0  0  0  0  0  0  0  0  0  0  0
  142.6610  134.3467  150.6796 H   0  0  0  0  0  0  0  0  0  0  0  0
  145.0168  136.4981  156.9122 H   0  0  0  0  0  0  0  0  0  0  0  0
  146.3104  137.6833  157.0367 H   0  0  0  0  0  0  0  0  0  0  0  0
  147.6160  135.3552  156.0783 H   0  0  0  0  0  0  0  0  0  0  0  0
  144.2133  136.3215  154.5032 H   0  0  0  0  0  0  0  0  0  0  0  0
  147.0434  134.7552  152.6395 H   0  0  0  0  0  0  0  0  0  0  0  0
  146.8011  133.4584  150.6347 H   0  0  0  0  0  0  0  0  0  0  0  0
  145.5279  138.1971  154.3185 H   0  0  0  0  0  0  0  0  0  0  0  0
  147.1754  137.1045  152.3270 H   0  0  0  0  0  0  0  0  0  0  0  0
  148.0589  136.5359  154.1013 H   0  0  0  0  0  0  0  0  0  0  0  0
  147.5827  139.8549  157.0175 H   0  0  0  0  0  0  0  0  0  0  0  0
  148.2368  141.7418  158.4658 H   0  0  0  0  0  0  0  0  0  0  0  0
  150.4257  142.8771  158.1380 H   0  0  0  0  0  0  0  0  0  0  0  0
  151.9638  142.1097  156.3415 H   0  0  0  0  0  0  0  0  0  0  0  0
  151.3393  140.2314  154.8826 H   0  0  0  0  0  0  0  0  0  0  0  0
  147.0003  137.4576  161.8942 H   0  0  0  0  0  0  0  0  0  0  0  0
  147.4163  136.0415  163.8717 H   0  0  0  0  0  0  0  0  0  0  0  0
  147.5058  133.5658  163.6478 H   0  0  0  0  0  0  0  0  0  0  0  0
  147.1734  132.5093  161.4208 H   0  0  0  0  0  0  0  0  0  0  0  0
  146.7547  133.8949  159.4332 H   0  0  0  0  0  0  0  0  0  0  0  0
  1  2  2  0  0  0  0
  2  3  1  0  0  0  0
  2 28  1  0  0  0  0
  3  4  1  0  0  0  0
  4  5  1  0  0  0  0
  4 35  1  0  0  0  0
  4 36  1  0  0  0  0
  5 18  1  0  0  0  0
  5  6  1  0  0  0  0
  5 37  1  0  0  0  0
  6  7  1  0  0  0  0
  7  8  1  0  0  0  0
  7 16  1  0  0  0  0
  7 38  1  0  0  0  0
  8 14  1  0  0  0  0
  8  9  1  0  0  0  0
  9 10  2  0  0  0  0
  9 39  1  0  0  0  0
 10 11  1  0  0  0  0
 10 40  1  0  0  0  0
 11 12  2  0  0  0  0
 11 13  1  0  0  0  0
 13 34  1  0  0  0  0
 13 14  1  0  0  0  0
 14 15  2  0  0  0  0
 16 17  1  0  0  0  0
 16 18  1  0  0  0  0
 16 41  1  0  0  0  0
 17 42  1  0  0  0  0
 18 19  1  0  0  0  0
 18 43  1  0  0  0  0
 19 20  1  0  0  0  0
 20 21  2  0  0  0  0
 20 22  1  0  0  0  0
 22 27  1  0  0  0  0
 22 23  2  0  0  0  0
 23 24  1  0  0  0  0
 23 44  1  0  0  0  0
 24 25  2  0  0  0  0
 24 45  1  0  0  0  0
 25 26  1  0  0  0  0
 25 46  1  0  0  0  0
 26 27  2  0  0  0  0
 26 47  1  0  0  0  0
 27 48  1  0  0  0  0
 28 33  1  0  0  0  0
 28 29  2  0  0  0  0
 29 30  1  0  0  0  0
 29 49  1  0  0  0  0
 30 31  2  0  0  0  0
 30 50  1  0  0  0  0
 31 32  1  0  0  0  0
 31 51  1  0  0  0  0
 32 33  2  0  0  0  0
 32 52  1  0  0  0  0
 33 53  1  0  0  0  0
M  END
> <s_m_source_file>
AV-unprocessed.smi

> <i_m_source_file_index>
99

> <i_lp_mmshare_version>
43012

> <i_f3d_flags>
0

> <s_epik_input>
W2NIXTFbY0hdW2NIXVtjSF1bY0hdYzFDKD1PKU9bQ0gyXVtDQEBIXTJPW0NAQEhdKG4zW2NIXVtjSF1jKD1PKVtuSF1jMz1PKVtDQEBIXShbT0hdKVtDQEhdMk9DKD1PKWM0W2NIXVtjSF1bY0hdW2NIXVtjSF00

> <s_epik_cmdline>
J2VwaWtfcHl0aG9uJywgJy1waCcsICc3LjAnLCAnLXRuJywgJzgnLCAnLW1hJywgJzIwMCcsICctbWV0YWxfYmluZGluZycsICctaW1hZScsICc8aW5maWxlLm1hZT4nLCAnLW9tYWUnLCAnPG91dGZpbGUubWFlPic=

> <r_lp_tautomer_probability>
1

> <r_epik_Ionization_Penalty>
0.00454555

> <r_epik_Ionization_Penalty_Charging>
0.0045191

> <r_epik_Ionization_Penalty_Neutral>
2.64449e-05

> <r_epik_State_Penalty>
-0

> <r_epik_Charging_Adjusted_Penalty>
0.0045191

> <i_epik_Tot_Q>
0

> <i_epik_Tot_abs_Q>
0

> <r_epik_Metal_State_Penalty>
1.27877

> <b_epik_Metal_Only>
0

> <s_epik_Chemistry_Notes>
This compound has an ester and may undergo hydrolysis at high or low pH. This compound contains an acetal/aminal-like group ( X-CH(R)-Y where X, Y are N, S, or O) that may be acid/base labile, releasing an aldehyde.

> <s_lp_Force_Field>
OPLS_2005

> <r_lp_Energy>
42.9918

> <b_lp_Chiralities_Consistent>
1

> <s_lp_Variant>
AV-unprocessed.smi:99-8

> <Gold.Version>
5.8.1

> <Gold.Id.Protein>
6NUR|6NUR_protein|mol2

> <Gold.PLP.Fitness>
48.5079

> <Gold.PLP.PLP>
-40.3021

> <Gold.PLP.part.hbond>
-3.0000

> <Gold.PLP.part.metal>
0.0000

> <Gold.PLP.part.buried>
-8.4601

> <Gold.PLP.part.nonpolar>
-31.9270

> <Gold.PLP.part.repulsive>
1.7548

> <Gold.PLP.ligand.clash>
0.0000

> <Gold.PLP.ligand.torsion>
1.7912

> <Gold.PLP.Chemscore.Hbond>
2.7520

> <Gold.PLP.Chemscore.CHOScore>
0.9659

> <Gold.PLP.Chemscore.Metal>
0.0000

> <Gold.Chemscore.Hbonds>
donor molecule, donor type, donor heavy atom, donor atom, acceptor molecule, acceptor atom, score
      L1  H    13    34       P1 10186  1.00
      L1  H    17    42       P1  7948  1.00
      P1  H  6934  6947       L1     1  0.78
      L1  C     9    39       P1  7948  0.95

> <Gold.PLP.Chemscore.Internal.Correction>
0.6344

> <Gold.Rescore>
     Score         DG    S(hbond)    S(metal)    S(lipo)     H(rot)  DE(clash)    DE(int)     intcor
     12.83     -14.83       2.16        0.00      87.99       3.19       0.15       1.85       ----

> <Gold.Chemscore.Fitness>
12.8288

> <Gold.Chemscore.DG>
-14.8298

> <Gold.Chemscore.ZeroCoef>
-5.4800

> <Gold.Chemscore.Hbond>
2.1622

> <Gold.Chemscore.Metal>
0.0000

> <Gold.Chemscore.Lipo>
87.9931

> <Gold.Chemscore.Internal_Hbond>
0.0000

> <Gold.Chemscore.DEClash>
0.1521

> <Gold.Chemscore.DEInternal>
1.8489

> <Gold.Chemscore.Rot>
3.1903

> <Gold.Chemscore.Internal.Correction>
   9.000000E+99

> <Gold.Chemscore.Hbonds>
donor molecule, donor type, donor heavy atom, donor atom, acceptor molecule, acceptor atom, score
      L1  H    13    34       P1 10186  0.43
      L1  H    17    42       P1  7948  0.94
      P1  H  6934  6947       L1     1  0.72

> <Gold.Chemscore.Hbond.Weighted>
-7.2217

> <Gold.Chemscore.Metal.Weighted>
-0.0000

> <Gold.Chemscore.Lipo.Weighted>
-10.2952

> <Gold.Chemscore.Internal_Hbond.Weighted>
0.0000

> <Gold.Chemscore.DEClash.Weighted>
0.1521

> <Gold.Chemscore.DEInternal.Weighted>
1.8489

> <Gold.Chemscore.Rot.Weighted>
8.1671

> <Gold.Chemscore.Internal.Correction.Weighted>
   9.000000E+99

> <Gold.Protein.RotatedTorsions>
[ 6907 6896 6895 6894 ] final  -74.45 input  -60.11 | X-H torsion
[ 7974 7965 7964 7962 ] final  107.01 input  175.53 | X-H torsion
[ 8008 7997 7996 7995 ] final -159.96 input   59.86 | X-H torsion
[ 10167 10162 10161 10158 ] final   55.64 input  -65.29 | X-H torsion
[ 10718 10713 10712 10709 ] final -179.80 input   66.30 | X-H torsion
[ 10763 10752 10751 10750 ] final  158.60 input  -60.55 | X-H torsion
[ 11005 11000 10999 10996 ] final -103.88 input  -57.11 | X-H torsion

> <Gold.Protein.ActiveResidues>
 VAL166  LYS551  ARG553  GLY616  TRP617  ASP618  TYR619  PRO620  LYS621  CYS622 
 ASP623  PHE694  ASN695  SER759  ASP760  ASP761  ALA762  ILE779  LEU786  VAL792 
 PHE793  MET794  SER795  GLU796  ALA797  LYS798  CYS799  TRP800  GLU811  SER814 

> <Gold.Protein.RotatedAtoms>
  150.7093  134.4867  159.5495 H   0  0  0  0  0  0  0  0  0  0  0  0  # atno 6907 bound_to 6896
  152.2493  134.8146  160.0457 H   0  0  0  0  0  0  0  0  0  0  0  0  # atno 6908 bound_to 6896
  151.8900  133.3479  159.3832 H   0  0  0  0  0  0  0  0  0  0  0  0  # atno 6909 bound_to 6896
  145.2991  139.2575  143.3823 H   0  0  0  0  0  0  0  0  0  0  0  0  # atno 7974 bound_to 7965
  155.7704  140.0851  157.2111 H   0  0  0  0  0  0  0  0  0  0  0  0  # atno 8008 bound_to 7997
  154.3996  140.1526  156.2992 H   0  0  0  0  0  0  0  0  0  0  0  0  # atno 8009 bound_to 7997
  155.8752  140.3423  155.5852 H   0  0  0  0  0  0  0  0  0  0  0  0  # atno 8010 bound_to 7997
  140.2173  144.3826  150.6464 H   0  0  0  0  0  0  0  0  0  0  0  0  # atno 10167 bound_to 10162
  156.8644  130.9762  151.3080 H   0  0  0  0  0  0  0  0  0  0  0  0  # atno 10718 bound_to 10713
  154.2185  135.2783  155.2933 H   0  0  0  0  0  0  0  0  0  0  0  0  # atno 10763 bound_to 10752
  154.5721  135.5615  153.7108 H   0  0  0  0  0  0  0  0  0  0  0  0  # atno 10764 bound_to 10752
  153.0047  135.6324  154.2325 H   0  0  0  0  0  0  0  0  0  0  0  0  # atno 10765 bound_to 10752
  141.1126  133.8677  157.1542 H   0  0  0  0  0  0  0  0  0  0  0  0  # atno 11005 bound_to 11000
  146.3158  140.3501  142.8655 LP  0  0  0  0  0  0  0  0  0  0  0  0  # atno 17320 bound_to 7965
  144.9108  140.7755  143.5808 LP  0  0  0  0  0  0  0  0  0  0  0  0  # atno 17321 bound_to 7965
  140.6280  143.2184  151.6555 LP  0  0  0  0  0  0  0  0  0  0  0  0  # atno 17342 bound_to 10162
  139.5157  144.3370  152.0775 LP  0  0  0  0  0  0  0  0  0  0  0  0  # atno 17343 bound_to 10162
  157.6231  130.8671  149.9143 LP  0  0  0  0  0  0  0  0  0  0  0  0  # atno 17370 bound_to 10713
  156.0759  130.3679  150.0678 LP  0  0  0  0  0  0  0  0  0  0  0  0  # atno 17371 bound_to 10713
  140.0028  135.0021  157.0227 LP  0  0  0  0  0  0  0  0  0  0  0  0  # atno 17394 bound_to 11000
  140.4735  134.1362  155.7206 LP  0  0  0  0  0  0  0  0  0  0  0  0  # atno 17395 bound_to 11000

$$$$
