AV-unprocessed.smi:1969|AV-procd|sdf|7959|dock2
  -GOLD-   2272010133D 1   1.00000     0.00000
 Structure written by MMmdl.
 44 45  0  0  0  0  0  0  0  0  1 V2000
  153.6313  140.6421  159.8908 C   0  0  0  0  0  0  0  0  0  0  0  0
  152.9030  141.5291  158.8757 C   0  0  1  0  0  0  0  0  0  0  0  0
  152.0027  140.7071  157.9357 C   0  0  0  0  0  0  0  0  0  0  0  0
  151.2525  141.5974  157.0614 N   0  0  0  0  0  0  0  0  0  0  0  0
  150.5291  140.9254  156.0662 C   0  0  0  0  0  0  0  0  0  0  0  0
  151.1766  139.9312  155.3050 C   0  0  0  0  0  0  0  0  0  0  0  0
  150.4448  139.2590  154.3082 C   0  0  0  0  0  0  0  0  0  0  0  0
  149.0900  139.5910  154.1073 C   0  0  0  0  0  0  0  0  0  0  0  0
  148.3816  138.9101  153.0814 N   0  0  0  0  0  0  0  0  0  0  0  0
  147.0516  138.7577  152.9362 C   0  0  0  0  0  0  0  0  0  0  0  0
  146.2076  139.2041  153.7120 O   0  0  0  0  0  0  0  0  0  0  0  0
  146.5925  137.9657  151.7107 C   0  0  0  0  0  0  0  0  0  0  0  0
  146.0234  136.7333  152.1268 O   0  0  0  0  0  0  0  0  0  0  0  0
  145.5860  135.9357  151.0384 C   0  0  0  0  0  0  0  0  0  0  0  0
  145.1832  134.5487  151.5535 C   0  0  0  0  0  0  0  0  0  0  0  0
  144.6363  133.8516  150.5585 F   0  0  0  0  0  0  0  0  0  0  0  0
  146.2557  133.8934  151.9969 F   0  0  0  0  0  0  0  0  0  0  0  0
  144.2909  134.6643  152.5367 F   0  0  0  0  0  0  0  0  0  0  0  0
  148.5349  140.6130  154.9154 C   0  0  0  0  0  0  0  0  0  0  0  0
  149.2322  141.2626  155.8719 N   0  0  0  0  0  0  0  0  0  0  0  0
  150.4562  142.5637  157.8072 C   0  0  0  0  0  0  0  0  0  0  0  0
  151.3416  143.3622  158.7843 C   0  0  2  0  0  0  0  0  0  0  0  0
  152.2267  144.4142  158.0923 C   0  0  0  0  0  0  0  0  0  0  0  0
  152.1052  142.4676  159.5988 O   0  0  0  0  0  0  0  0  0  0  0  0
  154.2653  139.9111  159.3885 H   0  0  0  0  0  0  0  0  0  0  0  0
  152.9248  140.0982  160.5186 H   0  0  0  0  0  0  0  0  0  0  0  0
  154.2672  141.2394  160.5445 H   0  0  0  0  0  0  0  0  0  0  0  0
  153.6539  142.0603  158.2907 H   0  0  0  0  0  0  0  0  0  0  0  0
  152.6078  140.0259  157.3358 H   0  0  0  0  0  0  0  0  0  0  0  0
  151.3112  140.0968  158.5190 H   0  0  0  0  0  0  0  0  0  0  0  0
  152.2143  139.6873  155.4802 H   0  0  0  0  0  0  0  0  0  0  0  0
  150.9196  138.4946  153.7104 H   0  0  0  0  0  0  0  0  0  0  0  0
  148.9542  138.4170  152.4115 H   0  0  0  0  0  0  0  0  0  0  0  0
  145.8602  138.5497  151.1504 H   0  0  0  0  0  0  0  0  0  0  0  0
  147.4506  137.7903  151.0602 H   0  0  0  0  0  0  0  0  0  0  0  0
  144.7369  136.4114  150.5448 H   0  0  0  0  0  0  0  0  0  0  0  0
  146.3832  135.8407  150.2994 H   0  0  0  0  0  0  0  0  0  0  0  0
  147.5164  140.9473  154.7946 H   0  0  0  0  0  0  0  0  0  0  0  0
  149.9432  143.2377  157.1200 H   0  0  0  0  0  0  0  0  0  0  0  0
  149.6852  142.0343  158.3689 H   0  0  0  0  0  0  0  0  0  0  0  0
  150.6815  143.9033  159.4627 H   0  0  0  0  0  0  0  0  0  0  0  0
  151.6142  145.1584  157.5832 H   0  0  0  0  0  0  0  0  0  0  0  0
  152.8868  143.9738  157.3455 H   0  0  0  0  0  0  0  0  0  0  0  0
  152.8461  144.9396  158.8193 H   0  0  0  0  0  0  0  0  0  0  0  0
  1  2  1  0  0  0  0
  1 25  1  0  0  0  0
  1 26  1  0  0  0  0
  1 27  1  0  0  0  0
  2 24  1  0  0  0  0
  2  3  1  0  0  0  0
  2 28  1  0  0  0  0
  3  4  1  0  0  0  0
  3 29  1  0  0  0  0
  3 30  1  0  0  0  0
  4  5  1  0  0  0  0
  4 21  1  0  0  0  0
  5 20  1  0  0  0  0
  5  6  2  0  0  0  0
  6  7  1  0  0  0  0
  6 31  1  0  0  0  0
  7  8  2  0  0  0  0
  7 32  1  0  0  0  0
  8  9  1  0  0  0  0
  8 19  1  0  0  0  0
  9 10  1  0  0  0  0
  9 33  1  0  0  0  0
 10 11  2  0  0  0  0
 10 12  1  0  0  0  0
 12 13  1  0  0  0  0
 12 34  1  0  0  0  0
 12 35  1  0  0  0  0
 13 14  1  0  0  0  0
 14 15  1  0  0  0  0
 14 36  1  0  0  0  0
 14 37  1  0  0  0  0
 15 16  1  0  0  0  0
 15 17  1  0  0  0  0
 15 18  1  0  0  0  0
 19 20  2  0  0  0  0
 19 38  1  0  0  0  0
 21 22  1  0  0  0  0
 21 39  1  0  0  0  0
 21 40  1  0  0  0  0
 22 23  1  0  0  0  0
 22 24  1  0  0  0  0
 22 41  1  0  0  0  0
 23 42  1  0  0  0  0
 23 43  1  0  0  0  0
 23 44  1  0  0  0  0
M  END
> <s_m_source_file>
AV-unprocessed.smi

> <i_m_source_file_index>
1969

> <i_lp_mmshare_version>
43012

> <i_f3d_flags>
0

> <s_epik_input>
W0NIM11bQ0BASF0xW0NIMl1OKFtDSDJdW0NASF0oTzEpW0NIM10pYzJbY0hdW2NIXWMoW2NIXW4yKVtOSF1DKD1PKVtDSDJdT1tDSDJdQyhGKShGKUY=

> <s_epik_cmdline>
J2VwaWtfcHl0aG9uJywgJy1waCcsICc3LjAnLCAnLXRuJywgJzgnLCAnLW1hJywgJzIwMCcsICctbWV0YWxfYmluZGluZycsICctaW1hZScsICc8aW5maWxlLm1hZT4nLCAnLW9tYWUnLCAnPG91dGZpbGUubWFlPic=

> <r_lp_tautomer_probability>
1

> <r_epik_Ionization_Penalty>
0.000531129

> <r_epik_Ionization_Penalty_Charging>
0

> <r_epik_Ionization_Penalty_Neutral>
0.000531129

> <r_epik_State_Penalty>
0.000331002

> <r_epik_Charging_Adjusted_Penalty>
0.000331002

> <i_epik_Tot_Q>
0

> <i_epik_Tot_abs_Q>
0

> <r_epik_Metal_State_Penalty>
-0

> <b_epik_Metal_Only>
0

> <s_lp_Force_Field>
OPLS_2005

> <r_lp_Energy>
27.2534

> <b_lp_Chiralities_Consistent>
1

> <s_lp_Variant>
AV-unprocessed.smi:1969-3

> <Gold.Version>
5.8.1

> <Gold.Id.Protein>
6NUR|6NUR_protein|mol2

> <Gold.PLP.Fitness>
46.6036

> <Gold.PLP.PLP>
-45.4607

> <Gold.PLP.part.hbond>
-2.0000

> <Gold.PLP.part.metal>
0.0000

> <Gold.PLP.part.buried>
-3.7417

> <Gold.PLP.part.nonpolar>
-42.9468

> <Gold.PLP.part.repulsive>
1.7997

> <Gold.PLP.ligand.clash>
0.0000

> <Gold.PLP.ligand.torsion>
0.3589

> <Gold.PLP.Chemscore.Hbond>
0.5499

> <Gold.PLP.Chemscore.CHOScore>
0.0000

> <Gold.PLP.Chemscore.Metal>
0.0000

> <Gold.Chemscore.Hbonds>
donor molecule, donor type, donor heavy atom, donor atom, acceptor molecule, acceptor atom, score
      L1  H     9    33       P1  7948  0.33

> <Gold.PLP.Chemscore.Internal.Correction>
0.2111

> <Gold.Rescore>
     Score         DG    S(hbond)    S(metal)    S(lipo)     H(rot)  DE(clash)    DE(int)     intcor
     13.21     -14.78       0.94        0.00      95.15       1.94       0.13       1.44       ----

> <Gold.Chemscore.Fitness>
13.2082

> <Gold.Chemscore.DG>
-14.7779

> <Gold.Chemscore.ZeroCoef>
-5.4800

> <Gold.Chemscore.Hbond>
0.9407

> <Gold.Chemscore.Metal>
0.0000

> <Gold.Chemscore.Lipo>
95.1457

> <Gold.Chemscore.Internal_Hbond>
0.0000

> <Gold.Chemscore.DEClash>
0.1329

> <Gold.Chemscore.DEInternal>
1.4367

> <Gold.Chemscore.Rot>
1.9438

> <Gold.Chemscore.Internal.Correction>
   9.000000E+99

> <Gold.Chemscore.Hbonds>
donor molecule, donor type, donor heavy atom, donor atom, acceptor molecule, acceptor atom, score
      L1  H     9    33       P1  7948  0.33

> <Gold.Chemscore.Hbond.Weighted>
-3.1419

> <Gold.Chemscore.Metal.Weighted>
-0.0000

> <Gold.Chemscore.Lipo.Weighted>
-11.1320

> <Gold.Chemscore.Internal_Hbond.Weighted>
0.0000

> <Gold.Chemscore.DEClash.Weighted>
0.1329

> <Gold.Chemscore.DEInternal.Weighted>
1.4367

> <Gold.Chemscore.Rot.Weighted>
4.9761

> <Gold.Chemscore.Internal.Correction.Weighted>
   9.000000E+99

> <Gold.Protein.RotatedTorsions>
[ 6907 6896 6895 6894 ] final -148.06 input  -60.11 | X-H torsion
[ 7974 7965 7964 7962 ] final  172.19 input  175.53 | X-H torsion
[ 8008 7997 7996 7995 ] final  -92.06 input   59.86 | X-H torsion
[ 10167 10162 10161 10158 ] final  -13.69 input  -65.29 | X-H torsion
[ 10718 10713 10712 10709 ] final -117.85 input   66.30 | X-H torsion
[ 10763 10752 10751 10750 ] final   30.95 input  -60.55 | X-H torsion
[ 11005 11000 10999 10996 ] final -153.46 input  -57.11 | X-H torsion

> <Gold.Protein.ActiveResidues>
 VAL166  LYS551  ARG553  GLY616  TRP617  ASP618  TYR619  PRO620  LYS621  CYS622 
 ASP623  PHE694  ASN695  SER759  ASP760  ASP761  ALA762  ILE779  LEU786  VAL792 
 PHE793  MET794  SER795  GLU796  ALA797  LYS798  CYS799  TRP800  GLU811  SER814 

> <Gold.Protein.RotatedAtoms>
  151.1644  133.4824  159.2593 H   0  0  0  0  0  0  0  0  0  0  0  0  # atno 6907 bound_to 6896
  151.1421  135.0184  159.8640 H   0  0  0  0  0  0  0  0  0  0  0  0  # atno 6908 bound_to 6896
  152.5462  134.1537  159.8582 H   0  0  0  0  0  0  0  0  0  0  0  0  # atno 6909 bound_to 6896
  144.7275  139.9461  143.6430 H   0  0  0  0  0  0  0  0  0  0  0  0  # atno 7974 bound_to 7965
  154.7185  140.0513  157.0617 H   0  0  0  0  0  0  0  0  0  0  0  0  # atno 8008 bound_to 7997
  155.0459  140.3174  155.4689 H   0  0  0  0  0  0  0  0  0  0  0  0  # atno 8009 bound_to 7997
  156.2810  140.2124  156.5584 H   0  0  0  0  0  0  0  0  0  0  0  0  # atno 8010 bound_to 7997
  140.7187  143.5399  150.9421 H   0  0  0  0  0  0  0  0  0  0  0  0  # atno 10167 bound_to 10162
  156.1063  130.6213  150.9216 H   0  0  0  0  0  0  0  0  0  0  0  0  # atno 10718 bound_to 10713
  153.0342  135.6451  154.1124 H   0  0  0  0  0  0  0  0  0  0  0  0  # atno 10763 bound_to 10752
  154.0842  135.2871  155.3286 H   0  0  0  0  0  0  0  0  0  0  0  0  # atno 10764 bound_to 10752
  154.6509  135.5426  153.7965 H   0  0  0  0  0  0  0  0  0  0  0  0  # atno 10765 bound_to 10752
  140.7079  134.3865  157.5201 H   0  0  0  0  0  0  0  0  0  0  0  0  # atno 11005 bound_to 11000
  146.0747  139.3735  143.0501 LP  0  0  0  0  0  0  0  0  0  0  0  0  # atno 17320 bound_to 7965
  145.7921  140.9810  143.1043 LP  0  0  0  0  0  0  0  0  0  0  0  0  # atno 17321 bound_to 7965
  139.9122  143.6707  152.3113 LP  0  0  0  0  0  0  0  0  0  0  0  0  # atno 17342 bound_to 10162
  139.7094  144.7623  151.1138 LP  0  0  0  0  0  0  0  0  0  0  0  0  # atno 17343 bound_to 10162
  157.6240  131.0927  150.8568 LP  0  0  0  0  0  0  0  0  0  0  0  0  # atno 17370 bound_to 10713
  156.8687  130.5138  149.5298 LP  0  0  0  0  0  0  0  0  0  0  0  0  # atno 17371 bound_to 10713
  139.8879  134.8870  156.2502 LP  0  0  0  0  0  0  0  0  0  0  0  0  # atno 17394 bound_to 11000
  141.0109  133.7096  156.1110 LP  0  0  0  0  0  0  0  0  0  0  0  0  # atno 17395 bound_to 11000

$$$$
