AV-unprocessed.smi:191|AV-procd|sdf|1493|dock9
  -GOLD-   2262019313D 1   1.00000     0.00000
 Structure written by MMmdl.
 46 48  0  0  0  0  0  0  0  0  1 V2000
  155.6257  140.9045  159.8151 C   0  0  0  0  0  0  0  0  0  0  0  0
  154.4644  140.7065  160.7979 C   0  0  0  0  0  0  0  0  0  0  0  0
  153.1923  141.1845  160.2619 N   0  0  0  0  0  0  0  0  0  0  0  0
  153.0369  142.6319  160.1122 C   0  0  0  0  0  0  0  0  0  0  0  0
  152.2104  143.2860  161.2373 C   0  0  2  0  0  0  0  0  0  0  0  0
  151.8942  144.7501  160.9109 C   0  0  0  0  0  0  0  0  0  0  0  0
  152.8879  143.1788  162.5402 C   0  0  0  0  0  0  0  0  0  0  0  0
  153.4204  143.0946  163.5638 N   0  0  0  0  0  0  0  0  0  0  0  0
  152.8016  140.4802  159.1777 C   0  0  0  0  0  0  0  0  0  0  0  0
  153.2148  139.1924  159.0899 N   0  0  0  0  0  0  0  0  0  0  0  0
  152.8563  138.4481  158.0395 C   0  0  0  0  0  0  0  0  0  0  0  0
  152.1064  138.7915  156.9896 N   0  0  0  0  0  0  0  0  0  0  0  0
  151.6892  140.0871  157.0772 C   0  0  0  0  0  0  0  0  0  0  0  0
  151.9907  140.9971  158.1289 C   0  0  0  0  0  0  0  0  0  0  0  0
  151.4014  142.2295  157.8764 N   0  0  0  0  0  0  0  0  0  0  0  0
  150.7900  142.0594  156.7361 C   0  0  0  0  0  0  0  0  0  0  0  0
  150.9009  140.7997  156.1902 N   0  0  0  0  0  0  0  0  0  0  0  0
  150.3203  140.3453  154.9355 C   0  0  0  0  0  0  0  0  0  0  0  0
  148.7793  140.4140  154.8875 C   0  0  0  0  0  0  0  0  0  0  0  0
  148.3029  141.8374  154.5487 C   0  0  0  0  0  0  0  0  0  0  0  0
  146.9076  141.9725  154.7304 O   0  0  0  0  0  0  0  0  0  0  0  0
  148.0876  139.2978  154.0924 C   0  0  0  0  0  0  0  0  0  0  0  0
  147.1958  138.9947  155.1860 O   0  0  0  0  0  0  0  0  0  0  0  0
  148.0395  139.7660  156.0670 C   0  0  0  0  0  0  0  0  0  0  0  0
  156.5661  140.5862  160.2650 H   0  0  0  0  0  0  0  0  0  0  0  0
  155.7301  141.9541  159.5380 H   0  0  0  0  0  0  0  0  0  0  0  0
  155.4894  140.3266  158.9013 H   0  0  0  0  0  0  0  0  0  0  0  0
  154.3745  139.6497  161.0522 H   0  0  0  0  0  0  0  0  0  0  0  0
  154.6989  141.2312  161.7261 H   0  0  0  0  0  0  0  0  0  0  0  0
  154.0226  143.0954  160.0872 H   0  0  0  0  0  0  0  0  0  0  0  0
  152.5787  142.8440  159.1456 H   0  0  0  0  0  0  0  0  0  0  0  0
  151.2606  142.7617  161.3441 H   0  0  0  0  0  0  0  0  0  0  0  0
  151.2879  145.2026  161.6960 H   0  0  0  0  0  0  0  0  0  0  0  0
  151.3406  144.8334  159.9753 H   0  0  0  0  0  0  0  0  0  0  0  0
  152.8068  145.3390  160.8138 H   0  0  0  0  0  0  0  0  0  0  0  0
  153.2230  137.4321  158.0403 H   0  0  0  0  0  0  0  0  0  0  0  0
  150.2307  142.8526  156.2611 H   0  0  0  0  0  0  0  0  0  0  0  0
  150.7524  140.9370  154.1276 H   0  0  0  0  0  0  0  0  0  0  0  0
  150.6634  139.3248  154.7611 H   0  0  0  0  0  0  0  0  0  0  0  0
  148.7938  142.5679  155.1930 H   0  0  0  0  0  0  0  0  0  0  0  0
  148.5615  142.1175  153.5276 H   0  0  0  0  0  0  0  0  0  0  0  0
  146.7137  141.8792  155.6509 H   0  0  0  0  0  0  0  0  0  0  0  0
  147.5601  139.6431  153.2026 H   0  0  0  0  0  0  0  0  0  0  0  0
  148.7382  138.4539  153.8557 H   0  0  0  0  0  0  0  0  0  0  0  0
  148.6622  139.1195  156.6870 H   0  0  0  0  0  0  0  0  0  0  0  0
  147.4770  140.4700  156.6814 H   0  0  0  0  0  0  0  0  0  0  0  0
  1  2  1  0  0  0  0
  1 25  1  0  0  0  0
  1 26  1  0  0  0  0
  1 27  1  0  0  0  0
  2  3  1  0  0  0  0
  2 28  1  0  0  0  0
  2 29  1  0  0  0  0
  3  4  1  0  0  0  0
  3  9  1  0  0  0  0
  4  5  1  0  0  0  0
  4 30  1  0  0  0  0
  4 31  1  0  0  0  0
  5  6  1  0  0  0  0
  5  7  1  0  0  0  0
  5 32  1  0  0  0  0
  6 33  1  0  0  0  0
  6 34  1  0  0  0  0
  6 35  1  0  0  0  0
  7  8  3  0  0  0  0
  9 14  1  0  0  0  0
  9 10  2  0  0  0  0
 10 11  1  0  0  0  0
 11 12  2  0  0  0  0
 11 36  1  0  0  0  0
 12 13  1  0  0  0  0
 13 17  1  0  0  0  0
 13 14  2  0  0  0  0
 14 15  1  0  0  0  0
 15 16  2  0  0  0  0
 16 17  1  0  0  0  0
 16 37  1  0  0  0  0
 17 18  1  0  0  0  0
 18 19  1  0  0  0  0
 18 38  1  0  0  0  0
 18 39  1  0  0  0  0
 19 24  1  0  0  0  0
 19 20  1  0  0  0  0
 19 22  1  0  0  0  0
 20 21  1  0  0  0  0
 20 40  1  0  0  0  0
 20 41  1  0  0  0  0
 21 42  1  0  0  0  0
 22 23  1  0  0  0  0
 22 43  1  0  0  0  0
 22 44  1  0  0  0  0
 23 24  1  0  0  0  0
 24 45  1  0  0  0  0
 24 46  1  0  0  0  0
M  END
> <s_m_source_file>
AV-unprocessed.smi

> <i_m_source_file_index>
191

> <i_lp_mmshare_version>
43012

> <i_f3d_flags>
0

> <s_epik_input>
TiNDW0NAQEhdKFtDSDNdKVtDSDJdTihbQ0gyXVtDSDNdKWMobltjSF1uMSljKGMxMiluW2NIXW4yW0NIMl1DMyhbQ0gyXVtPSF0pW0NIMl1PW0NIMl0z

> <s_epik_cmdline>
J2VwaWtfcHl0aG9uJywgJy1waCcsICc3LjAnLCAnLXRuJywgJzgnLCAnLW1hJywgJzIwMCcsICctbWV0YWxfYmluZGluZycsICctaW1hZScsICc8aW5maWxlLm1hZT4nLCAnLW9tYWUnLCAnPG91dGZpbGUubWFlPic=

> <r_lp_tautomer_probability>
1

> <r_epik_Ionization_Penalty>
0.000569684

> <r_epik_Ionization_Penalty_Charging>
0

> <r_epik_Ionization_Penalty_Neutral>
0.000569684

> <r_epik_State_Penalty>
0.000286009

> <r_epik_Charging_Adjusted_Penalty>
0.000286009

> <i_epik_Tot_Q>
0

> <i_epik_Tot_abs_Q>
0

> <r_epik_Metal_State_Penalty>
-0

> <b_epik_Metal_Only>
0

> <s_lp_Force_Field>
OPLS_2005

> <r_lp_Energy>
28.3961

> <b_lp_Chiralities_Consistent>
1

> <s_lp_Variant>
AV-unprocessed.smi:191-1

> <Gold.Version>
5.8.1

> <Gold.Id.Protein>
6NUR|6NUR_protein|mol2

> <Gold.PLP.Fitness>
44.1619

> <Gold.PLP.PLP>
-43.9819

> <Gold.PLP.part.hbond>
0.0000

> <Gold.PLP.part.metal>
0.0000

> <Gold.PLP.part.buried>
-4.5711

> <Gold.PLP.part.nonpolar>
-39.0669

> <Gold.PLP.part.repulsive>
0.2132

> <Gold.PLP.ligand.clash>
0.0000

> <Gold.PLP.ligand.torsion>
1.8109

> <Gold.PLP.Chemscore.Hbond>
0.0000

> <Gold.PLP.Chemscore.CHOScore>
1.0000

> <Gold.PLP.Chemscore.Metal>
0.0000

> <Gold.Chemscore.Hbonds>
donor molecule, donor type, donor heavy atom, donor atom, acceptor molecule, acceptor atom, score
      L1  C    16    37       P1  8028  1.00

> <Gold.PLP.Chemscore.Internal.Correction>
0.8018

> <Gold.Rescore>
     Score         DG    S(hbond)    S(metal)    S(lipo)     H(rot)  DE(clash)    DE(int)     intcor
      1.98      -6.72       0.00        0.00      85.64       3.43       0.17       4.56       ----

> <Gold.Chemscore.Fitness>
1.9819

> <Gold.Chemscore.DG>
-6.7180

> <Gold.Chemscore.ZeroCoef>
-5.4800

> <Gold.Chemscore.Hbond>
0.0000

> <Gold.Chemscore.Metal>
0.0000

> <Gold.Chemscore.Lipo>
85.6385

> <Gold.Chemscore.Internal_Hbond>
0.0000

> <Gold.Chemscore.DEClash>
0.1731

> <Gold.Chemscore.DEInternal>
4.5631

> <Gold.Chemscore.Rot>
3.4303

> <Gold.Chemscore.Internal.Correction>
   9.000000E+99

> <Gold.Chemscore.Hbond.Weighted>
-0.0000

> <Gold.Chemscore.Metal.Weighted>
-0.0000

> <Gold.Chemscore.Lipo.Weighted>
-10.0197

> <Gold.Chemscore.Internal_Hbond.Weighted>
0.0000

> <Gold.Chemscore.DEClash.Weighted>
0.1731

> <Gold.Chemscore.DEInternal.Weighted>
4.5631

> <Gold.Chemscore.Rot.Weighted>
8.7817

> <Gold.Chemscore.Internal.Correction.Weighted>
   9.000000E+99

> <Gold.Protein.RotatedTorsions>
[ 6907 6896 6895 6894 ] final  -42.60 input  -60.11 | X-H torsion
[ 7974 7965 7964 7962 ] final   30.71 input  175.53 | X-H torsion
[ 8008 7997 7996 7995 ] final  135.14 input   59.86 | X-H torsion
[ 10167 10162 10161 10158 ] final  177.16 input  -65.29 | X-H torsion
[ 10718 10713 10712 10709 ] final   46.98 input   66.30 | X-H torsion
[ 10763 10752 10751 10750 ] final  -61.76 input  -60.55 | X-H torsion
[ 11005 11000 10999 10996 ] final  152.98 input  -57.11 | X-H torsion

> <Gold.Protein.ActiveResidues>
 VAL166  LYS551  ARG553  GLY616  TRP617  ASP618  TYR619  PRO620  LYS621  CYS622 
 ASP623  PHE694  ASN695  SER759  ASP760  ASP761  ALA762  ILE779  LEU786  VAL792 
 PHE793  MET794  SER795  GLU796  ALA797  LYS798  CYS799  TRP800  GLU811  SER814 

> <Gold.Protein.RotatedAtoms>
  150.9534  134.8931  159.7685 H   0  0  0  0  0  0  0  0  0  0  0  0  # atno 6907 bound_to 6896
  152.5128  134.3774  159.9349 H   0  0  0  0  0  0  0  0  0  0  0  0  # atno 6908 bound_to 6896
  151.3789  133.3788  159.2742 H   0  0  0  0  0  0  0  0  0  0  0  0  # atno 6909 bound_to 6896
  146.1595  139.6752  142.9043 H   0  0  0  0  0  0  0  0  0  0  0  0  # atno 7974 bound_to 7965
  156.3002  140.2478  156.3533 H   0  0  0  0  0  0  0  0  0  0  0  0  # atno 8008 bound_to 7997
  154.8946  140.0408  157.1877 H   0  0  0  0  0  0  0  0  0  0  0  0  # atno 8009 bound_to 7997
  154.8563  140.2913  155.5571 H   0  0  0  0  0  0  0  0  0  0  0  0  # atno 8010 bound_to 7997
  139.5242  144.2831  152.0529 H   0  0  0  0  0  0  0  0  0  0  0  0  # atno 10167 bound_to 10162
  157.4538  130.8154  149.7815 H   0  0  0  0  0  0  0  0  0  0  0  0  # atno 10718 bound_to 10713
  154.2896  135.6256  153.5380 H   0  0  0  0  0  0  0  0  0  0  0  0  # atno 10763 bound_to 10752
  152.9854  135.5652  154.5405 H   0  0  0  0  0  0  0  0  0  0  0  0  # atno 10764 bound_to 10752
  154.5013  135.2872  155.1394 H   0  0  0  0  0  0  0  0  0  0  0  0  # atno 10765 bound_to 10752
  140.1357  134.8772  157.2264 H   0  0  0  0  0  0  0  0  0  0  0  0  # atno 11005 bound_to 11000
  145.4624  141.0433  143.2744 LP  0  0  0  0  0  0  0  0  0  0  0  0  # atno 17320 bound_to 7965
  144.8008  139.6145  143.7072 LP  0  0  0  0  0  0  0  0  0  0  0  0  # atno 17321 bound_to 7965
  140.2285  144.4393  150.6310 LP  0  0  0  0  0  0  0  0  0  0  0  0  # atno 17342 bound_to 10162
  140.6371  143.2197  151.6371 LP  0  0  0  0  0  0  0  0  0  0  0  0  # atno 17343 bound_to 10162
  155.9998  130.3886  150.2649 LP  0  0  0  0  0  0  0  0  0  0  0  0  # atno 17370 bound_to 10713
  157.0823  131.0147  151.3152 LP  0  0  0  0  0  0  0  0  0  0  0  0  # atno 17371 bound_to 10713
  140.2786  134.3377  155.7350 LP  0  0  0  0  0  0  0  0  0  0  0  0  # atno 17394 bound_to 11000
  141.2178  133.7465  156.9329 LP  0  0  0  0  0  0  0  0  0  0  0  0  # atno 17395 bound_to 11000

$$$$
