AV-unprocessed.smi:916|AV-procd|sdf|4159|dock6
  -GOLD-   22720 2 63D 1   1.00000     0.00000
 Structure written by MMmdl.
 43 44  0  0  0  0  0  0  0  0  1 V2000
  143.8058  132.6912  148.6268 C   0  0  0  0  0  0  0  0  0  0  0  0
  144.5060  132.3776  149.9537 C   0  0  0  0  0  0  0  0  0  0  0  0
  144.4743  133.5376  150.9020 C   0  0  0  0  0  0  0  0  0  0  0  0
  143.3801  134.0218  151.5768 C   0  0  0  0  0  0  0  0  0  0  0  0
  143.7824  135.3896  152.5801 S   0  0  0  0  0  0  0  0  0  0  0  0
  145.4458  135.2519  152.0331 C   0  0  0  0  0  0  0  0  0  0  0  0
  146.4607  136.1360  152.4836 N   0  0  0  0  0  0  0  0  0  0  0  0
  146.3701  137.0945  153.4224 C   0  0  0  0  0  0  0  0  0  0  0  0
  145.3604  137.3596  154.0755 O   0  0  0  0  0  0  0  0  0  0  0  0
  147.5339  137.7414  153.5698 N   0  0  0  0  0  0  0  0  0  0  0  0
  147.7523  138.8391  154.5037 C   0  0  0  0  0  0  0  0  0  0  0  0
  148.3445  140.0766  153.7908 C   0  0  1  0  0  0  0  0  0  0  0  0
  147.2813  141.1050  153.4274 C   0  0  0  0  0  0  0  0  0  0  0  0
  147.1759  141.9711  154.6848 C   0  0  0  0  0  0  0  0  0  0  0  0
  148.3344  141.6822  155.4619 O   0  0  0  0  0  0  0  0  0  0  0  0
  149.2592  140.9450  154.6727 C   0  0  1  0  0  0  0  0  0  0  0  0
  150.3024  140.2191  155.5528 C   0  0  0  0  0  0  0  0  0  0  0  0
  151.1994  141.2274  156.2892 C   0  0  0  0  0  0  0  0  0  0  0  0
  151.1694  139.2515  154.7293 C   0  0  0  0  0  0  0  0  0  0  0  0
  145.6480  134.2479  151.1726 N   0  0  0  0  0  0  0  0  0  0  0  0
  143.8379  131.8309  147.9580 H   0  0  0  0  0  0  0  0  0  0  0  0
  144.2850  133.5271  148.1163 H   0  0  0  0  0  0  0  0  0  0  0  0
  142.7590  132.9514  148.7858 H   0  0  0  0  0  0  0  0  0  0  0  0
  144.0328  131.5078  150.4109 H   0  0  0  0  0  0  0  0  0  0  0  0
  145.5381  132.0860  149.7560 H   0  0  0  0  0  0  0  0  0  0  0  0
  142.3642  133.6571  151.5442 H   0  0  0  0  0  0  0  0  0  0  0  0
  147.3603  136.0252  152.0398 H   0  0  0  0  0  0  0  0  0  0  0  0
  148.3166  137.4628  152.9968 H   0  0  0  0  0  0  0  0  0  0  0  0
  146.8129  139.0971  154.9960 H   0  0  0  0  0  0  0  0  0  0  0  0
  148.4297  138.4825  155.2796 H   0  0  0  0  0  0  0  0  0  0  0  0
  148.8777  139.7472  152.8980 H   0  0  0  0  0  0  0  0  0  0  0  0
  147.6356  141.7153  152.5953 H   0  0  0  0  0  0  0  0  0  0  0  0
  146.3238  140.6763  153.1310 H   0  0  0  0  0  0  0  0  0  0  0  0
  147.1321  143.0314  154.4348 H   0  0  0  0  0  0  0  0  0  0  0  0
  146.2878  141.7219  155.2661 H   0  0  0  0  0  0  0  0  0  0  0  0
  149.7800  141.6602  154.0323 H   0  0  0  0  0  0  0  0  0  0  0  0
  149.7798  139.6424  156.3162 H   0  0  0  0  0  0  0  0  0  0  0  0
  151.7506  141.8546  155.5881 H   0  0  0  0  0  0  0  0  0  0  0  0
  151.9262  140.7176  156.9223 H   0  0  0  0  0  0  0  0  0  0  0  0
  150.6134  141.8838  156.9331 H   0  0  0  0  0  0  0  0  0  0  0  0
  151.7203  139.7805  153.9510 H   0  0  0  0  0  0  0  0  0  0  0  0
  150.5687  138.4824  154.2444 H   0  0  0  0  0  0  0  0  0  0  0  0
  151.8966  138.7419  155.3617 H   0  0  0  0  0  0  0  0  0  0  0  0
  1  2  1  0  0  0  0
  1 21  1  0  0  0  0
  1 22  1  0  0  0  0
  1 23  1  0  0  0  0
  2  3  1  0  0  0  0
  2 24  1  0  0  0  0
  2 25  1  0  0  0  0
  3 20  1  0  0  0  0
  3  4  2  0  0  0  0
  4  5  1  0  0  0  0
  4 26  1  0  0  0  0
  5  6  1  0  0  0  0
  6  7  1  0  0  0  0
  6 20  2  0  0  0  0
  7  8  1  0  0  0  0
  7 27  1  0  0  0  0
  8  9  2  0  0  0  0
  8 10  1  0  0  0  0
 10 11  1  0  0  0  0
 10 28  1  0  0  0  0
 11 12  1  0  0  0  0
 11 29  1  0  0  0  0
 11 30  1  0  0  0  0
 12 16  1  0  0  0  0
 12 13  1  0  0  0  0
 12 31  1  0  0  0  0
 13 14  1  0  0  0  0
 13 32  1  0  0  0  0
 13 33  1  0  0  0  0
 14 15  1  0  0  0  0
 14 34  1  0  0  0  0
 14 35  1  0  0  0  0
 15 16  1  0  0  0  0
 16 17  1  0  0  0  0
 16 36  1  0  0  0  0
 17 18  1  0  0  0  0
 17 19  1  0  0  0  0
 17 37  1  0  0  0  0
 18 38  1  0  0  0  0
 18 39  1  0  0  0  0
 18 40  1  0  0  0  0
 19 41  1  0  0  0  0
 19 42  1  0  0  0  0
 19 43  1  0  0  0  0
M  END
> <s_m_source_file>
AV-unprocessed.smi

> <i_m_source_file_index>
916

> <i_lp_mmshare_version>
43012

> <i_f3d_flags>
0

> <s_epik_input>
W0NIM11bQ0gyXWMxW2NIXXNjKG4xKVtOSF1DKD1PKVtOSF1bQ0gyXVtDQEBIXTJbQ0gyXVtDSDJdT1tDQEhdMltDSF0oW0NIM10pW0NIM10=

> <s_epik_cmdline>
J2VwaWtfcHl0aG9uJywgJy1waCcsICc3LjAnLCAnLXRuJywgJzgnLCAnLW1hJywgJzIwMCcsICctbWV0YWxfYmluZGluZycsICctaW1hZScsICc8aW5maWxlLm1hZT4nLCAnLW9tYWUnLCAnPG91dGZpbGUubWFlPic=

> <r_lp_tautomer_probability>
0.999

> <r_epik_Ionization_Penalty>
0.000518907

> <r_epik_Ionization_Penalty_Charging>
0

> <r_epik_Ionization_Penalty_Neutral>
0.000518907

> <r_epik_State_Penalty>
0.000177984

> <r_epik_Charging_Adjusted_Penalty>
0.000177984

> <i_epik_Tot_Q>
0

> <i_epik_Tot_abs_Q>
0

> <r_epik_Metal_State_Penalty>
-0

> <b_epik_Metal_Only>
0

> <s_lp_Force_Field>
OPLS_2005

> <r_lp_Energy>
19.5432

> <b_lp_Chiralities_Consistent>
1

> <s_lp_Variant>
AV-unprocessed.smi:916-2

> <Gold.Version>
5.8.1

> <Gold.Id.Protein>
6NUR|6NUR_protein|mol2

> <Gold.PLP.Fitness>
42.7233

> <Gold.PLP.PLP>
-35.9426

> <Gold.PLP.part.hbond>
-2.0000

> <Gold.PLP.part.metal>
0.0000

> <Gold.PLP.part.buried>
-1.5468

> <Gold.PLP.part.nonpolar>
-32.2327

> <Gold.PLP.part.repulsive>
0.7180

> <Gold.PLP.ligand.clash>
0.0000

> <Gold.PLP.ligand.torsion>
0.6429

> <Gold.PLP.Chemscore.Hbond>
1.9440

> <Gold.PLP.Chemscore.CHOScore>
0.7219

> <Gold.PLP.Chemscore.Metal>
0.0000

> <Gold.Chemscore.Hbonds>
donor molecule, donor type, donor heavy atom, donor atom, acceptor molecule, acceptor atom, score
      L1  H     7    27       P1  7948  1.00
      L1  H    10    28       P1  7948  0.93
      L1  C     4    26       P1 10186  0.72

> <Gold.PLP.Chemscore.Internal.Correction>
0.0689

> <Gold.Rescore>
     Score         DG    S(hbond)    S(metal)    S(lipo)     H(rot)  DE(clash)    DE(int)     intcor
     16.49     -18.60       1.92        0.00      90.53       1.52       0.30       1.81       ----

> <Gold.Chemscore.Fitness>
16.4903

> <Gold.Chemscore.DG>
-18.5969

> <Gold.Chemscore.ZeroCoef>
-5.4800

> <Gold.Chemscore.Hbond>
1.9240

> <Gold.Chemscore.Metal>
0.0000

> <Gold.Chemscore.Lipo>
90.5256

> <Gold.Chemscore.Internal_Hbond>
0.0000

> <Gold.Chemscore.DEClash>
0.2981

> <Gold.Chemscore.DEInternal>
1.8085

> <Gold.Chemscore.Rot>
1.5238

> <Gold.Chemscore.Internal.Correction>
   9.000000E+99

> <Gold.Chemscore.Hbonds>
donor molecule, donor type, donor heavy atom, donor atom, acceptor molecule, acceptor atom, score
      L1  H     7    27       P1  7948  0.97
      L1  H    10    28       P1  7948  0.91

> <Gold.Chemscore.Hbond.Weighted>
-6.4262

> <Gold.Chemscore.Metal.Weighted>
-0.0000

> <Gold.Chemscore.Lipo.Weighted>
-10.5915

> <Gold.Chemscore.Internal_Hbond.Weighted>
0.0000

> <Gold.Chemscore.DEClash.Weighted>
0.2981

> <Gold.Chemscore.DEInternal.Weighted>
1.8085

> <Gold.Chemscore.Rot.Weighted>
3.9008

> <Gold.Chemscore.Internal.Correction.Weighted>
   9.000000E+99

> <Gold.Protein.RotatedTorsions>
[ 6907 6896 6895 6894 ] final   75.82 input  -60.11 | X-H torsion
[ 7974 7965 7964 7962 ] final   89.22 input  175.53 | X-H torsion
[ 8008 7997 7996 7995 ] final   84.89 input   59.86 | X-H torsion
[ 10167 10162 10161 10158 ] final  -21.32 input  -65.29 | X-H torsion
[ 10718 10713 10712 10709 ] final  124.43 input   66.30 | X-H torsion
[ 10763 10752 10751 10750 ] final   61.14 input  -60.55 | X-H torsion
[ 11005 11000 10999 10996 ] final  121.90 input  -57.11 | X-H torsion

> <Gold.Protein.ActiveResidues>
 VAL166  LYS551  ARG553  GLY616  TRP617  ASP618  TYR619  PRO620  LYS621  CYS622 
 ASP623  PHE694  ASN695  SER759  ASP760  ASP761  ALA762  ILE779  LEU786  VAL792 
 PHE793  MET794  SER795  GLU796  ALA797  LYS798  CYS799  TRP800  GLU811  SER814 

> <Gold.Protein.RotatedAtoms>
  152.5044  134.4063  159.9433 H   0  0  0  0  0  0  0  0  0  0  0  0  # atno 6907 bound_to 6896
  151.4029  133.3746  159.2742 H   0  0  0  0  0  0  0  0  0  0  0  0  # atno 6908 bound_to 6896
  150.9348  134.8783  159.7634 H   0  0  0  0  0  0  0  0  0  0  0  0  # atno 6909 bound_to 6896
  145.5353  139.2285  143.2596 H   0  0  0  0  0  0  0  0  0  0  0  0  # atno 7974 bound_to 7965
  155.9429  140.3406  155.6342 H   0  0  0  0  0  0  0  0  0  0  0  0  # atno 8008 bound_to 7997
  155.7017  140.0761  157.2426 H   0  0  0  0  0  0  0  0  0  0  0  0  # atno 8009 bound_to 7997
  154.4106  140.1639  156.2186 H   0  0  0  0  0  0  0  0  0  0  0  0  # atno 8010 bound_to 7997
  140.7281  143.4639  151.0341 H   0  0  0  0  0  0  0  0  0  0  0  0  # atno 10167 bound_to 10162
  157.5586  131.1091  150.8579 H   0  0  0  0  0  0  0  0  0  0  0  0  # atno 10718 bound_to 10713
  152.9941  135.5511  154.5987 H   0  0  0  0  0  0  0  0  0  0  0  0  # atno 10763 bound_to 10752
  154.5333  135.2815  155.1163 H   0  0  0  0  0  0  0  0  0  0  0  0  # atno 10764 bound_to 10752
  154.2470  135.6406  153.5279 H   0  0  0  0  0  0  0  0  0  0  0  0  # atno 10765 bound_to 10752
  139.9245  134.9640  156.8027 H   0  0  0  0  0  0  0  0  0  0  0  0  # atno 11005 bound_to 11000
  146.2017  140.6171  142.9099 LP  0  0  0  0  0  0  0  0  0  0  0  0  # atno 17320 bound_to 7965
  144.7605  140.5410  143.6739 LP  0  0  0  0  0  0  0  0  0  0  0  0  # atno 17321 bound_to 7965
  139.8326  143.7671  152.3180 LP  0  0  0  0  0  0  0  0  0  0  0  0  # atno 17342 bound_to 10162
  139.7792  144.7450  151.0113 LP  0  0  0  0  0  0  0  0  0  0  0  0  # atno 17343 bound_to 10162
  156.9083  130.5271  149.5281 LP  0  0  0  0  0  0  0  0  0  0  0  0  # atno 17370 bound_to 10713
  156.0641  130.5688  150.9253 LP  0  0  0  0  0  0  0  0  0  0  0  0  # atno 17371 bound_to 10713
  140.6376  133.9848  155.7692 LP  0  0  0  0  0  0  0  0  0  0  0  0  # atno 17394 bound_to 11000
  141.0792  134.0088  157.3411 LP  0  0  0  0  0  0  0  0  0  0  0  0  # atno 17395 bound_to 11000

$$$$
