AV-unprocessed.smi:171|AV-procd|sdf|1414|dock6
  -GOLD-   2262019173D 1   1.00000     0.00000
 Structure written by MMmdl.
 56 59  0  0  0  0  0  0  0  0  1 V2000
  148.7954  138.7834  155.1401 C   0  0  0  0  0  0  0  0  0  0  0  0
  150.2329  138.9283  154.6135 C   0  0  0  0  0  0  0  0  0  0  0  0
  150.6830  137.6241  153.9357 C   0  0  0  0  0  0  0  0  0  0  0  0
  151.2361  139.3499  155.7206 C   0  0  0  0  0  0  0  0  0  0  0  0
  150.7331  140.4074  156.7464 C   0  0  2  0  0  0  0  0  0  0  0  0
  150.2793  141.7260  156.0790 C   0  0  0  0  0  0  0  0  0  0  0  0
  149.5555  141.6914  155.0855 O   0  0  0  0  0  0  0  0  0  0  0  0
  150.6600  142.8971  156.6178 N   0  0  0  0  0  0  0  0  0  0  0  0
  151.5161  143.0517  157.7906 C   0  0  0  0  0  0  0  0  0  0  0  0
  151.5399  141.7912  158.6663 C   0  0  0  0  0  0  0  0  0  0  0  0
  151.7100  140.6110  157.8294 N   0  0  0  0  0  0  0  0  0  0  0  0
  152.0660  139.5173  158.5394 C   0  0  0  0  0  0  0  0  0  0  0  0
  151.1227  138.6214  158.9306 N   0  0  0  0  0  0  0  0  0  0  0  0
  151.4857  137.5295  159.6110 C   0  0  0  0  0  0  0  0  0  0  0  0
  152.7086  137.1487  159.9887 N   0  0  0  0  0  0  0  0  0  0  0  0
  153.6534  138.0523  159.5982 C   0  0  0  0  0  0  0  0  0  0  0  0
  153.4169  139.2602  158.8871 C   0  0  0  0  0  0  0  0  0  0  0  0
  154.6122  139.9330  158.6715 N   0  0  0  0  0  0  0  0  0  0  0  0
  155.5105  139.1576  159.2141 C   0  0  0  0  0  0  0  0  0  0  0  0
  155.0242  137.9999  159.7801 N   0  0  0  0  0  0  0  0  0  0  0  0
  155.7988  136.9537  160.4287 C   0  0  0  0  0  0  0  0  0  0  0  0
  155.8335  137.0860  161.9744 C   0  0  1  0  0  0  0  0  0  0  0  0
  156.4620  138.3149  162.2986 O   0  0  0  0  0  0  0  0  0  0  0  0
  154.4474  137.0914  162.6157 C   0  0  0  0  0  0  0  0  0  0  0  0
  154.6984  136.4852  163.9876 C   0  0  0  0  0  0  0  0  0  0  0  0
  155.6369  135.4645  163.7004 O   0  0  0  0  0  0  0  0  0  0  0  0
  156.5744  135.9579  162.7473 C   0  0  1  0  0  0  0  0  0  0  0  0
  157.0774  134.7639  161.9210 C   0  0  0  0  0  0  0  0  0  0  0  0
  148.7368  138.0408  155.9365 H   0  0  0  0  0  0  0  0  0  0  0  0
  148.1183  138.4696  154.3454 H   0  0  0  0  0  0  0  0  0  0  0  0
  148.4117  139.7242  155.5315 H   0  0  0  0  0  0  0  0  0  0  0  0
  150.2157  139.6882  153.8331 H   0  0  0  0  0  0  0  0  0  0  0  0
  150.7284  136.8010  154.6495 H   0  0  0  0  0  0  0  0  0  0  0  0
  151.6716  137.7336  153.4881 H   0  0  0  0  0  0  0  0  0  0  0  0
  149.9969  137.3375  153.1382 H   0  0  0  0  0  0  0  0  0  0  0  0
  151.5983  138.4627  156.2417 H   0  0  0  0  0  0  0  0  0  0  0  0
  152.1324  139.7536  155.2480 H   0  0  0  0  0  0  0  0  0  0  0  0
  149.8225  140.0114  157.1990 H   0  0  0  0  0  0  0  0  0  0  0  0
  150.3404  143.7450  156.1722 H   0  0  0  0  0  0  0  0  0  0  0  0
  152.5243  143.2737  157.4390 H   0  0  0  0  0  0  0  0  0  0  0  0
  151.1862  143.9130  158.3716 H   0  0  0  0  0  0  0  0  0  0  0  0
  152.3414  141.8682  159.4032 H   0  0  0  0  0  0  0  0  0  0  0  0
  150.6035  141.7032  159.2201 H   0  0  0  0  0  0  0  0  0  0  0  0
  150.6824  136.8625  159.8873 H   0  0  0  0  0  0  0  0  0  0  0  0
  156.5617  139.4062  159.2064 H   0  0  0  0  0  0  0  0  0  0  0  0
  155.3669  135.9962  160.1363 H   0  0  0  0  0  0  0  0  0  0  0  0
  156.8100  136.9757  160.0207 H   0  0  0  0  0  0  0  0  0  0  0  0
  155.7943  138.9760  162.3989 H   0  0  0  0  0  0  0  0  0  0  0  0
  153.9830  138.0779  162.6589 H   0  0  0  0  0  0  0  0  0  0  0  0
  153.7765  136.4329  162.0627 H   0  0  0  0  0  0  0  0  0  0  0  0
  155.1391  137.2148  164.6686 H   0  0  0  0  0  0  0  0  0  0  0  0
  153.7936  136.0838  164.4442 H   0  0  0  0  0  0  0  0  0  0  0  0
  157.4189  136.3702  163.3030 H   0  0  0  0  0  0  0  0  0  0  0  0
  157.8097  135.0748  161.1757 H   0  0  0  0  0  0  0  0  0  0  0  0
  156.2594  134.2582  161.4077 H   0  0  0  0  0  0  0  0  0  0  0  0
  157.5610  134.0292  162.5650 H   0  0  0  0  0  0  0  0  0  0  0  0
  1  2  1  0  0  0  0
  1 29  1  0  0  0  0
  1 30  1  0  0  0  0
  1 31  1  0  0  0  0
  2  3  1  0  0  0  0
  2  4  1  0  0  0  0
  2 32  1  0  0  0  0
  3 33  1  0  0  0  0
  3 34  1  0  0  0  0
  3 35  1  0  0  0  0
  4  5  1  0  0  0  0
  4 36  1  0  0  0  0
  4 37  1  0  0  0  0
  5 11  1  0  0  0  0
  5  6  1  0  0  0  0
  5 38  1  0  0  0  0
  6  7  2  0  0  0  0
  6  8  1  0  0  0  0
  8  9  1  0  0  0  0
  8 39  1  0  0  0  0
  9 10  1  0  0  0  0
  9 40  1  0  0  0  0
  9 41  1  0  0  0  0
 10 11  1  0  0  0  0
 10 42  1  0  0  0  0
 10 43  1  0  0  0  0
 11 12  1  0  0  0  0
 12 17  1  0  0  0  0
 12 13  2  0  0  0  0
 13 14  1  0  0  0  0
 14 15  2  0  0  0  0
 14 44  1  0  0  0  0
 15 16  1  0  0  0  0
 16 20  1  0  0  0  0
 16 17  2  0  0  0  0
 17 18  1  0  0  0  0
 18 19  2  0  0  0  0
 19 20  1  0  0  0  0
 19 45  1  0  0  0  0
 20 21  1  0  0  0  0
 21 22  1  0  0  0  0
 21 46  1  0  0  0  0
 21 47  1  0  0  0  0
 22 27  1  0  0  0  0
 22 23  1  0  0  0  0
 22 24  1  0  0  0  0
 23 48  1  0  0  0  0
 24 25  1  0  0  0  0
 24 49  1  0  0  0  0
 24 50  1  0  0  0  0
 25 26  1  0  0  0  0
 25 51  1  0  0  0  0
 25 52  1  0  0  0  0
 26 27  1  0  0  0  0
 27 28  1  0  0  0  0
 27 53  1  0  0  0  0
 28 54  1  0  0  0  0
 28 55  1  0  0  0  0
 28 56  1  0  0  0  0
M  END
> <s_m_source_file>
AV-unprocessed.smi

> <i_m_source_file_index>
171

> <i_lp_mmshare_version>
43012

> <i_f3d_flags>
0

> <s_epik_input>
W0NIM11bQ0hdKFtDSDNdKVtDSDJdW0NAQEhdMUMoPU8pW05IXVtDSDJdW0NIMl1OMWMobltjSF1uMiljKGMyMyluW2NIXW4zW0NIMl1bQ0BAXTQoW09IXSlbQ0gyXVtDSDJdT1tDQEhdNFtDSDNd

> <s_epik_cmdline>
J2VwaWtfcHl0aG9uJywgJy1waCcsICc3LjAnLCAnLXRuJywgJzgnLCAnLW1hJywgJzIwMCcsICctbWV0YWxfYmluZGluZycsICctaW1hZScsICc8aW5maWxlLm1hZT4nLCAnLW9tYWUnLCAnPG91dGZpbGUubWFlPic=

> <r_lp_tautomer_probability>
1

> <r_epik_Ionization_Penalty>
0.000670584

> <r_epik_Ionization_Penalty_Charging>
0

> <r_epik_Ionization_Penalty_Neutral>
0.000670584

> <r_epik_State_Penalty>
0.000304767

> <r_epik_Charging_Adjusted_Penalty>
0.000304767

> <i_epik_Tot_Q>
0

> <i_epik_Tot_abs_Q>
0

> <r_epik_Metal_State_Penalty>
-0

> <b_epik_Metal_Only>
0

> <s_lp_Force_Field>
OPLS_2005

> <r_lp_Energy>
42.1077

> <b_lp_Chiralities_Consistent>
1

> <s_lp_Variant>
AV-unprocessed.smi:171-1

> <Gold.Version>
5.8.1

> <Gold.Id.Protein>
6NUR|6NUR_protein|mol2

> <Gold.PLP.Fitness>
46.6140

> <Gold.PLP.PLP>
-41.0368

> <Gold.PLP.part.hbond>
-4.0367

> <Gold.PLP.part.metal>
0.0000

> <Gold.PLP.part.buried>
-2.9307

> <Gold.PLP.part.nonpolar>
-33.3457

> <Gold.PLP.part.repulsive>
0.3203

> <Gold.PLP.ligand.clash>
0.0000

> <Gold.PLP.ligand.torsion>
1.0575

> <Gold.PLP.Chemscore.Hbond>
2.4146

> <Gold.PLP.Chemscore.CHOScore>
0.0000

> <Gold.PLP.Chemscore.Metal>
0.0000

> <Gold.Chemscore.Hbonds>
donor molecule, donor type, donor heavy atom, donor atom, acceptor molecule, acceptor atom, score
      L1  H     8    39       P1  8028  0.93
      P1  H  6896  6908       L1    15  0.26
      P1  H  7997  8010       L1    18  0.73

> <Gold.PLP.Chemscore.Internal.Correction>
0.4484

> <Gold.Rescore>
     Score         DG    S(hbond)    S(metal)    S(lipo)     H(rot)  DE(clash)    DE(int)     intcor
      8.19     -12.92       1.11        0.00      88.85       2.61       0.16       4.56       ----

> <Gold.Chemscore.Fitness>
8.1887

> <Gold.Chemscore.DG>
-12.9167

> <Gold.Chemscore.ZeroCoef>
-5.4800

> <Gold.Chemscore.Hbond>
1.1125

> <Gold.Chemscore.Metal>
0.0000

> <Gold.Chemscore.Lipo>
88.8519

> <Gold.Chemscore.Internal_Hbond>
0.0000

> <Gold.Chemscore.DEClash>
0.1644

> <Gold.Chemscore.DEInternal>
4.5635

> <Gold.Chemscore.Rot>
2.6074

> <Gold.Chemscore.Internal.Correction>
   9.000000E+99

> <Gold.Chemscore.Hbonds>
donor molecule, donor type, donor heavy atom, donor atom, acceptor molecule, acceptor atom, score
      L1  H     8    39       P1  8028  0.91
      P1  H  6896  6908       L1    15  0.01
      P1  H  7997  8010       L1    18  0.31

> <Gold.Chemscore.Hbond.Weighted>
-3.7158

> <Gold.Chemscore.Metal.Weighted>
-0.0000

> <Gold.Chemscore.Lipo.Weighted>
-10.3957

> <Gold.Chemscore.Internal_Hbond.Weighted>
0.0000

> <Gold.Chemscore.DEClash.Weighted>
0.1644

> <Gold.Chemscore.DEInternal.Weighted>
4.5635

> <Gold.Chemscore.Rot.Weighted>
6.6748

> <Gold.Chemscore.Internal.Correction.Weighted>
   9.000000E+99

> <Gold.Protein.RotatedTorsions>
[ 6907 6896 6895 6894 ] final  -93.73 input  -60.11 | X-H torsion
[ 7974 7965 7964 7962 ] final  -91.62 input  175.53 | X-H torsion
[ 8008 7997 7996 7995 ] final    7.81 input   59.86 | X-H torsion
[ 10167 10162 10161 10158 ] final  136.60 input  -65.29 | X-H torsion
[ 10718 10713 10712 10709 ] final  125.17 input   66.30 | X-H torsion
[ 10763 10752 10751 10750 ] final  -12.09 input  -60.55 | X-H torsion
[ 11005 11000 10999 10996 ] final   10.42 input  -57.11 | X-H torsion

> <Gold.Protein.ActiveResidues>
 VAL166  LYS551  ARG553  GLY616  TRP617  ASP618  TYR619  PRO620  LYS621  CYS622 
 ASP623  PHE694  ASN695  SER759  ASP760  ASP761  ALA762  ILE779  LEU786  VAL792 
 PHE793  MET794  SER795  GLU796  ALA797  LYS798  CYS799  TRP800  GLU811  SER814 

> <Gold.Protein.RotatedAtoms>
  150.6928  134.1921  159.4289 H   0  0  0  0  0  0  0  0  0  0  0  0  # atno 6907 bound_to 6896
  151.9891  134.9986  160.0570 H   0  0  0  0  0  0  0  0  0  0  0  0  # atno 6908 bound_to 6896
  152.1684  133.4592  159.4933 H   0  0  0  0  0  0  0  0  0  0  0  0  # atno 6909 bound_to 6896
  145.4107  140.9545  143.2235 H   0  0  0  0  0  0  0  0  0  0  0  0  # atno 7974 bound_to 7965
  154.7587  140.2780  155.6232 H   0  0  0  0  0  0  0  0  0  0  0  0  # atno 8008 bound_to 7997
  156.2911  140.2664  156.2287 H   0  0  0  0  0  0  0  0  0  0  0  0  # atno 8009 bound_to 7997
  155.0045  140.0372  157.2363 H   0  0  0  0  0  0  0  0  0  0  0  0  # atno 8010 bound_to 7997
  139.5174  144.6455  151.5450 H   0  0  0  0  0  0  0  0  0  0  0  0  # atno 10167 bound_to 10162
  157.5525  131.1093  150.8678 H   0  0  0  0  0  0  0  0  0  0  0  0  # atno 10718 bound_to 10713
  153.4934  135.7017  153.5871 H   0  0  0  0  0  0  0  0  0  0  0  0  # atno 10763 bound_to 10752
  153.4034  135.3866  155.2003 H   0  0  0  0  0  0  0  0  0  0  0  0  # atno 10764 bound_to 10752
  154.8715  135.3887  154.4397 H   0  0  0  0  0  0  0  0  0  0  0  0  # atno 10765 bound_to 10752
  140.5147  134.0618  155.7828 H   0  0  0  0  0  0  0  0  0  0  0  0  # atno 11005 bound_to 11000
  144.8311  139.5627  143.6943 LP  0  0  0  0  0  0  0  0  0  0  0  0  # atno 17320 bound_to 7965
  146.2706  139.6626  142.9298 LP  0  0  0  0  0  0  0  0  0  0  0  0  # atno 17321 bound_to 7965
  140.6239  143.9206  150.6548 LP  0  0  0  0  0  0  0  0  0  0  0  0  # atno 17342 bound_to 10162
  140.2489  143.3608  152.1423 LP  0  0  0  0  0  0  0  0  0  0  0  0  # atno 17343 bound_to 10162
  156.9199  130.5311  149.5279 LP  0  0  0  0  0  0  0  0  0  0  0  0  # atno 17370 bound_to 10713
  156.0589  130.5645  150.9151 LP  0  0  0  0  0  0  0  0  0  0  0  0  # atno 17371 bound_to 10713
  141.1367  133.9210  157.2419 LP  0  0  0  0  0  0  0  0  0  0  0  0  # atno 17394 bound_to 11000
  139.9639  135.0147  156.9335 LP  0  0  0  0  0  0  0  0  0  0  0  0  # atno 17395 bound_to 11000

$$$$
