AV-unprocessed.smi:701|AV-procd|sdf|3411|dock8
  -GOLD-   22720 0393D 1   1.00000     0.00000
 Structure written by MMmdl.
 49 51  0  0  0  0  0  0  0  0  1 V2000
  152.6069  138.4806  154.6166 C   0  0  0  0  0  0  0  0  0  0  0  0
  151.3908  139.3419  154.9636 C   0  0  0  0  0  0  0  0  0  0  0  0
  151.8319  140.4979  155.6559 O   0  0  0  0  0  0  0  0  0  0  0  0
  150.7847  141.1578  156.3497 C   0  0  1  0  0  0  0  0  0  0  0  0
  149.8682  140.2312  157.1539 C   0  0  0  0  0  0  0  0  0  0  0  0
  149.9040  141.2800  158.2701 C   0  0  2  0  0  0  0  0  0  0  0  0
  148.7842  142.2138  158.1420 N   0  0  0  0  0  0  0  0  0  0  0  0
  147.4879  141.8723  158.1636 C   0  0  0  0  0  0  0  0  0  0  0  0
  147.0952  140.7134  158.3020 O   0  0  0  0  0  0  0  0  0  0  0  0
  146.4822  143.0246  158.0430 C   0  0  0  0  0  0  0  0  0  0  0  0
  145.7767  143.2900  159.3044 N   0  0  0  0  0  0  0  0  0  0  0  0
  144.3931  143.2044  159.3668 C   0  0  0  0  0  0  0  0  0  0  0  0
  143.6820  143.4419  160.4945 C   0  0  0  0  0  0  0  0  0  0  0  0
  144.3610  143.8097  161.7324 C   0  0  0  0  0  0  0  0  0  0  0  0
  143.8058  144.0404  162.8042 O   0  0  0  0  0  0  0  0  0  0  0  0
  145.7520  143.8896  161.6277 N   0  0  0  0  0  0  0  0  0  0  0  0
  146.4907  143.6493  160.4682 C   0  0  0  0  0  0  0  0  0  0  0  0
  147.7168  143.7525  160.4832 O   0  0  0  0  0  0  0  0  0  0  0  0
  151.2403  141.8152  157.6754 C   0  0  0  0  0  0  0  0  0  0  0  0
  152.5091  141.2100  158.3150 C   0  0  0  0  0  0  0  0  0  0  0  0
  152.8103  141.7870  159.7096 C   0  0  0  0  0  0  0  0  0  0  0  0
  152.9494  143.3140  159.6632 C   0  0  0  0  0  0  0  0  0  0  0  0
  151.7305  143.9618  158.9947 C   0  0  0  0  0  0  0  0  0  0  0  0
  151.4621  143.3402  157.6136 C   0  0  0  0  0  0  0  0  0  0  0  0
  146.2646  144.1443  162.4595 H   0  0  0  0  0  0  0  0  0  0  0  0
  152.3062  137.5758  154.0879 H   0  0  0  0  0  0  0  0  0  0  0  0
  153.1422  138.1798  155.5175 H   0  0  0  0  0  0  0  0  0  0  0  0
  153.3026  139.0259  153.9785 H   0  0  0  0  0  0  0  0  0  0  0  0
  150.8640  139.6279  154.0522 H   0  0  0  0  0  0  0  0  0  0  0  0
  150.6966  138.7708  155.5813 H   0  0  0  0  0  0  0  0  0  0  0  0
  150.2269  141.8524  155.7177 H   0  0  0  0  0  0  0  0  0  0  0  0
  148.8895  140.0565  156.7054 H   0  0  0  0  0  0  0  0  0  0  0  0
  150.3500  139.2944  157.4378 H   0  0  0  0  0  0  0  0  0  0  0  0
  150.0082  140.8292  159.2582 H   0  0  0  0  0  0  0  0  0  0  0  0
  149.0152  143.1903  158.0302 H   0  0  0  0  0  0  0  0  0  0  0  0
  147.0270  143.9127  157.7192 H   0  0  0  0  0  0  0  0  0  0  0  0
  145.7647  142.8213  157.2452 H   0  0  0  0  0  0  0  0  0  0  0  0
  143.8480  142.9392  158.4722 H   0  0  0  0  0  0  0  0  0  0  0  0
  142.6047  143.3598  160.4802 H   0  0  0  0  0  0  0  0  0  0  0  0
  152.4202  140.1264  158.3976 H   0  0  0  0  0  0  0  0  0  0  0  0
  153.3710  141.3818  157.6689 H   0  0  0  0  0  0  0  0  0  0  0  0
  152.0130  141.5149  160.4020 H   0  0  0  0  0  0  0  0  0  0  0  0
  153.7247  141.3444  160.1052 H   0  0  0  0  0  0  0  0  0  0  0  0
  153.0807  143.7104  160.6703 H   0  0  0  0  0  0  0  0  0  0  0  0
  153.8496  143.5780  159.1068 H   0  0  0  0  0  0  0  0  0  0  0  0
  150.8552  143.8378  159.6326 H   0  0  0  0  0  0  0  0  0  0  0  0
  151.8894  145.0359  158.8957 H   0  0  0  0  0  0  0  0  0  0  0  0
  152.3054  143.5611  156.9577 H   0  0  0  0  0  0  0  0  0  0  0  0
  150.6101  143.8422  157.1552 H   0  0  0  0  0  0  0  0  0  0  0  0
  1  2  1  0  0  0  0
  1 26  1  0  0  0  0
  1 27  1  0  0  0  0
  1 28  1  0  0  0  0
  2  3  1  0  0  0  0
  2 29  1  0  0  0  0
  2 30  1  0  0  0  0
  3  4  1  0  0  0  0
  4 19  1  0  0  0  0
  4  5  1  0  0  0  0
  4 31  1  0  0  0  0
  5  6  1  0  0  0  0
  5 32  1  0  0  0  0
  5 33  1  0  0  0  0
  6  7  1  0  0  0  0
  6 19  1  0  0  0  0
  6 34  1  0  0  0  0
  7  8  1  0  0  0  0
  7 35  1  0  0  0  0
  8  9  2  0  0  0  0
  8 10  1  0  0  0  0
 10 11  1  0  0  0  0
 10 36  1  0  0  0  0
 10 37  1  0  0  0  0
 11 17  1  0  0  0  0
 11 12  1  0  0  0  0
 12 13  2  0  0  0  0
 12 38  1  0  0  0  0
 13 14  1  0  0  0  0
 13 39  1  0  0  0  0
 14 15  2  0  0  0  0
 14 16  1  0  0  0  0
 16 25  1  0  0  0  0
 16 17  1  0  0  0  0
 17 18  2  0  0  0  0
 19 24  1  0  0  0  0
 19 20  1  0  0  0  0
 20 21  1  0  0  0  0
 20 40  1  0  0  0  0
 20 41  1  0  0  0  0
 21 22  1  0  0  0  0
 21 42  1  0  0  0  0
 21 43  1  0  0  0  0
 22 23  1  0  0  0  0
 22 44  1  0  0  0  0
 22 45  1  0  0  0  0
 23 24  1  0  0  0  0
 23 46  1  0  0  0  0
 23 47  1  0  0  0  0
 24 48  1  0  0  0  0
 24 49  1  0  0  0  0
M  END
> <s_m_source_file>
AV-unprocessed.smi

> <i_m_source_file_index>
701

> <i_lp_mmshare_version>
43012

> <i_f3d_flags>
0

> <s_epik_input>
W0NIMl0xW0NIMl1bQ0gyXVtDSDJdW0NIMl1DMTJbQ0BIXShPW0NIMl1bQ0gzXSlbQ0gyXVtDQEhdMltOSF1DKD1PKVtDSDJdbjNbY0hdW2NIXWMoPU8pW25IXWMzPU8=

> <s_epik_cmdline>
J2VwaWtfcHl0aG9uJywgJy1waCcsICc3LjAnLCAnLXRuJywgJzgnLCAnLW1hJywgJzIwMCcsICctbWV0YWxfYmluZGluZycsICctaW1hZScsICc8aW5maWxlLm1hZT4nLCAnLW9tYWUnLCAnPG91dGZpbGUubWFlPic=

> <r_lp_tautomer_probability>
0.999537

> <r_epik_Ionization_Penalty>
0.00304597

> <r_epik_Ionization_Penalty_Charging>
0.00304595

> <r_epik_Ionization_Penalty_Neutral>
1.88422e-08

> <r_epik_State_Penalty>
0.00214084

> <r_epik_Charging_Adjusted_Penalty>
0.00518679

> <i_epik_Tot_Q>
0

> <i_epik_Tot_abs_Q>
0

> <r_epik_Metal_State_Penalty>
0.361872

> <b_epik_Metal_Only>
0

> <s_lp_Force_Field>
OPLS_2005

> <r_lp_Energy>
29.1408

> <b_lp_Chiralities_Consistent>
1

> <s_lp_Variant>
AV-unprocessed.smi:701-4

> <Gold.Version>
5.8.1

> <Gold.Id.Protein>
6NUR|6NUR_protein|mol2

> <Gold.PLP.Fitness>
43.1442

> <Gold.PLP.PLP>
-40.9958

> <Gold.PLP.part.hbond>
-3.0000

> <Gold.PLP.part.metal>
0.0000

> <Gold.PLP.part.buried>
-6.7170

> <Gold.PLP.part.nonpolar>
-32.1911

> <Gold.PLP.part.repulsive>
1.1235

> <Gold.PLP.ligand.clash>
0.0000

> <Gold.PLP.ligand.torsion>
0.6140

> <Gold.PLP.Chemscore.Hbond>
1.0100

> <Gold.PLP.Chemscore.CHOScore>
0.0000

> <Gold.PLP.Chemscore.Metal>
0.0000

> <Gold.Chemscore.Hbonds>
donor molecule, donor type, donor heavy atom, donor atom, acceptor molecule, acceptor atom, score
      P1  H  6933  6944       L1    18  1.00
      P1  H  6934  6946       L1     9  0.01

> <Gold.PLP.Chemscore.Internal.Correction>
0.3464

> <Gold.Rescore>
     Score         DG    S(hbond)    S(metal)    S(lipo)     H(rot)  DE(clash)    DE(int)     intcor
     12.92     -14.55       0.99        0.00      95.04       2.09       0.06       1.57       ----

> <Gold.Chemscore.Fitness>
12.9222

> <Gold.Chemscore.DG>
-14.5505

> <Gold.Chemscore.ZeroCoef>
-5.4800

> <Gold.Chemscore.Hbond>
0.9909

> <Gold.Chemscore.Metal>
0.0000

> <Gold.Chemscore.Lipo>
95.0411

> <Gold.Chemscore.Internal_Hbond>
0.0000

> <Gold.Chemscore.DEClash>
0.0627

> <Gold.Chemscore.DEInternal>
1.5656

> <Gold.Chemscore.Rot>
2.0933

> <Gold.Chemscore.Internal.Correction>
   9.000000E+99

> <Gold.Chemscore.Hbonds>
donor molecule, donor type, donor heavy atom, donor atom, acceptor molecule, acceptor atom, score
      P1  H  6933  6944       L1    18  0.82

> <Gold.Chemscore.Hbond.Weighted>
-3.3095

> <Gold.Chemscore.Metal.Weighted>
-0.0000

> <Gold.Chemscore.Lipo.Weighted>
-11.1198

> <Gold.Chemscore.Internal_Hbond.Weighted>
0.0000

> <Gold.Chemscore.DEClash.Weighted>
0.0627

> <Gold.Chemscore.DEInternal.Weighted>
1.5656

> <Gold.Chemscore.Rot.Weighted>
5.3588

> <Gold.Chemscore.Internal.Correction.Weighted>
   9.000000E+99

> <Gold.Protein.RotatedTorsions>
[ 6907 6896 6895 6894 ] final  142.22 input  -60.11 | X-H torsion
[ 7974 7965 7964 7962 ] final    4.97 input  175.53 | X-H torsion
[ 8008 7997 7996 7995 ] final  -25.93 input   59.86 | X-H torsion
[ 10167 10162 10161 10158 ] final -114.13 input  -65.29 | X-H torsion
[ 10718 10713 10712 10709 ] final  151.20 input   66.30 | X-H torsion
[ 10763 10752 10751 10750 ] final  138.29 input  -60.55 | X-H torsion
[ 11005 11000 10999 10996 ] final   17.93 input  -57.11 | X-H torsion

> <Gold.Protein.ActiveResidues>
 VAL166  LYS551  ARG553  GLY616  TRP617  ASP618  TYR619  PRO620  LYS621  CYS622 
 ASP623  PHE694  ASN695  SER759  ASP760  ASP761  ALA762  ILE779  LEU786  VAL792 
 PHE793  MET794  SER795  GLU796  ALA797  LYS798  CYS799  TRP800  GLU811  SER814 

> <Gold.Protein.RotatedAtoms>
  152.2214  133.4986  159.5164 H   0  0  0  0  0  0  0  0  0  0  0  0  # atno 6907 bound_to 6896
  150.7014  134.1337  159.4088 H   0  0  0  0  0  0  0  0  0  0  0  0  # atno 6908 bound_to 6896
  151.9258  135.0278  160.0576 H   0  0  0  0  0  0  0  0  0  0  0  0  # atno 6909 bound_to 6896
  146.2442  140.0454  142.8379 H   0  0  0  0  0  0  0  0  0  0  0  0  # atno 7974 bound_to 7965
  154.4451  140.1913  156.0696 H   0  0  0  0  0  0  0  0  0  0  0  0  # atno 8008 bound_to 7997
  156.0521  140.3307  155.7337 H   0  0  0  0  0  0  0  0  0  0  0  0  # atno 8009 bound_to 7997
  155.5540  140.0597  157.2834 H   0  0  0  0  0  0  0  0  0  0  0  0  # atno 8010 bound_to 7997
  140.1043  143.4584  152.1792 H   0  0  0  0  0  0  0  0  0  0  0  0  # atno 10167 bound_to 10162
  157.2737  131.0822  151.1581 H   0  0  0  0  0  0  0  0  0  0  0  0  # atno 10718 bound_to 10713
  153.8871  135.3037  155.3446 H   0  0  0  0  0  0  0  0  0  0  0  0  # atno 10763 bound_to 10752
  154.7734  135.4874  153.9698 H   0  0  0  0  0  0  0  0  0  0  0  0  # atno 10764 bound_to 10752
  153.1319  135.6805  153.9263 H   0  0  0  0  0  0  0  0  0  0  0  0  # atno 10765 bound_to 10752
  140.4305  134.1425  155.7680 H   0  0  0  0  0  0  0  0  0  0  0  0  # atno 11005 bound_to 11000
  145.1032  140.9359  143.4700 LP  0  0  0  0  0  0  0  0  0  0  0  0  # atno 17320 bound_to 7965
  145.0651  139.3074  143.5860 LP  0  0  0  0  0  0  0  0  0  0  0  0  # atno 17321 bound_to 7965
  139.5654  144.7432  151.4038 LP  0  0  0  0  0  0  0  0  0  0  0  0  # atno 17342 bound_to 10162
  140.6961  143.7746  150.7328 LP  0  0  0  0  0  0  0  0  0  0  0  0  # atno 17343 bound_to 10162
  157.3043  130.6858  149.6181 LP  0  0  0  0  0  0  0  0  0  0  0  0  # atno 17370 bound_to 10713
  155.9663  130.4383  150.5210 LP  0  0  0  0  0  0  0  0  0  0  0  0  # atno 17371 bound_to 10713
  141.1747  133.8537  157.1458 LP  0  0  0  0  0  0  0  0  0  0  0  0  # atno 17394 bound_to 11000
  140.0137  134.9977  157.0449 LP  0  0  0  0  0  0  0  0  0  0  0  0  # atno 17395 bound_to 11000

$$$$
