AV-unprocessed.smi:3288|AV-procd|sdf|12606|dock5
  -GOLD-   2272018533D 1   1.00000     0.00000
 Structure written by MMmdl.
 38 39  0  0  0  0  0  0  0  0  1 V2000
  151.8682  144.8494  158.7086 C   0  0  0  0  0  0  0  0  0  0  0  0
  152.5189  143.8225  159.4398 O   0  0  0  0  0  0  0  0  0  0  0  0
  151.7874  142.6061  159.5031 C   0  0  0  0  0  0  0  0  0  0  0  0
  152.2646  141.5922  158.4533 C   0  0  0  0  0  0  0  0  0  0  0  0
  151.8141  142.0248  157.1734 O   0  0  0  0  0  0  0  0  0  0  0  0
  152.1827  141.2987  156.0566 C   0  0  0  0  0  0  0  0  0  0  0  0
  153.3686  140.6396  156.0779 N   0  0  0  0  0  0  0  0  0  0  0  0
  153.7303  139.9318  154.9885 C   0  0  0  0  0  0  0  0  0  0  0  0
  152.9372  139.8430  153.8301 C   0  0  0  0  0  0  0  0  0  0  0  0
  151.7067  140.5246  153.8077 C   0  0  0  0  0  0  0  0  0  0  0  0
  151.3106  141.2729  154.9419 C   0  0  0  0  0  0  0  0  0  0  0  0
  150.0984  141.9789  155.0129 N   0  0  0  0  0  0  0  0  0  0  0  0
  148.9222  141.6112  154.2342 C   0  0  0  0  0  0  0  0  0  0  0  0
  148.5503  142.6947  153.2066 C   0  0  0  0  0  0  0  0  0  0  0  0
  147.2484  142.3209  152.4789 C   0  0  0  0  0  0  0  0  0  0  0  0
  146.1998  142.1268  153.4226 O   0  0  0  0  0  0  0  0  0  0  0  0
  146.4591  141.0624  154.3321 C   0  0  0  0  0  0  0  0  0  0  0  0
  147.7187  141.3724  155.1570 C   0  0  0  0  0  0  0  0  0  0  0  0
  152.5165  145.7241  158.6586 H   0  0  0  0  0  0  0  0  0  0  0  0
  150.9359  145.1566  159.1823 H   0  0  0  0  0  0  0  0  0  0  0  0
  151.6554  144.5333  157.6865 H   0  0  0  0  0  0  0  0  0  0  0  0
  151.8183  142.1799  160.5070 H   0  0  0  0  0  0  0  0  0  0  0  0
  150.7439  142.8515  159.3042 H   0  0  0  0  0  0  0  0  0  0  0  0
  153.3544  141.5392  158.4680 H   0  0  0  0  0  0  0  0  0  0  0  0
  151.8722  140.5990  158.6743 H   0  0  0  0  0  0  0  0  0  0  0  0
  154.6800  139.4206  155.0414 H   0  0  0  0  0  0  0  0  0  0  0  0
  153.2646  139.2647  152.9791 H   0  0  0  0  0  0  0  0  0  0  0  0
  151.0917  140.4609  152.9233 H   0  0  0  0  0  0  0  0  0  0  0  0
  150.0560  142.8184  155.5733 H   0  0  0  0  0  0  0  0  0  0  0  0
  149.1236  140.6746  153.7138 H   0  0  0  0  0  0  0  0  0  0  0  0
  148.4190  143.6541  153.7090 H   0  0  0  0  0  0  0  0  0  0  0  0
  149.3503  142.8328  152.4795 H   0  0  0  0  0  0  0  0  0  0  0  0
  146.9607  143.1185  151.7938 H   0  0  0  0  0  0  0  0  0  0  0  0
  147.3833  141.4196  151.8790 H   0  0  0  0  0  0  0  0  0  0  0  0
  145.5991  140.9461  154.9919 H   0  0  0  0  0  0  0  0  0  0  0  0
  146.5717  140.1237  153.7878 H   0  0  0  0  0  0  0  0  0  0  0  0
  147.9256  140.5490  155.8416 H   0  0  0  0  0  0  0  0  0  0  0  0
  147.5378  142.2546  155.7731 H   0  0  0  0  0  0  0  0  0  0  0  0
  1  2  1  0  0  0  0
  1 19  1  0  0  0  0
  1 20  1  0  0  0  0
  1 21  1  0  0  0  0
  2  3  1  0  0  0  0
  3  4  1  0  0  0  0
  3 22  1  0  0  0  0
  3 23  1  0  0  0  0
  4  5  1  0  0  0  0
  4 24  1  0  0  0  0
  4 25  1  0  0  0  0
  5  6  1  0  0  0  0
  6 11  1  0  0  0  0
  6  7  2  0  0  0  0
  7  8  1  0  0  0  0
  8  9  2  0  0  0  0
  8 26  1  0  0  0  0
  9 10  1  0  0  0  0
  9 27  1  0  0  0  0
 10 11  2  0  0  0  0
 10 28  1  0  0  0  0
 11 12  1  0  0  0  0
 12 13  1  0  0  0  0
 12 29  1  0  0  0  0
 13 18  1  0  0  0  0
 13 14  1  0  0  0  0
 13 30  1  0  0  0  0
 14 15  1  0  0  0  0
 14 31  1  0  0  0  0
 14 32  1  0  0  0  0
 15 16  1  0  0  0  0
 15 33  1  0  0  0  0
 15 34  1  0  0  0  0
 16 17  1  0  0  0  0
 17 18  1  0  0  0  0
 17 35  1  0  0  0  0
 17 36  1  0  0  0  0
 18 37  1  0  0  0  0
 18 38  1  0  0  0  0
M  END
> <s_m_source_file>
AV-unprocessed.smi

> <i_m_source_file_index>
3288

> <i_lp_mmshare_version>
43012

> <i_f3d_flags>
0

> <s_epik_input>
W0NIM11PW0NIMl1bQ0gyXU9jMW5bY0hdW2NIXVtjSF1jMVtOSF1bQ0hdMltDSDJdW0NIMl1PW0NIMl1bQ0gyXTI=

> <s_epik_cmdline>
J2VwaWtfcHl0aG9uJywgJy1waCcsICc3LjAnLCAnLXRuJywgJzgnLCAnLW1hJywgJzIwMCcsICctbWV0YWxfYmluZGluZycsICctaW1hZScsICc8aW5maWxlLm1hZT4nLCAnLW9tYWUnLCAnPG91dGZpbGUubWFlPic=

> <r_lp_tautomer_probability>
1

> <r_epik_Ionization_Penalty>
0.000236303

> <r_epik_Ionization_Penalty_Charging>
0

> <r_epik_Ionization_Penalty_Neutral>
0.000236303

> <r_epik_State_Penalty>
-0

> <r_epik_Charging_Adjusted_Penalty>
0

> <i_epik_Tot_Q>
0

> <i_epik_Tot_abs_Q>
0

> <r_epik_Metal_State_Penalty>
-0

> <b_epik_Metal_Only>
0

> <s_lp_Force_Field>
OPLS_2005

> <r_lp_Energy>
13.3054

> <b_lp_Chiralities_Consistent>
1

> <s_lp_Variant>
AV-unprocessed.smi:3288-1

> <Gold.Version>
5.8.1

> <Gold.Id.Protein>
6NUR|6NUR_protein|mol2

> <Gold.PLP.Fitness>
38.1985

> <Gold.PLP.PLP>
-35.1703

> <Gold.PLP.part.hbond>
-2.0000

> <Gold.PLP.part.metal>
0.0000

> <Gold.PLP.part.buried>
-0.9127

> <Gold.PLP.part.nonpolar>
-31.8715

> <Gold.PLP.part.repulsive>
0.3476

> <Gold.PLP.ligand.clash>
0.0000

> <Gold.PLP.ligand.torsion>
0.8475

> <Gold.PLP.Chemscore.Hbond>
1.5590

> <Gold.PLP.Chemscore.CHOScore>
0.0000

> <Gold.PLP.Chemscore.Metal>
0.0000

> <Gold.Chemscore.Hbonds>
donor molecule, donor type, donor heavy atom, donor atom, acceptor molecule, acceptor atom, score
      L1  H    12    29       P1  8028  0.39

> <Gold.PLP.Chemscore.Internal.Correction>
0.0461

> <Gold.Rescore>
     Score         DG    S(hbond)    S(metal)    S(lipo)     H(rot)  DE(clash)    DE(int)     intcor
     13.89     -14.81       1.04        0.00      86.96       1.68       0.11       0.81       ----

> <Gold.Chemscore.Fitness>
13.8946

> <Gold.Chemscore.DG>
-14.8082

> <Gold.Chemscore.ZeroCoef>
-5.4800

> <Gold.Chemscore.Hbond>
1.0364

> <Gold.Chemscore.Metal>
0.0000

> <Gold.Chemscore.Lipo>
86.9569

> <Gold.Chemscore.Internal_Hbond>
0.0000

> <Gold.Chemscore.DEClash>
0.1073

> <Gold.Chemscore.DEInternal>
0.8062

> <Gold.Chemscore.Rot>
1.6826

> <Gold.Chemscore.Internal.Correction>
   9.000000E+99

> <Gold.Chemscore.Hbonds>
donor molecule, donor type, donor heavy atom, donor atom, acceptor molecule, acceptor atom, score
      L1  H    12    29       P1  8028  0.38

> <Gold.Chemscore.Hbond.Weighted>
-3.4616

> <Gold.Chemscore.Metal.Weighted>
-0.0000

> <Gold.Chemscore.Lipo.Weighted>
-10.1740

> <Gold.Chemscore.Internal_Hbond.Weighted>
0.0000

> <Gold.Chemscore.DEClash.Weighted>
0.1073

> <Gold.Chemscore.DEInternal.Weighted>
0.8062

> <Gold.Chemscore.Rot.Weighted>
4.3074

> <Gold.Chemscore.Internal.Correction.Weighted>
   9.000000E+99

> <Gold.Protein.RotatedTorsions>
[ 6907 6896 6895 6894 ] final -120.55 input  -60.11 | X-H torsion
[ 7974 7965 7964 7962 ] final -124.81 input  175.53 | X-H torsion
[ 8008 7997 7996 7995 ] final   72.02 input   59.86 | X-H torsion
[ 10167 10162 10161 10158 ] final -119.87 input  -65.29 | X-H torsion
[ 10718 10713 10712 10709 ] final  173.85 input   66.30 | X-H torsion
[ 10763 10752 10751 10750 ] final   27.21 input  -60.55 | X-H torsion
[ 11005 11000 10999 10996 ] final  -56.27 input  -57.11 | X-H torsion

> <Gold.Protein.ActiveResidues>
 VAL166  LYS551  ARG553  GLY616  TRP617  ASP618  TYR619  PRO620  LYS621  CYS622 
 ASP623  PHE694  ASN695  SER759  ASP760  ASP761  ALA762  ILE779  LEU786  VAL792 
 PHE793  MET794  SER795  GLU796  ALA797  LYS798  CYS799  TRP800  GLU811  SER814 

> <Gold.Protein.RotatedAtoms>
  150.8403  133.7946  159.3063 H   0  0  0  0  0  0  0  0  0  0  0  0  # atno 6907 bound_to 6896
  151.5650  135.1063  159.9991 H   0  0  0  0  0  0  0  0  0  0  0  0  # atno 6908 bound_to 6896
  152.4468  133.7509  159.6750 H   0  0  0  0  0  0  0  0  0  0  0  0  # atno 6909 bound_to 6896
  145.0041  140.7847  143.4478 H   0  0  0  0  0  0  0  0  0  0  0  0  # atno 7974 bound_to 7965
  155.7626  140.3486  155.5206 H   0  0  0  0  0  0  0  0  0  0  0  0  # atno 8008 bound_to 7997
  155.8899  140.1016  157.1447 H   0  0  0  0  0  0  0  0  0  0  0  0  # atno 8009 bound_to 7997
  154.4032  140.1306  156.4289 H   0  0  0  0  0  0  0  0  0  0  0  0  # atno 8010 bound_to 7997
  140.0419  143.5145  152.2125 H   0  0  0  0  0  0  0  0  0  0  0  0  # atno 10167 bound_to 10162
  156.9583  131.0052  151.2933 H   0  0  0  0  0  0  0  0  0  0  0  0  # atno 10718 bound_to 10713
  153.0570  135.6542  154.0552 H   0  0  0  0  0  0  0  0  0  0  0  0  # atno 10763 bound_to 10752
  154.0228  135.2918  155.3380 H   0  0  0  0  0  0  0  0  0  0  0  0  # atno 10764 bound_to 10752
  154.6891  135.5290  153.8434 H   0  0  0  0  0  0  0  0  0  0  0  0  # atno 10765 bound_to 10752
  141.1112  133.6610  156.4594 H   0  0  0  0  0  0  0  0  0  0  0  0  # atno 11005 bound_to 11000
  145.2112  139.2204  143.5142 LP  0  0  0  0  0  0  0  0  0  0  0  0  # atno 17320 bound_to 7965
  146.3458  140.1950  142.8589 LP  0  0  0  0  0  0  0  0  0  0  0  0  # atno 17321 bound_to 7965
  139.6008  144.7582  151.3176 LP  0  0  0  0  0  0  0  0  0  0  0  0  # atno 17342 bound_to 10162
  140.7256  143.7013  150.7843 LP  0  0  0  0  0  0  0  0  0  0  0  0  # atno 17343 bound_to 10162
  157.5675  130.8288  149.8347 LP  0  0  0  0  0  0  0  0  0  0  0  0  # atno 17370 bound_to 10713
  156.0333  130.3758  150.1628 LP  0  0  0  0  0  0  0  0  0  0  0  0  # atno 17371 bound_to 10713
  140.4769  134.6701  157.5154 LP  0  0  0  0  0  0  0  0  0  0  0  0  # atno 17394 bound_to 11000
  140.0008  134.6840  155.9534 LP  0  0  0  0  0  0  0  0  0  0  0  0  # atno 17395 bound_to 11000

$$$$
