AV-unprocessed.smi:1870|AV-procd|sdf|7595|dock7
  -GOLD-   22720 9313D 1   1.00000     0.00000
 Structure written by MMmdl.
 48 50  0  0  0  0  0  0  0  0  2 V2000
  146.8777  137.4164  162.8083 C   0  0  0  0  0  0  0  0  0  0  0  0
  147.3062  136.4750  161.7149 C   0  0  0  0  0  0  0  0  0  0  0  0
  148.2550  136.8824  160.9371 N   0  0  0  0  0  0  0  0  0  0  0  0
  148.7262  136.0957  159.9039 N   0  0  0  0  0  0  0  0  0  0  0  0
  149.7954  136.7219  159.1168 C   0  0  0  0  0  0  0  0  0  0  0  0
  149.3744  138.1014  158.5652 C   0  0  2  0  0  0  0  0  0  0  0  0
  148.1597  137.9549  157.8549 O   0  0  0  0  0  0  0  0  0  0  0  0
  150.4211  138.6588  157.5782 C   0  0  0  0  0  0  0  0  0  0  0  0
  150.5439  140.1391  157.6372 N   0  3  2  0  0  0  0  0  0  0  0  0
  151.0155  140.7194  156.3576 C   0  0  0  0  0  0  0  0  0  0  0  0
  150.8079  142.2393  156.3571 C   0  0  0  0  0  0  0  0  0  0  0  0
  151.3602  142.8968  157.6083 C   0  0  0  0  0  0  0  0  0  0  0  0
  151.6021  144.2860  157.6219 C   0  0  0  0  0  0  0  0  0  0  0  0
  152.0780  144.9096  158.7909 C   0  0  0  0  0  0  0  0  0  0  0  0
  152.3099  144.1467  159.9509 C   0  0  0  0  0  0  0  0  0  0  0  0
  152.0690  142.7593  159.9415 C   0  0  0  0  0  0  0  0  0  0  0  0
  151.5945  142.1271  158.7731 C   0  0  0  0  0  0  0  0  0  0  0  0
  151.3659  140.6200  158.7805 C   0  0  0  0  0  0  0  0  0  0  0  0
  148.2587  134.8514  159.5996 C   0  0  0  0  0  0  0  0  0  0  0  0
  148.7047  134.1861  158.6637 O   0  0  0  0  0  0  0  0  0  0  0  0
  147.1852  134.3953  160.4856 C   0  0  0  0  0  0  0  0  0  0  0  0
  146.6716  133.0927  160.2074 C   0  0  0  0  0  0  0  0  0  0  0  0
  146.2508  132.0424  159.9625 N   0  0  0  0  0  0  0  0  0  0  0  0
  146.7122  135.1591  161.5020 C   0  0  0  0  0  0  0  0  0  0  0  0
  145.5989  134.7311  162.4484 C   0  0  0  0  0  0  0  0  0  0  0  0
  146.9374  136.9323  163.7831 H   0  0  0  0  0  0  0  0  0  0  0  0
  145.8492  137.7437  162.6547 H   0  0  0  0  0  0  0  0  0  0  0  0
  147.5054  138.3080  162.8471 H   0  0  0  0  0  0  0  0  0  0  0  0
  150.6560  136.8483  159.7766 H   0  0  0  0  0  0  0  0  0  0  0  0
  150.1561  136.0712  158.3177 H   0  0  0  0  0  0  0  0  0  0  0  0
  149.2266  138.7945  159.3927 H   0  0  0  0  0  0  0  0  0  0  0  0
  148.1082  137.0735  157.5171 H   0  0  0  0  0  0  0  0  0  0  0  0
  151.3997  138.2151  157.7680 H   0  0  0  0  0  0  0  0  0  0  0  0
  150.1405  138.3517  156.5693 H   0  0  0  0  0  0  0  0  0  0  0  0
  152.0700  140.4759  156.2169 H   0  0  0  0  0  0  0  0  0  0  0  0
  150.4743  140.2891  155.5143 H   0  0  0  0  0  0  0  0  0  0  0  0
  151.2748  142.6780  155.4743 H   0  0  0  0  0  0  0  0  0  0  0  0
  149.7432  142.4679  156.2974 H   0  0  0  0  0  0  0  0  0  0  0  0
  151.4175  144.8787  156.7377 H   0  0  0  0  0  0  0  0  0  0  0  0
  152.2613  145.9740  158.7991 H   0  0  0  0  0  0  0  0  0  0  0  0
  152.6736  144.6257  160.8482 H   0  0  0  0  0  0  0  0  0  0  0  0
  152.2546  142.1804  160.8345 H   0  0  0  0  0  0  0  0  0  0  0  0
  150.8877  140.3525  159.7221 H   0  0  0  0  0  0  0  0  0  0  0  0
  152.3410  140.1309  158.7641 H   0  0  0  0  0  0  0  0  0  0  0  0
  145.1350  133.7945  162.1408 H   0  0  0  0  0  0  0  0  0  0  0  0
  144.8112  135.4841  162.4871 H   0  0  0  0  0  0  0  0  0  0  0  0
  145.9908  134.5910  163.4563 H   0  0  0  0  0  0  0  0  0  0  0  0
  149.6084  140.4952  157.7751 H   0  0  0  0  0  0  0  0  0  0  0  0
  1  2  1  0  0  0  0
  1 26  1  0  0  0  0
  1 27  1  0  0  0  0
  1 28  1  0  0  0  0
  2 24  1  0  0  0  0
  2  3  2  0  0  0  0
  3  4  1  0  0  0  0
  4  5  1  0  0  0  0
  4 19  1  0  0  0  0
  5  6  1  0  0  0  0
  5 29  1  0  0  0  0
  5 30  1  0  0  0  0
  6  7  1  0  0  0  0
  6  8  1  0  0  0  0
  6 31  1  0  0  0  0
  7 32  1  0  0  0  0
  8  9  1  0  0  0  0
  8 33  1  0  0  0  0
  8 34  1  0  0  0  0
  9 18  1  0  0  0  0
  9 10  1  0  0  0  0
  9 48  1  0  0  0  0
 10 11  1  0  0  0  0
 10 35  1  0  0  0  0
 10 36  1  0  0  0  0
 11 12  1  0  0  0  0
 11 37  1  0  0  0  0
 11 38  1  0  0  0  0
 12 17  2  0  0  0  0
 12 13  1  0  0  0  0
 13 14  2  0  0  0  0
 13 39  1  0  0  0  0
 14 15  1  0  0  0  0
 14 40  1  0  0  0  0
 15 16  2  0  0  0  0
 15 41  1  0  0  0  0
 16 17  1  0  0  0  0
 16 42  1  0  0  0  0
 17 18  1  0  0  0  0
 18 43  1  0  0  0  0
 18 44  1  0  0  0  0
 19 20  2  0  0  0  0
 19 21  1  0  0  0  0
 21 22  1  0  0  0  0
 21 24  2  0  0  0  0
 22 23  3  0  0  0  0
 24 25  1  0  0  0  0
 25 45  1  0  0  0  0
 25 46  1  0  0  0  0
 25 47  1  0  0  0  0
M  CHG  1   9   1
M  END
> <s_m_source_file>
AV-unprocessed.smi

> <i_m_source_file_index>
1870

> <i_lp_mmshare_version>
43012

> <i_f3d_flags>
0

> <s_epik_input>
TiNDYyhjMVtDSDNdKWMoPU8pbihuYzFbQ0gzXSlbQ0gyXVtDQEhdKFtPSF0pW0NIMl1OKFtDSDJdW0NIMl0yKVtDSDJdYyhjMjMpW2NIXVtjSF1bY0hdW2NIXTM=

> <s_epik_cmdline>
J2VwaWtfcHl0aG9uJywgJy1waCcsICc3LjAnLCAnLXRuJywgJzgnLCAnLW1hJywgJzIwMCcsICctbWV0YWxfYmluZGluZycsICctaW1hZScsICc8aW5maWxlLm1hZT4nLCAnLW9tYWUnLCAnPG91dGZpbGUubWFlPic=

> <r_epik_Ionization_Penalty>
0.0122865

> <r_epik_Ionization_Penalty_Charging>
0.0122864

> <r_epik_Ionization_Penalty_Neutral>
1.48087e-07

> <r_epik_State_Penalty>
0.00950248

> <r_epik_Charging_Adjusted_Penalty>
0.0217889

> <i_epik_Tot_Q>
1

> <i_epik_Tot_abs_Q>
1

> <r_epik_Metal_State_Penalty>
0.00950248

> <b_epik_Metal_Only>
0

> <s_lp_Force_Field>
OPLS_2005

> <r_lp_Energy>
38.404

> <b_lp_Chiralities_Consistent>
1

> <s_lp_Variant>
AV-unprocessed.smi:1870-3

> <Gold.Version>
5.8.1

> <Gold.Id.Protein>
6NUR|6NUR_protein|mol2

> <Gold.PLP.Fitness>
54.1705

> <Gold.PLP.PLP>
-49.5639

> <Gold.PLP.part.hbond>
-2.6341

> <Gold.PLP.part.metal>
0.0000

> <Gold.PLP.part.buried>
-3.0645

> <Gold.PLP.part.nonpolar>
-45.6949

> <Gold.PLP.part.repulsive>
0.0865

> <Gold.PLP.ligand.clash>
0.0000

> <Gold.PLP.ligand.torsion>
0.7550

> <Gold.PLP.Chemscore.Hbond>
2.0319

> <Gold.PLP.Chemscore.CHOScore>
0.0000

> <Gold.PLP.Chemscore.Metal>
0.0000

> <Gold.Chemscore.Hbonds>
donor molecule, donor type, donor heavy atom, donor atom, acceptor molecule, acceptor atom, score
      P1  H  6896  6907       L1    20  0.73
      P1  H  6931  6943       L1     3  1.00
      P1  H  6934  6947       L1     3  0.03

> <Gold.PLP.Chemscore.Internal.Correction>
0.0208

> <Gold.Rescore>
     Score         DG    S(hbond)    S(metal)    S(lipo)     H(rot)  DE(clash)    DE(int)     intcor
     20.95     -21.93       1.75        0.00     137.90       2.16       0.09       0.89       ----

> <Gold.Chemscore.Fitness>
20.9539

> <Gold.Chemscore.DG>
-21.9336

> <Gold.Chemscore.ZeroCoef>
-5.4800

> <Gold.Chemscore.Hbond>
1.7534

> <Gold.Chemscore.Metal>
0.0000

> <Gold.Chemscore.Lipo>
137.8986

> <Gold.Chemscore.Internal_Hbond>
0.0000

> <Gold.Chemscore.DEClash>
0.0919

> <Gold.Chemscore.DEInternal>
0.8879

> <Gold.Chemscore.Rot>
2.1628

> <Gold.Chemscore.Internal.Correction>
   9.000000E+99

> <Gold.Chemscore.Hbonds>
donor molecule, donor type, donor heavy atom, donor atom, acceptor molecule, acceptor atom, score
      P1  H  6896  6907       L1    20  0.10
      P1  H  6931  6943       L1     3  0.43

> <Gold.Chemscore.Hbond.Weighted>
-5.8562

> <Gold.Chemscore.Metal.Weighted>
-0.0000

> <Gold.Chemscore.Lipo.Weighted>
-16.1341

> <Gold.Chemscore.Internal_Hbond.Weighted>
0.0000

> <Gold.Chemscore.DEClash.Weighted>
0.0919

> <Gold.Chemscore.DEInternal.Weighted>
0.8879

> <Gold.Chemscore.Rot.Weighted>
5.5367

> <Gold.Chemscore.Internal.Correction.Weighted>
   9.000000E+99

> <Gold.Protein.RotatedTorsions>
[ 6907 6896 6895 6894 ] final  -99.13 input  -60.11 | X-H torsion
[ 7974 7965 7964 7962 ] final  131.63 input  175.53 | X-H torsion
[ 8008 7997 7996 7995 ] final  -66.64 input   59.86 | X-H torsion
[ 10167 10162 10161 10158 ] final   58.65 input  -65.29 | X-H torsion
[ 10718 10713 10712 10709 ] final   95.01 input   66.30 | X-H torsion
[ 10763 10752 10751 10750 ] final -163.12 input  -60.55 | X-H torsion
[ 11005 11000 10999 10996 ] final   -7.71 input  -57.11 | X-H torsion

> <Gold.Protein.ActiveResidues>
 VAL166  LYS551  ARG553  GLY616  TRP617  ASP618  TYR619  PRO620  LYS621  CYS622 
 ASP623  PHE694  ASN695  SER759  ASP760  ASP761  ALA762  ILE779  LEU786  VAL792 
 PHE793  MET794  SER795  GLU796  ALA797  LYS798  CYS799  TRP800  GLU811  SER814 

> <Gold.Protein.RotatedAtoms>
  150.7069  134.1088  159.3992 H   0  0  0  0  0  0  0  0  0  0  0  0  # atno 6907 bound_to 6896
  151.9074  135.0351  160.0521 H   0  0  0  0  0  0  0  0  0  0  0  0  # atno 6908 bound_to 6896
  152.2364  133.5064  159.5281 H   0  0  0  0  0  0  0  0  0  0  0  0  # atno 6909 bound_to 6896
  145.0053  139.4272  143.5272 H   0  0  0  0  0  0  0  0  0  0  0  0  # atno 7974 bound_to 7965
  154.4747  140.0908  156.7233 H   0  0  0  0  0  0  0  0  0  0  0  0  # atno 8008 bound_to 7997
  155.4627  140.3461  155.4296 H   0  0  0  0  0  0  0  0  0  0  0  0  # atno 8009 bound_to 7997
  156.1098  140.1444  156.9343 H   0  0  0  0  0  0  0  0  0  0  0  0  # atno 8010 bound_to 7997
  140.1849  144.4145  150.6598 H   0  0  0  0  0  0  0  0  0  0  0  0  # atno 10167 bound_to 10162
  157.6943  131.0531  150.4274 H   0  0  0  0  0  0  0  0  0  0  0  0  # atno 10718 bound_to 10713
  154.7151  135.3014  154.9136 H   0  0  0  0  0  0  0  0  0  0  0  0  # atno 10763 bound_to 10752
  154.0025  135.6705  153.4764 H   0  0  0  0  0  0  0  0  0  0  0  0  # atno 10764 bound_to 10752
  153.0787  135.5021  154.8373 H   0  0  0  0  0  0  0  0  0  0  0  0  # atno 10765 bound_to 10752
  140.7157  133.8871  155.8783 H   0  0  0  0  0  0  0  0  0  0  0  0  # atno 11005 bound_to 11000
  146.3460  139.9466  142.8734 LP  0  0  0  0  0  0  0  0  0  0  0  0  # atno 17320 bound_to 7965
  145.2097  140.9890  143.4108 LP  0  0  0  0  0  0  0  0  0  0  0  0  # atno 17321 bound_to 7965
  140.6495  143.2221  151.6110 LP  0  0  0  0  0  0  0  0  0  0  0  0  # atno 17342 bound_to 10162
  139.5280  144.3000  152.1081 LP  0  0  0  0  0  0  0  0  0  0  0  0  # atno 17343 bound_to 10162
  156.4643  130.4039  149.6557 LP  0  0  0  0  0  0  0  0  0  0  0  0  # atno 17370 bound_to 10713
  156.3660  130.7506  151.2484 LP  0  0  0  0  0  0  0  0  0  0  0  0  # atno 17371 bound_to 10713
  141.0047  134.1103  157.4282 LP  0  0  0  0  0  0  0  0  0  0  0  0  # atno 17394 bound_to 11000
  139.8860  135.0078  156.6474 LP  0  0  0  0  0  0  0  0  0  0  0  0  # atno 17395 bound_to 11000

$$$$
