AV-unprocessed.smi:910|AV-procd|sdf|4131|dock3
  -GOLD-   22720 2 33D 1   1.00000     0.00000
 Structure written by MMmdl.
 47 48  0  0  0  0  0  0  0  0  2 V2000
  145.3666  135.2836  150.7250 C   0  0  0  0  0  0  0  0  0  0  0  0
  145.5952  136.4407  151.6462 C   0  0  0  0  0  0  0  0  0  0  0  0
  146.7618  137.1259  151.8929 N   0  3  0  0  0  0  0  0  0  0  0  0
  146.5331  138.0873  152.7843 C   0  0  0  0  0  0  0  0  0  0  0  0
  147.5207  138.9808  153.2589 N   0  0  0  0  0  0  0  0  0  0  0  0
  147.4721  139.6559  154.4172 C   0  0  0  0  0  0  0  0  0  0  0  0
  146.5643  139.5605  155.2436 O   0  0  0  0  0  0  0  0  0  0  0  0
  148.5390  140.4547  154.5691 N   0  0  0  0  0  0  0  0  0  0  0  0
  148.7654  141.3470  155.7017 C   0  0  0  0  0  0  0  0  0  0  0  0
  150.2637  141.5517  155.9668 C   0  0  0  0  0  0  0  0  0  0  0  0
  150.5316  141.3058  157.3389 O   0  0  0  0  0  0  0  0  0  0  0  0
  151.5159  142.1561  157.9107 C   0  0  1  0  0  0  0  0  0  0  0  0
  151.0620  143.6235  157.7608 C   0  0  0  0  0  0  0  0  0  0  0  0
  152.0136  144.5864  158.4856 C   0  0  0  0  0  0  0  0  0  0  0  0
  152.1577  144.2075  159.9662 C   0  0  0  0  0  0  0  0  0  0  0  0
  152.6175  142.7498  160.1200 C   0  0  0  0  0  0  0  0  0  0  0  0
  151.6685  141.7708  159.3994 C   0  0  2  0  0  0  0  0  0  0  0  0
  152.1551  140.3218  159.5652 C   0  0  0  0  0  0  0  0  0  0  0  0
  145.2267  138.0875  153.1629 O   0  0  0  0  0  0  0  0  0  0  0  0
  144.6554  137.0580  152.4432 C   0  0  0  0  0  0  0  0  0  0  0  0
  143.1993  136.8113  152.6514 C   0  0  0  0  0  0  0  0  0  0  0  0
  144.8400  134.4743  151.2313 H   0  0  0  0  0  0  0  0  0  0  0  0
  146.3083  134.8808  150.3517 H   0  0  0  0  0  0  0  0  0  0  0  0
  144.7685  135.5796  149.8631 H   0  0  0  0  0  0  0  0  0  0  0  0
  147.6401  136.9000  151.4433 H   0  0  0  0  0  0  0  0  0  0  0  0
  149.2384  140.4655  153.8409 H   0  0  0  0  0  0  0  0  0  0  0  0
  148.2632  142.3049  155.5556 H   0  0  0  0  0  0  0  0  0  0  0  0
  148.3046  140.8880  156.5766 H   0  0  0  0  0  0  0  0  0  0  0  0
  150.8423  140.8537  155.3605 H   0  0  0  0  0  0  0  0  0  0  0  0
  150.5624  142.5591  155.6752 H   0  0  0  0  0  0  0  0  0  0  0  0
  152.4780  142.0133  157.4142 H   0  0  0  0  0  0  0  0  0  0  0  0
  151.0019  143.9016  156.7090 H   0  0  0  0  0  0  0  0  0  0  0  0
  150.0556  143.7360  158.1662 H   0  0  0  0  0  0  0  0  0  0  0  0
  152.9921  144.5652  158.0043 H   0  0  0  0  0  0  0  0  0  0  0  0
  151.6468  145.6094  158.3971 H   0  0  0  0  0  0  0  0  0  0  0  0
  152.8691  144.8752  160.4533 H   0  0  0  0  0  0  0  0  0  0  0  0
  151.2033  144.3472  160.4754 H   0  0  0  0  0  0  0  0  0  0  0  0
  153.6271  142.6455  159.7200 H   0  0  0  0  0  0  0  0  0  0  0  0
  152.6790  142.4979  161.1792 H   0  0  0  0  0  0  0  0  0  0  0  0
  150.6878  141.8467  159.8718 H   0  0  0  0  0  0  0  0  0  0  0  0
  153.1305  140.1751  159.1002 H   0  0  0  0  0  0  0  0  0  0  0  0
  151.4608  139.6150  159.1101 H   0  0  0  0  0  0  0  0  0  0  0  0
  152.2455  140.0564  160.6188 H   0  0  0  0  0  0  0  0  0  0  0  0
  142.7423  136.3938  151.7538 H   0  0  0  0  0  0  0  0  0  0  0  0
  142.6776  137.7372  152.8938 H   0  0  0  0  0  0  0  0  0  0  0  0
  143.0407  136.1088  153.4695 H   0  0  0  0  0  0  0  0  0  0  0  0
  148.3225  139.1270  152.6639 H   0  0  0  0  0  0  0  0  0  0  0  0
  1 22  1  0  0  0  0
  1 23  1  0  0  0  0
  1 24  1  0  0  0  0
  1  2  1  0  0  0  0
  2  3  1  0  0  0  0
  2 20  2  0  0  0  0
  3 25  1  0  0  0  0
  3  4  2  0  0  0  0
  4 19  1  0  0  0  0
  4  5  1  0  0  0  0
  5  6  1  0  0  0  0
  5 47  1  0  0  0  0
  6  8  1  0  0  0  0
  6  7  2  0  0  0  0
  8  9  1  0  0  0  0
  8 26  1  0  0  0  0
  9 10  1  0  0  0  0
  9 27  1  0  0  0  0
  9 28  1  0  0  0  0
 10 11  1  0  0  0  0
 10 29  1  0  0  0  0
 10 30  1  0  0  0  0
 11 12  1  0  0  0  0
 12 17  1  0  0  0  0
 12 13  1  0  0  0  0
 12 31  1  0  0  0  0
 13 14  1  0  0  0  0
 13 32  1  0  0  0  0
 13 33  1  0  0  0  0
 14 15  1  0  0  0  0
 14 34  1  0  0  0  0
 14 35  1  0  0  0  0
 15 16  1  0  0  0  0
 15 36  1  0  0  0  0
 15 37  1  0  0  0  0
 16 17  1  0  0  0  0
 16 38  1  0  0  0  0
 16 39  1  0  0  0  0
 17 18  1  0  0  0  0
 17 40  1  0  0  0  0
 18 41  1  0  0  0  0
 18 42  1  0  0  0  0
 18 43  1  0  0  0  0
 19 20  1  0  0  0  0
 20 21  1  0  0  0  0
 21 44  1  0  0  0  0
 21 45  1  0  0  0  0
 21 46  1  0  0  0  0
M  CHG  1   3   1
M  END
> <s_m_source_file>
AV-unprocessed.smi

> <i_m_source_file_index>
910

> <i_lp_mmshare_version>
43012

> <i_f3d_flags>
0

> <s_epik_input>
W0NIM11jMW5jKG9jMVtDSDNdKVtOSF1DKD1PKVtOSF1bQ0gyXVtDSDJdT1tDQEBIXTJbQ0gyXVtDSDJdW0NIMl1bQ0gyXVtDQEhdMltDSDNd

> <s_epik_cmdline>
J2VwaWtfcHl0aG9uJywgJy1waCcsICc3LjAnLCAnLXRuJywgJzgnLCAnLW1hJywgJzIwMCcsICctbWV0YWxfYmluZGluZycsICctaW1hZScsICc8aW5maWxlLm1hZT4nLCAnLW9tYWUnLCAnPG91dGZpbGUubWFlPic=

> <r_epik_Ionization_Penalty>
7.32931

> <r_epik_Ionization_Penalty_Charging>
7.12214

> <r_epik_Ionization_Penalty_Neutral>
0.207166

> <r_epik_State_Penalty>
2.61278

> <r_epik_Charging_Adjusted_Penalty>
9.73492

> <i_epik_Tot_Q>
1

> <i_epik_Tot_abs_Q>
1

> <r_epik_Metal_State_Penalty>
2.64585

> <b_epik_Metal_Only>
0

> <s_lp_Force_Field>
OPLS_2005

> <r_lp_Energy>
16.7683

> <b_lp_Chiralities_Consistent>
1

> <s_lp_Variant>
AV-unprocessed.smi:910-16

> <Gold.Version>
5.8.1

> <Gold.Id.Protein>
6NUR|6NUR_protein|mol2

> <Gold.PLP.Fitness>
44.2379

> <Gold.PLP.PLP>
-38.9898

> <Gold.PLP.part.hbond>
-1.2720

> <Gold.PLP.part.metal>
0.0000

> <Gold.PLP.part.buried>
-5.9889

> <Gold.PLP.part.nonpolar>
-34.4913

> <Gold.PLP.part.repulsive>
2.0226

> <Gold.PLP.ligand.clash>
0.0000

> <Gold.PLP.ligand.torsion>
0.9058

> <Gold.PLP.Chemscore.Hbond>
2.3308

> <Gold.PLP.Chemscore.CHOScore>
0.0000

> <Gold.PLP.Chemscore.Metal>
0.0000

> <Gold.Chemscore.Hbonds>
donor molecule, donor type, donor heavy atom, donor atom, acceptor molecule, acceptor atom, score
      L1  H     3    25       P1  7948  1.40
      L1  H     5    47       P1  7957  0.67

> <Gold.PLP.Chemscore.Internal.Correction>
0.0676

> <Gold.Rescore>
     Score         DG    S(hbond)    S(metal)    S(lipo)     H(rot)  DE(clash)    DE(int)     intcor
     15.15     -17.67       1.27        0.00     105.13       1.69       0.25       2.27       ----

> <Gold.Chemscore.Fitness>
15.1478

> <Gold.Chemscore.DG>
-17.6696

> <Gold.Chemscore.ZeroCoef>
-5.4800

> <Gold.Chemscore.Hbond>
1.2659

> <Gold.Chemscore.Metal>
0.0000

> <Gold.Chemscore.Lipo>
105.1336

> <Gold.Chemscore.Internal_Hbond>
0.0000

> <Gold.Chemscore.DEClash>
0.2485

> <Gold.Chemscore.DEInternal>
2.2734

> <Gold.Chemscore.Rot>
1.6949

> <Gold.Chemscore.Internal.Correction>
   9.000000E+99

> <Gold.Chemscore.Hbonds>
donor molecule, donor type, donor heavy atom, donor atom, acceptor molecule, acceptor atom, score
      L1  H     3    25       P1  7948  0.66
      L1  H     5    47       P1  7957  0.66

> <Gold.Chemscore.Hbond.Weighted>
-4.2280

> <Gold.Chemscore.Metal.Weighted>
-0.0000

> <Gold.Chemscore.Lipo.Weighted>
-12.3006

> <Gold.Chemscore.Internal_Hbond.Weighted>
0.0000

> <Gold.Chemscore.DEClash.Weighted>
0.2485

> <Gold.Chemscore.DEInternal.Weighted>
2.2734

> <Gold.Chemscore.Rot.Weighted>
4.3390

> <Gold.Chemscore.Internal.Correction.Weighted>
   9.000000E+99

> <Gold.Protein.RotatedTorsions>
[ 6907 6896 6895 6894 ] final  -51.48 input  -60.11 | X-H torsion
[ 7974 7965 7964 7962 ] final  -96.54 input  175.53 | X-H torsion
[ 8008 7997 7996 7995 ] final  168.78 input   59.86 | X-H torsion
[ 10167 10162 10161 10158 ] final  179.15 input  -65.29 | X-H torsion
[ 10718 10713 10712 10709 ] final  110.58 input   66.30 | X-H torsion
[ 10763 10752 10751 10750 ] final   98.24 input  -60.55 | X-H torsion
[ 11005 11000 10999 10996 ] final  -39.53 input  -57.11 | X-H torsion

> <Gold.Protein.ActiveResidues>
 VAL166  LYS551  ARG553  GLY616  TRP617  ASP618  TYR619  PRO620  LYS621  CYS622 
 ASP623  PHE694  ASN695  SER759  ASP760  ASP761  ALA762  ILE779  LEU786  VAL792 
 PHE793  MET794  SER795  GLU796  ALA797  LYS798  CYS799  TRP800  GLU811  SER814 

> <Gold.Protein.RotatedAtoms>
  150.8607  134.7958  159.7080 H   0  0  0  0  0  0  0  0  0  0  0  0  # atno 6907 bound_to 6896
  152.4645  134.5104  159.9762 H   0  0  0  0  0  0  0  0  0  0  0  0  # atno 6908 bound_to 6896
  151.5209  133.3428  159.2937 H   0  0  0  0  0  0  0  0  0  0  0  0  # atno 6909 bound_to 6896
  145.3456  140.9467  143.2583 H   0  0  0  0  0  0  0  0  0  0  0  0  # atno 7974 bound_to 7965
  156.1517  140.1581  156.8759 H   0  0  0  0  0  0  0  0  0  0  0  0  # atno 8008 bound_to 7997
  154.5077  140.0809  156.7964 H   0  0  0  0  0  0  0  0  0  0  0  0  # atno 8009 bound_to 7997
  155.3883  140.3408  155.4252 H   0  0  0  0  0  0  0  0  0  0  0  0  # atno 8010 bound_to 7997
  139.5324  144.2595  152.0718 H   0  0  0  0  0  0  0  0  0  0  0  0  # atno 10167 bound_to 10162
  157.6487  131.0935  150.6623 H   0  0  0  0  0  0  0  0  0  0  0  0  # atno 10718 bound_to 10713
  153.2866  135.4155  155.1128 H   0  0  0  0  0  0  0  0  0  0  0  0  # atno 10763 bound_to 10752
  154.8507  135.3508  154.6038 H   0  0  0  0  0  0  0  0  0  0  0  0  # atno 10764 bound_to 10752
  153.6460  135.7055  153.5283 H   0  0  0  0  0  0  0  0  0  0  0  0  # atno 10765 bound_to 10752
  141.0108  133.6909  156.2199 H   0  0  0  0  0  0  0  0  0  0  0  0  # atno 11005 bound_to 11000
  144.8757  139.4975  143.6747 LP  0  0  0  0  0  0  0  0  0  0  0  0  # atno 17320 bound_to 7965
  146.2989  139.7365  142.9106 LP  0  0  0  0  0  0  0  0  0  0  0  0  # atno 17321 bound_to 7965
  140.2061  144.4610  150.6408 LP  0  0  0  0  0  0  0  0  0  0  0  0  # atno 17342 bound_to 10162
  140.6510  143.2225  151.6076 LP  0  0  0  0  0  0  0  0  0  0  0  0  # atno 17343 bound_to 10162
  156.6937  130.4602  149.5592 LP  0  0  0  0  0  0  0  0  0  0  0  0  # atno 17370 bound_to 10713
  156.1844  130.6519  151.0989 LP  0  0  0  0  0  0  0  0  0  0  0  0  # atno 17371 bound_to 10713
  140.6736  134.4841  157.5588 LP  0  0  0  0  0  0  0  0  0  0  0  0  # atno 17394 bound_to 11000
  139.9089  134.8388  156.1602 LP  0  0  0  0  0  0  0  0  0  0  0  0  # atno 17395 bound_to 11000

$$$$
