AV-unprocessed.smi:944|AV-procd|sdf|4231|dock3
  -GOLD-   22720 2143D 1   1.00000     0.00000
 Structure written by MMmdl.
 28 28  0  0  0  0  0  0  0  0  1 V2000
  143.3989  137.0273  152.6867 C   0  0  0  0  0  0  0  0  0  0  0  0
  144.4844  137.9914  152.5957 N   0  0  0  0  0  0  0  0  0  0  0  0
  145.7670  137.7118  152.8675 C   0  0  0  0  0  0  0  0  0  0  0  0
  146.1527  136.5937  153.2135 O   0  0  0  0  0  0  0  0  0  0  0  0
  146.7643  138.8711  152.7054 C   0  0  2  0  0  0  0  0  0  0  0  0
  146.7360  139.3216  151.2355 C   0  0  0  0  0  0  0  0  0  0  0  0
  148.1233  138.4303  153.0143 N   0  0  0  0  0  0  0  0  0  0  0  0
  148.9255  138.9752  153.9432 C   0  0  0  0  0  0  0  0  0  0  0  0
  148.5990  139.9308  154.6468 O   0  0  0  0  0  0  0  0  0  0  0  0
  150.3086  138.3438  154.1037 C   0  0  0  0  0  0  0  0  0  0  0  0
  151.1209  139.0975  155.0412 N   0  0  0  0  0  0  0  0  0  0  0  0
  152.0165  138.6846  155.9401 C   0  0  0  0  0  0  0  0  0  0  0  0
  152.5672  139.6682  156.6380 N   0  0  0  0  0  0  0  0  0  0  0  0
  151.9208  140.7343  156.0788 C   0  0  0  0  0  0  0  0  0  0  0  0
  151.0431  140.4474  155.1174 N   0  0  0  0  0  0  0  0  0  0  0  0
  142.4563  137.5017  152.4138 H   0  0  0  0  0  0  0  0  0  0  0  0
  143.3055  136.6429  153.7033 H   0  0  0  0  0  0  0  0  0  0  0  0
  143.5668  136.1878  152.0106 H   0  0  0  0  0  0  0  0  0  0  0  0
  144.2463  138.9318  152.3151 H   0  0  0  0  0  0  0  0  0  0  0  0
  146.4848  139.7061  153.3512 H   0  0  0  0  0  0  0  0  0  0  0  0
  145.7434  139.6690  150.9461 H   0  0  0  0  0  0  0  0  0  0  0  0
  147.0175  138.5150  150.5567 H   0  0  0  0  0  0  0  0  0  0  0  0
  147.4285  140.1477  151.0693 H   0  0  0  0  0  0  0  0  0  0  0  0
  148.4761  137.6439  152.4879 H   0  0  0  0  0  0  0  0  0  0  0  0
  150.2125  137.3203  154.4684 H   0  0  0  0  0  0  0  0  0  0  0  0
  150.8131  138.2957  153.1373 H   0  0  0  0  0  0  0  0  0  0  0  0
  152.2677  137.6443  156.0880 H   0  0  0  0  0  0  0  0  0  0  0  0
  152.1022  141.7525  156.3901 H   0  0  0  0  0  0  0  0  0  0  0  0
  1  2  1  0  0  0  0
  1 16  1  0  0  0  0
  1 17  1  0  0  0  0
  1 18  1  0  0  0  0
  2  3  1  0  0  0  0
  2 19  1  0  0  0  0
  3  4  2  0  0  0  0
  3  5  1  0  0  0  0
  5  6  1  0  0  0  0
  5  7  1  0  0  0  0
  5 20  1  0  0  0  0
  6 21  1  0  0  0  0
  6 22  1  0  0  0  0
  6 23  1  0  0  0  0
  7  8  1  0  0  0  0
  7 24  1  0  0  0  0
  8  9  2  0  0  0  0
  8 10  1  0  0  0  0
 10 11  1  0  0  0  0
 10 25  1  0  0  0  0
 10 26  1  0  0  0  0
 11 15  1  0  0  0  0
 11 12  1  0  0  0  0
 12 13  2  0  0  0  0
 12 27  1  0  0  0  0
 13 14  1  0  0  0  0
 14 15  2  0  0  0  0
 14 28  1  0  0  0  0
M  END
> <s_m_source_file>
AV-unprocessed.smi

> <i_m_source_file_index>
944

> <i_lp_mmshare_version>
43012

> <i_f3d_flags>
0

> <s_epik_input>
W0NIM11bTkhdQyg9TylbQ0BIXShbQ0gzXSlbTkhdQyg9TylbQ0gyXW4xW2NIXW5bY0hdbjE=

> <s_epik_cmdline>
J2VwaWtfcHl0aG9uJywgJy1waCcsICc3LjAnLCAnLXRuJywgJzgnLCAnLW1hJywgJzIwMCcsICctbWV0YWxfYmluZGluZycsICctaW1hZScsICc8aW5maWxlLm1hZT4nLCAnLW9tYWUnLCAnPG91dGZpbGUubWFlPic=

> <r_lp_tautomer_probability>
1

> <r_epik_Ionization_Penalty>
7.54354e-06

> <r_epik_Ionization_Penalty_Charging>
0

> <r_epik_Ionization_Penalty_Neutral>
7.54354e-06

> <r_epik_State_Penalty>
-0

> <r_epik_Charging_Adjusted_Penalty>
0

> <i_epik_Tot_Q>
0

> <i_epik_Tot_abs_Q>
0

> <r_epik_Metal_State_Penalty>
-0

> <b_epik_Metal_Only>
0

> <s_lp_Force_Field>
OPLS_2005

> <r_lp_Energy>
4.44665

> <b_lp_Chiralities_Consistent>
1

> <s_lp_Variant>
AV-unprocessed.smi:944-1

> <Gold.Version>
5.8.1

> <Gold.Id.Protein>
6NUR|6NUR_protein|mol2

> <Gold.PLP.Fitness>
37.6595

> <Gold.PLP.PLP>
-26.5756

> <Gold.PLP.part.hbond>
-6.0000

> <Gold.PLP.part.metal>
0.0000

> <Gold.PLP.part.buried>
-1.0149

> <Gold.PLP.part.nonpolar>
-19.6339

> <Gold.PLP.part.repulsive>
0.5451

> <Gold.PLP.ligand.clash>
0.0000

> <Gold.PLP.ligand.torsion>
0.3769

> <Gold.PLP.Chemscore.Hbond>
3.9424

> <Gold.PLP.Chemscore.CHOScore>
0.0000

> <Gold.PLP.Chemscore.Metal>
0.0000

> <Gold.Chemscore.Hbonds>
donor molecule, donor type, donor heavy atom, donor atom, acceptor molecule, acceptor atom, score
      L1  H     2    19       P1 10175  1.00
      L1  H     7    24       P1  7948  1.00
      P1  H  7989  7998       L1    15  1.00
      P1  H  7997  8008       L1    13  1.00

> <Gold.PLP.Chemscore.Internal.Correction>
0.0105

> <Gold.Rescore>
     Score         DG    S(hbond)    S(metal)    S(lipo)     H(rot)  DE(clash)    DE(int)     intcor
      9.03     -11.77       2.93        0.00      30.05       2.74       0.51       2.23       ----

> <Gold.Chemscore.Fitness>
9.0288

> <Gold.Chemscore.DG>
-11.7707

> <Gold.Chemscore.ZeroCoef>
-5.4800

> <Gold.Chemscore.Hbond>
2.9327

> <Gold.Chemscore.Metal>
0.0000

> <Gold.Chemscore.Lipo>
30.0549

> <Gold.Chemscore.Internal_Hbond>
0.0000

> <Gold.Chemscore.DEClash>
0.5133

> <Gold.Chemscore.DEInternal>
2.2285

> <Gold.Chemscore.Rot>
2.7426

> <Gold.Chemscore.Internal.Correction>
   9.000000E+99

> <Gold.Chemscore.Hbonds>
donor molecule, donor type, donor heavy atom, donor atom, acceptor molecule, acceptor atom, score
      L1  H     2    19       P1 10175  0.98
      L1  H     7    24       P1  7948  0.98
      P1  H  7989  7998       L1    15  0.20
      P1  H  7997  8008       L1    13  0.34

> <Gold.Chemscore.Hbond.Weighted>
-9.7952

> <Gold.Chemscore.Metal.Weighted>
-0.0000

> <Gold.Chemscore.Lipo.Weighted>
-3.5164

> <Gold.Chemscore.Internal_Hbond.Weighted>
0.0000

> <Gold.Chemscore.DEClash.Weighted>
0.5133

> <Gold.Chemscore.DEInternal.Weighted>
2.2285

> <Gold.Chemscore.Rot.Weighted>
7.0210

> <Gold.Chemscore.Internal.Correction.Weighted>
   9.000000E+99

> <Gold.Protein.RotatedTorsions>
[ 6907 6896 6895 6894 ] final   95.63 input  -60.11 | X-H torsion
[ 7974 7965 7964 7962 ] final   35.53 input  175.53 | X-H torsion
[ 8008 7997 7996 7995 ] final  -46.49 input   59.86 | X-H torsion
[ 10167 10162 10161 10158 ] final  -43.67 input  -65.29 | X-H torsion
[ 10718 10713 10712 10709 ] final   12.10 input   66.30 | X-H torsion
[ 10763 10752 10751 10750 ] final  169.16 input  -60.55 | X-H torsion
[ 11005 11000 10999 10996 ] final  -42.45 input  -57.11 | X-H torsion

> <Gold.Protein.ActiveResidues>
 VAL166  LYS551  ARG553  GLY616  TRP617  ASP618  TYR619  PRO620  LYS621  CYS622 
 ASP623  PHE694  ASN695  SER759  ASP760  ASP761  ALA762  ILE779  LEU786  VAL792 
 PHE793  MET794  SER795  GLU796  ALA797  LYS798  CYS799  TRP800  GLU811  SER814 

> <Gold.Protein.RotatedAtoms>
  152.5442  134.1010  159.8317 H   0  0  0  0  0  0  0  0  0  0  0  0  # atno 6907 bound_to 6896
  151.1088  133.5181  159.2614 H   0  0  0  0  0  0  0  0  0  0  0  0  # atno 6908 bound_to 6896
  151.1908  135.0411  159.8886 H   0  0  0  0  0  0  0  0  0  0  0  0  # atno 6909 bound_to 6896
  146.1276  139.6131  142.9248 H   0  0  0  0  0  0  0  0  0  0  0  0  # atno 7974 bound_to 7965
  154.4008  140.1370  156.4020 H   0  0  0  0  0  0  0  0  0  0  0  0  # atno 8008 bound_to 7997
  155.7815  140.3481  155.5280 H   0  0  0  0  0  0  0  0  0  0  0  0  # atno 8009 bound_to 7997
  155.8668  140.0965  157.1567 H   0  0  0  0  0  0  0  0  0  0  0  0  # atno 8010 bound_to 7997
  140.6925  143.2970  151.3385 H   0  0  0  0  0  0  0  0  0  0  0  0  # atno 10167 bound_to 10162
  157.0052  130.6095  149.5701 H   0  0  0  0  0  0  0  0  0  0  0  0  # atno 10718 bound_to 10713
  154.3791  135.2753  155.2222 H   0  0  0  0  0  0  0  0  0  0  0  0  # atno 10763 bound_to 10752
  154.4336  135.5971  153.6088 H   0  0  0  0  0  0  0  0  0  0  0  0  # atno 10764 bound_to 10752
  152.9835  135.6001  154.4031 H   0  0  0  0  0  0  0  0  0  0  0  0  # atno 10765 bound_to 10752
  141.0317  133.6817  156.2597 H   0  0  0  0  0  0  0  0  0  0  0  0  # atno 11005 bound_to 11000
  145.5331  141.0426  143.2372 LP  0  0  0  0  0  0  0  0  0  0  0  0  # atno 17320 bound_to 7965
  144.7658  139.6849  143.7215 LP  0  0  0  0  0  0  0  0  0  0  0  0  # atno 17321 bound_to 7965
  139.6343  144.0660  152.2503 LP  0  0  0  0  0  0  0  0  0  0  0  0  # atno 17342 bound_to 10162
  140.0145  144.6199  150.7619 LP  0  0  0  0  0  0  0  0  0  0  0  0  # atno 17343 bound_to 10162
  156.0156  130.5250  150.8124 LP  0  0  0  0  0  0  0  0  0  0  0  0  # atno 17370 bound_to 10713
  157.5361  131.0939  150.9891 LP  0  0  0  0  0  0  0  0  0  0  0  0  # atno 17371 bound_to 10713
  140.6395  134.5180  157.5568 LP  0  0  0  0  0  0  0  0  0  0  0  0  # atno 17394 bound_to 11000
  139.9212  134.8145  156.1206 LP  0  0  0  0  0  0  0  0  0  0  0  0  # atno 17395 bound_to 11000

$$$$
