AV-unprocessed.smi:3305|AV-procd|sdf|12699|dock1
  -GOLD-   2272019 33D 1   1.00000     0.00000
 Structure written by MMmdl.
 32 33  0  0  0  0  0  0  0  0  1 V2000
  152.6647  143.7279  162.2164 C   0  0  0  0  0  0  0  0  0  0  0  0
  152.0389  144.0626  160.8993 C   0  0  0  0  0  0  0  0  0  0  0  0
  151.8565  145.3117  160.3602 C   0  0  0  0  0  0  0  0  0  0  0  0
  151.0623  145.2413  158.8103 S   0  0  0  0  0  0  0  0  0  0  0  0
  151.0189  143.4878  158.9470 C   0  0  0  0  0  0  0  0  0  0  0  0
  150.3778  142.5985  157.9289 C   0  0  0  0  0  0  0  0  0  0  0  0
  151.3780  141.7280  157.1392 C   0  0  0  0  0  0  0  0  0  0  0  0
  150.7249  140.7094  156.3224 N   0  0  0  0  0  0  0  0  0  0  0  0
  151.3576  139.8347  155.5260 C   0  0  0  0  0  0  0  0  0  0  0  0
  152.5739  139.8555  155.3339 O   0  0  0  0  0  0  0  0  0  0  0  0
  150.4795  138.7571  154.8708 C   0  0  2  0  0  0  0  0  0  0  0  0
  149.7158  137.9355  155.9151 C   0  0  0  0  0  0  0  0  0  0  0  0
  150.2805  136.5189  155.7876 C   0  0  0  0  0  0  0  0  0  0  0  0
  151.5171  136.6861  155.1147 O   0  0  0  0  0  0  0  0  0  0  0  0
  151.3156  137.6970  154.1409 C   0  0  0  0  0  0  0  0  0  0  0  0
  151.5605  143.0360  160.0820 N   0  0  0  0  0  0  0  0  0  0  0  0
  153.0027  144.6236  162.7376 H   0  0  0  0  0  0  0  0  0  0  0  0
  153.5283  143.0753  162.0874 H   0  0  0  0  0  0  0  0  0  0  0  0
  151.9565  143.2149  162.8676 H   0  0  0  0  0  0  0  0  0  0  0  0
  152.1336  146.2664  160.7824 H   0  0  0  0  0  0  0  0  0  0  0  0
  149.6504  141.9606  158.4311 H   0  0  0  0  0  0  0  0  0  0  0  0
  149.8076  143.2225  157.2393 H   0  0  0  0  0  0  0  0  0  0  0  0
  151.9493  142.3634  156.4620 H   0  0  0  0  0  0  0  0  0  0  0  0
  152.1011  141.2677  157.8141 H   0  0  0  0  0  0  0  0  0  0  0  0
  149.7238  140.6210  156.4206 H   0  0  0  0  0  0  0  0  0  0  0  0
  149.7902  139.2306  154.1701 H   0  0  0  0  0  0  0  0  0  0  0  0
  149.8688  138.3119  156.9284 H   0  0  0  0  0  0  0  0  0  0  0  0
  148.6412  137.9470  155.7309 H   0  0  0  0  0  0  0  0  0  0  0  0
  150.4140  136.0311  156.7533 H   0  0  0  0  0  0  0  0  0  0  0  0
  149.6227  135.8963  155.1793 H   0  0  0  0  0  0  0  0  0  0  0  0
  150.7620  137.2856  153.2954 H   0  0  0  0  0  0  0  0  0  0  0  0
  152.2674  138.0731  153.7633 H   0  0  0  0  0  0  0  0  0  0  0  0
  1  2  1  0  0  0  0
  1 17  1  0  0  0  0
  1 18  1  0  0  0  0
  1 19  1  0  0  0  0
  2 16  1  0  0  0  0
  2  3  2  0  0  0  0
  3  4  1  0  0  0  0
  3 20  1  0  0  0  0
  4  5  1  0  0  0  0
  5  6  1  0  0  0  0
  5 16  2  0  0  0  0
  6  7  1  0  0  0  0
  6 21  1  0  0  0  0
  6 22  1  0  0  0  0
  7  8  1  0  0  0  0
  7 23  1  0  0  0  0
  7 24  1  0  0  0  0
  8  9  1  0  0  0  0
  8 25  1  0  0  0  0
  9 10  2  0  0  0  0
  9 11  1  0  0  0  0
 11 15  1  0  0  0  0
 11 12  1  0  0  0  0
 11 26  1  0  0  0  0
 12 13  1  0  0  0  0
 12 27  1  0  0  0  0
 12 28  1  0  0  0  0
 13 14  1  0  0  0  0
 13 29  1  0  0  0  0
 13 30  1  0  0  0  0
 14 15  1  0  0  0  0
 15 31  1  0  0  0  0
 15 32  1  0  0  0  0
M  END
> <s_m_source_file>
AV-unprocessed.smi

> <i_m_source_file_index>
3305

> <i_lp_mmshare_version>
43012

> <i_f3d_flags>
0

> <s_epik_input>
W0NIM11jMVtjSF1zYyhuMSlbQ0gyXVtDSDJdW05IXUMoPU8pW0NAQEhdMltDSDJdW0NIMl1PW0NIMl0y

> <s_epik_cmdline>
J2VwaWtfcHl0aG9uJywgJy1waCcsICc3LjAnLCAnLXRuJywgJzgnLCAnLW1hJywgJzIwMCcsICctbWV0YWxfYmluZGluZycsICctaW1hZScsICc8aW5maWxlLm1hZT4nLCAnLW9tYWUnLCAnPG91dGZpbGUubWFlPic=

> <r_epik_Ionization_Penalty>
0.00102754

> <r_epik_Ionization_Penalty_Charging>
0

> <r_epik_Ionization_Penalty_Neutral>
0.00102754

> <r_epik_State_Penalty>
0.000671034

> <r_epik_Charging_Adjusted_Penalty>
0.000671034

> <i_epik_Tot_Q>
0

> <i_epik_Tot_abs_Q>
0

> <r_epik_Metal_State_Penalty>
-0

> <b_epik_Metal_Only>
0

> <s_lp_Force_Field>
OPLS_2005

> <r_lp_Energy>
8.47785

> <b_lp_Chiralities_Consistent>
1

> <s_lp_Variant>
AV-unprocessed.smi:3305-1

> <Gold.Version>
5.8.1

> <Gold.Id.Protein>
6NUR|6NUR_protein|mol2

> <Gold.PLP.Fitness>
41.0135

> <Gold.PLP.PLP>
-35.3054

> <Gold.PLP.part.hbond>
-3.1585

> <Gold.PLP.part.metal>
0.0000

> <Gold.PLP.part.buried>
-4.3397

> <Gold.PLP.part.nonpolar>
-26.4052

> <Gold.PLP.part.repulsive>
0.2314

> <Gold.PLP.ligand.clash>
0.0000

> <Gold.PLP.ligand.torsion>
0.1735

> <Gold.PLP.Chemscore.Hbond>
2.0000

> <Gold.PLP.Chemscore.CHOScore>
0.0000

> <Gold.PLP.Chemscore.Metal>
0.0000

> <Gold.Chemscore.Hbonds>
donor molecule, donor type, donor heavy atom, donor atom, acceptor molecule, acceptor atom, score
      P1  H  7997  8010       L1    10  1.00
      P1  H 10752 10763       L1    14  1.00

> <Gold.PLP.Chemscore.Internal.Correction>
0.0551

> <Gold.Rescore>
     Score         DG    S(hbond)    S(metal)    S(lipo)     H(rot)  DE(clash)    DE(int)     intcor
     19.03     -19.41       1.99        0.00      95.39       1.52       0.20       0.19       ----

> <Gold.Chemscore.Fitness>
19.0269

> <Gold.Chemscore.DG>
-19.4143

> <Gold.Chemscore.ZeroCoef>
-5.4800

> <Gold.Chemscore.Hbond>
1.9924

> <Gold.Chemscore.Metal>
0.0000

> <Gold.Chemscore.Lipo>
95.3874

> <Gold.Chemscore.Internal_Hbond>
0.0000

> <Gold.Chemscore.DEClash>
0.2013

> <Gold.Chemscore.DEInternal>
0.1862

> <Gold.Chemscore.Rot>
1.5159

> <Gold.Chemscore.Internal.Correction>
   9.000000E+99

> <Gold.Chemscore.Hbonds>
donor molecule, donor type, donor heavy atom, donor atom, acceptor molecule, acceptor atom, score
      P1  H  7997  8010       L1    10  0.95
      P1  H 10752 10763       L1    14  0.74

> <Gold.Chemscore.Hbond.Weighted>
-6.6546

> <Gold.Chemscore.Metal.Weighted>
-0.0000

> <Gold.Chemscore.Lipo.Weighted>
-11.1603

> <Gold.Chemscore.Internal_Hbond.Weighted>
0.0000

> <Gold.Chemscore.DEClash.Weighted>
0.2013

> <Gold.Chemscore.DEInternal.Weighted>
0.1862

> <Gold.Chemscore.Rot.Weighted>
3.8807

> <Gold.Chemscore.Internal.Correction.Weighted>
   9.000000E+99

> <Gold.Protein.RotatedTorsions>
[ 6907 6896 6895 6894 ] final   79.20 input  -60.11 | X-H torsion
[ 7974 7965 7964 7962 ] final  173.63 input  175.53 | X-H torsion
[ 8008 7997 7996 7995 ] final  108.40 input   59.86 | X-H torsion
[ 10167 10162 10161 10158 ] final    7.32 input  -65.29 | X-H torsion
[ 10718 10713 10712 10709 ] final  134.96 input   66.30 | X-H torsion
[ 10763 10752 10751 10750 ] final   61.14 input  -60.55 | X-H torsion
[ 11005 11000 10999 10996 ] final  -23.19 input  -57.11 | X-H torsion

> <Gold.Protein.ActiveResidues>
 VAL166  LYS551  ARG553  GLY616  TRP617  ASP618  TYR619  PRO620  LYS621  CYS622 
 ASP623  PHE694  ASN695  SER759  ASP760  ASP761  ALA762  ILE779  LEU786  VAL792 
 PHE793  MET794  SER795  GLU796  ALA797  LYS798  CYS799  TRP800  GLU811  SER814 

> <Gold.Protein.RotatedAtoms>
  152.5189  134.3547  159.9263 H   0  0  0  0  0  0  0  0  0  0  0  0  # atno 6907 bound_to 6896
  151.3498  133.3923  159.2687 H   0  0  0  0  0  0  0  0  0  0  0  0  # atno 6908 bound_to 6896
  150.9736  134.9123  159.7860 H   0  0  0  0  0  0  0  0  0  0  0  0  # atno 6909 bound_to 6896
  144.7239  139.9677  143.6436 H   0  0  0  0  0  0  0  0  0  0  0  0  # atno 7974 bound_to 7965
  156.1900  140.3077  155.9314 H   0  0  0  0  0  0  0  0  0  0  0  0  # atno 8008 bound_to 7997
  155.3194  140.0455  157.3055 H   0  0  0  0  0  0  0  0  0  0  0  0  # atno 8009 bound_to 7997
  154.5441  140.2271  155.8602 H   0  0  0  0  0  0  0  0  0  0  0  0  # atno 8010 bound_to 7997
  140.6378  143.7844  150.7385 H   0  0  0  0  0  0  0  0  0  0  0  0  # atno 10167 bound_to 10162
  157.4619  131.1074  150.9909 H   0  0  0  0  0  0  0  0  0  0  0  0  # atno 10718 bound_to 10713
  152.9941  135.5511  154.5986 H   0  0  0  0  0  0  0  0  0  0  0  0  # atno 10763 bound_to 10752
  154.5332  135.2815  155.1164 H   0  0  0  0  0  0  0  0  0  0  0  0  # atno 10764 bound_to 10752
  154.2470  135.6406  153.5280 H   0  0  0  0  0  0  0  0  0  0  0  0  # atno 10765 bound_to 10752
  140.8728  133.7708  156.0207 H   0  0  0  0  0  0  0  0  0  0  0  0  # atno 11005 bound_to 11000
  146.0588  139.3583  143.0594 LP  0  0  0  0  0  0  0  0  0  0  0  0  # atno 17320 bound_to 7965
  145.8120  140.9721  143.0944 LP  0  0  0  0  0  0  0  0  0  0  0  0  # atno 17321 bound_to 7965
  140.1469  143.4391  152.2157 LP  0  0  0  0  0  0  0  0  0  0  0  0  # atno 17342 bound_to 10162
  139.5588  144.7391  151.4215 LP  0  0  0  0  0  0  0  0  0  0  0  0  # atno 17343 bound_to 10162
  157.0703  130.5861  149.5401 LP  0  0  0  0  0  0  0  0  0  0  0  0  # atno 17370 bound_to 10713
  156.0033  130.5115  150.7740 LP  0  0  0  0  0  0  0  0  0  0  0  0  # atno 17371 bound_to 10713
  140.8553  134.2906  157.5258 LP  0  0  0  0  0  0  0  0  0  0  0  0  # atno 17394 bound_to 11000
  139.8713  134.9489  156.4011 LP  0  0  0  0  0  0  0  0  0  0  0  0  # atno 17395 bound_to 11000

$$$$
