AV-unprocessed.smi:249|AV-procd|sdf|1903|dock10
  -GOLD-   2262020583D 1   1.00000     0.00000
 Structure written by MMmdl.
 64 67  0  0  0  0  0  0  0  0  2 V2000
  146.7648  130.0258  152.2775 C   0  0  0  0  0  0  0  0  0  0  0  0
  146.8820  131.3683  153.0150 C   0  0  0  0  0  0  0  0  0  0  0  0
  148.2411  131.9777  152.9111 N   0  3  1  0  0  0  0  0  0  0  0  0
  148.2530  133.4645  153.0105 C   0  0  0  0  0  0  0  0  0  0  0  0
  147.9817  133.9454  154.4484 C   0  0  0  0  0  0  0  0  0  0  0  0
  149.0001  133.3372  155.4372 C   0  0  1  0  0  0  0  0  0  0  0  0
  148.8173  133.7842  156.8244 N   0  0  0  0  0  0  0  0  0  0  0  0
  147.5797  133.4039  157.4954 C   0  0  0  0  0  0  0  0  0  0  0  0
  149.2573  135.0244  157.1448 C   0  0  0  0  0  0  0  0  0  0  0  0
  149.1069  135.4281  158.4311 N   0  0  0  0  0  0  0  0  0  0  0  0
  149.5196  136.6429  158.8052 C   0  0  0  0  0  0  0  0  0  0  0  0
  150.0936  137.5940  158.0656 N   0  0  0  0  0  0  0  0  0  0  0  0
  150.2372  137.1952  156.7693 C   0  0  0  0  0  0  0  0  0  0  0  0
  149.8514  135.9373  156.2270 C   0  0  0  0  0  0  0  0  0  0  0  0
  150.1685  135.8888  154.8743 N   0  0  0  0  0  0  0  0  0  0  0  0
  150.7079  137.0517  154.6305 C   0  0  0  0  0  0  0  0  0  0  0  0
  150.7711  137.9055  155.7084 N   0  0  0  0  0  0  0  0  0  0  0  0
  151.3210  139.2492  155.7193 C   0  0  0  0  0  0  0  0  0  0  0  0
  150.3994  140.3303  155.0958 C   0  0  1  0  0  0  0  0  0  0  0  0
  149.1821  139.6410  154.4369 C   0  0  0  0  0  0  0  0  0  0  0  0
  148.4321  140.5459  153.6513 O   0  0  0  0  0  0  0  0  0  0  0  0
  149.9834  141.4658  156.0768 C   0  0  2  0  0  0  0  0  0  0  0  0
  151.1367  142.3083  156.5996 C   0  0  0  0  0  0  0  0  0  0  0  0
  150.5203  142.9728  157.8211 C   0  0  0  0  0  0  0  0  0  0  0  0
  149.7130  141.9594  158.3991 O   0  0  0  0  0  0  0  0  0  0  0  0
  149.3482  141.0095  157.4015 C   0  0  0  0  0  0  0  0  0  0  0  0
  149.0267  131.7997  155.2866 C   0  0  0  0  0  0  0  0  0  0  0  0
  149.2723  131.3899  153.8199 C   0  0  1  0  0  0  0  0  0  0  0  0
  149.4454  129.8691  153.6554 C   0  0  0  0  0  0  0  0  0  0  0  0
  145.8109  129.5495  152.5053 H   0  0  0  0  0  0  0  0  0  0  0  0
  147.5556  129.3382  152.5790 H   0  0  0  0  0  0  0  0  0  0  0  0
  146.8082  130.1439  151.1954 H   0  0  0  0  0  0  0  0  0  0  0  0
  146.1147  132.0572  152.6630 H   0  0  0  0  0  0  0  0  0  0  0  0
  146.6490  131.1647  154.0582 H   0  0  0  0  0  0  0  0  0  0  0  0
  149.2331  133.8224  152.6925 H   0  0  0  0  0  0  0  0  0  0  0  0
  147.5444  133.9150  152.3174 H   0  0  0  0  0  0  0  0  0  0  0  0
  148.0390  135.0338  154.4848 H   0  0  0  0  0  0  0  0  0  0  0  0
  146.9610  133.6851  154.7270 H   0  0  0  0  0  0  0  0  0  0  0  0
  149.9829  133.7053  155.1388 H   0  0  0  0  0  0  0  0  0  0  0  0
  147.5730  133.7483  158.5306 H   0  0  0  0  0  0  0  0  0  0  0  0
  147.4796  132.3186  157.5076 H   0  0  0  0  0  0  0  0  0  0  0  0
  146.7059  133.8171  156.9921 H   0  0  0  0  0  0  0  0  0  0  0  0
  149.3667  136.8886  159.8457 H   0  0  0  0  0  0  0  0  0  0  0  0
  151.0640  137.3251  153.6478 H   0  0  0  0  0  0  0  0  0  0  0  0
  151.5367  139.4995  156.7587 H   0  0  0  0  0  0  0  0  0  0  0  0
  152.2823  139.2323  155.2042 H   0  0  0  0  0  0  0  0  0  0  0  0
  150.9499  140.7974  154.2786 H   0  0  0  0  0  0  0  0  0  0  0  0
  149.4932  138.8045  153.8115 H   0  0  0  0  0  0  0  0  0  0  0  0
  148.5271  139.2192  155.2001 H   0  0  0  0  0  0  0  0  0  0  0  0
  148.6597  140.4162  152.7431 H   0  0  0  0  0  0  0  0  0  0  0  0
  149.2840  142.1352  155.5737 H   0  0  0  0  0  0  0  0  0  0  0  0
  151.9703  141.6728  156.9019 H   0  0  0  0  0  0  0  0  0  0  0  0
  151.5029  143.0352  155.8740 H   0  0  0  0  0  0  0  0  0  0  0  0
  151.2663  143.3427  158.5245 H   0  0  0  0  0  0  0  0  0  0  0  0
  149.8845  143.8078  157.5233 H   0  0  0  0  0  0  0  0  0  0  0  0
  148.2632  140.9448  157.3330 H   0  0  0  0  0  0  0  0  0  0  0  0
  149.7272  140.0350  157.7113 H   0  0  0  0  0  0  0  0  0  0  0  0
  149.8124  131.3780  155.9137 H   0  0  0  0  0  0  0  0  0  0  0  0
  148.0903  131.3638  155.6347 H   0  0  0  0  0  0  0  0  0  0  0  0
  150.2241  131.8287  153.5156 H   0  0  0  0  0  0  0  0  0  0  0  0
  150.3427  129.5291  154.1732 H   0  0  0  0  0  0  0  0  0  0  0  0
  149.5501  129.5922  152.6059 H   0  0  0  0  0  0  0  0  0  0  0  0
  148.6095  129.3098  154.0755 H   0  0  0  0  0  0  0  0  0  0  0  0
  148.5529  131.7614  151.9750 H   0  0  0  0  0  0  0  0  0  0  0  0
  1  2  1  0  0  0  0
  1 30  1  0  0  0  0
  1 31  1  0  0  0  0
  1 32  1  0  0  0  0
  2  3  1  0  0  0  0
  2 33  1  0  0  0  0
  2 34  1  0  0  0  0
  3 28  1  0  0  0  0
  3  4  1  0  0  0  0
  3 64  1  0  0  0  0
  4  5  1  0  0  0  0
  4 35  1  0  0  0  0
  4 36  1  0  0  0  0
  5  6  1  0  0  0  0
  5 37  1  0  0  0  0
  5 38  1  0  0  0  0
  6  7  1  0  0  0  0
  6 27  1  0  0  0  0
  6 39  1  0  0  0  0
  7  8  1  0  0  0  0
  7  9  1  0  0  0  0
  8 40  1  0  0  0  0
  8 41  1  0  0  0  0
  8 42  1  0  0  0  0
  9 14  1  0  0  0  0
  9 10  2  0  0  0  0
 10 11  1  0  0  0  0
 11 12  2  0  0  0  0
 11 43  1  0  0  0  0
 12 13  1  0  0  0  0
 13 17  1  0  0  0  0
 13 14  2  0  0  0  0
 14 15  1  0  0  0  0
 15 16  2  0  0  0  0
 16 17  1  0  0  0  0
 16 44  1  0  0  0  0
 17 18  1  0  0  0  0
 18 19  1  0  0  0  0
 18 45  1  0  0  0  0
 18 46  1  0  0  0  0
 19 20  1  0  0  0  0
 19 22  1  0  0  0  0
 19 47  1  0  0  0  0
 20 21  1  0  0  0  0
 20 48  1  0  0  0  0
 20 49  1  0  0  0  0
 21 50  1  0  0  0  0
 22 26  1  0  0  0  0
 22 23  1  0  0  0  0
 22 51  1  0  0  0  0
 23 24  1  0  0  0  0
 23 52  1  0  0  0  0
 23 53  1  0  0  0  0
 24 25  1  0  0  0  0
 24 54  1  0  0  0  0
 24 55  1  0  0  0  0
 25 26  1  0  0  0  0
 26 56  1  0  0  0  0
 26 57  1  0  0  0  0
 27 28  1  0  0  0  0
 27 58  1  0  0  0  0
 27 59  1  0  0  0  0
 28 29  1  0  0  0  0
 28 60  1  0  0  0  0
 29 61  1  0  0  0  0
 29 62  1  0  0  0  0
 29 63  1  0  0  0  0
M  CHG  1   3   1
M  END
> <s_m_source_file>
AV-unprocessed.smi

> <i_m_source_file_index>
249

> <i_lp_mmshare_version>
43012

> <i_f3d_flags>
0

> <s_epik_input>
W0NIM11bQ0gyXU4xW0NIMl1bQ0gyXVtDQEhdKFtDSDJdW0NASF0xW0NIM10pTihbQ0gzXSljKG5bY0hdbjIpYyhjMjMpbltjSF1uM1tDSDJdW0NASF0oW0NIMl1bT0hdKVtDQEBIXTRbQ0gyXVtDSDJdT1tDSDJdNA==

> <s_epik_cmdline>
J2VwaWtfcHl0aG9uJywgJy1waCcsICc3LjAnLCAnLXRuJywgJzgnLCAnLW1hJywgJzIwMCcsICctbWV0YWxfYmluZGluZycsICctaW1hZScsICc8aW5maWxlLm1hZT4nLCAnLW9tYWUnLCAnPG91dGZpbGUubWFlPic=

> <r_lp_tautomer_probability>
1

> <r_epik_Ionization_Penalty>
0.00294688

> <r_epik_Ionization_Penalty_Charging>
0.00169971

> <r_epik_Ionization_Penalty_Neutral>
0.00124717

> <r_epik_State_Penalty>
-0

> <r_epik_Charging_Adjusted_Penalty>
0.00169971

> <i_epik_Tot_Q>
1

> <i_epik_Tot_abs_Q>
1

> <r_epik_Metal_State_Penalty>
-0

> <b_epik_Metal_Only>
0

> <s_lp_Force_Field>
OPLS_2005

> <r_lp_Energy>
55.2795

> <b_lp_Chiralities_Consistent>
1

> <s_lp_Variant>
AV-unprocessed.smi:249-6

> <Gold.Version>
5.8.1

> <Gold.Id.Protein>
6NUR|6NUR_protein|mol2

> <Gold.PLP.Fitness>
46.2035

> <Gold.PLP.PLP>
-37.1704

> <Gold.PLP.part.hbond>
-3.0000

> <Gold.PLP.part.metal>
0.0000

> <Gold.PLP.part.buried>
-3.9760

> <Gold.PLP.part.nonpolar>
-31.1156

> <Gold.PLP.part.repulsive>
0.2265

> <Gold.PLP.ligand.clash>
0.0000

> <Gold.PLP.ligand.torsion>
1.7992

> <Gold.PLP.Chemscore.Hbond>
2.9000

> <Gold.PLP.Chemscore.CHOScore>
1.0000

> <Gold.PLP.Chemscore.Metal>
0.0000

> <Gold.Chemscore.Hbonds>
donor molecule, donor type, donor heavy atom, donor atom, acceptor molecule, acceptor atom, score
      L1  H     3    64       P1 10747  1.00
      L1  H    21    50       P1  7957  1.00
      P1  H  6896  6908       L1    10  0.57
      L1  C    16    44       P1  7948  0.01
      L1  C    16    44       P1  7949  0.98

> <Gold.PLP.Chemscore.Internal.Correction>
0.9316

> <Gold.Rescore>
     Score         DG    S(hbond)    S(metal)    S(lipo)     H(rot)  DE(clash)    DE(int)     intcor
     10.89     -15.26       1.99        0.00      90.09       2.90       0.07       4.29       ----

> <Gold.Chemscore.Fitness>
10.8948

> <Gold.Chemscore.DG>
-15.2576

> <Gold.Chemscore.ZeroCoef>
-5.4800

> <Gold.Chemscore.Hbond>
1.9950

> <Gold.Chemscore.Metal>
0.0000

> <Gold.Chemscore.Lipo>
90.0851

> <Gold.Chemscore.Internal_Hbond>
0.0000

> <Gold.Chemscore.DEClash>
0.0712

> <Gold.Chemscore.DEInternal>
4.2916

> <Gold.Chemscore.Rot>
2.9006

> <Gold.Chemscore.Internal.Correction>
   9.000000E+99

> <Gold.Chemscore.Hbonds>
donor molecule, donor type, donor heavy atom, donor atom, acceptor molecule, acceptor atom, score
      L1  H     3    64       P1 10747  0.98
      L1  H    21    50       P1  7957  1.00
      P1  H  6896  6908       L1    10  0.04

> <Gold.Chemscore.Hbond.Weighted>
-6.6633

> <Gold.Chemscore.Metal.Weighted>
-0.0000

> <Gold.Chemscore.Lipo.Weighted>
-10.5400

> <Gold.Chemscore.Internal_Hbond.Weighted>
0.0000

> <Gold.Chemscore.DEClash.Weighted>
0.0712

> <Gold.Chemscore.DEInternal.Weighted>
4.2916

> <Gold.Chemscore.Rot.Weighted>
7.4256

> <Gold.Chemscore.Internal.Correction.Weighted>
   9.000000E+99

> <Gold.Protein.RotatedTorsions>
[ 6907 6896 6895 6894 ] final  143.18 input  -60.11 | X-H torsion
[ 7974 7965 7964 7962 ] final -161.25 input  175.53 | X-H torsion
[ 8008 7997 7996 7995 ] final   86.92 input   59.86 | X-H torsion
[ 10167 10162 10161 10158 ] final   23.25 input  -65.29 | X-H torsion
[ 10718 10713 10712 10709 ] final   55.56 input   66.30 | X-H torsion
[ 10763 10752 10751 10750 ] final  110.64 input  -60.55 | X-H torsion
[ 11005 11000 10999 10996 ] final  -13.90 input  -57.11 | X-H torsion

> <Gold.Protein.ActiveResidues>
 VAL166  LYS551  ARG553  GLY616  TRP617  ASP618  TYR619  PRO620  LYS621  CYS622 
 ASP623  PHE694  ASN695  SER759  ASP760  ASP761  ALA762  ILE779  LEU786  VAL792 
 PHE793  MET794  SER795  GLU796  ALA797  LYS798  CYS799  TRP800  GLU811  SER814 

> <Gold.Protein.RotatedAtoms>
  152.2094  133.4900  159.5101 H   0  0  0  0  0  0  0  0  0  0  0  0  # atno 6907 bound_to 6896
  150.6987  134.1486  159.4141 H   0  0  0  0  0  0  0  0  0  0  0  0  # atno 6908 bound_to 6896
  151.9405  135.0215  160.0586 H   0  0  0  0  0  0  0  0  0  0  0  0  # atno 6909 bound_to 6896
  144.7398  140.3424  143.6132 H   0  0  0  0  0  0  0  0  0  0  0  0  # atno 7974 bound_to 7965
  155.9688  140.3387  155.6557 H   0  0  0  0  0  0  0  0  0  0  0  0  # atno 8008 bound_to 7997
  155.6702  140.0726  157.2541 H   0  0  0  0  0  0  0  0  0  0  0  0  # atno 8009 bound_to 7997
  154.4161  140.1693  156.1858 H   0  0  0  0  0  0  0  0  0  0  0  0  # atno 8010 bound_to 7997
  140.5284  143.9884  150.6452 H   0  0  0  0  0  0  0  0  0  0  0  0  # atno 10167 bound_to 10162
  157.5355  130.8660  149.8748 H   0  0  0  0  0  0  0  0  0  0  0  0  # atno 10718 bound_to 10713
  153.4519  135.3742  155.2289 H   0  0  0  0  0  0  0  0  0  0  0  0  # atno 10763 bound_to 10752
  154.8756  135.3888  154.4028 H   0  0  0  0  0  0  0  0  0  0  0  0  # atno 10764 bound_to 10752
  153.4588  135.7086  153.6127 H   0  0  0  0  0  0  0  0  0  0  0  0  # atno 10765 bound_to 10752
  140.7808  133.8364  155.9291 H   0  0  0  0  0  0  0  0  0  0  0  0  # atno 11005 bound_to 11000
  145.7360  139.1750  143.2403 LP  0  0  0  0  0  0  0  0  0  0  0  0  # atno 17320 bound_to 7965
  146.1170  140.7357  142.9476 LP  0  0  0  0  0  0  0  0  0  0  0  0  # atno 17321 bound_to 7965
  140.3252  143.3112  152.0743 LP  0  0  0  0  0  0  0  0  0  0  0  0  # atno 17342 bound_to 10162
  139.4946  144.6547  151.6599 LP  0  0  0  0  0  0  0  0  0  0  0  0  # atno 17343 bound_to 10162
  156.0455  130.3729  150.1327 LP  0  0  0  0  0  0  0  0  0  0  0  0  # atno 17370 bound_to 10713
  156.9510  130.9775  151.3498 LP  0  0  0  0  0  0  0  0  0  0  0  0  # atno 17371 bound_to 10713
  140.9484  134.1811  157.4746 LP  0  0  0  0  0  0  0  0  0  0  0  0  # atno 17394 bound_to 11000
  139.8743  134.9899  156.5480 LP  0  0  0  0  0  0  0  0  0  0  0  0  # atno 17395 bound_to 11000

$$$$
