AV-unprocessed.smi:55|AV-procd|sdf|567|dock3
  -GOLD-   2262016473D 1   1.00000     0.00000
 Structure written by MMmdl.
 31 32  0  0  0  0  0  0  0  0  1 V2000
  150.2811  142.7891  158.9105 C   0  0  0  0  0  0  0  0  0  0  0  0
  150.6191  141.8540  157.7612 C   0  0  0  0  0  0  0  0  0  0  0  0
  149.8828  141.8054  156.6217 C   0  0  0  0  0  0  0  0  0  0  0  0
  150.1693  140.9668  155.5534 N   0  0  0  0  0  0  0  0  0  0  0  0
  149.3124  140.9674  154.3080 C   0  0  2  0  0  0  0  0  0  0  0  0
  148.1309  141.9266  154.4632 C   0  0  0  0  0  0  0  0  0  0  0  0
  147.0237  141.1596  153.7711 C   0  0  2  0  0  0  0  0  0  0  0  0
  145.7603  141.5512  154.2677 O   0  0  0  0  0  0  0  0  0  0  0  0
  147.3724  139.7107  154.1258 C   0  0  1  0  0  0  0  0  0  0  0  0
  146.8307  138.6592  153.1450 C   0  0  0  0  0  0  0  0  0  0  0  0
  147.4443  138.7968  151.8811 O   0  0  0  0  0  0  0  0  0  0  0  0
  148.7984  139.6825  154.1084 O   0  0  0  0  0  0  0  0  0  0  0  0
  151.2977  140.1232  155.6208 C   0  0  0  0  0  0  0  0  0  0  0  0
  151.6342  139.3759  154.7034 O   0  0  0  0  0  0  0  0  0  0  0  0
  152.0513  140.1687  156.7924 N   0  0  0  0  0  0  0  0  0  0  0  0
  151.7907  140.9842  157.8964 C   0  0  0  0  0  0  0  0  0  0  0  0
  152.5296  140.9314  158.8780 O   0  0  0  0  0  0  0  0  0  0  0  0
  149.9511  141.2003  153.4546 H   0  0  0  0  0  0  0  0  0  0  0  0
  147.0741  141.3188  152.6931 H   0  0  0  0  0  0  0  0  0  0  0  0
  147.0500  139.4829  155.1433 H   0  0  0  0  0  0  0  0  0  0  0  0
  152.8582  139.5642  156.8461 H   0  0  0  0  0  0  0  0  0  0  0  0
  149.3841  143.3741  158.7056 H   0  0  0  0  0  0  0  0  0  0  0  0
  151.1013  143.4857  159.0877 H   0  0  0  0  0  0  0  0  0  0  0  0
  150.1085  142.2226  159.8262 H   0  0  0  0  0  0  0  0  0  0  0  0
  149.0309  142.4633  156.5429 H   0  0  0  0  0  0  0  0  0  0  0  0
  147.9048  142.0639  155.5224 H   0  0  0  0  0  0  0  0  0  0  0  0
  148.3459  142.8975  154.0158 H   0  0  0  0  0  0  0  0  0  0  0  0
  145.0971  141.2600  153.6601 H   0  0  0  0  0  0  0  0  0  0  0  0
  146.9914  137.6493  153.5236 H   0  0  0  0  0  0  0  0  0  0  0  0
  145.7557  138.7873  153.0164 H   0  0  0  0  0  0  0  0  0  0  0  0
  147.9489  138.0171  151.7058 H   0  0  0  0  0  0  0  0  0  0  0  0
  1  2  1  0  0  0  0
  1 22  1  0  0  0  0
  1 23  1  0  0  0  0
  1 24  1  0  0  0  0
  2 16  1  0  0  0  0
  2  3  2  0  0  0  0
  3  4  1  0  0  0  0
  3 25  1  0  0  0  0
  4  5  1  0  0  0  0
  4 13  1  0  0  0  0
  5 18  1  0  0  0  0
  5 12  1  0  0  0  0
  5  6  1  0  0  0  0
  6  7  1  0  0  0  0
  6 26  1  0  0  0  0
  6 27  1  0  0  0  0
  7 19  1  0  0  0  0
  7  8  1  0  0  0  0
  7  9  1  0  0  0  0
  8 28  1  0  0  0  0
  9 20  1  0  0  0  0
  9 10  1  0  0  0  0
  9 12  1  0  0  0  0
 10 11  1  0  0  0  0
 10 29  1  0  0  0  0
 10 30  1  0  0  0  0
 11 31  1  0  0  0  0
 13 14  2  0  0  0  0
 13 15  1  0  0  0  0
 15 21  1  0  0  0  0
 15 16  1  0  0  0  0
 16 17  2  0  0  0  0
M  END
> <s_m_source_file>
AV-unprocessed.smi

> <i_m_source_file_index>
55

> <i_lp_mmshare_version>
43012

> <i_f3d_flags>
0

> <s_epik_input>
Tz1jMVtuSF1jKD1PKW4oW2NIXWMxW0NIM10pW0NAQEhdMltDSDJdW0NAQEhdKFtPSF0pW0NAQEhdKE8yKVtDSDJdW09IXQ==

> <s_epik_cmdline>
J2VwaWtfcHl0aG9uJywgJy1waCcsICc3LjAnLCAnLXRuJywgJzgnLCAnLW1hJywgJzIwMCcsICctbWV0YWxfYmluZGluZycsICctaW1hZScsICc8aW5maWxlLm1hZT4nLCAnLW9tYWUnLCAnPG91dGZpbGUubWFlPic=

> <r_lp_tautomer_probability>
0.999537

> <r_epik_Ionization_Penalty>
0.00121888

> <r_epik_Ionization_Penalty_Charging>
0.00121876

> <r_epik_Ionization_Penalty_Neutral>
1.19946e-07

> <r_epik_State_Penalty>
0.000805124

> <r_epik_Charging_Adjusted_Penalty>
0.00202389

> <i_epik_Tot_Q>
0

> <i_epik_Tot_abs_Q>
0

> <r_epik_Metal_State_Penalty>
0.662472

> <b_epik_Metal_Only>
0

> <s_epik_Chemistry_Notes>
This compound contains an acetal/aminal-like group ( X-CH(R)-Y where X, Y are N, S, or O) that may be acid/base labile, releasing an aldehyde.

> <s_lp_Force_Field>
OPLS_2005

> <r_lp_Energy>
24.0727

> <b_lp_Chiralities_Consistent>
1

> <s_lp_Variant>
AV-unprocessed.smi:55-7

> <Gold.Version>
5.8.1

> <Gold.Id.Protein>
6NUR|6NUR_protein|mol2

> <Gold.PLP.Fitness>
39.1392

> <Gold.PLP.PLP>
-28.7039

> <Gold.PLP.part.hbond>
-4.3306

> <Gold.PLP.part.metal>
0.0000

> <Gold.PLP.part.buried>
-3.1461

> <Gold.PLP.part.nonpolar>
-23.0735

> <Gold.PLP.part.repulsive>
0.5451

> <Gold.PLP.ligand.clash>
0.0000

> <Gold.PLP.ligand.torsion>
0.0362

> <Gold.PLP.Chemscore.Hbond>
2.5000

> <Gold.PLP.Chemscore.CHOScore>
1.0000

> <Gold.PLP.Chemscore.Metal>
0.0000

> <Gold.Chemscore.Hbonds>
donor molecule, donor type, donor heavy atom, donor atom, acceptor molecule, acceptor atom, score
      L1  H     8    28       P1 10175  1.00
      L1  H    11    31       P1  7948  1.00
      P1  H  7989  7998       L1    14  0.50
      L1  C     3    25       P1  8028  1.00

> <Gold.PLP.Chemscore.Internal.Correction>
0.0077

> <Gold.Rescore>
     Score         DG    S(hbond)    S(metal)    S(lipo)     H(rot)  DE(clash)    DE(int)     intcor
      8.68      -9.90       2.01        0.00      40.10       2.73       0.02       1.19       ----

> <Gold.Chemscore.Fitness>
8.6822

> <Gold.Chemscore.DG>
-9.8964

> <Gold.Chemscore.ZeroCoef>
-5.4800

> <Gold.Chemscore.Hbond>
2.0064

> <Gold.Chemscore.Metal>
0.0000

> <Gold.Chemscore.Lipo>
40.1031

> <Gold.Chemscore.Internal_Hbond>
0.0000

> <Gold.Chemscore.DEClash>
0.0222

> <Gold.Chemscore.DEInternal>
1.1920

> <Gold.Chemscore.Rot>
2.7253

> <Gold.Chemscore.Internal.Correction>
   9.000000E+99

> <Gold.Chemscore.Hbonds>
donor molecule, donor type, donor heavy atom, donor atom, acceptor molecule, acceptor atom, score
      L1  H     8    28       P1 10175  0.39
      L1  H    11    31       P1  7948  0.94
      P1  H  7989  7998       L1    14  0.02

> <Gold.Chemscore.Hbond.Weighted>
-6.7012

> <Gold.Chemscore.Metal.Weighted>
-0.0000

> <Gold.Chemscore.Lipo.Weighted>
-4.6921

> <Gold.Chemscore.Internal_Hbond.Weighted>
0.0000

> <Gold.Chemscore.DEClash.Weighted>
0.0222

> <Gold.Chemscore.DEInternal.Weighted>
1.1920

> <Gold.Chemscore.Rot.Weighted>
6.9769

> <Gold.Chemscore.Internal.Correction.Weighted>
   9.000000E+99

> <Gold.Protein.RotatedTorsions>
[ 6907 6896 6895 6894 ] final  105.88 input  -60.11 | X-H torsion
[ 7974 7965 7964 7962 ] final  131.81 input  175.53 | X-H torsion
[ 8008 7997 7996 7995 ] final -102.78 input   59.86 | X-H torsion
[ 10167 10162 10161 10158 ] final -173.14 input  -65.29 | X-H torsion
[ 10718 10713 10712 10709 ] final  -69.96 input   66.30 | X-H torsion
[ 10763 10752 10751 10750 ] final   75.75 input  -60.55 | X-H torsion
[ 11005 11000 10999 10996 ] final -129.42 input  -57.11 | X-H torsion

> <Gold.Protein.ActiveResidues>
 VAL166  LYS551  ARG553  GLY616  TRP617  ASP618  TYR619  PRO620  LYS621  CYS622 
 ASP623  PHE694  ASN695  SER759  ASP760  ASP761  ALA762  ILE779  LEU786  VAL792 
 PHE793  MET794  SER795  GLU796  ALA797  LYS798  CYS799  TRP800  GLU811  SER814 

> <Gold.Protein.RotatedAtoms>
  152.5214  133.9463  159.7650 H   0  0  0  0  0  0  0  0  0  0  0  0  # atno 6907 bound_to 6896
  150.9782  133.6264  159.2734 H   0  0  0  0  0  0  0  0  0  0  0  0  # atno 6908 bound_to 6896
  151.3451  135.0878  159.9437 H   0  0  0  0  0  0  0  0  0  0  0  0  # atno 6909 bound_to 6896
  145.0034  139.4290  143.5281 H   0  0  0  0  0  0  0  0  0  0  0  0  # atno 7974 bound_to 7965
  154.8616  140.0426  157.1668 H   0  0  0  0  0  0  0  0  0  0  0  0  # atno 8008 bound_to 7997
  154.8834  140.2976  155.5391 H   0  0  0  0  0  0  0  0  0  0  0  0  # atno 8009 bound_to 7997
  156.2998  140.2407  156.3840 H   0  0  0  0  0  0  0  0  0  0  0  0  # atno 8010 bound_to 7997
  139.5705  144.1654  152.1376 H   0  0  0  0  0  0  0  0  0  0  0  0  # atno 10167 bound_to 10162
  156.0430  130.4322  150.2225 H   0  0  0  0  0  0  0  0  0  0  0  0  # atno 10718 bound_to 10713
  153.0677  135.4977  154.8235 H   0  0  0  0  0  0  0  0  0  0  0  0  # atno 10763 bound_to 10752
  154.6977  135.2996  154.9390 H   0  0  0  0  0  0  0  0  0  0  0  0  # atno 10764 bound_to 10752
  154.0124  135.6752  153.4819 H   0  0  0  0  0  0  0  0  0  0  0  0  # atno 10765 bound_to 10752
  140.9433  134.1164  157.4130 H   0  0  0  0  0  0  0  0  0  0  0  0  # atno 11005 bound_to 11000
  146.3456  139.9435  142.8738 LP  0  0  0  0  0  0  0  0  0  0  0  0  # atno 17320 bound_to 7965
  145.2122  140.9900  143.4094 LP  0  0  0  0  0  0  0  0  0  0  0  0  # atno 17321 bound_to 7965
  140.1185  144.5394  150.6878 LP  0  0  0  0  0  0  0  0  0  0  0  0  # atno 17342 bound_to 10162
  140.6989  143.2421  151.4921 LP  0  0  0  0  0  0  0  0  0  0  0  0  # atno 17343 bound_to 10162
  157.0317  131.0009  151.3310 LP  0  0  0  0  0  0  0  0  0  0  0  0  # atno 17370 bound_to 10713
  157.5272  130.8035  149.7876 LP  0  0  0  0  0  0  0  0  0  0  0  0  # atno 17371 bound_to 10713
  139.8826  135.0043  156.6243 LP  0  0  0  0  0  0  0  0  0  0  0  0  # atno 17394 bound_to 11000
  140.7704  133.8743  155.8487 LP  0  0  0  0  0  0  0  0  0  0  0  0  # atno 17395 bound_to 11000

$$$$
