AV-unprocessed.smi:1443|AV-procd|sdf|5878|dock6
  -GOLD-   22720 5553D 1   1.00000     0.00000
 Structure written by MMmdl.
 27 28  0  0  0  0  0  0  0  0  1 V2000
  151.9682  129.1865  154.6386 C   0  0  0  0  0  0  0  0  0  0  0  0
  150.1818  129.4135  154.4343 S   0  0  0  0  0  0  0  0  0  0  0  0
  149.9000  131.1548  154.4577 C   0  0  0  0  0  0  0  0  0  0  0  0
  150.6203  131.9470  155.2721 N   0  0  0  0  0  0  0  0  0  0  0  0
  150.1207  133.5455  155.0493 S   0  0  0  0  0  0  0  0  0  0  0  0
  148.9600  133.0482  153.8541 C   0  0  0  0  0  0  0  0  0  0  0  0
  148.1199  133.9804  153.1787 N   0  0  0  0  0  0  0  0  0  0  0  0
  146.7970  133.9581  152.9104 C   0  0  0  0  0  0  0  0  0  0  0  0
  146.0953  133.0129  153.2666 O   0  0  0  0  0  0  0  0  0  0  0  0
  146.3102  135.0158  152.2427 N   0  0  0  0  0  0  0  0  0  0  0  0
  144.9447  135.2170  151.8777 C   0  0  1  0  0  0  0  0  0  0  0  0
  144.6443  135.3996  150.4056 C   0  0  0  0  0  0  0  0  0  0  0  0
  144.2228  134.1320  151.1000 C   0  0  1  0  0  0  0  0  0  0  0  0
  144.8814  132.8090  150.7633 C   0  0  0  0  0  0  0  0  0  0  0  0
  148.9755  131.7281  153.6658 N   0  0  0  0  0  0  0  0  0  0  0  0
  152.2088  128.1247  154.6864 H   0  0  0  0  0  0  0  0  0  0  0  0
  152.3142  129.6619  155.5566 H   0  0  0  0  0  0  0  0  0  0  0  0
  152.5012  129.6225  153.7944 H   0  0  0  0  0  0  0  0  0  0  0  0
  148.6053  134.7855  152.8100 H   0  0  0  0  0  0  0  0  0  0  0  0
  146.9602  135.7450  151.9856 H   0  0  0  0  0  0  0  0  0  0  0  0
  144.3316  135.8039  152.5602 H   0  0  0  0  0  0  0  0  0  0  0  0
  143.8634  136.1084  150.1375 H   0  0  0  0  0  0  0  0  0  0  0  0
  145.4771  135.3419  149.7071 H   0  0  0  0  0  0  0  0  0  0  0  0
  143.1596  134.0378  151.3129 H   0  0  0  0  0  0  0  0  0  0  0  0
  145.9287  132.9483  150.4982 H   0  0  0  0  0  0  0  0  0  0  0  0
  144.3719  132.3427  149.9200 H   0  0  0  0  0  0  0  0  0  0  0  0
  144.8266  132.1357  151.6187 H   0  0  0  0  0  0  0  0  0  0  0  0
  1  2  1  0  0  0  0
  1 16  1  0  0  0  0
  1 17  1  0  0  0  0
  1 18  1  0  0  0  0
  2  3  1  0  0  0  0
  3 15  1  0  0  0  0
  3  4  2  0  0  0  0
  4  5  1  0  0  0  0
  5  6  1  0  0  0  0
  6  7  1  0  0  0  0
  6 15  2  0  0  0  0
  7  8  1  0  0  0  0
  7 19  1  0  0  0  0
  8  9  2  0  0  0  0
  8 10  1  0  0  0  0
 10 11  1  0  0  0  0
 10 20  1  0  0  0  0
 11 13  1  0  0  0  0
 11 12  1  0  0  0  0
 11 21  1  0  0  0  0
 12 13  1  0  0  0  0
 12 22  1  0  0  0  0
 12 23  1  0  0  0  0
 13 14  1  0  0  0  0
 13 24  1  0  0  0  0
 14 25  1  0  0  0  0
 14 26  1  0  0  0  0
 14 27  1  0  0  0  0
M  END
> <s_m_source_file>
AV-unprocessed.smi

> <i_m_source_file_index>
1443

> <i_lp_mmshare_version>
43012

> <i_f3d_flags>
0

> <s_epik_input>
W0NIM11TYzFuc2MobjEpW05IXUMoPU8pW05IXVtDQEBIXTJbQ0gyXVtDQEhdMltDSDNd

> <s_epik_cmdline>
J2VwaWtfcHl0aG9uJywgJy1waCcsICc3LjAnLCAnLXRuJywgJzgnLCAnLW1hJywgJzIwMCcsICctbWV0YWxfYmluZGluZycsICctaW1hZScsICc8aW5maWxlLm1hZT4nLCAnLW9tYWUnLCAnPG91dGZpbGUubWFlPic=

> <r_lp_tautomer_probability>
1

> <r_epik_Ionization_Penalty>
2.74658e-05

> <r_epik_Ionization_Penalty_Charging>
0

> <r_epik_Ionization_Penalty_Neutral>
2.74658e-05

> <r_epik_State_Penalty>
-0

> <r_epik_Charging_Adjusted_Penalty>
0

> <i_epik_Tot_Q>
0

> <i_epik_Tot_abs_Q>
0

> <r_epik_Metal_State_Penalty>
-0

> <b_epik_Metal_Only>
0

> <s_lp_Force_Field>
OPLS_2005

> <r_lp_Energy>
21.211

> <b_lp_Chiralities_Consistent>
1

> <s_lp_Variant>
AV-unprocessed.smi:1443-2

> <Gold.Version>
5.8.1

> <Gold.Id.Protein>
6NUR|6NUR_protein|mol2

> <Gold.PLP.Fitness>
30.7529

> <Gold.PLP.PLP>
-26.5451

> <Gold.PLP.part.hbond>
-2.0000

> <Gold.PLP.part.metal>
0.0000

> <Gold.PLP.part.buried>
-3.3993

> <Gold.PLP.part.nonpolar>
-20.9871

> <Gold.PLP.part.repulsive>
0.2005

> <Gold.PLP.ligand.clash>
0.0000

> <Gold.PLP.ligand.torsion>
0.7355

> <Gold.PLP.Chemscore.Hbond>
1.8800

> <Gold.PLP.Chemscore.CHOScore>
0.0000

> <Gold.PLP.Chemscore.Metal>
0.0000

> <Gold.Chemscore.Hbonds>
donor molecule, donor type, donor heavy atom, donor atom, acceptor molecule, acceptor atom, score
      L1  H     7    19       P1  7948  1.00
      L1  H    10    20       P1  7948  0.88

> <Gold.PLP.Chemscore.Internal.Correction>
0.0387

> <Gold.Rescore>
     Score         DG    S(hbond)    S(metal)    S(lipo)     H(rot)  DE(clash)    DE(int)     intcor
      9.88     -11.75       1.38        0.00      42.06       1.27       0.10       1.77       ----

> <Gold.Chemscore.Fitness>
9.8798

> <Gold.Chemscore.DG>
-11.7511

> <Gold.Chemscore.ZeroCoef>
-5.4800

> <Gold.Chemscore.Hbond>
1.3775

> <Gold.Chemscore.Metal>
0.0000

> <Gold.Chemscore.Lipo>
42.0615

> <Gold.Chemscore.Internal_Hbond>
0.0000

> <Gold.Chemscore.DEClash>
0.1020

> <Gold.Chemscore.DEInternal>
1.7694

> <Gold.Chemscore.Rot>
1.2699

> <Gold.Chemscore.Internal.Correction>
   9.000000E+99

> <Gold.Chemscore.Hbonds>
donor molecule, donor type, donor heavy atom, donor atom, acceptor molecule, acceptor atom, score
      L1  H     7    19       P1  7948  0.26
      L1  H    10    20       P1  7948  0.81

> <Gold.Chemscore.Hbond.Weighted>
-4.6008

> <Gold.Chemscore.Metal.Weighted>
-0.0000

> <Gold.Chemscore.Lipo.Weighted>
-4.9212

> <Gold.Chemscore.Internal_Hbond.Weighted>
0.0000

> <Gold.Chemscore.DEClash.Weighted>
0.1020

> <Gold.Chemscore.DEInternal.Weighted>
1.7694

> <Gold.Chemscore.Rot.Weighted>
3.2509

> <Gold.Chemscore.Internal.Correction.Weighted>
   9.000000E+99

> <Gold.Protein.RotatedTorsions>
[ 6907 6896 6895 6894 ] final   40.15 input  -60.11 | X-H torsion
[ 7974 7965 7964 7962 ] final   -7.08 input  175.53 | X-H torsion
[ 8008 7997 7996 7995 ] final   87.22 input   59.86 | X-H torsion
[ 10167 10162 10161 10158 ] final  -67.61 input  -65.29 | X-H torsion
[ 10718 10713 10712 10709 ] final   64.63 input   66.30 | X-H torsion
[ 10763 10752 10751 10750 ] final  -88.82 input  -60.55 | X-H torsion
[ 11005 11000 10999 10996 ] final  -62.49 input  -57.11 | X-H torsion

> <Gold.Protein.ActiveResidues>
 VAL166  LYS551  ARG553  GLY616  TRP617  ASP618  TYR619  PRO620  LYS621  CYS622 
 ASP623  PHE694  ASN695  SER759  ASP760  ASP761  ALA762  ILE779  LEU786  VAL792 
 PHE793  MET794  SER795  GLU796  ALA797  LYS798  CYS799  TRP800  GLU811  SER814 

> <Gold.Protein.RotatedAtoms>
  152.1788  134.8772  160.0527 H   0  0  0  0  0  0  0  0  0  0  0  0  # atno 6907 bound_to 6896
  151.9704  133.3719  159.4077 H   0  0  0  0  0  0  0  0  0  0  0  0  # atno 6908 bound_to 6896
  150.6914  134.4069  159.5188 H   0  0  0  0  0  0  0  0  0  0  0  0  # atno 6909 bound_to 6896
  146.2315  140.2267  142.8339 H   0  0  0  0  0  0  0  0  0  0  0  0  # atno 7974 bound_to 7965
  155.9726  140.3384  155.6590 H   0  0  0  0  0  0  0  0  0  0  0  0  # atno 8008 bound_to 7997
  155.6654  140.0721  157.2557 H   0  0  0  0  0  0  0  0  0  0  0  0  # atno 8009 bound_to 7997
  154.4170  140.1701  156.1809 H   0  0  0  0  0  0  0  0  0  0  0  0  # atno 8010 bound_to 7997
  140.5570  143.2312  151.6802 H   0  0  0  0  0  0  0  0  0  0  0  0  # atno 10167 bound_to 10162
  157.6052  130.9170  149.9871 H   0  0  0  0  0  0  0  0  0  0  0  0  # atno 10718 bound_to 10713
  154.6486  135.5363  153.7875 H   0  0  0  0  0  0  0  0  0  0  0  0  # atno 10763 bound_to 10752
  153.0373  135.6477  154.1051 H   0  0  0  0  0  0  0  0  0  0  0  0  # atno 10764 bound_to 10752
  154.0970  135.2936  155.3239 H   0  0  0  0  0  0  0  0  0  0  0  0  # atno 10765 bound_to 10752
  141.1361  133.6641  156.5536 H   0  0  0  0  0  0  0  0  0  0  0  0  # atno 11005 bound_to 11000
  144.9590  140.8256  143.5525 LP  0  0  0  0  0  0  0  0  0  0  0  0  # atno 17320 bound_to 7965
  145.2235  139.2148  143.5080 LP  0  0  0  0  0  0  0  0  0  0  0  0  # atno 17321 bound_to 7965
  139.5052  144.3725  152.0456 LP  0  0  0  0  0  0  0  0  0  0  0  0  # atno 17342 bound_to 10162
  140.2847  144.3820  150.6107 LP  0  0  0  0  0  0  0  0  0  0  0  0  # atno 17343 bound_to 10162
  156.1137  130.3649  150.0005 LP  0  0  0  0  0  0  0  0  0  0  0  0  # atno 17370 bound_to 10713
  156.8099  130.9321  151.3644 LP  0  0  0  0  0  0  0  0  0  0  0  0  # atno 17371 bound_to 10713
  140.4044  134.7328  157.4799 LP  0  0  0  0  0  0  0  0  0  0  0  0  # atno 17394 bound_to 11000
  140.0473  134.6181  155.8905 LP  0  0  0  0  0  0  0  0  0  0  0  0  # atno 17395 bound_to 11000

$$$$
