AV-unprocessed.smi:2999|AV-procd|sdf|11421|dock5
  -GOLD-   2272016343D 1   1.00000     0.00000
 Structure written by MMmdl.
 38 40  0  0  0  0  0  0  0  0  2 V2000
  146.2011  137.3714  155.1002 O   0  0  0  0  0  0  0  0  0  0  0  0
  146.9408  137.0653  154.1651 C   0  0  0  0  0  0  0  0  0  0  0  0
  146.9756  135.8384  153.6258 N   0  0  0  0  0  0  0  0  0  0  0  0
  146.1661  134.7081  154.0692 C   0  0  0  0  0  0  0  0  0  0  0  0
  145.8121  133.7595  152.9096 C   0  0  2  0  0  0  0  0  0  0  0  0
  146.9912  132.8303  152.5504 C   0  0  0  0  0  0  0  0  0  0  0  0
  146.6803  131.9895  151.3694 N   0  3  1  0  0  0  0  0  0  0  0  0
  145.7815  130.8519  151.6757 C   0  0  0  0  0  0  0  0  0  0  0  0
  146.1986  130.0629  152.8947 C   0  0  0  0  0  0  0  0  0  0  0  0
  146.4391  129.5017  151.5110 C   0  0  0  0  0  0  0  0  0  0  0  0
  146.2112  132.8203  150.2355 C   0  0  0  0  0  0  0  0  0  0  0  0
  145.0657  133.7554  150.6642 C   0  0  0  0  0  0  0  0  0  0  0  0
  145.4871  134.5472  151.7679 O   0  0  0  0  0  0  0  0  0  0  0  0
  147.8061  137.8910  153.5551 N   0  0  0  0  0  0  0  0  0  0  0  0
  148.0359  139.2619  153.8291 C   0  0  0  0  0  0  0  0  0  0  0  0
  149.2660  139.6550  154.1644 N   0  0  0  0  0  0  0  0  0  0  0  0
  149.3311  141.0314  154.3994 C   0  0  0  0  0  0  0  0  0  0  0  0
  148.1310  141.6770  154.2332 C   0  0  0  0  0  0  0  0  0  0  0  0
  146.8591  140.5770  153.7750 S   0  0  0  0  0  0  0  0  0  0  0  0
  147.6099  135.6720  152.8579 H   0  0  0  0  0  0  0  0  0  0  0  0
  146.7206  134.1696  154.8382 H   0  0  0  0  0  0  0  0  0  0  0  0
  145.2576  135.0795  154.5464 H   0  0  0  0  0  0  0  0  0  0  0  0
  144.9470  133.1577  153.1922 H   0  0  0  0  0  0  0  0  0  0  0  0
  147.8730  133.4296  152.3201 H   0  0  0  0  0  0  0  0  0  0  0  0
  147.2588  132.1992  153.3988 H   0  0  0  0  0  0  0  0  0  0  0  0
  144.7271  130.9783  151.4385 H   0  0  0  0  0  0  0  0  0  0  0  0
  147.0679  130.4003  153.4566 H   0  0  0  0  0  0  0  0  0  0  0  0
  145.4111  129.6035  153.4886 H   0  0  0  0  0  0  0  0  0  0  0  0
  145.8101  128.6724  151.1937 H   0  0  0  0  0  0  0  0  0  0  0  0
  147.4668  129.4691  151.1535 H   0  0  0  0  0  0  0  0  0  0  0  0
  147.0506  133.4180  149.8776 H   0  0  0  0  0  0  0  0  0  0  0  0
  145.9032  132.1877  149.4022 H   0  0  0  0  0  0  0  0  0  0  0  0
  144.7963  134.4167  149.8406 H   0  0  0  0  0  0  0  0  0  0  0  0
  144.1674  133.1931  150.9231 H   0  0  0  0  0  0  0  0  0  0  0  0
  148.3625  137.4976  152.8104 H   0  0  0  0  0  0  0  0  0  0  0  0
  150.2764  141.4711  154.6810 H   0  0  0  0  0  0  0  0  0  0  0  0
  147.9186  142.7289  154.3524 H   0  0  0  0  0  0  0  0  0  0  0  0
  147.5520  131.5707  151.0773 H   0  0  0  0  0  0  0  0  0  0  0  0
  1  2  2  0  0  0  0
  2  3  1  0  0  0  0
  2 14  1  0  0  0  0
  3  4  1  0  0  0  0
  3 20  1  0  0  0  0
  4  5  1  0  0  0  0
  4 21  1  0  0  0  0
  4 22  1  0  0  0  0
  5 13  1  0  0  0  0
  5  6  1  0  0  0  0
  5 23  1  0  0  0  0
  6  7  1  0  0  0  0
  6 24  1  0  0  0  0
  6 25  1  0  0  0  0
  7  8  1  0  0  0  0
  7 11  1  0  0  0  0
  7 38  1  0  0  0  0
  8 10  1  0  0  0  0
  8  9  1  0  0  0  0
  8 26  1  0  0  0  0
  9 10  1  0  0  0  0
  9 27  1  0  0  0  0
  9 28  1  0  0  0  0
 10 29  1  0  0  0  0
 10 30  1  0  0  0  0
 11 12  1  0  0  0  0
 11 31  1  0  0  0  0
 11 32  1  0  0  0  0
 12 13  1  0  0  0  0
 12 33  1  0  0  0  0
 12 34  1  0  0  0  0
 14 15  1  0  0  0  0
 14 35  1  0  0  0  0
 15 19  1  0  0  0  0
 15 16  2  0  0  0  0
 16 17  1  0  0  0  0
 17 18  2  0  0  0  0
 17 36  1  0  0  0  0
 18 19  1  0  0  0  0
 18 37  1  0  0  0  0
M  CHG  1   7   1
M  END
> <s_m_source_file>
AV-unprocessed.smi

> <i_m_source_file_index>
2999

> <i_lp_mmshare_version>
43012

> <i_f3d_flags>
0

> <s_epik_input>
czFbY0hdW2NIXW5jMVtOSF1DKD1PKVtOSF1bQ0gyXVtDQEBIXTJbQ0gyXU4oW0NIMl1bQ0gyXU8yKVtDSF0zW0NIMl1bQ0gyXTM=

> <s_epik_cmdline>
J2VwaWtfcHl0aG9uJywgJy1waCcsICc3LjAnLCAnLXRuJywgJzgnLCAnLW1hJywgJzIwMCcsICctbWV0YWxfYmluZGluZycsICctaW1hZScsICc8aW5maWxlLm1hZT4nLCAnLW9tYWUnLCAnPG91dGZpbGUubWFlPic=

> <r_lp_tautomer_probability>
0.999

> <r_epik_Ionization_Penalty>
1.55235

> <r_epik_Ionization_Penalty_Charging>
1.55221

> <r_epik_Ionization_Penalty_Neutral>
0.000139685

> <r_epik_State_Penalty>
1.64652

> <r_epik_Charging_Adjusted_Penalty>
3.19873

> <i_epik_Tot_Q>
1

> <i_epik_Tot_abs_Q>
1

> <r_epik_Metal_State_Penalty>
1.68612

> <b_epik_Metal_Only>
0

> <s_lp_Force_Field>
OPLS_2005

> <r_lp_Energy>
21.4475

> <b_lp_Chiralities_Consistent>
1

> <s_lp_Variant>
AV-unprocessed.smi:2999-5

> <Gold.Version>
5.8.1

> <Gold.Id.Protein>
6NUR|6NUR_protein|mol2

> <Gold.PLP.Fitness>
40.0920

> <Gold.PLP.PLP>
-30.3063

> <Gold.PLP.part.hbond>
-3.0000

> <Gold.PLP.part.metal>
0.0000

> <Gold.PLP.part.buried>
-2.4448

> <Gold.PLP.part.nonpolar>
-24.3195

> <Gold.PLP.part.repulsive>
0.8354

> <Gold.PLP.ligand.clash>
0.0000

> <Gold.PLP.ligand.torsion>
1.6800

> <Gold.PLP.Chemscore.Hbond>
3.0000

> <Gold.PLP.Chemscore.CHOScore>
0.9585

> <Gold.PLP.Chemscore.Metal>
0.0000

> <Gold.Chemscore.Hbonds>
donor molecule, donor type, donor heavy atom, donor atom, acceptor molecule, acceptor atom, score
      L1  H     3    20       P1  7948  1.00
      L1  H     7    38       P1 10747  1.00
      L1  H    14    35       P1  7948  1.00
      L1  C    18    37       P1  8028  0.99

> <Gold.PLP.Chemscore.Internal.Correction>
1.2702

> <Gold.Rescore>
     Score         DG    S(hbond)    S(metal)    S(lipo)     H(rot)  DE(clash)    DE(int)     intcor
     18.35     -20.13       2.95        0.00      75.51       1.58       0.08       1.69       ----

> <Gold.Chemscore.Fitness>
18.3504

> <Gold.Chemscore.DG>
-20.1261

> <Gold.Chemscore.ZeroCoef>
-5.4800

> <Gold.Chemscore.Hbond>
2.9506

> <Gold.Chemscore.Metal>
0.0000

> <Gold.Chemscore.Lipo>
75.5083

> <Gold.Chemscore.Internal_Hbond>
0.0000

> <Gold.Chemscore.DEClash>
0.0835

> <Gold.Chemscore.DEInternal>
1.6922

> <Gold.Chemscore.Rot>
1.5795

> <Gold.Chemscore.Internal.Correction>
   9.000000E+99

> <Gold.Chemscore.Hbonds>
donor molecule, donor type, donor heavy atom, donor atom, acceptor molecule, acceptor atom, score
      L1  H     3    20       P1  7948  0.94
      L1  H     7    38       P1 10747  1.00
      L1  H    14    35       P1  7948  0.98

> <Gold.Chemscore.Hbond.Weighted>
-9.8550

> <Gold.Chemscore.Metal.Weighted>
-0.0000

> <Gold.Chemscore.Lipo.Weighted>
-8.8345

> <Gold.Chemscore.Internal_Hbond.Weighted>
0.0000

> <Gold.Chemscore.DEClash.Weighted>
0.0835

> <Gold.Chemscore.DEInternal.Weighted>
1.6922

> <Gold.Chemscore.Rot.Weighted>
4.0434

> <Gold.Chemscore.Internal.Correction.Weighted>
   9.000000E+99

> <Gold.Protein.RotatedTorsions>
[ 6907 6896 6895 6894 ] final  125.38 input  -60.11 | X-H torsion
[ 7974 7965 7964 7962 ] final  -28.09 input  175.53 | X-H torsion
[ 8008 7997 7996 7995 ] final -169.10 input   59.86 | X-H torsion
[ 10167 10162 10161 10158 ] final  141.74 input  -65.29 | X-H torsion
[ 10718 10713 10712 10709 ] final    6.33 input   66.30 | X-H torsion
[ 10763 10752 10751 10750 ] final  148.25 input  -60.55 | X-H torsion
[ 11005 11000 10999 10996 ] final -148.68 input  -57.11 | X-H torsion

> <Gold.Protein.ActiveResidues>
 VAL166  LYS551  ARG553  GLY616  TRP617  ASP618  TYR619  PRO620  LYS621  CYS622 
 ASP623  PHE694  ASN695  SER759  ASP760  ASP761  ALA762  ILE779  LEU786  VAL792 
 PHE793  MET794  SER795  GLU796  ALA797  LYS798  CYS799  TRP800  GLU811  SER814 

> <Gold.Protein.RotatedAtoms>
  152.3997  133.6799  159.6305 H   0  0  0  0  0  0  0  0  0  0  0  0  # atno 6907 bound_to 6896
  150.7890  133.8813  159.3295 H   0  0  0  0  0  0  0  0  0  0  0  0  # atno 6908 bound_to 6896
  151.6581  135.0994  160.0225 H   0  0  0  0  0  0  0  0  0  0  0  0  # atno 6909 bound_to 6896
  146.1312  140.5237  142.8692 H   0  0  0  0  0  0  0  0  0  0  0  0  # atno 7974 bound_to 7965
  155.9004  140.1040  157.1354 H   0  0  0  0  0  0  0  0  0  0  0  0  # atno 8008 bound_to 7997
  154.4025  140.1293  156.4493 H   0  0  0  0  0  0  0  0  0  0  0  0  # atno 8009 bound_to 7997
  155.7429  140.3466  155.5115 H   0  0  0  0  0  0  0  0  0  0  0  0  # atno 8010 bound_to 7997
  139.5012  144.6152  151.6180 H   0  0  0  0  0  0  0  0  0  0  0  0  # atno 10167 bound_to 10162
  156.9206  130.5789  149.5648 H   0  0  0  0  0  0  0  0  0  0  0  0  # atno 10718 bound_to 10713
  154.0517  135.2881  155.3339 H   0  0  0  0  0  0  0  0  0  0  0  0  # atno 10763 bound_to 10752
  154.6865  135.5243  153.8336 H   0  0  0  0  0  0  0  0  0  0  0  0  # atno 10764 bound_to 10752
  153.0558  135.6594  154.0713 H   0  0  0  0  0  0  0  0  0  0  0  0  # atno 10765 bound_to 10752
  140.7587  134.3323  157.5107 H   0  0  0  0  0  0  0  0  0  0  0  0  # atno 11005 bound_to 11000
  144.7693  140.5601  143.6681 LP  0  0  0  0  0  0  0  0  0  0  0  0  # atno 17320 bound_to 7965
  145.5256  139.1476  143.3528 LP  0  0  0  0  0  0  0  0  0  0  0  0  # atno 17321 bound_to 7965
  140.5838  143.9899  150.6284 LP  0  0  0  0  0  0  0  0  0  0  0  0  # atno 17342 bound_to 10162
  140.3057  143.3231  152.0928 LP  0  0  0  0  0  0  0  0  0  0  0  0  # atno 17343 bound_to 10162
  156.0493  130.5565  150.8953 LP  0  0  0  0  0  0  0  0  0  0  0  0  # atno 17370 bound_to 10713
  157.5910  131.0944  150.9118 LP  0  0  0  0  0  0  0  0  0  0  0  0  # atno 17371 bound_to 10713
  139.8774  134.9188  156.3211 LP  0  0  0  0  0  0  0  0  0  0  0  0  # atno 17394 bound_to 11000
  140.9683  133.7343  156.0499 LP  0  0  0  0  0  0  0  0  0  0  0  0  # atno 17395 bound_to 11000

$$$$
