AV-unprocessed.smi:2387|AV-procd|sdf|9470|dock2
  -GOLD-   2272013 93D 1   1.00000     0.00000
 Structure written by MMmdl.
 48 50  0  0  0  0  0  0  0  0  2 V2000
  143.4572  132.2873  148.2738 C   0  0  0  0  0  0  0  0  0  0  0  0
  144.2602  132.6362  149.5092 C   0  0  0  0  0  0  0  0  0  0  0  0
  145.5055  132.0385  149.7942 C   0  0  0  0  0  0  0  0  0  0  0  0
  146.1987  132.4099  150.9650 C   0  0  0  0  0  0  0  0  0  0  0  0
  145.6278  133.3697  151.8394 C   0  0  0  0  0  0  0  0  0  0  0  0
  146.2491  133.8222  153.0352 N   0  0  0  0  0  0  0  0  0  0  0  0
  147.5474  133.7522  153.3767 C   0  0  0  0  0  0  0  0  0  0  0  0
  148.4347  133.2538  152.6849 O   0  0  0  0  0  0  0  0  0  0  0  0
  147.7609  134.2898  154.5908 N   0  0  0  0  0  0  0  0  0  0  0  0
  149.0370  134.3729  155.3250 C   0  0  0  0  0  0  0  0  0  0  0  0
  149.8017  135.6990  155.0565 C   0  0  0  0  0  0  0  0  0  0  0  0
  150.9841  135.6681  154.7130 O   0  0  0  0  0  0  0  0  0  0  0  0
  149.1385  136.8551  155.2311 N   0  0  0  0  0  0  0  0  0  0  0  0
  149.6978  138.1851  155.0319 C   0  0  0  0  0  0  0  0  0  0  0  0
  151.0840  138.3906  155.6125 C   0  0  0  0  0  0  0  0  0  0  0  0
  151.7338  139.7540  155.6160 C   0  0  0  0  0  0  0  0  0  0  0  0
  152.2589  138.6700  154.7054 C   0  0  0  0  0  0  0  0  0  0  0  0
  148.7394  134.2537  156.8471 C   0  0  0  0  0  0  0  0  0  0  0  0
  149.3826  132.9555  157.3445 C   0  0  0  0  0  0  0  0  0  0  0  0
  150.5081  132.6782  156.3588 C   0  0  0  0  0  0  0  0  0  0  0  0
  149.9289  133.1342  155.0215 C   0  0  0  0  0  0  0  0  0  0  0  0
  144.3865  133.9424  151.4880 C   0  0  0  0  0  0  0  0  0  0  0  0
  143.7548  133.5586  150.3572 N   0  3  0  0  0  0  0  0  0  0  0  0
  143.9745  131.5449  147.6654 H   0  0  0  0  0  0  0  0  0  0  0  0
  143.2948  133.1751  147.6620 H   0  0  0  0  0  0  0  0  0  0  0  0
  142.4859  131.8793  148.5551 H   0  0  0  0  0  0  0  0  0  0  0  0
  145.9308  131.3056  149.1240 H   0  0  0  0  0  0  0  0  0  0  0  0
  147.1596  131.9595  151.1611 H   0  0  0  0  0  0  0  0  0  0  0  0
  145.6241  134.1832  153.7410 H   0  0  0  0  0  0  0  0  0  0  0  0
  146.9593  134.6712  155.0713 H   0  0  0  0  0  0  0  0  0  0  0  0
  148.1734  136.8055  155.5222 H   0  0  0  0  0  0  0  0  0  0  0  0
  149.7287  138.4113  153.9650 H   0  0  0  0  0  0  0  0  0  0  0  0
  149.0128  138.9080  155.4757 H   0  0  0  0  0  0  0  0  0  0  0  0
  151.2996  137.7551  156.4691 H   0  0  0  0  0  0  0  0  0  0  0  0
  151.1900  140.5770  155.1565 H   0  0  0  0  0  0  0  0  0  0  0  0
  152.3367  140.0199  156.4818 H   0  0  0  0  0  0  0  0  0  0  0  0
  153.2124  138.2140  154.9638 H   0  0  0  0  0  0  0  0  0  0  0  0
  152.0650  138.7732  153.6397 H   0  0  0  0  0  0  0  0  0  0  0  0
  149.1638  135.0892  157.4075 H   0  0  0  0  0  0  0  0  0  0  0  0
  147.6712  134.2589  157.0700 H   0  0  0  0  0  0  0  0  0  0  0  0
  149.7352  133.0291  158.3735 H   0  0  0  0  0  0  0  0  0  0  0  0
  148.6534  132.1455  157.3007 H   0  0  0  0  0  0  0  0  0  0  0  0
  151.3821  133.2794  156.6126 H   0  0  0  0  0  0  0  0  0  0  0  0
  150.8119  131.6311  156.3504 H   0  0  0  0  0  0  0  0  0  0  0  0
  149.3281  132.3182  154.6166 H   0  0  0  0  0  0  0  0  0  0  0  0
  150.7134  133.3300  154.2888 H   0  0  0  0  0  0  0  0  0  0  0  0
  143.8753  134.6889  152.0786 H   0  0  0  0  0  0  0  0  0  0  0  0
  142.8551  133.9846  150.1329 H   0  0  0  0  0  0  0  0  0  0  0  0
  1  2  1  0  0  0  0
  1 24  1  0  0  0  0
  1 25  1  0  0  0  0
  1 26  1  0  0  0  0
  2 23  1  0  0  0  0
  2  3  2  0  0  0  0
  3  4  1  0  0  0  0
  3 27  1  0  0  0  0
  4  5  2  0  0  0  0
  4 28  1  0  0  0  0
  5  6  1  0  0  0  0
  5 22  1  0  0  0  0
  6  7  1  0  0  0  0
  6 29  1  0  0  0  0
  7  8  2  0  0  0  0
  7  9  1  0  0  0  0
  9 10  1  0  0  0  0
  9 30  1  0  0  0  0
 10 21  1  0  0  0  0
 10 11  1  0  0  0  0
 10 18  1  0  0  0  0
 11 12  2  0  0  0  0
 11 13  1  0  0  0  0
 13 14  1  0  0  0  0
 13 31  1  0  0  0  0
 14 15  1  0  0  0  0
 14 32  1  0  0  0  0
 14 33  1  0  0  0  0
 15 17  1  0  0  0  0
 15 16  1  0  0  0  0
 15 34  1  0  0  0  0
 16 17  1  0  0  0  0
 16 35  1  0  0  0  0
 16 36  1  0  0  0  0
 17 37  1  0  0  0  0
 17 38  1  0  0  0  0
 18 19  1  0  0  0  0
 18 39  1  0  0  0  0
 18 40  1  0  0  0  0
 19 20  1  0  0  0  0
 19 41  1  0  0  0  0
 19 42  1  0  0  0  0
 20 21  1  0  0  0  0
 20 43  1  0  0  0  0
 20 44  1  0  0  0  0
 21 45  1  0  0  0  0
 21 46  1  0  0  0  0
 22 23  2  0  0  0  0
 22 47  1  0  0  0  0
 23 48  1  0  0  0  0
M  CHG  1  23   1
M  END
> <s_m_source_file>
AV-unprocessed.smi

> <i_m_source_file_index>
2387

> <i_lp_mmshare_version>
43012

> <i_f3d_flags>
0

> <s_epik_input>
W0NIM11jMVtjSF1bY0hdYyhbY0hdbjEpW05IXUMoPU8pW05IXUMyKFtDSDJdW0NIMl1bQ0gyXVtDSDJdMilDKD1PKVtOSF1bQ0gyXVtDSF0zW0NIMl1bQ0gyXTM=

> <s_epik_cmdline>
J2VwaWtfcHl0aG9uJywgJy1waCcsICc3LjAnLCAnLXRuJywgJzgnLCAnLW1hJywgJzIwMCcsICctbWV0YWxfYmluZGluZycsICctaW1hZScsICc8aW5maWxlLm1hZT4nLCAnLW9tYWUnLCAnPG91dGZpbGUubWFlPic=

> <r_epik_Ionization_Penalty>
2.1018

> <r_epik_Ionization_Penalty_Charging>
2.10178

> <r_epik_Ionization_Penalty_Neutral>
2.02976e-05

> <r_epik_State_Penalty>
2.23801

> <r_epik_Charging_Adjusted_Penalty>
4.33979

> <i_epik_Tot_Q>
1

> <i_epik_Tot_abs_Q>
1

> <r_epik_Metal_State_Penalty>
2.25493

> <b_epik_Metal_Only>
0

> <s_lp_Force_Field>
OPLS_2005

> <r_lp_Energy>
37.3987

> <b_lp_Chiralities_Consistent>
1

> <s_lp_Variant>
AV-unprocessed.smi:2387-2

> <Gold.Version>
5.8.1

> <Gold.Id.Protein>
6NUR|6NUR_protein|mol2

> <Gold.PLP.Fitness>
44.7546

> <Gold.PLP.PLP>
-37.6638

> <Gold.PLP.part.hbond>
-2.0000

> <Gold.PLP.part.metal>
0.0000

> <Gold.PLP.part.buried>
-2.6199

> <Gold.PLP.part.nonpolar>
-33.0820

> <Gold.PLP.part.repulsive>
1.1100

> <Gold.PLP.ligand.clash>
0.0000

> <Gold.PLP.ligand.torsion>
1.2691

> <Gold.PLP.Chemscore.Hbond>
3.0000

> <Gold.PLP.Chemscore.CHOScore>
0.0000

> <Gold.PLP.Chemscore.Metal>
0.0000

> <Gold.Chemscore.Hbonds>
donor molecule, donor type, donor heavy atom, donor atom, acceptor molecule, acceptor atom, score
      L1  H    23    48       P1 10186  2.00
      P1  H 10752 10763       L1    12  1.00

> <Gold.PLP.Chemscore.Internal.Correction>
0.6290

> <Gold.Rescore>
     Score         DG    S(hbond)    S(metal)    S(lipo)     H(rot)  DE(clash)    DE(int)     intcor
     14.48     -19.91       1.95        0.00     103.48       1.63       0.27       5.16       ----

> <Gold.Chemscore.Fitness>
14.4849

> <Gold.Chemscore.DG>
-19.9146

> <Gold.Chemscore.ZeroCoef>
-5.4800

> <Gold.Chemscore.Hbond>
1.9451

> <Gold.Chemscore.Metal>
0.0000

> <Gold.Chemscore.Lipo>
103.4807

> <Gold.Chemscore.Internal_Hbond>
0.0000

> <Gold.Chemscore.DEClash>
0.2712

> <Gold.Chemscore.DEInternal>
5.1585

> <Gold.Chemscore.Rot>
1.6286

> <Gold.Chemscore.Internal.Correction>
   9.000000E+99

> <Gold.Chemscore.Hbonds>
donor molecule, donor type, donor heavy atom, donor atom, acceptor molecule, acceptor atom, score
      L1  H    23    48       P1 10186  0.96
      P1  H 10752 10763       L1    12  0.97

> <Gold.Chemscore.Hbond.Weighted>
-6.4966

> <Gold.Chemscore.Metal.Weighted>
-0.0000

> <Gold.Chemscore.Lipo.Weighted>
-12.1072

> <Gold.Chemscore.Internal_Hbond.Weighted>
0.0000

> <Gold.Chemscore.DEClash.Weighted>
0.2712

> <Gold.Chemscore.DEInternal.Weighted>
5.1585

> <Gold.Chemscore.Rot.Weighted>
4.1692

> <Gold.Chemscore.Internal.Correction.Weighted>
   9.000000E+99

> <Gold.Protein.RotatedTorsions>
[ 6907 6896 6895 6894 ] final  -28.16 input  -60.11 | X-H torsion
[ 7974 7965 7964 7962 ] final  136.77 input  175.53 | X-H torsion
[ 8008 7997 7996 7995 ] final -149.73 input   59.86 | X-H torsion
[ 10167 10162 10161 10158 ] final  111.37 input  -65.29 | X-H torsion
[ 10718 10713 10712 10709 ] final -155.21 input   66.30 | X-H torsion
[ 10763 10752 10751 10750 ] final   65.00 input  -60.55 | X-H torsion
[ 11005 11000 10999 10996 ] final  -46.11 input  -57.11 | X-H torsion

> <Gold.Protein.ActiveResidues>
 VAL166  LYS551  ARG553  GLY616  TRP617  ASP618  TYR619  PRO620  LYS621  CYS622 
 ASP623  PHE694  ASN695  SER759  ASP760  ASP761  ALA762  ILE779  LEU786  VAL792 
 PHE793  MET794  SER795  GLU796  ALA797  LYS798  CYS799  TRP800  GLU811  SER814 

> <Gold.Protein.RotatedAtoms>
  151.1368  135.0159  159.8607 H   0  0  0  0  0  0  0  0  0  0  0  0  # atno 6907 bound_to 6896
  152.5452  134.1545  159.8542 H   0  0  0  0  0  0  0  0  0  0  0  0  # atno 6908 bound_to 6896
  151.1617  133.4795  159.2627 H   0  0  0  0  0  0  0  0  0  0  0  0  # atno 6909 bound_to 6896
  144.9533  139.4794  143.5515 H   0  0  0  0  0  0  0  0  0  0  0  0  # atno 7974 bound_to 7965
  155.6123  140.0673  157.2702 H   0  0  0  0  0  0  0  0  0  0  0  0  # atno 8008 bound_to 7997
  154.4250  140.1799  156.1333 H   0  0  0  0  0  0  0  0  0  0  0  0  # atno 8009 bound_to 7997
  156.0075  140.3330  155.6910 H   0  0  0  0  0  0  0  0  0  0  0  0  # atno 8010 bound_to 7997
  139.6616  144.7128  151.1854 H   0  0  0  0  0  0  0  0  0  0  0  0  # atno 10167 bound_to 10162
  156.5097  130.8429  151.2642 H   0  0  0  0  0  0  0  0  0  0  0  0  # atno 10718 bound_to 10713
  153.0078  135.5373  154.6598 H   0  0  0  0  0  0  0  0  0  0  0  0  # atno 10763 bound_to 10752
  154.5810  135.2850  155.0735 H   0  0  0  0  0  0  0  0  0  0  0  0  # atno 10764 bound_to 10752
  154.1864  135.6507  153.5100 H   0  0  0  0  0  0  0  0  0  0  0  0  # atno 10765 bound_to 10752
  141.0558  133.6726  156.3108 H   0  0  0  0  0  0  0  0  0  0  0  0  # atno 11005 bound_to 11000
  146.3328  139.8633  142.8852 LP  0  0  0  0  0  0  0  0  0  0  0  0  # atno 17320 bound_to 7965
  145.2811  141.0139  143.3717 LP  0  0  0  0  0  0  0  0  0  0  0  0  # atno 17321 bound_to 7965
  140.7582  143.5984  150.8724 LP  0  0  0  0  0  0  0  0  0  0  0  0  # atno 17342 bound_to 10162
  139.9642  143.6129  152.2993 LP  0  0  0  0  0  0  0  0  0  0  0  0  # atno 17343 bound_to 10162
  157.7452  130.9953  150.2741 LP  0  0  0  0  0  0  0  0  0  0  0  0  # atno 17370 bound_to 10713
  156.3252  130.3792  149.7540 LP  0  0  0  0  0  0  0  0  0  0  0  0  # atno 17371 bound_to 10713
  140.5967  134.5596  157.5510 LP  0  0  0  0  0  0  0  0  0  0  0  0  # atno 17394 bound_to 11000
  139.9389  134.7824  156.0730 LP  0  0  0  0  0  0  0  0  0  0  0  0  # atno 17395 bound_to 11000

$$$$
