AV-unprocessed.smi:196|AV-procd|sdf|1543|dock5
  -GOLD-   2262019403D 1   1.00000     0.00000
 Structure written by MMmdl.
 47 50  0  0  0  0  0  0  0  0  1 V2000
  151.5691  140.7381  157.0158 C   0  0  0  0  0  0  0  0  0  0  0  0
  151.5813  140.1074  155.6145 C   0  0  1  0  0  0  0  0  0  0  0  0
  152.5849  139.0946  155.6104 O   0  0  0  0  0  0  0  0  0  0  0  0
  152.1937  138.0623  154.7231 C   0  0  0  0  0  0  0  0  0  0  0  0
  150.7004  137.9515  154.9888 C   0  0  0  0  0  0  0  0  0  0  0  0
  150.2723  139.4073  155.1502 C   0  0  2  0  0  0  0  0  0  0  0  0
  149.9490  139.9056  153.8626 O   0  0  0  0  0  0  0  0  0  0  0  0
  149.0279  139.5964  156.0570 C   0  0  0  0  0  0  0  0  0  0  0  0
  148.9778  138.6617  157.1711 N   0  0  0  0  0  0  0  0  0  0  0  0
  149.8826  138.5597  158.2049 C   0  0  0  0  0  0  0  0  0  0  0  0
  149.6142  137.6413  159.0927 N   0  0  0  0  0  0  0  0  0  0  0  0
  148.4438  137.0577  158.6265 C   0  0  0  0  0  0  0  0  0  0  0  0
  147.6151  136.0046  159.0914 C   0  0  0  0  0  0  0  0  0  0  0  0
  147.8915  135.3307  160.2296 N   0  0  0  0  0  0  0  0  0  0  0  0
  148.0547  136.1569  161.4215 C   0  0  0  0  0  0  0  0  0  0  0  0
  147.3279  135.4250  162.5531 C   0  0  1  0  0  0  0  0  0  0  0  0
  146.0975  135.9238  162.6836 F   0  0  0  0  0  0  0  0  0  0  0  0
  147.2424  133.9874  162.0498 C   0  0  0  0  0  0  0  0  0  0  0  0
  147.0642  134.1624  160.5365 C   0  0  2  0  0  0  0  0  0  0  0  0
  147.5072  132.9168  159.7553 C   0  0  0  0  0  0  0  0  0  0  0  0
  146.9479  131.7570  160.1074 N   0  0  0  0  0  0  0  0  0  0  0  0
  148.3462  132.9925  158.8587 O   0  0  0  0  0  0  0  0  0  0  0  0
  146.5132  135.6889  158.3615 N   0  0  0  0  0  0  0  0  0  0  0  0
  146.2448  136.3608  157.2377 C   0  0  0  0  0  0  0  0  0  0  0  0
  146.9292  137.3624  156.6799 N   0  0  0  0  0  0  0  0  0  0  0  0
  148.0315  137.6823  157.4173 C   0  0  0  0  0  0  0  0  0  0  0  0
  147.8249  135.5186  163.5190 H   0  0  0  0  0  0  0  0  0  0  0  0
  146.0144  134.3742  160.3242 H   0  0  0  0  0  0  0  0  0  0  0  0
  150.8257  141.5321  157.0890 H   0  0  0  0  0  0  0  0  0  0  0  0
  152.5396  141.1776  157.2466 H   0  0  0  0  0  0  0  0  0  0  0  0
  151.3563  139.9969  157.7867 H   0  0  0  0  0  0  0  0  0  0  0  0
  151.8798  140.8725  154.8953 H   0  0  0  0  0  0  0  0  0  0  0  0
  152.3904  138.3643  153.6933 H   0  0  0  0  0  0  0  0  0  0  0  0
  152.7294  137.1340  154.9221 H   0  0  0  0  0  0  0  0  0  0  0  0
  150.1617  137.4152  154.2060 H   0  0  0  0  0  0  0  0  0  0  0  0
  150.5533  137.4106  155.9240 H   0  0  0  0  0  0  0  0  0  0  0  0
  149.5423  139.2109  153.3678 H   0  0  0  0  0  0  0  0  0  0  0  0
  149.0051  140.6043  156.4716 H   0  0  0  0  0  0  0  0  0  0  0  0
  148.1118  139.4813  155.4761 H   0  0  0  0  0  0  0  0  0  0  0  0
  150.7511  139.1976  158.2840 H   0  0  0  0  0  0  0  0  0  0  0  0
  149.1218  136.2161  161.6381 H   0  0  0  0  0  0  0  0  0  0  0  0
  147.6893  137.1787  161.2996 H   0  0  0  0  0  0  0  0  0  0  0  0
  148.1748  133.4662  162.2748 H   0  0  0  0  0  0  0  0  0  0  0  0
  146.4269  133.4287  162.5105 H   0  0  0  0  0  0  0  0  0  0  0  0
  147.2048  130.9068  159.6275 H   0  0  0  0  0  0  0  0  0  0  0  0
  146.2700  131.7353  160.8554 H   0  0  0  0  0  0  0  0  0  0  0  0
  145.3543  136.0523  156.7102 H   0  0  0  0  0  0  0  0  0  0  0  0
  1  2  1  0  0  0  0
  1 29  1  0  0  0  0
  1 30  1  0  0  0  0
  1 31  1  0  0  0  0
  2  6  1  0  0  0  0
  2  3  1  0  0  0  0
  2 32  1  0  0  0  0
  3  4  1  0  0  0  0
  4  5  1  0  0  0  0
  4 33  1  0  0  0  0
  4 34  1  0  0  0  0
  5  6  1  0  0  0  0
  5 35  1  0  0  0  0
  5 36  1  0  0  0  0
  6  7  1  0  0  0  0
  6  8  1  0  0  0  0
  7 37  1  0  0  0  0
  8  9  1  0  0  0  0
  8 38  1  0  0  0  0
  8 39  1  0  0  0  0
  9 26  1  0  0  0  0
  9 10  1  0  0  0  0
 10 11  2  0  0  0  0
 10 40  1  0  0  0  0
 11 12  1  0  0  0  0
 12 26  2  0  0  0  0
 12 13  1  0  0  0  0
 13 14  1  0  0  0  0
 13 23  2  0  0  0  0
 14 19  1  0  0  0  0
 14 15  1  0  0  0  0
 15 16  1  0  0  0  0
 15 41  1  0  0  0  0
 15 42  1  0  0  0  0
 16 27  1  0  0  0  0
 16 17  1  0  0  0  0
 16 18  1  0  0  0  0
 18 19  1  0  0  0  0
 18 43  1  0  0  0  0
 18 44  1  0  0  0  0
 19 28  1  0  0  0  0
 19 20  1  0  0  0  0
 20 21  1  0  0  0  0
 20 22  2  0  0  0  0
 21 45  1  0  0  0  0
 21 46  1  0  0  0  0
 23 24  1  0  0  0  0
 24 25  2  0  0  0  0
 24 47  1  0  0  0  0
 25 26  1  0  0  0  0
M  END
> <s_m_source_file>
AV-unprocessed.smi

> <i_m_source_file_index>
196

> <i_lp_mmshare_version>
43012

> <i_f3d_flags>
0

> <s_epik_input>
W0NIMl0xW0NIMl1PW0NAQEhdKFtDSDNdKVtDQEBdMShbT0hdKVtDSDJdbihbY0hdbjIpYyhjMjMpbltjSF1uYzNONFtDSDJdW0NASF0oRilbQ0gyXVtDQEhdNEMoPU8pW05IMl0=

> <s_epik_cmdline>
J2VwaWtfcHl0aG9uJywgJy1waCcsICc3LjAnLCAnLXRuJywgJzgnLCAnLW1hJywgJzIwMCcsICctbWV0YWxfYmluZGluZycsICctaW1hZScsICc8aW5maWxlLm1hZT4nLCAnLW9tYWUnLCAnPG91dGZpbGUubWFlPic=

> <r_lp_tautomer_probability>
1

> <r_epik_Ionization_Penalty>
0.000857933

> <r_epik_Ionization_Penalty_Charging>
0

> <r_epik_Ionization_Penalty_Neutral>
0.000857933

> <r_epik_State_Penalty>
0.000462053

> <r_epik_Charging_Adjusted_Penalty>
0.000462053

> <i_epik_Tot_Q>
0

> <i_epik_Tot_abs_Q>
0

> <r_epik_Metal_State_Penalty>
-0

> <b_epik_Metal_Only>
0

> <s_lp_Force_Field>
OPLS_2005

> <r_lp_Energy>
44.4191

> <b_lp_Chiralities_Consistent>
1

> <s_lp_Variant>
AV-unprocessed.smi:196-16

> <Gold.Version>
5.8.1

> <Gold.Id.Protein>
6NUR|6NUR_protein|mol2

> <Gold.PLP.Fitness>
46.5249

> <Gold.PLP.PLP>
-38.7879

> <Gold.PLP.part.hbond>
-4.8471

> <Gold.PLP.part.metal>
0.0000

> <Gold.PLP.part.buried>
-6.1075

> <Gold.PLP.part.nonpolar>
-27.9002

> <Gold.PLP.part.repulsive>
0.0191

> <Gold.PLP.ligand.clash>
0.0000

> <Gold.PLP.ligand.torsion>
0.5945

> <Gold.PLP.Chemscore.Hbond>
2.9118

> <Gold.PLP.Chemscore.CHOScore>
0.0000

> <Gold.PLP.Chemscore.Metal>
0.0000

> <Gold.Chemscore.Hbonds>
donor molecule, donor type, donor heavy atom, donor atom, acceptor molecule, acceptor atom, score
      L1  H     7    37       P1  7957  0.01
      P1  H  7989  7998       L1     7  0.86
      P1  H  7997  8009       L1     3  0.73

> <Gold.PLP.Chemscore.Internal.Correction>
0.1906

> <Gold.Rescore>
     Score         DG    S(hbond)    S(metal)    S(lipo)     H(rot)  DE(clash)    DE(int)     intcor
     13.76     -14.60       2.73        0.00      66.44       3.04       0.00       0.84       ----

> <Gold.Chemscore.Fitness>
13.7622

> <Gold.Chemscore.DG>
-14.6005

> <Gold.Chemscore.ZeroCoef>
-5.4800

> <Gold.Chemscore.Hbond>
2.7344

> <Gold.Chemscore.Metal>
0.0000

> <Gold.Chemscore.Lipo>
66.4377

> <Gold.Chemscore.Internal_Hbond>
0.0000

> <Gold.Chemscore.DEClash>
0.0015

> <Gold.Chemscore.DEInternal>
0.8369

> <Gold.Chemscore.Rot>
3.0413

> <Gold.Chemscore.Internal.Correction>
   9.000000E+99

> <Gold.Chemscore.Hbonds>
donor molecule, donor type, donor heavy atom, donor atom, acceptor molecule, acceptor atom, score
      L1  H     7    37       P1  7957  0.02
      P1  H  7989  7998       L1     7  0.21
      P1  H  7997  8009       L1     3  0.33

> <Gold.Chemscore.Hbond.Weighted>
-9.1329

> <Gold.Chemscore.Metal.Weighted>
-0.0000

> <Gold.Chemscore.Lipo.Weighted>
-7.7732

> <Gold.Chemscore.Internal_Hbond.Weighted>
0.0000

> <Gold.Chemscore.DEClash.Weighted>
0.0015

> <Gold.Chemscore.DEInternal.Weighted>
0.8369

> <Gold.Chemscore.Rot.Weighted>
7.7856

> <Gold.Chemscore.Internal.Correction.Weighted>
   9.000000E+99

> <Gold.Protein.RotatedTorsions>
[ 6907 6896 6895 6894 ] final -116.54 input  -60.11 | X-H torsion
[ 7974 7965 7964 7962 ] final -127.69 input  175.53 | X-H torsion
[ 8008 7997 7996 7995 ] final -159.25 input   59.86 | X-H torsion
[ 10167 10162 10161 10158 ] final   21.46 input  -65.29 | X-H torsion
[ 10718 10713 10712 10709 ] final  -37.63 input   66.30 | X-H torsion
[ 10763 10752 10751 10750 ] final -126.41 input  -60.55 | X-H torsion
[ 11005 11000 10999 10996 ] final -118.99 input  -57.11 | X-H torsion

> <Gold.Protein.ActiveResidues>
 VAL166  LYS551  ARG553  GLY616  TRP617  ASP618  TYR619  PRO620  LYS621  CYS622 
 ASP623  PHE694  ASN695  SER759  ASP760  ASP761  ALA762  ILE779  LEU786  VAL792 
 PHE793  MET794  SER795  GLU796  ALA797  LYS798  CYS799  TRP800  GLU811  SER814 

> <Gold.Protein.RotatedAtoms>
  150.8064  133.8502  159.3203 H   0  0  0  0  0  0  0  0  0  0  0  0  # atno 6907 bound_to 6896
  151.6300  135.1022  160.0129 H   0  0  0  0  0  0  0  0  0  0  0  0  # atno 6908 bound_to 6896
  152.4155  133.6991  159.6470 H   0  0  0  0  0  0  0  0  0  0  0  0  # atno 6909 bound_to 6896
  144.9745  140.7579  143.4650 H   0  0  0  0  0  0  0  0  0  0  0  0  # atno 7974 bound_to 7965
  155.7598  140.0837  157.2161 H   0  0  0  0  0  0  0  0  0  0  0  0  # atno 8008 bound_to 7997
  154.4004  140.1545  156.2876 H   0  0  0  0  0  0  0  0  0  0  0  0  # atno 8009 bound_to 7997
  155.8850  140.3418  155.5918 H   0  0  0  0  0  0  0  0  0  0  0  0  # atno 8010 bound_to 7997
  140.5425  143.9652  150.6527 H   0  0  0  0  0  0  0  0  0  0  0  0  # atno 10167 bound_to 10162
  156.3130  130.4255  149.8032 H   0  0  0  0  0  0  0  0  0  0  0  0  # atno 10718 bound_to 10713
  154.8745  135.3996  154.3426 H   0  0  0  0  0  0  0  0  0  0  0  0  # atno 10763 bound_to 10752
  153.4223  135.7023  153.6291 H   0  0  0  0  0  0  0  0  0  0  0  0  # atno 10764 bound_to 10752
  153.4948  135.3740  155.2480 H   0  0  0  0  0  0  0  0  0  0  0  0  # atno 10765 bound_to 10752
  141.0247  134.0071  157.3231 H   0  0  0  0  0  0  0  0  0  0  0  0  # atno 11005 bound_to 11000
  145.2510  139.2032  143.4942 LP  0  0  0  0  0  0  0  0  0  0  0  0  # atno 17320 bound_to 7965
  146.3391  140.2423  142.8596 LP  0  0  0  0  0  0  0  0  0  0  0  0  # atno 17321 bound_to 7965
  140.3057  143.3231  152.0928 LP  0  0  0  0  0  0  0  0  0  0  0  0  # atno 17342 bound_to 10162
  139.4994  144.6669  151.6336 LP  0  0  0  0  0  0  0  0  0  0  0  0  # atno 17343 bound_to 10162
  156.5368  130.8282  151.3255 LP  0  0  0  0  0  0  0  0  0  0  0  0  # atno 17370 bound_to 10713
  157.7395  130.9833  150.2319 LP  0  0  0  0  0  0  0  0  0  0  0  0  # atno 17371 bound_to 10713
  139.9168  135.0197  156.7913 LP  0  0  0  0  0  0  0  0  0  0  0  0  # atno 17394 bound_to 11000
  140.6512  133.9730  155.7756 LP  0  0  0  0  0  0  0  0  0  0  0  0  # atno 17395 bound_to 11000

$$$$
