AV-unprocessed.smi:2881|AV-procd|sdf|11056|dock8
  -GOLD-   2272015523D 1   1.00000     0.00000
 Structure written by MMmdl.
 40 42  0  0  0  0  0  0  0  0  1 V2000
  151.6906  145.8128  160.1214 C   0  0  0  0  0  0  0  0  0  0  0  0
  151.5493  144.3978  159.6739 C   0  0  0  0  0  0  0  0  0  0  0  0
  152.0933  143.2394  160.1523 C   0  0  0  0  0  0  0  0  0  0  0  0
  151.5649  142.2230  159.3024 C   0  0  0  0  0  0  0  0  0  0  0  0
  151.8003  140.7365  159.3773 C   0  0  0  0  0  0  0  0  0  0  0  0
  152.2622  140.2076  158.0182 C   0  0  0  0  0  0  0  0  0  0  0  0
  153.3391  139.6208  157.9149 O   0  0  0  0  0  0  0  0  0  0  0  0
  151.4303  140.4143  156.9863 N   0  0  0  0  0  0  0  0  0  0  0  0
  151.6268  139.9252  155.6235 C   0  0  1  0  0  0  0  0  0  0  0  0
  151.7713  138.3819  155.5418 C   0  0  1  0  0  0  0  0  0  0  0  0
  150.6431  137.6706  156.3202 C   0  0  0  0  0  0  0  0  0  0  0  0
  149.4047  137.9641  155.4554 C   0  0  0  0  0  0  0  0  0  0  0  0
  149.9906  138.7629  154.2712 C   0  0  2  0  0  0  0  0  0  0  0  0
  151.3505  138.0959  154.1042 C   0  0  0  0  0  0  0  0  0  0  0  0
  150.4113  140.1918  154.6879 C   0  0  1  0  0  0  0  0  0  0  0  0
  149.2608  141.0774  155.2196 C   0  0  0  0  0  0  0  0  0  0  0  0
  149.7734  142.2669  155.7831 O   0  0  0  0  0  0  0  0  0  0  0  0
  150.7642  142.7152  158.3661 N   0  0  0  0  0  0  0  0  0  0  0  0
  150.7611  144.0395  158.6050 N   0  0  0  0  0  0  0  0  0  0  0  0
  150.2245  144.6794  158.0368 H   0  0  0  0  0  0  0  0  0  0  0  0
  152.4861  145.9103  160.8603 H   0  0  0  0  0  0  0  0  0  0  0  0
  150.7649  146.1688  160.5738 H   0  0  0  0  0  0  0  0  0  0  0  0
  151.9304  146.4647  159.2812 H   0  0  0  0  0  0  0  0  0  0  0  0
  152.7626  143.1300  160.9928 H   0  0  0  0  0  0  0  0  0  0  0  0
  152.5531  140.4939  160.1288 H   0  0  0  0  0  0  0  0  0  0  0  0
  150.8851  140.2240  159.6761 H   0  0  0  0  0  0  0  0  0  0  0  0
  150.5735  140.9168  157.1678 H   0  0  0  0  0  0  0  0  0  0  0  0
  152.5111  140.4057  155.2009 H   0  0  0  0  0  0  0  0  0  0  0  0
  152.7675  138.0241  155.8033 H   0  0  0  0  0  0  0  0  0  0  0  0
  150.8293  136.5966  156.3602 H   0  0  0  0  0  0  0  0  0  0  0  0
  150.5296  138.0140  157.3483 H   0  0  0  0  0  0  0  0  0  0  0  0
  148.9605  137.0312  155.1061 H   0  0  0  0  0  0  0  0  0  0  0  0
  148.6324  138.5056  156.0001 H   0  0  0  0  0  0  0  0  0  0  0  0
  149.3638  138.7398  153.3794 H   0  0  0  0  0  0  0  0  0  0  0  0
  151.9869  138.5820  153.3625 H   0  0  0  0  0  0  0  0  0  0  0  0
  151.2872  137.0308  153.8737 H   0  0  0  0  0  0  0  0  0  0  0  0
  150.7904  140.6788  153.7872 H   0  0  0  0  0  0  0  0  0  0  0  0
  148.5954  141.3521  154.4009 H   0  0  0  0  0  0  0  0  0  0  0  0
  148.6528  140.5636  155.9640 H   0  0  0  0  0  0  0  0  0  0  0  0
  149.2009  142.9819  155.5496 H   0  0  0  0  0  0  0  0  0  0  0  0
  1  2  1  0  0  0  0
  1 21  1  0  0  0  0
  1 22  1  0  0  0  0
  1 23  1  0  0  0  0
  2 19  1  0  0  0  0
  2  3  2  0  0  0  0
  3  4  1  0  0  0  0
  3 24  1  0  0  0  0
  4  5  1  0  0  0  0
  4 18  2  0  0  0  0
  5  6  1  0  0  0  0
  5 25  1  0  0  0  0
  5 26  1  0  0  0  0
  6  7  2  0  0  0  0
  6  8  1  0  0  0  0
  8  9  1  0  0  0  0
  8 27  1  0  0  0  0
  9 15  1  0  0  0  0
  9 10  1  0  0  0  0
  9 28  1  0  0  0  0
 10 14  1  0  0  0  0
 10 11  1  0  0  0  0
 10 29  1  0  0  0  0
 11 12  1  0  0  0  0
 11 30  1  0  0  0  0
 11 31  1  0  0  0  0
 12 13  1  0  0  0  0
 12 32  1  0  0  0  0
 12 33  1  0  0  0  0
 13 14  1  0  0  0  0
 13 15  1  0  0  0  0
 13 34  1  0  0  0  0
 14 35  1  0  0  0  0
 14 36  1  0  0  0  0
 15 16  1  0  0  0  0
 15 37  1  0  0  0  0
 16 17  1  0  0  0  0
 16 38  1  0  0  0  0
 16 39  1  0  0  0  0
 17 40  1  0  0  0  0
 18 19  1  0  0  0  0
 19 20  1  0  0  0  0
M  END
> <s_m_source_file>
AV-unprocessed.smi

> <i_m_source_file_index>
2881

> <i_lp_mmshare_version>
43012

> <i_f3d_flags>
0

> <s_epik_input>
W0NIM11jMVtjSF1jKG5bbkhdMSlbQ0gyXUMoPU8pW05IXVtDQEhdKFtDQEBIXTIzKVtDQEhdKFtDSDJdW09IXSlbQ0BASF0oW0NIMl0zKVtDSDJdW0NIMl0y

> <s_epik_cmdline>
J2VwaWtfcHl0aG9uJywgJy1waCcsICc3LjAnLCAnLXRuJywgJzgnLCAnLW1hJywgJzIwMCcsICctbWV0YWxfYmluZGluZycsICctaW1hZScsICc8aW5maWxlLm1hZT4nLCAnLW9tYWUnLCAnPG91dGZpbGUubWFlPic=

> <r_lp_tautomer_probability>
0.5

> <r_epik_Ionization_Penalty>
9.4349e-05

> <r_epik_Ionization_Penalty_Charging>
0

> <r_epik_Ionization_Penalty_Neutral>
9.4349e-05

> <r_epik_State_Penalty>
0.41068

> <r_epik_Charging_Adjusted_Penalty>
0.41068

> <i_epik_Tot_Q>
0

> <i_epik_Tot_abs_Q>
0

> <r_epik_Metal_State_Penalty>
0.4107

> <b_epik_Metal_Only>
0

> <s_lp_Force_Field>
OPLS_2005

> <r_lp_Energy>
48.3908

> <b_lp_Chiralities_Consistent>
1

> <s_lp_Variant>
AV-unprocessed.smi:2881-2

> <Gold.Version>
5.8.1

> <Gold.Id.Protein>
6NUR|6NUR_protein|mol2

> <Gold.PLP.Fitness>
42.0888

> <Gold.PLP.PLP>
-36.3420

> <Gold.PLP.part.hbond>
-1.9652

> <Gold.PLP.part.metal>
0.0000

> <Gold.PLP.part.buried>
-1.9844

> <Gold.PLP.part.nonpolar>
-31.4013

> <Gold.PLP.part.repulsive>
0.2438

> <Gold.PLP.ligand.clash>
0.0000

> <Gold.PLP.ligand.torsion>
0.1333

> <Gold.PLP.Chemscore.Hbond>
2.0000

> <Gold.PLP.Chemscore.CHOScore>
0.0000

> <Gold.PLP.Chemscore.Metal>
0.0000

> <Gold.Chemscore.Hbonds>
donor molecule, donor type, donor heavy atom, donor atom, acceptor molecule, acceptor atom, score
      L1  H    17    40       P1  8028  0.94
      P1  H  7997  8008       L1     7  1.00

> <Gold.PLP.Chemscore.Internal.Correction>
0.0134

> <Gold.Rescore>
     Score         DG    S(hbond)    S(metal)    S(lipo)     H(rot)  DE(clash)    DE(int)     intcor
     13.06     -17.50       1.92        0.00      97.75       2.28       0.09       4.35       ----

> <Gold.Chemscore.Fitness>
13.0637

> <Gold.Chemscore.DG>
-17.4994

> <Gold.Chemscore.ZeroCoef>
-5.4800

> <Gold.Chemscore.Hbond>
1.9186

> <Gold.Chemscore.Metal>
0.0000

> <Gold.Chemscore.Lipo>
97.7474

> <Gold.Chemscore.Internal_Hbond>
0.0000

> <Gold.Chemscore.DEClash>
0.0888

> <Gold.Chemscore.DEInternal>
4.3470

> <Gold.Chemscore.Rot>
2.2755

> <Gold.Chemscore.Internal.Correction>
   9.000000E+99

> <Gold.Chemscore.Hbonds>
donor molecule, donor type, donor heavy atom, donor atom, acceptor molecule, acceptor atom, score
      L1  H    17    40       P1  8028  0.91
      P1  H  7997  8008       L1     7  0.93

> <Gold.Chemscore.Hbond.Weighted>
-6.4082

> <Gold.Chemscore.Metal.Weighted>
-0.0000

> <Gold.Chemscore.Lipo.Weighted>
-11.4364

> <Gold.Chemscore.Internal_Hbond.Weighted>
0.0000

> <Gold.Chemscore.DEClash.Weighted>
0.0888

> <Gold.Chemscore.DEInternal.Weighted>
4.3470

> <Gold.Chemscore.Rot.Weighted>
5.8252

> <Gold.Chemscore.Internal.Correction.Weighted>
   9.000000E+99

> <Gold.Protein.RotatedTorsions>
[ 6907 6896 6895 6894 ] final  132.85 input  -60.11 | X-H torsion
[ 7974 7965 7964 7962 ] final -164.26 input  175.53 | X-H torsion
[ 8008 7997 7996 7995 ] final  -64.54 input   59.86 | X-H torsion
[ 10167 10162 10161 10158 ] final   17.77 input  -65.29 | X-H torsion
[ 10718 10713 10712 10709 ] final   77.77 input   66.30 | X-H torsion
[ 10763 10752 10751 10750 ] final  127.77 input  -60.55 | X-H torsion
[ 11005 11000 10999 10996 ] final  -26.42 input  -57.11 | X-H torsion

> <Gold.Protein.ActiveResidues>
 VAL166  LYS551  ARG553  GLY616  TRP617  ASP618  TYR619  PRO620  LYS621  CYS622 
 ASP623  PHE694  ASN695  SER759  ASP760  ASP761  ALA762  ILE779  LEU786  VAL792 
 PHE793  MET794  SER795  GLU796  ALA797  LYS798  CYS799  TRP800  GLU811  SER814 

> <Gold.Protein.RotatedAtoms>
  152.3281  133.5927  159.5790 H   0  0  0  0  0  0  0  0  0  0  0  0  # atno 6907 bound_to 6896
  150.7408  133.9910  159.3616 H   0  0  0  0  0  0  0  0  0  0  0  0  # atno 6908 bound_to 6896
  151.7788  135.0768  160.0421 H   0  0  0  0  0  0  0  0  0  0  0  0  # atno 6909 bound_to 6896
  144.7302  140.2987  143.6208 H   0  0  0  0  0  0  0  0  0  0  0  0  # atno 7974 bound_to 7965
  154.4618  140.0951  156.6913 H   0  0  0  0  0  0  0  0  0  0  0  0  # atno 8008 bound_to 7997
  155.4973  140.3472  155.4346 H   0  0  0  0  0  0  0  0  0  0  0  0  # atno 8009 bound_to 7997
  156.0884  140.1391  156.9612 H   0  0  0  0  0  0  0  0  0  0  0  0  # atno 8010 bound_to 7997
  140.5702  143.9176  150.6707 H   0  0  0  0  0  0  0  0  0  0  0  0  # atno 10167 bound_to 10162
  157.6722  130.9837  150.1689 H   0  0  0  0  0  0  0  0  0  0  0  0  # atno 10718 bound_to 10713
  153.7147  135.3262  155.3254 H   0  0  0  0  0  0  0  0  0  0  0  0  # atno 10763 bound_to 10752
  154.8374  135.4485  154.1278 H   0  0  0  0  0  0  0  0  0  0  0  0  # atno 10764 bound_to 10752
  153.2381  135.6968  153.7893 H   0  0  0  0  0  0  0  0  0  0  0  0  # atno 10765 bound_to 10752
  140.9028  133.7513  156.0566 H   0  0  0  0  0  0  0  0  0  0  0  0  # atno 11005 bound_to 11000
  145.7782  139.1881  143.2173 LP  0  0  0  0  0  0  0  0  0  0  0  0  # atno 17320 bound_to 7965
  146.0855  140.7715  142.9620 LP  0  0  0  0  0  0  0  0  0  0  0  0  # atno 17321 bound_to 7965
  140.2649  143.3497  152.1290 LP  0  0  0  0  0  0  0  0  0  0  0  0  # atno 17342 bound_to 10162
  139.5113  144.6899  151.5788 LP  0  0  0  0  0  0  0  0  0  0  0  0  # atno 17343 bound_to 10162
  156.2448  130.3694  149.8297 LP  0  0  0  0  0  0  0  0  0  0  0  0  # atno 17370 bound_to 10713
  156.6087  130.8577  151.3449 LP  0  0  0  0  0  0  0  0  0  0  0  0  # atno 17371 bound_to 10713
  140.8209  134.3291  157.5382 LP  0  0  0  0  0  0  0  0  0  0  0  0  # atno 17394 bound_to 11000
  139.8745  134.9308  156.3512 LP  0  0  0  0  0  0  0  0  0  0  0  0  # atno 17395 bound_to 11000

$$$$
