AV-unprocessed.smi:3288|AV-procd|sdf|12606|dock6
  -GOLD-   2272018533D 1   1.00000     0.00000
 Structure written by MMmdl.
 38 39  0  0  0  0  0  0  0  0  1 V2000
  156.5299  137.6483  153.5175 C   0  0  0  0  0  0  0  0  0  0  0  0
  155.2217  137.3340  153.9672 O   0  0  0  0  0  0  0  0  0  0  0  0
  154.7164  138.2309  154.9464 C   0  0  0  0  0  0  0  0  0  0  0  0
  153.2464  138.5936  154.6908 C   0  0  0  0  0  0  0  0  0  0  0  0
  152.8076  139.4550  155.7366 O   0  0  0  0  0  0  0  0  0  0  0  0
  151.5616  140.0445  155.6359 C   0  0  0  0  0  0  0  0  0  0  0  0
  150.8073  139.7758  154.5405 N   0  0  0  0  0  0  0  0  0  0  0  0
  149.5918  140.3514  154.4401 C   0  0  0  0  0  0  0  0  0  0  0  0
  149.0672  141.2172  155.4167 C   0  0  0  0  0  0  0  0  0  0  0  0
  149.8479  141.4951  156.5536 C   0  0  0  0  0  0  0  0  0  0  0  0
  151.1263  140.9004  156.6760 C   0  0  0  0  0  0  0  0  0  0  0  0
  151.9719  141.1138  157.7772 N   0  0  0  0  0  0  0  0  0  0  0  0
  151.6891  142.1007  158.8120 C   0  0  0  0  0  0  0  0  0  0  0  0
  151.6706  143.5337  158.2512 C   0  0  0  0  0  0  0  0  0  0  0  0
  151.4740  144.5524  159.3860 C   0  0  0  0  0  0  0  0  0  0  0  0
  152.4971  144.3972  160.3642 O   0  0  0  0  0  0  0  0  0  0  0  0
  152.4859  143.1150  160.9832 C   0  0  0  0  0  0  0  0  0  0  0  0
  152.7370  142.0224  159.9313 C   0  0  0  0  0  0  0  0  0  0  0  0
  156.8191  136.9514  152.7310 H   0  0  0  0  0  0  0  0  0  0  0  0
  157.2650  137.5656  154.3179 H   0  0  0  0  0  0  0  0  0  0  0  0
  156.5741  138.6562  153.1027 H   0  0  0  0  0  0  0  0  0  0  0  0
  154.8564  137.8344  155.9532 H   0  0  0  0  0  0  0  0  0  0  0  0
  155.3168  139.1390  154.8863 H   0  0  0  0  0  0  0  0  0  0  0  0
  153.1588  139.0996  153.7280 H   0  0  0  0  0  0  0  0  0  0  0  0
  152.6301  137.6944  154.6606 H   0  0  0  0  0  0  0  0  0  0  0  0
  149.0199  140.1146  153.5552 H   0  0  0  0  0  0  0  0  0  0  0  0
  148.0884  141.6571  155.2970 H   0  0  0  0  0  0  0  0  0  0  0  0
  149.4524  142.1576  157.3081 H   0  0  0  0  0  0  0  0  0  0  0  0
  152.8484  140.6134  157.8221 H   0  0  0  0  0  0  0  0  0  0  0  0
  150.7201  141.8753  159.2577 H   0  0  0  0  0  0  0  0  0  0  0  0
  152.6096  143.7441  157.7374 H   0  0  0  0  0  0  0  0  0  0  0  0
  150.8793  143.6519  157.5110 H   0  0  0  0  0  0  0  0  0  0  0  0
  151.5185  145.5669  158.9897 H   0  0  0  0  0  0  0  0  0  0  0  0
  150.4930  144.4344  159.8488 H   0  0  0  0  0  0  0  0  0  0  0  0
  153.2642  143.0857  161.7460 H   0  0  0  0  0  0  0  0  0  0  0  0
  151.5349  142.9533  161.4927 H   0  0  0  0  0  0  0  0  0  0  0  0
  152.7118  141.0398  160.4038 H   0  0  0  0  0  0  0  0  0  0  0  0
  153.7387  142.1453  159.5163 H   0  0  0  0  0  0  0  0  0  0  0  0
  1  2  1  0  0  0  0
  1 19  1  0  0  0  0
  1 20  1  0  0  0  0
  1 21  1  0  0  0  0
  2  3  1  0  0  0  0
  3  4  1  0  0  0  0
  3 22  1  0  0  0  0
  3 23  1  0  0  0  0
  4  5  1  0  0  0  0
  4 24  1  0  0  0  0
  4 25  1  0  0  0  0
  5  6  1  0  0  0  0
  6 11  1  0  0  0  0
  6  7  2  0  0  0  0
  7  8  1  0  0  0  0
  8  9  2  0  0  0  0
  8 26  1  0  0  0  0
  9 10  1  0  0  0  0
  9 27  1  0  0  0  0
 10 11  2  0  0  0  0
 10 28  1  0  0  0  0
 11 12  1  0  0  0  0
 12 13  1  0  0  0  0
 12 29  1  0  0  0  0
 13 18  1  0  0  0  0
 13 14  1  0  0  0  0
 13 30  1  0  0  0  0
 14 15  1  0  0  0  0
 14 31  1  0  0  0  0
 14 32  1  0  0  0  0
 15 16  1  0  0  0  0
 15 33  1  0  0  0  0
 15 34  1  0  0  0  0
 16 17  1  0  0  0  0
 17 18  1  0  0  0  0
 17 35  1  0  0  0  0
 17 36  1  0  0  0  0
 18 37  1  0  0  0  0
 18 38  1  0  0  0  0
M  END
> <s_m_source_file>
AV-unprocessed.smi

> <i_m_source_file_index>
3288

> <i_lp_mmshare_version>
43012

> <i_f3d_flags>
0

> <s_epik_input>
W0NIM11PW0NIMl1bQ0gyXU9jMW5bY0hdW2NIXVtjSF1jMVtOSF1bQ0hdMltDSDJdW0NIMl1PW0NIMl1bQ0gyXTI=

> <s_epik_cmdline>
J2VwaWtfcHl0aG9uJywgJy1waCcsICc3LjAnLCAnLXRuJywgJzgnLCAnLW1hJywgJzIwMCcsICctbWV0YWxfYmluZGluZycsICctaW1hZScsICc8aW5maWxlLm1hZT4nLCAnLW9tYWUnLCAnPG91dGZpbGUubWFlPic=

> <r_lp_tautomer_probability>
1

> <r_epik_Ionization_Penalty>
0.000236303

> <r_epik_Ionization_Penalty_Charging>
0

> <r_epik_Ionization_Penalty_Neutral>
0.000236303

> <r_epik_State_Penalty>
-0

> <r_epik_Charging_Adjusted_Penalty>
0

> <i_epik_Tot_Q>
0

> <i_epik_Tot_abs_Q>
0

> <r_epik_Metal_State_Penalty>
-0

> <b_epik_Metal_Only>
0

> <s_lp_Force_Field>
OPLS_2005

> <r_lp_Energy>
13.3054

> <b_lp_Chiralities_Consistent>
1

> <s_lp_Variant>
AV-unprocessed.smi:3288-1

> <Gold.Version>
5.8.1

> <Gold.Id.Protein>
6NUR|6NUR_protein|mol2

> <Gold.PLP.Fitness>
46.0742

> <Gold.PLP.PLP>
-36.9813

> <Gold.PLP.part.hbond>
-3.0000

> <Gold.PLP.part.metal>
0.0000

> <Gold.PLP.part.buried>
1.8494

> <Gold.PLP.part.nonpolar>
-35.3680

> <Gold.PLP.part.repulsive>
0.2461

> <Gold.PLP.ligand.clash>
0.0000

> <Gold.PLP.ligand.torsion>
0.3456

> <Gold.PLP.Chemscore.Hbond>
2.2460

> <Gold.PLP.Chemscore.CHOScore>
1.0000

> <Gold.PLP.Chemscore.Metal>
0.0000

> <Gold.Chemscore.Hbonds>
donor molecule, donor type, donor heavy atom, donor atom, acceptor molecule, acceptor atom, score
      P1  H  7989  7998       L1     7  0.68
      P1  H  7997  8008       L1     5  0.95
      P1  H 10752 10764       L1     2  0.42
      L1  C     8    26       P1  7957  1.00

> <Gold.PLP.Chemscore.Internal.Correction>
0.0461

> <Gold.Rescore>
     Score         DG    S(hbond)    S(metal)    S(lipo)     H(rot)  DE(clash)    DE(int)     intcor
     16.05     -17.83       1.04        0.00     112.63       1.68       1.50       0.28       ----

> <Gold.Chemscore.Fitness>
16.0498

> <Gold.Chemscore.DG>
-17.8283

> <Gold.Chemscore.ZeroCoef>
-5.4800

> <Gold.Chemscore.Hbond>
1.0413

> <Gold.Chemscore.Metal>
0.0000

> <Gold.Chemscore.Lipo>
112.6309

> <Gold.Chemscore.Internal_Hbond>
0.0000

> <Gold.Chemscore.DEClash>
1.4984

> <Gold.Chemscore.DEInternal>
0.2801

> <Gold.Chemscore.Rot>
1.6826

> <Gold.Chemscore.Internal.Correction>
   9.000000E+99

> <Gold.Chemscore.Hbonds>
donor molecule, donor type, donor heavy atom, donor atom, acceptor molecule, acceptor atom, score
      P1  H  7989  7998       L1     7  0.02
      P1  H  7997  8008       L1     5  0.22
      P1  H 10752 10764       L1     2  0.40

> <Gold.Chemscore.Hbond.Weighted>
-3.4779

> <Gold.Chemscore.Metal.Weighted>
-0.0000

> <Gold.Chemscore.Lipo.Weighted>
-13.1778

> <Gold.Chemscore.Internal_Hbond.Weighted>
0.0000

> <Gold.Chemscore.DEClash.Weighted>
1.4984

> <Gold.Chemscore.DEInternal.Weighted>
0.2801

> <Gold.Chemscore.Rot.Weighted>
4.3074

> <Gold.Chemscore.Internal.Correction.Weighted>
   9.000000E+99

> <Gold.Protein.RotatedTorsions>
[ 6907 6896 6895 6894 ] final  -85.71 input  -60.11 | X-H torsion
[ 7974 7965 7964 7962 ] final  100.31 input  175.53 | X-H torsion
[ 8008 7997 7996 7995 ] final  -35.70 input   59.86 | X-H torsion
[ 10167 10162 10161 10158 ] final  -69.35 input  -65.29 | X-H torsion
[ 10718 10713 10712 10709 ] final   13.02 input   66.30 | X-H torsion
[ 10763 10752 10751 10750 ] final  156.41 input  -60.55 | X-H torsion
[ 11005 11000 10999 10996 ] final  -76.53 input  -57.11 | X-H torsion

> <Gold.Protein.ActiveResidues>
 VAL166  LYS551  ARG553  GLY616  TRP617  ASP618  TYR619  PRO620  LYS621  CYS622 
 ASP623  PHE694  ASN695  SER759  ASP760  ASP761  ALA762  ILE779  LEU786  VAL792 
 PHE793  MET794  SER795  GLU796  ALA797  LYS798  CYS799  TRP800  GLU811  SER814 

> <Gold.Protein.RotatedAtoms>
  150.6869  134.3163  159.4767 H   0  0  0  0  0  0  0  0  0  0  0  0  # atno 6907 bound_to 6896
  152.1043  134.9317  160.0578 H   0  0  0  0  0  0  0  0  0  0  0  0  # atno 6908 bound_to 6896
  152.0584  133.4016  159.4444 H   0  0  0  0  0  0  0  0  0  0  0  0  # atno 6909 bound_to 6896
  145.3873  139.2369  143.3371 H   0  0  0  0  0  0  0  0  0  0  0  0  # atno 7974 bound_to 7965
  154.4089  140.1650  156.2254 H   0  0  0  0  0  0  0  0  0  0  0  0  # atno 8008 bound_to 7997
  155.9328  140.3413  155.6240 H   0  0  0  0  0  0  0  0  0  0  0  0  # atno 8009 bound_to 7997
  155.7086  140.0754  157.2371 H   0  0  0  0  0  0  0  0  0  0  0  0  # atno 8010 bound_to 7997
  140.5438  143.2314  151.7041 H   0  0  0  0  0  0  0  0  0  0  0  0  # atno 10167 bound_to 10162
  157.0186  130.6146  149.5718 H   0  0  0  0  0  0  0  0  0  0  0  0  # atno 10718 bound_to 10713
  154.1838  135.2798  155.3043 H   0  0  0  0  0  0  0  0  0  0  0  0  # atno 10763 bound_to 10752
  154.5982  135.5538  153.7350 H   0  0  0  0  0  0  0  0  0  0  0  0  # atno 10764 bound_to 10752
  153.0130  135.6385  154.1977 H   0  0  0  0  0  0  0  0  0  0  0  0  # atno 10765 bound_to 10752
  141.1654  133.6987  156.7682 H   0  0  0  0  0  0  0  0  0  0  0  0  # atno 11005 bound_to 11000
  146.2814  140.4550  142.8775 LP  0  0  0  0  0  0  0  0  0  0  0  0  # atno 17320 bound_to 7965
  144.8465  140.6936  143.6196 LP  0  0  0  0  0  0  0  0  0  0  0  0  # atno 17321 bound_to 7965
  139.4999  144.3928  152.0262 LP  0  0  0  0  0  0  0  0  0  0  0  0  # atno 17342 bound_to 10162
  140.3039  144.3616  150.6052 LP  0  0  0  0  0  0  0  0  0  0  0  0  # atno 17343 bound_to 10162
  156.0110  130.5201  150.7988 LP  0  0  0  0  0  0  0  0  0  0  0  0  # atno 17370 bound_to 10713
  157.5266  131.0934  151.0009 LP  0  0  0  0  0  0  0  0  0  0  0  0  # atno 17371 bound_to 10713
  140.2483  134.8560  157.3642 LP  0  0  0  0  0  0  0  0  0  0  0  0  # atno 17394 bound_to 11000
  140.1727  134.4588  155.7821 LP  0  0  0  0  0  0  0  0  0  0  0  0  # atno 17395 bound_to 11000

$$$$
