AV-unprocessed.smi:2924|AV-procd|sdf|11221|dock8
  -GOLD-   2272016113D 1   1.00000     0.00000
 Structure written by MMmdl.
 29 31  0  0  0  0  0  0  0  0  1 V2000
  153.6915  141.2032  161.3806 N   0  0  0  0  0  0  0  0  0  0  0  0
  153.1027  142.0204  160.8113 C   0  0  0  0  0  0  0  0  0  0  0  0
  152.3608  143.0499  160.0936 C   0  0  0  0  0  0  0  0  0  0  0  0
  152.1245  144.2880  160.7275 C   0  0  0  0  0  0  0  0  0  0  0  0
  151.4113  145.2861  160.0392 C   0  0  0  0  0  0  0  0  0  0  0  0
  150.9597  145.0038  158.7373 C   0  0  0  0  0  0  0  0  0  0  0  0
  151.1786  143.8246  158.1196 N   0  0  0  0  0  0  0  0  0  0  0  0
  151.8671  142.8580  158.7751 C   0  0  0  0  0  0  0  0  0  0  0  0
  152.0778  141.6387  158.1051 N   0  0  0  0  0  0  0  0  0  0  0  0
  150.9721  140.8894  157.5169 C   0  0  1  0  0  0  0  0  0  0  0  0
  150.0698  141.7501  156.6229 C   0  0  0  0  0  0  0  0  0  0  0  0
  150.1166  140.9852  155.2946 C   0  0  2  0  0  0  0  0  0  0  0  0
  149.3898  139.6358  155.3740 C   0  0  0  0  0  0  0  0  0  0  0  0
  150.3624  138.8064  156.2117 C   0  0  0  0  0  0  0  0  0  0  0  0
  151.4657  139.8278  156.5194 C   0  0  1  0  0  0  0  0  0  0  0  0
  151.4672  140.5583  155.3033 O   0  0  0  0  0  0  0  0  0  0  0  0
  152.4838  144.4759  161.7292 H   0  0  0  0  0  0  0  0  0  0  0  0
  151.2153  146.2440  160.4976 H   0  0  0  0  0  0  0  0  0  0  0  0
  150.4081  145.7437  158.1766 H   0  0  0  0  0  0  0  0  0  0  0  0
  153.0183  141.3771  157.8457 H   0  0  0  0  0  0  0  0  0  0  0  0
  150.4031  140.4067  158.3127 H   0  0  0  0  0  0  0  0  0  0  0  0
  149.0567  141.8431  157.0151 H   0  0  0  0  0  0  0  0  0  0  0  0
  150.4734  142.7552  156.4911 H   0  0  0  0  0  0  0  0  0  0  0  0
  149.8412  141.5872  154.4285 H   0  0  0  0  0  0  0  0  0  0  0  0
  148.4041  139.7245  155.8318 H   0  0  0  0  0  0  0  0  0  0  0  0
  149.2694  139.1977  154.3825 H   0  0  0  0  0  0  0  0  0  0  0  0
  149.9052  138.3992  157.1140 H   0  0  0  0  0  0  0  0  0  0  0  0
  150.7584  137.9764  155.6256 H   0  0  0  0  0  0  0  0  0  0  0  0
  152.4218  139.3710  156.7781 H   0  0  0  0  0  0  0  0  0  0  0  0
  1  2  3  0  0  0  0
  2  3  1  0  0  0  0
  3  8  1  0  0  0  0
  3  4  2  0  0  0  0
  4  5  1  0  0  0  0
  4 17  1  0  0  0  0
  5  6  2  0  0  0  0
  5 18  1  0  0  0  0
  6  7  1  0  0  0  0
  6 19  1  0  0  0  0
  7  8  2  0  0  0  0
  8  9  1  0  0  0  0
  9 10  1  0  0  0  0
  9 20  1  0  0  0  0
 10 15  1  0  0  0  0
 10 11  1  0  0  0  0
 10 21  1  0  0  0  0
 11 12  1  0  0  0  0
 11 22  1  0  0  0  0
 11 23  1  0  0  0  0
 12 16  1  0  0  0  0
 12 13  1  0  0  0  0
 12 24  1  0  0  0  0
 13 14  1  0  0  0  0
 13 25  1  0  0  0  0
 13 26  1  0  0  0  0
 14 15  1  0  0  0  0
 14 27  1  0  0  0  0
 14 28  1  0  0  0  0
 15 16  1  0  0  0  0
 15 29  1  0  0  0  0
M  END
> <s_m_source_file>
AV-unprocessed.smi

> <i_m_source_file_index>
2924

> <i_lp_mmshare_version>
43012

> <i_f3d_flags>
0

> <s_epik_input>
TiNDYzFbY0hdW2NIXVtjSF1uYzFbTkhdW0NASF0oW0NIMl1bQ0BASF0yMylbQ0BASF0oTzMpW0NIMl1bQ0gyXTI=

> <s_epik_cmdline>
J2VwaWtfcHl0aG9uJywgJy1waCcsICc3LjAnLCAnLXRuJywgJzgnLCAnLW1hJywgJzIwMCcsICctbWV0YWxfYmluZGluZycsICctaW1hZScsICc8aW5maWxlLm1hZT4nLCAnLW9tYWUnLCAnPG91dGZpbGUubWFlPic=

> <r_lp_tautomer_probability>
1

> <r_epik_Ionization_Penalty>
2.11559e-05

> <r_epik_Ionization_Penalty_Charging>
0

> <r_epik_Ionization_Penalty_Neutral>
2.11559e-05

> <r_epik_State_Penalty>
-0

> <r_epik_Charging_Adjusted_Penalty>
0

> <i_epik_Tot_Q>
0

> <i_epik_Tot_abs_Q>
0

> <r_epik_Metal_State_Penalty>
-0

> <b_epik_Metal_Only>
0

> <s_lp_Force_Field>
OPLS_2005

> <r_lp_Energy>
42.1946

> <b_lp_Chiralities_Consistent>
1

> <s_lp_Variant>
AV-unprocessed.smi:2924-4

> <Gold.Version>
5.8.1

> <Gold.Id.Protein>
6NUR|6NUR_protein|mol2

> <Gold.PLP.Fitness>
37.5924

> <Gold.PLP.PLP>
-33.1836

> <Gold.PLP.part.hbond>
-1.0000

> <Gold.PLP.part.metal>
0.0000

> <Gold.PLP.part.buried>
-4.9855

> <Gold.PLP.part.nonpolar>
-27.8746

> <Gold.PLP.part.repulsive>
0.2492

> <Gold.PLP.ligand.clash>
0.0000

> <Gold.PLP.ligand.torsion>
0.6255

> <Gold.PLP.Chemscore.Hbond>
0.8800

> <Gold.PLP.Chemscore.CHOScore>
1.0000

> <Gold.PLP.Chemscore.Metal>
0.0000

> <Gold.Chemscore.Hbonds>
donor molecule, donor type, donor heavy atom, donor atom, acceptor molecule, acceptor atom, score
      P1  H  7989  7998       L1    16  0.50
      L1  C     6    19       P1  8029  0.70

> <Gold.PLP.Chemscore.Internal.Correction>
0.0197

> <Gold.Rescore>
     Score         DG    S(hbond)    S(metal)    S(lipo)     H(rot)  DE(clash)    DE(int)     intcor
     13.27     -15.27       0.95        0.00      78.28       1.00       0.06       1.94       ----

> <Gold.Chemscore.Fitness>
13.2691

> <Gold.Chemscore.DG>
-15.2651

> <Gold.Chemscore.ZeroCoef>
-5.4800

> <Gold.Chemscore.Hbond>
0.9541

> <Gold.Chemscore.Metal>
0.0000

> <Gold.Chemscore.Lipo>
78.2774

> <Gold.Chemscore.Internal_Hbond>
0.0000

> <Gold.Chemscore.DEClash>
0.0575

> <Gold.Chemscore.DEInternal>
1.9385

> <Gold.Chemscore.Rot>
1.0000

> <Gold.Chemscore.Internal.Correction>
   9.000000E+99

> <Gold.Chemscore.Hbonds>
donor molecule, donor type, donor heavy atom, donor atom, acceptor molecule, acceptor atom, score
      P1  H  7989  7998       L1    16  0.03

> <Gold.Chemscore.Hbond.Weighted>
-3.1866

> <Gold.Chemscore.Metal.Weighted>
-0.0000

> <Gold.Chemscore.Lipo.Weighted>
-9.1585

> <Gold.Chemscore.Internal_Hbond.Weighted>
0.0000

> <Gold.Chemscore.DEClash.Weighted>
0.0575

> <Gold.Chemscore.DEInternal.Weighted>
1.9385

> <Gold.Chemscore.Rot.Weighted>
2.5600

> <Gold.Chemscore.Internal.Correction.Weighted>
   9.000000E+99

> <Gold.Protein.RotatedTorsions>
[ 6907 6896 6895 6894 ] final -145.66 input  -60.11 | X-H torsion
[ 7974 7965 7964 7962 ] final   29.15 input  175.53 | X-H torsion
[ 8008 7997 7996 7995 ] final -113.81 input   59.86 | X-H torsion
[ 10167 10162 10161 10158 ] final  142.48 input  -65.29 | X-H torsion
[ 10718 10713 10712 10709 ] final   59.37 input   66.30 | X-H torsion
[ 10763 10752 10751 10750 ] final -117.26 input  -60.55 | X-H torsion
[ 11005 11000 10999 10996 ] final   45.07 input  -57.11 | X-H torsion

> <Gold.Protein.ActiveResidues>
 VAL166  LYS551  ARG553  GLY616  TRP617  ASP618  TYR619  PRO620  LYS621  CYS622 
 ASP623  PHE694  ASN695  SER759  ASP760  ASP761  ALA762  ILE779  LEU786  VAL792 
 PHE793  MET794  SER795  GLU796  ALA797  LYS798  CYS799  TRP800  GLU811  SER814 

> <Gold.Protein.RotatedAtoms>
  151.1309  133.5037  159.2598 H   0  0  0  0  0  0  0  0  0  0  0  0  # atno 6907 bound_to 6896
  151.1758  135.0338  159.8781 H   0  0  0  0  0  0  0  0  0  0  0  0  # atno 6908 bound_to 6896
  152.5459  134.1167  159.8435 H   0  0  0  0  0  0  0  0  0  0  0  0  # atno 6909 bound_to 6896
  146.1688  139.6959  142.8982 H   0  0  0  0  0  0  0  0  0  0  0  0  # atno 7974 bound_to 7965
  155.0266  140.0393  157.2458 H   0  0  0  0  0  0  0  0  0  0  0  0  # atno 8008 bound_to 7997
  154.7332  140.2734  155.6414 H   0  0  0  0  0  0  0  0  0  0  0  0  # atno 8009 bound_to 7997
  156.2846  140.2680  156.2038 H   0  0  0  0  0  0  0  0  0  0  0  0  # atno 8010 bound_to 7997
  139.4993  144.6104  151.6284 H   0  0  0  0  0  0  0  0  0  0  0  0  # atno 10167 bound_to 10162
  157.5670  130.8878  149.9203 H   0  0  0  0  0  0  0  0  0  0  0  0  # atno 10718 bound_to 10713
  154.8548  135.4316  154.1951 H   0  0  0  0  0  0  0  0  0  0  0  0  # atno 10763 bound_to 10752
  153.3011  135.6969  153.7208 H   0  0  0  0  0  0  0  0  0  0  0  0  # atno 10764 bound_to 10752
  153.6338  135.3480  155.3024 H   0  0  0  0  0  0  0  0  0  0  0  0  # atno 10765 bound_to 10752
  140.1493  134.4482  155.8393 H   0  0  0  0  0  0  0  0  0  0  0  0  # atno 11005 bound_to 11000
  145.4397  141.0421  143.2864 LP  0  0  0  0  0  0  0  0  0  0  0  0  # atno 17320 bound_to 7965
  144.8131  139.5925  143.7020 LP  0  0  0  0  0  0  0  0  0  0  0  0  # atno 17321 bound_to 7965
  140.5777  144.0000  150.6251 LP  0  0  0  0  0  0  0  0  0  0  0  0  # atno 17342 bound_to 10162
  140.3138  143.3181  152.0852 LP  0  0  0  0  0  0  0  0  0  0  0  0  # atno 17343 bound_to 10162
  156.0717  130.3684  150.0761 LP  0  0  0  0  0  0  0  0  0  0  0  0  # atno 17370 bound_to 10713
  156.8919  130.9591  151.3587 LP  0  0  0  0  0  0  0  0  0  0  0  0  # atno 17371 bound_to 10713
  141.2197  133.6866  156.7393 LP  0  0  0  0  0  0  0  0  0  0  0  0  # atno 17394 bound_to 11000
  140.2624  134.8456  157.3771 LP  0  0  0  0  0  0  0  0  0  0  0  0  # atno 17395 bound_to 11000

$$$$
