AV-unprocessed.smi:993|AV-procd|sdf|4336|dock1
  -GOLD-   22720 2233D 1   1.00000     0.00000
 Structure written by MMmdl.
 31 32  0  0  0  0  0  0  0  0  2 V2000
  148.8866  141.4170  154.4175 C   0  0  0  0  0  0  0  0  0  0  0  0
  150.0156  141.2296  155.4160 C   0  0  0  0  0  0  0  0  0  0  0  0
  150.1516  142.2593  156.3280 N   0  0  0  0  0  0  0  0  0  0  0  0
  151.1490  142.1850  157.2925 C   0  0  0  0  0  0  0  0  0  0  0  0
  151.2009  143.2646  158.1723 N   0  0  0  0  0  0  0  0  0  0  0  0
  152.3922  144.0314  158.5208 C   0  0  0  0  0  0  0  0  0  0  0  0
  151.9024  145.2653  159.2798 C   0  0  0  0  0  0  0  0  0  0  0  0
  150.5985  144.7918  159.9086 C   0  0  0  0  0  0  0  0  0  0  0  0
  150.0456  143.8185  158.8677 C   0  0  0  0  0  0  0  0  0  0  0  0
  151.9807  141.1878  157.3776 N   0  0  0  0  0  0  0  0  0  0  0  0
  151.8958  140.1126  156.4796 C   0  0  0  0  0  0  0  0  0  0  0  0
  152.6849  139.1724  156.5625 O   0  0  0  0  0  0  0  0  0  0  0  0
  150.8392  140.1547  155.4463 C   0  0  0  0  0  0  0  0  0  0  0  0
  150.7209  138.9911  154.4603 C   0  0  0  0  0  0  0  0  0  0  0  0
  150.6663  137.6038  155.1109 C   0  0  0  0  0  0  0  0  0  0  0  0
  149.7079  137.3892  155.8846 O   0  0  0  0  0  0  0  0  0  0  0  0
  151.5691  136.7818  154.8367 O   0  5  0  0  0  0  0  0  0  0  0  0
  149.5059  143.0324  156.2663 H   0  0  0  0  0  0  0  0  0  0  0  0
  148.1716  140.5977  154.4936 H   0  0  0  0  0  0  0  0  0  0  0  0
  149.2778  141.4408  153.4003 H   0  0  0  0  0  0  0  0  0  0  0  0
  148.3468  142.3487  154.5902 H   0  0  0  0  0  0  0  0  0  0  0  0
  152.9655  144.3153  157.6375 H   0  0  0  0  0  0  0  0  0  0  0  0
  153.0305  143.4185  159.1582 H   0  0  0  0  0  0  0  0  0  0  0  0
  152.6244  145.6292  160.0112 H   0  0  0  0  0  0  0  0  0  0  0  0
  151.6972  146.0729  158.5761 H   0  0  0  0  0  0  0  0  0  0  0  0
  150.8101  144.2587  160.8363 H   0  0  0  0  0  0  0  0  0  0  0  0
  149.9107  145.6068  160.1356 H   0  0  0  0  0  0  0  0  0  0  0  0
  149.4420  143.0388  159.3342 H   0  0  0  0  0  0  0  0  0  0  0  0
  149.4198  144.3437  158.1449 H   0  0  0  0  0  0  0  0  0  0  0  0
  151.5383  139.0048  153.7391 H   0  0  0  0  0  0  0  0  0  0  0  0
  149.8163  139.1246  153.8670 H   0  0  0  0  0  0  0  0  0  0  0  0
  1 19  1  0  0  0  0
  1 20  1  0  0  0  0
  1 21  1  0  0  0  0
  1  2  1  0  0  0  0
  2 13  2  0  0  0  0
  2  3  1  0  0  0  0
  3 18  1  0  0  0  0
  3  4  1  0  0  0  0
  4  5  1  0  0  0  0
  4 10  2  0  0  0  0
  5  9  1  0  0  0  0
  5  6  1  0  0  0  0
  6  7  1  0  0  0  0
  6 22  1  0  0  0  0
  6 23  1  0  0  0  0
  7  8  1  0  0  0  0
  7 24  1  0  0  0  0
  7 25  1  0  0  0  0
  8  9  1  0  0  0  0
  8 26  1  0  0  0  0
  8 27  1  0  0  0  0
  9 28  1  0  0  0  0
  9 29  1  0  0  0  0
 10 11  1  0  0  0  0
 11 12  2  0  0  0  0
 11 13  1  0  0  0  0
 13 14  1  0  0  0  0
 14 15  1  0  0  0  0
 14 30  1  0  0  0  0
 14 31  1  0  0  0  0
 15 16  2  0  0  0  0
 15 17  1  0  0  0  0
M  CHG  1  17  -1
M  END
> <s_m_source_file>
AV-unprocessed.smi

> <i_m_source_file_index>
993

> <i_lp_mmshare_version>
43012

> <i_f3d_flags>
0

> <s_epik_input>
W0NIMl0xW0NIMl1bQ0gyXVtDSDJdTjFjKG5jMltDSDNdKVtuSF1jKD1PKWMyW0NIMl1DKD1PKVtPSF0=

> <s_epik_cmdline>
J2VwaWtfcHl0aG9uJywgJy1waCcsICc3LjAnLCAnLXRuJywgJzgnLCAnLW1hJywgJzIwMCcsICctbWV0YWxfYmluZGluZycsICctaW1hZScsICc8aW5maWxlLm1hZT4nLCAnLW9tYWUnLCAnPG91dGZpbGUubWFlPic=

> <r_lp_tautomer_probability>
0.108306

> <r_epik_Ionization_Penalty>
0.978387

> <r_epik_Ionization_Penalty_Charging>
0.00633795

> <r_epik_Ionization_Penalty_Neutral>
0.972049

> <r_epik_State_Penalty>
1.38976

> <r_epik_Charging_Adjusted_Penalty>
1.3961

> <i_epik_Tot_Q>
-1

> <i_epik_Tot_abs_Q>
1

> <r_epik_Metal_State_Penalty>
0.631271

> <b_epik_Metal_Only>
0

> <s_lp_Force_Field>
OPLS_2005

> <r_lp_Energy>
28.5052

> <b_lp_Chiralities_Consistent>
1

> <s_lp_Variant>
AV-unprocessed.smi:993-2

> <Gold.Version>
5.8.1

> <Gold.Id.Protein>
6NUR|6NUR_protein|mol2

> <Gold.PLP.Fitness>
48.0703

> <Gold.PLP.PLP>
-37.9199

> <Gold.PLP.part.hbond>
-3.0000

> <Gold.PLP.part.metal>
0.0000

> <Gold.PLP.part.buried>
-2.3099

> <Gold.PLP.part.nonpolar>
-32.3409

> <Gold.PLP.part.repulsive>
0.2739

> <Gold.PLP.ligand.clash>
0.0000

> <Gold.PLP.ligand.torsion>
0.9252

> <Gold.PLP.Chemscore.Hbond>
4.0000

> <Gold.PLP.Chemscore.CHOScore>
0.0000

> <Gold.PLP.Chemscore.Metal>
0.0000

> <Gold.Chemscore.Hbonds>
donor molecule, donor type, donor heavy atom, donor atom, acceptor molecule, acceptor atom, score
      L1  H     3    18       P1  8028  1.00
      P1  H  7997  8010       L1    12  1.00
      P1  H 10752 10765       L1    17  2.00

> <Gold.PLP.Chemscore.Internal.Correction>
0.0009

> <Gold.Rescore>
     Score         DG    S(hbond)    S(metal)    S(lipo)     H(rot)  DE(clash)    DE(int)     intcor
     17.73     -18.70       2.63        0.00      70.88       1.51       0.43       0.54       ----

> <Gold.Chemscore.Fitness>
17.7294

> <Gold.Chemscore.DG>
-18.6972

> <Gold.Chemscore.ZeroCoef>
-5.4800

> <Gold.Chemscore.Hbond>
2.6298

> <Gold.Chemscore.Metal>
0.0000

> <Gold.Chemscore.Lipo>
70.8783

> <Gold.Chemscore.Internal_Hbond>
0.0000

> <Gold.Chemscore.DEClash>
0.4321

> <Gold.Chemscore.DEInternal>
0.5357

> <Gold.Chemscore.Rot>
1.5075

> <Gold.Chemscore.Internal.Correction>
   9.000000E+99

> <Gold.Chemscore.Hbonds>
donor molecule, donor type, donor heavy atom, donor atom, acceptor molecule, acceptor atom, score
      L1  H     3    18       P1  8028  0.98
      P1  H  7997  8010       L1    12  0.25
      P1  H 10752 10765       L1    17  1.00

> <Gold.Chemscore.Hbond.Weighted>
-8.7836

> <Gold.Chemscore.Metal.Weighted>
-0.0000

> <Gold.Chemscore.Lipo.Weighted>
-8.2928

> <Gold.Chemscore.Internal_Hbond.Weighted>
0.0000

> <Gold.Chemscore.DEClash.Weighted>
0.4321

> <Gold.Chemscore.DEInternal.Weighted>
0.5357

> <Gold.Chemscore.Rot.Weighted>
3.8592

> <Gold.Chemscore.Internal.Correction.Weighted>
   9.000000E+99

> <Gold.Protein.RotatedTorsions>
[ 6907 6896 6895 6894 ] final   40.60 input  -60.11 | X-H torsion
[ 7974 7965 7964 7962 ] final   46.14 input  175.53 | X-H torsion
[ 8008 7997 7996 7995 ] final   79.93 input   59.86 | X-H torsion
[ 10167 10162 10161 10158 ] final  -95.61 input  -65.29 | X-H torsion
[ 10718 10713 10712 10709 ] final  -16.45 input   66.30 | X-H torsion
[ 10763 10752 10751 10750 ] final  166.76 input  -60.55 | X-H torsion
[ 11005 11000 10999 10996 ] final   97.50 input  -57.11 | X-H torsion

> <Gold.Protein.ActiveResidues>
 VAL166  LYS551  ARG553  GLY616  TRP617  ASP618  TYR619  PRO620  LYS621  CYS622 
 ASP623  PHE694  ASN695  SER759  ASP760  ASP761  ALA762  ILE779  LEU786  VAL792 
 PHE793  MET794  SER795  GLU796  ALA797  LYS798  CYS799  TRP800  GLU811  SER814 

> <Gold.Protein.RotatedAtoms>
  152.1846  134.8725  160.0523 H   0  0  0  0  0  0  0  0  0  0  0  0  # atno 6907 bound_to 6896
  151.9636  133.3698  159.4053 H   0  0  0  0  0  0  0  0  0  0  0  0  # atno 6908 bound_to 6896
  150.6923  134.4138  159.5217 H   0  0  0  0  0  0  0  0  0  0  0  0  # atno 6909 bound_to 6896
  146.0417  139.4888  142.9774 H   0  0  0  0  0  0  0  0  0  0  0  0  # atno 7974 bound_to 7965
  155.8765  140.3446  155.5858 H   0  0  0  0  0  0  0  0  0  0  0  0  # atno 8008 bound_to 7997
  155.7768  140.0853  157.2099 H   0  0  0  0  0  0  0  0  0  0  0  0  # atno 8009 bound_to 7997
  154.4021  140.1508  156.2993 H   0  0  0  0  0  0  0  0  0  0  0  0  # atno 8010 bound_to 7997
  140.3024  143.3154  152.0235 H   0  0  0  0  0  0  0  0  0  0  0  0  # atno 10167 bound_to 10162
  156.5874  130.4790  149.6294 H   0  0  0  0  0  0  0  0  0  0  0  0  # atno 10718 bound_to 10713
  154.3438  135.2753  155.2408 H   0  0  0  0  0  0  0  0  0  0  0  0  # atno 10763 bound_to 10752
  154.4667  135.5893  153.6297 H   0  0  0  0  0  0  0  0  0  0  0  0  # atno 10764 bound_to 10752
  152.9855  135.6078  154.3642 H   0  0  0  0  0  0  0  0  0  0  0  0  # atno 10765 bound_to 10752
  139.8776  134.9004  156.4316 H   0  0  0  0  0  0  0  0  0  0  0  0  # atno 11005 bound_to 11000
  145.6873  141.0174  143.1574 LP  0  0  0  0  0  0  0  0  0  0  0  0  # atno 17320 bound_to 7965
  144.7078  139.8492  143.7424 LP  0  0  0  0  0  0  0  0  0  0  0  0  # atno 17321 bound_to 7965
  139.4912  144.6446  151.6805 LP  0  0  0  0  0  0  0  0  0  0  0  0  # atno 17342 bound_to 10162
  140.5640  144.0221  150.6183 LP  0  0  0  0  0  0  0  0  0  0  0  0  # atno 17343 bound_to 10162
  156.2579  130.6945  151.1704 LP  0  0  0  0  0  0  0  0  0  0  0  0  # atno 17370 bound_to 10713
  157.7312  131.0610  150.5690 LP  0  0  0  0  0  0  0  0  0  0  0  0  # atno 17371 bound_to 10713
  140.9062  133.7744  155.9738 LP  0  0  0  0  0  0  0  0  0  0  0  0  # atno 17394 bound_to 11000
  140.8596  134.2856  157.5240 LP  0  0  0  0  0  0  0  0  0  0  0  0  # atno 17395 bound_to 11000

$$$$
