AV-unprocessed.smi:48|AV-procd|sdf|456|dock3
  -GOLD-   2262016323D 1   1.00000     0.00000
 Structure written by MMmdl.
 30 32  0  0  0  0  0  0  0  0  1 V2000
  148.2744  142.9114  154.0746 O   0  0  0  0  0  0  0  0  0  0  0  0
  148.1189  141.5361  154.3522 C   0  0  0  0  0  0  0  0  0  0  0  0
  149.0327  141.1245  155.5163 C   0  0  2  0  0  0  0  0  0  0  0  0
  150.3317  141.6637  155.3192 O   0  0  0  0  0  0  0  0  0  0  0  0
  151.2638  140.9177  156.0342 C   0  0  1  0  0  0  0  0  0  0  0  0
  151.4872  141.5872  157.3640 N   0  0  0  0  0  0  0  0  0  0  0  0
  150.8264  142.6769  157.8076 C   0  0  0  0  0  0  0  0  0  0  0  0
  151.1174  143.1280  159.0255 N   0  0  0  0  0  0  0  0  0  0  0  0
  152.0692  142.2120  159.4363 C   0  0  0  0  0  0  0  0  0  0  0  0
  152.8069  142.0788  160.6379 C   0  0  0  0  0  0  0  0  0  0  0  0
  152.5998  143.1968  161.9362 Cl  0  0  0  0  0  0  0  0  0  0  0  0
  153.6811  141.0515  160.7489 N   0  0  0  0  0  0  0  0  0  0  0  0
  153.8201  140.1989  159.7276 C   0  0  0  0  0  0  0  0  0  0  0  0
  153.1994  140.2009  158.5431 N   0  0  0  0  0  0  0  0  0  0  0  0
  152.3157  141.2367  158.4261 C   0  0  0  0  0  0  0  0  0  0  0  0
  150.7121  139.4860  156.1483 C   0  0  2  0  0  0  0  0  0  0  0  0
  151.4705  138.5837  155.3689 O   0  0  0  0  0  0  0  0  0  0  0  0
  149.2955  139.6118  155.5789 C   0  0  1  0  0  0  0  0  0  0  0  0
  148.3571  138.9858  156.4303 O   0  0  0  0  0  0  0  0  0  0  0  0
  148.6300  141.4846  156.4632 H   0  0  0  0  0  0  0  0  0  0  0  0
  152.2393  140.9682  155.5480 H   0  0  0  0  0  0  0  0  0  0  0  0
  150.7356  139.1420  157.1818 H   0  0  0  0  0  0  0  0  0  0  0  0
  149.2376  139.1777  154.5790 H   0  0  0  0  0  0  0  0  0  0  0  0
  148.5383  143.3501  154.8689 H   0  0  0  0  0  0  0  0  0  0  0  0
  147.0748  141.3747  154.6217 H   0  0  0  0  0  0  0  0  0  0  0  0
  148.3193  140.9420  153.4601 H   0  0  0  0  0  0  0  0  0  0  0  0
  150.0834  143.1705  157.1983 H   0  0  0  0  0  0  0  0  0  0  0  0
  154.5330  139.4021  159.8788 H   0  0  0  0  0  0  0  0  0  0  0  0
  151.2462  138.7105  154.4597 H   0  0  0  0  0  0  0  0  0  0  0  0
  147.4887  139.1952  156.1220 H   0  0  0  0  0  0  0  0  0  0  0  0
  1  2  1  0  0  0  0
  1 24  1  0  0  0  0
  2  3  1  0  0  0  0
  2 25  1  0  0  0  0
  2 26  1  0  0  0  0
  3 20  1  0  0  0  0
  3 18  1  0  0  0  0
  3  4  1  0  0  0  0
  4  5  1  0  0  0  0
  5 21  1  0  0  0  0
  5  6  1  0  0  0  0
  5 16  1  0  0  0  0
  6 15  1  0  0  0  0
  6  7  1  0  0  0  0
  7  8  2  0  0  0  0
  7 27  1  0  0  0  0
  8  9  1  0  0  0  0
  9 15  2  0  0  0  0
  9 10  1  0  0  0  0
 10 11  1  0  0  0  0
 10 12  2  0  0  0  0
 12 13  1  0  0  0  0
 13 14  2  0  0  0  0
 13 28  1  0  0  0  0
 14 15  1  0  0  0  0
 16 22  1  0  0  0  0
 16 17  1  0  0  0  0
 16 18  1  0  0  0  0
 17 29  1  0  0  0  0
 18 23  1  0  0  0  0
 18 19  1  0  0  0  0
 19 30  1  0  0  0  0
M  END
> <s_m_source_file>
AV-unprocessed.smi

> <i_m_source_file_index>
48

> <i_lp_mmshare_version>
43012

> <i_f3d_flags>
0

> <s_epik_input>
W09IXVtDSDJdW0NASF0xT1tDQEhdKFtDQEhdKFtPSF0pW0NAQEhdMVtPSF0pbihbY0hdbjIpYyhjMjMpbltjSF1uYzNDbA==

> <s_epik_cmdline>
J2VwaWtfcHl0aG9uJywgJy1waCcsICc3LjAnLCAnLXRuJywgJzgnLCAnLW1hJywgJzIwMCcsICctbWV0YWxfYmluZGluZycsICctaW1hZScsICc8aW5maWxlLm1hZT4nLCAnLW9tYWUnLCAnPG91dGZpbGUubWFlPic=

> <r_lp_tautomer_probability>
1

> <r_epik_Ionization_Penalty>
3.45505e-06

> <r_epik_Ionization_Penalty_Charging>
0

> <r_epik_Ionization_Penalty_Neutral>
3.45505e-06

> <r_epik_State_Penalty>
-0

> <r_epik_Charging_Adjusted_Penalty>
0

> <i_epik_Tot_Q>
0

> <i_epik_Tot_abs_Q>
0

> <r_epik_Metal_State_Penalty>
-0

> <b_epik_Metal_Only>
0

> <s_epik_Chemistry_Notes>
This compound contains an acetal/aminal-like group ( X-CH(R)-Y where X, Y are N, S, or O) that may be acid/base labile, releasing an aldehyde.

> <s_lp_Force_Field>
OPLS_2005

> <r_lp_Energy>
32.3387

> <b_lp_Chiralities_Consistent>
1

> <s_lp_Variant>
AV-unprocessed.smi:48-10

> <Gold.Version>
5.8.1

> <Gold.Id.Protein>
6NUR|6NUR_protein|mol2

> <Gold.PLP.Fitness>
41.7110

> <Gold.PLP.PLP>
-33.3186

> <Gold.PLP.part.hbond>
-4.6859

> <Gold.PLP.part.metal>
0.0000

> <Gold.PLP.part.buried>
-2.4642

> <Gold.PLP.part.nonpolar>
-24.5623

> <Gold.PLP.part.repulsive>
0.1711

> <Gold.PLP.ligand.clash>
0.0000

> <Gold.PLP.ligand.torsion>
0.1588

> <Gold.PLP.Chemscore.Hbond>
1.8954

> <Gold.PLP.Chemscore.CHOScore>
1.0000

> <Gold.PLP.Chemscore.Metal>
0.0000

> <Gold.Chemscore.Hbonds>
donor molecule, donor type, donor heavy atom, donor atom, acceptor molecule, acceptor atom, score
      L1  H     1    24       P1  8028  0.96
      P1  H  7989  7998       L1     4  0.01
      P1  H  7997  8008       L1    14  0.90
      L1  C     7    27       P1  8028  1.00

> <Gold.PLP.Chemscore.Internal.Correction>
0.0239

> <Gold.Rescore>
     Score         DG    S(hbond)    S(metal)    S(lipo)     H(rot)  DE(clash)    DE(int)     intcor
      6.56      -6.81       1.45        0.00      53.15       3.80       0.13       0.13       ----

> <Gold.Chemscore.Fitness>
6.5557

> <Gold.Chemscore.DG>
-6.8073

> <Gold.Chemscore.ZeroCoef>
-5.4800

> <Gold.Chemscore.Hbond>
1.4493

> <Gold.Chemscore.Metal>
0.0000

> <Gold.Chemscore.Lipo>
53.1540

> <Gold.Chemscore.Internal_Hbond>
0.0000

> <Gold.Chemscore.DEClash>
0.1251

> <Gold.Chemscore.DEInternal>
0.1265

> <Gold.Chemscore.Rot>
3.8017

> <Gold.Chemscore.Internal.Correction>
   9.000000E+99

> <Gold.Chemscore.Hbonds>
donor molecule, donor type, donor heavy atom, donor atom, acceptor molecule, acceptor atom, score
      L1  H     1    24       P1  8028  0.91
      P1  H  7997  8008       L1    14  0.47

> <Gold.Chemscore.Hbond.Weighted>
-4.8407

> <Gold.Chemscore.Metal.Weighted>
-0.0000

> <Gold.Chemscore.Lipo.Weighted>
-6.2190

> <Gold.Chemscore.Internal_Hbond.Weighted>
0.0000

> <Gold.Chemscore.DEClash.Weighted>
0.1251

> <Gold.Chemscore.DEInternal.Weighted>
0.1265

> <Gold.Chemscore.Rot.Weighted>
9.7324

> <Gold.Chemscore.Internal.Correction.Weighted>
   9.000000E+99

> <Gold.Protein.RotatedTorsions>
[ 6907 6896 6895 6894 ] final -157.52 input  -60.11 | X-H torsion
[ 7974 7965 7964 7962 ] final   65.51 input  175.53 | X-H torsion
[ 8008 7997 7996 7995 ] final  -90.83 input   59.86 | X-H torsion
[ 10167 10162 10161 10158 ] final   55.94 input  -65.29 | X-H torsion
[ 10718 10713 10712 10709 ] final -154.35 input   66.30 | X-H torsion
[ 10763 10752 10751 10750 ] final   50.08 input  -60.55 | X-H torsion
[ 11005 11000 10999 10996 ] final  153.70 input  -57.11 | X-H torsion

> <Gold.Protein.ActiveResidues>
 VAL166  LYS551  ARG553  GLY616  TRP617  ASP618  TYR619  PRO620  LYS621  CYS622 
 ASP623  PHE694  ASN695  SER759  ASP760  ASP761  ALA762  ILE779  LEU786  VAL792 
 PHE793  MET794  SER795  GLU796  ALA797  LYS798  CYS799  TRP800  GLU811  SER814 

> <Gold.Protein.RotatedAtoms>
  151.3041  133.4109  159.2641 H   0  0  0  0  0  0  0  0  0  0  0  0  # atno 6907 bound_to 6896
  151.0170  134.9441  159.8049 H   0  0  0  0  0  0  0  0  0  0  0  0  # atno 6908 bound_to 6896
  152.5315  134.3005  159.9129 H   0  0  0  0  0  0  0  0  0  0  0  0  # atno 6909 bound_to 6896
  145.8376  139.3176  143.0950 H   0  0  0  0  0  0  0  0  0  0  0  0  # atno 7974 bound_to 7965
  154.7033  140.0526  157.0479 H   0  0  0  0  0  0  0  0  0  0  0  0  # atno 8008 bound_to 7997
  155.0654  140.3194  155.4628 H   0  0  0  0  0  0  0  0  0  0  0  0  # atno 8009 bound_to 7997
  156.2767  140.2091  156.5781 H   0  0  0  0  0  0  0  0  0  0  0  0  # atno 8010 bound_to 7997
  140.2141  144.3858  150.6477 H   0  0  0  0  0  0  0  0  0  0  0  0  # atno 10167 bound_to 10162
  156.4981  130.8378  151.2598 H   0  0  0  0  0  0  0  0  0  0  0  0  # atno 10718 bound_to 10713
  152.9785  135.5890  154.4194 H   0  0  0  0  0  0  0  0  0  0  0  0  # atno 10763 bound_to 10752
  154.3820  135.2767  155.2207 H   0  0  0  0  0  0  0  0  0  0  0  0  # atno 10764 bound_to 10752
  154.4117  135.6080  153.6011 H   0  0  0  0  0  0  0  0  0  0  0  0  # atno 10765 bound_to 10752
  140.1422  134.8731  157.2346 H   0  0  0  0  0  0  0  0  0  0  0  0  # atno 11005 bound_to 11000
  145.9501  140.8915  143.0263 LP  0  0  0  0  0  0  0  0  0  0  0  0  # atno 17320 bound_to 7965
  144.6735  140.1668  143.7418 LP  0  0  0  0  0  0  0  0  0  0  0  0  # atno 17321 bound_to 7965
  140.6302  143.2186  151.6511 LP  0  0  0  0  0  0  0  0  0  0  0  0  # atno 17342 bound_to 10162
  139.5169  144.3333  152.0806 LP  0  0  0  0  0  0  0  0  0  0  0  0  # atno 17343 bound_to 10162
  157.7466  130.9991  150.2876 LP  0  0  0  0  0  0  0  0  0  0  0  0  # atno 17370 bound_to 10713
  156.3360  130.3808  149.7450 LP  0  0  0  0  0  0  0  0  0  0  0  0  # atno 17371 bound_to 10713
  140.2708  134.3462  155.7374 LP  0  0  0  0  0  0  0  0  0  0  0  0  # atno 17394 bound_to 11000
  141.2187  133.7422  156.9220 LP  0  0  0  0  0  0  0  0  0  0  0  0  # atno 17395 bound_to 11000

$$$$
