AV-unprocessed.smi:1056|AV-procd|sdf|4639|dock7
  -GOLD-   22720 3143D 1   1.00000     0.00000
 Structure written by MMmdl.
 44 46  0  0  0  0  0  0  0  0  1 V2000
  153.4519  143.2675  163.3782 C   0  0  0  0  0  0  0  0  0  0  0  0
  153.0240  142.9313  161.9603 C   0  0  0  0  0  0  0  0  0  0  0  0
  152.2138  143.8469  161.2515 C   0  0  0  0  0  0  0  0  0  0  0  0
  151.7955  143.5721  159.9309 C   0  0  0  0  0  0  0  0  0  0  0  0
  151.0133  144.3156  159.0634 N   0  0  0  0  0  0  0  0  0  0  0  0
  150.9827  143.5297  157.9912 C   0  0  0  0  0  0  0  0  0  0  0  0
  151.6526  142.3636  158.0612 N   0  0  0  0  0  0  0  0  0  0  0  0
  151.7585  141.3548  157.0220 C   0  0  0  0  0  0  0  0  0  0  0  0
  150.6769  141.5098  155.9354 C   0  0  1  0  0  0  0  0  0  0  0  0
  150.8826  140.5354  154.9306 O   0  0  0  0  0  0  0  0  0  0  0  0
  149.2596  141.3266  156.5171 C   0  0  0  0  0  0  0  0  0  0  0  0
  148.3298  140.5207  155.7062 N   0  0  0  0  0  0  0  0  0  0  0  0
  147.9864  141.1289  154.4157 C   0  0  0  0  0  0  0  0  0  0  0  0
  147.1557  142.4215  154.5476 C   0  0  0  0  0  0  0  0  0  0  0  0
  146.1250  142.3170  155.5800 N   0  0  0  0  0  0  0  0  0  0  0  0
  146.0662  141.3495  156.5117 C   0  0  0  0  0  0  0  0  0  0  0  0
  145.2080  141.3468  157.3909 O   0  0  0  0  0  0  0  0  0  0  0  0
  147.0949  140.2028  156.4401 C   0  0  0  0  0  0  0  0  0  0  0  0
  152.2117  142.3459  159.3346 C   0  0  0  0  0  0  0  0  0  0  0  0
  153.0183  141.4276  160.0295 C   0  0  0  0  0  0  0  0  0  0  0  0
  153.4281  141.7179  161.3476 C   0  0  0  0  0  0  0  0  0  0  0  0
  154.3005  140.7203  162.0887 C   0  0  0  0  0  0  0  0  0  0  0  0
  153.0797  144.2455  163.6852 H   0  0  0  0  0  0  0  0  0  0  0  0
  154.5392  143.2845  163.4567 H   0  0  0  0  0  0  0  0  0  0  0  0
  153.0648  142.5272  164.0788 H   0  0  0  0  0  0  0  0  0  0  0  0
  151.9058  144.7713  161.7175 H   0  0  0  0  0  0  0  0  0  0  0  0
  150.4426  143.8180  157.1012 H   0  0  0  0  0  0  0  0  0  0  0  0
  152.7557  141.4072  156.5830 H   0  0  0  0  0  0  0  0  0  0  0  0
  151.6786  140.3744  157.4932 H   0  0  0  0  0  0  0  0  0  0  0  0
  150.7879  142.4967  155.4887 H   0  0  0  0  0  0  0  0  0  0  0  0
  151.2618  139.7685  155.3325 H   0  0  0  0  0  0  0  0  0  0  0  0
  149.3677  140.8642  157.4996 H   0  0  0  0  0  0  0  0  0  0  0  0
  148.8283  142.3086  156.7137 H   0  0  0  0  0  0  0  0  0  0  0  0
  148.8729  141.3071  153.8094 H   0  0  0  0  0  0  0  0  0  0  0  0
  147.4033  140.4067  153.8420 H   0  0  0  0  0  0  0  0  0  0  0  0
  147.8045  143.2604  154.8007 H   0  0  0  0  0  0  0  0  0  0  0  0
  146.6870  142.6683  153.5948 H   0  0  0  0  0  0  0  0  0  0  0  0
  145.4336  143.0521  155.6163 H   0  0  0  0  0  0  0  0  0  0  0  0
  146.5991  139.3660  155.9468 H   0  0  0  0  0  0  0  0  0  0  0  0
  147.3248  139.8530  157.4475 H   0  0  0  0  0  0  0  0  0  0  0  0
  153.3216  140.5090  159.5491 H   0  0  0  0  0  0  0  0  0  0  0  0
  154.4942  139.8345  161.4829 H   0  0  0  0  0  0  0  0  0  0  0  0
  153.8145  140.3961  163.0090 H   0  0  0  0  0  0  0  0  0  0  0  0
  155.2611  141.1690  162.3426 H   0  0  0  0  0  0  0  0  0  0  0  0
  1  2  1  0  0  0  0
  1 23  1  0  0  0  0
  1 24  1  0  0  0  0
  1 25  1  0  0  0  0
  2 21  1  0  0  0  0
  2  3  2  0  0  0  0
  3  4  1  0  0  0  0
  3 26  1  0  0  0  0
  4 19  2  0  0  0  0
  4  5  1  0  0  0  0
  5  6  2  0  0  0  0
  6  7  1  0  0  0  0
  6 27  1  0  0  0  0
  7  8  1  0  0  0  0
  7 19  1  0  0  0  0
  8  9  1  0  0  0  0
  8 28  1  0  0  0  0
  8 29  1  0  0  0  0
  9 10  1  0  0  0  0
  9 11  1  0  0  0  0
  9 30  1  0  0  0  0
 10 31  1  0  0  0  0
 11 12  1  0  0  0  0
 11 32  1  0  0  0  0
 11 33  1  0  0  0  0
 12 18  1  0  0  0  0
 12 13  1  0  0  0  0
 13 14  1  0  0  0  0
 13 34  1  0  0  0  0
 13 35  1  0  0  0  0
 14 15  1  0  0  0  0
 14 36  1  0  0  0  0
 14 37  1  0  0  0  0
 15 16  1  0  0  0  0
 15 38  1  0  0  0  0
 16 17  2  0  0  0  0
 16 18  1  0  0  0  0
 18 39  1  0  0  0  0
 18 40  1  0  0  0  0
 19 20  1  0  0  0  0
 20 21  2  0  0  0  0
 20 41  1  0  0  0  0
 21 22  1  0  0  0  0
 22 42  1  0  0  0  0
 22 43  1  0  0  0  0
 22 44  1  0  0  0  0
M  END
> <s_m_source_file>
AV-unprocessed.smi

> <i_m_source_file_index>
1056

> <i_lp_mmshare_version>
43012

> <i_f3d_flags>
0

> <s_epik_input>
W0NIM11jKFtjSF0xKWMoW0NIM10pW2NIXWMoYzEyKW4oW2NIXW4yKVtDSDJdW0NASF0oW09IXSlbQ0gyXU4zW0NIMl1bQ0gyXVtOSF1DKD1PKVtDSDJdMw==

> <s_epik_cmdline>
J2VwaWtfcHl0aG9uJywgJy1waCcsICc3LjAnLCAnLXRuJywgJzgnLCAnLW1hJywgJzIwMCcsICctbWV0YWxfYmluZGluZycsICctaW1hZScsICc8aW5maWxlLm1hZT4nLCAnLW9tYWUnLCAnPG91dGZpbGUubWFlPic=

> <r_epik_Ionization_Penalty>
1.40166

> <r_epik_Ionization_Penalty_Charging>
0

> <r_epik_Ionization_Penalty_Neutral>
1.40166

> <r_epik_State_Penalty>
1.44226

> <r_epik_Charging_Adjusted_Penalty>
1.44226

> <i_epik_Tot_Q>
0

> <i_epik_Tot_abs_Q>
0

> <r_epik_Metal_State_Penalty>
1.50267

> <b_epik_Metal_Only>
0

> <s_lp_Force_Field>
OPLS_2005

> <r_lp_Energy>
31.4444

> <b_lp_Chiralities_Consistent>
1

> <s_lp_Variant>
AV-unprocessed.smi:1056-10

> <Gold.Version>
5.8.1

> <Gold.Id.Protein>
6NUR|6NUR_protein|mol2

> <Gold.PLP.Fitness>
48.7238

> <Gold.PLP.PLP>
-44.4545

> <Gold.PLP.part.hbond>
-1.0000

> <Gold.PLP.part.metal>
0.0000

> <Gold.PLP.part.buried>
-5.4795

> <Gold.PLP.part.nonpolar>
-36.8174

> <Gold.PLP.part.repulsive>
0.1646

> <Gold.PLP.ligand.clash>
0.0000

> <Gold.PLP.ligand.torsion>
0.8852

> <Gold.PLP.Chemscore.Hbond>
1.0000

> <Gold.PLP.Chemscore.CHOScore>
1.0000

> <Gold.PLP.Chemscore.Metal>
0.0000

> <Gold.Chemscore.Hbonds>
donor molecule, donor type, donor heavy atom, donor atom, acceptor molecule, acceptor atom, score
      P1  H  7989  7998       L1    10  1.00
      L1  C     6    27       P1  8028  1.00

> <Gold.PLP.Chemscore.Internal.Correction>
0.0397

> <Gold.Rescore>
     Score         DG    S(hbond)    S(metal)    S(lipo)     H(rot)  DE(clash)    DE(int)     intcor
     15.53     -16.54       0.91        0.00     119.10       2.31       0.15       0.86       ----

> <Gold.Chemscore.Fitness>
15.5313

> <Gold.Chemscore.DG>
-16.5375

> <Gold.Chemscore.ZeroCoef>
-5.4800

> <Gold.Chemscore.Hbond>
0.9129

> <Gold.Chemscore.Metal>
0.0000

> <Gold.Chemscore.Lipo>
119.0951

> <Gold.Chemscore.Internal_Hbond>
0.0000

> <Gold.Chemscore.DEClash>
0.1511

> <Gold.Chemscore.DEInternal>
0.8552

> <Gold.Chemscore.Rot>
2.3147

> <Gold.Chemscore.Internal.Correction>
   9.000000E+99

> <Gold.Chemscore.Hbonds>
donor molecule, donor type, donor heavy atom, donor atom, acceptor molecule, acceptor atom, score
      P1  H  7989  7998       L1    10  0.74

> <Gold.Chemscore.Hbond.Weighted>
-3.0490

> <Gold.Chemscore.Metal.Weighted>
-0.0000

> <Gold.Chemscore.Lipo.Weighted>
-13.9341

> <Gold.Chemscore.Internal_Hbond.Weighted>
0.0000

> <Gold.Chemscore.DEClash.Weighted>
0.1511

> <Gold.Chemscore.DEInternal.Weighted>
0.8552

> <Gold.Chemscore.Rot.Weighted>
5.9256

> <Gold.Chemscore.Internal.Correction.Weighted>
   9.000000E+99

> <Gold.Protein.RotatedTorsions>
[ 6907 6896 6895 6894 ] final   43.83 input  -60.11 | X-H torsion
[ 7974 7965 7964 7962 ] final  -45.02 input  175.53 | X-H torsion
[ 8008 7997 7996 7995 ] final   47.52 input   59.86 | X-H torsion
[ 10167 10162 10161 10158 ] final    2.27 input  -65.29 | X-H torsion
[ 10718 10713 10712 10709 ] final  -81.15 input   66.30 | X-H torsion
[ 10763 10752 10751 10750 ] final  -82.71 input  -60.55 | X-H torsion
[ 11005 11000 10999 10996 ] final -101.64 input  -57.11 | X-H torsion

> <Gold.Protein.ActiveResidues>
 VAL166  LYS551  ARG553  GLY616  TRP617  ASP618  TYR619  PRO620  LYS621  CYS622 
 ASP623  PHE694  ASN695  SER759  ASP760  ASP761  ALA762  ILE779  LEU786  VAL792 
 PHE793  MET794  SER795  GLU796  ALA797  LYS798  CYS799  TRP800  GLU811  SER814 

> <Gold.Protein.RotatedAtoms>
  152.2251  134.8375  160.0480 H   0  0  0  0  0  0  0  0  0  0  0  0  # atno 6907 bound_to 6896
  151.9145  133.3564  159.3883 H   0  0  0  0  0  0  0  0  0  0  0  0  # atno 6908 bound_to 6896
  150.7010  134.4624  159.5431 H   0  0  0  0  0  0  0  0  0  0  0  0  # atno 6909 bound_to 6896
  145.9862  140.7230  142.9339 H   0  0  0  0  0  0  0  0  0  0  0  0  # atno 7974 bound_to 7965
  155.3705  140.3423  155.4243 H   0  0  0  0  0  0  0  0  0  0  0  0  # atno 8008 bound_to 7997
  156.1665  140.1617  156.8556 H   0  0  0  0  0  0  0  0  0  0  0  0  # atno 8009 bound_to 7997
  154.5190  140.0771  156.8119 H   0  0  0  0  0  0  0  0  0  0  0  0  # atno 8010 bound_to 7997
  140.6643  143.7221  150.7797 H   0  0  0  0  0  0  0  0  0  0  0  0  # atno 10167 bound_to 10162
  156.0056  130.4595  150.3908 H   0  0  0  0  0  0  0  0  0  0  0  0  # atno 10718 bound_to 10713
  154.5790  135.5582  153.7167 H   0  0  0  0  0  0  0  0  0  0  0  0  # atno 10763 bound_to 10752
  153.0075  135.6315  154.2009 H   0  0  0  0  0  0  0  0  0  0  0  0  # atno 10764 bound_to 10752
  154.1949  135.2880  155.2990 H   0  0  0  0  0  0  0  0  0  0  0  0  # atno 10765 bound_to 10752
  141.1222  133.8494  157.1258 H   0  0  0  0  0  0  0  0  0  0  0  0  # atno 11005 bound_to 11000
  144.6875  140.2992  143.7266 LP  0  0  0  0  0  0  0  0  0  0  0  0  # atno 17320 bound_to 7965
  145.7697  139.1853  143.2219 LP  0  0  0  0  0  0  0  0  0  0  0  0  # atno 17321 bound_to 7965
  140.0895  143.4891  152.2486 LP  0  0  0  0  0  0  0  0  0  0  0  0  # atno 17342 bound_to 10162
  139.5887  144.7541  151.3455 LP  0  0  0  0  0  0  0  0  0  0  0  0  # atno 17343 bound_to 10162
  157.1983  131.0432  151.2664 LP  0  0  0  0  0  0  0  0  0  0  0  0  # atno 17370 bound_to 10713
  157.3999  130.7327  149.6759 LP  0  0  0  0  0  0  0  0  0  0  0  0  # atno 17371 bound_to 10713
  140.0189  134.9955  157.0551 LP  0  0  0  0  0  0  0  0  0  0  0  0  # atno 17394 bound_to 11000
  140.4472  134.1619  155.7178 LP  0  0  0  0  0  0  0  0  0  0  0  0  # atno 17395 bound_to 11000

$$$$
