AV-unprocessed.smi:2009|AV-procd|sdf|8145|dock5
  -GOLD-   2272010383D 1   1.00000     0.00000
 Structure written by MMmdl.
 38 39  0  0  0  0  0  0  0  0  1 V2000
  143.7698  136.6046  152.1453 C   0  0  0  0  0  0  0  0  0  0  0  0
  145.1472  136.0489  151.7525 C   0  0  2  0  0  0  0  0  0  0  0  0
  145.3479  134.5680  152.1478 C   0  0  0  0  0  0  0  0  0  0  0  0
  145.1994  133.6421  151.0364 N   0  0  0  0  0  0  0  0  0  0  0  0
  144.1040  133.4578  150.2186 C   0  0  0  0  0  0  0  0  0  0  0  0
  144.4269  132.4834  149.3186 C   0  0  0  0  0  0  0  0  0  0  0  0
  145.7571  132.1240  149.6735 C   0  0  0  0  0  0  0  0  0  0  0  0
  146.2160  132.8168  150.7034 N   0  0  0  0  0  0  0  0  0  0  0  0
  146.1888  136.8958  152.3417 N   0  0  0  0  0  0  0  0  0  0  0  0
  146.0961  137.3657  153.9991 S   0  0  0  0  0  0  0  0  0  0  0  0
  144.8207  138.0617  154.2282 O   0  0  0  0  0  0  0  0  0  0  0  0
  146.4837  136.2083  154.8198 O   0  0  0  0  0  0  0  0  0  0  0  0
  147.3730  138.5359  154.0311 N   0  0  0  0  0  0  0  0  0  0  0  0
  148.6064  138.1519  154.7463 C   0  0  0  0  0  0  0  0  0  0  0  0
  149.7752  139.0905  154.4032 C   0  0  0  0  0  0  0  0  0  0  0  0
  149.4072  140.5536  154.6630 C   0  0  0  0  0  0  0  0  0  0  0  0
  148.1453  140.9035  153.8698 C   0  0  0  0  0  0  0  0  0  0  0  0
  146.9881  139.9522  154.2159 C   0  0  0  0  0  0  0  0  0  0  0  0
  142.9693  135.9909  151.7317 H   0  0  0  0  0  0  0  0  0  0  0  0
  143.6351  137.6187  151.7678 H   0  0  0  0  0  0  0  0  0  0  0  0
  143.6398  136.6366  153.2274 H   0  0  0  0  0  0  0  0  0  0  0  0
  145.2315  136.1216  150.6676 H   0  0  0  0  0  0  0  0  0  0  0  0
  146.3418  134.4356  152.5784 H   0  0  0  0  0  0  0  0  0  0  0  0
  144.6470  134.2783  152.9304 H   0  0  0  0  0  0  0  0  0  0  0  0
  143.1976  134.0322  150.3435 H   0  0  0  0  0  0  0  0  0  0  0  0
  143.8074  132.0866  148.5282 H   0  0  0  0  0  0  0  0  0  0  0  0
  146.3983  131.3844  149.2172 H   0  0  0  0  0  0  0  0  0  0  0  0
  147.1332  136.6343  152.0598 H   0  0  0  0  0  0  0  0  0  0  0  0
  148.4111  138.1635  155.8194 H   0  0  0  0  0  0  0  0  0  0  0  0
  148.8783  137.1290  154.4856 H   0  0  0  0  0  0  0  0  0  0  0  0
  150.6537  138.8182  154.9887 H   0  0  0  0  0  0  0  0  0  0  0  0
  150.0504  138.9622  153.3555 H   0  0  0  0  0  0  0  0  0  0  0  0
  149.2353  140.7127  155.7282 H   0  0  0  0  0  0  0  0  0  0  0  0
  150.2300  141.2078  154.3736 H   0  0  0  0  0  0  0  0  0  0  0  0
  147.8518  141.9337  154.0735 H   0  0  0  0  0  0  0  0  0  0  0  0
  148.3560  140.8479  152.8010 H   0  0  0  0  0  0  0  0  0  0  0  0
  146.1279  140.1915  153.5914 H   0  0  0  0  0  0  0  0  0  0  0  0
  146.6741  140.1005  155.2500 H   0  0  0  0  0  0  0  0  0  0  0  0
  1  2  1  0  0  0  0
  1 19  1  0  0  0  0
  1 20  1  0  0  0  0
  1 21  1  0  0  0  0
  2  3  1  0  0  0  0
  2  9  1  0  0  0  0
  2 22  1  0  0  0  0
  3  4  1  0  0  0  0
  3 23  1  0  0  0  0
  3 24  1  0  0  0  0
  4  8  1  0  0  0  0
  4  5  1  0  0  0  0
  5  6  2  0  0  0  0
  5 25  1  0  0  0  0
  6  7  1  0  0  0  0
  6 26  1  0  0  0  0
  7  8  2  0  0  0  0
  7 27  1  0  0  0  0
  9 10  1  0  0  0  0
  9 28  1  0  0  0  0
 10 11  2  0  0  0  0
 10 12  2  0  0  0  0
 10 13  1  0  0  0  0
 13 18  1  0  0  0  0
 13 14  1  0  0  0  0
 14 15  1  0  0  0  0
 14 29  1  0  0  0  0
 14 30  1  0  0  0  0
 15 16  1  0  0  0  0
 15 31  1  0  0  0  0
 15 32  1  0  0  0  0
 16 17  1  0  0  0  0
 16 33  1  0  0  0  0
 16 34  1  0  0  0  0
 17 18  1  0  0  0  0
 17 35  1  0  0  0  0
 17 36  1  0  0  0  0
 18 37  1  0  0  0  0
 18 38  1  0  0  0  0
M  END
> <s_m_source_file>
AV-unprocessed.smi

> <i_m_source_file_index>
2009

> <i_lp_mmshare_version>
43012

> <i_f3d_flags>
0

> <s_epik_input>
bjFbY0hdW2NIXVtjSF1uMVtDSDJdW0NAQEhdKFtDSDNdKVtOSF1TKD1PKSg9TylOMltDSDJdW0NIMl1bQ0gyXVtDSDJdW0NIMl0y

> <s_epik_cmdline>
J2VwaWtfcHl0aG9uJywgJy1waCcsICc3LjAnLCAnLXRuJywgJzgnLCAnLW1hJywgJzIwMCcsICctbWV0YWxfYmluZGluZycsICctaW1hZScsICc8aW5maWxlLm1hZT4nLCAnLW9tYWUnLCAnPG91dGZpbGUubWFlPic=

> <r_lp_tautomer_probability>
1

> <r_epik_Ionization_Penalty>
0.0313937

> <r_epik_Ionization_Penalty_Charging>
0

> <r_epik_Ionization_Penalty_Neutral>
0.0313937

> <r_epik_State_Penalty>
0.0259441

> <r_epik_Charging_Adjusted_Penalty>
0.0259441

> <i_epik_Tot_Q>
0

> <i_epik_Tot_abs_Q>
0

> <r_epik_Metal_State_Penalty>
0.365037

> <b_epik_Metal_Only>
0

> <s_lp_Force_Field>
OPLS_2005

> <r_lp_Energy>
7.7354

> <b_lp_Chiralities_Consistent>
1

> <s_lp_Variant>
AV-unprocessed.smi:2009-1

> <Gold.Version>
5.8.1

> <Gold.Id.Protein>
6NUR|6NUR_protein|mol2

> <Gold.PLP.Fitness>
36.3945

> <Gold.PLP.PLP>
-29.4560

> <Gold.PLP.part.hbond>
-1.0000

> <Gold.PLP.part.metal>
0.0000

> <Gold.PLP.part.buried>
-3.7282

> <Gold.PLP.part.nonpolar>
-25.5515

> <Gold.PLP.part.repulsive>
0.6490

> <Gold.PLP.ligand.clash>
0.0000

> <Gold.PLP.ligand.torsion>
1.2287

> <Gold.PLP.Chemscore.Hbond>
1.0000

> <Gold.PLP.Chemscore.CHOScore>
1.8714

> <Gold.PLP.Chemscore.Metal>
0.0000

> <Gold.Chemscore.Hbonds>
donor molecule, donor type, donor heavy atom, donor atom, acceptor molecule, acceptor atom, score
      L1  H     9    28       P1  7948  1.00
      L1  C     5    25       P1 10186  1.00
      L1  C     7    27       P1 10747  0.25

> <Gold.PLP.Chemscore.Internal.Correction>
0.7818

> <Gold.Rescore>
     Score         DG    S(hbond)    S(metal)    S(lipo)     H(rot)  DE(clash)    DE(int)     intcor
     10.38     -13.04       1.00        0.00      75.95       1.82       0.03       2.63       ----

> <Gold.Chemscore.Fitness>
10.3790

> <Gold.Chemscore.DG>
-13.0377

> <Gold.Chemscore.ZeroCoef>
-5.4800

> <Gold.Chemscore.Hbond>
0.9999

> <Gold.Chemscore.Metal>
0.0000

> <Gold.Chemscore.Lipo>
75.9526

> <Gold.Chemscore.Internal_Hbond>
0.0000

> <Gold.Chemscore.DEClash>
0.0329

> <Gold.Chemscore.DEInternal>
2.6257

> <Gold.Chemscore.Rot>
1.8237

> <Gold.Chemscore.Internal.Correction>
   9.000000E+99

> <Gold.Chemscore.Hbonds>
donor molecule, donor type, donor heavy atom, donor atom, acceptor molecule, acceptor atom, score
      L1  H     9    28       P1  7948  1.00

> <Gold.Chemscore.Hbond.Weighted>
-3.3398

> <Gold.Chemscore.Metal.Weighted>
-0.0000

> <Gold.Chemscore.Lipo.Weighted>
-8.8865

> <Gold.Chemscore.Internal_Hbond.Weighted>
0.0000

> <Gold.Chemscore.DEClash.Weighted>
0.0329

> <Gold.Chemscore.DEInternal.Weighted>
2.6257

> <Gold.Chemscore.Rot.Weighted>
4.6686

> <Gold.Chemscore.Internal.Correction.Weighted>
   9.000000E+99

> <Gold.Protein.RotatedTorsions>
[ 6907 6896 6895 6894 ] final  -14.52 input  -60.11 | X-H torsion
[ 7974 7965 7964 7962 ] final  -66.75 input  175.53 | X-H torsion
[ 8008 7997 7996 7995 ] final -151.38 input   59.86 | X-H torsion
[ 10167 10162 10161 10158 ] final  -17.59 input  -65.29 | X-H torsion
[ 10718 10713 10712 10709 ] final   79.26 input   66.30 | X-H torsion
[ 10763 10752 10751 10750 ] final   51.49 input  -60.55 | X-H torsion
[ 11005 11000 10999 10996 ] final -127.41 input  -57.11 | X-H torsion

> <Gold.Protein.ActiveResidues>
 VAL166  LYS551  ARG553  GLY616  TRP617  ASP618  TYR619  PRO620  LYS621  CYS622 
 ASP623  PHE694  ASN695  SER759  ASP760  ASP761  ALA762  ILE779  LEU786  VAL792 
 PHE793  MET794  SER795  GLU796  ALA797  LYS798  CYS799  TRP800  GLU811  SER814 

> <Gold.Protein.RotatedAtoms>
  151.3381  135.0857  159.9361 H   0  0  0  0  0  0  0  0  0  0  0  0  # atno 6907 bound_to 6896
  152.5218  133.9475  159.7666 H   0  0  0  0  0  0  0  0  0  0  0  0  # atno 6908 bound_to 6896
  150.9826  133.6177  159.2750 H   0  0  0  0  0  0  0  0  0  0  0  0  # atno 6909 bound_to 6896
  145.7378  140.8967  143.0546 H   0  0  0  0  0  0  0  0  0  0  0  0  # atno 7974 bound_to 7965
  155.6385  140.0699  157.2626 H   0  0  0  0  0  0  0  0  0  0  0  0  # atno 8008 bound_to 7997
  154.4189  140.1754  156.1597 H   0  0  0  0  0  0  0  0  0  0  0  0  # atno 8009 bound_to 7997
  155.9875  140.3348  155.6724 H   0  0  0  0  0  0  0  0  0  0  0  0  # atno 8010 bound_to 7997
  140.7249  143.5000  150.9881 H   0  0  0  0  0  0  0  0  0  0  0  0  # atno 10167 bound_to 10162
  157.6771  130.9906  150.1906 H   0  0  0  0  0  0  0  0  0  0  0  0  # atno 10718 bound_to 10713
  152.9785  135.5844  154.4424 H   0  0  0  0  0  0  0  0  0  0  0  0  # atno 10763 bound_to 10752
  154.4023  135.2769  155.2090 H   0  0  0  0  0  0  0  0  0  0  0  0  # atno 10764 bound_to 10752
  154.3916  135.6124  153.5900 H   0  0  0  0  0  0  0  0  0  0  0  0  # atno 10765 bound_to 10752
  140.9602  134.0947  157.3976 H   0  0  0  0  0  0  0  0  0  0  0  0  # atno 11005 bound_to 11000
  144.6877  139.9419  143.7475 LP  0  0  0  0  0  0  0  0  0  0  0  0  # atno 17320 bound_to 7965
  146.0476  139.3481  143.0659 LP  0  0  0  0  0  0  0  0  0  0  0  0  # atno 17321 bound_to 7965
  139.8709  143.7194  152.3166 LP  0  0  0  0  0  0  0  0  0  0  0  0  # atno 17342 bound_to 10162
  139.7442  144.7551  151.0605 LP  0  0  0  0  0  0  0  0  0  0  0  0  # atno 17343 bound_to 10162
  156.2618  130.3712  149.8122 LP  0  0  0  0  0  0  0  0  0  0  0  0  # atno 17370 bound_to 10713
  156.5865  130.8488  151.3397 LP  0  0  0  0  0  0  0  0  0  0  0  0  # atno 17371 bound_to 10713
  139.8875  135.0090  156.6566 LP  0  0  0  0  0  0  0  0  0  0  0  0  # atno 17394 bound_to 11000
  140.7479  133.8922  155.8325 LP  0  0  0  0  0  0  0  0  0  0  0  0  # atno 17395 bound_to 11000

$$$$
