AV-unprocessed.smi:1275|AV-procd|sdf|5342|dock7
  -GOLD-   22720 4473D 1   1.00000     0.00000
 Structure written by MMmdl.
 42 43  0  0  0  0  0  0  0  0  1 V2000
  151.7084  144.9025  159.1164 C   0  0  0  0  0  0  0  0  0  0  0  0
  151.0809  143.6706  158.8075 O   0  0  0  0  0  0  0  0  0  0  0  0
  151.3548  143.2386  157.4851 C   0  0  0  0  0  0  0  0  0  0  0  0
  151.0740  141.7370  157.3788 C   0  0  0  0  0  0  0  0  0  0  0  0
  151.0879  141.3621  156.0046 O   0  0  0  0  0  0  0  0  0  0  0  0
  150.7639  140.0629  155.6724 C   0  0  0  0  0  0  0  0  0  0  0  0
  150.7876  139.0832  156.6849 C   0  0  0  0  0  0  0  0  0  0  0  0
  150.4516  137.7558  156.3569 C   0  0  0  0  0  0  0  0  0  0  0  0
  150.0935  137.4512  155.0222 C   0  0  0  0  0  0  0  0  0  0  0  0
  149.7526  136.1503  154.5636 N   0  0  0  0  0  0  0  0  0  0  0  0
  149.8506  134.9747  155.2153 C   0  0  0  0  0  0  0  0  0  0  0  0
  150.2889  134.8720  156.3614 O   0  0  0  0  0  0  0  0  0  0  0  0
  149.4277  133.9036  154.4970 N   0  0  0  0  0  0  0  0  0  0  0  0
  148.4182  133.8981  153.4280 C   0  0  0  0  0  0  0  0  0  0  0  0
  147.1752  133.1525  153.9452 C   0  0  0  0  0  0  0  0  0  0  0  0
  147.5380  131.8312  154.3396 O   0  0  0  0  0  0  0  0  0  0  0  0
  148.5434  131.7956  155.3516 C   0  0  1  0  0  0  0  0  0  0  0  0
  148.8251  130.3291  155.6962 C   0  0  0  0  0  0  0  0  0  0  0  0
  149.8001  132.5274  154.8382 C   0  0  0  0  0  0  0  0  0  0  0  0
  150.1199  138.4997  154.0800 C   0  0  0  0  0  0  0  0  0  0  0  0
  150.4385  139.7745  154.3880 N   0  0  0  0  0  0  0  0  0  0  0  0
  151.4691  145.1882  160.1404 H   0  0  0  0  0  0  0  0  0  0  0  0
  151.3626  145.6978  158.4550 H   0  0  0  0  0  0  0  0  0  0  0  0
  152.7932  144.8246  159.0335 H   0  0  0  0  0  0  0  0  0  0  0  0
  150.7566  143.7917  156.7594 H   0  0  0  0  0  0  0  0  0  0  0  0
  152.4048  143.4281  157.2571 H   0  0  0  0  0  0  0  0  0  0  0  0
  151.8541  141.1898  157.9106 H   0  0  0  0  0  0  0  0  0  0  0  0
  150.1176  141.4991  157.8475 H   0  0  0  0  0  0  0  0  0  0  0  0
  151.0618  139.3448  157.6961 H   0  0  0  0  0  0  0  0  0  0  0  0
  150.4886  137.0015  157.1272 H   0  0  0  0  0  0  0  0  0  0  0  0
  149.3076  136.1135  153.6581 H   0  0  0  0  0  0  0  0  0  0  0  0
  148.1308  134.8887  153.0769 H   0  0  0  0  0  0  0  0  0  0  0  0
  148.8240  133.3845  152.5553 H   0  0  0  0  0  0  0  0  0  0  0  0
  146.7243  133.6827  154.7854 H   0  0  0  0  0  0  0  0  0  0  0  0
  146.4191  133.0910  153.1627 H   0  0  0  0  0  0  0  0  0  0  0  0
  148.1653  132.2970  156.2443 H   0  0  0  0  0  0  0  0  0  0  0  0
  149.5811  130.2479  156.4777 H   0  0  0  0  0  0  0  0  0  0  0  0
  149.1835  129.7805  154.8248 H   0  0  0  0  0  0  0  0  0  0  0  0
  147.9230  129.8328  156.0544 H   0  0  0  0  0  0  0  0  0  0  0  0
  150.1948  132.0291  153.9514 H   0  0  0  0  0  0  0  0  0  0  0  0
  150.5933  132.4773  155.5855 H   0  0  0  0  0  0  0  0  0  0  0  0
  149.8702  138.3131  153.0456 H   0  0  0  0  0  0  0  0  0  0  0  0
  1  2  1  0  0  0  0
  1 22  1  0  0  0  0
  1 23  1  0  0  0  0
  1 24  1  0  0  0  0
  2  3  1  0  0  0  0
  3  4  1  0  0  0  0
  3 25  1  0  0  0  0
  3 26  1  0  0  0  0
  4  5  1  0  0  0  0
  4 27  1  0  0  0  0
  4 28  1  0  0  0  0
  5  6  1  0  0  0  0
  6 21  1  0  0  0  0
  6  7  2  0  0  0  0
  7  8  1  0  0  0  0
  7 29  1  0  0  0  0
  8  9  2  0  0  0  0
  8 30  1  0  0  0  0
  9 10  1  0  0  0  0
  9 20  1  0  0  0  0
 10 11  1  0  0  0  0
 10 31  1  0  0  0  0
 11 12  2  0  0  0  0
 11 13  1  0  0  0  0
 13 19  1  0  0  0  0
 13 14  1  0  0  0  0
 14 15  1  0  0  0  0
 14 32  1  0  0  0  0
 14 33  1  0  0  0  0
 15 16  1  0  0  0  0
 15 34  1  0  0  0  0
 15 35  1  0  0  0  0
 16 17  1  0  0  0  0
 17 18  1  0  0  0  0
 17 19  1  0  0  0  0
 17 36  1  0  0  0  0
 18 37  1  0  0  0  0
 18 38  1  0  0  0  0
 18 39  1  0  0  0  0
 19 40  1  0  0  0  0
 19 41  1  0  0  0  0
 20 21  2  0  0  0  0
 20 42  1  0  0  0  0
M  END
> <s_m_source_file>
AV-unprocessed.smi

> <i_m_source_file_index>
1275

> <i_lp_mmshare_version>
43012

> <i_f3d_flags>
0

> <s_epik_input>
W0NIM11PW0NIMl1bQ0gyXU9jMVtjSF1bY0hdYyhbY0hdbjEpW05IXUMoPU8pTjJbQ0gyXVtDSDJdT1tDQEBIXShbQ0gzXSlbQ0gyXTI=

> <s_epik_cmdline>
J2VwaWtfcHl0aG9uJywgJy1waCcsICc3LjAnLCAnLXRuJywgJzgnLCAnLW1hJywgJzIwMCcsICctbWV0YWxfYmluZGluZycsICctaW1hZScsICc8aW5maWxlLm1hZT4nLCAnLW9tYWUnLCAnPG91dGZpbGUubWFlPic=

> <r_lp_tautomer_probability>
1

> <r_epik_Ionization_Penalty>
5.69099e-05

> <r_epik_Ionization_Penalty_Charging>
0

> <r_epik_Ionization_Penalty_Neutral>
5.69099e-05

> <r_epik_State_Penalty>
-0

> <r_epik_Charging_Adjusted_Penalty>
0

> <i_epik_Tot_Q>
0

> <i_epik_Tot_abs_Q>
0

> <r_epik_Metal_State_Penalty>
-0

> <b_epik_Metal_Only>
0

> <s_lp_Force_Field>
OPLS_2005

> <r_lp_Energy>
32.9839

> <b_lp_Chiralities_Consistent>
1

> <s_lp_Variant>
AV-unprocessed.smi:1275-1

> <Gold.Version>
5.8.1

> <Gold.Id.Protein>
6NUR|6NUR_protein|mol2

> <Gold.PLP.Fitness>
40.6071

> <Gold.PLP.PLP>
-29.9033

> <Gold.PLP.part.hbond>
-2.4602

> <Gold.PLP.part.metal>
0.0000

> <Gold.PLP.part.buried>
-2.6100

> <Gold.PLP.part.nonpolar>
-24.6915

> <Gold.PLP.part.repulsive>
0.3334

> <Gold.PLP.ligand.clash>
0.0000

> <Gold.PLP.ligand.torsion>
0.6058

> <Gold.PLP.Chemscore.Hbond>
2.0000

> <Gold.PLP.Chemscore.CHOScore>
1.9318

> <Gold.PLP.Chemscore.Metal>
0.0000

> <Gold.Chemscore.Hbonds>
donor molecule, donor type, donor heavy atom, donor atom, acceptor molecule, acceptor atom, score
      L1  H    10    31       P1  7948  1.00
      P1  H  7989  7998       L1    21  1.00
      L1  C    20    42       P1  7948  1.00
      L1  C    20    42       P1  7957  0.92

> <Gold.PLP.Chemscore.Internal.Correction>
0.1200

> <Gold.Rescore>
     Score         DG    S(hbond)    S(metal)    S(lipo)     H(rot)  DE(clash)    DE(int)     intcor
     11.92     -15.22       1.77        0.00      67.97       1.62       1.33       1.96       ----

> <Gold.Chemscore.Fitness>
11.9202

> <Gold.Chemscore.DG>
-15.2164

> <Gold.Chemscore.ZeroCoef>
-5.4800

> <Gold.Chemscore.Hbond>
1.7740

> <Gold.Chemscore.Metal>
0.0000

> <Gold.Chemscore.Lipo>
67.9739

> <Gold.Chemscore.Internal_Hbond>
0.0000

> <Gold.Chemscore.DEClash>
1.3347

> <Gold.Chemscore.DEInternal>
1.9615

> <Gold.Chemscore.Rot>
1.6178

> <Gold.Chemscore.Internal.Correction>
   9.000000E+99

> <Gold.Chemscore.Hbonds>
donor molecule, donor type, donor heavy atom, donor atom, acceptor molecule, acceptor atom, score
      L1  H    10    31       P1  7948  0.78
      P1  H  7989  7998       L1    21  0.30

> <Gold.Chemscore.Hbond.Weighted>
-5.9250

> <Gold.Chemscore.Metal.Weighted>
-0.0000

> <Gold.Chemscore.Lipo.Weighted>
-7.9529

> <Gold.Chemscore.Internal_Hbond.Weighted>
0.0000

> <Gold.Chemscore.DEClash.Weighted>
1.3347

> <Gold.Chemscore.DEInternal.Weighted>
1.9615

> <Gold.Chemscore.Rot.Weighted>
4.1416

> <Gold.Chemscore.Internal.Correction.Weighted>
   9.000000E+99

> <Gold.Protein.RotatedTorsions>
[ 6907 6896 6895 6894 ] final   65.58 input  -60.11 | X-H torsion
[ 7974 7965 7964 7962 ] final   21.74 input  175.53 | X-H torsion
[ 8008 7997 7996 7995 ] final  -48.25 input   59.86 | X-H torsion
[ 10167 10162 10161 10158 ] final -167.65 input  -65.29 | X-H torsion
[ 10718 10713 10712 10709 ] final   53.40 input   66.30 | X-H torsion
[ 10763 10752 10751 10750 ] final  -85.44 input  -60.55 | X-H torsion
[ 11005 11000 10999 10996 ] final  -63.56 input  -57.11 | X-H torsion

> <Gold.Protein.ActiveResidues>
 VAL166  LYS551  ARG553  GLY616  TRP617  ASP618  TYR619  PRO620  LYS621  CYS622 
 ASP623  PHE694  ASN695  SER759  ASP760  ASP761  ALA762  ILE779  LEU786  VAL792 
 PHE793  MET794  SER795  GLU796  ALA797  LYS798  CYS799  TRP800  GLU811  SER814 

> <Gold.Protein.RotatedAtoms>
  152.4418  134.5576  159.9884 H   0  0  0  0  0  0  0  0  0  0  0  0  # atno 6907 bound_to 6896
  151.5671  133.3389  159.2990 H   0  0  0  0  0  0  0  0  0  0  0  0  # atno 6908 bound_to 6896
  150.8325  134.7618  159.6930 H   0  0  0  0  0  0  0  0  0  0  0  0  # atno 6909 bound_to 6896
  146.2059  139.7984  142.8726 H   0  0  0  0  0  0  0  0  0  0  0  0  # atno 7974 bound_to 7965
  154.4026  140.1326  156.4309 H   0  0  0  0  0  0  0  0  0  0  0  0  # atno 8008 bound_to 7997
  155.7552  140.3487  155.5150 H   0  0  0  0  0  0  0  0  0  0  0  0  # atno 8009 bound_to 7997
  155.8912  140.1003  157.1408 H   0  0  0  0  0  0  0  0  0  0  0  0  # atno 8010 bound_to 7997
  139.6035  144.0960  152.1769 H   0  0  0  0  0  0  0  0  0  0  0  0  # atno 10167 bound_to 10162
  157.5163  130.8534  149.8500 H   0  0  0  0  0  0  0  0  0  0  0  0  # atno 10718 bound_to 10713
  154.6111  135.5485  153.7474 H   0  0  0  0  0  0  0  0  0  0  0  0  # atno 10763 bound_to 10752
  153.0195  135.6390  154.1577 H   0  0  0  0  0  0  0  0  0  0  0  0  # atno 10764 bound_to 10752
  154.1514  135.2902  155.3114 H   0  0  0  0  0  0  0  0  0  0  0  0  # atno 10765 bound_to 10752
  141.1397  133.6653  156.5699 H   0  0  0  0  0  0  0  0  0  0  0  0  # atno 11005 bound_to 11000
  145.3322  141.0269  143.3440 LP  0  0  0  0  0  0  0  0  0  0  0  0  # atno 17320 bound_to 7965
  144.8791  139.4930  143.6731 LP  0  0  0  0  0  0  0  0  0  0  0  0  # atno 17321 bound_to 7965
  140.0562  144.5893  150.7298 LP  0  0  0  0  0  0  0  0  0  0  0  0  # atno 17342 bound_to 10162
  140.7268  143.2644  151.4093 LP  0  0  0  0  0  0  0  0  0  0  0  0  # atno 17343 bound_to 10162
  156.0322  130.3761  150.1655 LP  0  0  0  0  0  0  0  0  0  0  0  0  # atno 17370 bound_to 10713
  156.9844  130.9874  151.3430 LP  0  0  0  0  0  0  0  0  0  0  0  0  # atno 17371 bound_to 10713
  140.3921  134.7431  157.4728 LP  0  0  0  0  0  0  0  0  0  0  0  0  # atno 17394 bound_to 11000
  140.0558  134.6065  155.8806 LP  0  0  0  0  0  0  0  0  0  0  0  0  # atno 17395 bound_to 11000

$$$$
