AV-unprocessed.smi:1410|AV-procd|sdf|5737|dock8
  -GOLD-   22720 5373D 1   1.00000     0.00000
 Structure written by MMmdl.
 40 41  0  0  0  0  0  0  0  0  4 V2000
  142.3969  132.1806  148.2086 N   0  5  0  0  0  0  0  0  0  0  0  0
  143.5200  132.1872  148.9517 C   0  0  0  0  0  0  0  0  0  0  0  0
  144.6771  132.0161  148.5735 O   0  0  0  0  0  0  0  0  0  0  0  0
  143.2363  132.4174  150.4400 C   0  0  0  0  0  0  0  0  0  0  0  0
  143.5472  133.8209  150.8098 N   0  3  2  0  0  0  0  0  0  0  0  0
  144.9301  134.2296  150.4437 C   0  0  0  0  0  0  0  0  0  0  0  0
  145.1572  135.7246  150.7205 C   0  0  0  0  0  0  0  0  0  0  0  0
  144.8699  136.0656  152.1910 C   0  0  1  0  0  0  0  0  0  0  0  0
  145.0192  137.5024  152.4042 N   0  0  0  0  0  0  0  0  0  0  0  0
  146.0137  138.0814  153.0923 C   0  0  0  0  0  0  0  0  0  0  0  0
  146.9108  137.4495  153.6499 O   0  0  0  0  0  0  0  0  0  0  0  0
  145.8843  139.4195  153.1042 N   0  0  0  0  0  0  0  0  0  0  0  0
  146.7479  140.3858  153.6886 C   0  0  0  0  0  0  0  0  0  0  0  0
  146.1976  141.6462  154.0109 C   0  0  0  0  0  0  0  0  0  0  0  0
  147.0216  142.6410  154.5760 C   0  0  0  0  0  0  0  0  0  0  0  0
  148.3294  142.3864  154.7950 N   0  3  0  0  0  0  0  0  0  0  0  0
  148.9038  141.2032  154.4896 C   0  0  0  0  0  0  0  0  0  0  0  0
  148.1301  140.1701  153.9224 C   0  0  0  0  0  0  0  0  0  0  0  0
  143.4501  135.5983  152.5595 C   0  0  0  0  0  0  0  0  0  0  0  0
  143.2543  134.1069  152.2373 C   0  0  0  0  0  0  0  0  0  0  0  0
  141.6600  132.8635  148.4226 H   0  0  0  0  0  0  0  0  0  0  0  0
  142.1747  132.2179  150.5926 H   0  0  0  0  0  0  0  0  0  0  0  0
  143.7775  131.7234  151.0870 H   0  0  0  0  0  0  0  0  0  0  0  0
  145.6483  133.6301  151.0053 H   0  0  0  0  0  0  0  0  0  0  0  0
  145.1162  134.0338  149.3876 H   0  0  0  0  0  0  0  0  0  0  0  0
  146.1835  135.9930  150.4669 H   0  0  0  0  0  0  0  0  0  0  0  0
  144.5123  136.3145  150.0671 H   0  0  0  0  0  0  0  0  0  0  0  0
  145.5928  135.5330  152.8122 H   0  0  0  0  0  0  0  0  0  0  0  0
  144.3202  138.0979  151.9847 H   0  0  0  0  0  0  0  0  0  0  0  0
  145.0440  139.7881  152.6831 H   0  0  0  0  0  0  0  0  0  0  0  0
  145.1517  141.8520  153.8338 H   0  0  0  0  0  0  0  0  0  0  0  0
  146.6765  143.6257  154.8555 H   0  0  0  0  0  0  0  0  0  0  0  0
  149.9601  141.1204  154.7002 H   0  0  0  0  0  0  0  0  0  0  0  0
  148.6145  139.2401  153.6664 H   0  0  0  0  0  0  0  0  0  0  0  0
  143.2585  135.7709  153.6192 H   0  0  0  0  0  0  0  0  0  0  0  0
  142.7113  136.1860  152.0121 H   0  0  0  0  0  0  0  0  0  0  0  0
  142.2261  133.8245  152.4667 H   0  0  0  0  0  0  0  0  0  0  0  0
  143.9002  133.4966  152.8707 H   0  0  0  0  0  0  0  0  0  0  0  0
  142.9160  134.3932  150.2670 H   0  0  0  0  0  0  0  0  0  0  0  0
  148.9091  143.1202  155.2034 H   0  0  0  0  0  0  0  0  0  0  0  0
  1  2  1  0  0  0  0
  1 21  1  0  0  0  0
  2  3  2  0  0  0  0
  2  4  1  0  0  0  0
  4  5  1  0  0  0  0
  4 22  1  0  0  0  0
  4 23  1  0  0  0  0
  5 20  1  0  0  0  0
  5  6  1  0  0  0  0
  5 39  1  0  0  0  0
  6  7  1  0  0  0  0
  6 24  1  0  0  0  0
  6 25  1  0  0  0  0
  7  8  1  0  0  0  0
  7 26  1  0  0  0  0
  7 27  1  0  0  0  0
  8  9  1  0  0  0  0
  8 19  1  0  0  0  0
  8 28  1  0  0  0  0
  9 10  1  0  0  0  0
  9 29  1  0  0  0  0
 10 11  2  0  0  0  0
 10 12  1  0  0  0  0
 12 13  1  0  0  0  0
 12 30  1  0  0  0  0
 13 18  1  0  0  0  0
 13 14  2  0  0  0  0
 14 15  1  0  0  0  0
 14 31  1  0  0  0  0
 15 16  2  0  0  0  0
 15 32  1  0  0  0  0
 16 17  1  0  0  0  0
 16 40  1  0  0  0  0
 17 18  2  0  0  0  0
 17 33  1  0  0  0  0
 18 34  1  0  0  0  0
 19 20  1  0  0  0  0
 19 35  1  0  0  0  0
 19 36  1  0  0  0  0
 20 37  1  0  0  0  0
 20 38  1  0  0  0  0
M  CHG  1   1  -1
M  CHG  1   5   1
M  CHG  1  16   1
M  END
> <s_m_source_file>
AV-unprocessed.smi

> <i_m_source_file_index>
1410

> <i_lp_mmshare_version>
43012

> <i_f3d_flags>
0

> <s_epik_input>
W05IMl1DKD1PKVtDSDJdTjFbQ0gyXVtDSDJdW0NIXShbQ0gyXVtDSDJdMSlbTkhdQyg9TylbTkhdYzJbY0hdW2NIXW5bY0hdW2NIXTI=

> <s_epik_cmdline>
J2VwaWtfcHl0aG9uJywgJy1waCcsICc3LjAnLCAnLXRuJywgJzgnLCAnLW1hJywgJzIwMCcsICctbWV0YWxfYmluZGluZycsICctaW1hZScsICc8aW5maWxlLm1hZT4nLCAnLW9tYWUnLCAnPG91dGZpbGUubWFlPic=

> <r_epik_Ionization_Penalty>
6.84067

> <r_epik_Ionization_Penalty_Charging>
6.84065

> <r_epik_Ionization_Penalty_Neutral>
1.84563e-05

> <r_epik_State_Penalty>
7.68217

> <r_epik_Charging_Adjusted_Penalty>
14.5228

> <i_epik_Tot_Q>
1

> <i_epik_Tot_abs_Q>
3

> <r_epik_Metal_State_Penalty>
3.74331

> <b_epik_Metal_Only>
1

> <s_lp_Force_Field>
OPLS_2005

> <r_lp_Energy>
19.1226

> <b_lp_Chiralities_Consistent>
1

> <s_lp_Variant>
AV-unprocessed.smi:1410-9

> <Gold.Version>
5.8.1

> <Gold.Id.Protein>
6NUR|6NUR_protein|mol2

> <Gold.PLP.Fitness>
51.9836

> <Gold.PLP.PLP>
-36.1023

> <Gold.PLP.part.hbond>
-9.8908

> <Gold.PLP.part.metal>
0.0000

> <Gold.PLP.part.buried>
1.2615

> <Gold.PLP.part.nonpolar>
-31.9684

> <Gold.PLP.part.repulsive>
2.2047

> <Gold.PLP.ligand.clash>
0.0000

> <Gold.PLP.ligand.torsion>
0.4792

> <Gold.PLP.Chemscore.Hbond>
5.6062

> <Gold.PLP.Chemscore.CHOScore>
0.0000

> <Gold.PLP.Chemscore.Metal>
0.0000

> <Gold.Chemscore.Hbonds>
donor molecule, donor type, donor heavy atom, donor atom, acceptor molecule, acceptor atom, score
      L1  H     1    21       P1 10186  1.00
      L1  H     5    39       P1 10186  1.65
      L1  H     9    29       P1 10171  0.26
      L1  H    12    30       P1 10175  1.00
      L1  H    16    40       P1  8028  1.66

> <Gold.PLP.Chemscore.Internal.Correction>
0.0212

> <Gold.Rescore>
     Score         DG    S(hbond)    S(metal)    S(lipo)     H(rot)  DE(clash)    DE(int)     intcor
     16.98     -20.92       3.71        0.00      69.01       1.96       1.28       2.66       ----

> <Gold.Chemscore.Fitness>
16.9812

> <Gold.Chemscore.DG>
-20.9154

> <Gold.Chemscore.ZeroCoef>
-5.4800

> <Gold.Chemscore.Hbond>
3.7072

> <Gold.Chemscore.Metal>
0.0000

> <Gold.Chemscore.Lipo>
69.0082

> <Gold.Chemscore.Internal_Hbond>
0.0000

> <Gold.Chemscore.DEClash>
1.2767

> <Gold.Chemscore.DEInternal>
2.6575

> <Gold.Chemscore.Rot>
1.9612

> <Gold.Chemscore.Internal.Correction>
   9.000000E+99

> <Gold.Chemscore.Hbonds>
donor molecule, donor type, donor heavy atom, donor atom, acceptor molecule, acceptor atom, score
      L1  H     1    21       P1 10186  0.92
      L1  H     5    39       P1 10186  0.60
      L1  H     9    29       P1 10171  0.26
      L1  H    12    30       P1 10175  0.93
      L1  H    16    40       P1  8028  0.81

> <Gold.Chemscore.Hbond.Weighted>
-12.3822

> <Gold.Chemscore.Metal.Weighted>
-0.0000

> <Gold.Chemscore.Lipo.Weighted>
-8.0740

> <Gold.Chemscore.Internal_Hbond.Weighted>
0.0000

> <Gold.Chemscore.DEClash.Weighted>
1.2767

> <Gold.Chemscore.DEInternal.Weighted>
2.6575

> <Gold.Chemscore.Rot.Weighted>
5.0208

> <Gold.Chemscore.Internal.Correction.Weighted>
   9.000000E+99

> <Gold.Protein.RotatedTorsions>
[ 6907 6896 6895 6894 ] final  106.36 input  -60.11 | X-H torsion
[ 7974 7965 7964 7962 ] final  112.59 input  175.53 | X-H torsion
[ 8008 7997 7996 7995 ] final   62.22 input   59.86 | X-H torsion
[ 10167 10162 10161 10158 ] final  146.48 input  -65.29 | X-H torsion
[ 10718 10713 10712 10709 ] final  -17.45 input   66.30 | X-H torsion
[ 10763 10752 10751 10750 ] final -173.67 input  -60.55 | X-H torsion
[ 11005 11000 10999 10996 ] final  -52.34 input  -57.11 | X-H torsion

> <Gold.Protein.ActiveResidues>
 VAL166  LYS551  ARG553  GLY616  TRP617  ASP618  TYR619  PRO620  LYS621  CYS622 
 ASP623  PHE694  ASN695  SER759  ASP760  ASP761  ALA762  ILE779  LEU786  VAL792 
 PHE793  MET794  SER795  GLU796  ALA797  LYS798  CYS799  TRP800  GLU811  SER814 

> <Gold.Protein.RotatedAtoms>
  152.5196  133.9392  159.7617 H   0  0  0  0  0  0  0  0  0  0  0  0  # atno 6907 bound_to 6896
  150.9726  133.6320  159.2742 H   0  0  0  0  0  0  0  0  0  0  0  0  # atno 6908 bound_to 6896
  151.3526  135.0893  159.9461 H   0  0  0  0  0  0  0  0  0  0  0  0  # atno 6909 bound_to 6896
  145.2277  139.2833  143.4185 H   0  0  0  0  0  0  0  0  0  0  0  0  # atno 7974 bound_to 7965
  155.6109  140.3495  155.4622 H   0  0  0  0  0  0  0  0  0  0  0  0  # atno 8008 bound_to 7997
  156.0155  140.1242  157.0435 H   0  0  0  0  0  0  0  0  0  0  0  0  # atno 8009 bound_to 7997
  154.4296  140.1073  156.5875 H   0  0  0  0  0  0  0  0  0  0  0  0  # atno 8010 bound_to 7997
  139.4906  144.5826  151.6841 H   0  0  0  0  0  0  0  0  0  0  0  0  # atno 10167 bound_to 10162
  156.5733  130.4755  149.6353 H   0  0  0  0  0  0  0  0  0  0  0  0  # atno 10718 bound_to 10713
  154.6052  135.2858  155.0492 H   0  0  0  0  0  0  0  0  0  0  0  0  # atno 10763 bound_to 10752
  154.1742  135.6467  153.5021 H   0  0  0  0  0  0  0  0  0  0  0  0  # atno 10764 bound_to 10752
  153.0172  135.5408  154.6785 H   0  0  0  0  0  0  0  0  0  0  0  0  # atno 10765 bound_to 10752
  141.0919  133.6631  156.4010 H   0  0  0  0  0  0  0  0  0  0  0  0  # atno 11005 bound_to 11000
  146.3361  140.2602  142.8601 LP  0  0  0  0  0  0  0  0  0  0  0  0  # atno 17320 bound_to 7965
  144.9706  140.8365  143.5458 LP  0  0  0  0  0  0  0  0  0  0  0  0  # atno 17321 bound_to 7965
  140.5436  144.0540  150.6098 LP  0  0  0  0  0  0  0  0  0  0  0  0  # atno 17342 bound_to 10162
  140.3570  143.2930  152.0425 LP  0  0  0  0  0  0  0  0  0  0  0  0  # atno 17343 bound_to 10162
  156.2695  130.7009  151.1802 LP  0  0  0  0  0  0  0  0  0  0  0  0  # atno 17370 bound_to 10713
  157.7343  131.0583  150.5531 LP  0  0  0  0  0  0  0  0  0  0  0  0  # atno 17371 bound_to 10713
  140.5232  134.6284  157.5325 LP  0  0  0  0  0  0  0  0  0  0  0  0  # atno 17394 bound_to 11000
  139.9747  134.7235  155.9973 LP  0  0  0  0  0  0  0  0  0  0  0  0  # atno 17395 bound_to 11000

$$$$
