AV-unprocessed.smi:3287|AV-procd|sdf|12602|dock5
  -GOLD-   2272018533D 1   1.00000     0.00000
 Structure written by MMmdl.
 43 44  0  0  0  0  0  0  0  0  2 V2000
  150.2341  141.9002  156.4481 C   0  0  0  0  0  0  0  0  0  0  0  0
  149.8166  141.1002  155.2032 C   0  0  2  0  0  0  0  0  0  0  0  0
  148.3777  141.4331  154.7628 C   0  0  0  0  0  0  0  0  0  0  0  0
  148.0024  140.6946  153.4687 C   0  0  0  0  0  0  0  0  0  0  0  0
  148.1835  139.1727  153.6069 C   0  0  1  0  0  0  0  0  0  0  0  0
  147.8466  138.5129  152.3263 N   0  3  0  0  0  0  0  0  0  0  0  0
  146.4007  138.3593  152.0546 C   0  0  0  0  0  0  0  0  0  0  0  0
  145.7238  137.4617  153.1051 C   0  0  1  0  0  0  0  0  0  0  0  0
  144.6636  138.1813  153.7040 O   0  0  0  0  0  0  0  0  0  0  0  0
  145.2404  136.1598  152.4854 C   0  0  0  0  0  0  0  0  0  0  0  0
  145.4500  135.8791  151.1178 C   0  0  0  0  0  0  0  0  0  0  0  0
  144.9853  134.6525  150.6024 C   0  0  0  0  0  0  0  0  0  0  0  0
  144.3490  133.7274  151.3519 N   0  0  0  0  0  0  0  0  0  0  0  0
  144.1522  134.0001  152.6592 C   0  0  0  0  0  0  0  0  0  0  0  0
  144.5776  135.1953  153.2732 C   0  0  0  0  0  0  0  0  0  0  0  0
  149.6268  138.8456  154.0522 C   0  0  0  0  0  0  0  0  0  0  0  0
  150.0261  139.5715  155.3547 C   0  0  2  0  0  0  0  0  0  0  0  0
  149.3287  138.9562  156.5851 C   0  0  0  0  0  0  0  0  0  0  0  0
  149.5739  141.7078  157.2938 H   0  0  0  0  0  0  0  0  0  0  0  0
  150.2032  142.9720  156.2498 H   0  0  0  0  0  0  0  0  0  0  0  0
  151.2517  141.6531  156.7519 H   0  0  0  0  0  0  0  0  0  0  0  0
  150.4769  141.4279  154.3983 H   0  0  0  0  0  0  0  0  0  0  0  0
  147.6714  141.1753  155.5526 H   0  0  0  0  0  0  0  0  0  0  0  0
  148.2777  142.5078  154.6060 H   0  0  0  0  0  0  0  0  0  0  0  0
  146.9698  140.9254  153.2043 H   0  0  0  0  0  0  0  0  0  0  0  0
  148.6200  141.0678  152.6502 H   0  0  0  0  0  0  0  0  0  0  0  0
  147.4797  138.8172  154.3606 H   0  0  0  0  0  0  0  0  0  0  0  0
  148.2338  139.0734  151.5808 H   0  0  0  0  0  0  0  0  0  0  0  0
  145.9155  139.3352  152.0288 H   0  0  0  0  0  0  0  0  0  0  0  0
  146.2795  137.9161  151.0652 H   0  0  0  0  0  0  0  0  0  0  0  0
  146.4414  137.2238  153.8917 H   0  0  0  0  0  0  0  0  0  0  0  0
  144.5183  138.9711  153.2046 H   0  0  0  0  0  0  0  0  0  0  0  0
  145.9557  136.5837  150.4737 H   0  0  0  0  0  0  0  0  0  0  0  0
  145.1303  134.4079  149.5605 H   0  0  0  0  0  0  0  0  0  0  0  0
  143.6411  133.2422  153.2346 H   0  0  0  0  0  0  0  0  0  0  0  0
  144.3959  135.3618  154.3249 H   0  0  0  0  0  0  0  0  0  0  0  0
  149.7581  137.7719  154.1861 H   0  0  0  0  0  0  0  0  0  0  0  0
  150.3190  139.1347  153.2599 H   0  0  0  0  0  0  0  0  0  0  0  0
  151.0948  139.4023  155.4949 H   0  0  0  0  0  0  0  0  0  0  0  0
  148.2526  139.1262  156.5784 H   0  0  0  0  0  0  0  0  0  0  0  0
  149.7220  139.3678  157.5144 H   0  0  0  0  0  0  0  0  0  0  0  0
  149.4899  137.8786  156.6249 H   0  0  0  0  0  0  0  0  0  0  0  0
  148.2844  137.6026  152.3003 H   0  0  0  0  0  0  0  0  0  0  0  0
  1  2  1  0  0  0  0
  1 19  1  0  0  0  0
  1 20  1  0  0  0  0
  1 21  1  0  0  0  0
  2 17  1  0  0  0  0
  2  3  1  0  0  0  0
  2 22  1  0  0  0  0
  3  4  1  0  0  0  0
  3 23  1  0  0  0  0
  3 24  1  0  0  0  0
  4  5  1  0  0  0  0
  4 25  1  0  0  0  0
  4 26  1  0  0  0  0
  5  6  1  0  0  0  0
  5 16  1  0  0  0  0
  5 27  1  0  0  0  0
  6  7  1  0  0  0  0
  6 28  1  0  0  0  0
  6 43  1  0  0  0  0
  7  8  1  0  0  0  0
  7 29  1  0  0  0  0
  7 30  1  0  0  0  0
  8  9  1  0  0  0  0
  8 10  1  0  0  0  0
  8 31  1  0  0  0  0
  9 32  1  0  0  0  0
 10 15  1  0  0  0  0
 10 11  2  0  0  0  0
 11 12  1  0  0  0  0
 11 33  1  0  0  0  0
 12 13  2  0  0  0  0
 12 34  1  0  0  0  0
 13 14  1  0  0  0  0
 14 15  2  0  0  0  0
 14 35  1  0  0  0  0
 15 36  1  0  0  0  0
 16 17  1  0  0  0  0
 16 37  1  0  0  0  0
 16 38  1  0  0  0  0
 17 18  1  0  0  0  0
 17 39  1  0  0  0  0
 18 40  1  0  0  0  0
 18 41  1  0  0  0  0
 18 42  1  0  0  0  0
M  CHG  1   6   1
M  END
> <s_m_source_file>
AV-unprocessed.smi

> <i_m_source_file_index>
3287

> <i_lp_mmshare_version>
43012

> <i_f3d_flags>
0

> <s_epik_input>
W0NIM11bQ0BASF0xW0NIMl1bQ0gyXVtDQEhdKFtDSDJdW0NASF0xW0NIM10pW05IXVtDSDJdW0NASF0oW09IXSljMltjSF1bY0hdbltjSF1bY0hdMg==

> <s_epik_cmdline>
J2VwaWtfcHl0aG9uJywgJy1waCcsICc3LjAnLCAnLXRuJywgJzgnLCAnLW1hJywgJzIwMCcsICctbWV0YWxfYmluZGluZycsICctaW1hZScsICc8aW5maWxlLm1hZT4nLCAnLW9tYWUnLCAnPG91dGZpbGUubWFlPic=

> <r_lp_tautomer_probability>
1

> <r_epik_Ionization_Penalty>
0.00537262

> <r_epik_Ionization_Penalty_Charging>
0.00321624

> <r_epik_Ionization_Penalty_Neutral>
0.00215638

> <r_epik_State_Penalty>
-0

> <r_epik_Charging_Adjusted_Penalty>
0.00321624

> <i_epik_Tot_Q>
1

> <i_epik_Tot_abs_Q>
1

> <r_epik_Metal_State_Penalty>
-0

> <b_epik_Metal_Only>
0

> <s_lp_Force_Field>
OPLS_2005

> <r_lp_Energy>
17.6896

> <b_lp_Chiralities_Consistent>
1

> <s_lp_Variant>
AV-unprocessed.smi:3287-13

> <Gold.Version>
5.8.1

> <Gold.Id.Protein>
6NUR|6NUR_protein|mol2

> <Gold.PLP.Fitness>
47.7148

> <Gold.PLP.PLP>
-31.5532

> <Gold.PLP.part.hbond>
-2.8572

> <Gold.PLP.part.metal>
0.0000

> <Gold.PLP.part.buried>
0.1944

> <Gold.PLP.part.nonpolar>
-30.3175

> <Gold.PLP.part.repulsive>
0.2374

> <Gold.PLP.ligand.clash>
0.0000

> <Gold.PLP.ligand.torsion>
0.9251

> <Gold.PLP.Chemscore.Hbond>
4.0000

> <Gold.PLP.Chemscore.CHOScore>
1.9994

> <Gold.PLP.Chemscore.Metal>
0.0000

> <Gold.Chemscore.Hbonds>
donor molecule, donor type, donor heavy atom, donor atom, acceptor molecule, acceptor atom, score
      L1  H     6    28       P1  7957  0.88
      L1  H     6    43       P1  7948  2.00
      L1  H     9    32       P1 10175  1.00
      L1  C    12    34       P1  7921  1.00
      L1  C    14    35       P1 10957  1.00

> <Gold.PLP.Chemscore.Internal.Correction>
0.0133

> <Gold.Rescore>
     Score         DG    S(hbond)    S(metal)    S(lipo)     H(rot)  DE(clash)    DE(int)     intcor
     18.82     -19.83       2.94        0.00      80.50       1.90       0.04       0.97       ----

> <Gold.Chemscore.Fitness>
18.8172

> <Gold.Chemscore.DG>
-19.8304

> <Gold.Chemscore.ZeroCoef>
-5.4800

> <Gold.Chemscore.Hbond>
2.9356

> <Gold.Chemscore.Metal>
0.0000

> <Gold.Chemscore.Lipo>
80.4998

> <Gold.Chemscore.Internal_Hbond>
0.0000

> <Gold.Chemscore.DEClash>
0.0387

> <Gold.Chemscore.DEInternal>
0.9745

> <Gold.Chemscore.Rot>
1.9035

> <Gold.Chemscore.Internal.Correction>
   9.000000E+99

> <Gold.Chemscore.Hbonds>
donor molecule, donor type, donor heavy atom, donor atom, acceptor molecule, acceptor atom, score
      L1  H     6    28       P1  7957  0.74
      L1  H     6    43       P1  7948  0.97
      L1  H     9    32       P1 10175  1.00

> <Gold.Chemscore.Hbond.Weighted>
-9.8048

> <Gold.Chemscore.Metal.Weighted>
-0.0000

> <Gold.Chemscore.Lipo.Weighted>
-9.4185

> <Gold.Chemscore.Internal_Hbond.Weighted>
0.0000

> <Gold.Chemscore.DEClash.Weighted>
0.0387

> <Gold.Chemscore.DEInternal.Weighted>
0.9745

> <Gold.Chemscore.Rot.Weighted>
4.8729

> <Gold.Chemscore.Internal.Correction.Weighted>
   9.000000E+99

> <Gold.Protein.RotatedTorsions>
[ 6907 6896 6895 6894 ] final   79.59 input  -60.11 | X-H torsion
[ 7974 7965 7964 7962 ] final  -46.44 input  175.53 | X-H torsion
[ 8008 7997 7996 7995 ] final  127.64 input   59.86 | X-H torsion
[ 10167 10162 10161 10158 ] final  116.36 input  -65.29 | X-H torsion
[ 10718 10713 10712 10709 ] final  -93.08 input   66.30 | X-H torsion
[ 10763 10752 10751 10750 ] final  173.69 input  -60.55 | X-H torsion
[ 11005 11000 10999 10996 ] final -137.32 input  -57.11 | X-H torsion

> <Gold.Protein.ActiveResidues>
 VAL166  LYS551  ARG553  GLY616  TRP617  ASP618  TYR619  PRO620  LYS621  CYS622 
 ASP623  PHE694  ASN695  SER759  ASP760  ASP761  ALA762  ILE779  LEU786  VAL792 
 PHE793  MET794  SER795  GLU796  ALA797  LYS798  CYS799  TRP800  GLU811  SER814 

> <Gold.Protein.RotatedAtoms>
  152.5204  134.3488  159.9243 H   0  0  0  0  0  0  0  0  0  0  0  0  # atno 6907 bound_to 6896
  151.3438  133.3945  159.2681 H   0  0  0  0  0  0  0  0  0  0  0  0  # atno 6908 bound_to 6896
  150.9782  134.9160  159.7886 H   0  0  0  0  0  0  0  0  0  0  0  0  # atno 6909 bound_to 6896
  145.9719  140.7374  142.9406 H   0  0  0  0  0  0  0  0  0  0  0  0  # atno 7974 bound_to 7965
  156.2896  140.2664  156.2305 H   0  0  0  0  0  0  0  0  0  0  0  0  # atno 8008 bound_to 7997
  155.0077  140.0387  157.2404 H   0  0  0  0  0  0  0  0  0  0  0  0  # atno 8009 bound_to 7997
  154.7546  140.2749  155.6269 H   0  0  0  0  0  0  0  0  0  0  0  0  # atno 8010 bound_to 7997
  139.6252  144.7107  151.2548 H   0  0  0  0  0  0  0  0  0  0  0  0  # atno 10167 bound_to 10162
  156.0009  130.5013  150.5723 H   0  0  0  0  0  0  0  0  0  0  0  0  # atno 10718 bound_to 10713
  154.4436  135.2763  155.1830 H   0  0  0  0  0  0  0  0  0  0  0  0  # atno 10763 bound_to 10752
  154.3687  135.6113  153.5732 H   0  0  0  0  0  0  0  0  0  0  0  0  # atno 10764 bound_to 10752
  152.9842  135.5852  154.4768 H   0  0  0  0  0  0  0  0  0  0  0  0  # atno 10765 bound_to 10752
  140.8722  134.2036  157.4644 H   0  0  0  0  0  0  0  0  0  0  0  0  # atno 11005 bound_to 11000
  144.6839  140.2763  143.7298 LP  0  0  0  0  0  0  0  0  0  0  0  0  # atno 17320 bound_to 7965
  145.7894  139.1921  143.2111 LP  0  0  0  0  0  0  0  0  0  0  0  0  # atno 17321 bound_to 7965
  140.7407  143.6581  150.8189 LP  0  0  0  0  0  0  0  0  0  0  0  0  # atno 17342 bound_to 10162
  140.0198  143.5555  152.2805 LP  0  0  0  0  0  0  0  0  0  0  0  0  # atno 17343 bound_to 10162
  157.3616  131.0751  151.1632 LP  0  0  0  0  0  0  0  0  0  0  0  0  # atno 17370 bound_to 10713
  157.2415  130.6571  149.5891 LP  0  0  0  0  0  0  0  0  0  0  0  0  # atno 17371 bound_to 10713
  139.8713  134.9779  156.4978 LP  0  0  0  0  0  0  0  0  0  0  0  0  # atno 17394 bound_to 11000
  140.8560  133.8096  155.9216 LP  0  0  0  0  0  0  0  0  0  0  0  0  # atno 17395 bound_to 11000

$$$$
