AV-unprocessed.smi:941|AV-procd|sdf|4220|dock1
  -GOLD-   22720 2133D 1   1.00000     0.00000
 Structure written by MMmdl.
 18 18  0  0  0  0  0  0  0  0  2 V2000
  142.1072  132.5385  148.1160 N   0  3  0  0  0  0  0  0  0  0  0  0
  143.5492  132.5961  148.4102 C   0  0  0  0  0  0  0  0  0  0  0  0
  143.8164  132.5451  149.9203 C   0  0  0  0  0  0  0  0  0  0  0  0
  144.6398  133.6978  150.3885 C   0  0  0  0  0  0  0  0  0  0  0  0
  144.3878  134.9910  150.2021 N   0  0  0  0  0  0  0  0  0  0  0  0
  145.4173  135.5571  150.8874 C   0  0  0  0  0  0  0  0  0  0  0  0
  145.5649  136.9519  150.9554 N   0  0  0  0  0  0  0  0  0  0  0  0
  146.2533  134.7160  151.4814 N   0  0  0  0  0  0  0  0  0  0  0  0
  145.7273  133.4565  151.1592 O   0  0  0  0  0  0  0  0  0  0  0  0
  141.9557  132.7365  147.1369 H   0  0  0  0  0  0  0  0  0  0  0  0
  141.6197  133.2234  148.6759 H   0  0  0  0  0  0  0  0  0  0  0  0
  144.0419  131.7615  147.9097 H   0  0  0  0  0  0  0  0  0  0  0  0
  143.9569  133.5134  147.9846 H   0  0  0  0  0  0  0  0  0  0  0  0
  142.8748  132.5448  150.4710 H   0  0  0  0  0  0  0  0  0  0  0  0
  144.3332  131.6208  150.1819 H   0  0  0  0  0  0  0  0  0  0  0  0
  144.9029  137.5579  150.4924 H   0  0  0  0  0  0  0  0  0  0  0  0
  146.3081  137.3605  151.5035 H   0  0  0  0  0  0  0  0  0  0  0  0
  141.7546  131.6162  148.3297 H   0  0  0  0  0  0  0  0  0  0  0  0
  1  2  1  0  0  0  0
  1 10  1  0  0  0  0
  1 11  1  0  0  0  0
  1 18  1  0  0  0  0
  2  3  1  0  0  0  0
  2 12  1  0  0  0  0
  2 13  1  0  0  0  0
  3  4  1  0  0  0  0
  3 14  1  0  0  0  0
  3 15  1  0  0  0  0
  4  9  1  0  0  0  0
  4  5  2  0  0  0  0
  5  6  1  0  0  0  0
  6  7  1  0  0  0  0
  6  8  2  0  0  0  0
  7 16  1  0  0  0  0
  7 17  1  0  0  0  0
  8  9  1  0  0  0  0
M  CHG  1   1   1
M  END
> <s_m_source_file>
AV-unprocessed.smi

> <i_m_source_file_index>
941

> <i_lp_mmshare_version>
43012

> <i_f3d_flags>
0

> <s_epik_input>
W05IMl1bQ0gyXVtDSDJdYzFuYyhbTkgyXSlubzE=

> <s_epik_cmdline>
J2VwaWtfcHl0aG9uJywgJy1waCcsICc3LjAnLCAnLXRuJywgJzgnLCAnLW1hJywgJzIwMCcsICctbWV0YWxfYmluZGluZycsICctaW1hZScsICc8aW5maWxlLm1hZT4nLCAnLW9tYWUnLCAnPG91dGZpbGUubWFlPic=

> <r_epik_Ionization_Penalty>
0.00605592

> <r_epik_Ionization_Penalty_Charging>
0.00601069

> <r_epik_Ionization_Penalty_Neutral>
4.52271e-05

> <r_epik_State_Penalty>
0.00442499

> <r_epik_Charging_Adjusted_Penalty>
0.0104357

> <i_epik_Tot_Q>
1

> <i_epik_Tot_abs_Q>
1

> <r_epik_Metal_State_Penalty>
-0

> <b_epik_Metal_Only>
0

> <s_lp_Force_Field>
OPLS_2005

> <r_lp_Energy>
-1.60622

> <b_lp_Chiralities_Consistent>
1

> <s_lp_Variant>
AV-unprocessed.smi:941-1

> <Gold.Version>
5.8.1

> <Gold.Id.Protein>
6NUR|6NUR_protein|mol2

> <Gold.PLP.Fitness>
34.4139

> <Gold.PLP.PLP>
-20.2686

> <Gold.PLP.part.hbond>
-4.0000

> <Gold.PLP.part.metal>
0.0000

> <Gold.PLP.part.buried>
-5.7993

> <Gold.PLP.part.nonpolar>
-12.7922

> <Gold.PLP.part.repulsive>
1.1395

> <Gold.PLP.ligand.clash>
0.0000

> <Gold.PLP.ligand.torsion>
0.4323

> <Gold.PLP.Chemscore.Hbond>
5.0000

> <Gold.PLP.Chemscore.CHOScore>
0.0000

> <Gold.PLP.Chemscore.Metal>
0.0000

> <Gold.Chemscore.Hbonds>
donor molecule, donor type, donor heavy atom, donor atom, acceptor molecule, acceptor atom, score
      L1  H     1    10       P1 10195  1.00
      L1  H     1    11       P1 10186  2.00
      L1  H     1    18       P1 10952  1.00
      L1  H     7    16       P1 10171  1.00

> <Gold.PLP.Chemscore.Internal.Correction>
0.0099

> <Gold.Rescore>
     Score         DG    S(hbond)    S(metal)    S(lipo)     H(rot)  DE(clash)    DE(int)     intcor
     16.86     -17.45       3.97        0.00      25.62       1.67       0.17       0.42       ----

> <Gold.Chemscore.Fitness>
16.8585

> <Gold.Chemscore.DG>
-17.4528

> <Gold.Chemscore.ZeroCoef>
-5.4800

> <Gold.Chemscore.Hbond>
3.9707

> <Gold.Chemscore.Metal>
0.0000

> <Gold.Chemscore.Lipo>
25.6235

> <Gold.Chemscore.Internal_Hbond>
0.0000

> <Gold.Chemscore.DEClash>
0.1696

> <Gold.Chemscore.DEInternal>
0.4248

> <Gold.Chemscore.Rot>
1.6747

> <Gold.Chemscore.Internal.Correction>
   9.000000E+99

> <Gold.Chemscore.Hbonds>
donor molecule, donor type, donor heavy atom, donor atom, acceptor molecule, acceptor atom, score
      L1  H     1    10       P1 10195  0.98
      L1  H     1    11       P1 10186  0.97
      L1  H     1    18       P1 10952  0.93
      L1  H     7    16       P1 10171  0.99

> <Gold.Chemscore.Hbond.Weighted>
-13.2620

> <Gold.Chemscore.Metal.Weighted>
-0.0000

> <Gold.Chemscore.Lipo.Weighted>
-2.9979

> <Gold.Chemscore.Internal_Hbond.Weighted>
0.0000

> <Gold.Chemscore.DEClash.Weighted>
0.1696

> <Gold.Chemscore.DEInternal.Weighted>
0.4248

> <Gold.Chemscore.Rot.Weighted>
4.2872

> <Gold.Chemscore.Internal.Correction.Weighted>
   9.000000E+99

> <Gold.Protein.RotatedTorsions>
[ 6907 6896 6895 6894 ] final  101.40 input  -60.11 | X-H torsion
[ 7974 7965 7964 7962 ] final -121.46 input  175.53 | X-H torsion
[ 8008 7997 7996 7995 ] final -145.64 input   59.86 | X-H torsion
[ 10167 10162 10161 10158 ] final  106.00 input  -65.29 | X-H torsion
[ 10718 10713 10712 10709 ] final   20.19 input   66.30 | X-H torsion
[ 10763 10752 10751 10750 ] final -132.45 input  -60.55 | X-H torsion
[ 11005 11000 10999 10996 ] final -152.86 input  -57.11 | X-H torsion

> <Gold.Protein.ActiveResidues>
 VAL166  LYS551  ARG553  GLY616  TRP617  ASP618  TYR619  PRO620  LYS621  CYS622 
 ASP623  PHE694  ASN695  SER759  ASP760  ASP761  ALA762  ILE779  LEU786  VAL792 
 PHE793  MET794  SER795  GLU796  ALA797  LYS798  CYS799  TRP800  GLU811  SER814 

> <Gold.Protein.RotatedAtoms>
  152.5350  134.0132  159.7947 H   0  0  0  0  0  0  0  0  0  0  0  0  # atno 6907 bound_to 6896
  151.0331  133.5765  159.2666 H   0  0  0  0  0  0  0  0  0  0  0  0  # atno 6908 bound_to 6896
  151.2762  135.0707  159.9206 H   0  0  0  0  0  0  0  0  0  0  0  0  # atno 6909 bound_to 6896
  145.0401  140.8138  143.4271 H   0  0  0  0  0  0  0  0  0  0  0  0  # atno 7974 bound_to 7965
  155.5464  140.0612  157.2859 H   0  0  0  0  0  0  0  0  0  0  0  0  # atno 8008 bound_to 7997
  154.4435  140.1910  156.0686 H   0  0  0  0  0  0  0  0  0  0  0  0  # atno 8009 bound_to 7997
  156.0548  140.3280  155.7396 H   0  0  0  0  0  0  0  0  0  0  0  0  # atno 8010 bound_to 7997
  139.7046  144.7088  151.1129 H   0  0  0  0  0  0  0  0  0  0  0  0  # atno 10167 bound_to 10162
  157.1209  130.6549  149.5924 H   0  0  0  0  0  0  0  0  0  0  0  0  # atno 10718 bound_to 10713
  154.8743  135.3797  154.4412 H   0  0  0  0  0  0  0  0  0  0  0  0  # atno 10763 bound_to 10752
  153.5097  135.7030  153.5793 H   0  0  0  0  0  0  0  0  0  0  0  0  # atno 10764 bound_to 10752
  153.4088  135.3930  155.2002 H   0  0  0  0  0  0  0  0  0  0  0  0  # atno 10765 bound_to 10752
  140.7143  134.3798  157.5193 H   0  0  0  0  0  0  0  0  0  0  0  0  # atno 11005 bound_to 11000
  145.1658  139.2432  143.5367 LP  0  0  0  0  0  0  0  0  0  0  0  0  # atno 17320 bound_to 7965
  146.3508  140.1397  142.8595 LP  0  0  0  0  0  0  0  0  0  0  0  0  # atno 17321 bound_to 7965
  140.7718  143.5377  150.9349 LP  0  0  0  0  0  0  0  0  0  0  0  0  # atno 17342 bound_to 10162
  139.9060  143.6778  152.3123 LP  0  0  0  0  0  0  0  0  0  0  0  0  # atno 17343 bound_to 10162
  155.9829  130.4845  150.6903 LP  0  0  0  0  0  0  0  0  0  0  0  0  # atno 17370 bound_to 10713
  157.4477  131.0869  151.0879 LP  0  0  0  0  0  0  0  0  0  0  0  0  # atno 17371 bound_to 10713
  139.8864  134.8911  156.2589 LP  0  0  0  0  0  0  0  0  0  0  0  0  # atno 17394 bound_to 11000
  141.0058  133.7125  156.1032 LP  0  0  0  0  0  0  0  0  0  0  0  0  # atno 17395 bound_to 11000

$$$$
