AV-unprocessed.smi:691|AV-procd|sdf|3367|dock3
  -GOLD-   22720 0343D 1   1.00000     0.00000
 Structure written by MMmdl.
 37 38  0  0  0  0  0  0  0  0  1 V2000
  149.4393  140.5306  154.3220 C   0  0  0  0  0  0  0  0  0  0  0  0
  147.9059  140.7309  154.3704 C   0  0  2  0  0  0  0  0  0  0  0  0
  147.2026  139.4025  153.9826 C   0  0  0  0  0  0  0  0  0  0  0  0
  147.6192  138.9294  152.7172 O   0  0  0  0  0  0  0  0  0  0  0  0
  147.4692  141.8340  153.3892 C   0  0  0  0  0  0  0  0  0  0  0  0
  146.1122  142.3395  153.8903 C   0  0  0  0  0  0  0  0  0  0  0  0
  146.0564  142.0011  155.3859 C   0  0  0  0  0  0  0  0  0  0  0  0
  147.3680  141.2706  155.7244 C   0  0  2  0  0  0  0  0  0  0  0  0
  148.2935  142.2146  156.3569 N   0  0  0  0  0  0  0  0  0  0  0  0
  149.1703  141.9302  157.3308 C   0  0  0  0  0  0  0  0  0  0  0  0
  149.2996  140.8131  157.8303 O   0  0  0  0  0  0  0  0  0  0  0  0
  149.8629  143.0253  157.6882 N   0  0  0  0  0  0  0  0  0  0  0  0
  150.8832  143.1482  158.6701 C   0  0  0  0  0  0  0  0  0  0  0  0
  151.0889  144.4156  159.2529 C   0  0  0  0  0  0  0  0  0  0  0  0
  152.1040  144.5725  160.2157 C   0  0  0  0  0  0  0  0  0  0  0  0
  152.8851  143.4508  160.5537 C   0  0  0  0  0  0  0  0  0  0  0  0
  152.7127  142.2342  159.9956 N   0  0  0  0  0  0  0  0  0  0  0  0
  151.7355  142.0901  159.0740 C   0  0  0  0  0  0  0  0  0  0  0  0
  149.7493  140.1109  153.3646 H   0  0  0  0  0  0  0  0  0  0  0  0
  149.7766  139.8505  155.1049 H   0  0  0  0  0  0  0  0  0  0  0  0
  149.9829  141.4672  154.4488 H   0  0  0  0  0  0  0  0  0  0  0  0
  147.3964  138.6202  154.7168 H   0  0  0  0  0  0  0  0  0  0  0  0
  146.1210  139.5394  153.9531 H   0  0  0  0  0  0  0  0  0  0  0  0
  148.2422  139.5420  152.3568 H   0  0  0  0  0  0  0  0  0  0  0  0
  148.1806  142.6607  153.4211 H   0  0  0  0  0  0  0  0  0  0  0  0
  147.4277  141.4930  152.3541 H   0  0  0  0  0  0  0  0  0  0  0  0
  145.9956  143.4087  153.7103 H   0  0  0  0  0  0  0  0  0  0  0  0
  145.3021  141.8318  153.3653 H   0  0  0  0  0  0  0  0  0  0  0  0
  145.9051  142.8915  155.9982 H   0  0  0  0  0  0  0  0  0  0  0  0
  145.2075  141.3430  155.5761 H   0  0  0  0  0  0  0  0  0  0  0  0
  147.1582  140.4503  156.4125 H   0  0  0  0  0  0  0  0  0  0  0  0
  148.2629  143.1643  156.0166 H   0  0  0  0  0  0  0  0  0  0  0  0
  149.5886  143.8876  157.2407 H   0  0  0  0  0  0  0  0  0  0  0  0
  150.4752  145.2586  158.9703 H   0  0  0  0  0  0  0  0  0  0  0  0
  152.2806  145.5300  160.6832 H   0  0  0  0  0  0  0  0  0  0  0  0
  153.6729  143.5346  161.2877 H   0  0  0  0  0  0  0  0  0  0  0  0
  151.6641  141.1024  158.6464 H   0  0  0  0  0  0  0  0  0  0  0  0
  1  2  1  0  0  0  0
  1 19  1  0  0  0  0
  1 20  1  0  0  0  0
  1 21  1  0  0  0  0
  2  8  1  0  0  0  0
  2  3  1  0  0  0  0
  2  5  1  0  0  0  0
  3  4  1  0  0  0  0
  3 22  1  0  0  0  0
  3 23  1  0  0  0  0
  4 24  1  0  0  0  0
  5  6  1  0  0  0  0
  5 25  1  0  0  0  0
  5 26  1  0  0  0  0
  6  7  1  0  0  0  0
  6 27  1  0  0  0  0
  6 28  1  0  0  0  0
  7  8  1  0  0  0  0
  7 29  1  0  0  0  0
  7 30  1  0  0  0  0
  8  9  1  0  0  0  0
  8 31  1  0  0  0  0
  9 10  1  0  0  0  0
  9 32  1  0  0  0  0
 10 11  2  0  0  0  0
 10 12  1  0  0  0  0
 12 13  1  0  0  0  0
 12 33  1  0  0  0  0
 13 18  1  0  0  0  0
 13 14  2  0  0  0  0
 14 15  1  0  0  0  0
 14 34  1  0  0  0  0
 15 16  2  0  0  0  0
 15 35  1  0  0  0  0
 16 17  1  0  0  0  0
 16 36  1  0  0  0  0
 17 18  2  0  0  0  0
 18 37  1  0  0  0  0
M  END
> <s_m_source_file>
AV-unprocessed.smi

> <i_m_source_file_index>
691

> <i_lp_mmshare_version>
43012

> <i_f3d_flags>
0

> <s_epik_input>
W09IXVtDSDJdW0NAXTEoW0NIM10pW0NIMl1bQ0gyXVtDSDJdW0NASF0xW05IXUMoPU8pW05IXWMyW2NIXVtjSF1bY0hdbltjSF0y

> <s_epik_cmdline>
J2VwaWtfcHl0aG9uJywgJy1waCcsICc3LjAnLCAnLXRuJywgJzgnLCAnLW1hJywgJzIwMCcsICctbWV0YWxfYmluZGluZycsICctaW1hZScsICc8aW5maWxlLm1hZT4nLCAnLW9tYWUnLCAnPG91dGZpbGUubWFlPic=

> <r_epik_Ionization_Penalty>
0.00496828

> <r_epik_Ionization_Penalty_Charging>
0

> <r_epik_Ionization_Penalty_Neutral>
0.00496828

> <r_epik_State_Penalty>
0.00358054

> <r_epik_Charging_Adjusted_Penalty>
0.00358054

> <i_epik_Tot_Q>
0

> <i_epik_Tot_abs_Q>
0

> <r_epik_Metal_State_Penalty>
-0

> <b_epik_Metal_Only>
0

> <s_lp_Force_Field>
OPLS_2005

> <r_lp_Energy>
30.6456

> <b_lp_Chiralities_Consistent>
1

> <s_lp_Variant>
AV-unprocessed.smi:691-4

> <Gold.Version>
5.8.1

> <Gold.Id.Protein>
6NUR|6NUR_protein|mol2

> <Gold.PLP.Fitness>
42.0052

> <Gold.PLP.PLP>
-33.9705

> <Gold.PLP.part.hbond>
-4.0000

> <Gold.PLP.part.metal>
0.0000

> <Gold.PLP.part.buried>
-5.2323

> <Gold.PLP.part.nonpolar>
-23.6532

> <Gold.PLP.part.repulsive>
0.0817

> <Gold.PLP.ligand.clash>
0.0000

> <Gold.PLP.ligand.torsion>
0.4851

> <Gold.PLP.Chemscore.Hbond>
2.9920

> <Gold.PLP.Chemscore.CHOScore>
0.0000

> <Gold.PLP.Chemscore.Metal>
0.0000

> <Gold.Chemscore.Hbonds>
donor molecule, donor type, donor heavy atom, donor atom, acceptor molecule, acceptor atom, score
      L1  H     4    24       P1  7957  1.00
      L1  H     9    32       P1  8028  1.00
      L1  H    12    33       P1  8028  0.96

> <Gold.PLP.Chemscore.Internal.Correction>
0.0289

> <Gold.Rescore>
     Score         DG    S(hbond)    S(metal)    S(lipo)     H(rot)  DE(clash)    DE(int)     intcor
     19.61     -21.08       2.83        0.00      91.62       1.78       0.83       0.64       ----

> <Gold.Chemscore.Fitness>
19.6066

> <Gold.Chemscore.DG>
-21.0780

> <Gold.Chemscore.ZeroCoef>
-5.4800

> <Gold.Chemscore.Hbond>
2.8279

> <Gold.Chemscore.Metal>
0.0000

> <Gold.Chemscore.Lipo>
91.6199

> <Gold.Chemscore.Internal_Hbond>
0.0000

> <Gold.Chemscore.DEClash>
0.8312

> <Gold.Chemscore.DEInternal>
0.6403

> <Gold.Chemscore.Rot>
1.7838

> <Gold.Chemscore.Internal.Correction>
   9.000000E+99

> <Gold.Chemscore.Hbonds>
donor molecule, donor type, donor heavy atom, donor atom, acceptor molecule, acceptor atom, score
      L1  H     4    24       P1  7957  0.96
      L1  H     9    32       P1  8028  0.78
      L1  H    12    33       P1  8028  0.60

> <Gold.Chemscore.Hbond.Weighted>
-9.4451

> <Gold.Chemscore.Metal.Weighted>
-0.0000

> <Gold.Chemscore.Lipo.Weighted>
-10.7195

> <Gold.Chemscore.Internal_Hbond.Weighted>
0.0000

> <Gold.Chemscore.DEClash.Weighted>
0.8312

> <Gold.Chemscore.DEInternal.Weighted>
0.6403

> <Gold.Chemscore.Rot.Weighted>
4.5666

> <Gold.Chemscore.Internal.Correction.Weighted>
   9.000000E+99

> <Gold.Protein.RotatedTorsions>
[ 6907 6896 6895 6894 ] final  -51.19 input  -60.11 | X-H torsion
[ 7974 7965 7964 7962 ] final  107.96 input  175.53 | X-H torsion
[ 8008 7997 7996 7995 ] final  164.50 input   59.86 | X-H torsion
[ 10167 10162 10161 10158 ] final  -19.70 input  -65.29 | X-H torsion
[ 10718 10713 10712 10709 ] final   40.38 input   66.30 | X-H torsion
[ 10763 10752 10751 10750 ] final   23.35 input  -60.55 | X-H torsion
[ 11005 11000 10999 10996 ] final  -81.59 input  -57.11 | X-H torsion

> <Gold.Protein.ActiveResidues>
 VAL166  LYS551  ARG553  GLY616  TRP617  ASP618  TYR619  PRO620  LYS621  CYS622 
 ASP623  PHE694  ASN695  SER759  ASP760  ASP761  ALA762  ILE779  LEU786  VAL792 
 PHE793  MET794  SER795  GLU796  ALA797  LYS798  CYS799  TRP800  GLU811  SER814 

> <Gold.Protein.RotatedAtoms>
  150.8635  134.7993  159.7100 H   0  0  0  0  0  0  0  0  0  0  0  0  # atno 6907 bound_to 6896
  152.4664  134.5061  159.9749 H   0  0  0  0  0  0  0  0  0  0  0  0  # atno 6908 bound_to 6896
  151.5161  133.3437  159.2929 H   0  0  0  0  0  0  0  0  0  0  0  0  # atno 6909 bound_to 6896
  145.2868  139.2614  143.3886 H   0  0  0  0  0  0  0  0  0  0  0  0  # atno 7974 bound_to 7965
  156.1875  140.1695  156.8157 H   0  0  0  0  0  0  0  0  0  0  0  0  # atno 8008 bound_to 7997
  154.5431  140.0732  156.8576 H   0  0  0  0  0  0  0  0  0  0  0  0  # atno 8009 bound_to 7997
  155.3175  140.3371  155.4244 H   0  0  0  0  0  0  0  0  0  0  0  0  # atno 8010 bound_to 7997
  140.7270  143.4793  151.0139 H   0  0  0  0  0  0  0  0  0  0  0  0  # atno 10167 bound_to 10162
  157.3815  130.7756  149.7197 H   0  0  0  0  0  0  0  0  0  0  0  0  # atno 10718 bound_to 10713
  153.0845  135.6629  153.9977 H   0  0  0  0  0  0  0  0  0  0  0  0  # atno 10763 bound_to 10752
  153.9590  135.2976  155.3436 H   0  0  0  0  0  0  0  0  0  0  0  0  # atno 10764 bound_to 10752
  154.7251  135.5148  153.8945 H   0  0  0  0  0  0  0  0  0  0  0  0  # atno 10765 bound_to 10752
  141.1666  133.7204  156.8445 H   0  0  0  0  0  0  0  0  0  0  0  0  # atno 11005 bound_to 11000
  146.3198  140.3349  142.8643 LP  0  0  0  0  0  0  0  0  0  0  0  0  # atno 17320 bound_to 7965
  144.9206  140.7864  143.5750 LP  0  0  0  0  0  0  0  0  0  0  0  0  # atno 17321 bound_to 7965
  139.8491  143.7462  152.3178 LP  0  0  0  0  0  0  0  0  0  0  0  0  # atno 17342 bound_to 10162
  139.7638  144.7498  151.0325 LP  0  0  0  0  0  0  0  0  0  0  0  0  # atno 17343 bound_to 10162
  155.9777  130.4060  150.3696 LP  0  0  0  0  0  0  0  0  0  0  0  0  # atno 17370 bound_to 10713
  157.1801  131.0390  151.2753 LP  0  0  0  0  0  0  0  0  0  0  0  0  # atno 17371 bound_to 10713
  140.1959  134.8932  157.3114 LP  0  0  0  0  0  0  0  0  0  0  0  0  # atno 17394 bound_to 11000
  140.2239  134.3990  155.7553 LP  0  0  0  0  0  0  0  0  0  0  0  0  # atno 17395 bound_to 11000

$$$$
