AV-unprocessed.smi:1680|AV-procd|sdf|6739|dock5
  -GOLD-   22720 7493D 1   1.00000     0.00000
 Structure written by MMmdl.
 37 38  0  0  0  0  0  0  0  0  2 V2000
  149.7084  144.5318  159.4948 C   0  0  0  0  0  0  0  0  0  0  0  0
  151.2260  144.5032  159.6885 C   0  0  0  0  0  0  0  0  0  0  0  0
  151.7334  145.3622  160.4100 O   0  0  0  0  0  0  0  0  0  0  0  0
  151.9539  143.5450  159.0677 N   0  0  0  0  0  0  0  0  0  0  0  0
  151.3590  142.4841  158.2507 C   0  0  0  0  0  0  0  0  0  0  0  0
  151.6172  141.1261  158.9319 C   0  0  0  0  0  0  0  0  0  0  0  0
  153.0573  140.9027  159.0879 N   0  0  0  0  0  0  0  0  0  0  0  0
  153.2817  139.5942  159.7028 C   0  0  0  0  0  0  0  0  0  0  0  0
  154.2900  138.7189  158.9299 C   0  0  0  0  0  0  0  0  0  0  0  0
  153.6871  138.1065  157.7489 N   0  0  0  0  0  0  0  0  0  0  0  0
  152.9281  137.0010  157.7290 C   0  0  0  0  0  0  0  0  0  0  0  0
  152.6759  136.4054  158.7790 O   0  0  0  0  0  0  0  0  0  0  0  0
  152.5054  136.6541  156.4917 N   0  5  0  0  0  0  0  0  0  0  0  0
  151.8865  137.5591  155.7157 C   0  0  0  0  0  0  0  0  0  0  0  0
  152.3337  138.8185  155.5850 N   0  0  0  0  0  0  0  0  0  0  0  0
  151.5481  139.5920  154.7410 N   0  0  0  0  0  0  0  0  0  0  0  0
  150.5191  138.8944  154.2604 C   0  0  0  0  0  0  0  0  0  0  0  0
  150.4132  137.2314  154.7983 S   0  0  0  0  0  0  0  0  0  0  0  0
  153.6508  141.9841  159.8835 C   0  0  0  0  0  0  0  0  0  0  0  0
  153.3999  143.3414  159.1995 C   0  0  0  0  0  0  0  0  0  0  0  0
  149.4553  144.6677  158.4430 H   0  0  0  0  0  0  0  0  0  0  0  0
  149.2650  145.3570  160.0531 H   0  0  0  0  0  0  0  0  0  0  0  0
  149.2563  143.6065  159.8528 H   0  0  0  0  0  0  0  0  0  0  0  0
  150.2870  142.6187  158.1011 H   0  0  0  0  0  0  0  0  0  0  0  0
  151.8050  142.4997  157.2551 H   0  0  0  0  0  0  0  0  0  0  0  0
  151.1239  141.0909  159.9046 H   0  0  0  0  0  0  0  0  0  0  0  0
  151.1880  140.3294  158.3234 H   0  0  0  0  0  0  0  0  0  0  0  0
  153.6117  139.7269  160.7341 H   0  0  0  0  0  0  0  0  0  0  0  0
  152.3351  139.0536  159.7504 H   0  0  0  0  0  0  0  0  0  0  0  0
  155.2024  139.2604  158.6803 H   0  0  0  0  0  0  0  0  0  0  0  0
  154.6086  137.9034  159.5791 H   0  0  0  0  0  0  0  0  0  0  0  0
  153.8671  138.5557  156.8632 H   0  0  0  0  0  0  0  0  0  0  0  0
  149.8155  139.3631  153.5886 H   0  0  0  0  0  0  0  0  0  0  0  0
  153.2316  141.9849  160.8908 H   0  0  0  0  0  0  0  0  0  0  0  0
  154.7250  141.8369  159.9834 H   0  0  0  0  0  0  0  0  0  0  0  0
  153.8570  143.3516  158.2086 H   0  0  0  0  0  0  0  0  0  0  0  0
  153.9020  144.1272  159.7615 H   0  0  0  0  0  0  0  0  0  0  0  0
  1  2  1  0  0  0  0
  1 21  1  0  0  0  0
  1 22  1  0  0  0  0
  1 23  1  0  0  0  0
  2  3  2  0  0  0  0
  2  4  1  0  0  0  0
  4 20  1  0  0  0  0
  4  5  1  0  0  0  0
  5  6  1  0  0  0  0
  5 24  1  0  0  0  0
  5 25  1  0  0  0  0
  6  7  1  0  0  0  0
  6 26  1  0  0  0  0
  6 27  1  0  0  0  0
  7  8  1  0  0  0  0
  7 19  1  0  0  0  0
  8  9  1  0  0  0  0
  8 28  1  0  0  0  0
  8 29  1  0  0  0  0
  9 10  1  0  0  0  0
  9 30  1  0  0  0  0
  9 31  1  0  0  0  0
 10 11  1  0  0  0  0
 10 32  1  0  0  0  0
 11 12  2  0  0  0  0
 11 13  1  0  0  0  0
 13 14  1  0  0  0  0
 14 18  1  0  0  0  0
 14 15  2  0  0  0  0
 15 16  1  0  0  0  0
 16 17  2  0  0  0  0
 17 18  1  0  0  0  0
 17 33  1  0  0  0  0
 19 20  1  0  0  0  0
 19 34  1  0  0  0  0
 19 35  1  0  0  0  0
 20 36  1  0  0  0  0
 20 37  1  0  0  0  0
M  CHG  1  13  -1
M  END
> <s_m_source_file>
AV-unprocessed.smi

> <i_m_source_file_index>
1680

> <i_lp_mmshare_version>
43012

> <i_f3d_flags>
0

> <s_epik_input>
W0NIM11DKD1PKU4xW0NIMl1bQ0gyXU4oW0NIMl1bQ0gyXTEpW0NIMl1bQ0gyXVtOSF1DKD1PKVtOSF1jMm5uW2NIXXMy

> <s_epik_cmdline>
J2VwaWtfcHl0aG9uJywgJy1waCcsICc3LjAnLCAnLXRuJywgJzgnLCAnLW1hJywgJzIwMCcsICctbWV0YWxfYmluZGluZycsICctaW1hZScsICc8aW5maWxlLm1hZT4nLCAnLW9tYWUnLCAnPG91dGZpbGUubWFlPic=

> <r_lp_tautomer_probability>
1

> <r_epik_Ionization_Penalty>
3.80493

> <r_epik_Ionization_Penalty_Charging>
3.53258

> <r_epik_Ionization_Penalty_Neutral>
0.272353

> <r_epik_State_Penalty>
3.75006

> <r_epik_Charging_Adjusted_Penalty>
7.28264

> <i_epik_Tot_Q>
-1

> <i_epik_Tot_abs_Q>
1

> <r_epik_Metal_State_Penalty>
0.749383

> <b_epik_Metal_Only>
1

> <s_lp_Force_Field>
OPLS_2005

> <r_lp_Energy>
35.6067

> <b_lp_Chiralities_Consistent>
1

> <s_lp_Variant>
AV-unprocessed.smi:1680-3

> <Gold.Version>
5.8.1

> <Gold.Id.Protein>
6NUR|6NUR_protein|mol2

> <Gold.PLP.Fitness>
45.3588

> <Gold.PLP.PLP>
-34.7008

> <Gold.PLP.part.hbond>
-3.0000

> <Gold.PLP.part.metal>
0.0000

> <Gold.PLP.part.buried>
-6.3578

> <Gold.PLP.part.nonpolar>
-25.7029

> <Gold.PLP.part.repulsive>
0.3777

> <Gold.PLP.ligand.clash>
0.0000

> <Gold.PLP.ligand.torsion>
1.7735

> <Gold.PLP.Chemscore.Hbond>
3.7200

> <Gold.PLP.Chemscore.CHOScore>
1.0000

> <Gold.PLP.Chemscore.Metal>
0.0000

> <Gold.Chemscore.Hbonds>
donor molecule, donor type, donor heavy atom, donor atom, acceptor molecule, acceptor atom, score
      P1  H  6896  6908       L1    12  0.72
      P1  H  7989  7998       L1    16  1.00
      P1  H 10752 10763       L1    13  2.00
      L1  C    17    33       P1  7957  1.00

> <Gold.PLP.Chemscore.Internal.Correction>
0.0450

> <Gold.Rescore>
     Score         DG    S(hbond)    S(metal)    S(lipo)     H(rot)  DE(clash)    DE(int)     intcor
     13.03     -16.75       2.36        0.00      67.68       1.77       0.36       3.36       ----

> <Gold.Chemscore.Fitness>
13.0261

> <Gold.Chemscore.DG>
-16.7490

> <Gold.Chemscore.ZeroCoef>
-5.4800

> <Gold.Chemscore.Hbond>
2.3564

> <Gold.Chemscore.Metal>
0.0000

> <Gold.Chemscore.Lipo>
67.6819

> <Gold.Chemscore.Internal_Hbond>
0.0000

> <Gold.Chemscore.DEClash>
0.3580

> <Gold.Chemscore.DEInternal>
3.3648

> <Gold.Chemscore.Rot>
1.7657

> <Gold.Chemscore.Internal.Correction>
   9.000000E+99

> <Gold.Chemscore.Hbonds>
donor molecule, donor type, donor heavy atom, donor atom, acceptor molecule, acceptor atom, score
      P1  H  6896  6908       L1    12  0.71
      P1  H  7989  7998       L1    16  0.25
      P1  H 10752 10763       L1    13  0.39

> <Gold.Chemscore.Hbond.Weighted>
-7.8704

> <Gold.Chemscore.Metal.Weighted>
-0.0000

> <Gold.Chemscore.Lipo.Weighted>
-7.9188

> <Gold.Chemscore.Internal_Hbond.Weighted>
0.0000

> <Gold.Chemscore.DEClash.Weighted>
0.3580

> <Gold.Chemscore.DEInternal.Weighted>
3.3648

> <Gold.Chemscore.Rot.Weighted>
4.5201

> <Gold.Chemscore.Internal.Correction.Weighted>
   9.000000E+99

> <Gold.Protein.RotatedTorsions>
[ 6907 6896 6895 6894 ] final  -96.90 input  -60.11 | X-H torsion
[ 7974 7965 7964 7962 ] final  111.80 input  175.53 | X-H torsion
[ 8008 7997 7996 7995 ] final  -80.89 input   59.86 | X-H torsion
[ 10167 10162 10161 10158 ] final   63.62 input  -65.29 | X-H torsion
[ 10718 10713 10712 10709 ] final   67.83 input   66.30 | X-H torsion
[ 10763 10752 10751 10750 ] final  101.90 input  -60.55 | X-H torsion
[ 11005 11000 10999 10996 ] final  170.42 input  -57.11 | X-H torsion

> <Gold.Protein.ActiveResidues>
 VAL166  LYS551  ARG553  GLY616  TRP617  ASP618  TYR619  PRO620  LYS621  CYS622 
 ASP623  PHE694  ASN695  SER759  ASP760  ASP761  ALA762  ILE779  LEU786  VAL792 
 PHE793  MET794  SER795  GLU796  ALA797  LYS798  CYS799  TRP800  GLU811  SER814 

> <Gold.Protein.RotatedAtoms>
  150.7001  134.1431  159.4112 H   0  0  0  0  0  0  0  0  0  0  0  0  # atno 6907 bound_to 6896
  151.9416  135.0208  160.0545 H   0  0  0  0  0  0  0  0  0  0  0  0  # atno 6908 bound_to 6896
  152.2089  133.4861  159.5136 H   0  0  0  0  0  0  0  0  0  0  0  0  # atno 6909 bound_to 6896
  145.2376  139.2792  143.4135 H   0  0  0  0  0  0  0  0  0  0  0  0  # atno 7974 bound_to 7965
  154.5928  140.0656  156.9262 H   0  0  0  0  0  0  0  0  0  0  0  0  # atno 8008 bound_to 7997
  155.2266  140.3334  155.4290 H   0  0  0  0  0  0  0  0  0  0  0  0  # atno 8009 bound_to 7997
  156.2267  140.1822  156.7329 H   0  0  0  0  0  0  0  0  0  0  0  0  # atno 8010 bound_to 7997
  140.1310  144.4643  150.6865 H   0  0  0  0  0  0  0  0  0  0  0  0  # atno 10167 bound_to 10162
  157.6254  130.9341  150.0295 H   0  0  0  0  0  0  0  0  0  0  0  0  # atno 10718 bound_to 10713
  153.3326  135.4029  155.1508 H   0  0  0  0  0  0  0  0  0  0  0  0  # atno 10763 bound_to 10752
  154.8626  135.3614  154.5450 H   0  0  0  0  0  0  0  0  0  0  0  0  # atno 10764 bound_to 10752
  153.5890  135.7074  153.5490 H   0  0  0  0  0  0  0  0  0  0  0  0  # atno 10765 bound_to 10752
  140.3081  134.7539  157.3970 H   0  0  0  0  0  0  0  0  0  0  0  0  # atno 11005 bound_to 11000
  146.3337  140.2730  142.8607 LP  0  0  0  0  0  0  0  0  0  0  0  0  # atno 17320 bound_to 7965
  144.9618  140.8283  143.5509 LP  0  0  0  0  0  0  0  0  0  0  0  0  # atno 17321 bound_to 7965
  140.6817  143.2330  151.5367 LP  0  0  0  0  0  0  0  0  0  0  0  0  # atno 17342 bound_to 10162
  139.5519  144.2372  152.1546 LP  0  0  0  0  0  0  0  0  0  0  0  0  # atno 17343 bound_to 10162
  156.1422  130.3642  149.9564 LP  0  0  0  0  0  0  0  0  0  0  0  0  # atno 17370 bound_to 10713
  156.7603  130.9148  151.3641 LP  0  0  0  0  0  0  0  0  0  0  0  0  # atno 17371 bound_to 10713
  140.1049  134.5423  155.8319 LP  0  0  0  0  0  0  0  0  0  0  0  0  # atno 17394 bound_to 11000
  141.2114  133.6706  156.6580 LP  0  0  0  0  0  0  0  0  0  0  0  0  # atno 17395 bound_to 11000

$$$$
