AV-unprocessed.smi:2093|AV-procd|sdf|8544|dock3
  -GOLD-   2272011263D 1   1.00000     0.00000
 Structure written by MMmdl.
 31 32  0  0  0  0  0  0  0  0  1 V2000
  148.0846  141.3411  154.1072 C   0  0  0  0  0  0  0  0  0  0  0  0
  149.1330  140.8789  155.1308 C   0  0  2  0  0  0  0  0  0  0  0  0
  149.5655  142.0336  155.9155 N   0  0  0  0  0  0  0  0  0  0  0  0
  150.2319  141.9891  157.0786 C   0  0  0  0  0  0  0  0  0  0  0  0
  150.5483  140.9431  157.6461 O   0  0  0  0  0  0  0  0  0  0  0  0
  150.5015  143.2272  157.5281 N   0  0  0  0  0  0  0  0  0  0  0  0
  151.1849  143.6019  158.7145 C   0  0  0  0  0  0  0  0  0  0  0  0
  151.8107  142.7441  159.5291 N   0  0  0  0  0  0  0  0  0  0  0  0
  152.3968  143.3900  160.6207 C   0  0  0  0  0  0  0  0  0  0  0  0
  152.2055  144.7492  160.6218 C   0  0  0  0  0  0  0  0  0  0  0  0
  151.2758  145.2755  159.2439 S   0  0  0  0  0  0  0  0  0  0  0  0
  150.3610  140.2294  154.4637 C   0  0  2  0  0  0  0  0  0  0  0  0
  150.1403  138.7994  153.9660 C   0  0  0  0  0  0  0  0  0  0  0  0
  151.5308  138.1828  154.0015 C   0  0  0  0  0  0  0  0  0  0  0  0
  152.3593  139.1737  154.8229 C   0  0  0  0  0  0  0  0  0  0  0  0
  151.4081  140.0521  155.4057 O   0  0  0  0  0  0  0  0  0  0  0  0
  147.6993  140.5026  153.5267 H   0  0  0  0  0  0  0  0  0  0  0  0
  148.5037  142.0658  153.4083 H   0  0  0  0  0  0  0  0  0  0  0  0
  147.2340  141.8100  154.6032 H   0  0  0  0  0  0  0  0  0  0  0  0
  148.6626  140.1362  155.7775 H   0  0  0  0  0  0  0  0  0  0  0  0
  149.3545  142.9418  155.5292 H   0  0  0  0  0  0  0  0  0  0  0  0
  150.1829  143.9923  156.9522 H   0  0  0  0  0  0  0  0  0  0  0  0
  152.9332  142.8032  161.3516 H   0  0  0  0  0  0  0  0  0  0  0  0
  152.5539  145.4695  161.3468 H   0  0  0  0  0  0  0  0  0  0  0  0
  150.7266  140.8540  153.6460 H   0  0  0  0  0  0  0  0  0  0  0  0
  149.4858  138.2577  154.6503 H   0  0  0  0  0  0  0  0  0  0  0  0
  149.6896  138.7658  152.9738 H   0  0  0  0  0  0  0  0  0  0  0  0
  151.5048  137.1978  154.4692 H   0  0  0  0  0  0  0  0  0  0  0  0
  151.9467  138.0683  152.9999 H   0  0  0  0  0  0  0  0  0  0  0  0
  152.9637  138.6842  155.5869 H   0  0  0  0  0  0  0  0  0  0  0  0
  153.0258  139.7456  154.1758 H   0  0  0  0  0  0  0  0  0  0  0  0
  1  2  1  0  0  0  0
  1 17  1  0  0  0  0
  1 18  1  0  0  0  0
  1 19  1  0  0  0  0
  2  3  1  0  0  0  0
  2 12  1  0  0  0  0
  2 20  1  0  0  0  0
  3  4  1  0  0  0  0
  3 21  1  0  0  0  0
  4  5  2  0  0  0  0
  4  6  1  0  0  0  0
  6  7  1  0  0  0  0
  6 22  1  0  0  0  0
  7 11  1  0  0  0  0
  7  8  2  0  0  0  0
  8  9  1  0  0  0  0
  9 10  2  0  0  0  0
  9 23  1  0  0  0  0
 10 11  1  0  0  0  0
 10 24  1  0  0  0  0
 12 16  1  0  0  0  0
 12 13  1  0  0  0  0
 12 25  1  0  0  0  0
 13 14  1  0  0  0  0
 13 26  1  0  0  0  0
 13 27  1  0  0  0  0
 14 15  1  0  0  0  0
 14 28  1  0  0  0  0
 14 29  1  0  0  0  0
 15 16  1  0  0  0  0
 15 30  1  0  0  0  0
 15 31  1  0  0  0  0
M  END
> <s_m_source_file>
AV-unprocessed.smi

> <i_m_source_file_index>
2093

> <i_lp_mmshare_version>
43012

> <i_f3d_flags>
0

> <s_epik_input>
TzFbQ0gyXVtDSDJdW0NIMl1bQ0BIXTFbQ0BIXShbQ0gzXSlbTkhdQyg9TylbTkhdYzJuW2NIXVtjSF1zMg==

> <s_epik_cmdline>
J2VwaWtfcHl0aG9uJywgJy1waCcsICc3LjAnLCAnLXRuJywgJzgnLCAnLW1hJywgJzIwMCcsICctbWV0YWxfYmluZGluZycsICctaW1hZScsICc8aW5maWxlLm1hZT4nLCAnLW9tYWUnLCAnPG91dGZpbGUubWFlPic=

> <r_lp_tautomer_probability>
0.999

> <r_epik_Ionization_Penalty>
0.000334433

> <r_epik_Ionization_Penalty_Charging>
0

> <r_epik_Ionization_Penalty_Neutral>
0.000334433

> <r_epik_State_Penalty>
0.000177984

> <r_epik_Charging_Adjusted_Penalty>
0.000177984

> <i_epik_Tot_Q>
0

> <i_epik_Tot_abs_Q>
0

> <r_epik_Metal_State_Penalty>
0.00767616

> <b_epik_Metal_Only>
0

> <s_lp_Force_Field>
OPLS_2005

> <r_lp_Energy>
16.8099

> <b_lp_Chiralities_Consistent>
1

> <s_lp_Variant>
AV-unprocessed.smi:2093-1

> <Gold.Version>
5.8.1

> <Gold.Id.Protein>
6NUR|6NUR_protein|mol2

> <Gold.PLP.Fitness>
41.2720

> <Gold.PLP.PLP>
-36.1152

> <Gold.PLP.part.hbond>
-2.4113

> <Gold.PLP.part.metal>
0.0000

> <Gold.PLP.part.buried>
-4.0433

> <Gold.PLP.part.nonpolar>
-30.0877

> <Gold.PLP.part.repulsive>
0.1575

> <Gold.PLP.ligand.clash>
0.0000

> <Gold.PLP.ligand.torsion>
0.3960

> <Gold.PLP.Chemscore.Hbond>
1.9760

> <Gold.PLP.Chemscore.CHOScore>
0.0000

> <Gold.PLP.Chemscore.Metal>
0.0000

> <Gold.Chemscore.Hbonds>
donor molecule, donor type, donor heavy atom, donor atom, acceptor molecule, acceptor atom, score
      L1  H     3    21       P1  8028  1.00
      L1  H     6    22       P1  8028  1.00

> <Gold.PLP.Chemscore.Internal.Correction>
0.0206

> <Gold.Rescore>
     Score         DG    S(hbond)    S(metal)    S(lipo)     H(rot)  DE(clash)    DE(int)     intcor
     12.98     -17.64       1.91        0.00      77.75       1.29       0.00       4.66       ----

> <Gold.Chemscore.Fitness>
12.9804

> <Gold.Chemscore.DG>
-17.6365

> <Gold.Chemscore.ZeroCoef>
-5.4800

> <Gold.Chemscore.Hbond>
1.9079

> <Gold.Chemscore.Metal>
0.0000

> <Gold.Chemscore.Lipo>
77.7465

> <Gold.Chemscore.Internal_Hbond>
0.0000

> <Gold.Chemscore.DEClash>
0.0004

> <Gold.Chemscore.DEInternal>
4.6557

> <Gold.Chemscore.Rot>
1.2938

> <Gold.Chemscore.Internal.Correction>
   9.000000E+99

> <Gold.Chemscore.Hbonds>
donor molecule, donor type, donor heavy atom, donor atom, acceptor molecule, acceptor atom, score
      L1  H     3    21       P1  8028  0.98
      L1  H     6    22       P1  8028  0.92

> <Gold.Chemscore.Hbond.Weighted>
-6.3724

> <Gold.Chemscore.Metal.Weighted>
-0.0000

> <Gold.Chemscore.Lipo.Weighted>
-9.0963

> <Gold.Chemscore.Internal_Hbond.Weighted>
0.0000

> <Gold.Chemscore.DEClash.Weighted>
0.0004

> <Gold.Chemscore.DEInternal.Weighted>
4.6557

> <Gold.Chemscore.Rot.Weighted>
3.3122

> <Gold.Chemscore.Internal.Correction.Weighted>
   9.000000E+99

> <Gold.Protein.RotatedTorsions>
[ 6907 6896 6895 6894 ] final  -87.32 input  -60.11 | X-H torsion
[ 7974 7965 7964 7962 ] final  139.13 input  175.53 | X-H torsion
[ 8008 7997 7996 7995 ] final  167.22 input   59.86 | X-H torsion
[ 10167 10162 10161 10158 ] final  166.07 input  -65.29 | X-H torsion
[ 10718 10713 10712 10709 ] final  162.19 input   66.30 | X-H torsion
[ 10763 10752 10751 10750 ] final  -13.42 input  -60.55 | X-H torsion
[ 11005 11000 10999 10996 ] final  -86.50 input  -57.11 | X-H torsion

> <Gold.Protein.ActiveResidues>
 VAL166  LYS551  ARG553  GLY616  TRP617  ASP618  TYR619  PRO620  LYS621  CYS622 
 ASP623  PHE694  ASN695  SER759  ASP760  ASP761  ALA762  ILE779  LEU786  VAL792 
 PHE793  MET794  SER795  GLU796  ALA797  LYS798  CYS799  TRP800  GLU811  SER814 

> <Gold.Protein.RotatedAtoms>
  150.6866  134.2914  159.4668 H   0  0  0  0  0  0  0  0  0  0  0  0  # atno 6907 bound_to 6896
  152.0819  134.9463  160.0582 H   0  0  0  0  0  0  0  0  0  0  0  0  # atno 6908 bound_to 6896
  152.0812  133.4119  159.4539 H   0  0  0  0  0  0  0  0  0  0  0  0  # atno 6909 bound_to 6896
  144.9307  139.5050  143.5619 H   0  0  0  0  0  0  0  0  0  0  0  0  # atno 7974 bound_to 7965
  156.1652  140.1623  156.8543 H   0  0  0  0  0  0  0  0  0  0  0  0  # atno 8008 bound_to 7997
  154.5201  140.0780  156.8190 H   0  0  0  0  0  0  0  0  0  0  0  0  # atno 8009 bound_to 7997
  155.3625  140.3396  155.4243 H   0  0  0  0  0  0  0  0  0  0  0  0  # atno 8010 bound_to 7997
  139.4917  144.4066  151.9348 H   0  0  0  0  0  0  0  0  0  0  0  0  # atno 10167 bound_to 10162
  157.1260  131.0504  151.2393 H   0  0  0  0  0  0  0  0  0  0  0  0  # atno 10718 bound_to 10713
  153.5131  135.7016  153.5770 H   0  0  0  0  0  0  0  0  0  0  0  0  # atno 10763 bound_to 10752
  153.3852  135.3910  155.1884 H   0  0  0  0  0  0  0  0  0  0  0  0  # atno 10764 bound_to 10752
  154.8701  135.3845  154.4613 H   0  0  0  0  0  0  0  0  0  0  0  0  # atno 10765 bound_to 10752
  141.1629  133.7458  156.9170 H   0  0  0  0  0  0  0  0  0  0  0  0  # atno 11005 bound_to 11000
  146.3246  139.8256  142.8918 LP  0  0  0  0  0  0  0  0  0  0  0  0  # atno 17320 bound_to 7965
  145.3146  141.0228  143.3535 LP  0  0  0  0  0  0  0  0  0  0  0  0  # atno 17321 bound_to 7965
  140.3507  144.3093  150.5950 LP  0  0  0  0  0  0  0  0  0  0  0  0  # atno 17342 bound_to 10162
  140.5488  143.2210  151.7962 LP  0  0  0  0  0  0  0  0  0  0  0  0  # atno 17343 bound_to 10162
  157.4435  130.7557  149.7089 LP  0  0  0  0  0  0  0  0  0  0  0  0  # atno 17370 bound_to 10713
  155.9818  130.4016  150.3451 LP  0  0  0  0  0  0  0  0  0  0  0  0  # atno 17371 bound_to 10713
  140.1478  134.9251  157.2552 LP  0  0  0  0  0  0  0  0  0  0  0  0  # atno 17394 bound_to 11000
  140.2759  134.3405  155.7358 LP  0  0  0  0  0  0  0  0  0  0  0  0  # atno 17395 bound_to 11000

$$$$
