AV-unprocessed.smi:3327|AV-procd|sdf|12787|dock9
  -GOLD-   2272019133D 1   1.00000     0.00000
 Structure written by MMmdl.
 41 42  0  0  0  0  0  0  0  0  2 V2000
  153.7089  141.9590  161.0738 C   0  0  0  0  0  0  0  0  0  0  0  0
  153.0344  142.3467  159.7507 C   0  0  2  0  0  0  0  0  0  0  0  0
  152.7182  143.8576  159.6970 C   0  0  0  0  0  0  0  0  0  0  0  0
  151.9291  144.2384  158.4298 C   0  0  0  0  0  0  0  0  0  0  0  0
  150.7048  143.3236  158.2517 C   0  0  0  0  0  0  0  0  0  0  0  0
  151.1638  141.9286  158.2193 N   0  0  0  0  0  0  0  0  0  0  0  0
  151.1720  141.1279  157.1259 C   0  0  0  0  0  0  0  0  0  0  0  0
  151.6194  139.9798  157.1539 O   0  0  0  0  0  0  0  0  0  0  0  0
  150.6074  141.6678  155.8026 C   0  0  0  0  0  0  0  0  0  0  0  0
  149.1658  141.9786  155.8897 N   0  3  0  0  0  0  0  0  0  0  0  0
  148.3122  141.1407  155.0240 C   0  0  0  0  0  0  0  0  0  0  0  0
  147.6114  141.9808  153.9424 C   0  0  0  0  0  0  0  0  0  0  0  0
  146.4610  142.7101  154.4493 N   0  0  0  0  0  0  0  0  0  0  0  0
  145.6431  143.5932  153.7756 C   0  0  0  0  0  0  0  0  0  0  0  0
  144.6844  144.0109  154.6538 C   0  0  0  0  0  0  0  0  0  0  0  0
  144.9944  143.3097  155.8523 C   0  0  0  0  0  0  0  0  0  0  0  0
  146.0550  142.5285  155.7250 N   0  0  0  0  0  0  0  0  0  0  0  0
  151.7517  141.5242  159.5033 C   0  0  0  0  0  0  0  0  0  0  0  0
  153.0566  142.1576  161.9247 H   0  0  0  0  0  0  0  0  0  0  0  0
  154.6316  142.5206  161.2229 H   0  0  0  0  0  0  0  0  0  0  0  0
  153.9625  140.8986  161.0892 H   0  0  0  0  0  0  0  0  0  0  0  0
  153.7366  142.1217  158.9463 H   0  0  0  0  0  0  0  0  0  0  0  0
  152.1309  144.1343  160.5737 H   0  0  0  0  0  0  0  0  0  0  0  0
  153.6395  144.4389  159.7494 H   0  0  0  0  0  0  0  0  0  0  0  0
  151.6149  145.2809  158.4862 H   0  0  0  0  0  0  0  0  0  0  0  0
  152.5767  144.1562  157.5560 H   0  0  0  0  0  0  0  0  0  0  0  0
  150.0184  143.4551  159.0896 H   0  0  0  0  0  0  0  0  0  0  0  0
  150.1420  143.6237  157.3692 H   0  0  0  0  0  0  0  0  0  0  0  0
  151.1489  142.5727  155.5238 H   0  0  0  0  0  0  0  0  0  0  0  0
  150.7562  140.9266  155.0160 H   0  0  0  0  0  0  0  0  0  0  0  0
  148.8732  141.8505  156.8482 H   0  0  0  0  0  0  0  0  0  0  0  0
  148.9305  140.3777  154.5498 H   0  0  0  0  0  0  0  0  0  0  0  0
  147.5763  140.6153  155.6343 H   0  0  0  0  0  0  0  0  0  0  0  0
  148.3128  142.6929  153.5052 H   0  0  0  0  0  0  0  0  0  0  0  0
  147.2730  141.3359  153.1303 H   0  0  0  0  0  0  0  0  0  0  0  0
  145.8087  143.8502  152.7395 H   0  0  0  0  0  0  0  0  0  0  0  0
  143.8800  144.7071  154.4671 H   0  0  0  0  0  0  0  0  0  0  0  0
  144.4826  143.3427  156.8029 H   0  0  0  0  0  0  0  0  0  0  0  0
  151.9787  140.4579  159.5430 H   0  0  0  0  0  0  0  0  0  0  0  0
  151.0289  141.7001  160.3017 H   0  0  0  0  0  0  0  0  0  0  0  0
  149.0318  142.9483  155.6408 H   0  0  0  0  0  0  0  0  0  0  0  0
  1  2  1  0  0  0  0
  1 19  1  0  0  0  0
  1 20  1  0  0  0  0
  1 21  1  0  0  0  0
  2 18  1  0  0  0  0
  2  3  1  0  0  0  0
  2 22  1  0  0  0  0
  3  4  1  0  0  0  0
  3 23  1  0  0  0  0
  3 24  1  0  0  0  0
  4  5  1  0  0  0  0
  4 25  1  0  0  0  0
  4 26  1  0  0  0  0
  5  6  1  0  0  0  0
  5 27  1  0  0  0  0
  5 28  1  0  0  0  0
  6  7  1  0  0  0  0
  6 18  1  0  0  0  0
  7  8  2  0  0  0  0
  7  9  1  0  0  0  0
  9 10  1  0  0  0  0
  9 29  1  0  0  0  0
  9 30  1  0  0  0  0
 10 11  1  0  0  0  0
 10 31  1  0  0  0  0
 10 41  1  0  0  0  0
 11 12  1  0  0  0  0
 11 32  1  0  0  0  0
 11 33  1  0  0  0  0
 12 13  1  0  0  0  0
 12 34  1  0  0  0  0
 12 35  1  0  0  0  0
 13 17  1  0  0  0  0
 13 14  1  0  0  0  0
 14 15  2  0  0  0  0
 14 36  1  0  0  0  0
 15 16  1  0  0  0  0
 15 37  1  0  0  0  0
 16 17  2  0  0  0  0
 16 38  1  0  0  0  0
 18 39  1  0  0  0  0
 18 40  1  0  0  0  0
M  CHG  1  10   1
M  END
> <s_m_source_file>
AV-unprocessed.smi

> <i_m_source_file_index>
3327

> <i_lp_mmshare_version>
43012

> <i_f3d_flags>
0

> <s_epik_input>
W0NIM11bQ0BASF0xW0NIMl1bQ0gyXVtDSDJdTihbQ0gyXTEpQyg9TylbQ0gyXVtOSF1bQ0gyXVtDSDJdbjJbY0hdW2NIXVtjSF1uMg==

> <s_epik_cmdline>
J2VwaWtfcHl0aG9uJywgJy1waCcsICc3LjAnLCAnLXRuJywgJzgnLCAnLW1hJywgJzIwMCcsICctbWV0YWxfYmluZGluZycsICctaW1hZScsICc8aW5maWxlLm1hZT4nLCAnLW9tYWUnLCAnPG91dGZpbGUubWFlPic=

> <r_lp_tautomer_probability>
1

> <r_epik_Ionization_Penalty>
0.195801

> <r_epik_Ionization_Penalty_Charging>
0.195799

> <r_epik_Ionization_Penalty_Neutral>
2.33113e-06

> <r_epik_State_Penalty>
0.185548

> <r_epik_Charging_Adjusted_Penalty>
0.381347

> <i_epik_Tot_Q>
1

> <i_epik_Tot_abs_Q>
1

> <r_epik_Metal_State_Penalty>
0.186014

> <b_epik_Metal_Only>
0

> <s_lp_Force_Field>
OPLS_2005

> <r_lp_Energy>
21.5547

> <b_lp_Chiralities_Consistent>
1

> <s_lp_Variant>
AV-unprocessed.smi:3327-1

> <Gold.Version>
5.8.1

> <Gold.Id.Protein>
6NUR|6NUR_protein|mol2

> <Gold.PLP.Fitness>
48.7132

> <Gold.PLP.PLP>
-44.3804

> <Gold.PLP.part.hbond>
-1.0000

> <Gold.PLP.part.metal>
0.0000

> <Gold.PLP.part.buried>
-6.4798

> <Gold.PLP.part.nonpolar>
-37.6725

> <Gold.PLP.part.repulsive>
0.2505

> <Gold.PLP.ligand.clash>
0.0000

> <Gold.PLP.ligand.torsion>
0.8528

> <Gold.PLP.Chemscore.Hbond>
2.0000

> <Gold.PLP.Chemscore.CHOScore>
0.0000

> <Gold.PLP.Chemscore.Metal>
0.0000

> <Gold.Chemscore.Hbonds>
donor molecule, donor type, donor heavy atom, donor atom, acceptor molecule, acceptor atom, score
      L1  H    10    41       P1  8028  2.00

> <Gold.PLP.Chemscore.Internal.Correction>
0.0384

> <Gold.Rescore>
     Score         DG    S(hbond)    S(metal)    S(lipo)     H(rot)  DE(clash)    DE(int)     intcor
     15.48     -16.34       0.99        0.00     103.74       1.80       0.01       0.85       ----

> <Gold.Chemscore.Fitness>
15.4807

> <Gold.Chemscore.DG>
-16.3378

> <Gold.Chemscore.ZeroCoef>
-5.4800

> <Gold.Chemscore.Hbond>
0.9937

> <Gold.Chemscore.Metal>
0.0000

> <Gold.Chemscore.Lipo>
103.7386

> <Gold.Chemscore.Internal_Hbond>
0.0000

> <Gold.Chemscore.DEClash>
0.0088

> <Gold.Chemscore.DEInternal>
0.8483

> <Gold.Chemscore.Rot>
1.7963

> <Gold.Chemscore.Internal.Correction>
   9.000000E+99

> <Gold.Chemscore.Hbonds>
donor molecule, donor type, donor heavy atom, donor atom, acceptor molecule, acceptor atom, score
      L1  H    10    41       P1  8028  1.00

> <Gold.Chemscore.Hbond.Weighted>
-3.3188

> <Gold.Chemscore.Metal.Weighted>
-0.0000

> <Gold.Chemscore.Lipo.Weighted>
-12.1374

> <Gold.Chemscore.Internal_Hbond.Weighted>
0.0000

> <Gold.Chemscore.DEClash.Weighted>
0.0088

> <Gold.Chemscore.DEInternal.Weighted>
0.8483

> <Gold.Chemscore.Rot.Weighted>
4.5985

> <Gold.Chemscore.Internal.Correction.Weighted>
   9.000000E+99

> <Gold.Protein.RotatedTorsions>
[ 6907 6896 6895 6894 ] final  -39.19 input  -60.11 | X-H torsion
[ 7974 7965 7964 7962 ] final  111.72 input  175.53 | X-H torsion
[ 8008 7997 7996 7995 ] final   25.87 input   59.86 | X-H torsion
[ 10167 10162 10161 10158 ] final -159.61 input  -65.29 | X-H torsion
[ 10718 10713 10712 10709 ] final  -73.44 input   66.30 | X-H torsion
[ 10763 10752 10751 10750 ] final   55.97 input  -60.55 | X-H torsion
[ 11005 11000 10999 10996 ] final   97.29 input  -57.11 | X-H torsion

> <Gold.Protein.ActiveResidues>
 VAL166  LYS551  ARG553  GLY616  TRP617  ASP618  TYR619  PRO620  LYS621  CYS622 
 ASP623  PHE694  ASN695  SER759  ASP760  ASP761  ALA762  ILE779  LEU786  VAL792 
 PHE793  MET794  SER795  GLU796  ALA797  LYS798  CYS799  TRP800  GLU811  SER814 

> <Gold.Protein.RotatedAtoms>
  150.9933  134.9263  159.7912 H   0  0  0  0  0  0  0  0  0  0  0  0  # atno 6907 bound_to 6896
  152.5257  134.3252  159.9173 H   0  0  0  0  0  0  0  0  0  0  0  0  # atno 6908 bound_to 6896
  151.3257  133.3980  159.2692 H   0  0  0  0  0  0  0  0  0  0  0  0  # atno 6909 bound_to 6896
  145.2386  139.2788  143.4130 H   0  0  0  0  0  0  0  0  0  0  0  0  # atno 7974 bound_to 7965
  155.0184  140.3145  155.4803 H   0  0  0  0  0  0  0  0  0  0  0  0  # atno 8008 bound_to 7997
  156.2896  140.2202  156.5243 H   0  0  0  0  0  0  0  0  0  0  0  0  # atno 8009 bound_to 7997
  154.7473  140.0469  157.0851 H   0  0  0  0  0  0  0  0  0  0  0  0  # atno 8010 bound_to 7997
  139.6602  143.9926  152.2220 H   0  0  0  0  0  0  0  0  0  0  0  0  # atno 10167 bound_to 10162
  156.0280  130.4394  150.2742 H   0  0  0  0  0  0  0  0  0  0  0  0  # atno 10718 bound_to 10713
  152.9824  135.5692  154.5153 H   0  0  0  0  0  0  0  0  0  0  0  0  # atno 10763 bound_to 10752
  154.4650  135.2783  155.1687 H   0  0  0  0  0  0  0  0  0  0  0  0  # atno 10764 bound_to 10752
  154.3259  135.6259  153.5582 H   0  0  0  0  0  0  0  0  0  0  0  0  # atno 10765 bound_to 10752
  139.8777  134.8993  156.4285 H   0  0  0  0  0  0  0  0  0  0  0  0  # atno 11005 bound_to 11000
  146.3334  140.2742  142.8607 LP  0  0  0  0  0  0  0  0  0  0  0  0  # atno 17320 bound_to 7965
  144.9610  140.8275  143.5513 LP  0  0  0  0  0  0  0  0  0  0  0  0  # atno 17321 bound_to 7965
  139.9663  144.6524  150.8031 LP  0  0  0  0  0  0  0  0  0  0  0  0  # atno 17342 bound_to 10162
  140.7576  143.3091  151.2889 LP  0  0  0  0  0  0  0  0  0  0  0  0  # atno 17343 bound_to 10162
  157.0845  131.0152  151.3144 LP  0  0  0  0  0  0  0  0  0  0  0  0  # atno 17370 bound_to 10713
  157.4902  130.7817  149.7500 LP  0  0  0  0  0  0  0  0  0  0  0  0  # atno 17371 bound_to 10713
  140.9084  133.7729  155.9762 LP  0  0  0  0  0  0  0  0  0  0  0  0  # atno 17394 bound_to 11000
  140.8574  134.2882  157.5249 LP  0  0  0  0  0  0  0  0  0  0  0  0  # atno 17395 bound_to 11000

$$$$
