AV-unprocessed.smi:991|AV-procd|sdf|4328|dock6
  -GOLD-   22720 2233D 1   1.00000     0.00000
 Structure written by MMmdl.
 32 33  0  0  0  0  0  0  0  0  1 V2000
  149.2697  143.2095  158.7311 O   0  0  0  0  0  0  0  0  0  0  0  0
  149.8475  142.4825  157.9233 C   0  0  0  0  0  0  0  0  0  0  0  0
  149.1981  141.1733  157.4730 C   0  0  0  0  0  0  0  0  0  0  0  0
  149.3874  140.9539  156.0503 N   0  0  0  0  0  0  0  0  0  0  0  0
  149.0360  141.7016  155.0024 C   0  0  0  0  0  0  0  0  0  0  0  0
  149.3723  141.1754  153.8328 N   0  0  0  0  0  0  0  0  0  0  0  0
  149.9707  140.0248  154.2635 C   0  0  0  0  0  0  0  0  0  0  0  0
  150.0063  139.8433  155.5838 N   0  0  0  0  0  0  0  0  0  0  0  0
  151.0449  142.7741  157.3897 N   0  0  0  0  0  0  0  0  0  0  0  0
  151.8213  143.9800  157.6705 C   0  0  0  0  0  0  0  0  0  0  0  0
  151.6902  144.4627  159.1270 C   0  0  0  0  0  0  0  0  0  0  0  0
  151.1379  145.5373  159.3707 O   0  0  0  0  0  0  0  0  0  0  0  0
  152.2046  143.6868  160.1034 N   0  0  0  0  0  0  0  0  0  0  0  0
  152.1622  143.9753  161.5367 C   0  0  0  0  0  0  0  0  0  0  0  0
  152.6666  142.7086  162.2293 C   0  0  0  0  0  0  0  0  0  0  0  0
  153.5386  142.0320  161.1808 C   0  0  0  0  0  0  0  0  0  0  0  0
  152.8931  142.4226  159.8513 C   0  0  0  0  0  0  0  0  0  0  0  0
  149.6331  140.3334  158.0166 H   0  0  0  0  0  0  0  0  0  0  0  0
  148.1316  141.1886  157.7036 H   0  0  0  0  0  0  0  0  0  0  0  0
  148.5216  142.6469  155.0975 H   0  0  0  0  0  0  0  0  0  0  0  0
  150.3927  139.2991  153.5838 H   0  0  0  0  0  0  0  0  0  0  0  0
  151.4422  142.1190  156.7316 H   0  0  0  0  0  0  0  0  0  0  0  0
  152.8689  143.8029  157.4223 H   0  0  0  0  0  0  0  0  0  0  0  0
  151.4694  144.7707  157.0076 H   0  0  0  0  0  0  0  0  0  0  0  0
  152.8252  144.8145  161.7519 H   0  0  0  0  0  0  0  0  0  0  0  0
  151.1589  144.2353  161.8770 H   0  0  0  0  0  0  0  0  0  0  0  0
  153.2029  142.9177  163.1555 H   0  0  0  0  0  0  0  0  0  0  0  0
  151.8217  142.0623  162.4713 H   0  0  0  0  0  0  0  0  0  0  0  0
  154.5497  142.4390  161.2296 H   0  0  0  0  0  0  0  0  0  0  0  0
  153.6065  140.9522  161.3172 H   0  0  0  0  0  0  0  0  0  0  0  0
  152.1598  141.6744  159.5462 H   0  0  0  0  0  0  0  0  0  0  0  0
  153.6384  142.5099  159.0590 H   0  0  0  0  0  0  0  0  0  0  0  0
  1  2  2  0  0  0  0
  2  3  1  0  0  0  0
  2  9  1  0  0  0  0
  3  4  1  0  0  0  0
  3 18  1  0  0  0  0
  3 19  1  0  0  0  0
  4  8  1  0  0  0  0
  4  5  1  0  0  0  0
  5  6  2  0  0  0  0
  5 20  1  0  0  0  0
  6  7  1  0  0  0  0
  7  8  2  0  0  0  0
  7 21  1  0  0  0  0
  9 10  1  0  0  0  0
  9 22  1  0  0  0  0
 10 11  1  0  0  0  0
 10 23  1  0  0  0  0
 10 24  1  0  0  0  0
 11 12  2  0  0  0  0
 11 13  1  0  0  0  0
 13 17  1  0  0  0  0
 13 14  1  0  0  0  0
 14 15  1  0  0  0  0
 14 25  1  0  0  0  0
 14 26  1  0  0  0  0
 15 16  1  0  0  0  0
 15 27  1  0  0  0  0
 15 28  1  0  0  0  0
 16 17  1  0  0  0  0
 16 29  1  0  0  0  0
 16 30  1  0  0  0  0
 17 31  1  0  0  0  0
 17 32  1  0  0  0  0
M  END
> <s_m_source_file>
AV-unprocessed.smi

> <i_m_source_file_index>
991

> <i_lp_mmshare_version>
43012

> <i_f3d_flags>
0

> <s_epik_input>
bjFbY0hdbltjSF1uMVtDSDJdQyg9TylbTkhdW0NIMl1DKD1PKU4yW0NIMl1bQ0gyXVtDSDJdW0NIMl0y

> <s_epik_cmdline>
J2VwaWtfcHl0aG9uJywgJy1waCcsICc3LjAnLCAnLXRuJywgJzgnLCAnLW1hJywgJzIwMCcsICctbWV0YWxfYmluZGluZycsICctaW1hZScsICc8aW5maWxlLm1hZT4nLCAnLW9tYWUnLCAnPG91dGZpbGUubWFlPic=

> <r_lp_tautomer_probability>
1

> <r_epik_Ionization_Penalty>
7.3183e-06

> <r_epik_Ionization_Penalty_Charging>
0

> <r_epik_Ionization_Penalty_Neutral>
7.3183e-06

> <r_epik_State_Penalty>
-0

> <r_epik_Charging_Adjusted_Penalty>
0

> <i_epik_Tot_Q>
0

> <i_epik_Tot_abs_Q>
0

> <r_epik_Metal_State_Penalty>
-0

> <b_epik_Metal_Only>
0

> <s_lp_Force_Field>
OPLS_2005

> <r_lp_Energy>
26.0119

> <b_lp_Chiralities_Consistent>
1

> <s_lp_Variant>
AV-unprocessed.smi:991-1

> <Gold.Version>
5.8.1

> <Gold.Id.Protein>
6NUR|6NUR_protein|mol2

> <Gold.PLP.Fitness>
46.2926

> <Gold.PLP.PLP>
-39.7747

> <Gold.PLP.part.hbond>
-3.1056

> <Gold.PLP.part.metal>
0.0000

> <Gold.PLP.part.buried>
-1.5035

> <Gold.PLP.part.nonpolar>
-35.6743

> <Gold.PLP.part.repulsive>
0.7086

> <Gold.PLP.ligand.clash>
0.0000

> <Gold.PLP.ligand.torsion>
0.4878

> <Gold.PLP.Chemscore.Hbond>
0.7680

> <Gold.PLP.Chemscore.CHOScore>
1.7279

> <Gold.PLP.Chemscore.Metal>
0.0000

> <Gold.Chemscore.Hbonds>
donor molecule, donor type, donor heavy atom, donor atom, acceptor molecule, acceptor atom, score
      P1  H  8011  8017       L1     6  0.88
      L1  C     5    20       P1  8028  1.00
      L1  C     7    21       P1  7957  0.38

> <Gold.PLP.Chemscore.Internal.Correction>
0.0057

> <Gold.Rescore>
     Score         DG    S(hbond)    S(metal)    S(lipo)     H(rot)  DE(clash)    DE(int)     intcor
      4.57      -7.42       0.33        0.00      62.61       2.54       0.12       2.73       ----

> <Gold.Chemscore.Fitness>
4.5706

> <Gold.Chemscore.DG>
-7.4198

> <Gold.Chemscore.ZeroCoef>
-5.4800

> <Gold.Chemscore.Hbond>
0.3317

> <Gold.Chemscore.Metal>
0.0000

> <Gold.Chemscore.Lipo>
62.6138

> <Gold.Chemscore.Internal_Hbond>
0.0000

> <Gold.Chemscore.DEClash>
0.1188

> <Gold.Chemscore.DEInternal>
2.7305

> <Gold.Chemscore.Rot>
2.5366

> <Gold.Chemscore.Internal.Correction>
   9.000000E+99

> <Gold.Chemscore.Hbonds>
donor molecule, donor type, donor heavy atom, donor atom, acceptor molecule, acceptor atom, score
      P1  H  8011  8017       L1     6  0.80

> <Gold.Chemscore.Hbond.Weighted>
-1.1077

> <Gold.Chemscore.Metal.Weighted>
-0.0000

> <Gold.Chemscore.Lipo.Weighted>
-7.3258

> <Gold.Chemscore.Internal_Hbond.Weighted>
0.0000

> <Gold.Chemscore.DEClash.Weighted>
0.1188

> <Gold.Chemscore.DEInternal.Weighted>
2.7305

> <Gold.Chemscore.Rot.Weighted>
6.4937

> <Gold.Chemscore.Internal.Correction.Weighted>
   9.000000E+99

> <Gold.Protein.RotatedTorsions>
[ 6907 6896 6895 6894 ] final  -60.90 input  -60.11 | X-H torsion
[ 7974 7965 7964 7962 ] final -132.18 input  175.53 | X-H torsion
[ 8008 7997 7996 7995 ] final   53.22 input   59.86 | X-H torsion
[ 10167 10162 10161 10158 ] final   17.00 input  -65.29 | X-H torsion
[ 10718 10713 10712 10709 ] final   26.85 input   66.30 | X-H torsion
[ 10763 10752 10751 10750 ] final  -91.06 input  -60.55 | X-H torsion
[ 11005 11000 10999 10996 ] final -143.53 input  -57.11 | X-H torsion

> <Gold.Protein.ActiveResidues>
 VAL166  LYS551  ARG553  GLY616  TRP617  ASP618  TYR619  PRO620  LYS621  CYS622 
 ASP623  PHE694  ASN695  SER759  ASP760  ASP761  ALA762  ILE779  LEU786  VAL792 
 PHE793  MET794  SER795  GLU796  ALA797  LYS798  CYS799  TRP800  GLU811  SER814 

> <Gold.Protein.RotatedAtoms>
  150.7823  134.6777  159.6425 H   0  0  0  0  0  0  0  0  0  0  0  0  # atno 6907 bound_to 6896
  152.3911  134.6437  160.0116 H   0  0  0  0  0  0  0  0  0  0  0  0  # atno 6908 bound_to 6896
  151.6737  133.3276  159.3239 H   0  0  0  0  0  0  0  0  0  0  0  0  # atno 6909 bound_to 6896
  144.9310  140.7128  143.4906 H   0  0  0  0  0  0  0  0  0  0  0  0  # atno 7974 bound_to 7965
  155.4646  140.3463  155.4317 H   0  0  0  0  0  0  0  0  0  0  0  0  # atno 8008 bound_to 7997
  156.1139  140.1468  156.9329 H   0  0  0  0  0  0  0  0  0  0  0  0  # atno 8009 bound_to 7997
  154.4775  140.0880  156.7277 H   0  0  0  0  0  0  0  0  0  0  0  0  # atno 8010 bound_to 7997
  140.5757  143.9077  150.6748 H   0  0  0  0  0  0  0  0  0  0  0  0  # atno 10167 bound_to 10162
  157.2123  130.6940  149.6234 H   0  0  0  0  0  0  0  0  0  0  0  0  # atno 10718 bound_to 10713
  154.6722  135.5281  153.8153 H   0  0  0  0  0  0  0  0  0  0  0  0  # atno 10763 bound_to 10752
  153.0509  135.6532  154.0706 H   0  0  0  0  0  0  0  0  0  0  0  0  # atno 10764 bound_to 10752
  154.0604  135.2962  155.3305 H   0  0  0  0  0  0  0  0  0  0  0  0  # atno 10765 bound_to 10752
  140.8115  134.2738  157.4938 H   0  0  0  0  0  0  0  0  0  0  0  0  # atno 11005 bound_to 11000
  145.3143  139.1808  143.4622 LP  0  0  0  0  0  0  0  0  0  0  0  0  # atno 17320 bound_to 7965
  146.3247  140.3151  142.8629 LP  0  0  0  0  0  0  0  0  0  0  0  0  # atno 17321 bound_to 7965
  140.2564  143.3556  152.1361 LP  0  0  0  0  0  0  0  0  0  0  0  0  # atno 17342 bound_to 10162
  139.5141  144.6943  151.5673 LP  0  0  0  0  0  0  0  0  0  0  0  0  # atno 17343 bound_to 10162
  155.9689  130.4547  150.5860 LP  0  0  0  0  0  0  0  0  0  0  0  0  # atno 17370 bound_to 10713
  157.3660  131.0757  151.1597 LP  0  0  0  0  0  0  0  0  0  0  0  0  # atno 17371 bound_to 10713
  139.8714  134.9486  156.4001 LP  0  0  0  0  0  0  0  0  0  0  0  0  # atno 17394 bound_to 11000
  140.9192  133.7657  155.9886 LP  0  0  0  0  0  0  0  0  0  0  0  0  # atno 17395 bound_to 11000

$$$$
