AV-unprocessed.smi:244|AV-procd|sdf|1869|dock5
  -GOLD-   2262020503D 1   1.00000     0.00000
 Structure written by MMmdl.
 57 61  0  0  0  0  0  0  0  0  2 V2000
  149.5753  138.0997  157.2329 C   0  0  0  0  0  0  0  0  0  0  0  0
  150.4276  138.2285  156.0284 N   0  3  2  0  0  0  0  0  0  0  0  0
  151.2232  139.4809  155.9880 C   0  0  0  0  0  0  0  0  0  0  0  0
  150.3678  140.6894  155.5758 C   0  0  0  0  0  0  0  0  0  0  0  0
  149.6805  140.4346  154.2197 C   0  0  2  0  0  0  0  0  0  0  0  0
  148.8868  141.5424  153.7932 O   0  0  0  0  0  0  0  0  0  0  0  0
  147.6879  141.7346  154.5381 C   0  0  0  0  0  0  0  0  0  0  0  0
  146.8303  140.4644  154.4788 C   0  0  0  0  0  0  0  0  0  0  0  0
  147.5900  139.3085  154.9401 N   0  0  0  0  0  0  0  0  0  0  0  0
  146.7760  138.2335  155.0639 C   0  0  0  0  0  0  0  0  0  0  0  0
  146.5752  137.6571  156.2785 N   0  0  0  0  0  0  0  0  0  0  0  0
  145.7754  136.5916  156.3883 C   0  0  0  0  0  0  0  0  0  0  0  0
  145.0934  135.9579  155.4317 N   0  0  0  0  0  0  0  0  0  0  0  0
  145.3012  136.5310  154.2114 C   0  0  0  0  0  0  0  0  0  0  0  0
  146.1274  137.6565  153.9410 C   0  0  0  0  0  0  0  0  0  0  0  0
  146.1035  137.9537  152.5847 N   0  0  0  0  0  0  0  0  0  0  0  0
  145.3040  137.0537  152.0797 C   0  0  0  0  0  0  0  0  0  0  0  0
  144.7661  136.1690  152.9880 N   0  0  0  0  0  0  0  0  0  0  0  0
  143.8399  135.0843  152.7036 C   0  0  0  0  0  0  0  0  0  0  0  0
  144.2057  134.2611  151.4430 C   0  0  0  0  0  0  0  0  0  0  0  0
  143.7426  134.9732  150.3085 O   0  0  0  0  0  0  0  0  0  0  0  0
  145.7285  134.0500  151.2914 C   0  0  0  0  0  0  0  0  0  0  0  0
  146.0667  133.0577  150.1644 C   0  0  0  0  0  0  0  0  0  0  0  0
  145.3883  131.8259  150.3765 O   0  0  0  0  0  0  0  0  0  0  0  0
  143.9734  131.9661  150.3376 C   0  0  0  0  0  0  0  0  0  0  0  0
  143.5055  132.8877  151.4780 C   0  0  0  0  0  0  0  0  0  0  0  0
  148.8574  139.1238  154.2214 C   0  0  2  0  0  0  0  0  0  0  0  0
  149.7282  137.9454  154.7460 C   0  0  0  0  0  0  0  0  0  0  0  0
  148.8428  138.9024  157.3039 H   0  0  0  0  0  0  0  0  0  0  0  0
  150.1880  138.1285  158.1342 H   0  0  0  0  0  0  0  0  0  0  0  0
  149.0399  137.1497  157.2282 H   0  0  0  0  0  0  0  0  0  0  0  0
  151.6922  139.6568  156.9569 H   0  0  0  0  0  0  0  0  0  0  0  0
  152.0367  139.3497  155.2734 H   0  0  0  0  0  0  0  0  0  0  0  0
  149.6370  140.8916  156.3574 H   0  0  0  0  0  0  0  0  0  0  0  0
  150.9956  141.5783  155.5085 H   0  0  0  0  0  0  0  0  0  0  0  0
  150.4699  140.3298  153.4743 H   0  0  0  0  0  0  0  0  0  0  0  0
  147.9054  142.0122  155.5691 H   0  0  0  0  0  0  0  0  0  0  0  0
  147.1400  142.5715  154.1046 H   0  0  0  0  0  0  0  0  0  0  0  0
  145.9350  140.5994  155.0879 H   0  0  0  0  0  0  0  0  0  0  0  0
  146.4973  140.2909  153.4541 H   0  0  0  0  0  0  0  0  0  0  0  0
  145.6647  136.1906  157.3850 H   0  0  0  0  0  0  0  0  0  0  0  0
  145.0726  137.0167  151.0251 H   0  0  0  0  0  0  0  0  0  0  0  0
  143.8101  134.4327  153.5782 H   0  0  0  0  0  0  0  0  0  0  0  0
  142.8381  135.5051  152.6062 H   0  0  0  0  0  0  0  0  0  0  0  0
  142.8225  134.7901  150.1930 H   0  0  0  0  0  0  0  0  0  0  0  0
  146.2365  134.9969  151.1052 H   0  0  0  0  0  0  0  0  0  0  0  0
  146.1322  133.6623  152.2277 H   0  0  0  0  0  0  0  0  0  0  0  0
  145.8037  133.4678  149.1881 H   0  0  0  0  0  0  0  0  0  0  0  0
  147.1399  132.8676  150.1462 H   0  0  0  0  0  0  0  0  0  0  0  0
  143.6598  132.3499  149.3656 H   0  0  0  0  0  0  0  0  0  0  0  0
  143.5215  130.9801  150.4476 H   0  0  0  0  0  0  0  0  0  0  0  0
  143.7251  132.3963  152.4268 H   0  0  0  0  0  0  0  0  0  0  0  0
  142.4220  133.0079  151.4413 H   0  0  0  0  0  0  0  0  0  0  0  0
  148.5960  138.9058  153.1845 H   0  0  0  0  0  0  0  0  0  0  0  0
  150.5033  137.7465  154.0050 H   0  0  0  0  0  0  0  0  0  0  0  0
  149.1675  137.0143  154.8249 H   0  0  0  0  0  0  0  0  0  0  0  0
  151.1050  137.4853  156.1253 H   0  0  0  0  0  0  0  0  0  0  0  0
  1  2  1  0  0  0  0
  1 29  1  0  0  0  0
  1 30  1  0  0  0  0
  1 31  1  0  0  0  0
  2 28  1  0  0  0  0
  2  3  1  0  0  0  0
  2 57  1  0  0  0  0
  3  4  1  0  0  0  0
  3 32  1  0  0  0  0
  3 33  1  0  0  0  0
  4  5  1  0  0  0  0
  4 34  1  0  0  0  0
  4 35  1  0  0  0  0
  5 27  1  0  0  0  0
  5  6  1  0  0  0  0
  5 36  1  0  0  0  0
  6  7  1  0  0  0  0
  7  8  1  0  0  0  0
  7 37  1  0  0  0  0
  7 38  1  0  0  0  0
  8  9  1  0  0  0  0
  8 39  1  0  0  0  0
  8 40  1  0  0  0  0
  9 10  1  0  0  0  0
  9 27  1  0  0  0  0
 10 15  1  0  0  0  0
 10 11  2  0  0  0  0
 11 12  1  0  0  0  0
 12 13  2  0  0  0  0
 12 41  1  0  0  0  0
 13 14  1  0  0  0  0
 14 18  1  0  0  0  0
 14 15  2  0  0  0  0
 15 16  1  0  0  0  0
 16 17  2  0  0  0  0
 17 18  1  0  0  0  0
 17 42  1  0  0  0  0
 18 19  1  0  0  0  0
 19 20  1  0  0  0  0
 19 43  1  0  0  0  0
 19 44  1  0  0  0  0
 20 26  1  0  0  0  0
 20 21  1  0  0  0  0
 20 22  1  0  0  0  0
 21 45  1  0  0  0  0
 22 23  1  0  0  0  0
 22 46  1  0  0  0  0
 22 47  1  0  0  0  0
 23 24  1  0  0  0  0
 23 48  1  0  0  0  0
 23 49  1  0  0  0  0
 24 25  1  0  0  0  0
 25 26  1  0  0  0  0
 25 50  1  0  0  0  0
 25 51  1  0  0  0  0
 26 52  1  0  0  0  0
 26 53  1  0  0  0  0
 27 28  1  0  0  0  0
 27 54  1  0  0  0  0
 28 55  1  0  0  0  0
 28 56  1  0  0  0  0
M  CHG  1   2   1
M  END
> <s_m_source_file>
AV-unprocessed.smi

> <i_m_source_file_index>
244

> <i_lp_mmshare_version>
43012

> <i_f3d_flags>
0

> <s_epik_input>
W0NIMl0xW0NIMl1OKFtDSDNdKVtDSDJdW0NAQEhdKFtDQEhdMTIpTihbQ0gyXVtDSDJdTzIpYyhuW2NIXW4zKWMoYzM0KW5bY0hdbjRbQ0gyXUM1KFtPSF0pW0NIMl1bQ0gyXU9bQ0gyXVtDSDJdNQ==

> <s_epik_cmdline>
J2VwaWtfcHl0aG9uJywgJy1waCcsICc3LjAnLCAnLXRuJywgJzgnLCAnLW1hJywgJzIwMCcsICctbWV0YWxfYmluZGluZycsICctaW1hZScsICc8aW5maWxlLm1hZT4nLCAnLW9tYWUnLCAnPG91dGZpbGUubWFlPic=

> <r_lp_tautomer_probability>
1

> <r_epik_Ionization_Penalty>
0.0136215

> <r_epik_Ionization_Penalty_Charging>
0.0131385

> <r_epik_Ionization_Penalty_Neutral>
0.000483022

> <r_epik_State_Penalty>
0.0104001

> <r_epik_Charging_Adjusted_Penalty>
0.0235387

> <i_epik_Tot_Q>
1

> <i_epik_Tot_abs_Q>
1

> <r_epik_Metal_State_Penalty>
0.0104469

> <b_epik_Metal_Only>
0

> <s_lp_Force_Field>
OPLS_2005

> <r_lp_Energy>
50.9375

> <b_lp_Chiralities_Consistent>
1

> <s_lp_Variant>
AV-unprocessed.smi:244-6

> <Gold.Version>
5.8.1

> <Gold.Id.Protein>
6NUR|6NUR_protein|mol2

> <Gold.PLP.Fitness>
41.2188

> <Gold.PLP.PLP>
-34.7468

> <Gold.PLP.part.hbond>
-2.4738

> <Gold.PLP.part.metal>
0.0000

> <Gold.PLP.part.buried>
-4.4190

> <Gold.PLP.part.nonpolar>
-29.8450

> <Gold.PLP.part.repulsive>
0.9216

> <Gold.PLP.ligand.clash>
0.0000

> <Gold.PLP.ligand.torsion>
0.5914

> <Gold.PLP.Chemscore.Hbond>
1.6950

> <Gold.PLP.Chemscore.CHOScore>
0.8080

> <Gold.PLP.Chemscore.Metal>
0.0000

> <Gold.Chemscore.Hbonds>
donor molecule, donor type, donor heavy atom, donor atom, acceptor molecule, acceptor atom, score
      L1  H    21    45       P1 10186  1.00
      P1  H  8011  8017       L1     6  0.70
      L1  C    17    42       P1 10171  0.94

> <Gold.PLP.Chemscore.Internal.Correction>
0.1458

> <Gold.Rescore>
     Score         DG    S(hbond)    S(metal)    S(lipo)     H(rot)  DE(clash)    DE(int)     intcor
     13.93     -14.86       1.45        0.00      84.61       2.09       0.32       0.61       ----

> <Gold.Chemscore.Fitness>
13.9348

> <Gold.Chemscore.DG>
-14.8617

> <Gold.Chemscore.ZeroCoef>
-5.4800

> <Gold.Chemscore.Hbond>
1.4477

> <Gold.Chemscore.Metal>
0.0000

> <Gold.Chemscore.Lipo>
84.6117

> <Gold.Chemscore.Internal_Hbond>
0.0000

> <Gold.Chemscore.DEClash>
0.3200

> <Gold.Chemscore.DEInternal>
0.6070

> <Gold.Chemscore.Rot>
2.0911

> <Gold.Chemscore.Internal.Correction>
   9.000000E+99

> <Gold.Chemscore.Hbonds>
donor molecule, donor type, donor heavy atom, donor atom, acceptor molecule, acceptor atom, score
      L1  H    21    45       P1 10186  0.39
      P1  H  8011  8017       L1     6  0.49

> <Gold.Chemscore.Hbond.Weighted>
-4.8353

> <Gold.Chemscore.Metal.Weighted>
-0.0000

> <Gold.Chemscore.Lipo.Weighted>
-9.8996

> <Gold.Chemscore.Internal_Hbond.Weighted>
0.0000

> <Gold.Chemscore.DEClash.Weighted>
0.3200

> <Gold.Chemscore.DEInternal.Weighted>
0.6070

> <Gold.Chemscore.Rot.Weighted>
5.3531

> <Gold.Chemscore.Internal.Correction.Weighted>
   9.000000E+99

> <Gold.Protein.RotatedTorsions>
[ 6907 6896 6895 6894 ] final  140.54 input  -60.11 | X-H torsion
[ 7974 7965 7964 7962 ] final  108.61 input  175.53 | X-H torsion
[ 8008 7997 7996 7995 ] final  -82.50 input   59.86 | X-H torsion
[ 10167 10162 10161 10158 ] final  -70.81 input  -65.29 | X-H torsion
[ 10718 10713 10712 10709 ] final   18.67 input   66.30 | X-H torsion
[ 10763 10752 10751 10750 ] final  -72.32 input  -60.55 | X-H torsion
[ 11005 11000 10999 10996 ] final  -69.84 input  -57.11 | X-H torsion

> <Gold.Protein.ActiveResidues>
 VAL166  LYS551  ARG553  GLY616  TRP617  ASP618  TYR619  PRO620  LYS621  CYS622 
 ASP623  PHE694  ASN695  SER759  ASP760  ASP761  ALA762  ILE779  LEU786  VAL792 
 PHE793  MET794  SER795  GLU796  ALA797  LYS798  CYS799  TRP800  GLU811  SER814 

> <Gold.Protein.RotatedAtoms>
  152.2418  133.5141  159.5274 H   0  0  0  0  0  0  0  0  0  0  0  0  # atno 6907 bound_to 6896
  150.7066  134.1079  159.3998 H   0  0  0  0  0  0  0  0  0  0  0  0  # atno 6908 bound_to 6896
  151.9000  135.0382  160.0556 H   0  0  0  0  0  0  0  0  0  0  0  0  # atno 6909 bound_to 6896
  145.2785  139.2641  143.3928 H   0  0  0  0  0  0  0  0  0  0  0  0  # atno 7974 bound_to 7965
  154.6093  140.0632  156.9472 H   0  0  0  0  0  0  0  0  0  0  0  0  # atno 8008 bound_to 7997
  155.2000  140.3314  155.4326 H   0  0  0  0  0  0  0  0  0  0  0  0  # atno 8009 bound_to 7997
  156.2367  140.1866  156.7084 H   0  0  0  0  0  0  0  0  0  0  0  0  # atno 8010 bound_to 7997
  140.5323  143.2320  151.7240 H   0  0  0  0  0  0  0  0  0  0  0  0  # atno 10167 bound_to 10162
  157.0996  130.6462  149.5869 H   0  0  0  0  0  0  0  0  0  0  0  0  # atno 10718 bound_to 10713
  154.4440  135.5934  153.6148 H   0  0  0  0  0  0  0  0  0  0  0  0  # atno 10763 bound_to 10752
  152.9808  135.6005  154.3687 H   0  0  0  0  0  0  0  0  0  0  0  0  # atno 10764 bound_to 10752
  154.3540  135.2841  155.2335 H   0  0  0  0  0  0  0  0  0  0  0  0  # atno 10765 bound_to 10752
  141.1562  133.6774  156.6661 H   0  0  0  0  0  0  0  0  0  0  0  0  # atno 11005 bound_to 11000
  146.3224  140.3246  142.8636 LP  0  0  0  0  0  0  0  0  0  0  0  0  # atno 17320 bound_to 7965
  144.9274  140.7936  143.5710 LP  0  0  0  0  0  0  0  0  0  0  0  0  # atno 17321 bound_to 7965
  139.4958  144.4096  152.0095 LP  0  0  0  0  0  0  0  0  0  0  0  0  # atno 17342 bound_to 10162
  140.3199  144.3440  150.6012 LP  0  0  0  0  0  0  0  0  0  0  0  0  # atno 17343 bound_to 10162
  155.9877  130.4917  150.7136 LP  0  0  0  0  0  0  0  0  0  0  0  0  # atno 17370 bound_to 10713
  157.4652  131.0887  151.0703 LP  0  0  0  0  0  0  0  0  0  0  0  0  # atno 17371 bound_to 10713
  140.3210  134.8007  157.4253 LP  0  0  0  0  0  0  0  0  0  0  0  0  # atno 17394 bound_to 11000
  140.1096  134.5363  155.8278 LP  0  0  0  0  0  0  0  0  0  0  0  0  # atno 17395 bound_to 11000

$$$$
