AV-unprocessed.smi:1921|AV-procd|sdf|7786|dock1
  -GOLD-   22720 9533D 1   1.00000     0.00000
 Structure written by MMmdl.
 27 28  0  0  0  0  0  0  0  0  1 V2000
  151.4812  142.0529  158.9074 C   0  0  0  0  0  0  0  0  0  0  0  0
  151.7183  143.0344  157.7514 C   0  0  1  0  0  0  0  0  0  0  0  0
  150.6029  142.9306  156.8156 N   0  0  0  0  0  0  0  0  0  0  0  0
  150.2024  141.8063  156.2042 C   0  0  0  0  0  0  0  0  0  0  0  0
  150.7411  140.7116  156.3709 O   0  0  0  0  0  0  0  0  0  0  0  0
  149.1501  142.0399  155.4007 N   0  0  0  0  0  0  0  0  0  0  0  0
  148.4425  141.1153  154.5886 C   0  0  0  0  0  0  0  0  0  0  0  0
  148.8088  139.8423  154.3980 N   0  0  0  0  0  0  0  0  0  0  0  0
  147.9275  139.1638  153.5525 C   0  0  0  0  0  0  0  0  0  0  0  0
  146.8885  139.9410  153.1046 C   0  0  0  0  0  0  0  0  0  0  0  0
  146.9768  141.5661  153.7298 S   0  0  0  0  0  0  0  0  0  0  0  0
  151.9396  144.4439  158.2748 C   0  0  0  0  0  0  0  0  0  0  0  0
  152.2065  144.7082  159.7380 C   0  0  0  0  0  0  0  0  0  0  0  0
  150.8938  145.1316  159.1203 C   0  0  0  0  0  0  0  0  0  0  0  0
  152.3204  142.0559  159.6035 H   0  0  0  0  0  0  0  0  0  0  0  0
  151.3645  141.0326  158.5405 H   0  0  0  0  0  0  0  0  0  0  0  0
  150.5829  142.3106  159.4696 H   0  0  0  0  0  0  0  0  0  0  0  0
  152.6293  142.7169  157.2401 H   0  0  0  0  0  0  0  0  0  0  0  0
  150.0998  143.7829  156.6170 H   0  0  0  0  0  0  0  0  0  0  0  0
  148.8138  142.9909  155.3671 H   0  0  0  0  0  0  0  0  0  0  0  0
  148.1161  138.1258  153.3218 H   0  0  0  0  0  0  0  0  0  0  0  0
  146.0800  139.6572  152.4473 H   0  0  0  0  0  0  0  0  0  0  0  0
  152.4664  145.0882  157.5729 H   0  0  0  0  0  0  0  0  0  0  0  0
  152.1874  143.8613  160.4209 H   0  0  0  0  0  0  0  0  0  0  0  0
  152.9243  145.4882  159.9830 H   0  0  0  0  0  0  0  0  0  0  0  0
  150.7347  146.1950  158.9551 H   0  0  0  0  0  0  0  0  0  0  0  0
  150.0064  144.5634  159.3926 H   0  0  0  0  0  0  0  0  0  0  0  0
  1  2  1  0  0  0  0
  1 15  1  0  0  0  0
  1 16  1  0  0  0  0
  1 17  1  0  0  0  0
  2  3  1  0  0  0  0
  2 12  1  0  0  0  0
  2 18  1  0  0  0  0
  3  4  1  0  0  0  0
  3 19  1  0  0  0  0
  4  5  2  0  0  0  0
  4  6  1  0  0  0  0
  6  7  1  0  0  0  0
  6 20  1  0  0  0  0
  7 11  1  0  0  0  0
  7  8  2  0  0  0  0
  8  9  1  0  0  0  0
  9 10  2  0  0  0  0
  9 21  1  0  0  0  0
 10 11  1  0  0  0  0
 10 22  1  0  0  0  0
 12 14  1  0  0  0  0
 12 13  1  0  0  0  0
 12 23  1  0  0  0  0
 13 14  1  0  0  0  0
 13 24  1  0  0  0  0
 13 25  1  0  0  0  0
 14 26  1  0  0  0  0
 14 27  1  0  0  0  0
M  END
> <s_m_source_file>
AV-unprocessed.smi

> <i_m_source_file_index>
1921

> <i_lp_mmshare_version>
43012

> <i_f3d_flags>
0

> <s_epik_input>
W0NIMl0xW0NIMl1bQ0hdMVtDQEhdKFtDSDNdKVtOSF1DKD1PKVtOSF1jMm5bY0hdW2NIXXMy

> <s_epik_cmdline>
J2VwaWtfcHl0aG9uJywgJy1waCcsICc3LjAnLCAnLXRuJywgJzgnLCAnLW1hJywgJzIwMCcsICctbWV0YWxfYmluZGluZycsICctaW1hZScsICc8aW5maWxlLm1hZT4nLCAnLW9tYWUnLCAnPG91dGZpbGUubWFlPic=

> <r_lp_tautomer_probability>
0.999

> <r_epik_Ionization_Penalty>
0.000426276

> <r_epik_Ionization_Penalty_Charging>
0

> <r_epik_Ionization_Penalty_Neutral>
0.000426276

> <r_epik_State_Penalty>
0.000177984

> <r_epik_Charging_Adjusted_Penalty>
0.000177984

> <i_epik_Tot_Q>
0

> <i_epik_Tot_abs_Q>
0

> <r_epik_Metal_State_Penalty>
-0

> <b_epik_Metal_Only>
0

> <s_lp_Force_Field>
OPLS_2005

> <r_lp_Energy>
11.4046

> <b_lp_Chiralities_Consistent>
1

> <s_lp_Variant>
AV-unprocessed.smi:1921-2

> <Gold.Version>
5.8.1

> <Gold.Id.Protein>
6NUR|6NUR_protein|mol2

> <Gold.PLP.Fitness>
42.6339

> <Gold.PLP.PLP>
-30.9908

> <Gold.PLP.part.hbond>
-2.0000

> <Gold.PLP.part.metal>
0.0000

> <Gold.PLP.part.buried>
-4.6087

> <Gold.PLP.part.nonpolar>
-26.0974

> <Gold.PLP.part.repulsive>
0.3482

> <Gold.PLP.ligand.clash>
0.0000

> <Gold.PLP.ligand.torsion>
0.6690

> <Gold.PLP.Chemscore.Hbond>
2.0000

> <Gold.PLP.Chemscore.CHOScore>
1.9732

> <Gold.PLP.Chemscore.Metal>
0.0000

> <Gold.Chemscore.Hbonds>
donor molecule, donor type, donor heavy atom, donor atom, acceptor molecule, acceptor atom, score
      L1  H     3    19       P1  8028  1.00
      L1  H     6    20       P1  8028  1.00
      L1  C     9    21       P1  7948  1.00
      L1  C    10    22       P1 10175  0.97

> <Gold.PLP.Chemscore.Internal.Correction>
1.0614

> <Gold.Rescore>
     Score         DG    S(hbond)    S(metal)    S(lipo)     H(rot)  DE(clash)    DE(int)     intcor
     15.98     -18.02       1.95        0.00      79.07       1.26       0.11       1.93       ----

> <Gold.Chemscore.Fitness>
15.9809

> <Gold.Chemscore.DG>
-18.0242

> <Gold.Chemscore.ZeroCoef>
-5.4800

> <Gold.Chemscore.Hbond>
1.9509

> <Gold.Chemscore.Metal>
0.0000

> <Gold.Chemscore.Lipo>
79.0732

> <Gold.Chemscore.Internal_Hbond>
0.0000

> <Gold.Chemscore.DEClash>
0.1118

> <Gold.Chemscore.DEInternal>
1.9315

> <Gold.Chemscore.Rot>
1.2591

> <Gold.Chemscore.Internal.Correction>
   9.000000E+99

> <Gold.Chemscore.Hbonds>
donor molecule, donor type, donor heavy atom, donor atom, acceptor molecule, acceptor atom, score
      L1  H     3    19       P1  8028  0.96
      L1  H     6    20       P1  8028  0.99

> <Gold.Chemscore.Hbond.Weighted>
-6.5159

> <Gold.Chemscore.Metal.Weighted>
-0.0000

> <Gold.Chemscore.Lipo.Weighted>
-9.2516

> <Gold.Chemscore.Internal_Hbond.Weighted>
0.0000

> <Gold.Chemscore.DEClash.Weighted>
0.1118

> <Gold.Chemscore.DEInternal.Weighted>
1.9315

> <Gold.Chemscore.Rot.Weighted>
3.2233

> <Gold.Chemscore.Internal.Correction.Weighted>
   9.000000E+99

> <Gold.Protein.RotatedTorsions>
[ 6907 6896 6895 6894 ] final  136.01 input  -60.11 | X-H torsion
[ 7974 7965 7964 7962 ] final  -63.10 input  175.53 | X-H torsion
[ 8008 7997 7996 7995 ] final   38.72 input   59.86 | X-H torsion
[ 10167 10162 10161 10158 ] final  -21.00 input  -65.29 | X-H torsion
[ 10718 10713 10712 10709 ] final -130.17 input   66.30 | X-H torsion
[ 10763 10752 10751 10750 ] final -105.48 input  -60.55 | X-H torsion
[ 11005 11000 10999 10996 ] final   20.15 input  -57.11 | X-H torsion

> <Gold.Protein.ActiveResidues>
 VAL166  LYS551  ARG553  GLY616  TRP617  ASP618  TYR619  PRO620  LYS621  CYS622 
 ASP623  PHE694  ASN695  SER759  ASP760  ASP761  ALA762  ILE779  LEU786  VAL792 
 PHE793  MET794  SER795  GLU796  ALA797  LYS798  CYS799  TRP800  GLU811  SER814 

> <Gold.Protein.RotatedAtoms>
  152.2941  133.5590  159.5575 H   0  0  0  0  0  0  0  0  0  0  0  0  # atno 6907 bound_to 6896
  150.7248  134.0387  159.3767 H   0  0  0  0  0  0  0  0  0  0  0  0  # atno 6908 bound_to 6896
  151.8291  135.0627  160.0485 H   0  0  0  0  0  0  0  0  0  0  0  0  # atno 6909 bound_to 6896
  145.7831  140.8751  143.0320 H   0  0  0  0  0  0  0  0  0  0  0  0  # atno 7974 bound_to 7965
  155.2249  140.3334  155.4311 H   0  0  0  0  0  0  0  0  0  0  0  0  # atno 8008 bound_to 7997
  156.2318  140.1854  156.7269 H   0  0  0  0  0  0  0  0  0  0  0  0  # atno 8009 bound_to 7997
  154.5991  140.0626  156.9330 H   0  0  0  0  0  0  0  0  0  0  0  0  # atno 8010 bound_to 7997
  140.7279  143.4669  151.0301 H   0  0  0  0  0  0  0  0  0  0  0  0  # atno 10167 bound_to 10162
  156.2118  130.6923  151.0658 H   0  0  0  0  0  0  0  0  0  0  0  0  # atno 10718 bound_to 10713
  154.7949  135.4747  154.0138 H   0  0  0  0  0  0  0  0  0  0  0  0  # atno 10763 bound_to 10752
  153.1688  135.6821  153.8644 H   0  0  0  0  0  0  0  0  0  0  0  0  # atno 10764 bound_to 10752
  153.8234  135.3201  155.3390 H   0  0  0  0  0  0  0  0  0  0  0  0  # atno 10765 bound_to 10752
  140.4058  134.1671  155.7665 H   0  0  0  0  0  0  0  0  0  0  0  0  # atno 11005 bound_to 11000
  144.6793  140.0018  143.7484 LP  0  0  0  0  0  0  0  0  0  0  0  0  # atno 17320 bound_to 7965
  146.0053  139.3125  143.0903 LP  0  0  0  0  0  0  0  0  0  0  0  0  # atno 17321 bound_to 7965
  139.8358  143.7630  152.3180 LP  0  0  0  0  0  0  0  0  0  0  0  0  # atno 17342 bound_to 10162
  139.7761  144.7460  151.0154 LP  0  0  0  0  0  0  0  0  0  0  0  0  # atno 17343 bound_to 10162
  157.7042  131.0763  150.6720 LP  0  0  0  0  0  0  0  0  0  0  0  0  # atno 17370 bound_to 10713
  156.6780  130.4559  149.5636 LP  0  0  0  0  0  0  0  0  0  0  0  0  # atno 17371 bound_to 10713
  141.1840  133.8353  157.1156 LP  0  0  0  0  0  0  0  0  0  0  0  0  # atno 17394 bound_to 11000
  140.0303  134.9904  157.0768 LP  0  0  0  0  0  0  0  0  0  0  0  0  # atno 17395 bound_to 11000

$$$$
