AV-unprocessed.smi:1793|AV-procd|sdf|7225|dock9
  -GOLD-   22720 8473D 1   1.00000     0.00000
 Structure written by MMmdl.
 46 48  0  0  0  0  0  0  0  0  1 V2000
  145.5348  135.6883  159.0129 C   0  0  0  0  0  0  0  0  0  0  0  0
  147.0647  135.5577  159.0205 C   0  0  1  0  0  0  0  0  0  0  0  0
  147.6357  136.6109  158.1826 N   0  0  0  0  0  0  0  0  0  0  0  0
  148.9216  136.7183  157.8188 C   0  0  0  0  0  0  0  0  0  0  0  0
  149.7982  135.9220  158.1544 O   0  0  0  0  0  0  0  0  0  0  0  0
  149.1112  137.7940  157.0371 N   0  0  0  0  0  0  0  0  0  0  0  0
  150.3063  138.2059  156.3822 C   0  0  0  0  0  0  0  0  0  0  0  0
  151.5312  137.5225  156.5797 C   0  0  0  0  0  0  0  0  0  0  0  0
  152.6992  138.0073  155.9665 C   0  0  0  0  0  0  0  0  0  0  0  0
  152.6057  139.1723  155.1878 C   0  0  0  0  0  0  0  0  0  0  0  0
  151.4513  139.8424  155.0015 N   0  0  0  0  0  0  0  0  0  0  0  0
  150.3121  139.3794  155.5736 C   0  0  0  0  0  0  0  0  0  0  0  0
  149.1315  140.1191  155.3288 N   0  0  0  0  0  0  0  0  0  0  0  0
  149.1971  141.5518  155.0604 C   0  0  0  0  0  0  0  0  0  0  0  0
  147.8309  141.9095  154.4821 C   0  0  0  0  0  0  0  0  0  0  0  0
  147.4828  140.6627  153.6749 C   0  0  0  0  0  0  0  0  0  0  0  0
  148.0975  139.5198  154.4897 C   0  0  0  0  0  0  0  0  0  0  0  0
  147.6437  135.6454  160.4459 C   0  0  2  0  0  0  0  0  0  0  0  0
  147.3091  134.4581  161.3503 C   0  0  0  0  0  0  0  0  0  0  0  0
  147.4335  135.0356  162.7509 C   0  0  0  0  0  0  0  0  0  0  0  0
  147.3735  136.5512  162.5363 C   0  0  0  0  0  0  0  0  0  0  0  0
  147.0655  136.7268  161.1598 O   0  0  0  0  0  0  0  0  0  0  0  0
  145.0701  134.9011  159.6074 H   0  0  0  0  0  0  0  0  0  0  0  0
  145.1394  135.6093  157.9996 H   0  0  0  0  0  0  0  0  0  0  0  0
  145.2145  136.6469  159.4225 H   0  0  0  0  0  0  0  0  0  0  0  0
  147.3142  134.5765  158.6130 H   0  0  0  0  0  0  0  0  0  0  0  0
  146.9942  137.3173  157.8531 H   0  0  0  0  0  0  0  0  0  0  0  0
  148.2810  138.3077  156.7805 H   0  0  0  0  0  0  0  0  0  0  0  0
  151.5994  136.6493  157.2103 H   0  0  0  0  0  0  0  0  0  0  0  0
  153.6458  137.5055  156.1013 H   0  0  0  0  0  0  0  0  0  0  0  0
  153.4816  139.5817  154.7067 H   0  0  0  0  0  0  0  0  0  0  0  0
  149.4145  142.1172  155.9667 H   0  0  0  0  0  0  0  0  0  0  0  0
  149.9706  141.7722  154.3235 H   0  0  0  0  0  0  0  0  0  0  0  0
  147.1075  142.0464  155.2871 H   0  0  0  0  0  0  0  0  0  0  0  0
  147.8483  142.8190  153.8811 H   0  0  0  0  0  0  0  0  0  0  0  0
  146.4108  140.5419  153.5178 H   0  0  0  0  0  0  0  0  0  0  0  0
  147.9624  140.7152  152.6966 H   0  0  0  0  0  0  0  0  0  0  0  0
  148.4945  138.7370  153.8419 H   0  0  0  0  0  0  0  0  0  0  0  0
  147.3378  139.0751  155.1330 H   0  0  0  0  0  0  0  0  0  0  0  0
  148.7260  135.7864  160.4092 H   0  0  0  0  0  0  0  0  0  0  0  0
  146.2817  134.1339  161.1787 H   0  0  0  0  0  0  0  0  0  0  0  0
  147.9636  133.6019  161.1849 H   0  0  0  0  0  0  0  0  0  0  0  0
  146.6281  134.6823  163.3954 H   0  0  0  0  0  0  0  0  0  0  0  0
  148.3808  134.7540  163.2117 H   0  0  0  0  0  0  0  0  0  0  0  0
  146.6251  137.0330  163.1659 H   0  0  0  0  0  0  0  0  0  0  0  0
  148.3413  137.0069  162.7492 H   0  0  0  0  0  0  0  0  0  0  0  0
  1  2  1  0  0  0  0
  1 23  1  0  0  0  0
  1 24  1  0  0  0  0
  1 25  1  0  0  0  0
  2  3  1  0  0  0  0
  2 18  1  0  0  0  0
  2 26  1  0  0  0  0
  3  4  1  0  0  0  0
  3 27  1  0  0  0  0
  4  5  2  0  0  0  0
  4  6  1  0  0  0  0
  6  7  1  0  0  0  0
  6 28  1  0  0  0  0
  7 12  1  0  0  0  0
  7  8  2  0  0  0  0
  8  9  1  0  0  0  0
  8 29  1  0  0  0  0
  9 10  2  0  0  0  0
  9 30  1  0  0  0  0
 10 11  1  0  0  0  0
 10 31  1  0  0  0  0
 11 12  2  0  0  0  0
 12 13  1  0  0  0  0
 13 17  1  0  0  0  0
 13 14  1  0  0  0  0
 14 15  1  0  0  0  0
 14 32  1  0  0  0  0
 14 33  1  0  0  0  0
 15 16  1  0  0  0  0
 15 34  1  0  0  0  0
 15 35  1  0  0  0  0
 16 17  1  0  0  0  0
 16 36  1  0  0  0  0
 16 37  1  0  0  0  0
 17 38  1  0  0  0  0
 17 39  1  0  0  0  0
 18 22  1  0  0  0  0
 18 19  1  0  0  0  0
 18 40  1  0  0  0  0
 19 20  1  0  0  0  0
 19 41  1  0  0  0  0
 19 42  1  0  0  0  0
 20 21  1  0  0  0  0
 20 43  1  0  0  0  0
 20 44  1  0  0  0  0
 21 22  1  0  0  0  0
 21 45  1  0  0  0  0
 21 46  1  0  0  0  0
M  END
> <s_m_source_file>
AV-unprocessed.smi

> <i_m_source_file_index>
1793

> <i_lp_mmshare_version>
43012

> <i_f3d_flags>
0

> <s_epik_input>
TzFbQ0gyXVtDSDJdW0NIMl1bQ0BIXTFbQ0BIXShbQ0gzXSlbTkhdQyg9TylbTkhdYzJbY0hdW2NIXVtjSF1uYzJOM1tDSDJdW0NIMl1bQ0gyXVtDSDJdMw==

> <s_epik_cmdline>
J2VwaWtfcHl0aG9uJywgJy1waCcsICc3LjAnLCAnLXRuJywgJzgnLCAnLW1hJywgJzIwMCcsICctbWV0YWxfYmluZGluZycsICctaW1hZScsICc8aW5maWxlLm1hZT4nLCAnLW9tYWUnLCAnPG91dGZpbGUubWFlPic=

> <r_lp_tautomer_probability>
1

> <r_epik_Ionization_Penalty>
0.0992086

> <r_epik_Ionization_Penalty_Charging>
0

> <r_epik_Ionization_Penalty_Neutral>
0.0992086

> <r_epik_State_Penalty>
0.0887141

> <r_epik_Charging_Adjusted_Penalty>
0.0887141

> <i_epik_Tot_Q>
0

> <i_epik_Tot_abs_Q>
0

> <r_epik_Metal_State_Penalty>
0.075945

> <b_epik_Metal_Only>
0

> <s_lp_Force_Field>
OPLS_2005

> <r_lp_Energy>
46.0011

> <b_lp_Chiralities_Consistent>
1

> <s_lp_Variant>
AV-unprocessed.smi:1793-2

> <Gold.Version>
5.8.1

> <Gold.Id.Protein>
6NUR|6NUR_protein|mol2

> <Gold.PLP.Fitness>
42.4334

> <Gold.PLP.PLP>
-34.3820

> <Gold.PLP.part.hbond>
-3.6504

> <Gold.PLP.part.metal>
0.0000

> <Gold.PLP.part.buried>
-2.7778

> <Gold.PLP.part.nonpolar>
-28.8207

> <Gold.PLP.part.repulsive>
0.1822

> <Gold.PLP.ligand.clash>
0.0000

> <Gold.PLP.ligand.torsion>
0.6541

> <Gold.PLP.Chemscore.Hbond>
3.0000

> <Gold.PLP.Chemscore.CHOScore>
0.0000

> <Gold.PLP.Chemscore.Metal>
0.0000

> <Gold.Chemscore.Hbonds>
donor molecule, donor type, donor heavy atom, donor atom, acceptor molecule, acceptor atom, score
      P1  H  6896  6908       L1     5  0.80
      P1  H  6934  6947       L1    22  0.31
      P1  H  7989  7998       L1    11  1.00

> <Gold.PLP.Chemscore.Internal.Correction>
0.3596

> <Gold.Rescore>
     Score         DG    S(hbond)    S(metal)    S(lipo)     H(rot)  DE(clash)    DE(int)     intcor
     16.31     -18.35       1.87        0.00      86.45       1.36       0.03       2.02       ----

> <Gold.Chemscore.Fitness>
16.3103

> <Gold.Chemscore.DG>
-18.3545

> <Gold.Chemscore.ZeroCoef>
-5.4800

> <Gold.Chemscore.Hbond>
1.8672

> <Gold.Chemscore.Metal>
0.0000

> <Gold.Chemscore.Lipo>
86.4539

> <Gold.Chemscore.Internal_Hbond>
0.0000

> <Gold.Chemscore.DEClash>
0.0263

> <Gold.Chemscore.DEInternal>
2.0178

> <Gold.Chemscore.Rot>
1.3582

> <Gold.Chemscore.Internal.Correction>
   9.000000E+99

> <Gold.Chemscore.Hbonds>
donor molecule, donor type, donor heavy atom, donor atom, acceptor molecule, acceptor atom, score
      P1  H  6896  6908       L1     5  0.75
      P1  H  6934  6947       L1    22  0.11
      P1  H  7989  7998       L1    11  0.60

> <Gold.Chemscore.Hbond.Weighted>
-6.2364

> <Gold.Chemscore.Metal.Weighted>
-0.0000

> <Gold.Chemscore.Lipo.Weighted>
-10.1151

> <Gold.Chemscore.Internal_Hbond.Weighted>
0.0000

> <Gold.Chemscore.DEClash.Weighted>
0.0263

> <Gold.Chemscore.DEInternal.Weighted>
2.0178

> <Gold.Chemscore.Rot.Weighted>
3.4771

> <Gold.Chemscore.Internal.Correction.Weighted>
   9.000000E+99

> <Gold.Protein.RotatedTorsions>
[ 6907 6896 6895 6894 ] final -175.77 input  -60.11 | X-H torsion
[ 7974 7965 7964 7962 ] final  102.51 input  175.53 | X-H torsion
[ 8008 7997 7996 7995 ] final   62.33 input   59.86 | X-H torsion
[ 10167 10162 10161 10158 ] final  147.76 input  -65.29 | X-H torsion
[ 10718 10713 10712 10709 ] final  177.07 input   66.30 | X-H torsion
[ 10763 10752 10751 10750 ] final -144.91 input  -60.55 | X-H torsion
[ 11005 11000 10999 10996 ] final   79.74 input  -57.11 | X-H torsion

> <Gold.Protein.ActiveResidues>
 VAL166  LYS551  ARG553  GLY616  TRP617  ASP618  TYR619  PRO620  LYS621  CYS622 
 ASP623  PHE694  ASN695  SER759  ASP760  ASP761  ALA762  ILE779  LEU786  VAL792 
 PHE793  MET794  SER795  GLU796  ALA797  LYS798  CYS799  TRP800  GLU811  SER814 

> <Gold.Protein.RotatedAtoms>
  151.5939  133.3363  159.3033 H   0  0  0  0  0  0  0  0  0  0  0  0  # atno 6907 bound_to 6896
  150.8245  134.7472  159.6812 H   0  0  0  0  0  0  0  0  0  0  0  0  # atno 6908 bound_to 6896
  152.4335  134.5737  159.9980 H   0  0  0  0  0  0  0  0  0  0  0  0  # atno 6909 bound_to 6896
  145.3581  139.2424  143.3521 H   0  0  0  0  0  0  0  0  0  0  0  0  # atno 7974 bound_to 7965
  155.6127  140.3495  155.4627 H   0  0  0  0  0  0  0  0  0  0  0  0  # atno 8008 bound_to 7997
  156.0142  140.1239  157.0448 H   0  0  0  0  0  0  0  0  0  0  0  0  # atno 8009 bound_to 7997
  154.4291  140.1075  156.5858 H   0  0  0  0  0  0  0  0  0  0  0  0  # atno 8010 bound_to 7997
  139.4885  144.5731  151.7017 H   0  0  0  0  0  0  0  0  0  0  0  0  # atno 10167 bound_to 10162
  156.9108  130.9909  151.3021 H   0  0  0  0  0  0  0  0  0  0  0  0  # atno 10718 bound_to 10713
  154.8407  135.3427  154.6421 H   0  0  0  0  0  0  0  0  0  0  0  0  # atno 10763 bound_to 10752
  153.7032  135.6968  153.5062 H   0  0  0  0  0  0  0  0  0  0  0  0  # atno 10764 bound_to 10752
  153.2507  135.4354  155.0749 H   0  0  0  0  0  0  0  0  0  0  0  0  # atno 10765 bound_to 10752
  139.9161  134.7866  156.1819 H   0  0  0  0  0  0  0  0  0  0  0  0  # atno 11005 bound_to 11000
  146.2939  140.4210  142.8729 LP  0  0  0  0  0  0  0  0  0  0  0  0  # atno 17320 bound_to 7965
  144.8667  140.7215  143.6073 LP  0  0  0  0  0  0  0  0  0  0  0  0  # atno 17321 bound_to 7965
  140.5322  144.0712  150.6057 LP  0  0  0  0  0  0  0  0  0  0  0  0  # atno 17342 bound_to 10162
  140.3706  143.2856  152.0282 LP  0  0  0  0  0  0  0  0  0  0  0  0  # atno 17343 bound_to 10162
  157.5969  130.8484  149.8742 LP  0  0  0  0  0  0  0  0  0  0  0  0  # atno 17370 bound_to 10713
  156.0537  130.3712  150.1141 LP  0  0  0  0  0  0  0  0  0  0  0  0  # atno 17371 bound_to 10713
  141.0637  133.6829  156.2003 LP  0  0  0  0  0  0  0  0  0  0  0  0  # atno 17394 bound_to 11000
  140.6619  134.4958  157.5584 LP  0  0  0  0  0  0  0  0  0  0  0  0  # atno 17395 bound_to 11000

$$$$
