AV-unprocessed.smi:171|AV-procd|sdf|1418|dock8
  -GOLD-   2262019183D 1   1.00000     0.00000
 Structure written by MMmdl.
 56 59  0  0  0  0  0  0  0  0  1 V2000
  154.3768  141.3404  160.1864 C   0  0  0  0  0  0  0  0  0  0  0  0
  153.2807  141.9664  159.3078 C   0  0  0  0  0  0  0  0  0  0  0  0
  152.4991  143.0203  160.1083 C   0  0  0  0  0  0  0  0  0  0  0  0
  152.3183  140.9091  158.7028 C   0  0  0  0  0  0  0  0  0  0  0  0
  151.8358  141.1613  157.2441 C   0  0  2  0  0  0  0  0  0  0  0  0
  151.1324  142.5268  157.0699 C   0  0  0  0  0  0  0  0  0  0  0  0
  151.6375  143.5403  157.5489 O   0  0  0  0  0  0  0  0  0  0  0  0
  149.9881  142.5886  156.3673 N   0  0  0  0  0  0  0  0  0  0  0  0
  149.3026  141.4499  155.7629 C   0  0  0  0  0  0  0  0  0  0  0  0
  150.2400  140.2545  155.5441 C   0  0  0  0  0  0  0  0  0  0  0  0
  151.0400  140.0292  156.7403 N   0  0  0  0  0  0  0  0  0  0  0  0
  151.6356  138.8158  156.7484 C   0  0  0  0  0  0  0  0  0  0  0  0
  152.9803  138.7161  156.9119 N   0  0  0  0  0  0  0  0  0  0  0  0
  153.5578  137.5109  156.9425 C   0  0  0  0  0  0  0  0  0  0  0  0
  152.9878  136.3080  156.8344 N   0  0  0  0  0  0  0  0  0  0  0  0
  151.6378  136.4114  156.6670 C   0  0  0  0  0  0  0  0  0  0  0  0
  150.8897  137.6186  156.6013 C   0  0  0  0  0  0  0  0  0  0  0  0
  149.5421  137.3399  156.4169 N   0  0  0  0  0  0  0  0  0  0  0  0
  149.4930  136.0363  156.3869 C   0  0  0  0  0  0  0  0  0  0  0  0
  150.7036  135.3983  156.5415 N   0  0  0  0  0  0  0  0  0  0  0  0
  150.9319  133.9630  156.5665 C   0  0  0  0  0  0  0  0  0  0  0  0
  149.7827  133.1513  155.9225 C   0  0  1  0  0  0  0  0  0  0  0  0
  148.6634  133.1837  156.7934 O   0  0  0  0  0  0  0  0  0  0  0  0
  149.3454  133.6631  154.5580 C   0  0  0  0  0  0  0  0  0  0  0  0
  148.7053  132.4303  153.9311 C   0  0  0  0  0  0  0  0  0  0  0  0
  149.4738  131.3329  154.4082 O   0  0  0  0  0  0  0  0  0  0  0  0
  150.1794  131.6963  155.5943 C   0  0  2  0  0  0  0  0  0  0  0  0
  149.9644  130.6574  156.7061 C   0  0  0  0  0  0  0  0  0  0  0  0
  153.9483  140.7578  161.0025 H   0  0  0  0  0  0  0  0  0  0  0  0
  155.0109  142.1098  160.6274 H   0  0  0  0  0  0  0  0  0  0  0  0
  155.0290  140.6836  159.6129 H   0  0  0  0  0  0  0  0  0  0  0  0
  153.7799  142.5033  158.5020 H   0  0  0  0  0  0  0  0  0  0  0  0
  151.9625  142.5674  160.9424 H   0  0  0  0  0  0  0  0  0  0  0  0
  151.7700  143.5318  159.4786 H   0  0  0  0  0  0  0  0  0  0  0  0
  153.1665  143.7812  160.5139 H   0  0  0  0  0  0  0  0  0  0  0  0
  152.7671  139.9183  158.7851 H   0  0  0  0  0  0  0  0  0  0  0  0
  151.4305  140.8427  159.3329 H   0  0  0  0  0  0  0  0  0  0  0  0
  152.7256  141.2393  156.6172 H   0  0  0  0  0  0  0  0  0  0  0  0
  149.5528  143.4931  156.2570 H   0  0  0  0  0  0  0  0  0  0  0  0
  148.4885  141.1613  156.4286 H   0  0  0  0  0  0  0  0  0  0  0  0
  148.8479  141.7556  154.8204 H   0  0  0  0  0  0  0  0  0  0  0  0
  149.6552  139.3684  155.2905 H   0  0  0  0  0  0  0  0  0  0  0  0
  150.9058  140.4505  154.7018 H   0  0  0  0  0  0  0  0  0  0  0  0
  154.6292  137.5095  157.0787 H   0  0  0  0  0  0  0  0  0  0  0  0
  148.5637  135.5000  156.2611 H   0  0  0  0  0  0  0  0  0  0  0  0
  151.8706  133.7663  156.0470 H   0  0  0  0  0  0  0  0  0  0  0  0
  151.0850  133.6517  157.6007 H   0  0  0  0  0  0  0  0  0  0  0  0
  148.6576  134.0158  157.2416 H   0  0  0  0  0  0  0  0  0  0  0  0
  148.6715  134.5201  154.6032 H   0  0  0  0  0  0  0  0  0  0  0  0
  150.2168  133.9525  153.9691 H   0  0  0  0  0  0  0  0  0  0  0  0
  147.6765  132.3164  154.2749 H   0  0  0  0  0  0  0  0  0  0  0  0
  148.6963  132.4691  152.8415 H   0  0  0  0  0  0  0  0  0  0  0  0
  151.2339  131.6805  155.3159 H   0  0  0  0  0  0  0  0  0  0  0  0
  150.4987  130.9392  157.6137 H   0  0  0  0  0  0  0  0  0  0  0  0
  150.3327  129.6796  156.3952 H   0  0  0  0  0  0  0  0  0  0  0  0
  148.9093  130.5448  156.9559 H   0  0  0  0  0  0  0  0  0  0  0  0
  1  2  1  0  0  0  0
  1 29  1  0  0  0  0
  1 30  1  0  0  0  0
  1 31  1  0  0  0  0
  2  3  1  0  0  0  0
  2  4  1  0  0  0  0
  2 32  1  0  0  0  0
  3 33  1  0  0  0  0
  3 34  1  0  0  0  0
  3 35  1  0  0  0  0
  4  5  1  0  0  0  0
  4 36  1  0  0  0  0
  4 37  1  0  0  0  0
  5 11  1  0  0  0  0
  5  6  1  0  0  0  0
  5 38  1  0  0  0  0
  6  7  2  0  0  0  0
  6  8  1  0  0  0  0
  8  9  1  0  0  0  0
  8 39  1  0  0  0  0
  9 10  1  0  0  0  0
  9 40  1  0  0  0  0
  9 41  1  0  0  0  0
 10 11  1  0  0  0  0
 10 42  1  0  0  0  0
 10 43  1  0  0  0  0
 11 12  1  0  0  0  0
 12 17  1  0  0  0  0
 12 13  2  0  0  0  0
 13 14  1  0  0  0  0
 14 15  2  0  0  0  0
 14 44  1  0  0  0  0
 15 16  1  0  0  0  0
 16 20  1  0  0  0  0
 16 17  2  0  0  0  0
 17 18  1  0  0  0  0
 18 19  2  0  0  0  0
 19 20  1  0  0  0  0
 19 45  1  0  0  0  0
 20 21  1  0  0  0  0
 21 22  1  0  0  0  0
 21 46  1  0  0  0  0
 21 47  1  0  0  0  0
 22 27  1  0  0  0  0
 22 23  1  0  0  0  0
 22 24  1  0  0  0  0
 23 48  1  0  0  0  0
 24 25  1  0  0  0  0
 24 49  1  0  0  0  0
 24 50  1  0  0  0  0
 25 26  1  0  0  0  0
 25 51  1  0  0  0  0
 25 52  1  0  0  0  0
 26 27  1  0  0  0  0
 27 28  1  0  0  0  0
 27 53  1  0  0  0  0
 28 54  1  0  0  0  0
 28 55  1  0  0  0  0
 28 56  1  0  0  0  0
M  END
> <s_m_source_file>
AV-unprocessed.smi

> <i_m_source_file_index>
171

> <i_lp_mmshare_version>
43012

> <i_f3d_flags>
0

> <s_epik_input>
W0NIM11bQ0hdKFtDSDNdKVtDSDJdW0NAQEhdMUMoPU8pW05IXVtDSDJdW0NIMl1OMWMobltjSF1uMiljKGMyMyluW2NIXW4zW0NIMl1bQ0BAXTQoW09IXSlbQ0gyXVtDSDJdT1tDQEhdNFtDSDNd

> <s_epik_cmdline>
J2VwaWtfcHl0aG9uJywgJy1waCcsICc3LjAnLCAnLXRuJywgJzgnLCAnLW1hJywgJzIwMCcsICctbWV0YWxfYmluZGluZycsICctaW1hZScsICc8aW5maWxlLm1hZT4nLCAnLW9tYWUnLCAnPG91dGZpbGUubWFlPic=

> <r_lp_tautomer_probability>
1

> <r_epik_Ionization_Penalty>
0.000670584

> <r_epik_Ionization_Penalty_Charging>
0

> <r_epik_Ionization_Penalty_Neutral>
0.000670584

> <r_epik_State_Penalty>
0.000304767

> <r_epik_Charging_Adjusted_Penalty>
0.000304767

> <i_epik_Tot_Q>
0

> <i_epik_Tot_abs_Q>
0

> <r_epik_Metal_State_Penalty>
-0

> <b_epik_Metal_Only>
0

> <s_lp_Force_Field>
OPLS_2005

> <r_lp_Energy>
41.3949

> <b_lp_Chiralities_Consistent>
1

> <s_lp_Variant>
AV-unprocessed.smi:171-5

> <Gold.Version>
5.8.1

> <Gold.Id.Protein>
6NUR|6NUR_protein|mol2

> <Gold.PLP.Fitness>
48.2206

> <Gold.PLP.PLP>
-41.1135

> <Gold.PLP.part.hbond>
-2.9397

> <Gold.PLP.part.metal>
0.0000

> <Gold.PLP.part.buried>
-6.2827

> <Gold.PLP.part.nonpolar>
-32.9669

> <Gold.PLP.part.repulsive>
0.2742

> <Gold.PLP.ligand.clash>
0.0587

> <Gold.PLP.ligand.torsion>
1.1347

> <Gold.PLP.Chemscore.Hbond>
3.0000

> <Gold.PLP.Chemscore.CHOScore>
0.0000

> <Gold.PLP.Chemscore.Metal>
0.0000

> <Gold.Chemscore.Hbonds>
donor molecule, donor type, donor heavy atom, donor atom, acceptor molecule, acceptor atom, score
      L1  H     8    39       P1  8028  0.98
      P1  H  7997  8008       L1    13  1.00
      P1  H 10752 10764       L1    15  1.00

> <Gold.PLP.Chemscore.Internal.Correction>
0.4351

> <Gold.Rescore>
     Score         DG    S(hbond)    S(metal)    S(lipo)     H(rot)  DE(clash)    DE(int)     intcor
     11.45     -17.53       2.38        0.00      92.02       2.61       0.14       5.94       ----

> <Gold.Chemscore.Fitness>
11.4485

> <Gold.Chemscore.DG>
-17.5342

> <Gold.Chemscore.ZeroCoef>
-5.4800

> <Gold.Chemscore.Hbond>
2.3840

> <Gold.Chemscore.Metal>
0.0000

> <Gold.Chemscore.Lipo>
92.0206

> <Gold.Chemscore.Internal_Hbond>
0.0000

> <Gold.Chemscore.DEClash>
0.1434

> <Gold.Chemscore.DEInternal>
5.9423

> <Gold.Chemscore.Rot>
2.6074

> <Gold.Chemscore.Internal.Correction>
   9.000000E+99

> <Gold.Chemscore.Hbonds>
donor molecule, donor type, donor heavy atom, donor atom, acceptor molecule, acceptor atom, score
      L1  H     8    39       P1  8028  0.91
      P1  H  7997  8008       L1    13  0.68
      P1  H 10752 10764       L1    15  0.45

> <Gold.Chemscore.Hbond.Weighted>
-7.9626

> <Gold.Chemscore.Metal.Weighted>
-0.0000

> <Gold.Chemscore.Lipo.Weighted>
-10.7664

> <Gold.Chemscore.Internal_Hbond.Weighted>
0.0000

> <Gold.Chemscore.DEClash.Weighted>
0.1434

> <Gold.Chemscore.DEInternal.Weighted>
5.9423

> <Gold.Chemscore.Rot.Weighted>
6.6748

> <Gold.Chemscore.Internal.Correction.Weighted>
   9.000000E+99

> <Gold.Protein.RotatedTorsions>
[ 6907 6896 6895 6894 ] final  -32.44 input  -60.11 | X-H torsion
[ 7974 7965 7964 7962 ] final -133.30 input  175.53 | X-H torsion
[ 8008 7997 7996 7995 ] final  -53.42 input   59.86 | X-H torsion
[ 10167 10162 10161 10158 ] final   42.83 input  -65.29 | X-H torsion
[ 10718 10713 10712 10709 ] final   16.58 input   66.30 | X-H torsion
[ 10763 10752 10751 10750 ] final    3.09 input  -60.55 | X-H torsion
[ 11005 11000 10999 10996 ] final -168.02 input  -57.11 | X-H torsion

> <Gold.Protein.ActiveResidues>
 VAL166  LYS551  ARG553  GLY616  TRP617  ASP618  TYR619  PRO620  LYS621  CYS622 
 ASP623  PHE694  ASN695  SER759  ASP760  ASP761  ALA762  ILE779  LEU786  VAL792 
 PHE793  MET794  SER795  GLU796  ALA797  LYS798  CYS799  TRP800  GLU811  SER814 

> <Gold.Protein.RotatedAtoms>
  151.0787  134.9845  159.8345 H   0  0  0  0  0  0  0  0  0  0  0  0  # atno 6907 bound_to 6896
  152.5417  134.2208  159.8797 H   0  0  0  0  0  0  0  0  0  0  0  0  # atno 6908 bound_to 6896
  151.2237  133.4444  159.2635 H   0  0  0  0  0  0  0  0  0  0  0  0  # atno 6909 bound_to 6896
  144.9206  140.7009  143.4968 H   0  0  0  0  0  0  0  0  0  0  0  0  # atno 7974 bound_to 7965
  154.4133  140.1200  156.5150 H   0  0  0  0  0  0  0  0  0  0  0  0  # atno 8008 bound_to 7997
  155.6760  140.3496  155.4817 H   0  0  0  0  0  0  0  0  0  0  0  0  # atno 8009 bound_to 7997
  155.9592  140.1119  157.0900 H   0  0  0  0  0  0  0  0  0  0  0  0  # atno 8010 bound_to 7997
  140.3504  144.2357  150.6146 H   0  0  0  0  0  0  0  0  0  0  0  0  # atno 10167 bound_to 10162
  157.0699  130.6344  149.5803 H   0  0  0  0  0  0  0  0  0  0  0  0  # atno 10718 bound_to 10713
  153.2876  135.6946  153.7324 H   0  0  0  0  0  0  0  0  0  0  0  0  # atno 10763 bound_to 10752
  153.6287  135.3414  155.3035 H   0  0  0  0  0  0  0  0  0  0  0  0  # atno 10764 bound_to 10752
  154.8514  135.4404  154.1949 H   0  0  0  0  0  0  0  0  0  0  0  0  # atno 10765 bound_to 10752
  140.5467  134.5468  157.5113 H   0  0  0  0  0  0  0  0  0  0  0  0  # atno 11005 bound_to 11000
  145.3303  139.1761  143.4540 LP  0  0  0  0  0  0  0  0  0  0  0  0  # atno 17320 bound_to 7965
  146.3202  140.3332  142.8642 LP  0  0  0  0  0  0  0  0  0  0  0  0  # atno 17321 bound_to 7965
  140.5224  143.2262  151.8368 LP  0  0  0  0  0  0  0  0  0  0  0  0  # atno 17342 bound_to 10162
  139.4827  144.4820  151.9294 LP  0  0  0  0  0  0  0  0  0  0  0  0  # atno 17343 bound_to 10162
  155.9953  130.5020  150.7455 LP  0  0  0  0  0  0  0  0  0  0  0  0  # atno 17370 bound_to 10713
  157.4886  131.0909  151.0453 LP  0  0  0  0  0  0  0  0  0  0  0  0  # atno 17371 bound_to 10713
  139.9476  134.7675  156.0525 LP  0  0  0  0  0  0  0  0  0  0  0  0  # atno 17394 bound_to 11000
  141.1195  133.6617  156.3179 LP  0  0  0  0  0  0  0  0  0  0  0  0  # atno 17395 bound_to 11000

$$$$
