AV-unprocessed.smi:3105|AV-procd|sdf|11820|dock6
  -GOLD-   2272017193D 1   1.00000     0.00000
 Structure written by MMmdl.
 34 34  0  0  0  0  0  0  0  0  2 V2000
  151.6640  140.6183  157.5070 C   0  0  0  0  0  0  0  0  0  0  0  0
  151.3019  142.1137  157.3823 C   0  0  1  0  0  0  0  0  0  0  0  0
  150.2166  142.2973  156.3905 N   0  3  0  0  0  0  0  0  0  0  0  0
  148.9775  141.5362  156.6559 C   0  0  0  0  0  0  0  0  0  0  0  0
  149.0678  140.1193  156.0622 C   0  0  0  0  0  0  0  0  0  0  0  0
  149.8375  140.0638  154.7382 C   0  0  0  0  0  0  0  0  0  0  0  0
  149.1228  139.8086  153.6399 N   0  0  0  0  0  0  0  0  0  0  0  0
  151.0522  140.2491  154.6981 O   0  0  0  0  0  0  0  0  0  0  0  0
  150.8843  142.7470  158.7372 C   0  0  2  0  0  0  0  0  0  0  0  0
  150.4972  144.2326  158.6013 C   0  0  0  0  0  0  0  0  0  0  0  0
  151.9113  142.5936  159.7605 N   0  0  0  0  0  0  0  0  0  0  0  0
  153.1999  142.1217  159.6141 C   0  0  0  0  0  0  0  0  0  0  0  0
  153.7892  142.1542  160.8452 C   0  0  0  0  0  0  0  0  0  0  0  0
  152.7690  142.6636  161.6957 C   0  0  0  0  0  0  0  0  0  0  0  0
  151.6467  142.9241  161.0450 N   0  0  0  0  0  0  0  0  0  0  0  0
  152.5032  140.4595  158.1840 H   0  0  0  0  0  0  0  0  0  0  0  0
  151.9578  140.1904  156.5490 H   0  0  0  0  0  0  0  0  0  0  0  0
  150.8210  140.0389  157.8843 H   0  0  0  0  0  0  0  0  0  0  0  0
  152.1829  142.6479  157.0224 H   0  0  0  0  0  0  0  0  0  0  0  0
  149.9991  143.2811  156.3201 H   0  0  0  0  0  0  0  0  0  0  0  0
  148.8207  141.4811  157.7343 H   0  0  0  0  0  0  0  0  0  0  0  0
  148.1230  142.0624  156.2300 H   0  0  0  0  0  0  0  0  0  0  0  0
  149.5549  139.4540  156.7770 H   0  0  0  0  0  0  0  0  0  0  0  0
  148.0661  139.7217  155.8938 H   0  0  0  0  0  0  0  0  0  0  0  0
  149.5751  139.7577  152.7385 H   0  0  0  0  0  0  0  0  0  0  0  0
  148.1258  139.6643  153.7146 H   0  0  0  0  0  0  0  0  0  0  0  0
  150.0052  142.2110  159.0993 H   0  0  0  0  0  0  0  0  0  0  0  0
  149.6417  144.3670  157.9396 H   0  0  0  0  0  0  0  0  0  0  0  0
  151.3203  144.8264  158.2022 H   0  0  0  0  0  0  0  0  0  0  0  0
  150.2245  144.6544  159.5693 H   0  0  0  0  0  0  0  0  0  0  0  0
  153.5878  141.8057  158.6567 H   0  0  0  0  0  0  0  0  0  0  0  0
  154.7959  141.8573  161.1002 H   0  0  0  0  0  0  0  0  0  0  0  0
  152.8099  142.8498  162.7588 H   0  0  0  0  0  0  0  0  0  0  0  0
  150.5694  141.9833  155.4977 H   0  0  0  0  0  0  0  0  0  0  0  0
  1  2  1  0  0  0  0
  1 16  1  0  0  0  0
  1 17  1  0  0  0  0
  1 18  1  0  0  0  0
  2  3  1  0  0  0  0
  2  9  1  0  0  0  0
  2 19  1  0  0  0  0
  3  4  1  0  0  0  0
  3 20  1  0  0  0  0
  3 34  1  0  0  0  0
  4  5  1  0  0  0  0
  4 21  1  0  0  0  0
  4 22  1  0  0  0  0
  5  6  1  0  0  0  0
  5 23  1  0  0  0  0
  5 24  1  0  0  0  0
  6  7  1  0  0  0  0
  6  8  2  0  0  0  0
  7 25  1  0  0  0  0
  7 26  1  0  0  0  0
  9 10  1  0  0  0  0
  9 11  1  0  0  0  0
  9 27  1  0  0  0  0
 10 28  1  0  0  0  0
 10 29  1  0  0  0  0
 10 30  1  0  0  0  0
 11 15  1  0  0  0  0
 11 12  1  0  0  0  0
 12 13  2  0  0  0  0
 12 31  1  0  0  0  0
 13 14  1  0  0  0  0
 13 32  1  0  0  0  0
 14 15  2  0  0  0  0
 14 33  1  0  0  0  0
M  CHG  1   3   1
M  END
> <s_m_source_file>
AV-unprocessed.smi

> <i_m_source_file_index>
3105

> <i_lp_mmshare_version>
43012

> <i_f3d_flags>
0

> <s_epik_input>
W05IMl1DKD1PKVtDSDJdW0NIMl1bTkhdW0NAQEhdKFtDSDNdKVtDQEhdKFtDSDNdKW4xW2NIXVtjSF1bY0hdbjE=

> <s_epik_cmdline>
J2VwaWtfcHl0aG9uJywgJy1waCcsICc3LjAnLCAnLXRuJywgJzgnLCAnLW1hJywgJzIwMCcsICctbWV0YWxfYmluZGluZycsICctaW1hZScsICc8aW5maWxlLm1hZT4nLCAnLW9tYWUnLCAnPG91dGZpbGUubWFlPic=

> <r_lp_tautomer_probability>
1

> <r_epik_Ionization_Penalty>
0.00475669

> <r_epik_Ionization_Penalty_Charging>
0.00474654

> <r_epik_Ionization_Penalty_Neutral>
1.01546e-05

> <r_epik_State_Penalty>
-0

> <r_epik_Charging_Adjusted_Penalty>
0.00474654

> <i_epik_Tot_Q>
1

> <i_epik_Tot_abs_Q>
1

> <r_epik_Metal_State_Penalty>
-0

> <b_epik_Metal_Only>
0

> <s_lp_Force_Field>
OPLS_2005

> <r_lp_Energy>
9.05092

> <b_lp_Chiralities_Consistent>
1

> <s_lp_Variant>
AV-unprocessed.smi:3105-2

> <Gold.Version>
5.8.1

> <Gold.Id.Protein>
6NUR|6NUR_protein|mol2

> <Gold.PLP.Fitness>
44.2572

> <Gold.PLP.PLP>
-32.5909

> <Gold.PLP.part.hbond>
-3.9565

> <Gold.PLP.part.metal>
0.0000

> <Gold.PLP.part.buried>
-5.9847

> <Gold.PLP.part.nonpolar>
-23.5438

> <Gold.PLP.part.repulsive>
0.3872

> <Gold.PLP.ligand.clash>
0.0000

> <Gold.PLP.ligand.torsion>
0.4801

> <Gold.PLP.Chemscore.Hbond>
4.1634

> <Gold.PLP.Chemscore.CHOScore>
0.0000

> <Gold.PLP.Chemscore.Metal>
0.0000

> <Gold.Chemscore.Hbonds>
donor molecule, donor type, donor heavy atom, donor atom, acceptor molecule, acceptor atom, score
      L1  H     3    20       P1  8028  2.00
      L1  H     7    25       P1  7957  1.00
      P1  H  6933  6945       L1    15  0.12
      P1  H  7989  7998       L1     8  0.84

> <Gold.PLP.Chemscore.Internal.Correction>
0.1363

> <Gold.Rescore>
     Score         DG    S(hbond)    S(metal)    S(lipo)     H(rot)  DE(clash)    DE(int)     intcor
     14.84     -16.92       3.24        0.00      67.63       2.85       0.04       2.03       ----

> <Gold.Chemscore.Fitness>
14.8421

> <Gold.Chemscore.DG>
-16.9173

> <Gold.Chemscore.ZeroCoef>
-5.4800

> <Gold.Chemscore.Hbond>
3.2378

> <Gold.Chemscore.Metal>
0.0000

> <Gold.Chemscore.Lipo>
67.6269

> <Gold.Chemscore.Internal_Hbond>
0.0000

> <Gold.Chemscore.DEClash>
0.0402

> <Gold.Chemscore.DEInternal>
2.0349

> <Gold.Chemscore.Rot>
2.8473

> <Gold.Chemscore.Internal.Correction>
   9.000000E+99

> <Gold.Chemscore.Hbonds>
donor molecule, donor type, donor heavy atom, donor atom, acceptor molecule, acceptor atom, score
      L1  H     3    20       P1  8028  0.95
      L1  H     7    25       P1  7957  0.95
      P1  H  6933  6945       L1    15  0.05
      P1  H  7989  7998       L1     8  0.80

> <Gold.Chemscore.Hbond.Weighted>
-10.8141

> <Gold.Chemscore.Metal.Weighted>
-0.0000

> <Gold.Chemscore.Lipo.Weighted>
-7.9123

> <Gold.Chemscore.Internal_Hbond.Weighted>
0.0000

> <Gold.Chemscore.DEClash.Weighted>
0.0402

> <Gold.Chemscore.DEInternal.Weighted>
2.0349

> <Gold.Chemscore.Rot.Weighted>
7.2892

> <Gold.Chemscore.Internal.Correction.Weighted>
   9.000000E+99

> <Gold.Protein.RotatedTorsions>
[ 6907 6896 6895 6894 ] final -119.09 input  -60.11 | X-H torsion
[ 7974 7965 7964 7962 ] final   78.71 input  175.53 | X-H torsion
[ 8008 7997 7996 7995 ] final   82.48 input   59.86 | X-H torsion
[ 10167 10162 10161 10158 ] final  -16.82 input  -65.29 | X-H torsion
[ 10718 10713 10712 10709 ] final  113.87 input   66.30 | X-H torsion
[ 10763 10752 10751 10750 ] final  162.20 input  -60.55 | X-H torsion
[ 11005 11000 10999 10996 ] final   -5.72 input  -57.11 | X-H torsion

> <Gold.Protein.ActiveResidues>
 VAL166  LYS551  ARG553  GLY616  TRP617  ASP618  TYR619  PRO620  LYS621  CYS622 
 ASP623  PHE694  ASN695  SER759  ASP760  ASP761  ALA762  ILE779  LEU786  VAL792 
 PHE793  MET794  SER795  GLU796  ALA797  LYS798  CYS799  TRP800  GLU811  SER814 

> <Gold.Protein.RotatedAtoms>
  150.8275  133.8146  159.3112 H   0  0  0  0  0  0  0  0  0  0  0  0  # atno 6907 bound_to 6896
  151.5886  135.1053  160.0043 H   0  0  0  0  0  0  0  0  0  0  0  0  # atno 6908 bound_to 6896
  152.4359  133.7318  159.6648 H   0  0  0  0  0  0  0  0  0  0  0  0  # atno 6909 bound_to 6896
  145.6736  139.2504  143.1854 H   0  0  0  0  0  0  0  0  0  0  0  0  # atno 7974 bound_to 7965
  155.9111  140.3427  155.6099 H   0  0  0  0  0  0  0  0  0  0  0  0  # atno 8008 bound_to 7997
  155.7386  140.0804  157.2275 H   0  0  0  0  0  0  0  0  0  0  0  0  # atno 8009 bound_to 7997
  154.4056  140.1575  156.2578 H   0  0  0  0  0  0  0  0  0  0  0  0  # atno 8010 bound_to 7997
  140.7239  143.5077  150.9789 H   0  0  0  0  0  0  0  0  0  0  0  0  # atno 10167 bound_to 10162
  157.6314  131.0990  150.7103 H   0  0  0  0  0  0  0  0  0  0  0  0  # atno 10718 bound_to 10713
  154.2747  135.2765  155.2723 H   0  0  0  0  0  0  0  0  0  0  0  0  # atno 10763 bound_to 10752
  154.5270  135.5740  153.6731 H   0  0  0  0  0  0  0  0  0  0  0  0  # atno 10764 bound_to 10752
  152.9939  135.6218  154.2904 H   0  0  0  0  0  0  0  0  0  0  0  0  # atno 10765 bound_to 10752
  140.6942  133.9045  155.8639 H   0  0  0  0  0  0  0  0  0  0  0  0  # atno 11005 bound_to 11000
  146.1024  140.7528  142.9543 LP  0  0  0  0  0  0  0  0  0  0  0  0  # atno 17320 bound_to 7965
  144.7048  140.3808  143.7126 LP  0  0  0  0  0  0  0  0  0  0  0  0  # atno 17321 bound_to 7965
  139.8789  143.7097  152.3159 LP  0  0  0  0  0  0  0  0  0  0  0  0  # atno 17342 bound_to 10162
  139.7372  144.7568  151.0709 LP  0  0  0  0  0  0  0  0  0  0  0  0  # atno 17343 bound_to 10162
  156.7442  130.4748  149.5471 LP  0  0  0  0  0  0  0  0  0  0  0  0  # atno 17370 bound_to 10713
  156.1520  130.6316  151.0608 LP  0  0  0  0  0  0  0  0  0  0  0  0  # atno 17371 bound_to 10713
  141.0216  134.0880  157.4114 LP  0  0  0  0  0  0  0  0  0  0  0  0  # atno 17394 bound_to 11000
  139.8915  135.0119  156.6793 LP  0  0  0  0  0  0  0  0  0  0  0  0  # atno 17395 bound_to 11000

$$$$
