AV-unprocessed.smi:2664|AV-procd|sdf|10329|dock4
  -GOLD-   2272014343D 1   1.00000     0.00000
 Structure written by MMmdl.
 44 45  0  0  0  0  0  0  0  0  2 V2000
  146.6720  133.0470  154.5470 O   0  0  0  0  0  0  0  0  0  0  0  0
  147.4113  133.7546  153.8640 C   0  0  0  0  0  0  0  0  0  0  0  0
  147.0382  134.4264  152.7610 N   0  0  0  0  0  0  0  0  0  0  0  0
  145.7715  134.4389  152.1157 C   0  0  0  0  0  0  0  0  0  0  0  0
  145.5882  135.3544  151.0555 C   0  0  0  0  0  0  0  0  0  0  0  0
  144.3551  135.3915  150.3731 C   0  0  0  0  0  0  0  0  0  0  0  0
  143.3632  134.5481  150.7305 N   0  3  0  0  0  0  0  0  0  0  0  0
  143.4951  133.6471  151.7275 C   0  0  0  0  0  0  0  0  0  0  0  0
  144.7057  133.5627  152.4452 C   0  0  0  0  0  0  0  0  0  0  0  0
  148.7059  133.9692  154.1446 N   0  0  0  0  0  0  0  0  0  0  0  0
  149.4526  133.3931  155.2669 C   0  0  1  0  0  0  0  0  0  0  0  0
  148.6566  133.6325  156.5752 C   0  0  0  0  0  0  0  0  0  0  0  0
  148.7793  135.0495  157.1672 C   0  0  0  0  0  0  0  0  0  0  0  0
  150.1294  135.3577  157.4425 O   0  0  0  0  0  0  0  0  0  0  0  0
  149.7576  131.8919  154.9908 C   0  0  0  0  0  0  0  0  0  0  0  0
  148.4787  131.0177  154.9907 C   0  0  0  0  0  0  0  0  0  0  0  0
  148.7822  129.5334  154.7299 C   0  0  0  0  0  0  0  0  0  0  0  0
  149.7924  128.9809  155.7425 C   0  0  0  0  0  0  0  0  0  0  0  0
  151.0763  129.8190  155.7349 C   0  0  0  0  0  0  0  0  0  0  0  0
  150.7761  131.3027  156.0014 C   0  0  0  0  0  0  0  0  0  0  0  0
  147.7350  135.0367  152.3595 H   0  0  0  0  0  0  0  0  0  0  0  0
  146.3822  136.0285  150.7680 H   0  0  0  0  0  0  0  0  0  0  0  0
  144.1351  136.0644  149.5571 H   0  0  0  0  0  0  0  0  0  0  0  0
  142.6364  133.0194  151.9164 H   0  0  0  0  0  0  0  0  0  0  0  0
  144.7945  132.8206  153.2236 H   0  0  0  0  0  0  0  0  0  0  0  0
  149.2271  134.5746  153.5274 H   0  0  0  0  0  0  0  0  0  0  0  0
  150.4120  133.9032  155.3692 H   0  0  0  0  0  0  0  0  0  0  0  0
  147.6021  133.4214  156.3930 H   0  0  0  0  0  0  0  0  0  0  0  0
  148.9732  132.9304  157.3451 H   0  0  0  0  0  0  0  0  0  0  0  0
  148.3605  135.8040  156.5015 H   0  0  0  0  0  0  0  0  0  0  0  0
  148.2188  135.1094  158.1004 H   0  0  0  0  0  0  0  0  0  0  0  0
  150.2670  136.2794  157.2850 H   0  0  0  0  0  0  0  0  0  0  0  0
  150.2050  131.8221  153.9979 H   0  0  0  0  0  0  0  0  0  0  0  0
  147.9627  131.1209  155.9463 H   0  0  0  0  0  0  0  0  0  0  0  0
  147.7804  131.3503  154.2247 H   0  0  0  0  0  0  0  0  0  0  0  0
  147.8598  128.9534  154.7729 H   0  0  0  0  0  0  0  0  0  0  0  0
  149.1750  129.4137  153.7196 H   0  0  0  0  0  0  0  0  0  0  0  0
  149.3541  128.9860  156.7414 H   0  0  0  0  0  0  0  0  0  0  0  0
  150.0239  127.9413  155.5091 H   0  0  0  0  0  0  0  0  0  0  0  0
  151.7706  129.4400  156.4855 H   0  0  0  0  0  0  0  0  0  0  0  0
  151.5760  129.7147  154.7710 H   0  0  0  0  0  0  0  0  0  0  0  0
  151.7186  131.8487  155.9665 H   0  0  0  0  0  0  0  0  0  0  0  0
  150.3931  131.4188  157.0163 H   0  0  0  0  0  0  0  0  0  0  0  0
  142.4788  134.5900  150.2232 H   0  0  0  0  0  0  0  0  0  0  0  0
  1  2  2  0  0  0  0
  2  3  1  0  0  0  0
  2 10  1  0  0  0  0
  3  4  1  0  0  0  0
  3 21  1  0  0  0  0
  4  9  1  0  0  0  0
  4  5  2  0  0  0  0
  5  6  1  0  0  0  0
  5 22  1  0  0  0  0
  6  7  2  0  0  0  0
  6 23  1  0  0  0  0
  7  8  1  0  0  0  0
  7 44  1  0  0  0  0
  8  9  2  0  0  0  0
  8 24  1  0  0  0  0
  9 25  1  0  0  0  0
 10 11  1  0  0  0  0
 10 26  1  0  0  0  0
 11 12  1  0  0  0  0
 11 15  1  0  0  0  0
 11 27  1  0  0  0  0
 12 13  1  0  0  0  0
 12 28  1  0  0  0  0
 12 29  1  0  0  0  0
 13 14  1  0  0  0  0
 13 30  1  0  0  0  0
 13 31  1  0  0  0  0
 14 32  1  0  0  0  0
 15 20  1  0  0  0  0
 15 16  1  0  0  0  0
 15 33  1  0  0  0  0
 16 17  1  0  0  0  0
 16 34  1  0  0  0  0
 16 35  1  0  0  0  0
 17 18  1  0  0  0  0
 17 36  1  0  0  0  0
 17 37  1  0  0  0  0
 18 19  1  0  0  0  0
 18 38  1  0  0  0  0
 18 39  1  0  0  0  0
 19 20  1  0  0  0  0
 19 40  1  0  0  0  0
 19 41  1  0  0  0  0
 20 42  1  0  0  0  0
 20 43  1  0  0  0  0
M  CHG  1   7   1
M  END
> <s_m_source_file>
AV-unprocessed.smi

> <i_m_source_file_index>
2664

> <i_lp_mmshare_version>
43012

> <i_f3d_flags>
0

> <s_epik_input>
W2NIXTFbY0hdbltjSF1bY0hdYzFbTkhdQyg9TylbTkhdW0NASF0oW0NIMl1bQ0gyXVtPSF0pW0NIXTJbQ0gyXVtDSDJdW0NIMl1bQ0gyXVtDSDJdMg==

> <s_epik_cmdline>
J2VwaWtfcHl0aG9uJywgJy1waCcsICc3LjAnLCAnLXRuJywgJzgnLCAnLW1hJywgJzIwMCcsICctbWV0YWxfYmluZGluZycsICctaW1hZScsICc8aW5maWxlLm1hZT4nLCAnLW9tYWUnLCAnPG91dGZpbGUubWFlPic=

> <r_epik_Ionization_Penalty>
1.0085

> <r_epik_Ionization_Penalty_Charging>
1.00848

> <r_epik_Ionization_Penalty_Neutral>
2.14516e-05

> <r_epik_State_Penalty>
1.05769

> <r_epik_Charging_Adjusted_Penalty>
2.06617

> <i_epik_Tot_Q>
1

> <i_epik_Tot_abs_Q>
1

> <r_epik_Metal_State_Penalty>
1.15842

> <b_epik_Metal_Only>
0

> <s_lp_Force_Field>
OPLS_2005

> <r_lp_Energy>
27.8621

> <b_lp_Chiralities_Consistent>
1

> <s_lp_Variant>
AV-unprocessed.smi:2664-4

> <Gold.Version>
5.8.1

> <Gold.Id.Protein>
6NUR|6NUR_protein|mol2

> <Gold.PLP.Fitness>
43.5610

> <Gold.PLP.PLP>
-31.7114

> <Gold.PLP.part.hbond>
-3.4887

> <Gold.PLP.part.metal>
0.0000

> <Gold.PLP.part.buried>
-5.0247

> <Gold.PLP.part.nonpolar>
-23.1207

> <Gold.PLP.part.repulsive>
0.0894

> <Gold.PLP.ligand.clash>
0.0000

> <Gold.PLP.ligand.torsion>
0.4180

> <Gold.PLP.Chemscore.Hbond>
4.2108

> <Gold.PLP.Chemscore.CHOScore>
0.0000

> <Gold.PLP.Chemscore.Metal>
0.0000

> <Gold.Chemscore.Hbonds>
donor molecule, donor type, donor heavy atom, donor atom, acceptor molecule, acceptor atom, score
      L1  H     3    21       P1  7948  1.00
      L1  H     7    44       P1 10186  2.00
      L1  H    10    26       P1  7948  0.16
      P1  H  6896  6907       L1    14  0.20

> <Gold.PLP.Chemscore.Internal.Correction>
0.0532

> <Gold.Rescore>
     Score         DG    S(hbond)    S(metal)    S(lipo)     H(rot)  DE(clash)    DE(int)     intcor
     12.95     -17.32       2.87        0.00      69.08       2.27       0.01       4.36       ----

> <Gold.Chemscore.Fitness>
12.9467

> <Gold.Chemscore.DG>
-17.3215

> <Gold.Chemscore.ZeroCoef>
-5.4800

> <Gold.Chemscore.Hbond>
2.8678

> <Gold.Chemscore.Metal>
0.0000

> <Gold.Chemscore.Lipo>
69.0799

> <Gold.Chemscore.Internal_Hbond>
0.0000

> <Gold.Chemscore.DEClash>
0.0101

> <Gold.Chemscore.DEInternal>
4.3647

> <Gold.Chemscore.Rot>
2.2731

> <Gold.Chemscore.Internal.Correction>
   9.000000E+99

> <Gold.Chemscore.Hbonds>
donor molecule, donor type, donor heavy atom, donor atom, acceptor molecule, acceptor atom, score
      L1  H     3    21       P1  7948  0.94
      L1  H     7    44       P1 10186  0.44
      L1  H    10    26       P1  7948  0.01
      P1  H  6896  6907       L1    14  0.11

> <Gold.Chemscore.Hbond.Weighted>
-9.5784

> <Gold.Chemscore.Metal.Weighted>
-0.0000

> <Gold.Chemscore.Lipo.Weighted>
-8.0823

> <Gold.Chemscore.Internal_Hbond.Weighted>
0.0000

> <Gold.Chemscore.DEClash.Weighted>
0.0101

> <Gold.Chemscore.DEInternal.Weighted>
4.3647

> <Gold.Chemscore.Rot.Weighted>
5.8192

> <Gold.Chemscore.Internal.Correction.Weighted>
   9.000000E+99

> <Gold.Protein.RotatedTorsions>
[ 6907 6896 6895 6894 ] final  -95.57 input  -60.11 | X-H torsion
[ 7974 7965 7964 7962 ] final  144.96 input  175.53 | X-H torsion
[ 8008 7997 7996 7995 ] final  154.14 input   59.86 | X-H torsion
[ 10167 10162 10161 10158 ] final -158.46 input  -65.29 | X-H torsion
[ 10718 10713 10712 10709 ] final  124.76 input   66.30 | X-H torsion
[ 10763 10752 10751 10750 ] final  110.99 input  -60.55 | X-H torsion
[ 11005 11000 10999 10996 ] final   58.69 input  -57.11 | X-H torsion

> <Gold.Protein.ActiveResidues>
 VAL166  LYS551  ARG553  GLY616  TRP617  ASP618  TYR619  PRO620  LYS621  CYS622 
 ASP623  PHE694  ASN695  SER759  ASP760  ASP761  ALA762  ILE779  LEU786  VAL792 
 PHE793  MET794  SER795  GLU796  ALA797  LYS798  CYS799  TRP800  GLU811  SER814 

> <Gold.Protein.RotatedAtoms>
  150.6967  134.1638  159.4185 H   0  0  0  0  0  0  0  0  0  0  0  0  # atno 6907 bound_to 6896
  151.9617  135.0118  160.0557 H   0  0  0  0  0  0  0  0  0  0  0  0  # atno 6908 bound_to 6896
  152.1920  133.4745  159.5050 H   0  0  0  0  0  0  0  0  0  0  0  0  # atno 6909 bound_to 6896
  144.8792  139.5725  143.5850 H   0  0  0  0  0  0  0  0  0  0  0  0  # atno 7974 bound_to 7965
  156.2546  140.1975  156.6599 H   0  0  0  0  0  0  0  0  0  0  0  0  # atno 8008 bound_to 7997
  154.6472  140.0576  156.9939 H   0  0  0  0  0  0  0  0  0  0  0  0  # atno 8009 bound_to 7997
  155.1473  140.3248  155.4441 H   0  0  0  0  0  0  0  0  0  0  0  0  # atno 8010 bound_to 7997
  139.6691  143.9777  152.2272 H   0  0  0  0  0  0  0  0  0  0  0  0  # atno 10167 bound_to 10162
  157.5559  131.1092  150.8623 H   0  0  0  0  0  0  0  0  0  0  0  0  # atno 10718 bound_to 10713
  153.4569  135.3731  155.2316 H   0  0  0  0  0  0  0  0  0  0  0  0  # atno 10763 bound_to 10752
  154.8757  135.3899  154.3971 H   0  0  0  0  0  0  0  0  0  0  0  0  # atno 10764 bound_to 10752
  153.4538  135.7086  153.6156 H   0  0  0  0  0  0  0  0  0  0  0  0  # atno 10765 bound_to 10752
  140.0359  134.5944  155.9445 H   0  0  0  0  0  0  0  0  0  0  0  0  # atno 11005 bound_to 11000
  146.2983  139.7347  142.9110 LP  0  0  0  0  0  0  0  0  0  0  0  0  # atno 17320 bound_to 7965
  145.3985  141.0382  143.3084 LP  0  0  0  0  0  0  0  0  0  0  0  0  # atno 17321 bound_to 7965
  139.9537  144.6604  150.8147 LP  0  0  0  0  0  0  0  0  0  0  0  0  # atno 17342 bound_to 10162
  140.7611  143.3166  151.2719 LP  0  0  0  0  0  0  0  0  0  0  0  0  # atno 17343 bound_to 10162
  156.9135  130.5289  149.5280 LP  0  0  0  0  0  0  0  0  0  0  0  0  # atno 17370 bound_to 10713
  156.0618  130.5669  150.9207 LP  0  0  0  0  0  0  0  0  0  0  0  0  # atno 17371 bound_to 10713
  141.1857  133.6555  156.5207 LP  0  0  0  0  0  0  0  0  0  0  0  0  # atno 17394 bound_to 11000
  140.4149  134.7239  157.4857 LP  0  0  0  0  0  0  0  0  0  0  0  0  # atno 17395 bound_to 11000

$$$$
