AV-unprocessed.smi:1971|AV-procd|sdf|7966|dock2
  -GOLD-   2272010133D 1   1.00000     0.00000
 Structure written by MMmdl.
 43 44  0  0  0  0  0  0  0  0  1 V2000
  152.1936  144.2906  158.2852 C   0  0  0  0  0  0  0  0  0  0  0  0
  151.7867  142.9166  158.8367 C   0  0  0  0  0  0  0  0  0  0  0  0
  151.4955  141.9080  157.8198 N   0  0  0  0  0  0  0  0  0  0  0  0
  150.3424  142.2969  157.0120 C   0  0  0  0  0  0  0  0  0  0  0  0
  150.0355  141.2560  155.9197 C   0  0  0  0  0  0  0  0  0  0  0  0
  149.7563  139.9269  156.4811 N   0  0  0  0  0  0  0  0  0  0  0  0
  149.4564  138.9238  155.4361 C   0  0  2  0  0  0  0  0  0  0  0  0
  150.5942  138.7502  154.4047 C   0  0  0  0  0  0  0  0  0  0  0  0
  148.1334  139.1856  154.6695 C   0  0  0  0  0  0  0  0  0  0  0  0
  147.7170  138.0379  153.8655 N   0  0  0  0  0  0  0  0  0  0  0  0
  146.5178  137.4410  153.9166 C   0  0  0  0  0  0  0  0  0  0  0  0
  145.6076  137.8041  154.6617 O   0  0  0  0  0  0  0  0  0  0  0  0
  146.4528  136.4095  153.0594 N   0  0  0  0  0  0  0  0  0  0  0  0
  145.3503  135.5535  152.8141 C   0  0  0  0  0  0  0  0  0  0  0  0
  144.6571  135.0808  153.8518 N   0  0  0  0  0  0  0  0  0  0  0  0
  143.6067  134.2516  153.4475 C   0  0  0  0  0  0  0  0  0  0  0  0
  143.5137  134.1021  152.0860 C   0  0  0  0  0  0  0  0  0  0  0  0
  144.7484  135.0033  151.2481 S   0  0  0  0  0  0  0  0  0  0  0  0
  150.9100  139.5486  157.3092 C   0  0  0  0  0  0  0  0  0  0  0  0
  151.2157  140.5937  158.3977 C   0  0  0  0  0  0  0  0  0  0  0  0
  152.2858  145.0155  159.0941 H   0  0  0  0  0  0  0  0  0  0  0  0
  151.4486  144.6698  157.5854 H   0  0  0  0  0  0  0  0  0  0  0  0
  153.1540  144.2566  157.7715 H   0  0  0  0  0  0  0  0  0  0  0  0
  152.5615  142.5512  159.5124 H   0  0  0  0  0  0  0  0  0  0  0  0
  150.8976  143.0626  159.4515 H   0  0  0  0  0  0  0  0  0  0  0  0
  149.4656  142.4290  157.6484 H   0  0  0  0  0  0  0  0  0  0  0  0
  150.5320  143.2616  156.5402 H   0  0  0  0  0  0  0  0  0  0  0  0
  149.1772  141.6197  155.3570 H   0  0  0  0  0  0  0  0  0  0  0  0
  150.8709  141.1994  155.2199 H   0  0  0  0  0  0  0  0  0  0  0  0
  149.3376  137.9564  155.9265 H   0  0  0  0  0  0  0  0  0  0  0  0
  150.2886  138.0997  153.5848 H   0  0  0  0  0  0  0  0  0  0  0  0
  151.4785  138.2896  154.8438 H   0  0  0  0  0  0  0  0  0  0  0  0
  150.8923  139.7059  153.9724 H   0  0  0  0  0  0  0  0  0  0  0  0
  147.3477  139.4739  155.3698 H   0  0  0  0  0  0  0  0  0  0  0  0
  148.2308  140.0456  154.0083 H   0  0  0  0  0  0  0  0  0  0  0  0
  148.4057  137.6620  153.2301 H   0  0  0  0  0  0  0  0  0  0  0  0
  147.2806  136.2201  152.5141 H   0  0  0  0  0  0  0  0  0  0  0  0
  142.9714  133.8061  154.1989 H   0  0  0  0  0  0  0  0  0  0  0  0
  142.7966  133.5191  151.5275 H   0  0  0  0  0  0  0  0  0  0  0  0
  150.7234  138.6024  157.8140 H   0  0  0  0  0  0  0  0  0  0  0  0
  151.7903  139.4025  156.6810 H   0  0  0  0  0  0  0  0  0  0  0  0
  152.0708  140.2475  158.9770 H   0  0  0  0  0  0  0  0  0  0  0  0
  150.3747  140.6590  159.0900 H   0  0  0  0  0  0  0  0  0  0  0  0
  1  2  1  0  0  0  0
  1 21  1  0  0  0  0
  1 22  1  0  0  0  0
  1 23  1  0  0  0  0
  2  3  1  0  0  0  0
  2 24  1  0  0  0  0
  2 25  1  0  0  0  0
  3 20  1  0  0  0  0
  3  4  1  0  0  0  0
  4  5  1  0  0  0  0
  4 26  1  0  0  0  0
  4 27  1  0  0  0  0
  5  6  1  0  0  0  0
  5 28  1  0  0  0  0
  5 29  1  0  0  0  0
  6  7  1  0  0  0  0
  6 19  1  0  0  0  0
  7  8  1  0  0  0  0
  7  9  1  0  0  0  0
  7 30  1  0  0  0  0
  8 31  1  0  0  0  0
  8 32  1  0  0  0  0
  8 33  1  0  0  0  0
  9 10  1  0  0  0  0
  9 34  1  0  0  0  0
  9 35  1  0  0  0  0
 10 11  1  0  0  0  0
 10 36  1  0  0  0  0
 11 12  2  0  0  0  0
 11 13  1  0  0  0  0
 13 14  1  0  0  0  0
 13 37  1  0  0  0  0
 14 18  1  0  0  0  0
 14 15  2  0  0  0  0
 15 16  1  0  0  0  0
 16 17  2  0  0  0  0
 16 38  1  0  0  0  0
 17 18  1  0  0  0  0
 17 39  1  0  0  0  0
 19 20  1  0  0  0  0
 19 40  1  0  0  0  0
 19 41  1  0  0  0  0
 20 42  1  0  0  0  0
 20 43  1  0  0  0  0
M  END
> <s_m_source_file>
AV-unprocessed.smi

> <i_m_source_file_index>
1971

> <i_lp_mmshare_version>
43012

> <i_f3d_flags>
0

> <s_epik_input>
W0NIM11bQ0gyXU4xW0NIMl1bQ0gyXU4oW0NIMl1bQ0gyXTEpW0NASF0oW0NIM10pW0NIMl1bTkhdQyg9TylbTkhdYzJuW2NIXVtjSF1zMg==

> <s_epik_cmdline>
J2VwaWtfcHl0aG9uJywgJy1waCcsICc3LjAnLCAnLXRuJywgJzgnLCAnLW1hJywgJzIwMCcsICctbWV0YWxfYmluZGluZycsICctaW1hZScsICc8aW5maWxlLm1hZT4nLCAnLW9tYWUnLCAnPG91dGZpbGUubWFlPic=

> <r_lp_tautomer_probability>
0.999

> <r_epik_Ionization_Penalty>
2.43994

> <r_epik_Ionization_Penalty_Charging>
0

> <r_epik_Ionization_Penalty_Neutral>
2.43994

> <r_epik_State_Penalty>
1.7682

> <r_epik_Charging_Adjusted_Penalty>
1.7682

> <i_epik_Tot_Q>
0

> <i_epik_Tot_abs_Q>
0

> <r_epik_Metal_State_Penalty>
1.80147

> <b_epik_Metal_Only>
0

> <s_lp_Force_Field>
OPLS_2005

> <r_lp_Energy>
42.0055

> <b_lp_Chiralities_Consistent>
1

> <s_lp_Variant>
AV-unprocessed.smi:1971-5

> <Gold.Version>
5.8.1

> <Gold.Id.Protein>
6NUR|6NUR_protein|mol2

> <Gold.PLP.Fitness>
40.7343

> <Gold.PLP.PLP>
-30.0430

> <Gold.PLP.part.hbond>
-1.9570

> <Gold.PLP.part.metal>
0.0000

> <Gold.PLP.part.buried>
-4.3750

> <Gold.PLP.part.nonpolar>
-25.8518

> <Gold.PLP.part.repulsive>
0.2006

> <Gold.PLP.ligand.clash>
0.0000

> <Gold.PLP.ligand.torsion>
0.4720

> <Gold.PLP.Chemscore.Hbond>
1.8480

> <Gold.PLP.Chemscore.CHOScore>
2.0000

> <Gold.PLP.Chemscore.Metal>
0.0000

> <Gold.Chemscore.Hbonds>
donor molecule, donor type, donor heavy atom, donor atom, acceptor molecule, acceptor atom, score
      L1  H    10    36       P1  7948  0.98
      L1  H    13    37       P1  7948  1.00
      L1  C    16    38       P1 10957  1.00
      L1  C    17    39       P1 10186  0.30

> <Gold.PLP.Chemscore.Internal.Correction>
0.0913

> <Gold.Rescore>
     Score         DG    S(hbond)    S(metal)    S(lipo)     H(rot)  DE(clash)    DE(int)     intcor
     16.38     -17.04       1.96        0.00      80.97       1.75       0.00       0.66       ----

> <Gold.Chemscore.Fitness>
16.3803

> <Gold.Chemscore.DG>
-17.0369

> <Gold.Chemscore.ZeroCoef>
-5.4800

> <Gold.Chemscore.Hbond>
1.9631

> <Gold.Chemscore.Metal>
0.0000

> <Gold.Chemscore.Lipo>
80.9682

> <Gold.Chemscore.Internal_Hbond>
0.0000

> <Gold.Chemscore.DEClash>
0.0000

> <Gold.Chemscore.DEInternal>
0.6566

> <Gold.Chemscore.Rot>
1.7473

> <Gold.Chemscore.Internal.Correction>
   9.000000E+99

> <Gold.Chemscore.Hbonds>
donor molecule, donor type, donor heavy atom, donor atom, acceptor molecule, acceptor atom, score
      L1  H    10    36       P1  7948  0.86
      L1  H    13    37       P1  7948  1.00

> <Gold.Chemscore.Hbond.Weighted>
-6.5567

> <Gold.Chemscore.Metal.Weighted>
-0.0000

> <Gold.Chemscore.Lipo.Weighted>
-9.4733

> <Gold.Chemscore.Internal_Hbond.Weighted>
0.0000

> <Gold.Chemscore.DEClash.Weighted>
0.0000

> <Gold.Chemscore.DEInternal.Weighted>
0.6566

> <Gold.Chemscore.Rot.Weighted>
4.4731

> <Gold.Chemscore.Internal.Correction.Weighted>
   9.000000E+99

> <Gold.Protein.RotatedTorsions>
[ 6907 6896 6895 6894 ] final  -72.07 input  -60.11 | X-H torsion
[ 7974 7965 7964 7962 ] final -174.47 input  175.53 | X-H torsion
[ 8008 7997 7996 7995 ] final  -15.18 input   59.86 | X-H torsion
[ 10167 10162 10161 10158 ] final -157.96 input  -65.29 | X-H torsion
[ 10718 10713 10712 10709 ] final  -11.94 input   66.30 | X-H torsion
[ 10763 10752 10751 10750 ] final  -76.02 input  -60.55 | X-H torsion
[ 11005 11000 10999 10996 ] final  -22.85 input  -57.11 | X-H torsion

> <Gold.Protein.ActiveResidues>
 VAL166  LYS551  ARG553  GLY616  TRP617  ASP618  TYR619  PRO620  LYS621  CYS622 
 ASP623  PHE694  ASN695  SER759  ASP760  ASP761  ALA762  ILE779  LEU786  VAL792 
 PHE793  MET794  SER795  GLU796  ALA797  LYS798  CYS799  TRP800  GLU811  SER814 

> <Gold.Protein.RotatedAtoms>
  150.7185  134.5217  159.5656 H   0  0  0  0  0  0  0  0  0  0  0  0  # atno 6907 bound_to 6896
  152.2770  134.7867  160.0413 H   0  0  0  0  0  0  0  0  0  0  0  0  # atno 6908 bound_to 6896
  151.8527  133.3407  159.3715 H   0  0  0  0  0  0  0  0  0  0  0  0  # atno 6909 bound_to 6896
  144.7132  140.1466  143.6387 H   0  0  0  0  0  0  0  0  0  0  0  0  # atno 7974 bound_to 7965
  154.5151  140.2203  155.9082 H   0  0  0  0  0  0  0  0  0  0  0  0  # atno 8008 bound_to 7997
  156.1598  140.3144  155.8753 H   0  0  0  0  0  0  0  0  0  0  0  0  # atno 8009 bound_to 7997
  155.3775  140.0470  157.3035 H   0  0  0  0  0  0  0  0  0  0  0  0  # atno 8010 bound_to 7997
  139.6729  143.9713  152.2294 H   0  0  0  0  0  0  0  0  0  0  0  0  # atno 10167 bound_to 10162
  156.6517  130.4957  149.6060 H   0  0  0  0  0  0  0  0  0  0  0  0  # atno 10718 bound_to 10713
  154.4943  135.5811  153.6483 H   0  0  0  0  0  0  0  0  0  0  0  0  # atno 10763 bound_to 10752
  152.9867  135.6120  154.3084 H   0  0  0  0  0  0  0  0  0  0  0  0  # atno 10764 bound_to 10752
  154.2986  135.2847  155.2601 H   0  0  0  0  0  0  0  0  0  0  0  0  # atno 10765 bound_to 10752
  140.8696  133.7730  156.0171 H   0  0  0  0  0  0  0  0  0  0  0  0  # atno 11005 bound_to 11000
  145.9154  139.2512  143.1413 LP  0  0  0  0  0  0  0  0  0  0  0  0  # atno 17320 bound_to 7965
  145.9674  140.8787  143.0180 LP  0  0  0  0  0  0  0  0  0  0  0  0  # atno 17321 bound_to 7965
  139.9482  144.6637  150.8198 LP  0  0  0  0  0  0  0  0  0  0  0  0  # atno 17342 bound_to 10162
  140.7625  143.3199  151.2646 LP  0  0  0  0  0  0  0  0  0  0  0  0  # atno 17343 bound_to 10162
  156.2079  130.6660  151.1238 LP  0  0  0  0  0  0  0  0  0  0  0  0  # atno 17370 bound_to 10713
  157.7138  131.0720  150.6401 LP  0  0  0  0  0  0  0  0  0  0  0  0  # atno 17371 bound_to 10713
  140.8588  134.2865  157.5243 LP  0  0  0  0  0  0  0  0  0  0  0  0  # atno 17394 bound_to 11000
  139.8711  134.9507  156.4064 LP  0  0  0  0  0  0  0  0  0  0  0  0  # atno 17395 bound_to 11000

$$$$
