AV-unprocessed.smi:1389|AV-procd|sdf|5654|dock2
  -GOLD-   22720 5273D 1   1.00000     0.00000
 Structure written by MMmdl.
 52 54  0  0  0  0  0  0  0  0  4 V2000
  146.7187  133.8394  158.3077 C   0  0  0  0  0  0  0  0  0  0  0  0
  147.1718  135.1984  158.8907 C   0  0  2  0  0  0  0  0  0  0  0  0
  148.5944  135.6331  158.4037 C   0  0  0  0  0  0  0  0  0  0  0  0
  148.5541  136.9681  157.8037 N   0  5  0  0  0  0  0  0  0  0  0  0
  149.3152  138.0206  158.2063 C   0  0  0  0  0  0  0  0  0  0  0  0
  150.0237  138.0984  159.2170 O   0  0  0  0  0  0  0  0  0  0  0  0
  149.2441  139.0527  157.3488 N   0  0  0  0  0  0  0  0  0  0  0  0
  149.9668  140.2773  157.3817 C   0  0  0  0  0  0  0  0  0  0  0  0
  151.1357  140.4114  158.1726 C   0  0  0  0  0  0  0  0  0  0  0  0
  151.7938  141.6533  158.2476 C   0  0  0  0  0  0  0  0  0  0  0  0
  151.2613  142.7480  157.5452 C   0  0  0  0  0  0  0  0  0  0  0  0
  150.1381  142.5917  156.8141 N   0  3  0  0  0  0  0  0  0  0  0  0
  149.4681  141.4184  156.6899 C   0  0  0  0  0  0  0  0  0  0  0  0
  148.3093  141.4016  155.8804 N   0  0  0  0  0  0  0  0  0  0  0  0
  147.0857  142.0574  156.3257 C   0  0  0  0  0  0  0  0  0  0  0  0
  146.2031  142.1337  155.0828 C   0  0  0  0  0  0  0  0  0  0  0  0
  147.2229  142.3526  153.9691 C   0  0  0  0  0  0  0  0  0  0  0  0
  148.4466  141.5568  154.4351 C   0  0  0  0  0  0  0  0  0  0  0  0
  146.9548  135.2146  160.3777 N   0  3  0  0  0  0  0  0  0  0  0  0
  147.2248  133.9600  161.1346 C   0  0  0  0  0  0  0  0  0  0  0  0
  146.6959  134.0929  162.5720 C   0  0  0  0  0  0  0  0  0  0  0  0
  147.2910  135.2228  163.1998 O   0  0  0  0  0  0  0  0  0  0  0  0
  146.9705  136.4380  162.5325 C   0  0  0  0  0  0  0  0  0  0  0  0
  147.5066  136.3966  161.0924 C   0  0  0  0  0  0  0  0  0  0  0  0
  146.6674  133.8572  157.2174 H   0  0  0  0  0  0  0  0  0  0  0  0
  145.7191  133.5847  158.6611 H   0  0  0  0  0  0  0  0  0  0  0  0
  147.3798  133.0183  158.5889 H   0  0  0  0  0  0  0  0  0  0  0  0
  146.4618  135.9300  158.5017 H   0  0  0  0  0  0  0  0  0  0  0  0
  149.2887  135.5974  159.2436 H   0  0  0  0  0  0  0  0  0  0  0  0
  148.9693  134.8915  157.6981 H   0  0  0  0  0  0  0  0  0  0  0  0
  148.7183  138.8765  156.5050 H   0  0  0  0  0  0  0  0  0  0  0  0
  151.5245  139.5798  158.7409 H   0  0  0  0  0  0  0  0  0  0  0  0
  152.6860  141.7654  158.8461 H   0  0  0  0  0  0  0  0  0  0  0  0
  151.6925  143.7383  157.5494 H   0  0  0  0  0  0  0  0  0  0  0  0
  146.6048  141.4999  157.1303 H   0  0  0  0  0  0  0  0  0  0  0  0
  147.3021  143.0646  156.6846 H   0  0  0  0  0  0  0  0  0  0  0  0
  145.6864  141.1846  154.9324 H   0  0  0  0  0  0  0  0  0  0  0  0
  145.4543  142.9243  155.1398 H   0  0  0  0  0  0  0  0  0  0  0  0
  146.8605  142.0373  152.9903 H   0  0  0  0  0  0  0  0  0  0  0  0
  147.4758  143.4120  153.9082 H   0  0  0  0  0  0  0  0  0  0  0  0
  149.3750  142.0595  154.1599 H   0  0  0  0  0  0  0  0  0  0  0  0
  148.4466  140.5685  153.9738 H   0  0  0  0  0  0  0  0  0  0  0  0
  146.7468  133.1086  160.6513 H   0  0  0  0  0  0  0  0  0  0  0  0
  148.2955  133.7538  161.1661 H   0  0  0  0  0  0  0  0  0  0  0  0
  145.6088  134.1874  162.5803 H   0  0  0  0  0  0  0  0  0  0  0  0
  146.9421  133.1998  163.1464 H   0  0  0  0  0  0  0  0  0  0  0  0
  145.8911  136.5979  162.5422 H   0  0  0  0  0  0  0  0  0  0  0  0
  147.4197  137.2694  163.0760 H   0  0  0  0  0  0  0  0  0  0  0  0
  148.5962  136.3561  161.1104 H   0  0  0  0  0  0  0  0  0  0  0  0
  147.2279  137.3140  160.5729 H   0  0  0  0  0  0  0  0  0  0  0  0
  145.9556  135.3374  160.4559 H   0  0  0  0  0  0  0  0  0  0  0  0
  149.7747  143.4051  156.3176 H   0  0  0  0  0  0  0  0  0  0  0  0
  1  2  1  0  0  0  0
  1 25  1  0  0  0  0
  1 26  1  0  0  0  0
  1 27  1  0  0  0  0
  2  3  1  0  0  0  0
  2 19  1  0  0  0  0
  2 28  1  0  0  0  0
  3  4  1  0  0  0  0
  3 29  1  0  0  0  0
  3 30  1  0  0  0  0
  4  5  1  0  0  0  0
  5  6  2  0  0  0  0
  5  7  1  0  0  0  0
  7  8  1  0  0  0  0
  7 31  1  0  0  0  0
  8 13  1  0  0  0  0
  8  9  2  0  0  0  0
  9 10  1  0  0  0  0
  9 32  1  0  0  0  0
 10 11  2  0  0  0  0
 10 33  1  0  0  0  0
 11 12  1  0  0  0  0
 11 34  1  0  0  0  0
 12 13  2  0  0  0  0
 12 52  1  0  0  0  0
 13 14  1  0  0  0  0
 14 18  1  0  0  0  0
 14 15  1  0  0  0  0
 15 16  1  0  0  0  0
 15 35  1  0  0  0  0
 15 36  1  0  0  0  0
 16 17  1  0  0  0  0
 16 37  1  0  0  0  0
 16 38  1  0  0  0  0
 17 18  1  0  0  0  0
 17 39  1  0  0  0  0
 17 40  1  0  0  0  0
 18 41  1  0  0  0  0
 18 42  1  0  0  0  0
 19 24  1  0  0  0  0
 19 20  1  0  0  0  0
 19 51  1  0  0  0  0
 20 21  1  0  0  0  0
 20 43  1  0  0  0  0
 20 44  1  0  0  0  0
 21 22  1  0  0  0  0
 21 45  1  0  0  0  0
 21 46  1  0  0  0  0
 22 23  1  0  0  0  0
 23 24  1  0  0  0  0
 23 47  1  0  0  0  0
 23 48  1  0  0  0  0
 24 49  1  0  0  0  0
 24 50  1  0  0  0  0
M  CHG  1   4  -1
M  CHG  1  12   1
M  CHG  1  19   1
M  END
> <s_m_source_file>
AV-unprocessed.smi

> <i_m_source_file_index>
1389

> <i_lp_mmshare_version>
43012

> <i_f3d_flags>
0

> <s_epik_input>
W0NIMl0xW0NIMl1PW0NIMl1bQ0gyXU4xW0NASF0oW0NIM10pW0NIMl1bTkhdQyg9TylbTkhdYzJbY0hdW2NIXVtjSF1uYzJOM1tDSDJdW0NIMl1bQ0gyXVtDSDJdMw==

> <s_epik_cmdline>
J2VwaWtfcHl0aG9uJywgJy1waCcsICc3LjAnLCAnLXRuJywgJzgnLCAnLW1hJywgJzIwMCcsICctbWV0YWxfYmluZGluZycsICctaW1hZScsICc8aW5maWxlLm1hZT4nLCAnLW9tYWUnLCAnPG91dGZpbGUubWFlPic=

> <r_lp_tautomer_probability>
0.999994

> <r_epik_Ionization_Penalty>
8.58362

> <r_epik_Ionization_Penalty_Charging>
8.58361

> <r_epik_Ionization_Penalty_Neutral>
3.55275e-06

> <r_epik_State_Penalty>
8.57766

> <r_epik_Charging_Adjusted_Penalty>
17.1613

> <i_epik_Tot_Q>
1

> <i_epik_Tot_abs_Q>
3

> <r_epik_Metal_State_Penalty>
4.57399

> <b_epik_Metal_Only>
1

> <s_lp_Force_Field>
OPLS_2005

> <r_lp_Energy>
52.6414

> <b_lp_Chiralities_Consistent>
1

> <s_lp_Variant>
AV-unprocessed.smi:1389-9

> <Gold.Version>
5.8.1

> <Gold.Id.Protein>
6NUR|6NUR_protein|mol2

> <Gold.PLP.Fitness>
41.7115

> <Gold.PLP.PLP>
-37.7427

> <Gold.PLP.part.hbond>
-2.0000

> <Gold.PLP.part.metal>
0.0000

> <Gold.PLP.part.buried>
-7.3099

> <Gold.PLP.part.nonpolar>
-28.7496

> <Gold.PLP.part.repulsive>
0.2121

> <Gold.PLP.ligand.clash>
0.0000

> <Gold.PLP.ligand.torsion>
1.4085

> <Gold.PLP.Chemscore.Hbond>
2.0000

> <Gold.PLP.Chemscore.CHOScore>
0.0000

> <Gold.PLP.Chemscore.Metal>
0.0000

> <Gold.Chemscore.Hbonds>
donor molecule, donor type, donor heavy atom, donor atom, acceptor molecule, acceptor atom, score
      L1  H    12    52       P1  8028  2.00

> <Gold.PLP.Chemscore.Internal.Correction>
0.7858

> <Gold.Rescore>
     Score         DG    S(hbond)    S(metal)    S(lipo)     H(rot)  DE(clash)    DE(int)     intcor
     12.61     -15.14       1.00        0.00      89.73       1.63       0.04       2.49       ----

> <Gold.Chemscore.Fitness>
12.6057

> <Gold.Chemscore.DG>
-15.1433

> <Gold.Chemscore.ZeroCoef>
-5.4800

> <Gold.Chemscore.Hbond>
0.9999

> <Gold.Chemscore.Metal>
0.0000

> <Gold.Chemscore.Lipo>
89.7289

> <Gold.Chemscore.Internal_Hbond>
0.0000

> <Gold.Chemscore.DEClash>
0.0433

> <Gold.Chemscore.DEInternal>
2.4943

> <Gold.Chemscore.Rot>
1.6307

> <Gold.Chemscore.Internal.Correction>
   9.000000E+99

> <Gold.Chemscore.Hbonds>
donor molecule, donor type, donor heavy atom, donor atom, acceptor molecule, acceptor atom, score
      L1  H    12    52       P1  8028  1.00

> <Gold.Chemscore.Hbond.Weighted>
-3.3396

> <Gold.Chemscore.Metal.Weighted>
-0.0000

> <Gold.Chemscore.Lipo.Weighted>
-10.4983

> <Gold.Chemscore.Internal_Hbond.Weighted>
0.0000

> <Gold.Chemscore.DEClash.Weighted>
0.0433

> <Gold.Chemscore.DEInternal.Weighted>
2.4943

> <Gold.Chemscore.Rot.Weighted>
4.1746

> <Gold.Chemscore.Internal.Correction.Weighted>
   9.000000E+99

> <Gold.Protein.RotatedTorsions>
[ 6907 6896 6895 6894 ] final  -37.83 input  -60.11 | X-H torsion
[ 7974 7965 7964 7962 ] final  100.95 input  175.53 | X-H torsion
[ 8008 7997 7996 7995 ] final  -41.89 input   59.86 | X-H torsion
[ 10167 10162 10161 10158 ] final  -99.66 input  -65.29 | X-H torsion
[ 10718 10713 10712 10709 ] final  145.06 input   66.30 | X-H torsion
[ 10763 10752 10751 10750 ] final   76.99 input  -60.55 | X-H torsion
[ 11005 11000 10999 10996 ] final -171.36 input  -57.11 | X-H torsion

> <Gold.Protein.ActiveResidues>
 VAL166  LYS551  ARG553  GLY616  TRP617  ASP618  TYR619  PRO620  LYS621  CYS622 
 ASP623  PHE694  ASN695  SER759  ASP760  ASP761  ALA762  ILE779  LEU786  VAL792 
 PHE793  MET794  SER795  GLU796  ALA797  LYS798  CYS799  TRP800  GLU811  SER814 

> <Gold.Protein.RotatedAtoms>
  151.0099  134.9388  159.8000 H   0  0  0  0  0  0  0  0  0  0  0  0  # atno 6907 bound_to 6896
  152.5300  134.3042  159.9099 H   0  0  0  0  0  0  0  0  0  0  0  0  # atno 6908 bound_to 6896
  151.3048  133.4064  159.2676 H   0  0  0  0  0  0  0  0  0  0  0  0  # atno 6909 bound_to 6896
  145.3787  139.2384  143.3415 H   0  0  0  0  0  0  0  0  0  0  0  0  # atno 7974 bound_to 7965
  154.4001  140.1487  156.3266 H   0  0  0  0  0  0  0  0  0  0  0  0  # atno 8008 bound_to 7997
  155.8481  140.3459  155.5654 H   0  0  0  0  0  0  0  0  0  0  0  0  # atno 8009 bound_to 7997
  155.8013  140.0870  157.1946 H   0  0  0  0  0  0  0  0  0  0  0  0  # atno 8010 bound_to 7997
  140.2601  143.3413  152.0634 H   0  0  0  0  0  0  0  0  0  0  0  0  # atno 10167 bound_to 10162
  157.3497  131.0949  151.1010 H   0  0  0  0  0  0  0  0  0  0  0  0  # atno 10718 bound_to 10713
  153.0765  135.4931  154.8415 H   0  0  0  0  0  0  0  0  0  0  0  0  # atno 10763 bound_to 10752
  154.7094  135.3017  154.9222 H   0  0  0  0  0  0  0  0  0  0  0  0  # atno 10764 bound_to 10752
  153.9920  135.6777  153.4807 H   0  0  0  0  0  0  0  0  0  0  0  0  # atno 10765 bound_to 10752
  140.5091  134.5819  157.5013 H   0  0  0  0  0  0  0  0  0  0  0  0  # atno 11005 bound_to 11000
  146.2852  140.4451  142.8761 LP  0  0  0  0  0  0  0  0  0  0  0  0  # atno 17320 bound_to 7965
  144.8523  140.7019  143.6160 LP  0  0  0  0  0  0  0  0  0  0  0  0  # atno 17321 bound_to 7965
  139.5019  144.6724  151.6210 LP  0  0  0  0  0  0  0  0  0  0  0  0  # atno 17342 bound_to 10162
  140.5973  143.9674  150.6362 LP  0  0  0  0  0  0  0  0  0  0  0  0  # atno 17343 bound_to 10162
  157.2191  130.6473  149.5804 LP  0  0  0  0  0  0  0  0  0  0  0  0  # atno 17370 bound_to 10713
  155.9719  130.4635  150.6184 LP  0  0  0  0  0  0  0  0  0  0  0  0  # atno 17371 bound_to 10713
  139.9669  134.7357  156.0120 LP  0  0  0  0  0  0  0  0  0  0  0  0  # atno 17394 bound_to 11000
  141.1395  133.6567  156.3689 LP  0  0  0  0  0  0  0  0  0  0  0  0  # atno 17395 bound_to 11000

$$$$
