AV-unprocessed.smi:605|AV-procd|sdf|3039|dock8
  -GOLD-   2262023553D 1   1.00000     0.00000
 Structure written by MMmdl.
 35 36  0  0  0  0  0  0  0  0  1 V2000
  146.6632  139.5852  151.6805 C   0  0  0  0  0  0  0  0  0  0  0  0
  146.8895  138.7376  152.9411 C   0  0  0  0  0  0  0  0  0  0  0  0
  145.5906  138.1591  153.5206 C   0  0  0  0  0  0  0  0  0  0  0  0
  147.6930  139.4648  153.9741 C   0  0  0  0  0  0  0  0  0  0  0  0
  148.1911  138.8672  155.0647 N   0  0  0  0  0  0  0  0  0  0  0  0
  148.9025  139.7449  155.8689 N   0  0  0  0  0  0  0  0  0  0  0  0
  148.9184  140.9879  155.3672 C   0  0  0  0  0  0  0  0  0  0  0  0
  149.5860  142.0951  155.9679 N   0  0  0  0  0  0  0  0  0  0  0  0
  150.6512  142.1590  156.7953 C   0  0  0  0  0  0  0  0  0  0  0  0
  151.2346  141.1367  157.1517 O   0  0  0  0  0  0  0  0  0  0  0  0
  151.0297  143.3884  157.1820 N   0  0  0  0  0  0  0  0  0  0  0  0
  152.1478  143.7126  158.0645 C   0  0  0  0  0  0  0  0  0  0  0  0
  152.2459  142.6947  159.2184 C   0  0  0  0  0  0  0  0  0  0  0  0
  152.2658  143.5137  160.5114 C   0  0  0  0  0  0  0  0  0  0  0  0
  151.5141  144.7948  160.1640 C   0  0  0  0  0  0  0  0  0  0  0  0
  151.9283  145.0863  158.7224 C   0  0  0  0  0  0  0  0  0  0  0  0
  148.0698  141.1792  153.8422 S   0  0  0  0  0  0  0  0  0  0  0  0
  147.6113  139.9019  151.2451 H   0  0  0  0  0  0  0  0  0  0  0  0
  146.0826  140.4811  151.9033 H   0  0  0  0  0  0  0  0  0  0  0  0
  146.1225  139.0216  150.9198 H   0  0  0  0  0  0  0  0  0  0  0  0
  147.4918  137.8833  152.6295 H   0  0  0  0  0  0  0  0  0  0  0  0
  145.7980  137.4937  154.3592 H   0  0  0  0  0  0  0  0  0  0  0  0
  145.0480  137.5842  152.7697 H   0  0  0  0  0  0  0  0  0  0  0  0
  144.9284  138.9487  153.8771 H   0  0  0  0  0  0  0  0  0  0  0  0
  149.2010  142.9944  155.7182 H   0  0  0  0  0  0  0  0  0  0  0  0
  150.4905  144.1699  156.8367 H   0  0  0  0  0  0  0  0  0  0  0  0
  153.0888  143.7340  157.5123 H   0  0  0  0  0  0  0  0  0  0  0  0
  151.3774  142.0338  159.2269 H   0  0  0  0  0  0  0  0  0  0  0  0
  153.1287  142.0607  159.1298 H   0  0  0  0  0  0  0  0  0  0  0  0
  151.8215  142.9808  161.3526 H   0  0  0  0  0  0  0  0  0  0  0  0
  153.2956  143.7556  160.7772 H   0  0  0  0  0  0  0  0  0  0  0  0
  150.4391  144.6150  160.2091 H   0  0  0  0  0  0  0  0  0  0  0  0
  151.7453  145.6163  160.8424 H   0  0  0  0  0  0  0  0  0  0  0  0
  152.8702  145.6366  158.7262 H   0  0  0  0  0  0  0  0  0  0  0  0
  151.1990  145.7067  158.1995 H   0  0  0  0  0  0  0  0  0  0  0  0
  1  2  1  0  0  0  0
  1 18  1  0  0  0  0
  1 19  1  0  0  0  0
  1 20  1  0  0  0  0
  2  3  1  0  0  0  0
  2  4  1  0  0  0  0
  2 21  1  0  0  0  0
  3 22  1  0  0  0  0
  3 23  1  0  0  0  0
  3 24  1  0  0  0  0
  4 17  1  0  0  0  0
  4  5  2  0  0  0  0
  5  6  1  0  0  0  0
  6  7  2  0  0  0  0
  7  8  1  0  0  0  0
  7 17  1  0  0  0  0
  8  9  1  0  0  0  0
  8 25  1  0  0  0  0
  9 10  2  0  0  0  0
  9 11  1  0  0  0  0
 11 12  1  0  0  0  0
 11 26  1  0  0  0  0
 12 16  1  0  0  0  0
 12 13  1  0  0  0  0
 12 27  1  0  0  0  0
 13 14  1  0  0  0  0
 13 28  1  0  0  0  0
 13 29  1  0  0  0  0
 14 15  1  0  0  0  0
 14 30  1  0  0  0  0
 14 31  1  0  0  0  0
 15 16  1  0  0  0  0
 15 32  1  0  0  0  0
 15 33  1  0  0  0  0
 16 34  1  0  0  0  0
 16 35  1  0  0  0  0
M  END
> <s_m_source_file>
AV-unprocessed.smi

> <i_m_source_file_index>
605

> <i_lp_mmshare_version>
43012

> <i_f3d_flags>
0

> <s_epik_input>
W0NIM11bQ0hdKFtDSDNdKWMxbm5jKHMxKVtOSF1DKD1PKVtOSF1bQ0hdMltDSDJdW0NIMl1bQ0gyXVtDSDJdMg==

> <s_epik_cmdline>
J2VwaWtfcHl0aG9uJywgJy1waCcsICc3LjAnLCAnLXRuJywgJzgnLCAnLW1hJywgJzIwMCcsICctbWV0YWxfYmluZGluZycsICctaW1hZScsICc8aW5maWxlLm1hZT4nLCAnLW9tYWUnLCAnPG91dGZpbGUubWFlPic=

> <r_lp_tautomer_probability>
1

> <r_epik_Ionization_Penalty>
0.000375049

> <r_epik_Ionization_Penalty_Charging>
0

> <r_epik_Ionization_Penalty_Neutral>
0.000375049

> <r_epik_State_Penalty>
-0

> <r_epik_Charging_Adjusted_Penalty>
0

> <i_epik_Tot_Q>
0

> <i_epik_Tot_abs_Q>
0

> <r_epik_Metal_State_Penalty>
0.186879

> <b_epik_Metal_Only>
0

> <s_lp_Force_Field>
OPLS_2005

> <r_lp_Energy>
14.8416

> <b_lp_Chiralities_Consistent>
1

> <s_lp_Variant>
AV-unprocessed.smi:605-1

> <Gold.Version>
5.8.1

> <Gold.Id.Protein>
6NUR|6NUR_protein|mol2

> <Gold.PLP.Fitness>
41.1826

> <Gold.PLP.PLP>
-36.4694

> <Gold.PLP.part.hbond>
-2.0000

> <Gold.PLP.part.metal>
0.0000

> <Gold.PLP.part.buried>
-2.3006

> <Gold.PLP.part.nonpolar>
-34.0278

> <Gold.PLP.part.repulsive>
0.2441

> <Gold.PLP.ligand.clash>
0.0000

> <Gold.PLP.ligand.torsion>
0.5632

> <Gold.PLP.Chemscore.Hbond>
1.9199

> <Gold.PLP.Chemscore.CHOScore>
0.0000

> <Gold.PLP.Chemscore.Metal>
0.0000

> <Gold.Chemscore.Hbonds>
donor molecule, donor type, donor heavy atom, donor atom, acceptor molecule, acceptor atom, score
      L1  H     8    25       P1  8028  1.00
      L1  H    11    26       P1  8028  0.90

> <Gold.PLP.Chemscore.Internal.Correction>
0.0800

> <Gold.Rescore>
     Score         DG    S(hbond)    S(metal)    S(lipo)     H(rot)  DE(clash)    DE(int)     intcor
     16.55     -19.72       1.94        0.00      92.45       1.20       0.08       3.09       ----

> <Gold.Chemscore.Fitness>
16.5455

> <Gold.Chemscore.DG>
-19.7167

> <Gold.Chemscore.ZeroCoef>
-5.4800

> <Gold.Chemscore.Hbond>
1.9414

> <Gold.Chemscore.Metal>
0.0000

> <Gold.Chemscore.Lipo>
92.4526

> <Gold.Chemscore.Internal_Hbond>
0.0000

> <Gold.Chemscore.DEClash>
0.0826

> <Gold.Chemscore.DEInternal>
3.0886

> <Gold.Chemscore.Rot>
1.1971

> <Gold.Chemscore.Internal.Correction>
   9.000000E+99

> <Gold.Chemscore.Hbonds>
donor molecule, donor type, donor heavy atom, donor atom, acceptor molecule, acceptor atom, score
      L1  H     8    25       P1  8028  1.00
      L1  H    11    26       P1  8028  0.81

> <Gold.Chemscore.Hbond.Weighted>
-6.4844

> <Gold.Chemscore.Metal.Weighted>
-0.0000

> <Gold.Chemscore.Lipo.Weighted>
-10.8170

> <Gold.Chemscore.Internal_Hbond.Weighted>
0.0000

> <Gold.Chemscore.DEClash.Weighted>
0.0826

> <Gold.Chemscore.DEInternal.Weighted>
3.0886

> <Gold.Chemscore.Rot.Weighted>
3.0647

> <Gold.Chemscore.Internal.Correction.Weighted>
   9.000000E+99

> <Gold.Protein.RotatedTorsions>
[ 6907 6896 6895 6894 ] final   88.30 input  -60.11 | X-H torsion
[ 7974 7965 7964 7962 ] final  -21.83 input  175.53 | X-H torsion
[ 8008 7997 7996 7995 ] final   43.04 input   59.86 | X-H torsion
[ 10167 10162 10161 10158 ] final  -14.71 input  -65.29 | X-H torsion
[ 10718 10713 10712 10709 ] final  -69.48 input   66.30 | X-H torsion
[ 10763 10752 10751 10750 ] final    6.60 input  -60.55 | X-H torsion
[ 11005 11000 10999 10996 ] final  111.61 input  -57.11 | X-H torsion

> <Gold.Protein.ActiveResidues>
 VAL166  LYS551  ARG553  GLY616  TRP617  ASP618  TYR619  PRO620  LYS621  CYS622 
 ASP623  PHE694  ASN695  SER759  ASP760  ASP761  ALA762  ILE779  LEU786  VAL792 
 PHE793  MET794  SER795  GLU796  ALA797  LYS798  CYS799  TRP800  GLU811  SER814 

> <Gold.Protein.RotatedAtoms>
  152.5423  134.2142  159.8761 H   0  0  0  0  0  0  0  0  0  0  0  0  # atno 6907 bound_to 6896
  151.2123  133.4542  159.2606 H   0  0  0  0  0  0  0  0  0  0  0  0  # atno 6908 bound_to 6896
  151.0885  134.9914  159.8447 H   0  0  0  0  0  0  0  0  0  0  0  0  # atno 6909 bound_to 6896
  146.1711  140.4395  142.8532 H   0  0  0  0  0  0  0  0  0  0  0  0  # atno 7974 bound_to 7965
  155.2962  140.3382  155.4250 H   0  0  0  0  0  0  0  0  0  0  0  0  # atno 8008 bound_to 7997
  156.2023  140.1737  156.7913 H   0  0  0  0  0  0  0  0  0  0  0  0  # atno 8009 bound_to 7997
  154.5575  140.0693  156.8750 H   0  0  0  0  0  0  0  0  0  0  0  0  # atno 8010 bound_to 7997
  140.7206  143.5293  150.9539 H   0  0  0  0  0  0  0  0  0  0  0  0  # atno 10167 bound_to 10162
  156.0453  130.4313  150.2153 H   0  0  0  0  0  0  0  0  0  0  0  0  # atno 10718 bound_to 10713
  153.2458  135.6908  153.7733 H   0  0  0  0  0  0  0  0  0  0  0  0  # atno 10763 bound_to 10752
  153.6845  135.3323  155.3187 H   0  0  0  0  0  0  0  0  0  0  0  0  # atno 10764 bound_to 10752
  154.8374  135.4530  154.1397 H   0  0  0  0  0  0  0  0  0  0  0  0  # atno 10765 bound_to 10752
  139.8908  134.9512  156.6459 H   0  0  0  0  0  0  0  0  0  0  0  0  # atno 11005 bound_to 11000
  144.8164  140.6475  143.6381 LP  0  0  0  0  0  0  0  0  0  0  0  0  # atno 17320 bound_to 7965
  145.4338  139.1545  143.4007 LP  0  0  0  0  0  0  0  0  0  0  0  0  # atno 17321 bound_to 7965
  139.9013  143.6832  152.3131 LP  0  0  0  0  0  0  0  0  0  0  0  0  # atno 17342 bound_to 10162
  139.7183  144.7607  151.0998 LP  0  0  0  0  0  0  0  0  0  0  0  0  # atno 17343 bound_to 10162
  157.0244  130.9989  151.3330 LP  0  0  0  0  0  0  0  0  0  0  0  0  # atno 17370 bound_to 10713
  157.5322  130.8065  149.7930 LP  0  0  0  0  0  0  0  0  0  0  0  0  # atno 17371 bound_to 10713
  140.7557  133.8859  155.8380 LP  0  0  0  0  0  0  0  0  0  0  0  0  # atno 17394 bound_to 11000
  140.9963  134.1210  157.4360 LP  0  0  0  0  0  0  0  0  0  0  0  0  # atno 17395 bound_to 11000

$$$$
