AV-unprocessed.smi:100|AV-procd|sdf|898|dock6
  -GOLD-   2262017393D 1   1.00000     0.00000
 Structure written by MMmdl.
 31 33  0  0  0  0  0  0  0  0  1 V2000
  153.8325  136.3688  162.2242 N   0  0  0  0  0  0  0  0  0  0  0  0
  153.5238  137.2016  161.2205 C   0  0  0  0  0  0  0  0  0  0  0  0
  153.0679  136.6707  160.0619 N   0  0  0  0  0  0  0  0  0  0  0  0
  152.7534  137.4808  159.0460 C   0  0  0  0  0  0  0  0  0  0  0  0
  152.8211  138.8134  158.9887 N   0  0  0  0  0  0  0  0  0  0  0  0
  153.2822  139.3480  160.1572 C   0  0  0  0  0  0  0  0  0  0  0  0
  153.6518  138.6104  161.3163 C   0  0  0  0  0  0  0  0  0  0  0  0
  154.0688  139.4776  162.3166 N   0  0  0  0  0  0  0  0  0  0  0  0
  153.9513  140.6603  161.7751 C   0  0  0  0  0  0  0  0  0  0  0  0
  153.4838  140.6764  160.4791 N   0  0  0  0  0  0  0  0  0  0  0  0
  153.2478  141.8786  159.6168 C   0  0  1  0  0  0  0  0  0  0  0  0
  152.3667  141.5590  158.5866 O   0  0  0  0  0  0  0  0  0  0  0  0
  151.5172  142.6687  158.2814 C   0  0  1  0  0  0  0  0  0  0  0  0
  150.0540  142.2287  158.4609 C   0  0  0  0  0  0  0  0  0  0  0  0
  149.2437  143.3457  158.7577 O   0  0  0  0  0  0  0  0  0  0  0  0
  151.9219  143.7845  159.2598 C   0  0  2  0  0  0  0  0  0  0  0  0
  152.7786  144.6119  158.6579 F   0  0  0  0  0  0  0  0  0  0  0  0
  152.6426  143.0595  160.3798 C   0  0  1  0  0  0  0  0  0  0  0  0
  151.7531  142.6872  161.4167 O   0  0  0  0  0  0  0  0  0  0  0  0
  154.1743  136.7408  163.0988 H   0  0  0  0  0  0  0  0  0  0  0  0
  153.7260  135.3721  162.1031 H   0  0  0  0  0  0  0  0  0  0  0  0
  152.3964  136.9927  158.1512 H   0  0  0  0  0  0  0  0  0  0  0  0
  154.2032  141.5630  162.3124 H   0  0  0  0  0  0  0  0  0  0  0  0
  154.2220  142.1152  159.1855 H   0  0  0  0  0  0  0  0  0  0  0  0
  151.6825  142.9994  157.2546 H   0  0  0  0  0  0  0  0  0  0  0  0
  149.6778  141.7069  157.5818 H   0  0  0  0  0  0  0  0  0  0  0  0
  149.9686  141.5392  159.3012 H   0  0  0  0  0  0  0  0  0  0  0  0
  148.5791  143.4201  158.0901 H   0  0  0  0  0  0  0  0  0  0  0  0
  151.0883  144.3984  159.6032 H   0  0  0  0  0  0  0  0  0  0  0  0
  153.4399  143.6611  160.8181 H   0  0  0  0  0  0  0  0  0  0  0  0
  152.1467  142.9185  162.2443 H   0  0  0  0  0  0  0  0  0  0  0  0
  1  2  1  0  0  0  0
  1 20  1  0  0  0  0
  1 21  1  0  0  0  0
  2  7  1  0  0  0  0
  2  3  2  0  0  0  0
  3  4  1  0  0  0  0
  4  5  2  0  0  0  0
  4 22  1  0  0  0  0
  5  6  1  0  0  0  0
  6 10  1  0  0  0  0
  6  7  2  0  0  0  0
  7  8  1  0  0  0  0
  8  9  2  0  0  0  0
  9 10  1  0  0  0  0
  9 23  1  0  0  0  0
 10 11  1  0  0  0  0
 11 18  1  0  0  0  0
 11 12  1  0  0  0  0
 11 24  1  0  0  0  0
 12 13  1  0  0  0  0
 13 14  1  0  0  0  0
 13 16  1  0  0  0  0
 13 25  1  0  0  0  0
 14 15  1  0  0  0  0
 14 26  1  0  0  0  0
 14 27  1  0  0  0  0
 15 28  1  0  0  0  0
 16 17  1  0  0  0  0
 16 18  1  0  0  0  0
 16 29  1  0  0  0  0
 18 19  1  0  0  0  0
 18 30  1  0  0  0  0
 19 31  1  0  0  0  0
M  END
> <s_m_source_file>
AV-unprocessed.smi

> <i_m_source_file_index>
100

> <i_lp_mmshare_version>
43012

> <i_f3d_flags>
0

> <s_epik_input>
bjFbY0hdbmMoW05IMl0pYyhjMTIpbltjSF1uMltDQEBIXTNPW0NAQEhdKFtDSDJdW09IXSlbQ0BIXShGKVtDQEhdM1tPSF0=

> <s_epik_cmdline>
J2VwaWtfcHl0aG9uJywgJy1waCcsICc3LjAnLCAnLXRuJywgJzgnLCAnLW1hJywgJzIwMCcsICctbWV0YWxfYmluZGluZycsICctaW1hZScsICc8aW5maWxlLm1hZT4nLCAnLW9tYWUnLCAnPG91dGZpbGUubWFlPic=

> <r_lp_tautomer_probability>
1

> <r_epik_Ionization_Penalty>
0.000750324

> <r_epik_Ionization_Penalty_Charging>
0

> <r_epik_Ionization_Penalty_Neutral>
0.000750324

> <r_epik_State_Penalty>
-0

> <r_epik_Charging_Adjusted_Penalty>
0

> <i_epik_Tot_Q>
0

> <i_epik_Tot_abs_Q>
0

> <r_epik_Metal_State_Penalty>
-0

> <b_epik_Metal_Only>
0

> <s_epik_Chemistry_Notes>
This compound contains an acetal/aminal-like group ( X-CH(R)-Y where X, Y are N, S, or O) that may be acid/base labile, releasing an aldehyde.

> <s_lp_Force_Field>
OPLS_2005

> <r_lp_Energy>
37.0589

> <b_lp_Chiralities_Consistent>
1

> <s_lp_Variant>
AV-unprocessed.smi:100-2

> <Gold.Version>
5.8.1

> <Gold.Id.Protein>
6NUR|6NUR_protein|mol2

> <Gold.PLP.Fitness>
36.5431

> <Gold.PLP.PLP>
-34.1621

> <Gold.PLP.part.hbond>
-2.3488

> <Gold.PLP.part.metal>
0.0000

> <Gold.PLP.part.buried>
-5.7837

> <Gold.PLP.part.nonpolar>
-27.6827

> <Gold.PLP.part.repulsive>
0.0506

> <Gold.PLP.ligand.clash>
0.0000

> <Gold.PLP.ligand.torsion>
0.8415

> <Gold.PLP.Chemscore.Hbond>
1.3537

> <Gold.PLP.Chemscore.CHOScore>
0.0000

> <Gold.PLP.Chemscore.Metal>
0.0000

> <Gold.Chemscore.Hbonds>
donor molecule, donor type, donor heavy atom, donor atom, acceptor molecule, acceptor atom, score
      P1  H  6896  6909       L1     3  1.00
      P1  H  6933  6945       L1    19  0.36

> <Gold.PLP.Chemscore.Internal.Correction>
0.0029

> <Gold.Rescore>
     Score         DG    S(hbond)    S(metal)    S(lipo)     H(rot)  DE(clash)    DE(int)     intcor
      3.52      -6.62       1.25        0.00      43.80       3.19       0.04       3.06       ----

> <Gold.Chemscore.Fitness>
3.5228

> <Gold.Chemscore.DG>
-6.6211

> <Gold.Chemscore.ZeroCoef>
-5.4800

> <Gold.Chemscore.Hbond>
1.2523

> <Gold.Chemscore.Metal>
0.0000

> <Gold.Chemscore.Lipo>
43.8037

> <Gold.Chemscore.Internal_Hbond>
0.0000

> <Gold.Chemscore.DEClash>
0.0413

> <Gold.Chemscore.DEInternal>
3.0569

> <Gold.Chemscore.Rot>
3.1901

> <Gold.Chemscore.Internal.Correction>
   9.000000E+99

> <Gold.Chemscore.Hbonds>
donor molecule, donor type, donor heavy atom, donor atom, acceptor molecule, acceptor atom, score
      P1  H  6896  6909       L1     3  0.90
      P1  H  6933  6945       L1    19  0.05

> <Gold.Chemscore.Hbond.Weighted>
-4.1827

> <Gold.Chemscore.Metal.Weighted>
-0.0000

> <Gold.Chemscore.Lipo.Weighted>
-5.1250

> <Gold.Chemscore.Internal_Hbond.Weighted>
0.0000

> <Gold.Chemscore.DEClash.Weighted>
0.0413

> <Gold.Chemscore.DEInternal.Weighted>
3.0569

> <Gold.Chemscore.Rot.Weighted>
8.1667

> <Gold.Chemscore.Internal.Correction.Weighted>
   9.000000E+99

> <Gold.Protein.RotatedTorsions>
[ 6907 6896 6895 6894 ] final  159.18 input  -60.11 | X-H torsion
[ 7974 7965 7964 7962 ] final  135.24 input  175.53 | X-H torsion
[ 8008 7997 7996 7995 ] final -148.57 input   59.86 | X-H torsion
[ 10167 10162 10161 10158 ] final    7.23 input  -65.29 | X-H torsion
[ 10718 10713 10712 10709 ] final   99.28 input   66.30 | X-H torsion
[ 10763 10752 10751 10750 ] final  170.82 input  -60.55 | X-H torsion
[ 11005 11000 10999 10996 ] final   -5.60 input  -57.11 | X-H torsion

> <Gold.Protein.ActiveResidues>
 VAL166  LYS551  ARG553  GLY616  TRP617  ASP618  TYR619  PRO620  LYS621  CYS622 
 ASP623  PHE694  ASN695  SER759  ASP760  ASP761  ALA762  ILE779  LEU786  VAL792 
 PHE793  MET794  SER795  GLU796  ALA797  LYS798  CYS799  TRP800  GLU811  SER814 

> <Gold.Protein.RotatedAtoms>
  151.9894  133.3785  159.4138 H   0  0  0  0  0  0  0  0  0  0  0  0  # atno 6907 bound_to 6896
  150.6924  134.3953  159.5104 H   0  0  0  0  0  0  0  0  0  0  0  0  # atno 6908 bound_to 6896
  152.1684  134.8854  160.0587 H   0  0  0  0  0  0  0  0  0  0  0  0  # atno 6909 bound_to 6896
  144.9683  139.4633  143.5445 H   0  0  0  0  0  0  0  0  0  0  0  0  # atno 7974 bound_to 7965
  155.5938  140.0655  157.2751 H   0  0  0  0  0  0  0  0  0  0  0  0  # atno 8008 bound_to 7997
  154.4298  140.1830  156.1149 H   0  0  0  0  0  0  0  0  0  0  0  0  # atno 8009 bound_to 7997
  156.0212  140.3316  155.7044 H   0  0  0  0  0  0  0  0  0  0  0  0  # atno 8010 bound_to 7997
  140.6383  143.7834  150.7391 H   0  0  0  0  0  0  0  0  0  0  0  0  # atno 10167 bound_to 10162
  157.6879  131.0665  150.4924 H   0  0  0  0  0  0  0  0  0  0  0  0  # atno 10718 bound_to 10713
  154.4031  135.2755  155.2084 H   0  0  0  0  0  0  0  0  0  0  0  0  # atno 10763 bound_to 10752
  154.4101  135.6024  153.5951 H   0  0  0  0  0  0  0  0  0  0  0  0  # atno 10764 bound_to 10752
  152.9831  135.5947  154.4302 H   0  0  0  0  0  0  0  0  0  0  0  0  # atno 10765 bound_to 10752
  140.6929  133.9055  155.8630 H   0  0  0  0  0  0  0  0  0  0  0  0  # atno 11005 bound_to 11000
  146.3374  139.8879  142.8814 LP  0  0  0  0  0  0  0  0  0  0  0  0  # atno 17320 bound_to 7965
  145.2596  141.0072  143.3834 LP  0  0  0  0  0  0  0  0  0  0  0  0  # atno 17321 bound_to 7965
  140.1460  143.4399  152.2163 LP  0  0  0  0  0  0  0  0  0  0  0  0  # atno 17342 bound_to 10162
  139.5593  144.7394  151.4202 LP  0  0  0  0  0  0  0  0  0  0  0  0  # atno 17343 bound_to 10162
  156.5250  130.4171  149.6231 LP  0  0  0  0  0  0  0  0  0  0  0  0  # atno 17370 bound_to 10713
  156.3120  130.7234  151.2129 LP  0  0  0  0  0  0  0  0  0  0  0  0  # atno 17371 bound_to 10713
  141.0226  134.0867  157.4103 LP  0  0  0  0  0  0  0  0  0  0  0  0  # atno 17394 bound_to 11000
  139.8918  135.0121  156.6812 LP  0  0  0  0  0  0  0  0  0  0  0  0  # atno 17395 bound_to 11000

$$$$
