AV-unprocessed.smi:692|AV-procd|sdf|3369|dock2
  -GOLD-   22720 0343D 1   1.00000     0.00000
 Structure written by MMmdl.
 37 38  0  0  0  0  0  0  0  0  1 V2000
  145.7976  143.3104  154.7868 C   0  0  0  0  0  0  0  0  0  0  0  0
  146.3257  142.6778  153.4943 C   0  0  0  0  0  0  0  0  0  0  0  0
  147.2074  141.4950  153.7571 C   0  0  0  0  0  0  0  0  0  0  0  0
  148.4411  141.5029  154.3615 C   0  0  0  0  0  0  0  0  0  0  0  0
  149.1303  139.9046  154.4629 S   0  0  0  0  0  0  0  0  0  0  0  0
  147.6921  139.2768  153.6741 C   0  0  0  0  0  0  0  0  0  0  0  0
  147.5335  137.8962  153.3850 N   0  0  0  0  0  0  0  0  0  0  0  0
  146.4739  137.2827  152.8293 C   0  0  0  0  0  0  0  0  0  0  0  0
  145.4127  137.8298  152.5279 O   0  0  0  0  0  0  0  0  0  0  0  0
  146.7090  135.9754  152.6450 N   0  0  0  0  0  0  0  0  0  0  0  0
  145.7662  135.0302  152.0545 C   0  0  1  0  0  0  0  0  0  0  0  0
  145.5214  135.3820  150.5865 C   0  0  0  0  0  0  0  0  0  0  0  0
  144.4888  134.4255  149.9779 C   0  0  0  0  0  0  0  0  0  0  0  0
  144.7684  132.9447  150.2792 C   0  0  0  0  0  0  0  0  0  0  0  0
  144.2282  132.0962  149.5689 O   0  0  0  0  0  0  0  0  0  0  0  0
  145.5668  132.6183  151.3248 N   0  0  0  0  0  0  0  0  0  0  0  0
  145.8198  131.2140  151.6516 C   0  0  0  0  0  0  0  0  0  0  0  0
  146.2939  133.5867  152.1606 C   0  0  0  0  0  0  0  0  0  0  0  0
  146.7922  140.2178  153.3679 N   0  0  0  0  0  0  0  0  0  0  0  0
  145.1634  144.1694  154.5677 H   0  0  0  0  0  0  0  0  0  0  0  0
  146.6165  143.6525  155.4200 H   0  0  0  0  0  0  0  0  0  0  0  0
  145.2047  142.5975  155.3607 H   0  0  0  0  0  0  0  0  0  0  0  0
  145.4832  142.3826  152.8678 H   0  0  0  0  0  0  0  0  0  0  0  0
  146.8708  143.4310  152.9248 H   0  0  0  0  0  0  0  0  0  0  0  0
  148.9853  142.3506  154.7505 H   0  0  0  0  0  0  0  0  0  0  0  0
  148.3235  137.3115  153.6145 H   0  0  0  0  0  0  0  0  0  0  0  0
  147.6068  135.6084  152.9248 H   0  0  0  0  0  0  0  0  0  0  0  0
  144.8115  135.1002  152.5804 H   0  0  0  0  0  0  0  0  0  0  0  0
  145.1640  136.4089  150.4982 H   0  0  0  0  0  0  0  0  0  0  0  0
  146.4546  135.3268  150.0238 H   0  0  0  0  0  0  0  0  0  0  0  0
  143.4997  134.6603  150.3734 H   0  0  0  0  0  0  0  0  0  0  0  0
  144.4357  134.5736  148.8988 H   0  0  0  0  0  0  0  0  0  0  0  0
  144.9014  130.7297  151.9855 H   0  0  0  0  0  0  0  0  0  0  0  0
  146.5600  131.1029  152.4451 H   0  0  0  0  0  0  0  0  0  0  0  0
  146.1950  130.6732  150.7812 H   0  0  0  0  0  0  0  0  0  0  0  0
  147.3416  133.5549  151.8567 H   0  0  0  0  0  0  0  0  0  0  0  0
  146.2638  133.2695  153.2043 H   0  0  0  0  0  0  0  0  0  0  0  0
  1  2  1  0  0  0  0
  1 20  1  0  0  0  0
  1 21  1  0  0  0  0
  1 22  1  0  0  0  0
  2  3  1  0  0  0  0
  2 23  1  0  0  0  0
  2 24  1  0  0  0  0
  3 19  1  0  0  0  0
  3  4  2  0  0  0  0
  4  5  1  0  0  0  0
  4 25  1  0  0  0  0
  5  6  1  0  0  0  0
  6  7  1  0  0  0  0
  6 19  2  0  0  0  0
  7  8  1  0  0  0  0
  7 26  1  0  0  0  0
  8  9  2  0  0  0  0
  8 10  1  0  0  0  0
 10 11  1  0  0  0  0
 10 27  1  0  0  0  0
 11 18  1  0  0  0  0
 11 12  1  0  0  0  0
 11 28  1  0  0  0  0
 12 13  1  0  0  0  0
 12 29  1  0  0  0  0
 12 30  1  0  0  0  0
 13 14  1  0  0  0  0
 13 31  1  0  0  0  0
 13 32  1  0  0  0  0
 14 15  2  0  0  0  0
 14 16  1  0  0  0  0
 16 17  1  0  0  0  0
 16 18  1  0  0  0  0
 17 33  1  0  0  0  0
 17 34  1  0  0  0  0
 17 35  1  0  0  0  0
 18 36  1  0  0  0  0
 18 37  1  0  0  0  0
M  END
> <s_m_source_file>
AV-unprocessed.smi

> <i_m_source_file_index>
692

> <i_lp_mmshare_version>
43012

> <i_f3d_flags>
0

> <s_epik_input>
W0NIM11bQ0gyXWMxW2NIXXNjKG4xKVtOSF1DKD1PKVtOSF1bQ0BASF0yW0NIMl1bQ0gyXUMoPU8pTihbQ0gzXSlbQ0gyXTI=

> <s_epik_cmdline>
J2VwaWtfcHl0aG9uJywgJy1waCcsICc3LjAnLCAnLXRuJywgJzgnLCAnLW1hJywgJzIwMCcsICctbWV0YWxfYmluZGluZycsICctaW1hZScsICc8aW5maWxlLm1hZT4nLCAnLW9tYWUnLCAnPG91dGZpbGUubWFlPic=

> <r_lp_tautomer_probability>
1

> <r_epik_Ionization_Penalty>
0.000165573

> <r_epik_Ionization_Penalty_Charging>
0

> <r_epik_Ionization_Penalty_Neutral>
0.000165573

> <r_epik_State_Penalty>
-0

> <r_epik_Charging_Adjusted_Penalty>
0

> <i_epik_Tot_Q>
0

> <i_epik_Tot_abs_Q>
0

> <r_epik_Metal_State_Penalty>
0.031163

> <b_epik_Metal_Only>
0

> <s_lp_Force_Field>
OPLS_2005

> <r_lp_Energy>
8.08007

> <b_lp_Chiralities_Consistent>
1

> <s_lp_Variant>
AV-unprocessed.smi:692-2

> <Gold.Version>
5.8.1

> <Gold.Id.Protein>
6NUR|6NUR_protein|mol2

> <Gold.PLP.Fitness>
40.3619

> <Gold.PLP.PLP>
-34.6586

> <Gold.PLP.part.hbond>
-1.9889

> <Gold.PLP.part.metal>
0.0000

> <Gold.PLP.part.buried>
-3.5103

> <Gold.PLP.part.nonpolar>
-29.7324

> <Gold.PLP.part.repulsive>
0.6511

> <Gold.PLP.ligand.clash>
0.0000

> <Gold.PLP.ligand.torsion>
0.0853

> <Gold.PLP.Chemscore.Hbond>
0.9564

> <Gold.PLP.Chemscore.CHOScore>
1.0000

> <Gold.PLP.Chemscore.Metal>
0.0000

> <Gold.Chemscore.Hbonds>
donor molecule, donor type, donor heavy atom, donor atom, acceptor molecule, acceptor atom, score
      L1  H     7    26       P1  7948  0.14
      L1  H    10    27       P1  7948  0.24
      P1  H 10785 10796       L1    15  0.13
      L1  C     4    25       P1  8028  1.00

> <Gold.PLP.Chemscore.Internal.Correction>
0.0046

> <Gold.Rescore>
     Score         DG    S(hbond)    S(metal)    S(lipo)     H(rot)  DE(clash)    DE(int)     intcor
     11.94     -15.20       1.55        0.00      65.94       1.24       1.91       1.34       ----

> <Gold.Chemscore.Fitness>
11.9426

> <Gold.Chemscore.DG>
-15.1957

> <Gold.Chemscore.ZeroCoef>
-5.4800

> <Gold.Chemscore.Hbond>
1.5483

> <Gold.Chemscore.Metal>
0.0000

> <Gold.Chemscore.Lipo>
65.9413

> <Gold.Chemscore.Internal_Hbond>
0.0000

> <Gold.Chemscore.DEClash>
1.9101

> <Gold.Chemscore.DEInternal>
1.3430

> <Gold.Chemscore.Rot>
1.2386

> <Gold.Chemscore.Internal.Correction>
   9.000000E+99

> <Gold.Chemscore.Hbonds>
donor molecule, donor type, donor heavy atom, donor atom, acceptor molecule, acceptor atom, score
      L1  H     7    26       P1  7948  0.14
      L1  H    10    27       P1  7948  0.24
      P1  H 10785 10796       L1    15  0.14

> <Gold.Chemscore.Hbond.Weighted>
-5.1714

> <Gold.Chemscore.Metal.Weighted>
-0.0000

> <Gold.Chemscore.Lipo.Weighted>
-7.7151

> <Gold.Chemscore.Internal_Hbond.Weighted>
0.0000

> <Gold.Chemscore.DEClash.Weighted>
1.9101

> <Gold.Chemscore.DEInternal.Weighted>
1.3430

> <Gold.Chemscore.Rot.Weighted>
3.1708

> <Gold.Chemscore.Internal.Correction.Weighted>
   9.000000E+99

> <Gold.Protein.RotatedTorsions>
[ 6907 6896 6895 6894 ] final -133.51 input  -60.11 | X-H torsion
[ 7974 7965 7964 7962 ] final  -95.89 input  175.53 | X-H torsion
[ 8008 7997 7996 7995 ] final  -87.27 input   59.86 | X-H torsion
[ 10167 10162 10161 10158 ] final   11.40 input  -65.29 | X-H torsion
[ 10718 10713 10712 10709 ] final  -31.66 input   66.30 | X-H torsion
[ 10763 10752 10751 10750 ] final -161.81 input  -60.55 | X-H torsion
[ 11005 11000 10999 10996 ] final -109.30 input  -57.11 | X-H torsion

> <Gold.Protein.ActiveResidues>
 VAL166  LYS551  ARG553  GLY616  TRP617  ASP618  TYR619  PRO620  LYS621  CYS622 
 ASP623  PHE694  ASN695  SER759  ASP760  ASP761  ALA762  ILE779  LEU786  VAL792 
 PHE793  MET794  SER795  GLU796  ALA797  LYS798  CYS799  TRP800  GLU811  SER814 

> <Gold.Protein.RotatedAtoms>
  150.9749  133.6305  159.2731 H   0  0  0  0  0  0  0  0  0  0  0  0  # atno 6907 bound_to 6896
  151.3581  135.0897  159.9435 H   0  0  0  0  0  0  0  0  0  0  0  0  # atno 6908 bound_to 6896
  152.5196  133.9328  159.7643 H   0  0  0  0  0  0  0  0  0  0  0  0  # atno 6909 bound_to 6896
  145.3540  140.9481  143.2538 H   0  0  0  0  0  0  0  0  0  0  0  0  # atno 7974 bound_to 7965
  154.6614  140.0568  157.0066 H   0  0  0  0  0  0  0  0  0  0  0  0  # atno 8008 bound_to 7997
  155.1223  140.3248  155.4475 H   0  0  0  0  0  0  0  0  0  0  0  0  # atno 8009 bound_to 7997
  156.2619  140.1995  156.6345 H   0  0  0  0  0  0  0  0  0  0  0  0  # atno 8010 bound_to 7997
  140.6134  143.8359  150.7091 H   0  0  0  0  0  0  0  0  0  0  0  0  # atno 10167 bound_to 10162
  156.3845  130.4362  149.7443 H   0  0  0  0  0  0  0  0  0  0  0  0  # atno 10718 bound_to 10713
  154.7270  135.3038  154.8954 H   0  0  0  0  0  0  0  0  0  0  0  0  # atno 10763 bound_to 10752
  153.9808  135.6730  153.4754 H   0  0  0  0  0  0  0  0  0  0  0  0  # atno 10764 bound_to 10752
  153.0884  135.4972  154.8562 H   0  0  0  0  0  0  0  0  0  0  0  0  # atno 10765 bound_to 10752
  141.0855  133.9146  157.2194 H   0  0  0  0  0  0  0  0  0  0  0  0  # atno 11005 bound_to 11000
  144.8696  139.5058  143.6774 LP  0  0  0  0  0  0  0  0  0  0  0  0  # atno 17320 bound_to 7965
  146.2956  139.7267  142.9129 LP  0  0  0  0  0  0  0  0  0  0  0  0  # atno 17321 bound_to 7965
  140.1933  143.4018  152.1847 LP  0  0  0  0  0  0  0  0  0  0  0  0  # atno 17342 bound_to 10162
  139.5379  144.7228  151.4831 LP  0  0  0  0  0  0  0  0  0  0  0  0  # atno 17343 bound_to 10162
  156.4520  130.7911  151.2932 LP  0  0  0  0  0  0  0  0  0  0  0  0  # atno 17370 bound_to 10713
  157.7495  131.0092  150.3259 LP  0  0  0  0  0  0  0  0  0  0  0  0  # atno 17371 bound_to 10713
  139.9673  135.0138  156.9420 LP  0  0  0  0  0  0  0  0  0  0  0  0  # atno 17394 bound_to 11000
  140.5372  134.0755  155.7331 LP  0  0  0  0  0  0  0  0  0  0  0  0  # atno 17395 bound_to 11000

$$$$
