AV-unprocessed.smi:1451|AV-procd|sdf|5901|dock9
  -GOLD-   22720 5583D 1   1.00000     0.00000
 Structure written by MMmdl.
 47 48  0  0  0  0  0  0  0  0  2 V2000
  147.0844  133.2025  151.6431 C   0  0  0  0  0  0  0  0  0  0  0  0
  145.7764  133.6838  152.2954 C   0  0  2  0  0  0  0  0  0  0  0  0
  144.9462  134.5925  151.3704 C   0  0  0  0  0  0  0  0  0  0  0  0
  145.5726  135.9891  151.2531 C   0  0  0  0  0  0  0  0  0  0  0  0
  145.8125  136.6048  152.6405 C   0  0  0  0  0  0  0  0  0  0  0  0
  146.6491  135.7140  153.4856 N   0  3  1  0  0  0  0  0  0  0  0  0
  147.0238  136.3524  154.7729 C   0  0  0  0  0  0  0  0  0  0  0  0
  147.8189  135.4069  155.6884 C   0  0  0  0  0  0  0  0  0  0  0  0
  147.9059  135.9563  157.0347 N   0  0  0  0  0  0  0  0  0  0  0  0
  148.6140  135.4119  158.0345 C   0  0  0  0  0  0  0  0  0  0  0  0
  149.2883  134.3898  157.9031 O   0  0  0  0  0  0  0  0  0  0  0  0
  148.5661  136.1499  159.3795 C   0  0  0  0  0  0  0  0  0  0  0  0
  147.9824  135.3359  160.4587 N   0  0  0  0  0  0  0  0  0  0  0  0
  147.9793  133.9379  160.2831 C   0  0  0  0  0  0  0  0  0  0  0  0
  147.4600  133.0869  161.1889 C   0  0  0  0  0  0  0  0  0  0  0  0
  147.5170  131.5796  160.9947 C   0  0  0  0  0  0  0  0  0  0  0  0
  148.3753  131.0176  161.8464 F   0  0  0  0  0  0  0  0  0  0  0  0
  146.3135  131.0497  161.2078 F   0  0  0  0  0  0  0  0  0  0  0  0
  147.8942  131.2681  159.7540 F   0  0  0  0  0  0  0  0  0  0  0  0
  146.9207  133.6800  162.3970 C   0  0  0  0  0  0  0  0  0  0  0  0
  146.9222  135.0143  162.5839 C   0  0  0  0  0  0  0  0  0  0  0  0
  147.4688  135.9283  161.5785 C   0  0  0  0  0  0  0  0  0  0  0  0
  147.4658  137.1500  161.7320 O   0  0  0  0  0  0  0  0  0  0  0  0
  146.0219  134.3742  153.6531 C   0  0  0  0  0  0  0  0  0  0  0  0
  147.7633  134.0284  151.4312 H   0  0  0  0  0  0  0  0  0  0  0  0
  146.8867  132.6869  150.7030 H   0  0  0  0  0  0  0  0  0  0  0  0
  147.6111  132.5036  152.2937 H   0  0  0  0  0  0  0  0  0  0  0  0
  145.1831  132.7886  152.4870 H   0  0  0  0  0  0  0  0  0  0  0  0
  144.8379  134.1406  150.3838 H   0  0  0  0  0  0  0  0  0  0  0  0
  143.9372  134.6890  151.7740 H   0  0  0  0  0  0  0  0  0  0  0  0
  146.5150  135.9314  150.7075 H   0  0  0  0  0  0  0  0  0  0  0  0
  144.9211  136.6384  150.6674 H   0  0  0  0  0  0  0  0  0  0  0  0
  146.3045  137.5706  152.5184 H   0  0  0  0  0  0  0  0  0  0  0  0
  144.8608  136.7940  153.1400 H   0  0  0  0  0  0  0  0  0  0  0  0
  147.6454  137.2265  154.5727 H   0  0  0  0  0  0  0  0  0  0  0  0
  146.1284  136.7197  155.2772 H   0  0  0  0  0  0  0  0  0  0  0  0
  147.3470  134.4249  155.7313 H   0  0  0  0  0  0  0  0  0  0  0  0
  148.8279  135.2625  155.2994 H   0  0  0  0  0  0  0  0  0  0  0  0
  147.3877  136.8022  157.2242 H   0  0  0  0  0  0  0  0  0  0  0  0
  149.5817  136.4570  159.6321 H   0  0  0  0  0  0  0  0  0  0  0  0
  148.0060  137.0809  159.2710 H   0  0  0  0  0  0  0  0  0  0  0  0
  148.4237  133.5994  159.3585 H   0  0  0  0  0  0  0  0  0  0  0  0
  146.5030  133.0445  163.1638 H   0  0  0  0  0  0  0  0  0  0  0  0
  146.5093  135.4216  163.4951 H   0  0  0  0  0  0  0  0  0  0  0  0
  145.0750  134.4899  154.1830 H   0  0  0  0  0  0  0  0  0  0  0  0
  146.6434  133.7296  154.2733 H   0  0  0  0  0  0  0  0  0  0  0  0
  147.5101  135.5735  152.9764 H   0  0  0  0  0  0  0  0  0  0  0  0
  1  2  1  0  0  0  0
  1 25  1  0  0  0  0
  1 26  1  0  0  0  0
  1 27  1  0  0  0  0
  2 24  1  0  0  0  0
  2  3  1  0  0  0  0
  2 28  1  0  0  0  0
  3  4  1  0  0  0  0
  3 29  1  0  0  0  0
  3 30  1  0  0  0  0
  4  5  1  0  0  0  0
  4 31  1  0  0  0  0
  4 32  1  0  0  0  0
  5  6  1  0  0  0  0
  5 33  1  0  0  0  0
  5 34  1  0  0  0  0
  6  7  1  0  0  0  0
  6 24  1  0  0  0  0
  6 47  1  0  0  0  0
  7  8  1  0  0  0  0
  7 35  1  0  0  0  0
  7 36  1  0  0  0  0
  8  9  1  0  0  0  0
  8 37  1  0  0  0  0
  8 38  1  0  0  0  0
  9 10  1  0  0  0  0
  9 39  1  0  0  0  0
 10 11  2  0  0  0  0
 10 12  1  0  0  0  0
 12 13  1  0  0  0  0
 12 40  1  0  0  0  0
 12 41  1  0  0  0  0
 13 22  1  0  0  0  0
 13 14  1  0  0  0  0
 14 15  2  0  0  0  0
 14 42  1  0  0  0  0
 15 16  1  0  0  0  0
 15 20  1  0  0  0  0
 16 17  1  0  0  0  0
 16 18  1  0  0  0  0
 16 19  1  0  0  0  0
 20 21  2  0  0  0  0
 20 43  1  0  0  0  0
 21 22  1  0  0  0  0
 21 44  1  0  0  0  0
 22 23  2  0  0  0  0
 24 45  1  0  0  0  0
 24 46  1  0  0  0  0
M  CHG  1   6   1
M  END
> <s_m_source_file>
AV-unprocessed.smi

> <i_m_source_file_index>
1451

> <i_lp_mmshare_version>
43012

> <i_f3d_flags>
0

> <s_epik_input>
W0NIM11bQ0BASF0xW0NIMl1bQ0gyXVtDSDJdTihbQ0gyXTEpW0NIMl1bQ0gyXVtOSF1DKD1PKVtDSDJdbjJbY0hdYyhDKEYpKEYpRilbY0hdW2NIXWMyPU8=

> <s_epik_cmdline>
J2VwaWtfcHl0aG9uJywgJy1waCcsICc3LjAnLCAnLXRuJywgJzgnLCAnLW1hJywgJzIwMCcsICctbWV0YWxfYmluZGluZycsICctaW1hZScsICc8aW5maWxlLm1hZT4nLCAnLW9tYWUnLCAnPG91dGZpbGUubWFlPic=

> <r_lp_tautomer_probability>
1

> <r_epik_Ionization_Penalty>
0.00192452

> <r_epik_Ionization_Penalty_Charging>
0.00192444

> <r_epik_Ionization_Penalty_Neutral>
8.16761e-08

> <r_epik_State_Penalty>
0.00131115

> <r_epik_Charging_Adjusted_Penalty>
0.00323559

> <i_epik_Tot_Q>
1

> <i_epik_Tot_abs_Q>
1

> <r_epik_Metal_State_Penalty>
-0

> <b_epik_Metal_Only>
0

> <s_lp_Force_Field>
OPLS_2005

> <r_lp_Energy>
31.5843

> <b_lp_Chiralities_Consistent>
1

> <s_lp_Variant>
AV-unprocessed.smi:1451-3

> <Gold.Version>
5.8.1

> <Gold.Id.Protein>
6NUR|6NUR_protein|mol2

> <Gold.PLP.Fitness>
51.7167

> <Gold.PLP.PLP>
-39.7965

> <Gold.PLP.part.hbond>
-4.0000

> <Gold.PLP.part.metal>
0.0000

> <Gold.PLP.part.buried>
-4.7855

> <Gold.PLP.part.nonpolar>
-32.0482

> <Gold.PLP.part.repulsive>
0.0000

> <Gold.PLP.ligand.clash>
0.9759

> <Gold.PLP.ligand.torsion>
0.6468

> <Gold.PLP.Chemscore.Hbond>
4.6960

> <Gold.PLP.Chemscore.CHOScore>
0.0000

> <Gold.PLP.Chemscore.Metal>
0.0000

> <Gold.Chemscore.Hbonds>
donor molecule, donor type, donor heavy atom, donor atom, acceptor molecule, acceptor atom, score
      L1  H     6    47       P1  7948  2.00
      P1  H  6896  6909       L1    11  1.00
      P1  H  6931  6943       L1    23  0.96
      P1  H  6934  6947       L1    23  0.77

> <Gold.PLP.Chemscore.Internal.Correction>
0.1017

> <Gold.Rescore>
     Score         DG    S(hbond)    S(metal)    S(lipo)     H(rot)  DE(clash)    DE(int)     intcor
     18.50     -20.34       3.60        0.00      69.76       2.08       0.00       1.84       ----

> <Gold.Chemscore.Fitness>
18.4987

> <Gold.Chemscore.DG>
-20.3416

> <Gold.Chemscore.ZeroCoef>
-5.4800

> <Gold.Chemscore.Hbond>
3.5973

> <Gold.Chemscore.Metal>
0.0000

> <Gold.Chemscore.Lipo>
69.7579

> <Gold.Chemscore.Internal_Hbond>
0.0000

> <Gold.Chemscore.DEClash>
0.0015

> <Gold.Chemscore.DEInternal>
1.8414

> <Gold.Chemscore.Rot>
2.0762

> <Gold.Chemscore.Internal.Correction>
   9.000000E+99

> <Gold.Chemscore.Hbonds>
donor molecule, donor type, donor heavy atom, donor atom, acceptor molecule, acceptor atom, score
      L1  H     6    47       P1  7948  0.96
      P1  H  6896  6909       L1    11  0.86
      P1  H  6931  6943       L1    23  0.92
      P1  H  6934  6947       L1    23  0.72

> <Gold.Chemscore.Hbond.Weighted>
-12.0149

> <Gold.Chemscore.Metal.Weighted>
-0.0000

> <Gold.Chemscore.Lipo.Weighted>
-8.1617

> <Gold.Chemscore.Internal_Hbond.Weighted>
0.0000

> <Gold.Chemscore.DEClash.Weighted>
0.0015

> <Gold.Chemscore.DEInternal.Weighted>
1.8414

> <Gold.Chemscore.Rot.Weighted>
5.3150

> <Gold.Chemscore.Internal.Correction.Weighted>
   9.000000E+99

> <Gold.Protein.RotatedTorsions>
[ 6907 6896 6895 6894 ] final   17.69 input  -60.11 | X-H torsion
[ 7974 7965 7964 7962 ] final  -52.44 input  175.53 | X-H torsion
[ 8008 7997 7996 7995 ] final   85.91 input   59.86 | X-H torsion
[ 10167 10162 10161 10158 ] final  -83.44 input  -65.29 | X-H torsion
[ 10718 10713 10712 10709 ] final  -93.50 input   66.30 | X-H torsion
[ 10763 10752 10751 10750 ] final  136.40 input  -60.55 | X-H torsion
[ 11005 11000 10999 10996 ] final  -53.69 input  -57.11 | X-H torsion

> <Gold.Protein.ActiveResidues>
 VAL166  LYS551  ARG553  GLY616  TRP617  ASP618  TYR619  PRO620  LYS621  CYS622 
 ASP623  PHE694  ASN695  SER759  ASP760  ASP761  ALA762  ILE779  LEU786  VAL792 
 PHE793  MET794  SER795  GLU796  ALA797  LYS798  CYS799  TRP800  GLU811  SER814 

> <Gold.Protein.RotatedAtoms>
  151.8536  135.0549  160.0461 H   0  0  0  0  0  0  0  0  0  0  0  0  # atno 6907 bound_to 6896
  152.2718  133.5384  159.5452 H   0  0  0  0  0  0  0  0  0  0  0  0  # atno 6908 bound_to 6896
  150.7154  134.0604  159.3871 H   0  0  0  0  0  0  0  0  0  0  0  0  # atno 6909 bound_to 6896
  145.9079  140.7940  142.9710 H   0  0  0  0  0  0  0  0  0  0  0  0  # atno 7974 bound_to 7965
  155.9561  140.3397  155.6449 H   0  0  0  0  0  0  0  0  0  0  0  0  # atno 8008 bound_to 7997
  155.6858  140.0743  157.2485 H   0  0  0  0  0  0  0  0  0  0  0  0  # atno 8009 bound_to 7997
  154.4132  140.1666  156.2020 H   0  0  0  0  0  0  0  0  0  0  0  0  # atno 8010 bound_to 7997
  140.4226  143.2579  151.8869 H   0  0  0  0  0  0  0  0  0  0  0  0  # atno 10167 bound_to 10162
  156.0014  130.5030  150.5786 H   0  0  0  0  0  0  0  0  0  0  0  0  # atno 10718 bound_to 10713
  153.8560  135.3073  155.3435 H   0  0  0  0  0  0  0  0  0  0  0  0  # atno 10763 bound_to 10752
  154.7870  135.4804  153.9971 H   0  0  0  0  0  0  0  0  0  0  0  0  # atno 10764 bound_to 10752
  153.1490  135.6839  153.9004 H   0  0  0  0  0  0  0  0  0  0  0  0  # atno 10765 bound_to 10752
  141.0988  133.6621  156.4209 H   0  0  0  0  0  0  0  0  0  0  0  0  # atno 11005 bound_to 11000
  144.6741  140.1779  143.7408 LP  0  0  0  0  0  0  0  0  0  0  0  0  # atno 17320 bound_to 7965
  145.8709  139.2271  143.1661 LP  0  0  0  0  0  0  0  0  0  0  0  0  # atno 17321 bound_to 7965
  139.4783  144.5421  151.8512 LP  0  0  0  0  0  0  0  0  0  0  0  0  # atno 17342 bound_to 10162
  140.4517  144.1846  150.5898 LP  0  0  0  0  0  0  0  0  0  0  0  0  # atno 17343 bound_to 10162
  157.3670  131.0759  151.1589 LP  0  0  0  0  0  0  0  0  0  0  0  0  # atno 17370 bound_to 10713
  157.2355  130.6545  149.5868 LP  0  0  0  0  0  0  0  0  0  0  0  0  # atno 17371 bound_to 10713
  140.5073  134.6429  157.5271 LP  0  0  0  0  0  0  0  0  0  0  0  0  # atno 17394 bound_to 11000
  139.9833  134.7102  155.9819 LP  0  0  0  0  0  0  0  0  0  0  0  0  # atno 17395 bound_to 11000

$$$$
