AV-unprocessed.smi:193|AV-procd|sdf|1516|dock3
  -GOLD-   2262019353D 1   1.00000     0.00000
 Structure written by MMmdl.
 61 65  0  0  0  0  0  0  0  0  1 V2000
  153.6841  138.3537  158.8835 C   0  0  0  0  0  0  0  0  0  0  0  0
  152.6493  139.4819  158.7653 C   0  0  2  0  0  0  0  0  0  0  0  0
  152.1891  139.6458  157.3012 C   0  0  0  0  0  0  0  0  0  0  0  0
  150.8483  140.2308  157.2240 N   0  0  0  0  0  0  0  0  0  0  0  0
  149.7706  139.4104  157.3921 C   0  0  0  0  0  0  0  0  0  0  0  0
  148.7396  139.5424  156.5152 N   0  0  0  0  0  0  0  0  0  0  0  0
  147.6479  138.7811  156.6170 C   0  0  0  0  0  0  0  0  0  0  0  0
  147.3761  137.8323  157.5116 N   0  0  0  0  0  0  0  0  0  0  0  0
  148.3992  137.6847  158.3994 C   0  0  0  0  0  0  0  0  0  0  0  0
  149.6222  138.4195  158.4138 C   0  0  0  0  0  0  0  0  0  0  0  0
  150.4169  137.9593  159.4601 N   0  0  0  0  0  0  0  0  0  0  0  0
  149.7088  137.0237  160.0281 C   0  0  0  0  0  0  0  0  0  0  0  0
  148.4756  136.8020  159.4630 N   0  0  0  0  0  0  0  0  0  0  0  0
  147.4844  135.8259  159.8903 C   0  0  0  0  0  0  0  0  0  0  0  0
  146.5498  136.3207  161.0291 C   0  0  0  0  0  0  0  0  0  0  0  0
  146.1020  137.6181  160.6840 O   0  0  0  0  0  0  0  0  0  0  0  0
  145.3041  135.4238  161.1691 C   0  0  0  0  0  0  0  0  0  0  0  0
  145.6464  134.0791  161.8372 C   0  0  0  0  0  0  0  0  0  0  0  0
  146.2668  134.3025  163.0992 O   0  0  0  0  0  0  0  0  0  0  0  0
  147.4911  135.0231  163.0045 C   0  0  0  0  0  0  0  0  0  0  0  0
  147.2306  136.4184  162.4110 C   0  0  0  0  0  0  0  0  0  0  0  0
  150.7470  141.6603  157.4897 C   0  0  0  0  0  0  0  0  0  0  0  0
  151.1681  142.0281  158.9238 C   0  0  0  0  0  0  0  0  0  0  0  0
  152.6262  142.0469  158.9868 N   0  0  0  0  0  0  0  0  0  0  0  0
  153.0773  143.0910  159.8971 C   0  0  2  0  0  0  0  0  0  0  0  0
  152.0413  143.7420  160.7864 C   0  0  0  0  0  0  0  0  0  0  0  0
  152.6430  144.5237  159.6431 C   0  0  2  0  0  0  0  0  0  0  0  0
  151.7815  144.9280  158.4620 C   0  0  0  0  0  0  0  0  0  0  0  0
  153.2064  140.7722  159.4220 C   0  0  0  0  0  0  0  0  0  0  0  0
  154.5829  138.5779  158.3078 H   0  0  0  0  0  0  0  0  0  0  0  0
  153.2806  137.4096  158.5162 H   0  0  0  0  0  0  0  0  0  0  0  0
  153.9812  138.2004  159.9214 H   0  0  0  0  0  0  0  0  0  0  0  0
  151.7857  139.1605  159.3497 H   0  0  0  0  0  0  0  0  0  0  0  0
  152.8918  140.2794  156.7584 H   0  0  0  0  0  0  0  0  0  0  0  0
  152.2193  138.6859  156.7859 H   0  0  0  0  0  0  0  0  0  0  0  0
  146.8819  138.9591  155.8767 H   0  0  0  0  0  0  0  0  0  0  0  0
  150.0669  136.4709  160.8844 H   0  0  0  0  0  0  0  0  0  0  0  0
  146.8931  135.5404  159.0192 H   0  0  0  0  0  0  0  0  0  0  0  0
  148.0190  134.9255  160.1913 H   0  0  0  0  0  0  0  0  0  0  0  0
  145.2549  137.5451  160.2718 H   0  0  0  0  0  0  0  0  0  0  0  0
  144.5550  135.9278  161.7819 H   0  0  0  0  0  0  0  0  0  0  0  0
  144.8396  135.2553  160.1967 H   0  0  0  0  0  0  0  0  0  0  0  0
  144.7356  133.5015  161.9949 H   0  0  0  0  0  0  0  0  0  0  0  0
  146.2940  133.4722  161.2036 H   0  0  0  0  0  0  0  0  0  0  0  0
  147.9170  135.1178  164.0035 H   0  0  0  0  0  0  0  0  0  0  0  0
  148.2123  134.4645  162.4069 H   0  0  0  0  0  0  0  0  0  0  0  0
  148.1552  136.9930  162.3629 H   0  0  0  0  0  0  0  0  0  0  0  0
  146.5813  136.9620  163.0991 H   0  0  0  0  0  0  0  0  0  0  0  0
  151.3718  142.1933  156.7716 H   0  0  0  0  0  0  0  0  0  0  0  0
  149.7349  142.0081  157.2872 H   0  0  0  0  0  0  0  0  0  0  0  0
  150.7864  143.0305  159.1213 H   0  0  0  0  0  0  0  0  0  0  0  0
  150.7323  141.3766  159.6821 H   0  0  0  0  0  0  0  0  0  0  0  0
  154.0601  142.9809  160.3526 H   0  0  0  0  0  0  0  0  0  0  0  0
  151.0083  143.4130  160.6872 H   0  0  0  0  0  0  0  0  0  0  0  0
  152.3460  144.0147  161.7948 H   0  0  0  0  0  0  0  0  0  0  0  0
  153.3703  145.2845  159.9202 H   0  0  0  0  0  0  0  0  0  0  0  0
  151.0363  144.1644  158.2373 H   0  0  0  0  0  0  0  0  0  0  0  0
  152.4030  145.0797  157.5797 H   0  0  0  0  0  0  0  0  0  0  0  0
  151.2615  145.8600  158.6831 H   0  0  0  0  0  0  0  0  0  0  0  0
  153.0959  140.6737  160.5032 H   0  0  0  0  0  0  0  0  0  0  0  0
  154.2790  140.8340  159.2351 H   0  0  0  0  0  0  0  0  0  0  0  0
  1  2  1  0  0  0  0
  1 30  1  0  0  0  0
  1 31  1  0  0  0  0
  1 32  1  0  0  0  0
  2 29  1  0  0  0  0
  2  3  1  0  0  0  0
  2 33  1  0  0  0  0
  3  4  1  0  0  0  0
  3 34  1  0  0  0  0
  3 35  1  0  0  0  0
  4  5  1  0  0  0  0
  4 22  1  0  0  0  0
  5 10  1  0  0  0  0
  5  6  2  0  0  0  0
  6  7  1  0  0  0  0
  7  8  2  0  0  0  0
  7 36  1  0  0  0  0
  8  9  1  0  0  0  0
  9 13  1  0  0  0  0
  9 10  2  0  0  0  0
 10 11  1  0  0  0  0
 11 12  2  0  0  0  0
 12 13  1  0  0  0  0
 12 37  1  0  0  0  0
 13 14  1  0  0  0  0
 14 15  1  0  0  0  0
 14 38  1  0  0  0  0
 14 39  1  0  0  0  0
 15 21  1  0  0  0  0
 15 16  1  0  0  0  0
 15 17  1  0  0  0  0
 16 40  1  0  0  0  0
 17 18  1  0  0  0  0
 17 41  1  0  0  0  0
 17 42  1  0  0  0  0
 18 19  1  0  0  0  0
 18 43  1  0  0  0  0
 18 44  1  0  0  0  0
 19 20  1  0  0  0  0
 20 21  1  0  0  0  0
 20 45  1  0  0  0  0
 20 46  1  0  0  0  0
 21 47  1  0  0  0  0
 21 48  1  0  0  0  0
 22 23  1  0  0  0  0
 22 49  1  0  0  0  0
 22 50  1  0  0  0  0
 23 24  1  0  0  0  0
 23 51  1  0  0  0  0
 23 52  1  0  0  0  0
 24 25  1  0  0  0  0
 24 29  1  0  0  0  0
 25 27  1  0  0  0  0
 25 26  1  0  0  0  0
 25 53  1  0  0  0  0
 26 27  1  0  0  0  0
 26 54  1  0  0  0  0
 26 55  1  0  0  0  0
 27 28  1  0  0  0  0
 27 56  1  0  0  0  0
 28 57  1  0  0  0  0
 28 58  1  0  0  0  0
 28 59  1  0  0  0  0
 29 60  1  0  0  0  0
 29 61  1  0  0  0  0
M  END
> <s_m_source_file>
AV-unprocessed.smi

> <i_m_source_file_index>
193

> <i_lp_mmshare_version>
43012

> <i_f3d_flags>
0

> <s_epik_input>
W0NIM11bQ0BASF0xW0NIMl1bQ0BIXTFOKFtDSDJdMilbQ0gyXVtDSDJdTihbQ0gyXVtDQEhdMltDSDNdKWMobltjSF1uMyljKGMzNCluW2NIXW40W0NIMl1DNShbT0hdKVtDSDJdW0NIMl1PW0NIMl1bQ0gyXTU=

> <s_epik_cmdline>
J2VwaWtfcHl0aG9uJywgJy1waCcsICc3LjAnLCAnLXRuJywgJzgnLCAnLW1hJywgJzIwMCcsICctbWV0YWxfYmluZGluZycsICctaW1hZScsICc8aW5maWxlLm1hZT4nLCAnLW9tYWUnLCAnPG91dGZpbGUubWFlPic=

> <r_lp_tautomer_probability>
1

> <r_epik_Ionization_Penalty>
1.45227

> <r_epik_Ionization_Penalty_Charging>
0

> <r_epik_Ionization_Penalty_Neutral>
1.45227

> <r_epik_State_Penalty>
2.02377

> <r_epik_Charging_Adjusted_Penalty>
2.02377

> <i_epik_Tot_Q>
0

> <i_epik_Tot_abs_Q>
0

> <r_epik_Metal_State_Penalty>
2.01937

> <b_epik_Metal_Only>
0

> <s_lp_Force_Field>
OPLS_2005

> <r_lp_Energy>
54.596

> <b_lp_Chiralities_Consistent>
1

> <s_lp_Variant>
AV-unprocessed.smi:193-21

> <Gold.Version>
5.8.1

> <Gold.Id.Protein>
6NUR|6NUR_protein|mol2

> <Gold.PLP.Fitness>
44.4091

> <Gold.PLP.PLP>
-47.1425

> <Gold.PLP.part.hbond>
-3.0000

> <Gold.PLP.part.metal>
0.0000

> <Gold.PLP.part.buried>
-5.5009

> <Gold.PLP.part.nonpolar>
-38.9003

> <Gold.PLP.part.repulsive>
0.0093

> <Gold.PLP.ligand.clash>
2.6065

> <Gold.PLP.ligand.torsion>
2.2373

> <Gold.PLP.Chemscore.Hbond>
1.0000

> <Gold.PLP.Chemscore.CHOScore>
0.0000

> <Gold.PLP.Chemscore.Metal>
0.0000

> <Gold.Chemscore.Hbonds>
donor molecule, donor type, donor heavy atom, donor atom, acceptor molecule, acceptor atom, score
      P1  H  6934  6947       L1    16  1.00

> <Gold.PLP.Chemscore.Internal.Correction>
1.3477

> <Gold.Rescore>
     Score         DG    S(hbond)    S(metal)    S(lipo)     H(rot)  DE(clash)    DE(int)     intcor
     14.39     -18.88       0.98        0.00     128.20       1.91       0.19       4.30       ----

> <Gold.Chemscore.Fitness>
14.3863

> <Gold.Chemscore.DG>
-18.8821

> <Gold.Chemscore.ZeroCoef>
-5.4800

> <Gold.Chemscore.Hbond>
0.9831

> <Gold.Chemscore.Metal>
0.0000

> <Gold.Chemscore.Lipo>
128.2050

> <Gold.Chemscore.Internal_Hbond>
0.0000

> <Gold.Chemscore.DEClash>
0.1928

> <Gold.Chemscore.DEInternal>
4.3030

> <Gold.Chemscore.Rot>
1.9068

> <Gold.Chemscore.Internal.Correction>
   9.000000E+99

> <Gold.Chemscore.Hbonds>
donor molecule, donor type, donor heavy atom, donor atom, acceptor molecule, acceptor atom, score
      P1  H  6934  6947       L1    16  0.98

> <Gold.Chemscore.Hbond.Weighted>
-3.2835

> <Gold.Chemscore.Metal.Weighted>
-0.0000

> <Gold.Chemscore.Lipo.Weighted>
-15.0000

> <Gold.Chemscore.Internal_Hbond.Weighted>
0.0000

> <Gold.Chemscore.DEClash.Weighted>
0.1928

> <Gold.Chemscore.DEInternal.Weighted>
4.3030

> <Gold.Chemscore.Rot.Weighted>
4.8814

> <Gold.Chemscore.Internal.Correction.Weighted>
   9.000000E+99

> <Gold.Protein.RotatedTorsions>
[ 6907 6896 6895 6894 ] final  124.85 input  -60.11 | X-H torsion
[ 7974 7965 7964 7962 ] final   86.33 input  175.53 | X-H torsion
[ 8008 7997 7996 7995 ] final   78.63 input   59.86 | X-H torsion
[ 10167 10162 10161 10158 ] final  100.00 input  -65.29 | X-H torsion
[ 10718 10713 10712 10709 ] final  147.01 input   66.30 | X-H torsion
[ 10763 10752 10751 10750 ] final -177.78 input  -60.55 | X-H torsion
[ 11005 11000 10999 10996 ] final  -20.26 input  -57.11 | X-H torsion

> <Gold.Protein.ActiveResidues>
 VAL166  LYS551  ARG553  GLY616  TRP617  ASP618  TYR619  PRO620  LYS621  CYS622 
 ASP623  PHE694  ASN695  SER759  ASP760  ASP761  ALA762  ILE779  LEU786  VAL792 
 PHE793  MET794  SER795  GLU796  ALA797  LYS798  CYS799  TRP800  GLU811  SER814 

> <Gold.Protein.RotatedAtoms>
  152.4043  133.6865  159.6342 H   0  0  0  0  0  0  0  0  0  0  0  0  # atno 6907 bound_to 6896
  150.7930  133.8736  159.3274 H   0  0  0  0  0  0  0  0  0  0  0  0  # atno 6908 bound_to 6896
  151.6494  135.1005  160.0209 H   0  0  0  0  0  0  0  0  0  0  0  0  # atno 6909 bound_to 6896
  145.5737  139.2316  143.2392 H   0  0  0  0  0  0  0  0  0  0  0  0  # atno 7974 bound_to 7965
  155.8585  140.3455  155.5740 H   0  0  0  0  0  0  0  0  0  0  0  0  # atno 8008 bound_to 7997
  155.7960  140.0878  157.2003 H   0  0  0  0  0  0  0  0  0  0  0  0  # atno 8009 bound_to 7997
  154.4010  140.1474  156.3205 H   0  0  0  0  0  0  0  0  0  0  0  0  # atno 8010 bound_to 7997
  139.7566  144.6967  151.0353 H   0  0  0  0  0  0  0  0  0  0  0  0  # atno 10167 bound_to 10162
  157.3263  131.0913  151.1200 H   0  0  0  0  0  0  0  0  0  0  0  0  # atno 10718 bound_to 10713
  154.5559  135.2816  155.0965 H   0  0  0  0  0  0  0  0  0  0  0  0  # atno 10763 bound_to 10752
  154.2392  135.6360  153.5205 H   0  0  0  0  0  0  0  0  0  0  0  0  # atno 10764 bound_to 10752
  153.0015  135.5556  154.6139 H   0  0  0  0  0  0  0  0  0  0  0  0  # atno 10765 bound_to 10752
  140.8447  133.7900  155.9900 H   0  0  0  0  0  0  0  0  0  0  0  0  # atno 11005 bound_to 11000
  146.1766  140.6563  142.9208 LP  0  0  0  0  0  0  0  0  0  0  0  0  # atno 17320 bound_to 7965
  144.7426  140.4983  143.6858 LP  0  0  0  0  0  0  0  0  0  0  0  0  # atno 17321 bound_to 7965
  140.7803  143.4746  151.0100 LP  0  0  0  0  0  0  0  0  0  0  0  0  # atno 17342 bound_to 10162
  139.8432  143.7535  152.3180 LP  0  0  0  0  0  0  0  0  0  0  0  0  # atno 17343 bound_to 10162
  157.2465  130.6594  149.5912 LP  0  0  0  0  0  0  0  0  0  0  0  0  # atno 17370 bound_to 10713
  155.9691  130.4552  150.5877 LP  0  0  0  0  0  0  0  0  0  0  0  0  # atno 17371 bound_to 10713
  140.8856  134.2558  157.5121 LP  0  0  0  0  0  0  0  0  0  0  0  0  # atno 17394 bound_to 11000
  139.8703  134.9636  156.4469 LP  0  0  0  0  0  0  0  0  0  0  0  0  # atno 17395 bound_to 11000

$$$$
