AV-unprocessed.smi:1473|AV-procd|sdf|5968|dock4
  -GOLD-   22720 6 53D 1   1.00000     0.00000
 Structure written by MMmdl.
 34 35  0  0  0  0  0  0  0  0  3 V2000
  155.2628  137.5690  158.7056 N   0  0  0  0  0  0  0  0  0  0  0  0
  153.7607  137.0955  158.0202 S   0  0  0  0  0  0  0  0  0  0  0  0
  154.0813  136.0856  156.9987 O   0  0  0  0  0  0  0  0  0  0  0  0
  152.9046  136.7023  159.1507 O   0  0  0  0  0  0  0  0  0  0  0  0
  153.3891  138.5462  157.4009 N   0  5  0  0  0  0  0  0  0  0  0  0
  152.4418  138.6378  156.3021 C   0  0  0  0  0  0  0  0  0  0  0  0
  151.6328  139.9274  156.3429 C   0  0  0  0  0  0  0  0  0  0  0  0
  150.6917  140.2220  155.3281 C   0  0  0  0  0  0  0  0  0  0  0  0
  149.9471  141.4156  155.4060 C   0  0  0  0  0  0  0  0  0  0  0  0
  150.1326  142.2590  156.4440 N   0  3  0  0  0  0  0  0  0  0  0  0
  151.0137  142.0213  157.4402 C   0  0  0  0  0  0  0  0  0  0  0  0
  151.0955  142.9714  158.4660 N   0  0  0  0  0  0  0  0  0  0  0  0
  152.0189  142.5980  159.5304 C   0  0  0  0  0  0  0  0  0  0  0  0
  151.9633  143.6391  160.6613 C   0  0  0  0  0  0  0  0  0  0  0  0
  152.2409  144.9326  160.1317 O   0  0  0  0  0  0  0  0  0  0  0  0
  151.2936  145.3216  159.1409 C   0  0  0  0  0  0  0  0  0  0  0  0
  151.3297  144.3216  157.9721 C   0  0  0  0  0  0  0  0  0  0  0  0
  151.7977  140.8456  157.4071 C   0  0  0  0  0  0  0  0  0  0  0  0
  155.9185  136.7922  158.7795 H   0  0  0  0  0  0  0  0  0  0  0  0
  155.1458  138.0945  159.5713 H   0  0  0  0  0  0  0  0  0  0  0  0
  152.9362  138.5675  155.3325 H   0  0  0  0  0  0  0  0  0  0  0  0
  151.7364  137.8066  156.3225 H   0  0  0  0  0  0  0  0  0  0  0  0
  150.5269  139.5470  154.4989 H   0  0  0  0  0  0  0  0  0  0  0  0
  149.2080  141.7145  154.6772 H   0  0  0  0  0  0  0  0  0  0  0  0
  151.7593  141.6107  159.9148 H   0  0  0  0  0  0  0  0  0  0  0  0
  153.0351  142.5355  159.1391 H   0  0  0  0  0  0  0  0  0  0  0  0
  150.9859  143.6353  161.1470 H   0  0  0  0  0  0  0  0  0  0  0  0
  152.7014  143.4024  161.4277 H   0  0  0  0  0  0  0  0  0  0  0  0
  150.2952  145.3737  159.5784 H   0  0  0  0  0  0  0  0  0  0  0  0
  151.5392  146.3228  158.7872 H   0  0  0  0  0  0  0  0  0  0  0  0
  152.2988  144.3699  157.4733 H   0  0  0  0  0  0  0  0  0  0  0  0
  150.5717  144.5820  157.2323 H   0  0  0  0  0  0  0  0  0  0  0  0
  152.5027  140.6493  158.2037 H   0  0  0  0  0  0  0  0  0  0  0  0
  149.5750  143.1126  156.4815 H   0  0  0  0  0  0  0  0  0  0  0  0
  1  2  1  0  0  0  0
  1 19  1  0  0  0  0
  1 20  1  0  0  0  0
  2  3  2  0  0  0  0
  2  4  2  0  0  0  0
  2  5  1  0  0  0  0
  5  6  1  0  0  0  0
  6  7  1  0  0  0  0
  6 21  1  0  0  0  0
  6 22  1  0  0  0  0
  7 18  1  0  0  0  0
  7  8  2  0  0  0  0
  8  9  1  0  0  0  0
  8 23  1  0  0  0  0
  9 10  2  0  0  0  0
  9 24  1  0  0  0  0
 10 11  1  0  0  0  0
 10 34  1  0  0  0  0
 11 12  1  0  0  0  0
 11 18  2  0  0  0  0
 12 17  1  0  0  0  0
 12 13  1  0  0  0  0
 13 14  1  0  0  0  0
 13 25  1  0  0  0  0
 13 26  1  0  0  0  0
 14 15  1  0  0  0  0
 14 27  1  0  0  0  0
 14 28  1  0  0  0  0
 15 16  1  0  0  0  0
 16 17  1  0  0  0  0
 16 29  1  0  0  0  0
 16 30  1  0  0  0  0
 17 31  1  0  0  0  0
 17 32  1  0  0  0  0
 18 33  1  0  0  0  0
M  CHG  1   5  -1
M  CHG  1  10   1
M  END
> <s_m_source_file>
AV-unprocessed.smi

> <i_m_source_file_index>
1473

> <i_lp_mmshare_version>
43012

> <i_f3d_flags>
0

> <s_epik_input>
W05IMl1TKD1PKSg9TylbTkhdW0NIMl1jMVtjSF1bY0hdbmMoW2NIXTEpTjJbQ0gyXVtDSDJdT1tDSDJdW0NIMl0y

> <s_epik_cmdline>
J2VwaWtfcHl0aG9uJywgJy1waCcsICc3LjAnLCAnLXRuJywgJzgnLCAnLW1hJywgJzIwMCcsICctbWV0YWxfYmluZGluZycsICctaW1hZScsICc8aW5maWxlLm1hZT4nLCAnLW9tYWUnLCAnPG91dGZpbGUubWFlPic=

> <r_epik_Ionization_Penalty>
0.903927

> <r_epik_Ionization_Penalty_Charging>
0.902194

> <r_epik_Ionization_Penalty_Neutral>
0.00173209

> <r_epik_State_Penalty>
1.45154

> <r_epik_Charging_Adjusted_Penalty>
2.35374

> <i_epik_Tot_Q>
0

> <i_epik_Tot_abs_Q>
2

> <r_epik_Metal_State_Penalty>
1.803

> <b_epik_Metal_Only>
0

> <s_lp_Force_Field>
OPLS_2005

> <r_lp_Energy>
13.8401

> <b_lp_Chiralities_Consistent>
1

> <s_lp_Variant>
AV-unprocessed.smi:1473-3

> <Gold.Version>
5.8.1

> <Gold.Id.Protein>
6NUR|6NUR_protein|mol2

> <Gold.PLP.Fitness>
49.9797

> <Gold.PLP.PLP>
-32.7686

> <Gold.PLP.part.hbond>
-4.0000

> <Gold.PLP.part.metal>
0.0000

> <Gold.PLP.part.buried>
-2.8993

> <Gold.PLP.part.nonpolar>
-26.5391

> <Gold.PLP.part.repulsive>
0.2345

> <Gold.PLP.ligand.clash>
0.0000

> <Gold.PLP.ligand.torsion>
0.8770

> <Gold.PLP.Chemscore.Hbond>
5.9760

> <Gold.PLP.Chemscore.CHOScore>
0.0000

> <Gold.PLP.Chemscore.Metal>
0.0000

> <Gold.Chemscore.Hbonds>
donor molecule, donor type, donor heavy atom, donor atom, acceptor molecule, acceptor atom, score
      L1  H    10    34       P1  8028  2.00
      P1  H  6896  6908       L1     4  0.90
      P1  H  7997  8010       L1     5  2.00
      P1  H 10752 10765       L1     3  1.00

> <Gold.PLP.Chemscore.Internal.Correction>
1.0372

> <Gold.Rescore>
     Score         DG    S(hbond)    S(metal)    S(lipo)     H(rot)  DE(clash)    DE(int)     intcor
     20.09     -21.08       3.41        0.00      77.81       1.91       0.09       0.89       ----

> <Gold.Chemscore.Fitness>
20.0940

> <Gold.Chemscore.DG>
-21.0751

> <Gold.Chemscore.ZeroCoef>
-5.4800

> <Gold.Chemscore.Hbond>
3.4092

> <Gold.Chemscore.Metal>
0.0000

> <Gold.Chemscore.Lipo>
77.8069

> <Gold.Chemscore.Internal_Hbond>
0.0000

> <Gold.Chemscore.DEClash>
0.0885

> <Gold.Chemscore.DEInternal>
0.8926

> <Gold.Chemscore.Rot>
1.9121

> <Gold.Chemscore.Internal.Correction>
   9.000000E+99

> <Gold.Chemscore.Hbonds>
donor molecule, donor type, donor heavy atom, donor atom, acceptor molecule, acceptor atom, score
      L1  H    10    34       P1  8028  0.95
      P1  H  6896  6908       L1     4  0.81
      P1  H  7997  8010       L1     5  0.25
      P1  H 10752 10765       L1     3  0.99

> <Gold.Chemscore.Hbond.Weighted>
-11.3868

> <Gold.Chemscore.Metal.Weighted>
-0.0000

> <Gold.Chemscore.Lipo.Weighted>
-9.1034

> <Gold.Chemscore.Internal_Hbond.Weighted>
0.0000

> <Gold.Chemscore.DEClash.Weighted>
0.0885

> <Gold.Chemscore.DEInternal.Weighted>
0.8926

> <Gold.Chemscore.Rot.Weighted>
4.8950

> <Gold.Chemscore.Internal.Correction.Weighted>
   9.000000E+99

> <Gold.Protein.RotatedTorsions>
[ 6907 6896 6895 6894 ] final  -95.77 input  -60.11 | X-H torsion
[ 7974 7965 7964 7962 ] final  -53.66 input  175.53 | X-H torsion
[ 8008 7997 7996 7995 ] final   38.87 input   59.86 | X-H torsion
[ 10167 10162 10161 10158 ] final  -53.01 input  -65.29 | X-H torsion
[ 10718 10713 10712 10709 ] final  139.52 input   66.30 | X-H torsion
[ 10763 10752 10751 10750 ] final  -88.76 input  -60.55 | X-H torsion
[ 11005 11000 10999 10996 ] final -127.15 input  -57.11 | X-H torsion

> <Gold.Protein.ActiveResidues>
 VAL166  LYS551  ARG553  GLY616  TRP617  ASP618  TYR619  PRO620  LYS621  CYS622 
 ASP623  PHE694  ASN695  SER759  ASP760  ASP761  ALA762  ILE779  LEU786  VAL792 
 PHE793  MET794  SER795  GLU796  ALA797  LYS798  CYS799  TRP800  GLU811  SER814 

> <Gold.Protein.RotatedAtoms>
  150.6972  134.1606  159.4174 H   0  0  0  0  0  0  0  0  0  0  0  0  # atno 6907 bound_to 6896
  151.9587  135.0132  160.0555 H   0  0  0  0  0  0  0  0  0  0  0  0  # atno 6908 bound_to 6896
  152.1946  133.4762  159.5063 H   0  0  0  0  0  0  0  0  0  0  0  0  # atno 6909 bound_to 6896
  145.8943  140.8045  142.9775 H   0  0  0  0  0  0  0  0  0  0  0  0  # atno 7974 bound_to 7965
  155.2272  140.3335  155.4308 H   0  0  0  0  0  0  0  0  0  0  0  0  # atno 8008 bound_to 7997
  156.2309  140.1850  156.7290 H   0  0  0  0  0  0  0  0  0  0  0  0  # atno 8009 bound_to 7997
  154.5977  140.0628  156.9311 H   0  0  0  0  0  0  0  0  0  0  0  0  # atno 8010 bound_to 7997
  140.6507  143.2564  151.4731 H   0  0  0  0  0  0  0  0  0  0  0  0  # atno 10167 bound_to 10162
  157.4134  131.1030  151.0430 H   0  0  0  0  0  0  0  0  0  0  0  0  # atno 10718 bound_to 10713
  154.6480  135.5365  153.7868 H   0  0  0  0  0  0  0  0  0  0  0  0  # atno 10763 bound_to 10752
  153.0370  135.6475  154.1060 H   0  0  0  0  0  0  0  0  0  0  0  0  # atno 10764 bound_to 10752
  154.0979  135.2935  155.3238 H   0  0  0  0  0  0  0  0  0  0  0  0  # atno 10765 bound_to 10752
  140.9623  134.0920  157.3956 H   0  0  0  0  0  0  0  0  0  0  0  0  # atno 11005 bound_to 11000
  144.6732  140.1578  143.7425 LP  0  0  0  0  0  0  0  0  0  0  0  0  # atno 17320 bound_to 7965
  145.8870  139.2354  143.1572 LP  0  0  0  0  0  0  0  0  0  0  0  0  # atno 17321 bound_to 7965
  139.5722  144.1902  152.1853 LP  0  0  0  0  0  0  0  0  0  0  0  0  # atno 17342 bound_to 10162
  140.1201  144.5380  150.6868 LP  0  0  0  0  0  0  0  0  0  0  0  0  # atno 17343 bound_to 10162
  157.1386  130.6133  149.5549 LP  0  0  0  0  0  0  0  0  0  0  0  0  # atno 17370 bound_to 10713
  155.9857  130.4889  150.7047 LP  0  0  0  0  0  0  0  0  0  0  0  0  # atno 17371 bound_to 10713
  139.8882  135.0096  156.6607 LP  0  0  0  0  0  0  0  0  0  0  0  0  # atno 17394 bound_to 11000
  140.7450  133.8946  155.8305 LP  0  0  0  0  0  0  0  0  0  0  0  0  # atno 17395 bound_to 11000

$$$$
