AV-unprocessed.smi:754|AV-procd|sdf|3608|dock7
  -GOLD-   22720 1 03D 1   1.00000     0.00000
 Structure written by MMmdl.
 37 38  0  0  0  0  0  0  0  0  1 V2000
  152.7122  142.4967  162.1599 C   0  0  0  0  0  0  0  0  0  0  0  0
  152.2740  143.0482  160.8016 C   0  0  0  0  0  0  0  0  0  0  0  0
  151.7092  141.9930  160.0423 O   0  0  0  0  0  0  0  0  0  0  0  0
  152.0507  142.0563  158.6667 C   0  0  1  0  0  0  0  0  0  0  0  0
  151.2875  141.0737  157.7731 C   0  0  0  0  0  0  0  0  0  0  0  0
  151.2464  142.2079  156.7479 C   0  0  1  0  0  0  0  0  0  0  0  0
  149.9893  142.2497  156.0083 N   0  0  0  0  0  0  0  0  0  0  0  0
  149.6084  141.3337  155.1058 C   0  0  0  0  0  0  0  0  0  0  0  0
  150.2956  140.3576  154.8037 O   0  0  0  0  0  0  0  0  0  0  0  0
  148.2498  141.5588  154.4373 C   0  0  0  0  0  0  0  0  0  0  0  0
  147.1676  141.5126  155.4030 N   0  0  0  0  0  0  0  0  0  0  0  0
  146.9456  142.2286  156.5071 C   0  0  0  0  0  0  0  0  0  0  0  0
  145.8199  141.8693  157.1049 N   0  0  0  0  0  0  0  0  0  0  0  0
  145.3375  140.8608  156.2870 N   0  0  0  0  0  0  0  0  0  0  0  0
  146.1329  140.6450  155.2751 N   0  0  0  0  0  0  0  0  0  0  0  0
  151.3529  143.2205  157.9208 C   0  0  0  0  0  0  0  0  0  0  0  0
  150.0373  143.7245  158.5402 C   0  0  0  0  0  0  0  0  0  0  0  0
  152.2211  144.4515  157.6610 C   0  0  0  0  0  0  0  0  0  0  0  0
  153.1504  143.2817  162.7765 H   0  0  0  0  0  0  0  0  0  0  0  0
  153.4571  141.7098  162.0396 H   0  0  0  0  0  0  0  0  0  0  0  0
  151.8651  142.0772  162.7030 H   0  0  0  0  0  0  0  0  0  0  0  0
  151.5415  143.8446  160.9416 H   0  0  0  0  0  0  0  0  0  0  0  0
  153.1314  143.4753  160.2798 H   0  0  0  0  0  0  0  0  0  0  0  0
  153.1289  142.0376  158.4896 H   0  0  0  0  0  0  0  0  0  0  0  0
  151.8611  140.1992  157.4649 H   0  0  0  0  0  0  0  0  0  0  0  0
  150.3095  140.7981  158.1719 H   0  0  0  0  0  0  0  0  0  0  0  0
  152.1344  142.2039  156.1110 H   0  0  0  0  0  0  0  0  0  0  0  0
  149.3693  143.0239  156.1980 H   0  0  0  0  0  0  0  0  0  0  0  0
  148.2238  142.5196  153.9201 H   0  0  0  0  0  0  0  0  0  0  0  0
  148.0847  140.7840  153.6879 H   0  0  0  0  0  0  0  0  0  0  0  0
  147.6014  143.0077  156.8670 H   0  0  0  0  0  0  0  0  0  0  0  0
  149.5179  144.4147  157.8747 H   0  0  0  0  0  0  0  0  0  0  0  0
  150.2156  144.2524  159.4774 H   0  0  0  0  0  0  0  0  0  0  0  0
  149.3478  142.9095  158.7612 H   0  0  0  0  0  0  0  0  0  0  0  0
  151.7335  145.1494  156.9799 H   0  0  0  0  0  0  0  0  0  0  0  0
  153.1769  144.1798  157.2121 H   0  0  0  0  0  0  0  0  0  0  0  0
  152.4396  144.9887  158.5843 H   0  0  0  0  0  0  0  0  0  0  0  0
  1  2  1  0  0  0  0
  1 19  1  0  0  0  0
  1 20  1  0  0  0  0
  1 21  1  0  0  0  0
  2  3  1  0  0  0  0
  2 22  1  0  0  0  0
  2 23  1  0  0  0  0
  3  4  1  0  0  0  0
  4 16  1  0  0  0  0
  4  5  1  0  0  0  0
  4 24  1  0  0  0  0
  5  6  1  0  0  0  0
  5 25  1  0  0  0  0
  5 26  1  0  0  0  0
  6  7  1  0  0  0  0
  6 16  1  0  0  0  0
  6 27  1  0  0  0  0
  7  8  1  0  0  0  0
  7 28  1  0  0  0  0
  8  9  2  0  0  0  0
  8 10  1  0  0  0  0
 10 11  1  0  0  0  0
 10 29  1  0  0  0  0
 10 30  1  0  0  0  0
 11 15  1  0  0  0  0
 11 12  1  0  0  0  0
 12 13  2  0  0  0  0
 12 31  1  0  0  0  0
 13 14  1  0  0  0  0
 14 15  2  0  0  0  0
 16 17  1  0  0  0  0
 16 18  1  0  0  0  0
 17 32  1  0  0  0  0
 17 33  1  0  0  0  0
 17 34  1  0  0  0  0
 18 35  1  0  0  0  0
 18 36  1  0  0  0  0
 18 37  1  0  0  0  0
M  END
> <s_m_source_file>
AV-unprocessed.smi

> <i_m_source_file_index>
754

> <i_lp_mmshare_version>
43012

> <i_f3d_flags>
0

> <s_epik_input>
W0NIM11bQ0gyXU9bQ0BASF0oQzEoW0NIM10pW0NIM10pW0NIMl1bQ0BIXTFbTkhdQyg9TylbQ0gyXW4yW2NIXW5ubjI=

> <s_epik_cmdline>
J2VwaWtfcHl0aG9uJywgJy1waCcsICc3LjAnLCAnLXRuJywgJzgnLCAnLW1hJywgJzIwMCcsICctbWV0YWxfYmluZGluZycsICctaW1hZScsICc8aW5maWxlLm1hZT4nLCAnLW9tYWUnLCAnPG91dGZpbGUubWFlPic=

> <r_lp_tautomer_probability>
1

> <r_epik_Ionization_Penalty>
8.28422e-07

> <r_epik_Ionization_Penalty_Charging>
0

> <r_epik_Ionization_Penalty_Neutral>
8.28422e-07

> <r_epik_State_Penalty>
-0

> <r_epik_Charging_Adjusted_Penalty>
0

> <i_epik_Tot_Q>
0

> <i_epik_Tot_abs_Q>
0

> <r_epik_Metal_State_Penalty>
-0

> <b_epik_Metal_Only>
0

> <s_lp_Force_Field>
OPLS_2005

> <r_lp_Energy>
20.8169

> <b_lp_Chiralities_Consistent>
1

> <s_lp_Variant>
AV-unprocessed.smi:754-2

> <Gold.Version>
5.8.1

> <Gold.Id.Protein>
6NUR|6NUR_protein|mol2

> <Gold.PLP.Fitness>
41.7390

> <Gold.PLP.PLP>
-34.9267

> <Gold.PLP.part.hbond>
-2.5304

> <Gold.PLP.part.metal>
0.0000

> <Gold.PLP.part.buried>
-5.7266

> <Gold.PLP.part.nonpolar>
-26.8834

> <Gold.PLP.part.repulsive>
0.3692

> <Gold.PLP.ligand.clash>
0.0000

> <Gold.PLP.ligand.torsion>
0.4356

> <Gold.PLP.Chemscore.Hbond>
1.8320

> <Gold.PLP.Chemscore.CHOScore>
0.6155

> <Gold.PLP.Chemscore.Metal>
0.0000

> <Gold.Chemscore.Hbonds>
donor molecule, donor type, donor heavy atom, donor atom, acceptor molecule, acceptor atom, score
      L1  H     7    28       P1  8028  0.90
      P1  H  7989  7998       L1     9  1.00
      L1  C    12    31       P1  8028  0.56

> <Gold.PLP.Chemscore.Internal.Correction>
0.3410

> <Gold.Rescore>
     Score         DG    S(hbond)    S(metal)    S(lipo)     H(rot)  DE(clash)    DE(int)     intcor
     14.55     -15.07       1.70        0.00      87.35       2.46       0.15       0.36       ----

> <Gold.Chemscore.Fitness>
14.5472

> <Gold.Chemscore.DG>
-15.0652

> <Gold.Chemscore.ZeroCoef>
-5.4800

> <Gold.Chemscore.Hbond>
1.6968

> <Gold.Chemscore.Metal>
0.0000

> <Gold.Chemscore.Lipo>
87.3454

> <Gold.Chemscore.Internal_Hbond>
0.0000

> <Gold.Chemscore.DEClash>
0.1537

> <Gold.Chemscore.DEInternal>
0.3642

> <Gold.Chemscore.Rot>
2.4616

> <Gold.Chemscore.Internal.Correction>
   9.000000E+99

> <Gold.Chemscore.Hbonds>
donor molecule, donor type, donor heavy atom, donor atom, acceptor molecule, acceptor atom, score
      L1  H     7    28       P1  8028  0.86
      P1  H  7989  7998       L1     9  0.67

> <Gold.Chemscore.Hbond.Weighted>
-5.6674

> <Gold.Chemscore.Metal.Weighted>
-0.0000

> <Gold.Chemscore.Lipo.Weighted>
-10.2194

> <Gold.Chemscore.Internal_Hbond.Weighted>
0.0000

> <Gold.Chemscore.DEClash.Weighted>
0.1537

> <Gold.Chemscore.DEInternal.Weighted>
0.3642

> <Gold.Chemscore.Rot.Weighted>
6.3016

> <Gold.Chemscore.Internal.Correction.Weighted>
   9.000000E+99

> <Gold.Protein.RotatedTorsions>
[ 6907 6896 6895 6894 ] final  -27.42 input  -60.11 | X-H torsion
[ 7974 7965 7964 7962 ] final -126.25 input  175.53 | X-H torsion
[ 8008 7997 7996 7995 ] final  -79.60 input   59.86 | X-H torsion
[ 10167 10162 10161 10158 ] final   -4.80 input  -65.29 | X-H torsion
[ 10718 10713 10712 10709 ] final  162.27 input   66.30 | X-H torsion
[ 10763 10752 10751 10750 ] final  -29.54 input  -60.55 | X-H torsion
[ 11005 11000 10999 10996 ] final  116.31 input  -57.11 | X-H torsion

> <Gold.Protein.ActiveResidues>
 VAL166  LYS551  ARG553  GLY616  TRP617  ASP618  TYR619  PRO620  LYS621  CYS622 
 ASP623  PHE694  ASN695  SER759  ASP760  ASP761  ALA762  ILE779  LEU786  VAL792 
 PHE793  MET794  SER795  GLU796  ALA797  LYS798  CYS799  TRP800  GLU811  SER814 

> <Gold.Protein.RotatedAtoms>
  151.1471  135.0209  159.8651 H   0  0  0  0  0  0  0  0  0  0  0  0  # atno 6907 bound_to 6896
  152.5453  134.1432  159.8497 H   0  0  0  0  0  0  0  0  0  0  0  0  # atno 6908 bound_to 6896
  151.1513  133.4860  159.2628 H   0  0  0  0  0  0  0  0  0  0  0  0  # atno 6909 bound_to 6896
  144.9892  140.7715  143.4565 H   0  0  0  0  0  0  0  0  0  0  0  0  # atno 7974 bound_to 7965
  154.5800  140.0676  156.9091 H   0  0  0  0  0  0  0  0  0  0  0  0  # atno 8008 bound_to 7997
  155.2479  140.3349  155.4267 H   0  0  0  0  0  0  0  0  0  0  0  0  # atno 8009 bound_to 7997
  156.2182  140.1787  156.7523 H   0  0  0  0  0  0  0  0  0  0  0  0  # atno 8010 bound_to 7997
  140.6940  143.6382  150.8460 H   0  0  0  0  0  0  0  0  0  0  0  0  # atno 10167 bound_to 10162
  157.1249  131.0502  151.2398 H   0  0  0  0  0  0  0  0  0  0  0  0  # atno 10718 bound_to 10713
  153.7662  135.6915  153.4915 H   0  0  0  0  0  0  0  0  0  0  0  0  # atno 10763 bound_to 10752
  153.1905  135.4473  155.0142 H   0  0  0  0  0  0  0  0  0  0  0  0  # atno 10764 bound_to 10752
  154.8135  135.3388  154.7174 H   0  0  0  0  0  0  0  0  0  0  0  0  # atno 10765 bound_to 10752
  139.9037  134.9596  156.7178 H   0  0  0  0  0  0  0  0  0  0  0  0  # atno 11005 bound_to 11000
  145.2310  139.2115  143.5043 LP  0  0  0  0  0  0  0  0  0  0  0  0  # atno 17320 bound_to 7965
  146.3427  140.2187  142.8591 LP  0  0  0  0  0  0  0  0  0  0  0  0  # atno 17321 bound_to 7965
  140.0098  143.5655  152.2843 LP  0  0  0  0  0  0  0  0  0  0  0  0  # atno 17342 bound_to 10162
  139.6374  144.7651  151.2408 LP  0  0  0  0  0  0  0  0  0  0  0  0  # atno 17343 bound_to 10162
  157.4444  130.7562  149.7097 LP  0  0  0  0  0  0  0  0  0  0  0  0  # atno 17370 bound_to 10713
  155.9820  130.4013  150.3439 LP  0  0  0  0  0  0  0  0  0  0  0  0  # atno 17371 bound_to 10713
  140.7024  133.9294  155.8033 LP  0  0  0  0  0  0  0  0  0  0  0  0  # atno 17394 bound_to 11000
  141.0361  134.0687  157.3957 LP  0  0  0  0  0  0  0  0  0  0  0  0  # atno 17395 bound_to 11000

$$$$
