AV-unprocessed.smi:3046|AV-procd|sdf|11616|dock10
  -GOLD-   2272017 03D 1   1.00000     0.00000
 Structure written by MMmdl.
 38 38  0  0  0  0  0  0  0  0  2 V2000
  145.9445  133.2187  151.1510 C   0  0  0  0  0  0  0  0  0  0  0  0
  145.6724  134.5316  151.1842 C   0  0  0  0  0  0  0  0  0  0  0  0
  145.6339  135.3663  152.4460 C   0  0  0  0  0  0  0  0  0  0  0  0
  146.8560  135.1860  153.2151 N   0  0  0  0  0  0  0  0  0  0  0  0
  146.8997  135.0873  154.5513 C   0  0  0  0  0  0  0  0  0  0  0  0
  145.8983  135.1471  155.2656 O   0  0  0  0  0  0  0  0  0  0  0  0
  148.2871  134.9086  155.1820 C   0  0  1  0  0  0  0  0  0  0  0  0
  148.8028  133.4862  154.9167 C   0  0  0  0  0  0  0  0  0  0  0  0
  149.2592  135.8984  154.6602 N   0  3  0  0  0  0  0  0  0  0  0  0
  148.9993  137.3123  155.0208 C   0  0  1  0  0  0  0  0  0  0  0  0
  149.0360  137.4699  156.5493 C   0  0  0  0  0  0  0  0  0  0  0  0
  150.0058  138.2398  154.3070 C   0  0  0  0  0  0  0  0  0  0  0  0
  149.4894  139.5813  154.1067 N   0  0  0  0  0  0  0  0  0  0  0  0
  148.3032  139.9694  153.5199 C   0  0  0  0  0  0  0  0  0  0  0  0
  148.2541  141.3332  153.5691 C   0  0  0  0  0  0  0  0  0  0  0  0
  149.4684  141.6927  154.2181 C   0  0  0  0  0  0  0  0  0  0  0  0
  150.2049  140.6416  154.5399 N   0  0  0  0  0  0  0  0  0  0  0  0
  146.1546  132.6651  152.0545 H   0  0  0  0  0  0  0  0  0  0  0  0
  145.9607  132.6792  150.2153 H   0  0  0  0  0  0  0  0  0  0  0  0
  145.4713  135.0509  150.2583 H   0  0  0  0  0  0  0  0  0  0  0  0
  145.5027  136.4209  152.1981 H   0  0  0  0  0  0  0  0  0  0  0  0
  144.7737  135.0588  153.0425 H   0  0  0  0  0  0  0  0  0  0  0  0
  147.7217  135.1367  152.6972 H   0  0  0  0  0  0  0  0  0  0  0  0
  148.2139  135.0376  156.2635 H   0  0  0  0  0  0  0  0  0  0  0  0
  148.1218  132.7362  155.3215 H   0  0  0  0  0  0  0  0  0  0  0  0
  149.7751  133.3287  155.3850 H   0  0  0  0  0  0  0  0  0  0  0  0
  148.9150  133.2911  153.8492 H   0  0  0  0  0  0  0  0  0  0  0  0
  150.1638  135.6565  155.0386 H   0  0  0  0  0  0  0  0  0  0  0  0
  147.9938  137.5829  154.6938 H   0  0  0  0  0  0  0  0  0  0  0  0
  148.7720  138.4830  156.8536 H   0  0  0  0  0  0  0  0  0  0  0  0
  150.0273  137.2504  156.9475 H   0  0  0  0  0  0  0  0  0  0  0  0
  148.3273  136.7943  157.0291 H   0  0  0  0  0  0  0  0  0  0  0  0
  150.9316  138.3069  154.8798 H   0  0  0  0  0  0  0  0  0  0  0  0
  150.2749  137.8378  153.3300 H   0  0  0  0  0  0  0  0  0  0  0  0
  147.6015  139.2529  153.1188 H   0  0  0  0  0  0  0  0  0  0  0  0
  147.4691  141.9765  153.2001 H   0  0  0  0  0  0  0  0  0  0  0  0
  149.8337  142.6790  154.4637 H   0  0  0  0  0  0  0  0  0  0  0  0
  149.3021  135.8139  153.6544 H   0  0  0  0  0  0  0  0  0  0  0  0
  1  2  2  0  0  0  0
  1 18  1  0  0  0  0
  1 19  1  0  0  0  0
  2  3  1  0  0  0  0
  2 20  1  0  0  0  0
  3  4  1  0  0  0  0
  3 21  1  0  0  0  0
  3 22  1  0  0  0  0
  4  5  1  0  0  0  0
  4 23  1  0  0  0  0
  5  6  2  0  0  0  0
  5  7  1  0  0  0  0
  7  8  1  0  0  0  0
  7  9  1  0  0  0  0
  7 24  1  0  0  0  0
  8 25  1  0  0  0  0
  8 26  1  0  0  0  0
  8 27  1  0  0  0  0
  9 10  1  0  0  0  0
  9 28  1  0  0  0  0
  9 38  1  0  0  0  0
 10 11  1  0  0  0  0
 10 12  1  0  0  0  0
 10 29  1  0  0  0  0
 11 30  1  0  0  0  0
 11 31  1  0  0  0  0
 11 32  1  0  0  0  0
 12 13  1  0  0  0  0
 12 33  1  0  0  0  0
 12 34  1  0  0  0  0
 13 17  1  0  0  0  0
 13 14  1  0  0  0  0
 14 15  2  0  0  0  0
 14 35  1  0  0  0  0
 15 16  1  0  0  0  0
 15 36  1  0  0  0  0
 16 17  2  0  0  0  0
 16 37  1  0  0  0  0
M  CHG  1   9   1
M  END
> <s_m_source_file>
AV-unprocessed.smi

> <i_m_source_file_index>
3046

> <i_lp_mmshare_version>
43012

> <i_f3d_flags>
0

> <s_epik_input>
W0NIMl09W0NIXVtDSDJdW05IXUMoPU8pW0NASF0oW0NIM10pW05IXVtDQEhdKFtDSDNdKVtDSDJdbjFbY0hdW2NIXVtjSF1uMQ==

> <s_epik_cmdline>
J2VwaWtfcHl0aG9uJywgJy1waCcsICc3LjAnLCAnLXRuJywgJzgnLCAnLW1hJywgJzIwMCcsICctbWV0YWxfYmluZGluZycsICctaW1hZScsICc8aW5maWxlLm1hZT4nLCAnLW9tYWUnLCAnPG91dGZpbGUubWFlPic=

> <r_lp_tautomer_probability>
1

> <r_epik_Ionization_Penalty>
0.132961

> <r_epik_Ionization_Penalty_Charging>
0.132956

> <r_epik_Ionization_Penalty_Neutral>
5.00268e-06

> <r_epik_State_Penalty>
0.122332

> <r_epik_Charging_Adjusted_Penalty>
0.255288

> <i_epik_Tot_Q>
1

> <i_epik_Tot_abs_Q>
1

> <r_epik_Metal_State_Penalty>
0.122338

> <b_epik_Metal_Only>
0

> <s_lp_Force_Field>
OPLS_2005

> <r_lp_Energy>
6.90886

> <b_lp_Chiralities_Consistent>
1

> <s_lp_Variant>
AV-unprocessed.smi:3046-4

> <Gold.Version>
5.8.1

> <Gold.Id.Protein>
6NUR|6NUR_protein|mol2

> <Gold.PLP.Fitness>
40.8033

> <Gold.PLP.PLP>
-27.3034

> <Gold.PLP.part.hbond>
-2.8565

> <Gold.PLP.part.metal>
0.0000

> <Gold.PLP.part.buried>
-2.4211

> <Gold.PLP.part.nonpolar>
-22.5328

> <Gold.PLP.part.repulsive>
0.1465

> <Gold.PLP.ligand.clash>
0.0000

> <Gold.PLP.ligand.torsion>
0.7768

> <Gold.PLP.Chemscore.Hbond>
3.9920

> <Gold.PLP.Chemscore.CHOScore>
1.0000

> <Gold.PLP.Chemscore.Metal>
0.0000

> <Gold.Chemscore.Hbonds>
donor molecule, donor type, donor heavy atom, donor atom, acceptor molecule, acceptor atom, score
      L1  H     4    23       P1  7948  0.85
      L1  H     9    38       P1  7948  2.00
      P1  H  7989  7998       L1    17  0.85
      L1  C    16    37       P1  8028  1.00

> <Gold.PLP.Chemscore.Internal.Correction>
0.0775

> <Gold.Rescore>
     Score         DG    S(hbond)    S(metal)    S(lipo)     H(rot)  DE(clash)    DE(int)     intcor
     12.89     -13.55       2.28        0.00      53.41       2.26       0.01       0.66       ----

> <Gold.Chemscore.Fitness>
12.8861

> <Gold.Chemscore.DG>
-13.5511

> <Gold.Chemscore.ZeroCoef>
-5.4800

> <Gold.Chemscore.Hbond>
2.2799

> <Gold.Chemscore.Metal>
0.0000

> <Gold.Chemscore.Lipo>
53.4053

> <Gold.Chemscore.Internal_Hbond>
0.0000

> <Gold.Chemscore.DEClash>
0.0088

> <Gold.Chemscore.DEInternal>
0.6562

> <Gold.Chemscore.Rot>
2.2626

> <Gold.Chemscore.Internal.Correction>
   9.000000E+99

> <Gold.Chemscore.Hbonds>
donor molecule, donor type, donor heavy atom, donor atom, acceptor molecule, acceptor atom, score
      L1  H     4    23       P1  7948  0.83
      L1  H     9    38       P1  7948  0.60
      P1  H  7989  7998       L1    17  0.19

> <Gold.Chemscore.Hbond.Weighted>
-7.6149

> <Gold.Chemscore.Metal.Weighted>
-0.0000

> <Gold.Chemscore.Lipo.Weighted>
-6.2484

> <Gold.Chemscore.Internal_Hbond.Weighted>
0.0000

> <Gold.Chemscore.DEClash.Weighted>
0.0088

> <Gold.Chemscore.DEInternal.Weighted>
0.6562

> <Gold.Chemscore.Rot.Weighted>
5.7922

> <Gold.Chemscore.Internal.Correction.Weighted>
   9.000000E+99

> <Gold.Protein.RotatedTorsions>
[ 6907 6896 6895 6894 ] final   -1.49 input  -60.11 | X-H torsion
[ 7974 7965 7964 7962 ] final    4.34 input  175.53 | X-H torsion
[ 8008 7997 7996 7995 ] final  151.37 input   59.86 | X-H torsion
[ 10167 10162 10161 10158 ] final  -58.01 input  -65.29 | X-H torsion
[ 10718 10713 10712 10709 ] final   34.97 input   66.30 | X-H torsion
[ 10763 10752 10751 10750 ] final  -94.95 input  -60.55 | X-H torsion
[ 11005 11000 10999 10996 ] final  -31.70 input  -57.11 | X-H torsion

> <Gold.Protein.ActiveResidues>
 VAL166  LYS551  ARG553  GLY616  TRP617  ASP618  TYR619  PRO620  LYS621  CYS622 
 ASP623  PHE694  ASN695  SER759  ASP760  ASP761  ALA762  ILE779  LEU786  VAL792 
 PHE793  MET794  SER795  GLU796  ALA797  LYS798  CYS799  TRP800  GLU811  SER814 

> <Gold.Protein.RotatedAtoms>
  151.5452  135.1068  159.9936 H   0  0  0  0  0  0  0  0  0  0  0  0  # atno 6907 bound_to 6896
  152.4517  133.7638  159.6771 H   0  0  0  0  0  0  0  0  0  0  0  0  # atno 6908 bound_to 6896
  150.8447  133.7814  159.3072 H   0  0  0  0  0  0  0  0  0  0  0  0  # atno 6909 bound_to 6896
  146.2444  140.0549  142.8372 H   0  0  0  0  0  0  0  0  0  0  0  0  # atno 7974 bound_to 7965
  156.2677  140.2049  156.6164 H   0  0  0  0  0  0  0  0  0  0  0  0  # atno 8008 bound_to 7997
  154.6791  140.0542  157.0271 H   0  0  0  0  0  0  0  0  0  0  0  0  # atno 8009 bound_to 7997
  155.1027  140.3207  155.4545 H   0  0  0  0  0  0  0  0  0  0  0  0  # atno 8010 bound_to 7997
  140.6223  143.2424  151.5450 H   0  0  0  0  0  0  0  0  0  0  0  0  # atno 10167 bound_to 10162
  157.3169  130.7428  149.6760 H   0  0  0  0  0  0  0  0  0  0  0  0  # atno 10718 bound_to 10713
  154.7103  135.5139  153.8656 H   0  0  0  0  0  0  0  0  0  0  0  0  # atno 10763 bound_to 10752
  153.0775  135.6621  154.0124 H   0  0  0  0  0  0  0  0  0  0  0  0  # atno 10764 bound_to 10752
  153.9967  135.3014  155.3386 H   0  0  0  0  0  0  0  0  0  0  0  0  # atno 10765 bound_to 10752
  140.9490  133.7232  156.1190 H   0  0  0  0  0  0  0  0  0  0  0  0  # atno 11005 bound_to 11000
  145.0951  140.9310  143.4746 LP  0  0  0  0  0  0  0  0  0  0  0  0  # atno 17320 bound_to 7965
  145.0730  139.3017  143.5822 LP  0  0  0  0  0  0  0  0  0  0  0  0  # atno 17321 bound_to 7965
  139.5449  144.2547  152.1423 LP  0  0  0  0  0  0  0  0  0  0  0  0  # atno 17342 bound_to 10162
  140.1770  144.4881  150.6548 LP  0  0  0  0  0  0  0  0  0  0  0  0  # atno 17343 bound_to 10162
  155.9682  130.4234  150.4563 LP  0  0  0  0  0  0  0  0  0  0  0  0  # atno 17370 bound_to 10713
  157.2572  131.0559  151.2343 LP  0  0  0  0  0  0  0  0  0  0  0  0  # atno 17371 bound_to 10713
  140.7629  134.3919  157.5522 LP  0  0  0  0  0  0  0  0  0  0  0  0  # atno 17394 bound_to 11000
  139.8842  134.8973  156.2720 LP  0  0  0  0  0  0  0  0  0  0  0  0  # atno 17395 bound_to 11000

$$$$
