AV-unprocessed.smi:3229|AV-procd|sdf|12328|dock4
  -GOLD-   2272018173D 1   1.00000     0.00000
 Structure written by MMmdl.
 35 36  0  0  0  0  0  0  0  0  1 V2000
  151.9325  145.3736  159.5718 C   0  0  0  0  0  0  0  0  0  0  0  0
  151.8929  144.3422  160.7048 C   0  0  0  0  0  0  0  0  0  0  0  0
  152.3210  142.9778  160.2748 C   0  0  0  0  0  0  0  0  0  0  0  0
  153.2734  142.1767  160.8550 C   0  0  0  0  0  0  0  0  0  0  0  0
  153.4465  140.9485  160.2129 N   0  0  0  0  0  0  0  0  0  0  0  0
  152.6334  140.8027  159.1633 C   0  0  0  0  0  0  0  0  0  0  0  0
  152.6299  139.5988  158.2770 C   0  0  0  0  0  0  0  0  0  0  0  0
  151.2250  139.0355  158.0069 C   0  0  0  0  0  0  0  0  0  0  0  0
  150.4103  139.9669  157.2367 N   0  0  0  0  0  0  0  0  0  0  0  0
  150.6260  140.2837  155.9524 C   0  0  0  0  0  0  0  0  0  0  0  0
  151.5455  139.8063  155.2867 O   0  0  0  0  0  0  0  0  0  0  0  0
  149.6453  141.2816  155.3277 C   0  0  1  0  0  0  0  0  0  0  0  0
  148.8508  140.7331  154.1385 C   0  0  0  0  0  0  0  0  0  0  0  0
  147.6033  141.5858  154.1927 C   0  0  0  0  0  0  0  0  0  0  0  0
  147.3772  141.7244  155.6954 C   0  0  0  0  0  0  0  0  0  0  0  0
  148.6658  141.6398  156.2992 O   0  0  0  0  0  0  0  0  0  0  0  0
  151.6065  142.2035  158.8835 S   0  0  0  0  0  0  0  0  0  0  0  0
  151.6210  146.3553  159.9289 H   0  0  0  0  0  0  0  0  0  0  0  0
  151.2671  145.0903  158.7556 H   0  0  0  0  0  0  0  0  0  0  0  0
  152.9395  145.4712  159.1648 H   0  0  0  0  0  0  0  0  0  0  0  0
  152.5290  144.6827  161.5226 H   0  0  0  0  0  0  0  0  0  0  0  0
  150.8823  144.2913  161.1111 H   0  0  0  0  0  0  0  0  0  0  0  0
  153.8751  142.4020  161.7232 H   0  0  0  0  0  0  0  0  0  0  0  0
  153.1133  139.8575  157.3340 H   0  0  0  0  0  0  0  0  0  0  0  0
  153.2503  138.8294  158.7373 H   0  0  0  0  0  0  0  0  0  0  0  0
  151.3034  138.0903  157.4679 H   0  0  0  0  0  0  0  0  0  0  0  0
  150.7258  138.8236  158.9538 H   0  0  0  0  0  0  0  0  0  0  0  0
  149.6252  140.3913  157.7097 H   0  0  0  0  0  0  0  0  0  0  0  0
  150.1662  142.1923  155.0263 H   0  0  0  0  0  0  0  0  0  0  0  0
  149.3845  140.8343  153.1931 H   0  0  0  0  0  0  0  0  0  0  0  0
  148.5867  139.6828  154.2715 H   0  0  0  0  0  0  0  0  0  0  0  0
  147.8008  142.5635  153.7509 H   0  0  0  0  0  0  0  0  0  0  0  0
  146.7550  141.1406  153.6723 H   0  0  0  0  0  0  0  0  0  0  0  0
  146.8761  142.6571  155.9552 H   0  0  0  0  0  0  0  0  0  0  0  0
  146.7687  140.8987  156.0659 H   0  0  0  0  0  0  0  0  0  0  0  0
  1  2  1  0  0  0  0
  1 18  1  0  0  0  0
  1 19  1  0  0  0  0
  1 20  1  0  0  0  0
  2  3  1  0  0  0  0
  2 21  1  0  0  0  0
  2 22  1  0  0  0  0
  3 17  1  0  0  0  0
  3  4  2  0  0  0  0
  4  5  1  0  0  0  0
  4 23  1  0  0  0  0
  5  6  2  0  0  0  0
  6  7  1  0  0  0  0
  6 17  1  0  0  0  0
  7  8  1  0  0  0  0
  7 24  1  0  0  0  0
  7 25  1  0  0  0  0
  8  9  1  0  0  0  0
  8 26  1  0  0  0  0
  8 27  1  0  0  0  0
  9 10  1  0  0  0  0
  9 28  1  0  0  0  0
 10 11  2  0  0  0  0
 10 12  1  0  0  0  0
 12 16  1  0  0  0  0
 12 13  1  0  0  0  0
 12 29  1  0  0  0  0
 13 14  1  0  0  0  0
 13 30  1  0  0  0  0
 13 31  1  0  0  0  0
 14 15  1  0  0  0  0
 14 32  1  0  0  0  0
 14 33  1  0  0  0  0
 15 16  1  0  0  0  0
 15 34  1  0  0  0  0
 15 35  1  0  0  0  0
M  END
> <s_m_source_file>
AV-unprocessed.smi

> <i_m_source_file_index>
3229

> <i_lp_mmshare_version>
43012

> <i_f3d_flags>
0

> <s_epik_input>
W0NIM11bQ0gyXWMxW2NIXW5jKHMxKVtDSDJdW0NIMl1bTkhdQyg9TylbQ0BASF0yW0NIMl1bQ0gyXVtDSDJdTzI=

> <s_epik_cmdline>
J2VwaWtfcHl0aG9uJywgJy1waCcsICc3LjAnLCAnLXRuJywgJzgnLCAnLW1hJywgJzIwMCcsICctbWV0YWxfYmluZGluZycsICctaW1hZScsICc8aW5maWxlLm1hZT4nLCAnLW9tYWUnLCAnPG91dGZpbGUubWFlPic=

> <r_epik_Ionization_Penalty>
0.000508191

> <r_epik_Ionization_Penalty_Charging>
0

> <r_epik_Ionization_Penalty_Neutral>
0.000508191

> <r_epik_State_Penalty>
0.000316483

> <r_epik_Charging_Adjusted_Penalty>
0.000316483

> <i_epik_Tot_Q>
0

> <i_epik_Tot_abs_Q>
0

> <r_epik_Metal_State_Penalty>
-0

> <b_epik_Metal_Only>
0

> <s_lp_Force_Field>
OPLS_2005

> <r_lp_Energy>
10.5911

> <b_lp_Chiralities_Consistent>
1

> <s_lp_Variant>
AV-unprocessed.smi:3229-2

> <Gold.Version>
5.8.1

> <Gold.Id.Protein>
6NUR|6NUR_protein|mol2

> <Gold.PLP.Fitness>
40.6687

> <Gold.PLP.PLP>
-38.0994

> <Gold.PLP.part.hbond>
-1.0000

> <Gold.PLP.part.metal>
0.0000

> <Gold.PLP.part.buried>
-4.3187

> <Gold.PLP.part.nonpolar>
-33.3039

> <Gold.PLP.part.repulsive>
0.4962

> <Gold.PLP.ligand.clash>
0.0000

> <Gold.PLP.ligand.torsion>
0.2224

> <Gold.PLP.Chemscore.Hbond>
0.9920

> <Gold.PLP.Chemscore.CHOScore>
0.0000

> <Gold.PLP.Chemscore.Metal>
0.0000

> <Gold.Chemscore.Hbonds>
donor molecule, donor type, donor heavy atom, donor atom, acceptor molecule, acceptor atom, score
      P1  H  7989  7998       L1    11  0.89

> <Gold.PLP.Chemscore.Internal.Correction>
0.0382

> <Gold.Rescore>
     Score         DG    S(hbond)    S(metal)    S(lipo)     H(rot)  DE(clash)    DE(int)     intcor
     15.57     -15.92       0.98        0.00      96.28       1.60       0.05       0.30       ----

> <Gold.Chemscore.Fitness>
15.5669

> <Gold.Chemscore.DG>
-15.9215

> <Gold.Chemscore.ZeroCoef>
-5.4800

> <Gold.Chemscore.Hbond>
0.9829

> <Gold.Chemscore.Metal>
0.0000

> <Gold.Chemscore.Lipo>
96.2797

> <Gold.Chemscore.Internal_Hbond>
0.0000

> <Gold.Chemscore.DEClash>
0.0512

> <Gold.Chemscore.DEInternal>
0.3034

> <Gold.Chemscore.Rot>
1.6040

> <Gold.Chemscore.Internal.Correction>
   9.000000E+99

> <Gold.Chemscore.Hbonds>
donor molecule, donor type, donor heavy atom, donor atom, acceptor molecule, acceptor atom, score
      P1  H  7989  7998       L1    11  0.54

> <Gold.Chemscore.Hbond.Weighted>
-3.2830

> <Gold.Chemscore.Metal.Weighted>
-0.0000

> <Gold.Chemscore.Lipo.Weighted>
-11.2647

> <Gold.Chemscore.Internal_Hbond.Weighted>
0.0000

> <Gold.Chemscore.DEClash.Weighted>
0.0512

> <Gold.Chemscore.DEInternal.Weighted>
0.3034

> <Gold.Chemscore.Rot.Weighted>
4.1062

> <Gold.Chemscore.Internal.Correction.Weighted>
   9.000000E+99

> <Gold.Protein.RotatedTorsions>
[ 6907 6896 6895 6894 ] final  -87.10 input  -60.11 | X-H torsion
[ 7974 7965 7964 7962 ] final  173.07 input  175.53 | X-H torsion
[ 8008 7997 7996 7995 ] final   49.44 input   59.86 | X-H torsion
[ 10167 10162 10161 10158 ] final   59.15 input  -65.29 | X-H torsion
[ 10718 10713 10712 10709 ] final  129.59 input   66.30 | X-H torsion
[ 10763 10752 10751 10750 ] final  145.62 input  -60.55 | X-H torsion
[ 11005 11000 10999 10996 ] final   22.62 input  -57.11 | X-H torsion

> <Gold.Protein.ActiveResidues>
 VAL166  LYS551  ARG553  GLY616  TRP617  ASP618  TYR619  PRO620  LYS621  CYS622 
 ASP623  PHE694  ASN695  SER759  ASP760  ASP761  ALA762  ILE779  LEU786  VAL792 
 PHE793  MET794  SER795  GLU796  ALA797  LYS798  CYS799  TRP800  GLU811  SER814 

> <Gold.Protein.RotatedAtoms>
  150.6866  134.2948  159.4681 H   0  0  0  0  0  0  0  0  0  0  0  0  # atno 6907 bound_to 6896
  152.0850  134.9443  160.0582 H   0  0  0  0  0  0  0  0  0  0  0  0  # atno 6908 bound_to 6896
  152.0781  133.4104  159.4526 H   0  0  0  0  0  0  0  0  0  0  0  0  # atno 6909 bound_to 6896
  144.7252  139.9593  143.6434 H   0  0  0  0  0  0  0  0  0  0  0  0  # atno 7974 bound_to 7965
  155.4022  140.3438  155.4258 H   0  0  0  0  0  0  0  0  0  0  0  0  # atno 8008 bound_to 7997
  156.1497  140.1567  156.8822 H   0  0  0  0  0  0  0  0  0  0  0  0  # atno 8009 bound_to 7997
  154.5041  140.0807  156.7840 H   0  0  0  0  0  0  0  0  0  0  0  0  # atno 8010 bound_to 7997
  140.1796  144.4196  150.6622 H   0  0  0  0  0  0  0  0  0  0  0  0  # atno 10167 bound_to 10162
  157.5140  131.1097  150.9251 H   0  0  0  0  0  0  0  0  0  0  0  0  # atno 10718 bound_to 10713
  154.0085  135.2916  155.3395 H   0  0  0  0  0  0  0  0  0  0  0  0  # atno 10763 bound_to 10752
  154.7117  135.5146  153.8680 H   0  0  0  0  0  0  0  0  0  0  0  0  # atno 10764 bound_to 10752
  153.0734  135.6655  154.0319 H   0  0  0  0  0  0  0  0  0  0  0  0  # atno 10765 bound_to 10752
  140.3786  134.1945  155.7664 H   0  0  0  0  0  0  0  0  0  0  0  0  # atno 11005 bound_to 11000
  146.0650  139.3641  143.0558 LP  0  0  0  0  0  0  0  0  0  0  0  0  # atno 17320 bound_to 7965
  145.8043  140.9756  143.0982 LP  0  0  0  0  0  0  0  0  0  0  0  0  # atno 17321 bound_to 7965
  140.6529  143.2229  151.6036 LP  0  0  0  0  0  0  0  0  0  0  0  0  # atno 17342 bound_to 10162
  139.5302  144.2938  152.1130 LP  0  0  0  0  0  0  0  0  0  0  0  0  # atno 17343 bound_to 10162
  156.9882  130.5553  149.5301 LP  0  0  0  0  0  0  0  0  0  0  0  0  # atno 17370 bound_to 10713
  156.0308  130.5399  150.8529 LP  0  0  0  0  0  0  0  0  0  0  0  0  # atno 17371 bound_to 10713
  141.1931  133.8159  157.0813 LP  0  0  0  0  0  0  0  0  0  0  0  0  # atno 17394 bound_to 11000
  140.0496  134.9812  157.1112 LP  0  0  0  0  0  0  0  0  0  0  0  0  # atno 17395 bound_to 11000

$$$$
