AV-unprocessed.smi:527|AV-procd|sdf|2826|dock1
  -GOLD-   2262023313D 1   1.00000     0.00000
 Structure written by MMmdl.
 43 44  0  0  0  0  0  0  0  0  2 V2000
  149.3543  141.5629  156.6109 C   0  0  0  0  0  0  0  0  0  0  0  0
  150.1015  141.1564  155.3240 C   0  0  1  0  0  0  0  0  0  0  0  0
  151.4597  140.4980  155.6399 C   0  0  0  0  0  0  0  0  0  0  0  0
  151.2986  139.0784  156.2060 C   0  0  0  0  0  0  0  0  0  0  0  0
  150.4781  138.1928  155.2580 C   0  0  0  0  0  0  0  0  0  0  0  0
  149.1086  138.8204  154.9222 C   0  0  2  0  0  0  0  0  0  0  0  0
  148.4049  137.9783  153.9559 N   0  0  0  0  0  0  0  0  0  0  0  0
  147.0831  137.9949  153.7287 C   0  0  0  0  0  0  0  0  0  0  0  0
  146.2889  138.6586  154.3988 O   0  0  0  0  0  0  0  0  0  0  0  0
  146.7609  137.2006  152.6891 N   0  0  0  0  0  0  0  0  0  0  0  0
  145.5333  136.9732  152.1787 C   0  0  0  0  0  0  0  0  0  0  0  0
  144.4889  137.4762  152.6011 O   0  0  0  0  0  0  0  0  0  0  0  0
  145.4994  136.0073  150.9871 C   0  0  0  0  0  0  0  0  0  0  0  0
  144.7552  134.7725  151.2681 N   0  0  0  0  0  0  0  0  0  0  0  0
  144.6417  133.6680  150.4624 C   0  0  0  0  0  0  0  0  0  0  0  0
  143.8443  132.7758  151.1319 C   0  0  0  0  0  0  0  0  0  0  0  0
  143.5054  133.3720  152.3170 N   0  3  0  0  0  0  0  0  0  0  0  0
  144.0598  134.5860  152.3982 C   0  0  0  0  0  0  0  0  0  0  0  0
  149.2751  140.2583  154.3649 C   0  0  1  0  0  0  0  0  0  0  0  0
  147.9359  140.9067  153.9615 C   0  0  0  0  0  0  0  0  0  0  0  0
  149.0422  140.6997  157.1977 H   0  0  0  0  0  0  0  0  0  0  0  0
  148.4642  142.1511  156.3891 H   0  0  0  0  0  0  0  0  0  0  0  0
  149.9884  142.1792  157.2488 H   0  0  0  0  0  0  0  0  0  0  0  0
  150.3192  142.0845  154.7937 H   0  0  0  0  0  0  0  0  0  0  0  0
  152.0558  140.4504  154.7275 H   0  0  0  0  0  0  0  0  0  0  0  0
  152.0269  141.1154  156.3373 H   0  0  0  0  0  0  0  0  0  0  0  0
  152.2801  138.6327  156.3692 H   0  0  0  0  0  0  0  0  0  0  0  0
  150.8163  139.1172  157.1830 H   0  0  0  0  0  0  0  0  0  0  0  0
  151.0442  138.0322  154.3391 H   0  0  0  0  0  0  0  0  0  0  0  0
  150.3419  137.2093  155.7095 H   0  0  0  0  0  0  0  0  0  0  0  0
  148.5136  138.8736  155.8355 H   0  0  0  0  0  0  0  0  0  0  0  0
  148.9739  137.3452  153.4134 H   0  0  0  0  0  0  0  0  0  0  0  0
  147.5273  136.7203  152.2409 H   0  0  0  0  0  0  0  0  0  0  0  0
  145.0314  136.4950  150.1308 H   0  0  0  0  0  0  0  0  0  0  0  0
  146.5163  135.7383  150.6970 H   0  0  0  0  0  0  0  0  0  0  0  0
  145.1209  133.6021  149.4961 H   0  0  0  0  0  0  0  0  0  0  0  0
  143.5003  131.7883  150.8603 H   0  0  0  0  0  0  0  0  0  0  0  0
  143.9603  135.2800  153.2137 H   0  0  0  0  0  0  0  0  0  0  0  0
  149.8588  140.1767  153.4461 H   0  0  0  0  0  0  0  0  0  0  0  0
  147.2281  140.9158  154.7905 H   0  0  0  0  0  0  0  0  0  0  0  0
  147.4646  140.3718  153.1369 H   0  0  0  0  0  0  0  0  0  0  0  0
  148.0816  141.9364  153.6338 H   0  0  0  0  0  0  0  0  0  0  0  0
  142.9172  132.9580  153.0292 H   0  0  0  0  0  0  0  0  0  0  0  0
  1  2  1  0  0  0  0
  1 21  1  0  0  0  0
  1 22  1  0  0  0  0
  1 23  1  0  0  0  0
  2 19  1  0  0  0  0
  2  3  1  0  0  0  0
  2 24  1  0  0  0  0
  3  4  1  0  0  0  0
  3 25  1  0  0  0  0
  3 26  1  0  0  0  0
  4  5  1  0  0  0  0
  4 27  1  0  0  0  0
  4 28  1  0  0  0  0
  5  6  1  0  0  0  0
  5 29  1  0  0  0  0
  5 30  1  0  0  0  0
  6  7  1  0  0  0  0
  6 19  1  0  0  0  0
  6 31  1  0  0  0  0
  7  8  1  0  0  0  0
  7 32  1  0  0  0  0
  8  9  2  0  0  0  0
  8 10  1  0  0  0  0
 10 11  1  0  0  0  0
 10 33  1  0  0  0  0
 11 12  2  0  0  0  0
 11 13  1  0  0  0  0
 13 14  1  0  0  0  0
 13 34  1  0  0  0  0
 13 35  1  0  0  0  0
 14 18  1  0  0  0  0
 14 15  1  0  0  0  0
 15 16  2  0  0  0  0
 15 36  1  0  0  0  0
 16 17  1  0  0  0  0
 16 37  1  0  0  0  0
 17 18  2  0  0  0  0
 17 43  1  0  0  0  0
 18 38  1  0  0  0  0
 19 20  1  0  0  0  0
 19 39  1  0  0  0  0
 20 40  1  0  0  0  0
 20 41  1  0  0  0  0
 20 42  1  0  0  0  0
M  CHG  1  17   1
M  END
> <s_m_source_file>
AV-unprocessed.smi

> <i_m_source_file_index>
527

> <i_lp_mmshare_version>
43012

> <i_f3d_flags>
0

> <s_epik_input>
W0NIM11bQ0BASF0xW0NIMl1bQ0gyXVtDSDJdW0NASF0oW0NASF0xW0NIM10pW05IXUMoPU8pW05IXUMoPU8pW0NIMl1uMltjSF1bY0hdbltjSF0y

> <s_epik_cmdline>
J2VwaWtfcHl0aG9uJywgJy1waCcsICc3LjAnLCAnLXRuJywgJzgnLCAnLW1hJywgJzIwMCcsICctbWV0YWxfYmluZGluZycsICctaW1hZScsICc8aW5maWxlLm1hZT4nLCAnLW9tYWUnLCAnPG91dGZpbGUubWFlPic=

> <r_lp_tautomer_probability>
1

> <r_epik_Ionization_Penalty>
0.816441

> <r_epik_Ionization_Penalty_Charging>
0

> <r_epik_Ionization_Penalty_Neutral>
0.816441

> <r_epik_State_Penalty>
0.849034

> <r_epik_Charging_Adjusted_Penalty>
0.849034

> <i_epik_Tot_Q>
1

> <i_epik_Tot_abs_Q>
1

> <r_epik_Metal_State_Penalty>
0.984327

> <b_epik_Metal_Only>
0

> <s_lp_Force_Field>
OPLS_2005

> <r_lp_Energy>
18.63

> <b_lp_Chiralities_Consistent>
1

> <s_lp_Variant>
AV-unprocessed.smi:527-12

> <Gold.Version>
5.8.1

> <Gold.Id.Protein>
6NUR|6NUR_protein|mol2

> <Gold.PLP.Fitness>
47.6685

> <Gold.PLP.PLP>
-33.5073

> <Gold.PLP.part.hbond>
-3.0000

> <Gold.PLP.part.metal>
0.0000

> <Gold.PLP.part.buried>
-3.4937

> <Gold.PLP.part.nonpolar>
-27.9502

> <Gold.PLP.part.repulsive>
0.5213

> <Gold.PLP.ligand.clash>
0.0000

> <Gold.PLP.ligand.torsion>
0.3220

> <Gold.PLP.Chemscore.Hbond>
3.9280

> <Gold.PLP.Chemscore.CHOScore>
1.0000

> <Gold.PLP.Chemscore.Metal>
0.0000

> <Gold.Chemscore.Hbonds>
donor molecule, donor type, donor heavy atom, donor atom, acceptor molecule, acceptor atom, score
      L1  H     7    32       P1  7948  0.88
      L1  H    10    33       P1  7948  1.00
      L1  H    17    43       P1 10957  1.56
      L1  C    15    36       P1  7921  1.00

> <Gold.PLP.Chemscore.Internal.Correction>
0.0213

> <Gold.Rescore>
     Score         DG    S(hbond)    S(metal)    S(lipo)     H(rot)  DE(clash)    DE(int)     intcor
     15.11     -18.47       2.82        0.00      67.94       1.71       0.36       3.00       ----

> <Gold.Chemscore.Fitness>
15.1136

> <Gold.Chemscore.DG>
-18.4678

> <Gold.Chemscore.ZeroCoef>
-5.4800

> <Gold.Chemscore.Hbond>
2.8155

> <Gold.Chemscore.Metal>
0.0000

> <Gold.Chemscore.Lipo>
67.9419

> <Gold.Chemscore.Internal_Hbond>
0.0000

> <Gold.Chemscore.DEClash>
0.3592

> <Gold.Chemscore.DEInternal>
2.9951

> <Gold.Chemscore.Rot>
1.7052

> <Gold.Chemscore.Internal.Correction>
   9.000000E+99

> <Gold.Chemscore.Hbonds>
donor molecule, donor type, donor heavy atom, donor atom, acceptor molecule, acceptor atom, score
      L1  H     7    32       P1  7948  0.86
      L1  H    10    33       P1  7948  0.94
      L1  H    17    43       P1 10957  0.37

> <Gold.Chemscore.Hbond.Weighted>
-9.4039

> <Gold.Chemscore.Metal.Weighted>
-0.0000

> <Gold.Chemscore.Lipo.Weighted>
-7.9492

> <Gold.Chemscore.Internal_Hbond.Weighted>
0.0000

> <Gold.Chemscore.DEClash.Weighted>
0.3592

> <Gold.Chemscore.DEInternal.Weighted>
2.9951

> <Gold.Chemscore.Rot.Weighted>
4.3653

> <Gold.Chemscore.Internal.Correction.Weighted>
   9.000000E+99

> <Gold.Protein.RotatedTorsions>
[ 6907 6896 6895 6894 ] final  124.34 input  -60.11 | X-H torsion
[ 7974 7965 7964 7962 ] final  155.13 input  175.53 | X-H torsion
[ 8008 7997 7996 7995 ] final  116.36 input   59.86 | X-H torsion
[ 10167 10162 10161 10158 ] final -142.86 input  -65.29 | X-H torsion
[ 10718 10713 10712 10709 ] final -120.03 input   66.30 | X-H torsion
[ 10763 10752 10751 10750 ] final -169.73 input  -60.55 | X-H torsion
[ 11005 11000 10999 10996 ] final   96.76 input  -57.11 | X-H torsion

> <Gold.Protein.ActiveResidues>
 VAL166  LYS551  ARG553  GLY616  TRP617  ASP618  TYR619  PRO620  LYS621  CYS622 
 ASP623  PHE694  ASN695  SER759  ASP760  ASP761  ALA762  ILE779  LEU786  VAL792 
 PHE793  MET794  SER795  GLU796  ALA797  LYS798  CYS799  TRP800  GLU811  SER814 

> <Gold.Protein.RotatedAtoms>
  152.4087  133.6928  159.6378 H   0  0  0  0  0  0  0  0  0  0  0  0  # atno 6907 bound_to 6896
  150.7969  133.8664  159.3255 H   0  0  0  0  0  0  0  0  0  0  0  0  # atno 6908 bound_to 6896
  151.6412  135.1014  160.0193 H   0  0  0  0  0  0  0  0  0  0  0  0  # atno 6909 bound_to 6896
  144.8045  139.7026  143.6168 H   0  0  0  0  0  0  0  0  0  0  0  0  # atno 7974 bound_to 7965
  156.2434  140.2919  156.0510 H   0  0  0  0  0  0  0  0  0  0  0  0  # atno 8008 bound_to 7997
  155.1881  140.0406  157.2912 H   0  0  0  0  0  0  0  0  0  0  0  0  # atno 8009 bound_to 7997
  154.6213  140.2476  155.7552 H   0  0  0  0  0  0  0  0  0  0  0  0  # atno 8010 bound_to 7997
  139.8049  143.7783  152.2660 H   0  0  0  0  0  0  0  0  0  0  0  0  # atno 10167 bound_to 10162
  156.1227  130.6335  150.9490 H   0  0  0  0  0  0  0  0  0  0  0  0  # atno 10718 bound_to 10713
  154.6492  135.2909  155.0009 H   0  0  0  0  0  0  0  0  0  0  0  0  # atno 10763 bound_to 10752
  154.1108  135.6563  153.4888 H   0  0  0  0  0  0  0  0  0  0  0  0  # atno 10764 bound_to 10752
  153.0367  135.5264  154.7392 H   0  0  0  0  0  0  0  0  0  0  0  0  # atno 10765 bound_to 10752
  139.8779  134.8967  156.4207 H   0  0  0  0  0  0  0  0  0  0  0  0  # atno 11005 bound_to 11000
  146.2333  139.5856  142.9540 LP  0  0  0  0  0  0  0  0  0  0  0  0  # atno 17320 bound_to 7965
  145.5473  141.0416  143.2298 LP  0  0  0  0  0  0  0  0  0  0  0  0  # atno 17321 bound_to 7965
  139.7914  144.7409  150.9950 LP  0  0  0  0  0  0  0  0  0  0  0  0  # atno 17342 bound_to 10162
  140.7819  143.4438  151.0512 LP  0  0  0  0  0  0  0  0  0  0  0  0  # atno 17343 bound_to 10162
  157.6410  131.0910  150.8252 LP  0  0  0  0  0  0  0  0  0  0  0  0  # atno 17370 bound_to 10713
  156.8346  130.5027  149.5327 LP  0  0  0  0  0  0  0  0  0  0  0  0  # atno 17371 bound_to 10713
  140.9136  133.7694  155.9821 LP  0  0  0  0  0  0  0  0  0  0  0  0  # atno 17394 bound_to 11000
  140.8519  134.2944  157.5272 LP  0  0  0  0  0  0  0  0  0  0  0  0  # atno 17395 bound_to 11000

$$$$
