AV-unprocessed.smi:2453|AV-procd|sdf|9694|dock1
  -GOLD-   2272013333D 1   1.00000     0.00000
 Structure written by MMmdl.
 41 42  0  0  0  0  0  0  0  0  2 V2000
  150.2263  138.7487  154.3405 C   0  0  0  0  0  0  0  0  0  0  0  0
  149.1155  139.7827  154.2807 C   0  0  0  0  0  0  0  0  0  0  0  0
  149.3736  141.1052  154.7028 C   0  0  0  0  0  0  0  0  0  0  0  0
  148.3972  142.0357  154.6536 N   0  3  0  0  0  0  0  0  0  0  0  0
  147.1534  141.7646  154.2069 C   0  0  0  0  0  0  0  0  0  0  0  0
  146.8313  140.4646  153.7698 C   0  0  0  0  0  0  0  0  0  0  0  0
  147.8183  139.4464  153.8146 C   0  0  0  0  0  0  0  0  0  0  0  0
  147.5795  138.1153  153.3686 N   0  0  0  0  0  0  0  0  0  0  0  0
  146.4693  137.3696  153.5029 C   0  0  0  0  0  0  0  0  0  0  0  0
  145.4460  137.7179  154.0913 O   0  0  0  0  0  0  0  0  0  0  0  0
  146.6184  136.1711  152.9210 N   0  0  0  0  0  0  0  0  0  0  0  0
  145.6061  135.1169  152.8843 C   0  0  1  0  0  0  0  0  0  0  0  0
  144.3384  135.6382  152.1740 C   0  0  0  0  0  0  0  0  0  0  0  0
  143.2664  134.5462  152.0506 C   0  0  0  0  0  0  0  0  0  0  0  0
  143.8197  133.3125  151.3252 C   0  0  0  0  0  0  0  0  0  0  0  0
  145.0691  132.7711  152.0358 C   0  0  0  0  0  0  0  0  0  0  0  0
  146.1629  133.8518  152.1791 C   0  0  2  0  0  0  0  0  0  0  0  0
  147.4402  133.2831  152.8377 C   0  0  0  0  0  0  0  0  0  0  0  0
  148.1867  134.2908  153.4891 O   0  0  0  0  0  0  0  0  0  0  0  0
  151.1459  139.1771  154.7402 H   0  0  0  0  0  0  0  0  0  0  0  0
  150.4407  138.3606  153.3444 H   0  0  0  0  0  0  0  0  0  0  0  0
  149.9372  137.9154  154.9817 H   0  0  0  0  0  0  0  0  0  0  0  0
  150.3284  141.4477  155.0749 H   0  0  0  0  0  0  0  0  0  0  0  0
  146.4588  142.5920  154.2049 H   0  0  0  0  0  0  0  0  0  0  0  0
  145.8362  140.2789  153.3960 H   0  0  0  0  0  0  0  0  0  0  0  0
  148.3696  137.6561  152.9399 H   0  0  0  0  0  0  0  0  0  0  0  0
  147.4955  135.9696  152.4636 H   0  0  0  0  0  0  0  0  0  0  0  0
  145.3380  134.8463  153.9076 H   0  0  0  0  0  0  0  0  0  0  0  0
  143.9255  136.4895  152.7165 H   0  0  0  0  0  0  0  0  0  0  0  0
  144.5966  136.0036  151.1790 H   0  0  0  0  0  0  0  0  0  0  0  0
  142.9171  134.2620  153.0440 H   0  0  0  0  0  0  0  0  0  0  0  0
  142.3990  134.9350  151.5166 H   0  0  0  0  0  0  0  0  0  0  0  0
  143.0549  132.5367  151.2750 H   0  0  0  0  0  0  0  0  0  0  0  0
  144.0659  133.5716  150.2946 H   0  0  0  0  0  0  0  0  0  0  0  0
  144.7859  132.3958  153.0201 H   0  0  0  0  0  0  0  0  0  0  0  0
  145.4593  131.9168  151.4819 H   0  0  0  0  0  0  0  0  0  0  0  0
  146.4454  134.1458  151.1666 H   0  0  0  0  0  0  0  0  0  0  0  0
  147.1781  132.5178  153.5688 H   0  0  0  0  0  0  0  0  0  0  0  0
  148.0779  132.7985  152.0984 H   0  0  0  0  0  0  0  0  0  0  0  0
  148.2259  135.0487  152.9258 H   0  0  0  0  0  0  0  0  0  0  0  0
  148.6097  142.9847  154.9627 H   0  0  0  0  0  0  0  0  0  0  0  0
  1  2  1  0  0  0  0
  1 20  1  0  0  0  0
  1 21  1  0  0  0  0
  1 22  1  0  0  0  0
  2  7  1  0  0  0  0
  2  3  2  0  0  0  0
  3  4  1  0  0  0  0
  3 23  1  0  0  0  0
  4  5  2  0  0  0  0
  4 41  1  0  0  0  0
  5  6  1  0  0  0  0
  5 24  1  0  0  0  0
  6  7  2  0  0  0  0
  6 25  1  0  0  0  0
  7  8  1  0  0  0  0
  8  9  1  0  0  0  0
  8 26  1  0  0  0  0
  9 10  2  0  0  0  0
  9 11  1  0  0  0  0
 11 12  1  0  0  0  0
 11 27  1  0  0  0  0
 12 17  1  0  0  0  0
 12 13  1  0  0  0  0
 12 28  1  0  0  0  0
 13 14  1  0  0  0  0
 13 29  1  0  0  0  0
 13 30  1  0  0  0  0
 14 15  1  0  0  0  0
 14 31  1  0  0  0  0
 14 32  1  0  0  0  0
 15 16  1  0  0  0  0
 15 33  1  0  0  0  0
 15 34  1  0  0  0  0
 16 17  1  0  0  0  0
 16 35  1  0  0  0  0
 16 36  1  0  0  0  0
 17 18  1  0  0  0  0
 17 37  1  0  0  0  0
 18 19  1  0  0  0  0
 18 38  1  0  0  0  0
 18 39  1  0  0  0  0
 19 40  1  0  0  0  0
M  CHG  1   4   1
M  END
> <s_m_source_file>
AV-unprocessed.smi

> <i_m_source_file_index>
2453

> <i_lp_mmshare_version>
43012

> <i_f3d_flags>
0

> <s_epik_input>
W0NIM11jMVtjSF1uW2NIXVtjSF1jMVtOSF1DKD1PKVtOSF1bQ0BASF0yW0NIMl1bQ0gyXVtDSDJdW0NIMl1bQ0BIXTJbQ0gyXVtPSF0=

> <s_epik_cmdline>
J2VwaWtfcHl0aG9uJywgJy1waCcsICc3LjAnLCAnLXRuJywgJzgnLCAnLW1hJywgJzIwMCcsICctbWV0YWxfYmluZGluZycsICctaW1hZScsICc8aW5maWxlLm1hZT4nLCAnLW9tYWUnLCAnPG91dGZpbGUubWFlPic=

> <r_epik_Ionization_Penalty>
0.71493

> <r_epik_Ionization_Penalty_Charging>
0.714909

> <r_epik_Ionization_Penalty_Neutral>
2.10174e-05

> <r_epik_State_Penalty>
0.738815

> <r_epik_Charging_Adjusted_Penalty>
1.45372

> <i_epik_Tot_Q>
1

> <i_epik_Tot_abs_Q>
1

> <r_epik_Metal_State_Penalty>
0.896004

> <b_epik_Metal_Only>
0

> <s_lp_Force_Field>
OPLS_2005

> <r_lp_Energy>
25.5942

> <b_lp_Chiralities_Consistent>
1

> <s_lp_Variant>
AV-unprocessed.smi:2453-8

> <Gold.Version>
5.8.1

> <Gold.Id.Protein>
6NUR|6NUR_protein|mol2

> <Gold.PLP.Fitness>
46.1189

> <Gold.PLP.PLP>
-32.5201

> <Gold.PLP.part.hbond>
-4.0000

> <Gold.PLP.part.metal>
0.0000

> <Gold.PLP.part.buried>
-3.7772

> <Gold.PLP.part.nonpolar>
-25.6897

> <Gold.PLP.part.repulsive>
0.3552

> <Gold.PLP.ligand.clash>
0.0000

> <Gold.PLP.ligand.torsion>
0.6253

> <Gold.PLP.Chemscore.Hbond>
4.9440

> <Gold.PLP.Chemscore.CHOScore>
0.0000

> <Gold.PLP.Chemscore.Metal>
0.0000

> <Gold.Chemscore.Hbonds>
donor molecule, donor type, donor heavy atom, donor atom, acceptor molecule, acceptor atom, score
      L1  H     4    41       P1  8028  2.00
      L1  H     8    26       P1  7948  0.94
      L1  H    11    27       P1  7948  1.00
      L1  H    19    40       P1  7948  1.00

> <Gold.PLP.Chemscore.Internal.Correction>
0.0175

> <Gold.Rescore>
     Score         DG    S(hbond)    S(metal)    S(lipo)     H(rot)  DE(clash)    DE(int)     intcor
     19.97     -22.60       3.90        0.00      73.88       1.77       0.18       2.46       ----

> <Gold.Chemscore.Fitness>
19.9693

> <Gold.Chemscore.DG>
-22.6019

> <Gold.Chemscore.ZeroCoef>
-5.4800

> <Gold.Chemscore.Hbond>
3.8981

> <Gold.Chemscore.Metal>
0.0000

> <Gold.Chemscore.Lipo>
73.8810

> <Gold.Chemscore.Internal_Hbond>
0.0000

> <Gold.Chemscore.DEClash>
0.1770

> <Gold.Chemscore.DEInternal>
2.4555

> <Gold.Chemscore.Rot>
1.7742

> <Gold.Chemscore.Internal.Correction>
   9.000000E+99

> <Gold.Chemscore.Hbonds>
donor molecule, donor type, donor heavy atom, donor atom, acceptor molecule, acceptor atom, score
      L1  H     4    41       P1  8028  1.00
      L1  H     8    26       P1  7948  0.91
      L1  H    11    27       P1  7948  0.97
      L1  H    19    40       P1  7948  0.89

> <Gold.Chemscore.Hbond.Weighted>
-13.0197

> <Gold.Chemscore.Metal.Weighted>
-0.0000

> <Gold.Chemscore.Lipo.Weighted>
-8.6441

> <Gold.Chemscore.Internal_Hbond.Weighted>
0.0000

> <Gold.Chemscore.DEClash.Weighted>
0.1770

> <Gold.Chemscore.DEInternal.Weighted>
2.4555

> <Gold.Chemscore.Rot.Weighted>
4.5419

> <Gold.Chemscore.Internal.Correction.Weighted>
   9.000000E+99

> <Gold.Protein.RotatedTorsions>
[ 6907 6896 6895 6894 ] final   90.91 input  -60.11 | X-H torsion
[ 7974 7965 7964 7962 ] final   34.29 input  175.53 | X-H torsion
[ 8008 7997 7996 7995 ] final -109.01 input   59.86 | X-H torsion
[ 10167 10162 10161 10158 ] final  159.15 input  -65.29 | X-H torsion
[ 10718 10713 10712 10709 ] final   55.09 input   66.30 | X-H torsion
[ 10763 10752 10751 10750 ] final  103.36 input  -60.55 | X-H torsion
[ 11005 11000 10999 10996 ] final  155.03 input  -57.11 | X-H torsion

> <Gold.Protein.ActiveResidues>
 VAL166  LYS551  ARG553  GLY616  TRP617  ASP618  TYR619  PRO620  LYS621  CYS622 
 ASP623  PHE694  ASN695  SER759  ASP760  ASP761  ALA762  ILE779  LEU786  VAL792 
 PHE793  MET794  SER795  GLU796  ALA797  LYS798  CYS799  TRP800  GLU811  SER814 

> <Gold.Protein.RotatedAtoms>
  152.5447  134.1739  159.8607 H   0  0  0  0  0  0  0  0  0  0  0  0  # atno 6907 bound_to 6896
  151.1747  133.4755  159.2601 H   0  0  0  0  0  0  0  0  0  0  0  0  # atno 6908 bound_to 6896
  151.1239  135.0106  159.8606 H   0  0  0  0  0  0  0  0  0  0  0  0  # atno 6909 bound_to 6896
  146.1363  139.6288  142.9193 H   0  0  0  0  0  0  0  0  0  0  0  0  # atno 7974 bound_to 7965
  154.9528  140.0400  157.2152 H   0  0  0  0  0  0  0  0  0  0  0  0  # atno 8008 bound_to 7997
  154.7962  140.2844  155.5933 H   0  0  0  0  0  0  0  0  0  0  0  0  # atno 8009 bound_to 7997
  156.2956  140.2564  156.2820 H   0  0  0  0  0  0  0  0  0  0  0  0  # atno 8010 bound_to 7997
  139.4830  144.4757  151.8515 H   0  0  0  0  0  0  0  0  0  0  0  0  # atno 10167 bound_to 10162
  157.5314  130.8633  149.8693 H   0  0  0  0  0  0  0  0  0  0  0  0  # atno 10718 bound_to 10713
  153.3516  135.3979  155.1651 H   0  0  0  0  0  0  0  0  0  0  0  0  # atno 10763 bound_to 10752
  154.8663  135.3658  154.5214 H   0  0  0  0  0  0  0  0  0  0  0  0  # atno 10764 bound_to 10752
  153.5666  135.7080  153.5583 H   0  0  0  0  0  0  0  0  0  0  0  0  # atno 10765 bound_to 10752
  140.1544  134.8653  157.2495 H   0  0  0  0  0  0  0  0  0  0  0  0  # atno 11005 bound_to 11000
  145.5148  141.0434  143.2468 LP  0  0  0  0  0  0  0  0  0  0  0  0  # atno 17320 bound_to 7965
  144.7743  139.6664  143.7181 LP  0  0  0  0  0  0  0  0  0  0  0  0  # atno 17321 bound_to 7965
  140.4229  144.2219  150.5887 LP  0  0  0  0  0  0  0  0  0  0  0  0  # atno 17342 bound_to 10162
  140.4856  143.2364  151.8893 LP  0  0  0  0  0  0  0  0  0  0  0  0  # atno 17343 bound_to 10162
  156.0425  130.3735  150.1399 LP  0  0  0  0  0  0  0  0  0  0  0  0  # atno 17370 bound_to 10713
  156.9583  130.9797  151.3484 LP  0  0  0  0  0  0  0  0  0  0  0  0  # atno 17371 bound_to 10713
  140.2566  134.3620  155.7422 LP  0  0  0  0  0  0  0  0  0  0  0  0  # atno 17394 bound_to 11000
  141.2202  133.7346  156.9016 LP  0  0  0  0  0  0  0  0  0  0  0  0  # atno 17395 bound_to 11000

$$$$
