AV-unprocessed.smi:44|AV-procd|sdf|404|dock1
  -GOLD-   2262016253D 1   1.00000     0.00000
 Structure written by MMmdl.
 28 30  0  0  0  0  0  0  0  0  2 V2000
  152.5589  140.3890  158.6985 O   0  0  0  0  0  0  0  0  0  0  0  0
  152.2460  140.1683  157.5303 C   0  0  0  0  0  0  0  0  0  0  0  0
  152.9426  139.3683  156.6614 N   0  5  0  0  0  0  0  0  0  0  0  0
  152.4812  139.2012  155.3571 C   0  0  0  0  0  0  0  0  0  0  0  0
  151.4301  139.7218  154.8206 N   0  0  0  0  0  0  0  0  0  0  0  0
  150.7091  140.5299  155.6752 C   0  0  0  0  0  0  0  0  0  0  0  0
  151.0160  140.8055  156.9805 C   0  0  0  0  0  0  0  0  0  0  0  0
  150.0794  141.6612  157.5483 N   0  0  0  0  0  0  0  0  0  0  0  0
  149.2358  141.8629  156.5359 C   0  0  0  0  0  0  0  0  0  0  0  0
  149.5409  141.2238  155.3871 N   0  0  0  0  0  0  0  0  0  0  0  0
  148.7984  141.2563  154.0907 C   0  0  2  0  0  0  0  0  0  0  0  0
  147.5692  142.1653  154.2084 C   0  0  0  0  0  0  0  0  0  0  0  0
  146.5122  141.3438  153.5037 C   0  0  0  0  0  0  0  0  0  0  0  0
  146.9224  139.9257  153.8961 C   0  0  1  0  0  0  0  0  0  0  0  0
  146.3667  138.8249  152.9826 C   0  0  0  0  0  0  0  0  0  0  0  0
  146.2262  139.3081  151.6634 O   0  0  0  0  0  0  0  0  0  0  0  0
  148.3424  139.9655  153.8043 O   0  0  0  0  0  0  0  0  0  0  0  0
  149.5221  141.5793  153.3418 H   0  0  0  0  0  0  0  0  0  0  0  0
  146.6488  139.7313  154.9344 H   0  0  0  0  0  0  0  0  0  0  0  0
  153.1322  138.5416  154.7776 H   0  0  0  0  0  0  0  0  0  0  0  0
  148.3688  142.4984  156.6348 H   0  0  0  0  0  0  0  0  0  0  0  0
  147.3022  142.3108  155.2566 H   0  0  0  0  0  0  0  0  0  0  0  0
  147.7515  143.1366  153.7481 H   0  0  0  0  0  0  0  0  0  0  0  0
  145.4987  141.5968  153.8157 H   0  0  0  0  0  0  0  0  0  0  0  0
  146.5856  141.4827  152.4244 H   0  0  0  0  0  0  0  0  0  0  0  0
  147.0163  137.9490  152.9859 H   0  0  0  0  0  0  0  0  0  0  0  0
  145.3876  138.5025  153.3377 H   0  0  0  0  0  0  0  0  0  0  0  0
  145.3916  139.7453  151.5915 H   0  0  0  0  0  0  0  0  0  0  0  0
  1  2  2  0  0  0  0
  2  7  1  0  0  0  0
  2  3  1  0  0  0  0
  3  4  1  0  0  0  0
  4  5  2  0  0  0  0
  4 20  1  0  0  0  0
  5  6  1  0  0  0  0
  6 10  1  0  0  0  0
  6  7  2  0  0  0  0
  7  8  1  0  0  0  0
  8  9  2  0  0  0  0
  9 10  1  0  0  0  0
  9 21  1  0  0  0  0
 10 11  1  0  0  0  0
 11 18  1  0  0  0  0
 11 17  1  0  0  0  0
 11 12  1  0  0  0  0
 12 13  1  0  0  0  0
 12 22  1  0  0  0  0
 12 23  1  0  0  0  0
 13 14  1  0  0  0  0
 13 24  1  0  0  0  0
 13 25  1  0  0  0  0
 14 19  1  0  0  0  0
 14 15  1  0  0  0  0
 14 17  1  0  0  0  0
 15 16  1  0  0  0  0
 15 26  1  0  0  0  0
 15 27  1  0  0  0  0
 16 28  1  0  0  0  0
M  CHG  1   3  -1
M  END
> <s_m_source_file>
AV-unprocessed.smi

> <i_m_source_file_index>
44

> <i_lp_mmshare_version>
43012

> <i_f3d_flags>
0

> <s_epik_input>
bjFbY0hdW25IXWMoPU8pYyhjMTIpbltjSF1uMltDQEhdM1tDSDJdW0NIMl1bQ0BIXShPMylbQ0gyXVtPSF0=

> <s_epik_cmdline>
J2VwaWtfcHl0aG9uJywgJy1waCcsICc3LjAnLCAnLXRuJywgJzgnLCAnLW1hJywgJzIwMCcsICctbWV0YWxfYmluZGluZycsICctaW1hZScsICc8aW5maWxlLm1hZT4nLCAnLW9tYWUnLCAnPG91dGZpbGUubWFlPic=

> <r_lp_tautomer_probability>
0.85571

> <r_epik_Ionization_Penalty>
2.55863

> <r_epik_Ionization_Penalty_Charging>
1.36424e-10

> <r_epik_Ionization_Penalty_Neutral>
2.55863

> <r_epik_State_Penalty>
2.63326

> <r_epik_Charging_Adjusted_Penalty>
2.63326

> <i_epik_Tot_Q>
-1

> <i_epik_Tot_abs_Q>
1

> <r_epik_Metal_State_Penalty>
0.475154

> <b_epik_Metal_Only>
1

> <s_epik_Chemistry_Notes>
This compound contains an acetal/aminal-like group ( X-CH(R)-Y where X, Y are N, S, or O) that may be acid/base labile, releasing an aldehyde.

> <s_lp_Force_Field>
OPLS_2005

> <r_lp_Energy>
46.6553

> <b_lp_Chiralities_Consistent>
1

> <s_lp_Variant>
AV-unprocessed.smi:44-10

> <Gold.Version>
5.8.1

> <Gold.Id.Protein>
6NUR|6NUR_protein|mol2

> <Gold.PLP.Fitness>
40.8216

> <Gold.PLP.PLP>
-27.8161

> <Gold.PLP.part.hbond>
-3.9078

> <Gold.PLP.part.metal>
0.0000

> <Gold.PLP.part.buried>
-0.2147

> <Gold.PLP.part.nonpolar>
-24.4180

> <Gold.PLP.part.repulsive>
1.4892

> <Gold.PLP.ligand.clash>
0.0000

> <Gold.PLP.ligand.torsion>
0.3164

> <Gold.PLP.Chemscore.Hbond>
3.9413

> <Gold.PLP.Chemscore.CHOScore>
0.6010

> <Gold.PLP.Chemscore.Metal>
0.0000

> <Gold.Chemscore.Hbonds>
donor molecule, donor type, donor heavy atom, donor atom, acceptor molecule, acceptor atom, score
      L1  H    16    28       P1 10175  0.99
      P1  H  7989  7998       L1     5  0.95
      P1  H  7997  8010       L1     3  2.00
      L1  C     9    21       P1  8028  0.59

> <Gold.PLP.Chemscore.Internal.Correction>
0.0115

> <Gold.Rescore>
     Score         DG    S(hbond)    S(metal)    S(lipo)     H(rot)  DE(clash)    DE(int)     intcor
      8.42      -8.99       1.84        0.00      26.95       2.26       0.22       0.35       ----

> <Gold.Chemscore.Fitness>
8.4246

> <Gold.Chemscore.DG>
-8.9880

> <Gold.Chemscore.ZeroCoef>
-5.4800

> <Gold.Chemscore.Hbond>
1.8376

> <Gold.Chemscore.Metal>
0.0000

> <Gold.Chemscore.Lipo>
26.9465

> <Gold.Chemscore.Internal_Hbond>
0.0000

> <Gold.Chemscore.DEClash>
0.2176

> <Gold.Chemscore.DEInternal>
0.3458

> <Gold.Chemscore.Rot>
2.2588

> <Gold.Chemscore.Internal.Correction>
   9.000000E+99

> <Gold.Chemscore.Hbonds>
donor molecule, donor type, donor heavy atom, donor atom, acceptor molecule, acceptor atom, score
      L1  H    16    28       P1 10175  0.39
      P1  H  7989  7998       L1     5  0.21
      P1  H  7997  8010       L1     3  0.19

> <Gold.Chemscore.Hbond.Weighted>
-6.1377

> <Gold.Chemscore.Metal.Weighted>
-0.0000

> <Gold.Chemscore.Lipo.Weighted>
-3.1527

> <Gold.Chemscore.Internal_Hbond.Weighted>
0.0000

> <Gold.Chemscore.DEClash.Weighted>
0.2176

> <Gold.Chemscore.DEInternal.Weighted>
0.3458

> <Gold.Chemscore.Rot.Weighted>
5.7825

> <Gold.Chemscore.Internal.Correction.Weighted>
   9.000000E+99

> <Gold.Protein.RotatedTorsions>
[ 6907 6896 6895 6894 ] final  174.34 input  -60.11 | X-H torsion
[ 7974 7965 7964 7962 ] final  -85.43 input  175.53 | X-H torsion
[ 8008 7997 7996 7995 ] final   70.40 input   59.86 | X-H torsion
[ 10167 10162 10161 10158 ] final   60.95 input  -65.29 | X-H torsion
[ 10718 10713 10712 10709 ] final -104.06 input   66.30 | X-H torsion
[ 10763 10752 10751 10750 ] final  124.05 input  -60.55 | X-H torsion
[ 11005 11000 10999 10996 ] final  -90.59 input  -57.11 | X-H torsion

> <Gold.Protein.ActiveResidues>
 VAL166  LYS551  ARG553  GLY616  TRP617  ASP618  TYR619  PRO620  LYS621  CYS622 
 ASP623  PHE694  ASN695  SER759  ASP760  ASP761  ALA762  ILE779  LEU786  VAL792 
 PHE793  MET794  SER795  GLU796  ALA797  LYS798  CYS799  TRP800  GLU811  SER814 

> <Gold.Protein.RotatedAtoms>
  151.7538  133.3329  159.3398 H   0  0  0  0  0  0  0  0  0  0  0  0  # atno 6907 bound_to 6896
  150.7524  134.6168  159.6124 H   0  0  0  0  0  0  0  0  0  0  0  0  # atno 6908 bound_to 6896
  152.3451  134.7084  160.0304 H   0  0  0  0  0  0  0  0  0  0  0  0  # atno 6909 bound_to 6896
  145.4934  140.9551  143.1799 H   0  0  0  0  0  0  0  0  0  0  0  0  # atno 7974 bound_to 7965
  155.7382  140.3491  155.5091 H   0  0  0  0  0  0  0  0  0  0  0  0  # atno 8008 bound_to 7997
  155.9119  140.1052  157.1294 H   0  0  0  0  0  0  0  0  0  0  0  0  # atno 8009 bound_to 7997
  154.4057  140.1266  156.4555 H   0  0  0  0  0  0  0  0  0  0  0  0  # atno 8010 bound_to 7997
  140.1600  144.4379  150.6714 H   0  0  0  0  0  0  0  0  0  0  0  0  # atno 10167 bound_to 10162
  156.0289  130.5497  150.7342 H   0  0  0  0  0  0  0  0  0  0  0  0  # atno 10718 bound_to 10713
  153.6553  135.3356  155.3111 H   0  0  0  0  0  0  0  0  0  0  0  0  # atno 10763 bound_to 10752
  154.8528  135.4350  154.1862 H   0  0  0  0  0  0  0  0  0  0  0  0  # atno 10764 bound_to 10752
  153.2814  135.7009  153.7456 H   0  0  0  0  0  0  0  0  0  0  0  0  # atno 10765 bound_to 10752
  141.1562  133.7701  156.9759 H   0  0  0  0  0  0  0  0  0  0  0  0  # atno 11005 bound_to 11000
  144.7821  139.6504  143.7150 LP  0  0  0  0  0  0  0  0  0  0  0  0  # atno 17320 bound_to 7965
  146.2270  139.5741  142.9580 LP  0  0  0  0  0  0  0  0  0  0  0  0  # atno 17321 bound_to 7965
  140.6649  143.2264  151.5767 LP  0  0  0  0  0  0  0  0  0  0  0  0  # atno 17342 bound_to 10162
  139.5385  144.2712  152.1303 LP  0  0  0  0  0  0  0  0  0  0  0  0  # atno 17343 bound_to 10162
  157.4927  131.0912  151.0408 LP  0  0  0  0  0  0  0  0  0  0  0  0  # atno 17370 bound_to 10713
  157.0811  130.5903  149.5420 LP  0  0  0  0  0  0  0  0  0  0  0  0  # atno 17371 bound_to 10713
  140.1098  134.9484  157.2049 LP  0  0  0  0  0  0  0  0  0  0  0  0  # atno 17394 bound_to 11000
  140.3208  134.2918  155.7246 LP  0  0  0  0  0  0  0  0  0  0  0  0  # atno 17395 bound_to 11000

$$$$
