AV-unprocessed.smi:2556|AV-procd|sdf|10026|dock3
  -GOLD-   2272014 73D 1   1.00000     0.00000
 Structure written by MMmdl.
 34 36  0  0  0  0  0  0  0  0  2 V2000
  147.2700  137.5355  157.5633 C   0  0  0  0  0  0  0  0  0  0  0  0
  148.6169  137.6693  158.1266 N   0  0  0  0  0  0  0  0  0  0  0  0
  149.1699  136.7424  158.9750 C   0  0  0  0  0  0  0  0  0  0  0  0
  148.5099  135.7473  159.2751 O   0  0  0  0  0  0  0  0  0  0  0  0
  150.4426  136.9394  159.4704 N   0  5  0  0  0  0  0  0  0  0  0  0
  151.2597  138.0051  159.1946 C   0  0  0  0  0  0  0  0  0  0  0  0
  152.3941  138.2025  159.6270 O   0  0  0  0  0  0  0  0  0  0  0  0
  150.6236  138.9626  158.2687 C   0  0  0  0  0  0  0  0  0  0  0  0
  149.3713  138.8142  157.7569 C   0  0  0  0  0  0  0  0  0  0  0  0
  149.0361  139.8676  156.9132 N   0  0  0  0  0  0  0  0  0  0  0  0
  150.1368  140.6190  156.9608 C   0  0  0  0  0  0  0  0  0  0  0  0
  151.1301  140.1505  157.7436 N   0  0  0  0  0  0  0  0  0  0  0  0
  152.4242  140.7774  157.9620 C   0  0  0  0  0  0  0  0  0  0  0  0
  152.6792  141.1117  159.4449 C   0  0  1  0  0  0  0  0  0  0  0  0
  153.9898  140.7206  159.8094 O   0  0  0  0  0  0  0  0  0  0  0  0
  152.4115  142.5811  159.7316 C   0  0  0  0  0  0  0  0  0  0  0  0
  152.4015  143.0702  161.0571 C   0  0  0  0  0  0  0  0  0  0  0  0
  152.1612  144.4352  161.3083 C   0  0  0  0  0  0  0  0  0  0  0  0
  151.9334  145.3197  160.2364 C   0  0  0  0  0  0  0  0  0  0  0  0
  151.9489  144.8386  158.9131 C   0  0  0  0  0  0  0  0  0  0  0  0
  152.1886  143.4736  158.6615 C   0  0  0  0  0  0  0  0  0  0  0  0
  146.7127  136.6717  157.9265 H   0  0  0  0  0  0  0  0  0  0  0  0
  147.3301  137.4536  156.4777 H   0  0  0  0  0  0  0  0  0  0  0  0
  146.6799  138.4212  157.8003 H   0  0  0  0  0  0  0  0  0  0  0  0
  150.2258  141.5404  156.4042 H   0  0  0  0  0  0  0  0  0  0  0  0
  153.2010  140.1095  157.5870 H   0  0  0  0  0  0  0  0  0  0  0  0
  152.4789  141.6786  157.3506 H   0  0  0  0  0  0  0  0  0  0  0  0
  152.0028  140.5210  160.0634 H   0  0  0  0  0  0  0  0  0  0  0  0
  154.5016  141.5007  159.9596 H   0  0  0  0  0  0  0  0  0  0  0  0
  152.5810  142.4013  161.8862 H   0  0  0  0  0  0  0  0  0  0  0  0
  152.1537  144.8040  162.3232 H   0  0  0  0  0  0  0  0  0  0  0  0
  151.7502  146.3665  160.4291 H   0  0  0  0  0  0  0  0  0  0  0  0
  151.7787  145.5167  158.0900 H   0  0  0  0  0  0  0  0  0  0  0  0
  152.2042  143.1141  157.6426 H   0  0  0  0  0  0  0  0  0  0  0  0
  1  2  1  0  0  0  0
  1 22  1  0  0  0  0
  1 23  1  0  0  0  0
  1 24  1  0  0  0  0
  2  9  1  0  0  0  0
  2  3  1  0  0  0  0
  3  4  2  0  0  0  0
  3  5  1  0  0  0  0
  5  6  1  0  0  0  0
  6  7  2  0  0  0  0
  6  8  1  0  0  0  0
  8 12  1  0  0  0  0
  8  9  2  0  0  0  0
  9 10  1  0  0  0  0
 10 11  2  0  0  0  0
 11 12  1  0  0  0  0
 11 25  1  0  0  0  0
 12 13  1  0  0  0  0
 13 14  1  0  0  0  0
 13 26  1  0  0  0  0
 13 27  1  0  0  0  0
 14 15  1  0  0  0  0
 14 16  1  0  0  0  0
 14 28  1  0  0  0  0
 15 29  1  0  0  0  0
 16 21  1  0  0  0  0
 16 17  2  0  0  0  0
 17 18  1  0  0  0  0
 17 30  1  0  0  0  0
 18 19  2  0  0  0  0
 18 31  1  0  0  0  0
 19 20  1  0  0  0  0
 19 32  1  0  0  0  0
 20 21  2  0  0  0  0
 20 33  1  0  0  0  0
 21 34  1  0  0  0  0
M  CHG  1   5  -1
M  END
> <s_m_source_file>
AV-unprocessed.smi

> <i_m_source_file_index>
2556

> <i_lp_mmshare_version>
43012

> <i_f3d_flags>
0

> <s_epik_input>
Tz1jMVtuSF1jKD1PKW4oW0NIM10pYyhjMTIpbltjSF1uMltDSDJdW0NASF0oW09IXSljM1tjSF1bY0hdW2NIXVtjSF1bY0hdMw==

> <s_epik_cmdline>
J2VwaWtfcHl0aG9uJywgJy1waCcsICc3LjAnLCAnLXRuJywgJzgnLCAnLW1hJywgJzIwMCcsICctbWV0YWxfYmluZGluZycsICctaW1hZScsICc8aW5maWxlLm1hZT4nLCAnLW9tYWUnLCAnPG91dGZpbGUubWFlPic=

> <r_lp_tautomer_probability>
1

> <r_epik_Ionization_Penalty>
4.84872

> <r_epik_Ionization_Penalty_Charging>
0.03865

> <r_epik_Ionization_Penalty_Neutral>
4.81007

> <r_epik_State_Penalty>
4.80988

> <r_epik_Charging_Adjusted_Penalty>
4.84853

> <i_epik_Tot_Q>
-1

> <i_epik_Tot_abs_Q>
1

> <r_epik_Metal_State_Penalty>
0.994041

> <b_epik_Metal_Only>
1

> <s_lp_Force_Field>
OPLS_2005

> <r_lp_Energy>
31.8708

> <b_lp_Chiralities_Consistent>
1

> <s_lp_Variant>
AV-unprocessed.smi:2556-4

> <Gold.Version>
5.8.1

> <Gold.Id.Protein>
6NUR|6NUR_protein|mol2

> <Gold.PLP.Fitness>
45.0104

> <Gold.PLP.PLP>
-40.4082

> <Gold.PLP.part.hbond>
-1.8700

> <Gold.PLP.part.metal>
0.0000

> <Gold.PLP.part.buried>
-5.7491

> <Gold.PLP.part.nonpolar>
-31.2920

> <Gold.PLP.part.repulsive>
0.0000

> <Gold.PLP.ligand.clash>
0.0000

> <Gold.PLP.ligand.torsion>
0.7154

> <Gold.PLP.Chemscore.Hbond>
2.0000

> <Gold.PLP.Chemscore.CHOScore>
0.0000

> <Gold.PLP.Chemscore.Metal>
0.0000

> <Gold.Chemscore.Hbonds>
donor molecule, donor type, donor heavy atom, donor atom, acceptor molecule, acceptor atom, score
      P1  H  6896  6908       L1     5  2.00

> <Gold.PLP.Chemscore.Internal.Correction>
0.0329

> <Gold.Rescore>
     Score         DG    S(hbond)    S(metal)    S(lipo)     H(rot)  DE(clash)    DE(int)     intcor
     12.55     -13.31       0.79        0.00      94.34       2.28       0.00       0.75       ----

> <Gold.Chemscore.Fitness>
12.5547

> <Gold.Chemscore.DG>
-13.3055

> <Gold.Chemscore.ZeroCoef>
-5.4800

> <Gold.Chemscore.Hbond>
0.7875

> <Gold.Chemscore.Metal>
0.0000

> <Gold.Chemscore.Lipo>
94.3437

> <Gold.Chemscore.Internal_Hbond>
0.0000

> <Gold.Chemscore.DEClash>
0.0000

> <Gold.Chemscore.DEInternal>
0.7508

> <Gold.Chemscore.Rot>
2.2824

> <Gold.Chemscore.Internal.Correction>
   9.000000E+99

> <Gold.Chemscore.Hbonds>
donor molecule, donor type, donor heavy atom, donor atom, acceptor molecule, acceptor atom, score
      P1  H  6896  6908       L1     5  0.63

> <Gold.Chemscore.Hbond.Weighted>
-2.6304

> <Gold.Chemscore.Metal.Weighted>
-0.0000

> <Gold.Chemscore.Lipo.Weighted>
-11.0382

> <Gold.Chemscore.Internal_Hbond.Weighted>
0.0000

> <Gold.Chemscore.DEClash.Weighted>
0.0000

> <Gold.Chemscore.DEInternal.Weighted>
0.7508

> <Gold.Chemscore.Rot.Weighted>
5.8431

> <Gold.Chemscore.Internal.Correction.Weighted>
   9.000000E+99

> <Gold.Protein.RotatedTorsions>
[ 6907 6896 6895 6894 ] final -137.70 input  -60.11 | X-H torsion
[ 7974 7965 7964 7962 ] final  157.90 input  175.53 | X-H torsion
[ 8008 7997 7996 7995 ] final   45.07 input   59.86 | X-H torsion
[ 10167 10162 10161 10158 ] final   13.21 input  -65.29 | X-H torsion
[ 10718 10713 10712 10709 ] final   52.95 input   66.30 | X-H torsion
[ 10763 10752 10751 10750 ] final -125.68 input  -60.55 | X-H torsion
[ 11005 11000 10999 10996 ] final  111.90 input  -57.11 | X-H torsion

> <Gold.Protein.ActiveResidues>
 VAL166  LYS551  ARG553  GLY616  TRP617  ASP618  TYR619  PRO620  LYS621  CYS622 
 ASP623  PHE694  ASN695  SER759  ASP760  ASP761  ALA762  ILE779  LEU786  VAL792 
 PHE793  MET794  SER795  GLU796  ALA797  LYS798  CYS799  TRP800  GLU811  SER814 

> <Gold.Protein.RotatedAtoms>
  151.0257  133.5836  159.2666 H   0  0  0  0  0  0  0  0  0  0  0  0  # atno 6907 bound_to 6896
  151.2936  135.0748  159.9223 H   0  0  0  0  0  0  0  0  0  0  0  0  # atno 6908 bound_to 6896
  152.5333  133.9951  159.7923 H   0  0  0  0  0  0  0  0  0  0  0  0  # atno 6909 bound_to 6896
  144.7876  139.7404  143.6234 H   0  0  0  0  0  0  0  0  0  0  0  0  # atno 7974 bound_to 7965
  155.3298  140.3402  155.4239 H   0  0  0  0  0  0  0  0  0  0  0  0  # atno 8008 bound_to 7997
  156.1867  140.1683  156.8207 H   0  0  0  0  0  0  0  0  0  0  0  0  # atno 8009 bound_to 7997
  154.5395  140.0728  156.8468 H   0  0  0  0  0  0  0  0  0  0  0  0  # atno 8010 bound_to 7997
  140.6018  143.8589  150.6973 H   0  0  0  0  0  0  0  0  0  0  0  0  # atno 10167 bound_to 10162
  157.5122  130.8508  149.8450 H   0  0  0  0  0  0  0  0  0  0  0  0  # atno 10718 bound_to 10713
  154.8738  135.4021  154.3307 H   0  0  0  0  0  0  0  0  0  0  0  0  # atno 10763 bound_to 10752
  153.4121  135.7021  153.6357 H   0  0  0  0  0  0  0  0  0  0  0  0  # atno 10764 bound_to 10752
  153.5055  135.3718  155.2531 H   0  0  0  0  0  0  0  0  0  0  0  0  # atno 10765 bound_to 10752
  139.8914  134.9518  156.6503 H   0  0  0  0  0  0  0  0  0  0  0  0  # atno 11005 bound_to 11000
  146.2115  139.5474  142.9678 LP  0  0  0  0  0  0  0  0  0  0  0  0  # atno 17320 bound_to 7965
  145.5879  141.0373  143.2086 LP  0  0  0  0  0  0  0  0  0  0  0  0  # atno 17321 bound_to 7965
  140.2137  143.3863  152.1698 LP  0  0  0  0  0  0  0  0  0  0  0  0  # atno 17342 bound_to 10162
  139.5296  144.7144  151.5103 LP  0  0  0  0  0  0  0  0  0  0  0  0  # atno 17343 bound_to 10162
  156.0297  130.3768  150.1723 LP  0  0  0  0  0  0  0  0  0  0  0  0  # atno 17370 bound_to 10713
  156.9912  130.9894  151.3414 LP  0  0  0  0  0  0  0  0  0  0  0  0  # atno 17371 bound_to 10713
  140.7526  133.8885  155.8358 LP  0  0  0  0  0  0  0  0  0  0  0  0  # atno 17394 bound_to 11000
  140.9988  134.1178  157.4337 LP  0  0  0  0  0  0  0  0  0  0  0  0  # atno 17395 bound_to 11000

$$$$
