AV-unprocessed.smi:310|AV-procd|sdf|2296|dock10
  -GOLD-   2262022193D 1   1.00000     0.00000
 Structure written by MMmdl.
 40 42  0  0  0  0  0  0  0  0  2 V2000
  146.7187  134.0617  162.4972 C   0  0  0  0  0  0  0  0  0  0  0  0
  147.2475  135.0600  161.5249 C   0  0  0  0  0  0  0  0  0  0  0  0
  147.6814  134.9566  160.2338 C   0  0  0  0  0  0  0  0  0  0  0  0
  148.0538  136.2895  159.9080 C   0  0  0  0  0  0  0  0  0  0  0  0
  148.5383  136.7076  158.7286 N   0  5  0  0  0  0  0  0  0  0  0  0
  149.7574  137.2912  158.6617 C   0  0  0  0  0  0  0  0  0  0  0  0
  150.8235  136.8013  159.0423 O   0  0  0  0  0  0  0  0  0  0  0  0
  149.7400  138.5186  158.1212 N   0  0  0  0  0  0  0  0  0  0  0  0
  150.8976  139.3869  157.9224 C   0  0  0  0  0  0  0  0  0  0  0  0
  151.7546  139.4577  159.2082 C   0  0  0  0  0  0  0  0  0  0  0  0
  152.8569  140.5232  159.0800 C   0  0  0  0  0  0  0  0  0  0  0  0
  152.2327  141.8159  158.7663 N   0  0  0  0  0  0  0  0  0  0  0  0
  152.1503  142.8864  159.5956 C   0  0  0  0  0  0  0  0  0  0  0  0
  152.5519  142.8451  160.7598 O   0  0  0  0  0  0  0  0  0  0  0  0
  151.5691  144.1477  159.0299 C   0  0  0  0  0  0  0  0  0  0  0  0
  152.5088  145.2973  158.7115 C   0  0  0  0  0  0  0  0  0  0  0  0
  151.6061  145.3756  159.9148 C   0  0  0  0  0  0  0  0  0  0  0  0
  151.5966  141.7892  157.4436 C   0  0  0  0  0  0  0  0  0  0  0  0
  150.4260  140.7895  157.4815 C   0  0  0  0  0  0  0  0  0  0  0  0
  147.8481  137.1304  160.9079 N   0  0  0  0  0  0  0  0  0  0  0  0
  147.3374  136.3486  161.9510 O   0  0  0  0  0  0  0  0  0  0  0  0
  145.8132  133.5927  162.1127 H   0  0  0  0  0  0  0  0  0  0  0  0
  146.4774  134.5306  163.4514 H   0  0  0  0  0  0  0  0  0  0  0  0
  147.4537  133.2784  162.6823 H   0  0  0  0  0  0  0  0  0  0  0  0
  147.7300  134.0694  159.6206 H   0  0  0  0  0  0  0  0  0  0  0  0
  148.8450  138.8785  157.8241 H   0  0  0  0  0  0  0  0  0  0  0  0
  151.5146  138.9814  157.1182 H   0  0  0  0  0  0  0  0  0  0  0  0
  151.1217  139.6960  160.0643 H   0  0  0  0  0  0  0  0  0  0  0  0
  152.2024  138.4855  159.4164 H   0  0  0  0  0  0  0  0  0  0  0  0
  153.4788  140.5387  159.9740 H   0  0  0  0  0  0  0  0  0  0  0  0
  153.5363  140.2511  158.2710 H   0  0  0  0  0  0  0  0  0  0  0  0
  150.7237  144.0364  158.3535 H   0  0  0  0  0  0  0  0  0  0  0  0
  153.5748  145.1844  158.9001 H   0  0  0  0  0  0  0  0  0  0  0  0
  152.2606  145.9102  157.8476 H   0  0  0  0  0  0  0  0  0  0  0  0
  150.7477  146.0424  159.8693 H   0  0  0  0  0  0  0  0  0  0  0  0
  152.0711  145.2882  160.8954 H   0  0  0  0  0  0  0  0  0  0  0  0
  151.2349  142.7674  157.1246 H   0  0  0  0  0  0  0  0  0  0  0  0
  152.3273  141.4843  156.6929 H   0  0  0  0  0  0  0  0  0  0  0  0
  149.9515  140.7339  156.5014 H   0  0  0  0  0  0  0  0  0  0  0  0
  149.6660  141.1583  158.1724 H   0  0  0  0  0  0  0  0  0  0  0  0
  1  2  1  0  0  0  0
  1 22  1  0  0  0  0
  1 23  1  0  0  0  0
  1 24  1  0  0  0  0
  2 21  1  0  0  0  0
  2  3  2  0  0  0  0
  3  4  1  0  0  0  0
  3 25  1  0  0  0  0
  4  5  1  0  0  0  0
  4 20  2  0  0  0  0
  5  6  1  0  0  0  0
  6  7  2  0  0  0  0
  6  8  1  0  0  0  0
  8  9  1  0  0  0  0
  8 26  1  0  0  0  0
  9 19  1  0  0  0  0
  9 10  1  0  0  0  0
  9 27  1  0  0  0  0
 10 11  1  0  0  0  0
 10 28  1  0  0  0  0
 10 29  1  0  0  0  0
 11 12  1  0  0  0  0
 11 30  1  0  0  0  0
 11 31  1  0  0  0  0
 12 13  1  0  0  0  0
 12 18  1  0  0  0  0
 13 14  2  0  0  0  0
 13 15  1  0  0  0  0
 15 17  1  0  0  0  0
 15 16  1  0  0  0  0
 15 32  1  0  0  0  0
 16 17  1  0  0  0  0
 16 33  1  0  0  0  0
 16 34  1  0  0  0  0
 17 35  1  0  0  0  0
 17 36  1  0  0  0  0
 18 19  1  0  0  0  0
 18 37  1  0  0  0  0
 18 38  1  0  0  0  0
 19 39  1  0  0  0  0
 19 40  1  0  0  0  0
 20 21  1  0  0  0  0
M  CHG  1   5  -1
M  END
> <s_m_source_file>
AV-unprocessed.smi

> <i_m_source_file_index>
310

> <i_lp_mmshare_version>
43012

> <i_f3d_flags>
0

> <s_epik_input>
W0NIM11jMVtjSF1jKG5vMSlbTkhdQyg9TylbTkhdW0NIXTJbQ0gyXVtDSDJdTihbQ0gyXVtDSDJdMilDKD1PKVtDSF0zW0NIMl1bQ0gyXTM=

> <s_epik_cmdline>
J2VwaWtfcHl0aG9uJywgJy1waCcsICc3LjAnLCAnLXRuJywgJzgnLCAnLW1hJywgJzIwMCcsICctbWV0YWxfYmluZGluZycsICctaW1hZScsICc8aW5maWxlLm1hZT4nLCAnLW9tYWUnLCAnPG91dGZpbGUubWFlPic=

> <r_lp_tautomer_probability>
1

> <r_epik_Ionization_Penalty>
6.54503

> <r_epik_Ionization_Penalty_Charging>
6.5449

> <r_epik_Ionization_Penalty_Neutral>
0.000132868

> <r_epik_State_Penalty>
6.54489

> <r_epik_Charging_Adjusted_Penalty>
13.0898

> <i_epik_Tot_Q>
-1

> <i_epik_Tot_abs_Q>
1

> <r_epik_Metal_State_Penalty>
2.47073

> <b_epik_Metal_Only>
1

> <s_lp_Force_Field>
OPLS_2005

> <r_lp_Energy>
23.2172

> <b_lp_Chiralities_Consistent>
1

> <s_lp_Variant>
AV-unprocessed.smi:310-2

> <Gold.Version>
5.8.1

> <Gold.Id.Protein>
6NUR|6NUR_protein|mol2

> <Gold.PLP.Fitness>
47.3145

> <Gold.PLP.PLP>
-41.7388

> <Gold.PLP.part.hbond>
-3.0000

> <Gold.PLP.part.metal>
0.0000

> <Gold.PLP.part.buried>
-7.8708

> <Gold.PLP.part.nonpolar>
-29.7814

> <Gold.PLP.part.repulsive>
0.1537

> <Gold.PLP.ligand.clash>
0.0000

> <Gold.PLP.ligand.torsion>
1.4061

> <Gold.PLP.Chemscore.Hbond>
2.7529

> <Gold.PLP.Chemscore.CHOScore>
0.0000

> <Gold.PLP.Chemscore.Metal>
0.0000

> <Gold.Chemscore.Hbonds>
donor molecule, donor type, donor heavy atom, donor atom, acceptor molecule, acceptor atom, score
      P1  H  6896  6908       L1     7  1.00
      P1  H  6931  6943       L1    20  0.91
      P1  H  6934  6947       L1    20  0.83

> <Gold.PLP.Chemscore.Internal.Correction>
0.1293

> <Gold.Rescore>
     Score         DG    S(hbond)    S(metal)    S(lipo)     H(rot)  DE(clash)    DE(int)     intcor
     17.79     -20.48       2.35        0.00      88.53       1.25       0.06       2.63       ----

> <Gold.Chemscore.Fitness>
17.7944

> <Gold.Chemscore.DG>
-20.4848

> <Gold.Chemscore.ZeroCoef>
-5.4800

> <Gold.Chemscore.Hbond>
2.3488

> <Gold.Chemscore.Metal>
0.0000

> <Gold.Chemscore.Lipo>
88.5296

> <Gold.Chemscore.Internal_Hbond>
0.0000

> <Gold.Chemscore.DEClash>
0.0572

> <Gold.Chemscore.DEInternal>
2.6331

> <Gold.Chemscore.Rot>
1.2493

> <Gold.Chemscore.Internal.Correction>
   9.000000E+99

> <Gold.Chemscore.Hbonds>
donor molecule, donor type, donor heavy atom, donor atom, acceptor molecule, acceptor atom, score
      P1  H  6896  6908       L1     7  0.94
      P1  H  6931  6943       L1    20  0.23
      P1  H  6934  6947       L1    20  0.70

> <Gold.Chemscore.Hbond.Weighted>
-7.8450

> <Gold.Chemscore.Metal.Weighted>
-0.0000

> <Gold.Chemscore.Lipo.Weighted>
-10.3580

> <Gold.Chemscore.Internal_Hbond.Weighted>
0.0000

> <Gold.Chemscore.DEClash.Weighted>
0.0572

> <Gold.Chemscore.DEInternal.Weighted>
2.6331

> <Gold.Chemscore.Rot.Weighted>
3.1981

> <Gold.Chemscore.Internal.Correction.Weighted>
   9.000000E+99

> <Gold.Protein.RotatedTorsions>
[ 6907 6896 6895 6894 ] final -158.24 input  -60.11 | X-H torsion
[ 7974 7965 7964 7962 ] final -153.45 input  175.53 | X-H torsion
[ 8008 7997 7996 7995 ] final   40.47 input   59.86 | X-H torsion
[ 10167 10162 10161 10158 ] final  -43.58 input  -65.29 | X-H torsion
[ 10718 10713 10712 10709 ] final  -32.49 input   66.30 | X-H torsion
[ 10763 10752 10751 10750 ] final   35.03 input  -60.55 | X-H torsion
[ 11005 11000 10999 10996 ] final  141.63 input  -57.11 | X-H torsion

> <Gold.Protein.ActiveResidues>
 VAL166  LYS551  ARG553  GLY616  TRP617  ASP618  TYR619  PRO620  LYS621  CYS622 
 ASP623  PHE694  ASN695  SER759  ASP760  ASP761  ALA762  ILE779  LEU786  VAL792 
 PHE793  MET794  SER795  GLU796  ALA797  LYS798  CYS799  TRP800  GLU811  SER814 

> <Gold.Protein.RotatedAtoms>
  151.3151  133.4063  159.2649 H   0  0  0  0  0  0  0  0  0  0  0  0  # atno 6907 bound_to 6896
  151.0081  134.9376  159.8002 H   0  0  0  0  0  0  0  0  0  0  0  0  # atno 6908 bound_to 6896
  152.5293  134.3116  159.9168 H   0  0  0  0  0  0  0  0  0  0  0  0  # atno 6909 bound_to 6896
  144.7740  140.4524  143.5887 H   0  0  0  0  0  0  0  0  0  0  0  0  # atno 7974 bound_to 7965
  155.2537  140.3354  155.4279 H   0  0  0  0  0  0  0  0  0  0  0  0  # atno 8008 bound_to 7997
  156.2205  140.1807  156.7532 H   0  0  0  0  0  0  0  0  0  0  0  0  # atno 8009 bound_to 7997
  154.5817  140.0652  156.9099 H   0  0  0  0  0  0  0  0  0  0  0  0  # atno 8010 bound_to 7997
  140.6928  143.2975  151.3373 H   0  0  0  0  0  0  0  0  0  0  0  0  # atno 10167 bound_to 10162
  156.3743  130.4345  149.7520 H   0  0  0  0  0  0  0  0  0  0  0  0  # atno 10718 bound_to 10713
  153.0137  135.6344  154.1762 H   0  0  0  0  0  0  0  0  0  0  0  0  # atno 10763 bound_to 10752
  154.1502  135.2829  155.3139 H   0  0  0  0  0  0  0  0  0  0  0  0  # atno 10764 bound_to 10752
  154.6059  135.5572  153.7483 H   0  0  0  0  0  0  0  0  0  0  0  0  # atno 10765 bound_to 10752
  140.0416  134.9302  157.0853 H   0  0  0  0  0  0  0  0  0  0  0  0  # atno 11005 bound_to 11000
  145.6240  139.1527  143.3006 LP  0  0  0  0  0  0  0  0  0  0  0  0  # atno 17320 bound_to 7965
  146.1907  140.6348  142.9147 LP  0  0  0  0  0  0  0  0  0  0  0  0  # atno 17321 bound_to 7965
  139.6350  144.0648  152.2508 LP  0  0  0  0  0  0  0  0  0  0  0  0  # atno 17342 bound_to 10162
  140.0135  144.6206  150.7627 LP  0  0  0  0  0  0  0  0  0  0  0  0  # atno 17343 bound_to 10162
  156.4636  130.7963  151.2983 LP  0  0  0  0  0  0  0  0  0  0  0  0  # atno 17370 bound_to 10713
  157.7487  131.0058  150.3128 LP  0  0  0  0  0  0  0  0  0  0  0  0  # atno 17371 bound_to 10713
  140.4060  134.2032  155.7163 LP  0  0  0  0  0  0  0  0  0  0  0  0  # atno 17394 bound_to 11000
  141.1886  133.8257  157.0990 LP  0  0  0  0  0  0  0  0  0  0  0  0  # atno 17395 bound_to 11000

$$$$
