AV-unprocessed.smi:2847|AV-procd|sdf|10954|dock3
  -GOLD-   2272015403D 1   1.00000     0.00000
 Structure written by MMmdl.
 45 46  0  0  0  0  0  0  0  0  1 V2000
  144.1856  133.8934  162.5090 C   0  0  0  0  0  0  0  0  0  0  0  0
  145.0122  134.9099  161.6863 C   0  0  0  0  0  0  0  0  0  0  0  0
  144.4976  136.3344  161.9633 C   0  0  0  0  0  0  0  0  0  0  0  0
  146.4702  134.7794  162.1864 C   0  0  0  0  0  0  0  0  0  0  0  0
  144.9157  134.6133  160.1794 C   0  0  0  0  0  0  0  0  0  0  0  0
  146.0531  134.2990  159.5452 N   0  0  0  0  0  0  0  0  0  0  0  0
  145.9653  133.9171  158.2540 C   0  0  0  0  0  0  0  0  0  0  0  0
  144.7281  133.8196  157.5869 C   0  0  0  0  0  0  0  0  0  0  0  0
  144.7075  133.3958  156.2314 N   0  0  0  0  0  0  0  0  0  0  0  0
  145.6522  133.5637  155.2911 C   0  0  0  0  0  0  0  0  0  0  0  0
  146.7385  134.1125  155.4716 O   0  0  0  0  0  0  0  0  0  0  0  0
  145.2595  133.0343  154.1210 N   0  0  0  0  0  0  0  0  0  0  0  0
  145.9784  132.9965  152.8400 C   0  0  2  0  0  0  0  0  0  0  0  0
  147.4033  132.4306  153.0498 C   0  0  0  0  0  0  0  0  0  0  0  0
  146.0819  134.4744  152.3676 C   0  0  0  0  0  0  0  0  0  0  0  0
  146.9665  135.2355  153.1686 O   0  0  0  0  0  0  0  0  0  0  0  0
  145.2595  132.1086  151.8081 C   0  0  0  0  0  0  0  0  0  0  0  0
  145.4733  132.1980  150.3141 C   0  0  0  0  0  0  0  0  0  0  0  0
  144.1347  132.5813  150.9160 C   0  0  0  0  0  0  0  0  0  0  0  0
  143.5849  134.1215  158.3645 C   0  0  0  0  0  0  0  0  0  0  0  0
  143.6876  134.5014  159.6562 N   0  0  0  0  0  0  0  0  0  0  0  0
  144.2915  134.0702  163.5800 H   0  0  0  0  0  0  0  0  0  0  0  0
  144.5063  132.8695  162.3132 H   0  0  0  0  0  0  0  0  0  0  0  0
  143.1201  133.9558  162.2849 H   0  0  0  0  0  0  0  0  0  0  0  0
  143.4589  136.4480  161.6513 H   0  0  0  0  0  0  0  0  0  0  0  0
  145.0854  137.0794  161.4257 H   0  0  0  0  0  0  0  0  0  0  0  0
  144.5510  136.5768  163.0252 H   0  0  0  0  0  0  0  0  0  0  0  0
  146.5362  134.9429  163.2627 H   0  0  0  0  0  0  0  0  0  0  0  0
  147.1311  135.5091  161.7172 H   0  0  0  0  0  0  0  0  0  0  0  0
  146.8738  133.7870  161.9807 H   0  0  0  0  0  0  0  0  0  0  0  0
  146.8928  133.6846  157.7514 H   0  0  0  0  0  0  0  0  0  0  0  0
  143.8962  132.8617  155.9559 H   0  0  0  0  0  0  0  0  0  0  0  0
  144.3414  132.6148  154.1041 H   0  0  0  0  0  0  0  0  0  0  0  0
  148.0007  132.5296  152.1429 H   0  0  0  0  0  0  0  0  0  0  0  0
  147.3882  131.3708  153.3048 H   0  0  0  0  0  0  0  0  0  0  0  0
  147.9342  132.9465  153.8505 H   0  0  0  0  0  0  0  0  0  0  0  0
  146.4491  134.5400  151.3445 H   0  0  0  0  0  0  0  0  0  0  0  0
  145.1106  134.9678  152.3932 H   0  0  0  0  0  0  0  0  0  0  0  0
  147.6782  135.5384  152.6254 H   0  0  0  0  0  0  0  0  0  0  0  0
  145.1492  131.0843  152.1579 H   0  0  0  0  0  0  0  0  0  0  0  0
  146.0886  132.9977  149.9107 H   0  0  0  0  0  0  0  0  0  0  0  0
  145.5223  131.2615  149.7624 H   0  0  0  0  0  0  0  0  0  0  0  0
  143.3021  131.8975  150.7632 H   0  0  0  0  0  0  0  0  0  0  0  0
  143.8687  133.6349  150.9060 H   0  0  0  0  0  0  0  0  0  0  0  0
  142.5793  134.0400  157.9820 H   0  0  0  0  0  0  0  0  0  0  0  0
  1  2  1  0  0  0  0
  1 22  1  0  0  0  0
  1 23  1  0  0  0  0
  1 24  1  0  0  0  0
  2  3  1  0  0  0  0
  2  4  1  0  0  0  0
  2  5  1  0  0  0  0
  3 25  1  0  0  0  0
  3 26  1  0  0  0  0
  3 27  1  0  0  0  0
  4 28  1  0  0  0  0
  4 29  1  0  0  0  0
  4 30  1  0  0  0  0
  5 21  1  0  0  0  0
  5  6  2  0  0  0  0
  6  7  1  0  0  0  0
  7  8  2  0  0  0  0
  7 31  1  0  0  0  0
  8  9  1  0  0  0  0
  8 20  1  0  0  0  0
  9 10  1  0  0  0  0
  9 32  1  0  0  0  0
 10 11  2  0  0  0  0
 10 12  1  0  0  0  0
 12 13  1  0  0  0  0
 12 33  1  0  0  0  0
 13 14  1  0  0  0  0
 13 15  1  0  0  0  0
 13 17  1  0  0  0  0
 14 34  1  0  0  0  0
 14 35  1  0  0  0  0
 14 36  1  0  0  0  0
 15 16  1  0  0  0  0
 15 37  1  0  0  0  0
 15 38  1  0  0  0  0
 16 39  1  0  0  0  0
 17 19  1  0  0  0  0
 17 18  1  0  0  0  0
 17 40  1  0  0  0  0
 18 19  1  0  0  0  0
 18 41  1  0  0  0  0
 18 42  1  0  0  0  0
 19 43  1  0  0  0  0
 19 44  1  0  0  0  0
 20 21  2  0  0  0  0
 20 45  1  0  0  0  0
M  END
> <s_m_source_file>
AV-unprocessed.smi

> <i_m_source_file_index>
2847

> <i_lp_mmshare_version>
43012

> <i_f3d_flags>
0

> <s_epik_input>
W0NIM11DKFtDSDNdKShbQ0gzXSljMW5bY0hdYyhbY0hdbjEpW05IXUMoPU8pW05IXVtDQEBdKFtDSDNdKShbQ0gyXVtPSF0pW0NIXTJbQ0gyXVtDSDJdMg==

> <s_epik_cmdline>
J2VwaWtfcHl0aG9uJywgJy1waCcsICc3LjAnLCAnLXRuJywgJzgnLCAnLW1hJywgJzIwMCcsICctbWV0YWxfYmluZGluZycsICctaW1hZScsICc8aW5maWxlLm1hZT4nLCAnLW9tYWUnLCAnPG91dGZpbGUubWFlPic=

> <r_lp_tautomer_probability>
1

> <r_epik_Ionization_Penalty>
2.57177e-05

> <r_epik_Ionization_Penalty_Charging>
0

> <r_epik_Ionization_Penalty_Neutral>
2.57177e-05

> <r_epik_State_Penalty>
-0

> <r_epik_Charging_Adjusted_Penalty>
0

> <i_epik_Tot_Q>
0

> <i_epik_Tot_abs_Q>
0

> <r_epik_Metal_State_Penalty>
-0

> <b_epik_Metal_Only>
0

> <s_lp_Force_Field>
OPLS_2005

> <r_lp_Energy>
20.8954

> <b_lp_Chiralities_Consistent>
1

> <s_lp_Variant>
AV-unprocessed.smi:2847-2

> <Gold.Version>
5.8.1

> <Gold.Id.Protein>
6NUR|6NUR_protein|mol2

> <Gold.PLP.Fitness>
37.9640

> <Gold.PLP.PLP>
-26.7540

> <Gold.PLP.part.hbond>
-3.0000

> <Gold.PLP.part.metal>
0.0000

> <Gold.PLP.part.buried>
-4.6437

> <Gold.PLP.part.nonpolar>
-19.2180

> <Gold.PLP.part.repulsive>
0.0207

> <Gold.PLP.ligand.clash>
0.0000

> <Gold.PLP.ligand.torsion>
1.1689

> <Gold.PLP.Chemscore.Hbond>
3.0000

> <Gold.PLP.Chemscore.CHOScore>
0.9995

> <Gold.PLP.Chemscore.Metal>
0.0000

> <Gold.Chemscore.Hbonds>
donor molecule, donor type, donor heavy atom, donor atom, acceptor molecule, acceptor atom, score
      L1  H     9    32       P1 10957  1.00
      L1  H    12    33       P1 10957  1.00
      L1  H    16    39       P1  7948  1.00
      L1  C    20    45       P1 11000  0.99

> <Gold.PLP.Chemscore.Internal.Correction>
1.5492

> <Gold.Rescore>
     Score         DG    S(hbond)    S(metal)    S(lipo)     H(rot)  DE(clash)    DE(int)     intcor
     14.55     -17.07       2.80        0.00      66.52       2.17       0.00       2.52       ----

> <Gold.Chemscore.Fitness>
14.5498

> <Gold.Chemscore.DG>
-17.0711

> <Gold.Chemscore.ZeroCoef>
-5.4800

> <Gold.Chemscore.Hbond>
2.8018

> <Gold.Chemscore.Metal>
0.0000

> <Gold.Chemscore.Lipo>
66.5201

> <Gold.Chemscore.Internal_Hbond>
0.0000

> <Gold.Chemscore.DEClash>
0.0029

> <Gold.Chemscore.DEInternal>
2.5184

> <Gold.Chemscore.Rot>
2.1679

> <Gold.Chemscore.Internal.Correction>
   9.000000E+99

> <Gold.Chemscore.Hbonds>
donor molecule, donor type, donor heavy atom, donor atom, acceptor molecule, acceptor atom, score
      L1  H     9    32       P1 10957  0.96
      L1  H    12    33       P1 10957  0.76
      L1  H    16    39       P1  7948  0.99

> <Gold.Chemscore.Hbond.Weighted>
-9.3581

> <Gold.Chemscore.Metal.Weighted>
-0.0000

> <Gold.Chemscore.Lipo.Weighted>
-7.7829

> <Gold.Chemscore.Internal_Hbond.Weighted>
0.0000

> <Gold.Chemscore.DEClash.Weighted>
0.0029

> <Gold.Chemscore.DEInternal.Weighted>
2.5184

> <Gold.Chemscore.Rot.Weighted>
5.5499

> <Gold.Chemscore.Internal.Correction.Weighted>
   9.000000E+99

> <Gold.Protein.RotatedTorsions>
[ 6907 6896 6895 6894 ] final -122.35 input  -60.11 | X-H torsion
[ 7974 7965 7964 7962 ] final  129.87 input  175.53 | X-H torsion
[ 8008 7997 7996 7995 ] final  143.37 input   59.86 | X-H torsion
[ 10167 10162 10161 10158 ] final  -76.87 input  -65.29 | X-H torsion
[ 10718 10713 10712 10709 ] final  107.99 input   66.30 | X-H torsion
[ 10763 10752 10751 10750 ] final  -62.82 input  -60.55 | X-H torsion
[ 11005 11000 10999 10996 ] final  110.36 input  -57.11 | X-H torsion

> <Gold.Protein.ActiveResidues>
 VAL166  LYS551  ARG553  GLY616  TRP617  ASP618  TYR619  PRO620  LYS621  CYS622 
 ASP623  PHE694  ASN695  SER759  ASP760  ASP761  ALA762  ILE779  LEU786  VAL792 
 PHE793  MET794  SER795  GLU796  ALA797  LYS798  CYS799  TRP800  GLU811  SER814 

> <Gold.Protein.RotatedAtoms>
  150.8567  133.7704  159.3006 H   0  0  0  0  0  0  0  0  0  0  0  0  # atno 6907 bound_to 6896
  151.5359  135.1067  159.9924 H   0  0  0  0  0  0  0  0  0  0  0  0  # atno 6908 bound_to 6896
  152.4595  133.7749  159.6875 H   0  0  0  0  0  0  0  0  0  0  0  0  # atno 6909 bound_to 6896
  145.0240  139.4106  143.5183 H   0  0  0  0  0  0  0  0  0  0  0  0  # atno 7974 bound_to 7965
  156.2931  140.2264  156.4880 H   0  0  0  0  0  0  0  0  0  0  0  0  # atno 8008 bound_to 7997
  154.7795  140.0461  157.1137 H   0  0  0  0  0  0  0  0  0  0  0  0  # atno 8009 bound_to 7997
  154.9776  140.3074  155.4964 H   0  0  0  0  0  0  0  0  0  0  0  0  # atno 8010 bound_to 7997
  140.4820  143.2400  151.8043 H   0  0  0  0  0  0  0  0  0  0  0  0  # atno 10167 bound_to 10162
  157.6605  131.0884  150.6239 H   0  0  0  0  0  0  0  0  0  0  0  0  # atno 10718 bound_to 10713
  154.3057  135.6225  153.5444 H   0  0  0  0  0  0  0  0  0  0  0  0  # atno 10763 bound_to 10752
  152.9835  135.5689  154.5233 H   0  0  0  0  0  0  0  0  0  0  0  0  # atno 10764 bound_to 10752
  154.4873  135.2866  155.1500 H   0  0  0  0  0  0  0  0  0  0  0  0  # atno 10765 bound_to 10752
  139.8880  134.9482  156.6266 H   0  0  0  0  0  0  0  0  0  0  0  0  # atno 11005 bound_to 11000
  146.3489  139.9754  142.8701 LP  0  0  0  0  0  0  0  0  0  0  0  0  # atno 17320 bound_to 7965
  145.1858  140.9788  143.4240 LP  0  0  0  0  0  0  0  0  0  0  0  0  # atno 17321 bound_to 7965
  139.4835  144.4760  151.9366 LP  0  0  0  0  0  0  0  0  0  0  0  0  # atno 17342 bound_to 10162
  140.3846  144.2693  150.5905 LP  0  0  0  0  0  0  0  0  0  0  0  0  # atno 17343 bound_to 10162
  156.6542  130.4494  149.5709 LP  0  0  0  0  0  0  0  0  0  0  0  0  # atno 17370 bound_to 10713
  156.2115  130.6681  151.1274 LP  0  0  0  0  0  0  0  0  0  0  0  0  # atno 17371 bound_to 10713
  140.7698  133.8748  155.8483 LP  0  0  0  0  0  0  0  0  0  0  0  0  # atno 17394 bound_to 11000
  140.9851  134.1353  157.4459 LP  0  0  0  0  0  0  0  0  0  0  0  0  # atno 17395 bound_to 11000

$$$$
