AV-unprocessed.smi:2867|AV-procd|sdf|11026|dock1
  -GOLD-   2272015483D 1   1.00000     0.00000
 Structure written by MMmdl.
 40 42  0  0  0  0  0  0  0  0  3 V2000
  147.1423  129.5651  157.0446 C   0  0  0  0  0  0  0  0  0  0  0  0
  147.5123  130.3983  155.9610 O   0  0  0  0  0  0  0  0  0  0  0  0
  148.7772  130.0579  155.4157 C   0  0  0  0  0  0  0  0  0  0  0  0
  148.9243  130.6998  154.0293 C   0  0  0  0  0  0  0  0  0  0  0  0
  148.7227  132.1570  154.0724 N   0  0  0  0  0  0  0  0  0  0  0  0
  147.8332  132.9633  153.4258 C   0  0  0  0  0  0  0  0  0  0  0  0
  146.7892  132.5414  152.4800 C   0  0  0  0  0  0  0  0  0  0  0  0
  146.4710  131.1730  152.3380 C   0  0  0  0  0  0  0  0  0  0  0  0
  145.4704  130.7560  151.4390 C   0  0  0  0  0  0  0  0  0  0  0  0
  144.7791  131.7070  150.6658 C   0  0  0  0  0  0  0  0  0  0  0  0
  145.0918  133.0730  150.7932 C   0  0  0  0  0  0  0  0  0  0  0  0
  144.4313  133.9915  150.0495 F   0  0  0  0  0  0  0  0  0  0  0  0
  146.0930  133.4851  151.6936 C   0  0  0  0  0  0  0  0  0  0  0  0
  148.0909  134.2546  153.7641 N   0  3  0  0  0  0  0  0  0  0  0  0
  149.1660  134.2828  154.6539 C   0  0  0  0  0  0  0  0  0  0  0  0
  149.7958  135.3530  155.2789 C   0  0  0  0  0  0  0  0  0  0  0  0
  150.8802  135.0363  156.1236 C   0  0  0  0  0  0  0  0  0  0  0  0
  151.7423  136.3656  156.9564 S   0  0  0  0  0  0  0  0  0  0  0  0
  150.8335  136.3865  158.2881 N   0  5  0  0  0  0  0  0  0  0  0  0
  153.1114  135.8879  157.2038 O   0  0  0  0  0  0  0  0  0  0  0  0
  151.5625  137.5645  156.1230 O   0  0  0  0  0  0  0  0  0  0  0  0
  151.3036  133.7050  156.3235 C   0  0  0  0  0  0  0  0  0  0  0  0
  150.6544  132.6286  155.6837 C   0  0  0  0  0  0  0  0  0  0  0  0
  149.5800  132.9449  154.8516 C   0  0  0  0  0  0  0  0  0  0  0  0
  146.1672  129.8710  157.4234 H   0  0  0  0  0  0  0  0  0  0  0  0
  147.8600  129.6391  157.8626 H   0  0  0  0  0  0  0  0  0  0  0  0
  147.0712  128.5223  156.7328 H   0  0  0  0  0  0  0  0  0  0  0  0
  149.5745  130.4091  156.0723 H   0  0  0  0  0  0  0  0  0  0  0  0
  148.8714  128.9735  155.3368 H   0  0  0  0  0  0  0  0  0  0  0  0
  149.9194  130.5036  153.6339 H   0  0  0  0  0  0  0  0  0  0  0  0
  148.2249  130.2608  153.3178 H   0  0  0  0  0  0  0  0  0  0  0  0
  146.9925  130.4349  152.9302 H   0  0  0  0  0  0  0  0  0  0  0  0
  145.2328  129.7068  151.3433 H   0  0  0  0  0  0  0  0  0  0  0  0
  144.0116  131.3892  149.9753 H   0  0  0  0  0  0  0  0  0  0  0  0
  146.3293  134.5359  151.7765 H   0  0  0  0  0  0  0  0  0  0  0  0
  149.4784  136.3748  155.1315 H   0  0  0  0  0  0  0  0  0  0  0  0
  149.8531  136.4765  157.9962 H   0  0  0  0  0  0  0  0  0  0  0  0
  152.1373  133.5028  156.9799 H   0  0  0  0  0  0  0  0  0  0  0  0
  150.9864  131.6134  155.8411 H   0  0  0  0  0  0  0  0  0  0  0  0
  147.5744  135.0506  153.4131 H   0  0  0  0  0  0  0  0  0  0  0  0
  1  2  1  0  0  0  0
  1 25  1  0  0  0  0
  1 26  1  0  0  0  0
  1 27  1  0  0  0  0
  2  3  1  0  0  0  0
  3  4  1  0  0  0  0
  3 28  1  0  0  0  0
  3 29  1  0  0  0  0
  4  5  1  0  0  0  0
  4 30  1  0  0  0  0
  4 31  1  0  0  0  0
  5 24  1  0  0  0  0
  5  6  1  0  0  0  0
  6  7  1  0  0  0  0
  6 14  2  0  0  0  0
  7 13  1  0  0  0  0
  7  8  2  0  0  0  0
  8  9  1  0  0  0  0
  8 32  1  0  0  0  0
  9 10  2  0  0  0  0
  9 33  1  0  0  0  0
 10 11  1  0  0  0  0
 10 34  1  0  0  0  0
 11 12  1  0  0  0  0
 11 13  2  0  0  0  0
 13 35  1  0  0  0  0
 14 15  1  0  0  0  0
 14 40  1  0  0  0  0
 15 24  2  0  0  0  0
 15 16  1  0  0  0  0
 16 17  2  0  0  0  0
 16 36  1  0  0  0  0
 17 18  1  0  0  0  0
 17 22  1  0  0  0  0
 18 19  1  0  0  0  0
 18 20  2  0  0  0  0
 18 21  2  0  0  0  0
 19 37  1  0  0  0  0
 22 23  2  0  0  0  0
 22 38  1  0  0  0  0
 23 24  1  0  0  0  0
 23 39  1  0  0  0  0
M  CHG  1  14   1
M  CHG  1  19  -1
M  END
> <s_m_source_file>
AV-unprocessed.smi

> <i_m_source_file_index>
2867

> <i_lp_mmshare_version>
43012

> <i_f3d_flags>
0

> <s_epik_input>
W05IMl1TKD1PKSg9TyljKFtjSF0xKVtjSF1bY0hdYyhjMTIpbihbQ0gyXVtDSDJdT1tDSDNdKWMobjIpLWMzW2NIXVtjSF1bY0hdYyhGKVtjSF0z

> <s_epik_cmdline>
J2VwaWtfcHl0aG9uJywgJy1waCcsICc3LjAnLCAnLXRuJywgJzgnLCAnLW1hJywgJzIwMCcsICctbWV0YWxfYmluZGluZycsICctaW1hZScsICc8aW5maWxlLm1hZT4nLCAnLW9tYWUnLCAnPG91dGZpbGUubWFlPic=

> <r_epik_Ionization_Penalty>
2.60795

> <r_epik_Ionization_Penalty_Charging>
2.60795

> <r_epik_Ionization_Penalty_Neutral>
2.51e-12

> <r_epik_State_Penalty>
3.58678

> <r_epik_Charging_Adjusted_Penalty>
6.19473

> <i_epik_Tot_Q>
0

> <i_epik_Tot_abs_Q>
2

> <r_epik_Metal_State_Penalty>
1.73828

> <b_epik_Metal_Only>
1

> <s_lp_Force_Field>
OPLS_2005

> <r_lp_Energy>
13.6429

> <b_lp_Chiralities_Consistent>
1

> <s_lp_Variant>
AV-unprocessed.smi:2867-4

> <Gold.Version>
5.8.1

> <Gold.Id.Protein>
6NUR|6NUR_protein|mol2

> <Gold.PLP.Fitness>
46.3206

> <Gold.PLP.PLP>
-38.9398

> <Gold.PLP.part.hbond>
-3.0000

> <Gold.PLP.part.metal>
0.0000

> <Gold.PLP.part.buried>
-4.7171

> <Gold.PLP.part.nonpolar>
-31.1011

> <Gold.PLP.part.repulsive>
0.0220

> <Gold.PLP.ligand.clash>
0.0000

> <Gold.PLP.ligand.torsion>
1.1693

> <Gold.PLP.Chemscore.Hbond>
2.4829

> <Gold.PLP.Chemscore.CHOScore>
0.0000

> <Gold.PLP.Chemscore.Metal>
0.0000

> <Gold.Chemscore.Hbonds>
donor molecule, donor type, donor heavy atom, donor atom, acceptor molecule, acceptor atom, score
      L1  H    14    40       P1  7948  0.05
      P1  H  6896  6909       L1    19  1.46
      P1  H 10752 10765       L1    20  1.00

> <Gold.PLP.Chemscore.Internal.Correction>
2.2706

> <Gold.Rescore>
     Score         DG    S(hbond)    S(metal)    S(lipo)     H(rot)  DE(clash)    DE(int)     intcor
     15.00     -17.40       1.55        0.00      89.38       1.45       0.22       2.18       ----

> <Gold.Chemscore.Fitness>
14.9956

> <Gold.Chemscore.DG>
-17.4022

> <Gold.Chemscore.ZeroCoef>
-5.4800

> <Gold.Chemscore.Hbond>
1.5522

> <Gold.Chemscore.Metal>
0.0000

> <Gold.Chemscore.Lipo>
89.3792

> <Gold.Chemscore.Internal_Hbond>
0.0000

> <Gold.Chemscore.DEClash>
0.2246

> <Gold.Chemscore.DEInternal>
2.1820

> <Gold.Chemscore.Rot>
1.4530

> <Gold.Chemscore.Internal.Correction>
   9.000000E+99

> <Gold.Chemscore.Hbonds>
donor molecule, donor type, donor heavy atom, donor atom, acceptor molecule, acceptor atom, score
      L1  H    14    40       P1  7948  0.03
      P1  H  6896  6909       L1    19  0.53
      P1  H 10752 10765       L1    20  0.29

> <Gold.Chemscore.Hbond.Weighted>
-5.1845

> <Gold.Chemscore.Metal.Weighted>
-0.0000

> <Gold.Chemscore.Lipo.Weighted>
-10.4574

> <Gold.Chemscore.Internal_Hbond.Weighted>
0.0000

> <Gold.Chemscore.DEClash.Weighted>
0.2246

> <Gold.Chemscore.DEInternal.Weighted>
2.1820

> <Gold.Chemscore.Rot.Weighted>
3.7196

> <Gold.Chemscore.Internal.Correction.Weighted>
   9.000000E+99

> <Gold.Protein.RotatedTorsions>
[ 6907 6896 6895 6894 ] final   84.32 input  -60.11 | X-H torsion
[ 7974 7965 7964 7962 ] final -176.66 input  175.53 | X-H torsion
[ 8008 7997 7996 7995 ] final  -68.11 input   59.86 | X-H torsion
[ 10167 10162 10161 10158 ] final  -51.10 input  -65.29 | X-H torsion
[ 10718 10713 10712 10709 ] final -154.15 input   66.30 | X-H torsion
[ 10763 10752 10751 10750 ] final -114.57 input  -60.55 | X-H torsion
[ 11005 11000 10999 10996 ] final  141.31 input  -57.11 | X-H torsion

> <Gold.Protein.ActiveResidues>
 VAL166  LYS551  ARG553  GLY616  TRP617  ASP618  TYR619  PRO620  LYS621  CYS622 
 ASP623  PHE694  ASN695  SER759  ASP760  ASP761  ALA762  ILE779  LEU786  VAL792 
 PHE793  MET794  SER795  GLU796  ALA797  LYS798  CYS799  TRP800  GLU811  SER814 

> <Gold.Protein.RotatedAtoms>
  152.5349  134.2760  159.8989 H   0  0  0  0  0  0  0  0  0  0  0  0  # atno 6907 bound_to 6896
  151.2715  133.4246  159.2629 H   0  0  0  0  0  0  0  0  0  0  0  0  # atno 6908 bound_to 6896
  151.0363  134.9590  159.8194 H   0  0  0  0  0  0  0  0  0  0  0  0  # atno 6909 bound_to 6896
  144.7127  140.1137  143.6409 H   0  0  0  0  0  0  0  0  0  0  0  0  # atno 7974 bound_to 7965
  154.4845  140.0879  156.7455 H   0  0  0  0  0  0  0  0  0  0  0  0  # atno 8008 bound_to 7997
  155.4385  140.3452  155.4269 H   0  0  0  0  0  0  0  0  0  0  0  0  # atno 8009 bound_to 7997
  156.1241  140.1482  156.9150 H   0  0  0  0  0  0  0  0  0  0  0  0  # atno 8010 bound_to 7997
  140.6605  143.2632  151.4454 H   0  0  0  0  0  0  0  0  0  0  0  0  # atno 10167 bound_to 10162
  156.4954  130.8367  151.2588 H   0  0  0  0  0  0  0  0  0  0  0  0  # atno 10718 bound_to 10713
  154.8445  135.4413  154.1526 H   0  0  0  0  0  0  0  0  0  0  0  0  # atno 10763 bound_to 10752
  153.2683  135.6943  153.7513 H   0  0  0  0  0  0  0  0  0  0  0  0  # atno 10764 bound_to 10752
  153.6763  135.3410  155.3142 H   0  0  0  0  0  0  0  0  0  0  0  0  # atno 10765 bound_to 10752
  140.0392  134.9313  157.0811 H   0  0  0  0  0  0  0  0  0  0  0  0  # atno 11005 bound_to 11000
  145.9432  139.2683  143.1256 LP  0  0  0  0  0  0  0  0  0  0  0  0  # atno 17320 bound_to 7965
  145.9402  140.8985  143.0312 LP  0  0  0  0  0  0  0  0  0  0  0  0  # atno 17321 bound_to 7965
  139.5838  144.1650  152.2002 LP  0  0  0  0  0  0  0  0  0  0  0  0  # atno 17342 bound_to 10162
  140.0983  144.5561  150.7006 LP  0  0  0  0  0  0  0  0  0  0  0  0  # atno 17343 bound_to 10162
  157.7469  130.9999  150.2907 LP  0  0  0  0  0  0  0  0  0  0  0  0  # atno 17370 bound_to 10713
  156.3385  130.3811  149.7430 LP  0  0  0  0  0  0  0  0  0  0  0  0  # atno 17371 bound_to 10713
  140.4097  134.1995  155.7163 LP  0  0  0  0  0  0  0  0  0  0  0  0  # atno 17394 bound_to 11000
  141.1874  133.8282  157.1033 LP  0  0  0  0  0  0  0  0  0  0  0  0  # atno 17395 bound_to 11000

$$$$
