AV-unprocessed.smi:876|AV-procd|sdf|4026|dock10
  -GOLD-   22720 1513D 1   1.00000     0.00000
 Structure written by MMmdl.
 40 41  0  0  0  0  0  0  0  0  1 V2000
  145.9417  132.0284  151.3159 C   0  0  0  0  0  0  0  0  0  0  0  0
  144.7394  132.8470  151.2187 N   0  0  0  0  0  0  0  0  0  0  0  0
  143.4982  132.2608  150.7228 C   0  0  0  0  0  0  0  0  0  0  0  0
  144.7655  134.2014  151.6234 C   0  0  0  0  0  0  0  0  0  0  0  0
  143.5805  134.9748  151.6980 C   0  0  0  0  0  0  0  0  0  0  0  0
  143.6571  136.3207  152.1054 C   0  0  0  0  0  0  0  0  0  0  0  0
  144.9182  136.8664  152.4391 C   0  0  0  0  0  0  0  0  0  0  0  0
  145.1358  138.2110  152.8472 N   0  0  0  0  0  0  0  0  0  0  0  0
  146.1760  138.7314  153.5214 C   0  0  0  0  0  0  0  0  0  0  0  0
  147.1649  138.1071  153.9048 O   0  0  0  0  0  0  0  0  0  0  0  0
  146.0141  140.0475  153.7177 N   0  0  0  0  0  0  0  0  0  0  0  0
  146.9712  140.9122  154.3994 C   0  0  1  0  0  0  0  0  0  0  0  0
  147.2363  140.4124  155.7931 C   0  0  0  0  0  0  0  0  0  0  0  0
  148.5318  140.2230  156.0332 C   0  0  0  0  0  0  0  0  0  0  0  0
  149.4004  140.5508  154.8456 C   0  0  1  0  0  0  0  0  0  0  0  0
  150.3473  139.4020  154.4572 C   0  0  0  0  0  0  0  0  0  0  0  0
  149.6878  138.4753  153.6196 O   0  0  0  0  0  0  0  0  0  0  0  0
  148.3744  140.8997  153.7371 C   0  0  0  0  0  0  0  0  0  0  0  0
  146.0412  136.0240  152.3248 C   0  0  0  0  0  0  0  0  0  0  0  0
  145.9724  134.7346  151.9342 N   0  0  0  0  0  0  0  0  0  0  0  0
  146.5817  141.9292  154.4697 H   0  0  0  0  0  0  0  0  0  0  0  0
  149.9830  141.4392  155.0939 H   0  0  0  0  0  0  0  0  0  0  0  0
  146.2731  131.9550  152.3521 H   0  0  0  0  0  0  0  0  0  0  0  0
  146.7477  132.4584  150.7203 H   0  0  0  0  0  0  0  0  0  0  0  0
  145.7636  131.0167  150.9513 H   0  0  0  0  0  0  0  0  0  0  0  0
  143.1587  132.7818  149.8271 H   0  0  0  0  0  0  0  0  0  0  0  0
  142.7153  132.3254  151.4791 H   0  0  0  0  0  0  0  0  0  0  0  0
  143.6285  131.2090  150.4678 H   0  0  0  0  0  0  0  0  0  0  0  0
  142.6139  134.5660  151.4457 H   0  0  0  0  0  0  0  0  0  0  0  0
  142.7502  136.9031  152.1386 H   0  0  0  0  0  0  0  0  0  0  0  0
  144.4328  138.8697  152.5459 H   0  0  0  0  0  0  0  0  0  0  0  0
  145.1737  140.4838  153.3679 H   0  0  0  0  0  0  0  0  0  0  0  0
  146.4429  140.2507  156.5080 H   0  0  0  0  0  0  0  0  0  0  0  0
  148.9451  139.8843  156.9720 H   0  0  0  0  0  0  0  0  0  0  0  0
  151.2322  139.7826  153.9458 H   0  0  0  0  0  0  0  0  0  0  0  0
  150.6899  138.8775  155.3495 H   0  0  0  0  0  0  0  0  0  0  0  0
  149.6158  138.8498  152.7550 H   0  0  0  0  0  0  0  0  0  0  0  0
  148.4168  140.1611  152.9347 H   0  0  0  0  0  0  0  0  0  0  0  0
  148.6005  141.8650  153.2829 H   0  0  0  0  0  0  0  0  0  0  0  0
  147.0294  136.3934  152.5571 H   0  0  0  0  0  0  0  0  0  0  0  0
  1  2  1  0  0  0  0
  1 23  1  0  0  0  0
  1 24  1  0  0  0  0
  1 25  1  0  0  0  0
  2  3  1  0  0  0  0
  2  4  1  0  0  0  0
  3 26  1  0  0  0  0
  3 27  1  0  0  0  0
  3 28  1  0  0  0  0
  4 20  1  0  0  0  0
  4  5  2  0  0  0  0
  5  6  1  0  0  0  0
  5 29  1  0  0  0  0
  6  7  2  0  0  0  0
  6 30  1  0  0  0  0
  7  8  1  0  0  0  0
  7 19  1  0  0  0  0
  8  9  1  0  0  0  0
  8 31  1  0  0  0  0
  9 10  2  0  0  0  0
  9 11  1  0  0  0  0
 11 12  1  0  0  0  0
 11 32  1  0  0  0  0
 12 21  1  0  0  0  0
 12 18  1  0  0  0  0
 12 13  1  0  0  0  0
 13 14  2  0  0  0  0
 13 33  1  0  0  0  0
 14 15  1  0  0  0  0
 14 34  1  0  0  0  0
 15 22  1  0  0  0  0
 15 16  1  0  0  0  0
 15 18  1  0  0  0  0
 16 17  1  0  0  0  0
 16 35  1  0  0  0  0
 16 36  1  0  0  0  0
 17 37  1  0  0  0  0
 18 38  1  0  0  0  0
 18 39  1  0  0  0  0
 19 20  2  0  0  0  0
 19 40  1  0  0  0  0
M  END
> <s_m_source_file>
AV-unprocessed.smi

> <i_m_source_file_index>
876

> <i_lp_mmshare_version>
43012

> <i_f3d_flags>
0

> <s_epik_input>
W0NIM11OKFtDSDNdKWMxW2NIXVtjSF1jKFtjSF1uMSlbTkhdQyg9TylbTkhdW0NAQEhdMltDSF09W0NIXVtDQEBIXShbQ0gyXTIpW0NIMl1bT0hd

> <s_epik_cmdline>
J2VwaWtfcHl0aG9uJywgJy1waCcsICc3LjAnLCAnLXRuJywgJzgnLCAnLW1hJywgJzIwMCcsICctbWV0YWxfYmluZGluZycsICctaW1hZScsICc8aW5maWxlLm1hZT4nLCAnLW9tYWUnLCAnPG91dGZpbGUubWFlPic=

> <r_lp_tautomer_probability>
1

> <r_epik_Ionization_Penalty>
0.617998

> <r_epik_Ionization_Penalty_Charging>
0

> <r_epik_Ionization_Penalty_Neutral>
0.617998

> <r_epik_State_Penalty>
0.632637

> <r_epik_Charging_Adjusted_Penalty>
0.632637

> <i_epik_Tot_Q>
0

> <i_epik_Tot_abs_Q>
0

> <r_epik_Metal_State_Penalty>
0.305596

> <b_epik_Metal_Only>
0

> <s_lp_Force_Field>
OPLS_2005

> <r_lp_Energy>
21.5566

> <b_lp_Chiralities_Consistent>
1

> <s_lp_Variant>
AV-unprocessed.smi:876-8

> <Gold.Version>
5.8.1

> <Gold.Id.Protein>
6NUR|6NUR_protein|mol2

> <Gold.PLP.Fitness>
41.2482

> <Gold.PLP.PLP>
-30.0743

> <Gold.PLP.part.hbond>
-4.0895

> <Gold.PLP.part.metal>
0.0000

> <Gold.PLP.part.buried>
-0.5897

> <Gold.PLP.part.nonpolar>
-25.6963

> <Gold.PLP.part.repulsive>
0.2955

> <Gold.PLP.ligand.clash>
0.0000

> <Gold.PLP.ligand.torsion>
0.4241

> <Gold.PLP.Chemscore.Hbond>
3.0000

> <Gold.PLP.Chemscore.CHOScore>
1.0000

> <Gold.PLP.Chemscore.Metal>
0.0000

> <Gold.Chemscore.Hbonds>
donor molecule, donor type, donor heavy atom, donor atom, acceptor molecule, acceptor atom, score
      L1  H     8    31       P1 10175  1.00
      L1  H    11    32       P1 10175  1.00
      L1  H    17    37       P1  7957  1.00
      L1  C    19    40       P1  7948  1.00

> <Gold.PLP.Chemscore.Internal.Correction>
0.0221

> <Gold.Rescore>
     Score         DG    S(hbond)    S(metal)    S(lipo)     H(rot)  DE(clash)    DE(int)     intcor
     14.42     -18.11       2.84        0.00      66.35       1.80       0.09       3.61       ----

> <Gold.Chemscore.Fitness>
14.4181

> <Gold.Chemscore.DG>
-18.1130

> <Gold.Chemscore.ZeroCoef>
-5.4800

> <Gold.Chemscore.Hbond>
2.8362

> <Gold.Chemscore.Metal>
0.0000

> <Gold.Chemscore.Lipo>
66.3499

> <Gold.Chemscore.Internal_Hbond>
0.0000

> <Gold.Chemscore.DEClash>
0.0892

> <Gold.Chemscore.DEInternal>
3.6057

> <Gold.Chemscore.Rot>
1.7980

> <Gold.Chemscore.Internal.Correction>
   9.000000E+99

> <Gold.Chemscore.Hbonds>
donor molecule, donor type, donor heavy atom, donor atom, acceptor molecule, acceptor atom, score
      L1  H     8    31       P1 10175  0.98
      L1  H    11    32       P1 10175  0.96
      L1  H    17    37       P1  7957  0.86

> <Gold.Chemscore.Hbond.Weighted>
-9.4730

> <Gold.Chemscore.Metal.Weighted>
-0.0000

> <Gold.Chemscore.Lipo.Weighted>
-7.7629

> <Gold.Chemscore.Internal_Hbond.Weighted>
0.0000

> <Gold.Chemscore.DEClash.Weighted>
0.0892

> <Gold.Chemscore.DEInternal.Weighted>
3.6057

> <Gold.Chemscore.Rot.Weighted>
4.6029

> <Gold.Chemscore.Internal.Correction.Weighted>
   9.000000E+99

> <Gold.Protein.RotatedTorsions>
[ 6907 6896 6895 6894 ] final  128.48 input  -60.11 | X-H torsion
[ 7974 7965 7964 7962 ] final   23.12 input  175.53 | X-H torsion
[ 8008 7997 7996 7995 ] final -159.79 input   59.86 | X-H torsion
[ 10167 10162 10161 10158 ] final  107.64 input  -65.29 | X-H torsion
[ 10718 10713 10712 10709 ] final -157.08 input   66.30 | X-H torsion
[ 10763 10752 10751 10750 ] final -147.15 input  -60.55 | X-H torsion
[ 11005 11000 10999 10996 ] final -128.53 input  -57.11 | X-H torsion

> <Gold.Protein.ActiveResidues>
 VAL166  LYS551  ARG553  GLY616  TRP617  ASP618  TYR619  PRO620  LYS621  CYS622 
 ASP623  PHE694  ASN695  SER759  ASP760  ASP761  ALA762  ILE779  LEU786  VAL792 
 PHE793  MET794  SER795  GLU796  ALA797  LYS798  CYS799  TRP800  GLU811  SER814 

> <Gold.Protein.RotatedAtoms>
  152.3716  133.6426  159.6090 H   0  0  0  0  0  0  0  0  0  0  0  0  # atno 6907 bound_to 6896
  150.7672  133.9261  159.3421 H   0  0  0  0  0  0  0  0  0  0  0  0  # atno 6908 bound_to 6896
  151.7083  135.0918  160.0314 H   0  0  0  0  0  0  0  0  0  0  0  0  # atno 6909 bound_to 6896
  146.1999  139.7789  142.8770 H   0  0  0  0  0  0  0  0  0  0  0  0  # atno 7974 bound_to 7965
  155.7678  140.0848  157.2123 H   0  0  0  0  0  0  0  0  0  0  0  0  # atno 8008 bound_to 7997
  154.3998  140.1531  156.2963 H   0  0  0  0  0  0  0  0  0  0  0  0  # atno 8009 bound_to 7997
  155.8777  140.3422  155.5868 H   0  0  0  0  0  0  0  0  0  0  0  0  # atno 8010 bound_to 7997
  139.6911  144.7107  151.1347 H   0  0  0  0  0  0  0  0  0  0  0  0  # atno 10167 bound_to 10162
  156.5353  130.8539  151.2730 H   0  0  0  0  0  0  0  0  0  0  0  0  # atno 10718 bound_to 10713
  154.8300  135.3367  154.6774 H   0  0  0  0  0  0  0  0  0  0  0  0  # atno 10763 bound_to 10752
  153.7395  135.6947  153.4975 H   0  0  0  0  0  0  0  0  0  0  0  0  # atno 10764 bound_to 10752
  153.2254  135.4434  155.0488 H   0  0  0  0  0  0  0  0  0  0  0  0  # atno 10765 bound_to 10752
  140.9508  134.1067  157.4063 H   0  0  0  0  0  0  0  0  0  0  0  0  # atno 11005 bound_to 11000
  145.3521  141.0309  143.3333 LP  0  0  0  0  0  0  0  0  0  0  0  0  # atno 17320 bound_to 7965
  144.8659  139.5108  143.6790 LP  0  0  0  0  0  0  0  0  0  0  0  0  # atno 17321 bound_to 7965
  140.7683  143.5558  150.9153 LP  0  0  0  0  0  0  0  0  0  0  0  0  # atno 17342 bound_to 10162
  139.9236  143.6577  152.3091 LP  0  0  0  0  0  0  0  0  0  0  0  0  # atno 17343 bound_to 10162
  157.7415  130.9871  150.2448 LP  0  0  0  0  0  0  0  0  0  0  0  0  # atno 17370 bound_to 10713
  156.3022  130.3760  149.7740 LP  0  0  0  0  0  0  0  0  0  0  0  0  # atno 17371 bound_to 10713
  139.8847  135.0065  156.6386 LP  0  0  0  0  0  0  0  0  0  0  0  0  # atno 17394 bound_to 11000
  140.7604  133.8822  155.8414 LP  0  0  0  0  0  0  0  0  0  0  0  0  # atno 17395 bound_to 11000

$$$$
