AV-unprocessed.smi:1682|AV-procd|sdf|6746|dock4
  -GOLD-   22720 7503D 1   1.00000     0.00000
 Structure written by MMmdl.
 39 40  0  0  0  0  0  0  0  0  2 V2000
  150.8154  140.5089  154.7218 O   0  0  0  0  0  0  0  0  0  0  0  0
  149.9394  139.8652  155.3001 C   0  0  0  0  0  0  0  0  0  0  0  0
  149.3378  140.2867  156.4230 N   0  0  0  0  0  0  0  0  0  0  0  0
  149.6157  141.5490  157.1031 C   0  0  0  0  0  0  0  0  0  0  0  0
  151.1052  141.7313  157.4616 C   0  0  0  0  0  0  0  0  0  0  0  0
  151.3823  142.9553  158.3173 C   0  0  0  0  0  0  0  0  0  0  0  0
  152.1663  142.8901  159.4903 C   0  0  0  0  0  0  0  0  0  0  0  0
  152.3921  144.0661  160.2351 C   0  0  0  0  0  0  0  0  0  0  0  0
  151.8276  145.2809  159.7938 C   0  0  0  0  0  0  0  0  0  0  0  0
  151.0513  145.2888  158.6169 C   0  0  0  0  0  0  0  0  0  0  0  0
  150.8598  144.1412  157.9295 N   0  3  0  0  0  0  0  0  0  0  0  0
  149.4662  138.5171  154.7346 C   0  0  1  0  0  0  0  0  0  0  0  0
  150.6400  137.5278  154.5990 C   0  0  0  0  0  0  0  0  0  0  0  0
  150.3303  136.4452  155.6184 C   0  0  0  0  0  0  0  0  0  0  0  0
  151.1151  135.5351  155.8797 O   0  0  0  0  0  0  0  0  0  0  0  0
  149.1297  136.6374  156.1747 N   0  0  0  0  0  0  0  0  0  0  0  0
  148.5135  135.8139  157.2141 C   0  0  0  0  0  0  0  0  0  0  0  0
  148.4266  136.5409  158.5685 C   0  0  0  0  0  0  0  0  0  0  0  0
  148.0775  135.7046  159.5458 F   0  0  0  0  0  0  0  0  0  0  0  0
  149.6199  137.0559  158.8609 F   0  0  0  0  0  0  0  0  0  0  0  0
  147.5400  137.5344  158.5048 F   0  0  0  0  0  0  0  0  0  0  0  0
  148.4453  137.8095  155.6529 C   0  0  0  0  0  0  0  0  0  0  0  0
  148.6329  139.6916  156.8341 H   0  0  0  0  0  0  0  0  0  0  0  0
  149.3036  142.3520  156.4350 H   0  0  0  0  0  0  0  0  0  0  0  0
  148.9969  141.6353  157.9976 H   0  0  0  0  0  0  0  0  0  0  0  0
  151.4664  140.8447  157.9841 H   0  0  0  0  0  0  0  0  0  0  0  0
  151.6994  141.8005  156.5497 H   0  0  0  0  0  0  0  0  0  0  0  0
  152.5939  141.9518  159.8138 H   0  0  0  0  0  0  0  0  0  0  0  0
  152.9905  144.0363  161.1340 H   0  0  0  0  0  0  0  0  0  0  0  0
  151.9871  146.1929  160.3507 H   0  0  0  0  0  0  0  0  0  0  0  0
  150.5812  146.1713  158.2077 H   0  0  0  0  0  0  0  0  0  0  0  0
  149.0130  138.6830  153.7556 H   0  0  0  0  0  0  0  0  0  0  0  0
  150.6719  137.0889  153.6014 H   0  0  0  0  0  0  0  0  0  0  0  0
  151.6158  137.9720  154.8024 H   0  0  0  0  0  0  0  0  0  0  0  0
  147.5176  135.5060  156.8917 H   0  0  0  0  0  0  0  0  0  0  0  0
  149.0905  134.8954  157.3297 H   0  0  0  0  0  0  0  0  0  0  0  0
  148.0934  138.4432  156.4690 H   0  0  0  0  0  0  0  0  0  0  0  0
  147.5700  137.4930  155.0843 H   0  0  0  0  0  0  0  0  0  0  0  0
  150.2945  144.1705  157.0806 H   0  0  0  0  0  0  0  0  0  0  0  0
  1  2  2  0  0  0  0
  2  3  1  0  0  0  0
  2 12  1  0  0  0  0
  3  4  1  0  0  0  0
  3 23  1  0  0  0  0
  4  5  1  0  0  0  0
  4 24  1  0  0  0  0
  4 25  1  0  0  0  0
  5  6  1  0  0  0  0
  5 26  1  0  0  0  0
  5 27  1  0  0  0  0
  6 11  1  0  0  0  0
  6  7  2  0  0  0  0
  7  8  1  0  0  0  0
  7 28  1  0  0  0  0
  8  9  2  0  0  0  0
  8 29  1  0  0  0  0
  9 10  1  0  0  0  0
  9 30  1  0  0  0  0
 10 11  2  0  0  0  0
 10 31  1  0  0  0  0
 11 39  1  0  0  0  0
 12 22  1  0  0  0  0
 12 13  1  0  0  0  0
 12 32  1  0  0  0  0
 13 14  1  0  0  0  0
 13 33  1  0  0  0  0
 13 34  1  0  0  0  0
 14 15  2  0  0  0  0
 14 16  1  0  0  0  0
 16 17  1  0  0  0  0
 16 22  1  0  0  0  0
 17 18  1  0  0  0  0
 17 35  1  0  0  0  0
 17 36  1  0  0  0  0
 18 19  1  0  0  0  0
 18 20  1  0  0  0  0
 18 21  1  0  0  0  0
 22 37  1  0  0  0  0
 22 38  1  0  0  0  0
M  CHG  1  11   1
M  END
> <s_m_source_file>
AV-unprocessed.smi

> <i_m_source_file_index>
1682

> <i_lp_mmshare_version>
43012

> <i_f3d_flags>
0

> <s_epik_input>
RkMoRikoRilbQ0gyXU4oW0NIMl0xKUMoPU8pW0NIMl1bQ0BIXTFDKD1PKVtOSF1bQ0gyXVtDSDJdYzJbY0hdW2NIXVtjSF1bY0hdbjI=

> <s_epik_cmdline>
J2VwaWtfcHl0aG9uJywgJy1waCcsICc3LjAnLCAnLXRuJywgJzgnLCAnLW1hJywgJzIwMCcsICctbWV0YWxfYmluZGluZycsICctaW1hZScsICc8aW5maWxlLm1hZT4nLCAnLW9tYWUnLCAnPG91dGZpbGUubWFlPic=

> <r_epik_Ionization_Penalty>
1.88249

> <r_epik_Ionization_Penalty_Charging>
1.88249

> <r_epik_Ionization_Penalty_Neutral>
2.8664e-08

> <r_epik_State_Penalty>
2.00238

> <r_epik_Charging_Adjusted_Penalty>
3.88487

> <i_epik_Tot_Q>
1

> <i_epik_Tot_abs_Q>
1

> <r_epik_Metal_State_Penalty>
2.02677

> <b_epik_Metal_Only>
0

> <s_lp_Force_Field>
OPLS_2005

> <r_lp_Energy>
19.2524

> <b_lp_Chiralities_Consistent>
1

> <s_lp_Variant>
AV-unprocessed.smi:1682-4

> <Gold.Version>
5.8.1

> <Gold.Id.Protein>
6NUR|6NUR_protein|mol2

> <Gold.PLP.Fitness>
48.1661

> <Gold.PLP.PLP>
-36.9198

> <Gold.PLP.part.hbond>
-2.7875

> <Gold.PLP.part.metal>
0.0000

> <Gold.PLP.part.buried>
-5.5148

> <Gold.PLP.part.nonpolar>
-28.9650

> <Gold.PLP.part.repulsive>
0.2044

> <Gold.PLP.ligand.clash>
0.2406

> <Gold.PLP.ligand.torsion>
0.3240

> <Gold.PLP.Chemscore.Hbond>
4.0000

> <Gold.PLP.Chemscore.CHOScore>
0.0000

> <Gold.PLP.Chemscore.Metal>
0.0000

> <Gold.Chemscore.Hbonds>
donor molecule, donor type, donor heavy atom, donor atom, acceptor molecule, acceptor atom, score
      L1  H    11    39       P1  8028  1.92
      P1  H  7989  7998       L1     1  0.96
      P1  H 10752 10763       L1    15  0.70

> <Gold.PLP.Chemscore.Internal.Correction>
0.1348

> <Gold.Rescore>
     Score         DG    S(hbond)    S(metal)    S(lipo)     H(rot)  DE(clash)    DE(int)     intcor
     18.36     -19.94       2.90        0.00      88.81       2.19       0.23       1.35       ----

> <Gold.Chemscore.Fitness>
18.3606

> <Gold.Chemscore.DG>
-19.9420

> <Gold.Chemscore.ZeroCoef>
-5.4800

> <Gold.Chemscore.Hbond>
2.8998

> <Gold.Chemscore.Metal>
0.0000

> <Gold.Chemscore.Lipo>
88.8122

> <Gold.Chemscore.Internal_Hbond>
0.0000

> <Gold.Chemscore.DEClash>
0.2343

> <Gold.Chemscore.DEInternal>
1.3471

> <Gold.Chemscore.Rot>
2.1932

> <Gold.Chemscore.Internal.Correction>
   9.000000E+99

> <Gold.Chemscore.Hbonds>
donor molecule, donor type, donor heavy atom, donor atom, acceptor molecule, acceptor atom, score
      L1  H    11    39       P1  8028  0.81
      P1  H  7989  7998       L1     1  0.87
      P1  H 10752 10763       L1    15  0.65

> <Gold.Chemscore.Hbond.Weighted>
-9.6854

> <Gold.Chemscore.Metal.Weighted>
-0.0000

> <Gold.Chemscore.Lipo.Weighted>
-10.3910

> <Gold.Chemscore.Internal_Hbond.Weighted>
0.0000

> <Gold.Chemscore.DEClash.Weighted>
0.2343

> <Gold.Chemscore.DEInternal.Weighted>
1.3471

> <Gold.Chemscore.Rot.Weighted>
5.6145

> <Gold.Chemscore.Internal.Correction.Weighted>
   9.000000E+99

> <Gold.Protein.RotatedTorsions>
[ 6907 6896 6895 6894 ] final  149.67 input  -60.11 | X-H torsion
[ 7974 7965 7964 7962 ] final   21.62 input  175.53 | X-H torsion
[ 8008 7997 7996 7995 ] final  106.53 input   59.86 | X-H torsion
[ 10167 10162 10161 10158 ] final  -41.46 input  -65.29 | X-H torsion
[ 10718 10713 10712 10709 ] final  -85.76 input   66.30 | X-H torsion
[ 10763 10752 10751 10750 ] final   73.21 input  -60.55 | X-H torsion
[ 11005 11000 10999 10996 ] final -167.18 input  -57.11 | X-H torsion

> <Gold.Protein.ActiveResidues>
 VAL166  LYS551  ARG553  GLY616  TRP617  ASP618  TYR619  PRO620  LYS621  CYS622 
 ASP623  PHE694  ASN695  SER759  ASP760  ASP761  ALA762  ILE779  LEU786  VAL792 
 PHE793  MET794  SER795  GLU796  ALA797  LYS798  CYS799  TRP800  GLU811  SER814 

> <Gold.Protein.RotatedAtoms>
  152.1248  133.4374  159.4692 H   0  0  0  0  0  0  0  0  0  0  0  0  # atno 6907 bound_to 6896
  150.6874  134.2491  159.4512 H   0  0  0  0  0  0  0  0  0  0  0  0  # atno 6908 bound_to 6896
  152.0371  134.9733  160.0624 H   0  0  0  0  0  0  0  0  0  0  0  0  # atno 6909 bound_to 6896
  146.2064  139.8001  142.8723 H   0  0  0  0  0  0  0  0  0  0  0  0  # atno 7974 bound_to 7965
  156.1750  140.3111  155.9043 H   0  0  0  0  0  0  0  0  0  0  0  0  # atno 8008 bound_to 7997
  155.3506  140.0471  157.3063 H   0  0  0  0  0  0  0  0  0  0  0  0  # atno 8009 bound_to 7997
  154.5281  140.2221  155.8864 H   0  0  0  0  0  0  0  0  0  0  0  0  # atno 8010 bound_to 7997
  140.7002  143.3093  151.3070 H   0  0  0  0  0  0  0  0  0  0  0  0  # atno 10167 bound_to 10162
  155.9994  130.4742  150.4611 H   0  0  0  0  0  0  0  0  0  0  0  0  # atno 10718 bound_to 10713
  153.0507  135.5071  154.7860 H   0  0  0  0  0  0  0  0  0  0  0  0  # atno 10763 bound_to 10752
  154.6724  135.2955  154.9726 H   0  0  0  0  0  0  0  0  0  0  0  0  # atno 10764 bound_to 10752
  154.0539  135.6700  153.4856 H   0  0  0  0  0  0  0  0  0  0  0  0  # atno 10765 bound_to 10752
  140.5561  134.5380  157.5133 H   0  0  0  0  0  0  0  0  0  0  0  0  # atno 11005 bound_to 11000
  145.3305  141.0265  143.3449 LP  0  0  0  0  0  0  0  0  0  0  0  0  # atno 17320 bound_to 7965
  144.8802  139.4914  143.6726 LP  0  0  0  0  0  0  0  0  0  0  0  0  # atno 17321 bound_to 7965
  139.6510  144.0362  152.2626 LP  0  0  0  0  0  0  0  0  0  0  0  0  # atno 17342 bound_to 10162
  139.9898  144.6369  150.7824 LP  0  0  0  0  0  0  0  0  0  0  0  0  # atno 17343 bound_to 10162
  157.2635  131.0572  151.2305 LP  0  0  0  0  0  0  0  0  0  0  0  0  # atno 17370 bound_to 10713
  157.3411  130.7034  149.6382 LP  0  0  0  0  0  0  0  0  0  0  0  0  # atno 17371 bound_to 10713
  139.9431  134.7751  156.0629 LP  0  0  0  0  0  0  0  0  0  0  0  0  # atno 17394 bound_to 11000
  141.1142  133.6633  156.3054 LP  0  0  0  0  0  0  0  0  0  0  0  0  # atno 17395 bound_to 11000

$$$$
