AV-unprocessed.smi:3001|AV-procd|sdf|11431|dock7
  -GOLD-   2272016353D 1   1.00000     0.00000
 Structure written by MMmdl.
 41 42  0  0  0  0  0  0  0  0  1 V2000
  146.0058  140.2548  154.7906 C   0  0  0  0  0  0  0  0  0  0  0  0
  147.1668  140.3737  154.4314 C   0  0  0  0  0  0  0  0  0  0  0  0
  148.5616  140.5284  153.9918 C   0  0  0  0  0  0  0  0  0  0  0  0
  149.3124  139.2924  154.1444 N   0  0  0  0  0  0  0  0  0  0  0  0
  150.5248  139.1966  154.7144 C   0  0  0  0  0  0  0  0  0  0  0  0
  151.1184  140.1691  155.1789 O   0  0  0  0  0  0  0  0  0  0  0  0
  151.1880  137.8109  154.7853 C   0  0  0  0  0  0  0  0  0  0  0  0
  150.3497  136.7121  154.3051 N   0  0  0  0  0  0  0  0  0  0  0  0
  150.3787  135.4563  154.7740 C   0  0  0  0  0  0  0  0  0  0  0  0
  151.0783  135.0958  155.7207 O   0  0  0  0  0  0  0  0  0  0  0  0
  149.5809  134.6511  154.0546 N   0  0  0  0  0  0  0  0  0  0  0  0
  149.4885  133.2362  154.1479 C   0  0  0  0  0  0  0  0  0  0  0  0
  150.3047  132.5115  155.0491 C   0  0  0  0  0  0  0  0  0  0  0  0
  150.1350  131.1210  155.1652 C   0  0  0  0  0  0  0  0  0  0  0  0
  149.1409  130.5061  154.3855 C   0  0  0  0  0  0  0  0  0  0  0  0
  148.3487  131.1850  153.5313 N   0  0  0  0  0  0  0  0  0  0  0  0
  148.5109  132.5246  153.3959 C   0  0  0  0  0  0  0  0  0  0  0  0
  147.6716  133.1812  152.4662 N   0  0  0  0  0  0  0  0  0  0  0  0
  146.8271  134.2937  152.8889 C   0  0  0  0  0  0  0  0  0  0  0  0
  145.8122  134.4704  151.7631 C   0  0  0  0  0  0  0  0  0  0  0  0
  145.5762  133.0332  151.3098 C   0  0  0  0  0  0  0  0  0  0  0  0
  146.9407  132.3632  151.5019 C   0  0  0  0  0  0  0  0  0  0  0  0
  144.9901  140.1567  155.1026 H   0  0  0  0  0  0  0  0  0  0  0  0
  148.5583  140.8400  152.9465 H   0  0  0  0  0  0  0  0  0  0  0  0
  149.0203  141.3249  154.5791 H   0  0  0  0  0  0  0  0  0  0  0  0
  148.8898  138.4508  153.7809 H   0  0  0  0  0  0  0  0  0  0  0  0
  152.1300  137.8364  154.2349 H   0  0  0  0  0  0  0  0  0  0  0  0
  151.4449  137.6080  155.8251 H   0  0  0  0  0  0  0  0  0  0  0  0
  149.7389  136.9155  153.5277 H   0  0  0  0  0  0  0  0  0  0  0  0
  149.1349  135.0652  153.2490 H   0  0  0  0  0  0  0  0  0  0  0  0
  151.0412  133.0074  155.6638 H   0  0  0  0  0  0  0  0  0  0  0  0
  150.7435  130.5427  155.8446 H   0  0  0  0  0  0  0  0  0  0  0  0
  148.9738  129.4412  154.4519 H   0  0  0  0  0  0  0  0  0  0  0  0
  146.3028  134.0522  153.8142 H   0  0  0  0  0  0  0  0  0  0  0  0
  147.4135  135.1982  153.0520 H   0  0  0  0  0  0  0  0  0  0  0  0
  144.9003  134.9723  152.0872 H   0  0  0  0  0  0  0  0  0  0  0  0
  146.2512  135.0507  150.9503 H   0  0  0  0  0  0  0  0  0  0  0  0
  144.8404  132.5600  151.9616 H   0  0  0  0  0  0  0  0  0  0  0  0
  145.2110  132.9631  150.2848 H   0  0  0  0  0  0  0  0  0  0  0  0
  147.4870  132.3596  150.5584 H   0  0  0  0  0  0  0  0  0  0  0  0
  146.8332  131.3298  151.8345 H   0  0  0  0  0  0  0  0  0  0  0  0
  1  2  3  0  0  0  0
  1 23  1  0  0  0  0
  2  3  1  0  0  0  0
  3  4  1  0  0  0  0
  3 24  1  0  0  0  0
  3 25  1  0  0  0  0
  4  5  1  0  0  0  0
  4 26  1  0  0  0  0
  5  6  2  0  0  0  0
  5  7  1  0  0  0  0
  7  8  1  0  0  0  0
  7 27  1  0  0  0  0
  7 28  1  0  0  0  0
  8  9  1  0  0  0  0
  8 29  1  0  0  0  0
  9 10  2  0  0  0  0
  9 11  1  0  0  0  0
 11 12  1  0  0  0  0
 11 30  1  0  0  0  0
 12 17  1  0  0  0  0
 12 13  2  0  0  0  0
 13 14  1  0  0  0  0
 13 31  1  0  0  0  0
 14 15  2  0  0  0  0
 14 32  1  0  0  0  0
 15 16  1  0  0  0  0
 15 33  1  0  0  0  0
 16 17  2  0  0  0  0
 17 18  1  0  0  0  0
 18 22  1  0  0  0  0
 18 19  1  0  0  0  0
 19 20  1  0  0  0  0
 19 34  1  0  0  0  0
 19 35  1  0  0  0  0
 20 21  1  0  0  0  0
 20 36  1  0  0  0  0
 20 37  1  0  0  0  0
 21 22  1  0  0  0  0
 21 38  1  0  0  0  0
 21 39  1  0  0  0  0
 22 40  1  0  0  0  0
 22 41  1  0  0  0  0
M  END
> <s_m_source_file>
AV-unprocessed.smi

> <i_m_source_file_index>
3001

> <i_lp_mmshare_version>
43012

> <i_f3d_flags>
0

> <s_epik_input>
W0NIXSNDW0NIMl1bTkhdQyg9TylbQ0gyXVtOSF1DKD1PKVtOSF1jMVtjSF1bY0hdW2NIXW5jMU4yW0NIMl1bQ0gyXVtDSDJdW0NIMl0y

> <s_epik_cmdline>
J2VwaWtfcHl0aG9uJywgJy1waCcsICc3LjAnLCAnLXRuJywgJzgnLCAnLW1hJywgJzIwMCcsICctbWV0YWxfYmluZGluZycsICctaW1hZScsICc8aW5maWxlLm1hZT4nLCAnLW9tYWUnLCAnPG91dGZpbGUubWFlPic=

> <r_lp_tautomer_probability>
1

> <r_epik_Ionization_Penalty>
0.243831

> <r_epik_Ionization_Penalty_Charging>
0

> <r_epik_Ionization_Penalty_Neutral>
0.243831

> <r_epik_State_Penalty>
0.234327

> <r_epik_Charging_Adjusted_Penalty>
0.234327

> <i_epik_Tot_Q>
0

> <i_epik_Tot_abs_Q>
0

> <r_epik_Metal_State_Penalty>
0.165313

> <b_epik_Metal_Only>
0

> <s_lp_Force_Field>
OPLS_2005

> <r_lp_Energy>
26.7815

> <b_lp_Chiralities_Consistent>
1

> <s_lp_Variant>
AV-unprocessed.smi:3001-1

> <Gold.Version>
5.8.1

> <Gold.Id.Protein>
6NUR|6NUR_protein|mol2

> <Gold.PLP.Fitness>
46.2060

> <Gold.PLP.PLP>
-35.2784

> <Gold.PLP.part.hbond>
-5.9603

> <Gold.PLP.part.metal>
0.0000

> <Gold.PLP.part.buried>
-1.1662

> <Gold.PLP.part.nonpolar>
-28.5949

> <Gold.PLP.part.repulsive>
0.5430

> <Gold.PLP.ligand.clash>
0.0000

> <Gold.PLP.ligand.torsion>
0.4738

> <Gold.PLP.Chemscore.Hbond>
3.8400

> <Gold.PLP.Chemscore.CHOScore>
0.0000

> <Gold.PLP.Chemscore.Metal>
0.0000

> <Gold.Chemscore.Hbonds>
donor molecule, donor type, donor heavy atom, donor atom, acceptor molecule, acceptor atom, score
      L1  H     8    29       P1  7948  0.90
      L1  H    11    30       P1  7948  0.85
      P1  H  7989  7998       L1     6  0.80
      P1  H 10752 10764       L1    10  0.66

> <Gold.PLP.Chemscore.Internal.Correction>
0.3552

> <Gold.Rescore>
     Score         DG    S(hbond)    S(metal)    S(lipo)     H(rot)  DE(clash)    DE(int)     intcor
     13.79     -16.56       2.80        0.00      54.70       1.82       0.05       2.73       ----

> <Gold.Chemscore.Fitness>
13.7867

> <Gold.Chemscore.DG>
-16.5621

> <Gold.Chemscore.ZeroCoef>
-5.4800

> <Gold.Chemscore.Hbond>
2.7996

> <Gold.Chemscore.Metal>
0.0000

> <Gold.Chemscore.Lipo>
54.7020

> <Gold.Chemscore.Internal_Hbond>
0.0000

> <Gold.Chemscore.DEClash>
0.0451

> <Gold.Chemscore.DEInternal>
2.7304

> <Gold.Chemscore.Rot>
1.8236

> <Gold.Chemscore.Internal.Correction>
   9.000000E+99

> <Gold.Chemscore.Hbonds>
donor molecule, donor type, donor heavy atom, donor atom, acceptor molecule, acceptor atom, score
      L1  H     8    29       P1  7948  0.53
      L1  H    11    30       P1  7948  0.14
      P1  H  7989  7998       L1     6  0.12
      P1  H 10752 10764       L1    10  0.14

> <Gold.Chemscore.Hbond.Weighted>
-9.3505

> <Gold.Chemscore.Metal.Weighted>
-0.0000

> <Gold.Chemscore.Lipo.Weighted>
-6.4001

> <Gold.Chemscore.Internal_Hbond.Weighted>
0.0000

> <Gold.Chemscore.DEClash.Weighted>
0.0451

> <Gold.Chemscore.DEInternal.Weighted>
2.7304

> <Gold.Chemscore.Rot.Weighted>
4.6685

> <Gold.Chemscore.Internal.Correction.Weighted>
   9.000000E+99

> <Gold.Protein.RotatedTorsions>
[ 6907 6896 6895 6894 ] final   72.36 input  -60.11 | X-H torsion
[ 7974 7965 7964 7962 ] final  128.25 input  175.53 | X-H torsion
[ 8008 7997 7996 7995 ] final  -63.65 input   59.86 | X-H torsion
[ 10167 10162 10161 10158 ] final  -58.33 input  -65.29 | X-H torsion
[ 10718 10713 10712 10709 ] final  169.20 input   66.30 | X-H torsion
[ 10763 10752 10751 10750 ] final  -41.13 input  -60.55 | X-H torsion
[ 11005 11000 10999 10996 ] final  -63.18 input  -57.11 | X-H torsion

> <Gold.Protein.ActiveResidues>
 VAL166  LYS551  ARG553  GLY616  TRP617  ASP618  TYR619  PRO620  LYS621  CYS622 
 ASP623  PHE694  ASN695  SER759  ASP760  ASP761  ALA762  ILE779  LEU786  VAL792 
 PHE793  MET794  SER795  GLU796  ALA797  LYS798  CYS799  TRP800  GLU811  SER814 

> <Gold.Protein.RotatedAtoms>
  152.4863  134.4583  159.9596 H   0  0  0  0  0  0  0  0  0  0  0  0  # atno 6907 bound_to 6896
  151.4579  133.3594  159.2812 H   0  0  0  0  0  0  0  0  0  0  0  0  # atno 6908 bound_to 6896
  150.8977  134.8411  159.7398 H   0  0  0  0  0  0  0  0  0  0  0  0  # atno 6909 bound_to 6896
  145.0416  139.3958  143.5099 H   0  0  0  0  0  0  0  0  0  0  0  0  # atno 7974 bound_to 7965
  154.4566  140.0970  156.6776 H   0  0  0  0  0  0  0  0  0  0  0  0  # atno 8008 bound_to 7997
  155.5118  140.3476  155.4371 H   0  0  0  0  0  0  0  0  0  0  0  0  # atno 8009 bound_to 7997
  156.0790  140.1368  156.9724 H   0  0  0  0  0  0  0  0  0  0  0  0  # atno 8010 bound_to 7997
  140.6204  143.2417  151.5495 H   0  0  0  0  0  0  0  0  0  0  0  0  # atno 10167 bound_to 10162
  157.0261  131.0246  151.2759 H   0  0  0  0  0  0  0  0  0  0  0  0  # atno 10718 bound_to 10713
  153.9574  135.6743  153.4744 H   0  0  0  0  0  0  0  0  0  0  0  0  # atno 10763 bound_to 10752
  153.0855  135.4901  154.8584 H   0  0  0  0  0  0  0  0  0  0  0  0  # atno 10764 bound_to 10752
  154.7292  135.3134  154.8880 H   0  0  0  0  0  0  0  0  0  0  0  0  # atno 10765 bound_to 10752
  141.1384  133.6649  156.5640 H   0  0  0  0  0  0  0  0  0  0  0  0  # atno 11005 bound_to 11000
  146.3510  140.0020  142.8675 LP  0  0  0  0  0  0  0  0  0  0  0  0  # atno 17320 bound_to 7965
  145.1640  140.9687  143.4360 LP  0  0  0  0  0  0  0  0  0  0  0  0  # atno 17321 bound_to 7965
  139.5433  144.2587  152.1394 LP  0  0  0  0  0  0  0  0  0  0  0  0  # atno 17342 bound_to 10162
  140.1806  144.4848  150.6530 LP  0  0  0  0  0  0  0  0  0  0  0  0  # atno 17343 bound_to 10162
  157.5213  130.8000  149.7812 LP  0  0  0  0  0  0  0  0  0  0  0  0  # atno 17370 bound_to 10713
  156.0085  130.3844  150.2345 LP  0  0  0  0  0  0  0  0  0  0  0  0  # atno 17371 bound_to 10713
  140.3965  134.7394  157.4754 LP  0  0  0  0  0  0  0  0  0  0  0  0  # atno 17394 bound_to 11000
  140.0527  134.6107  155.8842 LP  0  0  0  0  0  0  0  0  0  0  0  0  # atno 17395 bound_to 11000

$$$$
