AV-unprocessed.smi:249|AV-procd|sdf|1916|dock2
  -GOLD-   2262021 13D 1   1.00000     0.00000
 Structure written by MMmdl.
 64 67  0  0  0  0  0  0  0  0  2 V2000
  144.9770  136.1684  151.4894 C   0  0  0  0  0  0  0  0  0  0  0  0
  144.3674  135.3584  150.3348 C   0  0  0  0  0  0  0  0  0  0  0  0
  143.6439  134.1357  150.7932 N   0  3  2  0  0  0  0  0  0  0  0  0
  143.6930  133.9163  152.2668 C   0  0  0  0  0  0  0  0  0  0  0  0
  145.0802  133.4345  152.7331 C   0  0  0  0  0  0  0  0  0  0  0  0
  145.4991  132.1586  151.9765 C   0  0  2  0  0  0  0  0  0  0  0  0
  146.8145  131.6618  152.3962 N   0  0  0  0  0  0  0  0  0  0  0  0
  147.6558  132.4765  153.2729 C   0  0  0  0  0  0  0  0  0  0  0  0
  146.8985  130.3155  152.5541 C   0  0  0  0  0  0  0  0  0  0  0  0
  145.8983  129.5191  152.0905 N   0  0  0  0  0  0  0  0  0  0  0  0
  145.9781  128.1915  152.2196 C   0  0  0  0  0  0  0  0  0  0  0  0
  146.9536  127.4641  152.7662 N   0  0  0  0  0  0  0  0  0  0  0  0
  147.9584  128.2563  153.2371 C   0  0  0  0  0  0  0  0  0  0  0  0
  148.0073  129.6777  153.1789 C   0  0  0  0  0  0  0  0  0  0  0  0
  149.1742  130.1361  153.7798 N   0  0  0  0  0  0  0  0  0  0  0  0
  149.7846  129.0479  154.1621 C   0  0  0  0  0  0  0  0  0  0  0  0
  149.1380  127.8725  153.8519 N   0  0  0  0  0  0  0  0  0  0  0  0
  149.5931  126.5285  154.1616 C   0  0  0  0  0  0  0  0  0  0  0  0
  148.8433  125.3892  153.4149 C   0  0  2  0  0  0  0  0  0  0  0  0
  149.0668  124.0581  154.1736 C   0  0  0  0  0  0  0  0  0  0  0  0
  150.4309  123.6899  154.1797 O   0  0  0  0  0  0  0  0  0  0  0  0
  149.2438  125.2570  151.9140 C   0  0  2  0  0  0  0  0  0  0  0  0
  149.0115  126.4869  151.0467 C   0  0  0  0  0  0  0  0  0  0  0  0
  149.0078  125.9197  149.6312 C   0  0  0  0  0  0  0  0  0  0  0  0
  148.5523  124.5792  149.7479 O   0  0  0  0  0  0  0  0  0  0  0  0
  148.4168  124.2356  151.1210 C   0  0  0  0  0  0  0  0  0  0  0  0
  145.4042  132.3803  150.4544 C   0  0  0  0  0  0  0  0  0  0  0  0
  143.9962  132.8774  150.0657 C   0  0  2  0  0  0  0  0  0  0  0  0
  143.8025  132.9702  148.5415 C   0  0  0  0  0  0  0  0  0  0  0  0
  145.3546  137.1242  151.1251 H   0  0  0  0  0  0  0  0  0  0  0  0
  145.8170  135.6547  151.9557 H   0  0  0  0  0  0  0  0  0  0  0  0
  144.2354  136.3809  152.2601 H   0  0  0  0  0  0  0  0  0  0  0  0
  143.6751  136.0261  149.8260 H   0  0  0  0  0  0  0  0  0  0  0  0
  145.1377  135.1072  149.6061 H   0  0  0  0  0  0  0  0  0  0  0  0
  143.3961  134.8097  152.8132 H   0  0  0  0  0  0  0  0  0  0  0  0
  142.9485  133.1616  152.5246 H   0  0  0  0  0  0  0  0  0  0  0  0
  145.8155  134.2263  152.5897 H   0  0  0  0  0  0  0  0  0  0  0  0
  145.0524  133.2376  153.8055 H   0  0  0  0  0  0  0  0  0  0  0  0
  144.7526  131.4022  152.2166 H   0  0  0  0  0  0  0  0  0  0  0  0
  148.6550  132.0473  153.3569 H   0  0  0  0  0  0  0  0  0  0  0  0
  147.2294  132.5443  154.2741 H   0  0  0  0  0  0  0  0  0  0  0  0
  147.7736  133.4862  152.8827 H   0  0  0  0  0  0  0  0  0  0  0  0
  145.1429  127.6317  151.8250 H   0  0  0  0  0  0  0  0  0  0  0  0
  150.7370  129.0727  154.6713 H   0  0  0  0  0  0  0  0  0  0  0  0
  150.6610  126.4667  153.9487 H   0  0  0  0  0  0  0  0  0  0  0  0
  149.4931  126.4092  155.2407 H   0  0  0  0  0  0  0  0  0  0  0  0
  147.7730  125.5954  153.4503 H   0  0  0  0  0  0  0  0  0  0  0  0
  148.7673  124.1360  155.2176 H   0  0  0  0  0  0  0  0  0  0  0  0
  148.4771  123.2552  153.7301 H   0  0  0  0  0  0  0  0  0  0  0  0
  150.5887  123.1310  154.9252 H   0  0  0  0  0  0  0  0  0  0  0  0
  150.2953  124.9744  151.8441 H   0  0  0  0  0  0  0  0  0  0  0  0
  148.0420  126.9338  151.2721 H   0  0  0  0  0  0  0  0  0  0  0  0
  149.7751  127.2543  151.1552 H   0  0  0  0  0  0  0  0  0  0  0  0
  148.3762  126.4977  148.9562 H   0  0  0  0  0  0  0  0  0  0  0  0
  150.0188  125.9067  149.2223 H   0  0  0  0  0  0  0  0  0  0  0  0
  148.7414  123.2085  151.2891 H   0  0  0  0  0  0  0  0  0  0  0  0
  147.3609  124.3052  151.3872 H   0  0  0  0  0  0  0  0  0  0  0  0
  146.1514  133.0966  150.1143 H   0  0  0  0  0  0  0  0  0  0  0  0
  145.6196  131.4435  149.9389 H   0  0  0  0  0  0  0  0  0  0  0  0
  143.2812  132.1262  150.4058 H   0  0  0  0  0  0  0  0  0  0  0  0
  143.8632  131.9805  148.0879 H   0  0  0  0  0  0  0  0  0  0  0  0
  144.5672  133.5825  148.0636 H   0  0  0  0  0  0  0  0  0  0  0  0
  142.8257  133.3846  148.2903 H   0  0  0  0  0  0  0  0  0  0  0  0
  142.6734  134.3096  150.5739 H   0  0  0  0  0  0  0  0  0  0  0  0
  1  2  1  0  0  0  0
  1 30  1  0  0  0  0
  1 31  1  0  0  0  0
  1 32  1  0  0  0  0
  2  3  1  0  0  0  0
  2 33  1  0  0  0  0
  2 34  1  0  0  0  0
  3 28  1  0  0  0  0
  3  4  1  0  0  0  0
  3 64  1  0  0  0  0
  4  5  1  0  0  0  0
  4 35  1  0  0  0  0
  4 36  1  0  0  0  0
  5  6  1  0  0  0  0
  5 37  1  0  0  0  0
  5 38  1  0  0  0  0
  6  7  1  0  0  0  0
  6 27  1  0  0  0  0
  6 39  1  0  0  0  0
  7  8  1  0  0  0  0
  7  9  1  0  0  0  0
  8 40  1  0  0  0  0
  8 41  1  0  0  0  0
  8 42  1  0  0  0  0
  9 14  1  0  0  0  0
  9 10  2  0  0  0  0
 10 11  1  0  0  0  0
 11 12  2  0  0  0  0
 11 43  1  0  0  0  0
 12 13  1  0  0  0  0
 13 17  1  0  0  0  0
 13 14  2  0  0  0  0
 14 15  1  0  0  0  0
 15 16  2  0  0  0  0
 16 17  1  0  0  0  0
 16 44  1  0  0  0  0
 17 18  1  0  0  0  0
 18 19  1  0  0  0  0
 18 45  1  0  0  0  0
 18 46  1  0  0  0  0
 19 20  1  0  0  0  0
 19 22  1  0  0  0  0
 19 47  1  0  0  0  0
 20 21  1  0  0  0  0
 20 48  1  0  0  0  0
 20 49  1  0  0  0  0
 21 50  1  0  0  0  0
 22 26  1  0  0  0  0
 22 23  1  0  0  0  0
 22 51  1  0  0  0  0
 23 24  1  0  0  0  0
 23 52  1  0  0  0  0
 23 53  1  0  0  0  0
 24 25  1  0  0  0  0
 24 54  1  0  0  0  0
 24 55  1  0  0  0  0
 25 26  1  0  0  0  0
 26 56  1  0  0  0  0
 26 57  1  0  0  0  0
 27 28  1  0  0  0  0
 27 58  1  0  0  0  0
 27 59  1  0  0  0  0
 28 29  1  0  0  0  0
 28 60  1  0  0  0  0
 29 61  1  0  0  0  0
 29 62  1  0  0  0  0
 29 63  1  0  0  0  0
M  CHG  1   3   1
M  END
> <s_m_source_file>
AV-unprocessed.smi

> <i_m_source_file_index>
249

> <i_lp_mmshare_version>
43012

> <i_f3d_flags>
0

> <s_epik_input>
W0NIM11bQ0gyXU4xW0NIMl1bQ0gyXVtDQEhdKFtDSDJdW0NASF0xW0NIM10pTihbQ0gzXSljKG5bY0hdbjIpYyhjMjMpbltjSF1uM1tDSDJdW0NASF0oW0NIMl1bT0hdKVtDQEBIXTRbQ0gyXVtDSDJdT1tDSDJdNA==

> <s_epik_cmdline>
J2VwaWtfcHl0aG9uJywgJy1waCcsICc3LjAnLCAnLXRuJywgJzgnLCAnLW1hJywgJzIwMCcsICctbWV0YWxfYmluZGluZycsICctaW1hZScsICc8aW5maWxlLm1hZT4nLCAnLW9tYWUnLCAnPG91dGZpbGUubWFlPic=

> <r_lp_tautomer_probability>
1

> <r_epik_Ionization_Penalty>
0.00294688

> <r_epik_Ionization_Penalty_Charging>
0.00169971

> <r_epik_Ionization_Penalty_Neutral>
0.00124717

> <r_epik_State_Penalty>
-0

> <r_epik_Charging_Adjusted_Penalty>
0.00169971

> <i_epik_Tot_Q>
1

> <i_epik_Tot_abs_Q>
1

> <r_epik_Metal_State_Penalty>
-0

> <b_epik_Metal_Only>
0

> <s_lp_Force_Field>
OPLS_2005

> <r_lp_Energy>
55.1027

> <b_lp_Chiralities_Consistent>
1

> <s_lp_Variant>
AV-unprocessed.smi:249-19

> <Gold.Version>
5.8.1

> <Gold.Id.Protein>
6NUR|6NUR_protein|mol2

> <Gold.PLP.Fitness>
48.4988

> <Gold.PLP.PLP>
-45.8212

> <Gold.PLP.part.hbond>
-1.0000

> <Gold.PLP.part.metal>
0.0000

> <Gold.PLP.part.buried>
-4.0808

> <Gold.PLP.part.nonpolar>
-40.5152

> <Gold.PLP.part.repulsive>
0.3212

> <Gold.PLP.ligand.clash>
1.5721

> <Gold.PLP.ligand.torsion>
1.5133

> <Gold.PLP.Chemscore.Hbond>
2.0000

> <Gold.PLP.Chemscore.CHOScore>
0.0000

> <Gold.PLP.Chemscore.Metal>
0.0000

> <Gold.Chemscore.Hbonds>
donor molecule, donor type, donor heavy atom, donor atom, acceptor molecule, acceptor atom, score
      L1  H     3    64       P1 10186  2.00

> <Gold.PLP.Chemscore.Internal.Correction>
1.2763

> <Gold.Rescore>
     Score         DG    S(hbond)    S(metal)    S(lipo)     H(rot)  DE(clash)    DE(int)     intcor
      7.95     -13.81       0.94        0.00     102.26       2.65       0.54       5.31       ----

> <Gold.Chemscore.Fitness>
7.9527

> <Gold.Chemscore.DG>
-13.8068

> <Gold.Chemscore.ZeroCoef>
-5.4800

> <Gold.Chemscore.Hbond>
0.9432

> <Gold.Chemscore.Metal>
0.0000

> <Gold.Chemscore.Lipo>
102.2598

> <Gold.Chemscore.Internal_Hbond>
0.0000

> <Gold.Chemscore.DEClash>
0.5437

> <Gold.Chemscore.DEInternal>
5.3104

> <Gold.Chemscore.Rot>
2.6515

> <Gold.Chemscore.Internal.Correction>
   9.000000E+99

> <Gold.Chemscore.Hbonds>
donor molecule, donor type, donor heavy atom, donor atom, acceptor molecule, acceptor atom, score
      L1  H     3    64       P1 10186  0.54

> <Gold.Chemscore.Hbond.Weighted>
-3.1503

> <Gold.Chemscore.Metal.Weighted>
-0.0000

> <Gold.Chemscore.Lipo.Weighted>
-11.9644

> <Gold.Chemscore.Internal_Hbond.Weighted>
0.0000

> <Gold.Chemscore.DEClash.Weighted>
0.5437

> <Gold.Chemscore.DEInternal.Weighted>
5.3104

> <Gold.Chemscore.Rot.Weighted>
6.7880

> <Gold.Chemscore.Internal.Correction.Weighted>
   9.000000E+99

> <Gold.Protein.RotatedTorsions>
[ 6907 6896 6895 6894 ] final  105.09 input  -60.11 | X-H torsion
[ 7974 7965 7964 7962 ] final -152.46 input  175.53 | X-H torsion
[ 8008 7997 7996 7995 ] final -121.60 input   59.86 | X-H torsion
[ 10167 10162 10161 10158 ] final -145.03 input  -65.29 | X-H torsion
[ 10718 10713 10712 10709 ] final  -39.57 input   66.30 | X-H torsion
[ 10763 10752 10751 10750 ] final -176.43 input  -60.55 | X-H torsion
[ 11005 11000 10999 10996 ] final  171.49 input  -57.11 | X-H torsion

> <Gold.Protein.ActiveResidues>
 VAL166  LYS551  ARG553  GLY616  TRP617  ASP618  TYR619  PRO620  LYS621  CYS622 
 ASP623  PHE694  ASN695  SER759  ASP760  ASP761  ALA762  ILE779  LEU786  VAL792 
 PHE793  MET794  SER795  GLU796  ALA797  LYS798  CYS799  TRP800  GLU811  SER814 

> <Gold.Protein.RotatedAtoms>
  152.5242  133.9579  159.7702 H   0  0  0  0  0  0  0  0  0  0  0  0  # atno 6907 bound_to 6896
  150.9876  133.6174  159.2720 H   0  0  0  0  0  0  0  0  0  0  0  0  # atno 6908 bound_to 6896
  151.3329  135.0852  159.9398 H   0  0  0  0  0  0  0  0  0  0  0  0  # atno 6909 bound_to 6896
  144.7793  140.4659  143.5851 H   0  0  0  0  0  0  0  0  0  0  0  0  # atno 7974 bound_to 7965
  155.1507  140.0404  157.2820 H   0  0  0  0  0  0  0  0  0  0  0  0  # atno 8008 bound_to 7997
  154.6406  140.2546  155.7299 H   0  0  0  0  0  0  0  0  0  0  0  0  # atno 8009 bound_to 7997
  156.2530  140.2856  156.0798 H   0  0  0  0  0  0  0  0  0  0  0  0  # atno 8010 bound_to 7997
  139.7843  143.8056  152.2642 H   0  0  0  0  0  0  0  0  0  0  0  0  # atno 10167 bound_to 10162
  156.2910  130.4228  149.8239 H   0  0  0  0  0  0  0  0  0  0  0  0  # atno 10718 bound_to 10713
  154.5724  135.2829  155.0814 H   0  0  0  0  0  0  0  0  0  0  0  0  # atno 10763 bound_to 10752
  154.2181  135.6396  153.5140 H   0  0  0  0  0  0  0  0  0  0  0  0  # atno 10764 bound_to 10752
  153.0062  135.5508  154.6352 H   0  0  0  0  0  0  0  0  0  0  0  0  # atno 10765 bound_to 10752
  140.3196  134.7449  157.4053 H   0  0  0  0  0  0  0  0  0  0  0  0  # atno 11005 bound_to 11000
  145.6095  139.1512  143.3083 LP  0  0  0  0  0  0  0  0  0  0  0  0  # atno 17320 bound_to 7965
  146.1992  140.6212  142.9110 LP  0  0  0  0  0  0  0  0  0  0  0  0  # atno 17321 bound_to 7965
  139.8128  144.7328  150.9674 LP  0  0  0  0  0  0  0  0  0  0  0  0  # atno 17342 bound_to 10162
  140.7819  143.4234  151.0806 LP  0  0  0  0  0  0  0  0  0  0  0  0  # atno 17343 bound_to 10162
  156.5652  130.8400  151.3340 LP  0  0  0  0  0  0  0  0  0  0  0  0  # atno 17370 bound_to 10713
  157.7342  130.9743  150.2018 LP  0  0  0  0  0  0  0  0  0  0  0  0  # atno 17371 bound_to 10713
  140.0954  134.5545  155.8404 LP  0  0  0  0  0  0  0  0  0  0  0  0  # atno 17394 bound_to 11000
  141.2090  133.6679  156.6407 LP  0  0  0  0  0  0  0  0  0  0  0  0  # atno 17395 bound_to 11000

$$$$
