AV-unprocessed.smi:2538|AV-procd|sdf|9981|dock6
  -GOLD-   2272014 23D 1   1.00000     0.00000
 Structure written by MMmdl.
 48 49  0  0  0  0  0  0  0  0  1 V2000
  151.7334  144.0725  159.3673 C   0  0  0  0  0  0  0  0  0  0  0  0
  152.5201  142.9209  159.9682 C   0  0  0  0  0  0  0  0  0  0  0  0
  152.9849  141.8905  159.1201 C   0  0  0  0  0  0  0  0  0  0  0  0
  153.7194  140.8016  159.6386 C   0  0  0  0  0  0  0  0  0  0  0  0
  154.2632  139.6989  159.0021 N   0  0  0  0  0  0  0  0  0  0  0  0
  154.8232  139.0513  160.0197 C   0  0  0  0  0  0  0  0  0  0  0  0
  154.7071  139.6059  161.2416 N   0  0  0  0  0  0  0  0  0  0  0  0
  155.2321  139.0928  162.4940 C   0  0  0  0  0  0  0  0  0  0  0  0
  155.9358  140.1841  163.3236 C   0  0  2  0  0  0  0  0  0  0  0  0
  157.3224  140.1193  163.0524 O   0  0  0  0  0  0  0  0  0  0  0  0
  155.7161  139.9876  164.8392 C   0  0  0  0  0  0  0  0  0  0  0  0
  155.4288  141.2461  165.5541 N   0  0  0  0  0  0  0  0  0  0  0  0
  154.8013  142.3098  164.7587 C   0  0  0  0  0  0  0  0  0  0  0  0
  156.3543  141.6915  166.9555 S   0  0  0  0  0  0  0  0  0  0  0  0
  157.0504  140.4772  167.4095 O   0  0  0  0  0  0  0  0  0  0  0  0
  157.1335  142.8907  166.6093 O   0  0  0  0  0  0  0  0  0  0  0  0
  155.0624  142.1398  168.2159 C   0  0  0  0  0  0  0  0  0  0  0  0
  155.1230  143.6388  168.5426 C   0  0  0  0  0  0  0  0  0  0  0  0
  155.2151  141.2823  169.4804 C   0  0  0  0  0  0  0  0  0  0  0  0
  153.9775  140.7717  161.0400 C   0  0  0  0  0  0  0  0  0  0  0  0
  153.5204  141.7905  161.8945 C   0  0  0  0  0  0  0  0  0  0  0  0
  152.7896  142.8721  161.3596 C   0  0  0  0  0  0  0  0  0  0  0  0
  152.3025  143.9688  162.2898 C   0  0  0  0  0  0  0  0  0  0  0  0
  151.5611  143.9234  158.3010 H   0  0  0  0  0  0  0  0  0  0  0  0
  152.2753  145.0103  159.4920 H   0  0  0  0  0  0  0  0  0  0  0  0
  150.7610  144.1669  159.8513 H   0  0  0  0  0  0  0  0  0  0  0  0
  152.7812  141.9278  158.0602 H   0  0  0  0  0  0  0  0  0  0  0  0
  155.3514  138.1213  159.8682 H   0  0  0  0  0  0  0  0  0  0  0  0
  154.3989  138.6702  163.0571 H   0  0  0  0  0  0  0  0  0  0  0  0
  155.9156  138.2696  162.2806 H   0  0  0  0  0  0  0  0  0  0  0  0
  155.5597  141.1530  162.9978 H   0  0  0  0  0  0  0  0  0  0  0  0
  157.6073  139.2241  163.1534 H   0  0  0  0  0  0  0  0  0  0  0  0
  154.8642  139.3254  164.9978 H   0  0  0  0  0  0  0  0  0  0  0  0
  156.5589  139.4732  165.3020 H   0  0  0  0  0  0  0  0  0  0  0  0
  155.5546  142.8693  164.2043 H   0  0  0  0  0  0  0  0  0  0  0  0
  154.2700  143.0043  165.4092 H   0  0  0  0  0  0  0  0  0  0  0  0
  154.0827  141.8953  164.0514 H   0  0  0  0  0  0  0  0  0  0  0  0
  154.0881  141.9311  167.7800 H   0  0  0  0  0  0  0  0  0  0  0  0
  154.3597  143.9112  169.2716 H   0  0  0  0  0  0  0  0  0  0  0  0
  154.9554  144.2463  167.6533 H   0  0  0  0  0  0  0  0  0  0  0  0
  156.0934  143.9132  168.9570 H   0  0  0  0  0  0  0  0  0  0  0  0
  154.4296  141.5059  170.2025 H   0  0  0  0  0  0  0  0  0  0  0  0
  156.1747  141.4593  169.9675 H   0  0  0  0  0  0  0  0  0  0  0  0
  155.1499  140.2199  169.2435 H   0  0  0  0  0  0  0  0  0  0  0  0
  153.7323  141.7400  162.9524 H   0  0  0  0  0  0  0  0  0  0  0  0
  152.6460  143.8057  163.3116 H   0  0  0  0  0  0  0  0  0  0  0  0
  151.2129  144.0007  162.3030 H   0  0  0  0  0  0  0  0  0  0  0  0
  152.6739  144.9407  161.9644 H   0  0  0  0  0  0  0  0  0  0  0  0
  1  2  1  0  0  0  0
  1 24  1  0  0  0  0
  1 25  1  0  0  0  0
  1 26  1  0  0  0  0
  2 22  1  0  0  0  0
  2  3  2  0  0  0  0
  3  4  1  0  0  0  0
  3 27  1  0  0  0  0
  4 20  2  0  0  0  0
  4  5  1  0  0  0  0
  5  6  2  0  0  0  0
  6  7  1  0  0  0  0
  6 28  1  0  0  0  0
  7  8  1  0  0  0  0
  7 20  1  0  0  0  0
  8  9  1  0  0  0  0
  8 29  1  0  0  0  0
  8 30  1  0  0  0  0
  9 10  1  0  0  0  0
  9 11  1  0  0  0  0
  9 31  1  0  0  0  0
 10 32  1  0  0  0  0
 11 12  1  0  0  0  0
 11 33  1  0  0  0  0
 11 34  1  0  0  0  0
 12 13  1  0  0  0  0
 12 14  1  0  0  0  0
 13 35  1  0  0  0  0
 13 36  1  0  0  0  0
 13 37  1  0  0  0  0
 14 15  2  0  0  0  0
 14 16  2  0  0  0  0
 14 17  1  0  0  0  0
 17 18  1  0  0  0  0
 17 19  1  0  0  0  0
 17 38  1  0  0  0  0
 18 39  1  0  0  0  0
 18 40  1  0  0  0  0
 18 41  1  0  0  0  0
 19 42  1  0  0  0  0
 19 43  1  0  0  0  0
 19 44  1  0  0  0  0
 20 21  1  0  0  0  0
 21 22  2  0  0  0  0
 21 45  1  0  0  0  0
 22 23  1  0  0  0  0
 23 46  1  0  0  0  0
 23 47  1  0  0  0  0
 23 48  1  0  0  0  0
M  END
> <s_m_source_file>
AV-unprocessed.smi

> <i_m_source_file_index>
2538

> <i_lp_mmshare_version>
43012

> <i_f3d_flags>
0

> <s_epik_input>
W0NIM11jKFtjSF0xKWMoW0NIM10pW2NIXWMoYzEyKW4oW2NIXW4yKVtDSDJdW0NASF0oW09IXSlbQ0gyXU4oW0NIM10pUyg9TykoPU8pW0NIXShbQ0gzXSlbQ0gzXQ==

> <s_epik_cmdline>
J2VwaWtfcHl0aG9uJywgJy1waCcsICc3LjAnLCAnLXRuJywgJzgnLCAnLW1hJywgJzIwMCcsICctbWV0YWxfYmluZGluZycsICctaW1hZScsICc8aW5maWxlLm1hZT4nLCAnLW9tYWUnLCAnPG91dGZpbGUubWFlPic=

> <r_epik_Ionization_Penalty>
0.105018

> <r_epik_Ionization_Penalty_Charging>
0

> <r_epik_Ionization_Penalty_Neutral>
0.105018

> <r_epik_State_Penalty>
0.094904

> <r_epik_Charging_Adjusted_Penalty>
0.094904

> <i_epik_Tot_Q>
0

> <i_epik_Tot_abs_Q>
0

> <r_epik_Metal_State_Penalty>
0.000102919

> <b_epik_Metal_Only>
0

> <s_lp_Force_Field>
OPLS_2005

> <r_lp_Energy>
2.81525

> <b_lp_Chiralities_Consistent>
1

> <s_lp_Variant>
AV-unprocessed.smi:2538-1

> <Gold.Version>
5.8.1

> <Gold.Id.Protein>
6NUR|6NUR_protein|mol2

> <Gold.PLP.Fitness>
49.6625

> <Gold.PLP.PLP>
-49.4808

> <Gold.PLP.part.hbond>
-1.7525

> <Gold.PLP.part.metal>
0.0000

> <Gold.PLP.part.buried>
-4.0062

> <Gold.PLP.part.nonpolar>
-42.6188

> <Gold.PLP.part.repulsive>
0.0000

> <Gold.PLP.ligand.clash>
0.0000

> <Gold.PLP.ligand.torsion>
2.6968

> <Gold.PLP.Chemscore.Hbond>
1.0000

> <Gold.PLP.Chemscore.CHOScore>
0.0000

> <Gold.PLP.Chemscore.Metal>
0.0000

> <Gold.Chemscore.Hbonds>
donor molecule, donor type, donor heavy atom, donor atom, acceptor molecule, acceptor atom, score
      P1  H  7997  8008       L1     5  1.00

> <Gold.PLP.Chemscore.Internal.Correction>
2.5752

> <Gold.Rescore>
     Score         DG    S(hbond)    S(metal)    S(lipo)     H(rot)  DE(clash)    DE(int)     intcor
     16.33     -19.17       0.94        0.00     140.36       2.29       0.19       2.65       ----

> <Gold.Chemscore.Fitness>
16.3256

> <Gold.Chemscore.DG>
-19.1666

> <Gold.Chemscore.ZeroCoef>
-5.4800

> <Gold.Chemscore.Hbond>
0.9374

> <Gold.Chemscore.Metal>
0.0000

> <Gold.Chemscore.Lipo>
140.3628

> <Gold.Chemscore.Internal_Hbond>
0.0000

> <Gold.Chemscore.DEClash>
0.1866

> <Gold.Chemscore.DEInternal>
2.6545

> <Gold.Chemscore.Rot>
2.2917

> <Gold.Chemscore.Internal.Correction>
   9.000000E+99

> <Gold.Chemscore.Hbonds>
donor molecule, donor type, donor heavy atom, donor atom, acceptor molecule, acceptor atom, score
      P1  H  7997  8008       L1     5  0.92

> <Gold.Chemscore.Hbond.Weighted>
-3.1311

> <Gold.Chemscore.Metal.Weighted>
-0.0000

> <Gold.Chemscore.Lipo.Weighted>
-16.4224

> <Gold.Chemscore.Internal_Hbond.Weighted>
0.0000

> <Gold.Chemscore.DEClash.Weighted>
0.1866

> <Gold.Chemscore.DEInternal.Weighted>
2.6545

> <Gold.Chemscore.Rot.Weighted>
5.8669

> <Gold.Chemscore.Internal.Correction.Weighted>
   9.000000E+99

> <Gold.Protein.RotatedTorsions>
[ 6907 6896 6895 6894 ] final  152.45 input  -60.11 | X-H torsion
[ 7974 7965 7964 7962 ] final   25.42 input  175.53 | X-H torsion
[ 8008 7997 7996 7995 ] final -115.90 input   59.86 | X-H torsion
[ 10167 10162 10161 10158 ] final -143.11 input  -65.29 | X-H torsion
[ 10718 10713 10712 10709 ] final  -79.59 input   66.30 | X-H torsion
[ 10763 10752 10751 10750 ] final   95.16 input  -60.55 | X-H torsion
[ 11005 11000 10999 10996 ] final  148.56 input  -57.11 | X-H torsion

> <Gold.Protein.ActiveResidues>
 VAL166  LYS551  ARG553  GLY616  TRP617  ASP618  TYR619  PRO620  LYS621  CYS622 
 ASP623  PHE694  ASN695  SER759  ASP760  ASP761  ALA762  ILE779  LEU786  VAL792 
 PHE793  MET794  SER795  GLU796  ALA797  LYS798  CYS799  TRP800  GLU811  SER814 

> <Gold.Protein.RotatedAtoms>
  152.0865  133.4179  159.4524 H   0  0  0  0  0  0  0  0  0  0  0  0  # atno 6907 bound_to 6896
  150.6862  134.2921  159.4680 H   0  0  0  0  0  0  0  0  0  0  0  0  # atno 6908 bound_to 6896
  152.0768  134.9497  160.0624 H   0  0  0  0  0  0  0  0  0  0  0  0  # atno 6909 bound_to 6896
  146.1889  139.7468  142.8846 H   0  0  0  0  0  0  0  0  0  0  0  0  # atno 7974 bound_to 7965
  155.0593  140.0393  157.2571 H   0  0  0  0  0  0  0  0  0  0  0  0  # atno 8008 bound_to 7997
  154.7073  140.2685  155.6638 H   0  0  0  0  0  0  0  0  0  0  0  0  # atno 8009 bound_to 7997
  156.2779  140.2728  156.1703 H   0  0  0  0  0  0  0  0  0  0  0  0  # atno 8010 bound_to 7997
  139.8024  143.7815  152.2659 H   0  0  0  0  0  0  0  0  0  0  0  0  # atno 10167 bound_to 10162
  156.0089  130.4550  150.3672 H   0  0  0  0  0  0  0  0  0  0  0  0  # atno 10718 bound_to 10713
  153.2499  135.4264  155.0787 H   0  0  0  0  0  0  0  0  0  0  0  0  # atno 10763 bound_to 10752
  154.8377  135.3423  154.6527 H   0  0  0  0  0  0  0  0  0  0  0  0  # atno 10764 bound_to 10752
  153.6949  135.7031  153.5136 H   0  0  0  0  0  0  0  0  0  0  0  0  # atno 10765 bound_to 10752
  140.0970  134.9006  157.1738 H   0  0  0  0  0  0  0  0  0  0  0  0  # atno 11005 bound_to 11000
  145.3853  141.0364  143.3154 LP  0  0  0  0  0  0  0  0  0  0  0  0  # atno 17320 bound_to 7965
  144.8449  139.5413  143.6883 LP  0  0  0  0  0  0  0  0  0  0  0  0  # atno 17321 bound_to 7965
  139.7939  144.7400  150.9917 LP  0  0  0  0  0  0  0  0  0  0  0  0  # atno 17342 bound_to 10162
  140.7820  143.4414  151.0547 LP  0  0  0  0  0  0  0  0  0  0  0  0  # atno 17343 bound_to 10162
  157.1758  131.0380  151.2773 LP  0  0  0  0  0  0  0  0  0  0  0  0  # atno 17370 bound_to 10713
  157.4189  130.7426  149.6898 LP  0  0  0  0  0  0  0  0  0  0  0  0  # atno 17371 bound_to 10713
  140.3272  134.2850  155.7234 LP  0  0  0  0  0  0  0  0  0  0  0  0  # atno 17394 bound_to 11000
  141.2095  133.7747  156.9994 LP  0  0  0  0  0  0  0  0  0  0  0  0  # atno 17395 bound_to 11000

$$$$
