AV-unprocessed.smi:672|AV-procd|sdf|3293|dock1
  -GOLD-   22720 0253D 1   1.00000     0.00000
 Structure written by MMmdl.
 35 36  0  0  0  0  0  0  0  0  2 V2000
  151.9575  145.2726  160.1503 C   0  0  0  0  0  0  0  0  0  0  0  0
  152.1915  144.2454  161.2629 C   0  0  0  0  0  0  0  0  0  0  0  0
  152.6036  142.9125  160.7337 C   0  0  0  0  0  0  0  0  0  0  0  0
  152.9581  141.8964  161.5247 N   0  0  0  0  0  0  0  0  0  0  0  0
  153.3282  140.7735  160.7990 N   0  0  0  0  0  0  0  0  0  0  0  0
  153.2736  140.9630  159.4730 C   0  0  0  0  0  0  0  0  0  0  0  0
  153.5948  140.0002  158.5933 N   0  5  0  0  0  0  0  0  0  0  0  0
  152.6333  139.4417  157.8232 C   0  0  0  0  0  0  0  0  0  0  0  0
  152.3504  138.2429  157.7621 O   0  0  0  0  0  0  0  0  0  0  0  0
  151.9606  140.3261  157.0731 N   0  0  0  0  0  0  0  0  0  0  0  0
  150.8736  140.0109  156.1486 C   0  0  2  0  0  0  0  0  0  0  0  0
  151.2544  140.3218  154.6854 C   0  0  0  0  0  0  0  0  0  0  0  0
  150.1258  141.1896  154.1256 C   0  0  0  0  0  0  0  0  0  0  0  0
  149.5717  141.9226  155.3463 C   0  0  1  0  0  0  0  0  0  0  0  0
  147.8929  142.5687  155.0943 S   0  0  0  0  0  0  0  0  0  0  0  0
  148.0855  143.3380  153.4646 C   0  0  0  0  0  0  0  0  0  0  0  0
  149.6370  140.8729  156.4578 C   0  0  0  0  0  0  0  0  0  0  0  0
  152.7257  142.5752  159.0152 S   0  0  0  0  0  0  0  0  0  0  0  0
  151.6540  146.2335  160.5657 H   0  0  0  0  0  0  0  0  0  0  0  0
  151.1740  144.9412  159.4681 H   0  0  0  0  0  0  0  0  0  0  0  0
  152.8645  145.4324  159.5664 H   0  0  0  0  0  0  0  0  0  0  0  0
  152.9593  144.6064  161.9482 H   0  0  0  0  0  0  0  0  0  0  0  0
  151.2818  144.1211  161.8509 H   0  0  0  0  0  0  0  0  0  0  0  0
  152.2244  141.2971  157.1544 H   0  0  0  0  0  0  0  0  0  0  0  0
  150.6056  138.9583  156.2566 H   0  0  0  0  0  0  0  0  0  0  0  0
  152.1895  140.8825  154.6414 H   0  0  0  0  0  0  0  0  0  0  0  0
  151.3979  139.4141  154.0985 H   0  0  0  0  0  0  0  0  0  0  0  0
  150.4734  141.8685  153.3468 H   0  0  0  0  0  0  0  0  0  0  0  0
  149.3552  140.5507  153.6921 H   0  0  0  0  0  0  0  0  0  0  0  0
  150.2354  142.7492  155.6042 H   0  0  0  0  0  0  0  0  0  0  0  0
  147.1548  143.8199  153.1656 H   0  0  0  0  0  0  0  0  0  0  0  0
  148.3415  142.5904  152.7140 H   0  0  0  0  0  0  0  0  0  0  0  0
  148.8726  144.0918  153.4895 H   0  0  0  0  0  0  0  0  0  0  0  0
  148.7483  140.2414  156.4178 H   0  0  0  0  0  0  0  0  0  0  0  0
  149.6618  141.3246  157.4504 H   0  0  0  0  0  0  0  0  0  0  0  0
  1  2  1  0  0  0  0
  1 19  1  0  0  0  0
  1 20  1  0  0  0  0
  1 21  1  0  0  0  0
  2  3  1  0  0  0  0
  2 22  1  0  0  0  0
  2 23  1  0  0  0  0
  3 18  1  0  0  0  0
  3  4  2  0  0  0  0
  4  5  1  0  0  0  0
  5  6  2  0  0  0  0
  6  7  1  0  0  0  0
  6 18  1  0  0  0  0
  7  8  1  0  0  0  0
  8  9  2  0  0  0  0
  8 10  1  0  0  0  0
 10 11  1  0  0  0  0
 10 24  1  0  0  0  0
 11 17  1  0  0  0  0
 11 12  1  0  0  0  0
 11 25  1  0  0  0  0
 12 13  1  0  0  0  0
 12 26  1  0  0  0  0
 12 27  1  0  0  0  0
 13 14  1  0  0  0  0
 13 28  1  0  0  0  0
 13 29  1  0  0  0  0
 14 15  1  0  0  0  0
 14 17  1  0  0  0  0
 14 30  1  0  0  0  0
 15 16  1  0  0  0  0
 16 31  1  0  0  0  0
 16 32  1  0  0  0  0
 16 33  1  0  0  0  0
 17 34  1  0  0  0  0
 17 35  1  0  0  0  0
M  CHG  1   7  -1
M  END
> <s_m_source_file>
AV-unprocessed.smi

> <i_m_source_file_index>
672

> <i_lp_mmshare_version>
43012

> <i_f3d_flags>
0

> <s_epik_input>
W0NIM11bQ0gyXWMxbm5jKHMxKVtOSF1DKD1PKVtOSF1bQ0BASF0yW0NIMl1bQ0gyXVtDQEhdKFtDSDJdMilTW0NIM10=

> <s_epik_cmdline>
J2VwaWtfcHl0aG9uJywgJy1waCcsICc3LjAnLCAnLXRuJywgJzgnLCAnLW1hJywgJzIwMCcsICctbWV0YWxfYmluZGluZycsICctaW1hZScsICc8aW5maWxlLm1hZT4nLCAnLW9tYWUnLCAnPG91dGZpbGUubWFlPic=

> <r_lp_tautomer_probability>
1

> <r_epik_Ionization_Penalty>
4.49964

> <r_epik_Ionization_Penalty_Charging>
4.32991

> <r_epik_Ionization_Penalty_Neutral>
0.169727

> <r_epik_State_Penalty>
4.32952

> <r_epik_Charging_Adjusted_Penalty>
8.65943

> <i_epik_Tot_Q>
-1

> <i_epik_Tot_abs_Q>
1

> <r_epik_Metal_State_Penalty>
0.740482

> <b_epik_Metal_Only>
1

> <s_lp_Force_Field>
OPLS_2005

> <r_lp_Energy>
9.96547

> <b_lp_Chiralities_Consistent>
1

> <s_lp_Variant>
AV-unprocessed.smi:672-5

> <Gold.Version>
5.8.1

> <Gold.Id.Protein>
6NUR|6NUR_protein|mol2

> <Gold.PLP.Fitness>
38.1234

> <Gold.PLP.PLP>
-34.7346

> <Gold.PLP.part.hbond>
-1.0000

> <Gold.PLP.part.metal>
0.0000

> <Gold.PLP.part.buried>
-5.1919

> <Gold.PLP.part.nonpolar>
-27.8784

> <Gold.PLP.part.repulsive>
0.1054

> <Gold.PLP.ligand.clash>
0.0000

> <Gold.PLP.ligand.torsion>
1.3366

> <Gold.PLP.Chemscore.Hbond>
2.0000

> <Gold.PLP.Chemscore.CHOScore>
0.0000

> <Gold.PLP.Chemscore.Metal>
0.0000

> <Gold.Chemscore.Hbonds>
donor molecule, donor type, donor heavy atom, donor atom, acceptor molecule, acceptor atom, score
      P1  H  7997  8009       L1     7  1.20

> <Gold.PLP.Chemscore.Internal.Correction>
0.0620

> <Gold.Rescore>
     Score         DG    S(hbond)    S(metal)    S(lipo)     H(rot)  DE(clash)    DE(int)     intcor
     12.86     -14.49       0.80        0.00      83.38       1.34       0.03       1.61       ----

> <Gold.Chemscore.Fitness>
12.8601

> <Gold.Chemscore.DG>
-14.4908

> <Gold.Chemscore.ZeroCoef>
-5.4800

> <Gold.Chemscore.Hbond>
0.8048

> <Gold.Chemscore.Metal>
0.0000

> <Gold.Chemscore.Lipo>
83.3821

> <Gold.Chemscore.Internal_Hbond>
0.0000

> <Gold.Chemscore.DEClash>
0.0253

> <Gold.Chemscore.DEInternal>
1.6055

> <Gold.Chemscore.Rot>
1.3410

> <Gold.Chemscore.Internal.Correction>
   9.000000E+99

> <Gold.Chemscore.Hbonds>
donor molecule, donor type, donor heavy atom, donor atom, acceptor molecule, acceptor atom, score
      P1  H  7997  8009       L1     7  0.04

> <Gold.Chemscore.Hbond.Weighted>
-2.6881

> <Gold.Chemscore.Metal.Weighted>
-0.0000

> <Gold.Chemscore.Lipo.Weighted>
-9.7557

> <Gold.Chemscore.Internal_Hbond.Weighted>
0.0000

> <Gold.Chemscore.DEClash.Weighted>
0.0253

> <Gold.Chemscore.DEInternal.Weighted>
1.6055

> <Gold.Chemscore.Rot.Weighted>
3.4329

> <Gold.Chemscore.Internal.Correction.Weighted>
   9.000000E+99

> <Gold.Protein.RotatedTorsions>
[ 6907 6896 6895 6894 ] final  110.43 input  -60.11 | X-H torsion
[ 7974 7965 7964 7962 ] final  -13.80 input  175.53 | X-H torsion
[ 8008 7997 7996 7995 ] final  139.96 input   59.86 | X-H torsion
[ 10167 10162 10161 10158 ] final   52.79 input  -65.29 | X-H torsion
[ 10718 10713 10712 10709 ] final    5.67 input   66.30 | X-H torsion
[ 10763 10752 10751 10750 ] final -161.13 input  -60.55 | X-H torsion
[ 11005 11000 10999 10996 ] final   63.14 input  -57.11 | X-H torsion

> <Gold.Protein.ActiveResidues>
 VAL166  LYS551  ARG553  GLY616  TRP617  ASP618  TYR619  PRO620  LYS621  CYS622 
 ASP623  PHE694  ASN695  SER759  ASP760  ASP761  ALA762  ILE779  LEU786  VAL792 
 PHE793  MET794  SER795  GLU796  ALA797  LYS798  CYS799  TRP800  GLU811  SER814 

> <Gold.Protein.RotatedAtoms>
  152.5020  133.8802  159.7341 H   0  0  0  0  0  0  0  0  0  0  0  0  # atno 6907 bound_to 6896
  150.9266  133.6808  159.2827 H   0  0  0  0  0  0  0  0  0  0  0  0  # atno 6908 bound_to 6896
  151.4166  135.0997  159.9654 H   0  0  0  0  0  0  0  0  0  0  0  0  # atno 6909 bound_to 6896
  146.2100  140.3255  142.8394 H   0  0  0  0  0  0  0  0  0  0  0  0  # atno 7974 bound_to 7965
  156.2984  140.2354  156.4322 H   0  0  0  0  0  0  0  0  0  0  0  0  # atno 8008 bound_to 7997
  154.8260  140.0435  157.1464 H   0  0  0  0  0  0  0  0  0  0  0  0  # atno 8009 bound_to 7997
  154.9261  140.3010  155.5195 H   0  0  0  0  0  0  0  0  0  0  0  0  # atno 8010 bound_to 7997
  140.2476  144.3514  150.6359 H   0  0  0  0  0  0  0  0  0  0  0  0  # atno 10167 bound_to 10162
  156.9108  130.5755  149.5647 H   0  0  0  0  0  0  0  0  0  0  0  0  # atno 10718 bound_to 10713
  154.7331  135.3051  154.8858 H   0  0  0  0  0  0  0  0  0  0  0  0  # atno 10763 bound_to 10752
  153.9695  135.6743  153.4751 H   0  0  0  0  0  0  0  0  0  0  0  0  # atno 10764 bound_to 10752
  153.0937  135.4946  154.8659 H   0  0  0  0  0  0  0  0  0  0  0  0  # atno 10765 bound_to 10752
  140.0044  134.6392  155.9878 H   0  0  0  0  0  0  0  0  0  0  0  0  # atno 11005 bound_to 11000
  144.8889  140.7498  143.5939 LP  0  0  0  0  0  0  0  0  0  0  0  0  # atno 17320 bound_to 7965
  145.3177  139.1798  143.4604 LP  0  0  0  0  0  0  0  0  0  0  0  0  # atno 17321 bound_to 7965
  140.6065  143.2168  151.6970 LP  0  0  0  0  0  0  0  0  0  0  0  0  # atno 17342 bound_to 10162
  139.5056  144.3710  152.0470 LP  0  0  0  0  0  0  0  0  0  0  0  0  # atno 17343 bound_to 10162
  156.0537  130.5602  150.9045 LP  0  0  0  0  0  0  0  0  0  0  0  0  # atno 17370 bound_to 10713
  157.5969  131.0943  150.9027 LP  0  0  0  0  0  0  0  0  0  0  0  0  # atno 17371 bound_to 10713
  141.1666  133.6537  156.4501 LP  0  0  0  0  0  0  0  0  0  0  0  0  # atno 17394 bound_to 11000
  140.4668  134.6790  157.5111 LP  0  0  0  0  0  0  0  0  0  0  0  0  # atno 17395 bound_to 11000

$$$$
