AV-unprocessed.smi:516|AV-procd|sdf|2787|dock10
  -GOLD-   2262023263D 1   1.00000     0.00000
 Structure written by MMmdl.
 44 46  0  0  0  0  0  0  0  0  3 V2000
  148.4824  128.3507  152.8480 C   0  0  0  0  0  0  0  0  0  0  0  0
  149.1903  128.4042  154.0733 O   0  0  0  0  0  0  0  0  0  0  0  0
  149.6763  129.7030  154.3683 C   0  0  0  0  0  0  0  0  0  0  0  0
  148.5043  130.6476  154.6742 C   0  0  0  0  0  0  0  0  0  0  0  0
  148.9018  132.0526  154.6328 N   0  0  0  0  0  0  0  0  0  0  0  0
  148.4797  132.9978  153.7517 C   0  0  0  0  0  0  0  0  0  0  0  0
  147.5029  132.7292  152.6419 C   0  0  0  0  0  0  0  0  0  0  0  0
  146.9556  134.0650  152.2948 N   0  3  0  0  0  0  0  0  0  0  0  0
  146.0610  134.0188  151.1150 C   0  0  0  0  0  0  0  0  0  0  0  0
  145.5768  135.4329  150.7521 C   0  0  0  0  0  0  0  0  0  0  0  0
  144.9255  136.0170  151.8734 O   0  0  0  0  0  0  0  0  0  0  0  0
  145.7991  136.1477  152.9881 C   0  0  0  0  0  0  0  0  0  0  0  0
  146.2885  134.7576  153.4265 C   0  0  0  0  0  0  0  0  0  0  0  0
  149.0073  134.2081  153.9521 N   0  0  0  0  0  0  0  0  0  0  0  0
  149.8350  134.0162  155.0475 C   0  0  0  0  0  0  0  0  0  0  0  0
  149.7940  132.7258  155.4740 C   0  0  0  0  0  0  0  0  0  0  0  0
  150.5818  132.2140  156.6185 C   0  0  0  0  0  0  0  0  0  0  0  0
  150.5278  131.0322  156.9511 O   0  0  0  0  0  0  0  0  0  0  0  0
  151.3307  133.1970  157.2111 N   0  5  0  0  0  0  0  0  0  0  0  0
  151.3940  134.5165  156.8177 C   0  0  0  0  0  0  0  0  0  0  0  0
  152.0909  135.3398  157.4120 O   0  0  0  0  0  0  0  0  0  0  0  0
  150.6647  134.9405  155.7381 N   0  0  0  0  0  0  0  0  0  0  0  0
  150.7163  136.3362  155.2935 C   0  0  0  0  0  0  0  0  0  0  0  0
  148.1378  127.3322  152.6694 H   0  0  0  0  0  0  0  0  0  0  0  0
  149.1193  128.6418  152.0119 H   0  0  0  0  0  0  0  0  0  0  0  0
  147.6090  129.0037  152.8679 H   0  0  0  0  0  0  0  0  0  0  0  0
  150.3511  129.6564  155.2242 H   0  0  0  0  0  0  0  0  0  0  0  0
  150.2486  130.0891  153.5235 H   0  0  0  0  0  0  0  0  0  0  0  0
  147.6928  130.4829  153.9665 H   0  0  0  0  0  0  0  0  0  0  0  0
  148.0728  130.4153  155.6454 H   0  0  0  0  0  0  0  0  0  0  0  0
  148.0505  132.3024  151.8005 H   0  0  0  0  0  0  0  0  0  0  0  0
  146.7188  132.0251  152.9170 H   0  0  0  0  0  0  0  0  0  0  0  0
  146.5909  133.5840  150.2665 H   0  0  0  0  0  0  0  0  0  0  0  0
  145.2077  133.3728  151.3273 H   0  0  0  0  0  0  0  0  0  0  0  0
  146.4103  136.0604  150.4321 H   0  0  0  0  0  0  0  0  0  0  0  0
  144.8746  135.3876  149.9195 H   0  0  0  0  0  0  0  0  0  0  0  0
  146.6408  136.7940  152.7340 H   0  0  0  0  0  0  0  0  0  0  0  0
  145.2609  136.6307  153.8038 H   0  0  0  0  0  0  0  0  0  0  0  0
  145.4465  134.1590  153.7776 H   0  0  0  0  0  0  0  0  0  0  0  0
  146.9738  134.8685  154.2669 H   0  0  0  0  0  0  0  0  0  0  0  0
  151.7443  136.6361  155.0857 H   0  0  0  0  0  0  0  0  0  0  0  0
  150.3190  136.9957  156.0660 H   0  0  0  0  0  0  0  0  0  0  0  0
  150.1404  136.5105  154.3851 H   0  0  0  0  0  0  0  0  0  0  0  0
  147.7488  134.6317  152.0285 H   0  0  0  0  0  0  0  0  0  0  0  0
  1  2  1  0  0  0  0
  1 24  1  0  0  0  0
  1 25  1  0  0  0  0
  1 26  1  0  0  0  0
  2  3  1  0  0  0  0
  3  4  1  0  0  0  0
  3 27  1  0  0  0  0
  3 28  1  0  0  0  0
  4  5  1  0  0  0  0
  4 29  1  0  0  0  0
  4 30  1  0  0  0  0
  5 16  1  0  0  0  0
  5  6  1  0  0  0  0
  6  7  1  0  0  0  0
  6 14  2  0  0  0  0
  7  8  1  0  0  0  0
  7 31  1  0  0  0  0
  7 32  1  0  0  0  0
  8 13  1  0  0  0  0
  8  9  1  0  0  0  0
  8 44  1  0  0  0  0
  9 10  1  0  0  0  0
  9 33  1  0  0  0  0
  9 34  1  0  0  0  0
 10 11  1  0  0  0  0
 10 35  1  0  0  0  0
 10 36  1  0  0  0  0
 11 12  1  0  0  0  0
 12 13  1  0  0  0  0
 12 37  1  0  0  0  0
 12 38  1  0  0  0  0
 13 39  1  0  0  0  0
 13 40  1  0  0  0  0
 14 15  1  0  0  0  0
 15 22  1  0  0  0  0
 15 16  2  0  0  0  0
 16 17  1  0  0  0  0
 17 18  2  0  0  0  0
 17 19  1  0  0  0  0
 19 20  1  0  0  0  0
 20 21  2  0  0  0  0
 20 22  1  0  0  0  0
 22 23  1  0  0  0  0
 23 41  1  0  0  0  0
 23 42  1  0  0  0  0
 23 43  1  0  0  0  0
M  CHG  1   8   1
M  CHG  1  19  -1
M  END
> <s_m_source_file>
AV-unprocessed.smi

> <i_m_source_file_index>
516

> <i_lp_mmshare_version>
43012

> <i_f3d_flags>
0

> <s_epik_input>
W0NIM11uMWMoPU8pW25IXWMoPU8pYyhjMTIpbihbQ0gyXVtDSDJdT1tDSDNdKWMobjIpW0NIMl1OM1tDSDJdW0NIMl1PW0NIMl1bQ0gyXTM=

> <s_epik_cmdline>
J2VwaWtfcHl0aG9uJywgJy1waCcsICc3LjAnLCAnLXRuJywgJzgnLCAnLW1hJywgJzIwMCcsICctbWV0YWxfYmluZGluZycsICctaW1hZScsICc8aW5maWxlLm1hZT4nLCAnLW9tYWUnLCAnPG91dGZpbGUubWFlPic=

> <r_epik_Ionization_Penalty>
5.20946

> <r_epik_Ionization_Penalty_Charging>
1.12908

> <r_epik_Ionization_Penalty_Neutral>
4.08038

> <r_epik_State_Penalty>
5.2587

> <r_epik_Charging_Adjusted_Penalty>
6.38778

> <i_epik_Tot_Q>
0

> <i_epik_Tot_abs_Q>
2

> <r_epik_Metal_State_Penalty>
1.732

> <b_epik_Metal_Only>
1

> <s_lp_Force_Field>
OPLS_2005

> <r_lp_Energy>
35.9619

> <b_lp_Chiralities_Consistent>
1

> <s_lp_Variant>
AV-unprocessed.smi:516-4

> <Gold.Version>
5.8.1

> <Gold.Id.Protein>
6NUR|6NUR_protein|mol2

> <Gold.PLP.Fitness>
42.0314

> <Gold.PLP.PLP>
-32.4378

> <Gold.PLP.part.hbond>
-3.0000

> <Gold.PLP.part.metal>
0.0000

> <Gold.PLP.part.buried>
-3.6372

> <Gold.PLP.part.nonpolar>
-28.4158

> <Gold.PLP.part.repulsive>
2.0194

> <Gold.PLP.ligand.clash>
0.0000

> <Gold.PLP.ligand.torsion>
0.4067

> <Gold.PLP.Chemscore.Hbond>
3.4591

> <Gold.PLP.Chemscore.CHOScore>
0.0000

> <Gold.PLP.Chemscore.Metal>
0.0000

> <Gold.Chemscore.Hbonds>
donor molecule, donor type, donor heavy atom, donor atom, acceptor molecule, acceptor atom, score
      L1  H     8    44       P1  7948  2.00
      P1  H  6896  6909       L1    19  1.44

> <Gold.PLP.Chemscore.Internal.Correction>
0.0297

> <Gold.Rescore>
     Score         DG    S(hbond)    S(metal)    S(lipo)     H(rot)  DE(clash)    DE(int)     intcor
      6.56      -9.76       1.25        0.00      46.23       2.07       1.34       1.85       ----

> <Gold.Chemscore.Fitness>
6.5591

> <Gold.Chemscore.DG>
-9.7567

> <Gold.Chemscore.ZeroCoef>
-5.4800

> <Gold.Chemscore.Hbond>
1.2472

> <Gold.Chemscore.Metal>
0.0000

> <Gold.Chemscore.Lipo>
46.2267

> <Gold.Chemscore.Internal_Hbond>
0.0000

> <Gold.Chemscore.DEClash>
1.3438

> <Gold.Chemscore.DEInternal>
1.8537

> <Gold.Chemscore.Rot>
2.0693

> <Gold.Chemscore.Internal.Correction>
   9.000000E+99

> <Gold.Chemscore.Hbonds>
donor molecule, donor type, donor heavy atom, donor atom, acceptor molecule, acceptor atom, score
      L1  H     8    44       P1  7948  0.44
      P1  H  6896  6909       L1    19  0.23

> <Gold.Chemscore.Hbond.Weighted>
-4.1657

> <Gold.Chemscore.Metal.Weighted>
-0.0000

> <Gold.Chemscore.Lipo.Weighted>
-5.4085

> <Gold.Chemscore.Internal_Hbond.Weighted>
0.0000

> <Gold.Chemscore.DEClash.Weighted>
1.3438

> <Gold.Chemscore.DEInternal.Weighted>
1.8537

> <Gold.Chemscore.Rot.Weighted>
5.2975

> <Gold.Chemscore.Internal.Correction.Weighted>
   9.000000E+99

> <Gold.Protein.RotatedTorsions>
[ 6907 6896 6895 6894 ] final  -50.42 input  -60.11 | X-H torsion
[ 7974 7965 7964 7962 ] final   -7.57 input  175.53 | X-H torsion
[ 8008 7997 7996 7995 ] final -113.32 input   59.86 | X-H torsion
[ 10167 10162 10161 10158 ] final -175.48 input  -65.29 | X-H torsion
[ 10718 10713 10712 10709 ] final  135.99 input   66.30 | X-H torsion
[ 10763 10752 10751 10750 ] final -125.94 input  -60.55 | X-H torsion
[ 11005 11000 10999 10996 ] final   56.89 input  -57.11 | X-H torsion

> <Gold.Protein.ActiveResidues>
 VAL166  LYS551  ARG553  GLY616  TRP617  ASP618  TYR619  PRO620  LYS621  CYS622 
 ASP623  PHE694  ASN695  SER759  ASP760  ASP761  ALA762  ILE779  LEU786  VAL792 
 PHE793  MET794  SER795  GLU796  ALA797  LYS798  CYS799  TRP800  GLU811  SER814 

> <Gold.Protein.RotatedAtoms>
  150.8709  134.8082  159.7153 H   0  0  0  0  0  0  0  0  0  0  0  0  # atno 6907 bound_to 6896
  152.4714  134.4949  159.9716 H   0  0  0  0  0  0  0  0  0  0  0  0  # atno 6908 bound_to 6896
  151.5037  133.3460  159.2909 H   0  0  0  0  0  0  0  0  0  0  0  0  # atno 6909 bound_to 6896
  146.2303  140.2339  142.8341 H   0  0  0  0  0  0  0  0  0  0  0  0  # atno 7974 bound_to 7965
  155.0189  140.0393  157.2429 H   0  0  0  0  0  0  0  0  0  0  0  0  # atno 8008 bound_to 7997
  154.7395  140.2746  155.6362 H   0  0  0  0  0  0  0  0  0  0  0  0  # atno 8009 bound_to 7997
  156.2861  140.2668  156.2119 H   0  0  0  0  0  0  0  0  0  0  0  0  # atno 8010 bound_to 7997
  139.5579  144.1944  152.1189 H   0  0  0  0  0  0  0  0  0  0  0  0  # atno 10167 bound_to 10162
  157.4514  131.1066  151.0029 H   0  0  0  0  0  0  0  0  0  0  0  0  # atno 10718 bound_to 10713
  154.8741  135.4012  154.3349 H   0  0  0  0  0  0  0  0  0  0  0  0  # atno 10763 bound_to 10752
  153.4157  135.7022  153.6334 H   0  0  0  0  0  0  0  0  0  0  0  0  # atno 10764 bound_to 10752
  153.5017  135.3726  155.2513 H   0  0  0  0  0  0  0  0  0  0  0  0  # atno 10765 bound_to 10752
  140.0494  134.5758  155.9282 H   0  0  0  0  0  0  0  0  0  0  0  0  # atno 11005 bound_to 11000
  144.9536  140.8204  143.5556 LP  0  0  0  0  0  0  0  0  0  0  0  0  # atno 17320 bound_to 7965
  145.2303  139.2118  143.5046 LP  0  0  0  0  0  0  0  0  0  0  0  0  # atno 17321 bound_to 7965
  140.1451  144.5166  150.6720 LP  0  0  0  0  0  0  0  0  0  0  0  0  # atno 17342 bound_to 10162
  140.6854  143.2347  151.5273 LP  0  0  0  0  0  0  0  0  0  0  0  0  # atno 17343 bound_to 10162
  157.0858  130.5922  149.5429 LP  0  0  0  0  0  0  0  0  0  0  0  0  # atno 17370 bound_to 10713
  155.9988  130.5063  150.7586 LP  0  0  0  0  0  0  0  0  0  0  0  0  # atno 17371 bound_to 10713
  141.1923  133.6575  156.5495 LP  0  0  0  0  0  0  0  0  0  0  0  0  # atno 17394 bound_to 11000
  140.3941  134.7414  157.4740 LP  0  0  0  0  0  0  0  0  0  0  0  0  # atno 17395 bound_to 11000

$$$$
