AV-unprocessed.smi:2216|AV-procd|sdf|8964|dock2
  -GOLD-   2272012183D 1   1.00000     0.00000
 Structure written by MMmdl.
 41 42  0  0  0  0  0  0  0  0  1 V2000
  146.1177  131.2962  149.6582 C   0  0  0  0  0  0  0  0  0  0  0  0
  145.5267  132.6600  149.9686 C   0  0  0  0  0  0  0  0  0  0  0  0
  146.2227  133.5982  150.6519 C   0  0  0  0  0  0  0  0  0  0  0  0
  145.6547  134.9088  150.9522 C   0  0  0  0  0  0  0  0  0  0  0  0
  146.3021  135.9393  151.6486 N   0  0  0  0  0  0  0  0  0  0  0  0
  145.7767  137.0243  152.2464 C   0  0  0  0  0  0  0  0  0  0  0  0
  144.5825  137.3150  152.2994 O   0  0  0  0  0  0  0  0  0  0  0  0
  146.7385  137.7774  152.7989 N   0  0  0  0  0  0  0  0  0  0  0  0
  146.5156  139.0242  153.5223 C   0  0  0  0  0  0  0  0  0  0  0  0
  147.7048  139.9883  153.3693 C   0  0  0  0  0  0  0  0  0  0  0  0
  148.7883  139.7718  154.4369 C   0  0  2  0  0  0  0  0  0  0  0  0
  149.5423  141.0747  154.7674 C   0  0  0  0  0  0  0  0  0  0  0  0
  150.6596  140.8068  155.7821 C   0  0  0  0  0  0  0  0  0  0  0  0
  151.5579  139.6742  155.2737 C   0  0  0  0  0  0  0  0  0  0  0  0
  150.7117  138.4450  154.9053 C   0  0  0  0  0  0  0  0  0  0  0  0
  149.7199  138.8074  153.9493 O   0  0  0  0  0  0  0  0  0  0  0  0
  144.4010  135.1357  150.5227 C   0  0  0  0  0  0  0  0  0  0  0  0
  143.6807  134.1685  149.8179 N   0  0  0  0  0  0  0  0  0  0  0  0
  144.1584  132.9426  149.5053 C   0  0  0  0  0  0  0  0  0  0  0  0
  143.4650  132.1454  148.8762 O   0  0  0  0  0  0  0  0  0  0  0  0
  142.7459  134.4142  149.5255 H   0  0  0  0  0  0  0  0  0  0  0  0
  147.1288  131.1996  150.0550 H   0  0  0  0  0  0  0  0  0  0  0  0
  146.1628  131.1368  148.5805 H   0  0  0  0  0  0  0  0  0  0  0  0
  145.5071  130.5066  150.0977 H   0  0  0  0  0  0  0  0  0  0  0  0
  147.2178  133.3384  150.9727 H   0  0  0  0  0  0  0  0  0  0  0  0
  147.3052  135.8431  151.7059 H   0  0  0  0  0  0  0  0  0  0  0  0
  147.6953  137.4673  152.7128 H   0  0  0  0  0  0  0  0  0  0  0  0
  145.5930  139.4964  153.1805 H   0  0  0  0  0  0  0  0  0  0  0  0
  146.3661  138.7791  154.5741 H   0  0  0  0  0  0  0  0  0  0  0  0
  148.1426  139.8813  152.3758 H   0  0  0  0  0  0  0  0  0  0  0  0
  147.3430  141.0154  153.4359 H   0  0  0  0  0  0  0  0  0  0  0  0
  148.3155  139.3894  155.3435 H   0  0  0  0  0  0  0  0  0  0  0  0
  149.9703  141.4949  153.8562 H   0  0  0  0  0  0  0  0  0  0  0  0
  148.8531  141.8219  155.1623 H   0  0  0  0  0  0  0  0  0  0  0  0
  151.2449  141.7108  155.9520 H   0  0  0  0  0  0  0  0  0  0  0  0
  150.2246  140.5282  156.7427 H   0  0  0  0  0  0  0  0  0  0  0  0
  152.1109  140.0113  154.3961 H   0  0  0  0  0  0  0  0  0  0  0  0
  152.2988  139.4112  156.0292 H   0  0  0  0  0  0  0  0  0  0  0  0
  151.3460  137.6687  154.4774 H   0  0  0  0  0  0  0  0  0  0  0  0
  150.2386  138.0170  155.7904 H   0  0  0  0  0  0  0  0  0  0  0  0
  143.8606  136.0584  150.6773 H   0  0  0  0  0  0  0  0  0  0  0  0
  1  2  1  0  0  0  0
  1 22  1  0  0  0  0
  1 23  1  0  0  0  0
  1 24  1  0  0  0  0
  2 19  1  0  0  0  0
  2  3  2  0  0  0  0
  3  4  1  0  0  0  0
  3 25  1  0  0  0  0
  4  5  1  0  0  0  0
  4 17  2  0  0  0  0
  5  6  1  0  0  0  0
  5 26  1  0  0  0  0
  6  7  2  0  0  0  0
  6  8  1  0  0  0  0
  8  9  1  0  0  0  0
  8 27  1  0  0  0  0
  9 10  1  0  0  0  0
  9 28  1  0  0  0  0
  9 29  1  0  0  0  0
 10 11  1  0  0  0  0
 10 30  1  0  0  0  0
 10 31  1  0  0  0  0
 11 16  1  0  0  0  0
 11 12  1  0  0  0  0
 11 32  1  0  0  0  0
 12 13  1  0  0  0  0
 12 33  1  0  0  0  0
 12 34  1  0  0  0  0
 13 14  1  0  0  0  0
 13 35  1  0  0  0  0
 13 36  1  0  0  0  0
 14 15  1  0  0  0  0
 14 37  1  0  0  0  0
 14 38  1  0  0  0  0
 15 16  1  0  0  0  0
 15 39  1  0  0  0  0
 15 40  1  0  0  0  0
 17 18  1  0  0  0  0
 17 41  1  0  0  0  0
 18 21  1  0  0  0  0
 18 19  1  0  0  0  0
 19 20  2  0  0  0  0
M  END
> <s_m_source_file>
AV-unprocessed.smi

> <i_m_source_file_index>
2216

> <i_lp_mmshare_version>
43012

> <i_f3d_flags>
0

> <s_epik_input>
Tz1jMVtuSF1bY0hdYyhbY0hdYzFbQ0gzXSlbTkhdQyg9TylbTkhdW0NIMl1bQ0gyXVtDQEBIXTJbQ0gyXVtDSDJdW0NIMl1bQ0gyXU8y

> <s_epik_cmdline>
J2VwaWtfcHl0aG9uJywgJy1waCcsICc3LjAnLCAnLXRuJywgJzgnLCAnLW1hJywgJzIwMCcsICctbWV0YWxfYmluZGluZycsICctaW1hZScsICc8aW5maWxlLm1hZT4nLCAnLW9tYWUnLCAnPG91dGZpbGUubWFlPic=

> <r_lp_tautomer_probability>
1

> <r_epik_Ionization_Penalty>
4.73984e-05

> <r_epik_Ionization_Penalty_Charging>
2.74455e-05

> <r_epik_Ionization_Penalty_Neutral>
1.99529e-05

> <r_epik_State_Penalty>
-0

> <r_epik_Charging_Adjusted_Penalty>
2.74455e-05

> <i_epik_Tot_Q>
0

> <i_epik_Tot_abs_Q>
0

> <r_epik_Metal_State_Penalty>
0.0206128

> <b_epik_Metal_Only>
0

> <s_lp_Force_Field>
OPLS_2005

> <r_lp_Energy>
17.2202

> <b_lp_Chiralities_Consistent>
1

> <s_lp_Variant>
AV-unprocessed.smi:2216-1

> <Gold.Version>
5.8.1

> <Gold.Id.Protein>
6NUR|6NUR_protein|mol2

> <Gold.PLP.Fitness>
48.4835

> <Gold.PLP.PLP>
-36.4738

> <Gold.PLP.part.hbond>
-4.0340

> <Gold.PLP.part.metal>
0.0000

> <Gold.PLP.part.buried>
-1.0260

> <Gold.PLP.part.nonpolar>
-33.6130

> <Gold.PLP.part.repulsive>
2.9638

> <Gold.PLP.ligand.clash>
0.0000

> <Gold.PLP.ligand.torsion>
0.7959

> <Gold.PLP.Chemscore.Hbond>
3.8004

> <Gold.PLP.Chemscore.CHOScore>
0.7303

> <Gold.PLP.Chemscore.Metal>
0.0000

> <Gold.Chemscore.Hbonds>
donor molecule, donor type, donor heavy atom, donor atom, acceptor molecule, acceptor atom, score
      L1  H     5    26       P1  7948  1.00
      L1  H     8    27       P1  7948  0.94
      L1  H    18    21       P1 10186  1.00
      P1  H 10785 10796       L1    20  0.86
      L1  C    17    41       P1 10171  0.69

> <Gold.PLP.Chemscore.Internal.Correction>
0.0092

> <Gold.Rescore>
     Score         DG    S(hbond)    S(metal)    S(lipo)     H(rot)  DE(clash)    DE(int)     intcor
     21.70     -24.28       3.82        0.00      84.49       1.50       0.40       2.18       ----

> <Gold.Chemscore.Fitness>
21.7004

> <Gold.Chemscore.DG>
-24.2833

> <Gold.Chemscore.ZeroCoef>
-5.4800

> <Gold.Chemscore.Hbond>
3.8170

> <Gold.Chemscore.Metal>
0.0000

> <Gold.Chemscore.Lipo>
84.4912

> <Gold.Chemscore.Internal_Hbond>
0.0000

> <Gold.Chemscore.DEClash>
0.4048

> <Gold.Chemscore.DEInternal>
2.1781

> <Gold.Chemscore.Rot>
1.4964

> <Gold.Chemscore.Internal.Correction>
   9.000000E+99

> <Gold.Chemscore.Hbonds>
donor molecule, donor type, donor heavy atom, donor atom, acceptor molecule, acceptor atom, score
      L1  H     5    26       P1  7948  1.00
      L1  H     8    27       P1  7948  0.90
      L1  H    18    21       P1 10186  0.98
      P1  H 10785 10796       L1    20  0.82

> <Gold.Chemscore.Hbond.Weighted>
-12.7487

> <Gold.Chemscore.Metal.Weighted>
-0.0000

> <Gold.Chemscore.Lipo.Weighted>
-9.8855

> <Gold.Chemscore.Internal_Hbond.Weighted>
0.0000

> <Gold.Chemscore.DEClash.Weighted>
0.4048

> <Gold.Chemscore.DEInternal.Weighted>
2.1781

> <Gold.Chemscore.Rot.Weighted>
3.8308

> <Gold.Chemscore.Internal.Correction.Weighted>
   9.000000E+99

> <Gold.Protein.RotatedTorsions>
[ 6907 6896 6895 6894 ] final   54.19 input  -60.11 | X-H torsion
[ 7974 7965 7964 7962 ] final  -57.97 input  175.53 | X-H torsion
[ 8008 7997 7996 7995 ] final  108.75 input   59.86 | X-H torsion
[ 10167 10162 10161 10158 ] final   -3.52 input  -65.29 | X-H torsion
[ 10718 10713 10712 10709 ] final  153.24 input   66.30 | X-H torsion
[ 10763 10752 10751 10750 ] final  -88.95 input  -60.55 | X-H torsion
[ 11005 11000 10999 10996 ] final -136.21 input  -57.11 | X-H torsion

> <Gold.Protein.ActiveResidues>
 VAL166  LYS551  ARG553  GLY616  TRP617  ASP618  TYR619  PRO620  LYS621  CYS622 
 ASP623  PHE694  ASN695  SER759  ASP760  ASP761  ALA762  ILE779  LEU786  VAL792 
 PHE793  MET794  SER795  GLU796  ALA797  LYS798  CYS799  TRP800  GLU811  SER814 

> <Gold.Protein.RotatedAtoms>
  152.3413  134.7130  160.0262 H   0  0  0  0  0  0  0  0  0  0  0  0  # atno 6907 bound_to 6896
  151.7514  133.3322  159.3400 H   0  0  0  0  0  0  0  0  0  0  0  0  # atno 6908 bound_to 6896
  150.7481  134.6121  159.6136 H   0  0  0  0  0  0  0  0  0  0  0  0  # atno 6909 bound_to 6896
  145.8448  140.8393  143.0016 H   0  0  0  0  0  0  0  0  0  0  0  0  # atno 7974 bound_to 7965
  156.1927  140.3070  155.9365 H   0  0  0  0  0  0  0  0  0  0  0  0  # atno 8008 bound_to 7997
  155.3136  140.0452  157.3053 H   0  0  0  0  0  0  0  0  0  0  0  0  # atno 8009 bound_to 7997
  154.5472  140.2280  155.8553 H   0  0  0  0  0  0  0  0  0  0  0  0  # atno 8010 bound_to 7997
  140.6893  143.6530  150.8333 H   0  0  0  0  0  0  0  0  0  0  0  0  # atno 10167 bound_to 10162
  157.2473  131.0771  151.1753 H   0  0  0  0  0  0  0  0  0  0  0  0  # atno 10718 bound_to 10713
  154.6501  135.5358  153.7891 H   0  0  0  0  0  0  0  0  0  0  0  0  # atno 10763 bound_to 10752
  153.0381  135.6480  154.1030 H   0  0  0  0  0  0  0  0  0  0  0  0  # atno 10764 bound_to 10752
  154.0948  135.2937  155.3244 H   0  0  0  0  0  0  0  0  0  0  0  0  # atno 10765 bound_to 10752
  140.8826  134.1913  157.4581 H   0  0  0  0  0  0  0  0  0  0  0  0  # atno 11005 bound_to 11000
  144.6732  140.0865  143.7467 LP  0  0  0  0  0  0  0  0  0  0  0  0  # atno 17320 bound_to 7965
  145.9425  139.2678  143.1260 LP  0  0  0  0  0  0  0  0  0  0  0  0  # atno 17321 bound_to 7965
  140.0241  143.5511  152.2788 LP  0  0  0  0  0  0  0  0  0  0  0  0  # atno 17342 bound_to 10162
  139.6280  144.7640  151.2596 LP  0  0  0  0  0  0  0  0  0  0  0  0  # atno 17343 bound_to 10162
  157.3315  130.6987  149.6327 LP  0  0  0  0  0  0  0  0  0  0  0  0  # atno 17370 bound_to 10713
  155.9667  130.4306  150.4883 LP  0  0  0  0  0  0  0  0  0  0  0  0  # atno 17371 bound_to 10713
  139.8721  134.9824  156.5154 LP  0  0  0  0  0  0  0  0  0  0  0  0  # atno 17394 bound_to 11000
  140.8443  133.8181  155.9106 LP  0  0  0  0  0  0  0  0  0  0  0  0  # atno 17395 bound_to 11000

$$$$
