AV-unprocessed.smi:1285|AV-procd|sdf|5369|dock3
  -GOLD-   22720 4513D 1   1.00000     0.00000
 Structure written by MMmdl.
 46 47  0  0  0  0  0  0  0  0  1 V2000
  146.4088  133.6383  152.4240 C   0  0  0  0  0  0  0  0  0  0  0  0
  147.8658  133.4703  152.8922 C   0  0  0  0  0  0  0  0  0  0  0  0
  148.1079  133.6338  154.4268 C   0  0  1  0  0  0  0  0  0  0  0  0
  149.6462  133.5834  154.6334 C   0  0  0  0  0  0  0  0  0  0  0  0
  147.6038  135.0466  154.8676 C   0  0  0  0  0  0  0  0  0  0  0  0
  148.4525  136.1468  154.4093 N   0  0  0  0  0  0  0  0  0  0  0  0
  148.9813  137.1076  155.1845 C   0  0  0  0  0  0  0  0  0  0  0  0
  148.8090  137.1625  156.4026 O   0  0  0  0  0  0  0  0  0  0  0  0
  149.8242  138.1723  154.4664 C   0  0  1  0  0  0  0  0  0  0  0  0
  149.0545  139.4939  154.2672 C   0  0  0  0  0  0  0  0  0  0  0  0
  151.0903  138.3651  155.1628 N   0  0  0  0  0  0  0  0  0  0  0  0
  151.6231  139.4748  155.6795 C   0  0  0  0  0  0  0  0  0  0  0  0
  152.8263  139.3003  156.2076 N   0  0  0  0  0  0  0  0  0  0  0  0
  152.9955  137.9688  155.9533 C   0  0  0  0  0  0  0  0  0  0  0  0
  151.9912  137.3631  155.3201 N   0  0  0  0  0  0  0  0  0  0  0  0
  147.4417  132.5398  155.1889 N   0  0  0  0  0  0  0  0  0  0  0  0
  147.7899  131.1775  154.7682 C   0  0  0  0  0  0  0  0  0  0  0  0
  146.9494  130.1170  155.5000 C   0  0  0  0  0  0  0  0  0  0  0  0
  147.1093  130.2635  156.9061 O   0  0  0  0  0  0  0  0  0  0  0  0
  146.7303  131.5560  157.3640 C   0  0  0  0  0  0  0  0  0  0  0  0
  147.5730  132.6251  156.6487 C   0  0  0  0  0  0  0  0  0  0  0  0
  146.3419  133.5200  151.3424 H   0  0  0  0  0  0  0  0  0  0  0  0
  146.0138  134.6247  152.6663 H   0  0  0  0  0  0  0  0  0  0  0  0
  145.7514  132.8936  152.8718 H   0  0  0  0  0  0  0  0  0  0  0  0
  148.1940  132.4833  152.5664 H   0  0  0  0  0  0  0  0  0  0  0  0
  148.4965  134.1629  152.3349 H   0  0  0  0  0  0  0  0  0  0  0  0
  150.1768  134.2131  153.9183 H   0  0  0  0  0  0  0  0  0  0  0  0
  150.0350  132.5713  154.5186 H   0  0  0  0  0  0  0  0  0  0  0  0
  149.9373  133.9328  155.6241 H   0  0  0  0  0  0  0  0  0  0  0  0
  146.5772  135.2140  154.5412 H   0  0  0  0  0  0  0  0  0  0  0  0
  147.5813  135.1208  155.9541 H   0  0  0  0  0  0  0  0  0  0  0  0
  148.6424  136.1845  153.4185 H   0  0  0  0  0  0  0  0  0  0  0  0
  150.0629  137.7891  153.4726 H   0  0  0  0  0  0  0  0  0  0  0  0
  148.1380  139.3310  153.6990 H   0  0  0  0  0  0  0  0  0  0  0  0
  149.6569  140.2152  153.7143 H   0  0  0  0  0  0  0  0  0  0  0  0
  148.7751  139.9550  155.2154 H   0  0  0  0  0  0  0  0  0  0  0  0
  151.1216  140.4315  155.6664 H   0  0  0  0  0  0  0  0  0  0  0  0
  153.8877  137.4312  156.2385 H   0  0  0  0  0  0  0  0  0  0  0  0
  147.6309  131.0460  153.6994 H   0  0  0  0  0  0  0  0  0  0  0  0
  148.8444  130.9796  154.9598 H   0  0  0  0  0  0  0  0  0  0  0  0
  145.8949  130.2098  155.2348 H   0  0  0  0  0  0  0  0  0  0  0  0
  147.2658  129.1154  155.2086 H   0  0  0  0  0  0  0  0  0  0  0  0
  145.6665  131.7183  157.1829 H   0  0  0  0  0  0  0  0  0  0  0  0
  146.8838  131.6111  158.4418 H   0  0  0  0  0  0  0  0  0  0  0  0
  148.6149  132.4999  156.9428 H   0  0  0  0  0  0  0  0  0  0  0  0
  147.2560  133.5995  157.0153 H   0  0  0  0  0  0  0  0  0  0  0  0
  1  2  1  0  0  0  0
  1 22  1  0  0  0  0
  1 23  1  0  0  0  0
  1 24  1  0  0  0  0
  2  3  1  0  0  0  0
  2 25  1  0  0  0  0
  2 26  1  0  0  0  0
  3  4  1  0  0  0  0
  3  5  1  0  0  0  0
  3 16  1  0  0  0  0
  4 27  1  0  0  0  0
  4 28  1  0  0  0  0
  4 29  1  0  0  0  0
  5  6  1  0  0  0  0
  5 30  1  0  0  0  0
  5 31  1  0  0  0  0
  6  7  1  0  0  0  0
  6 32  1  0  0  0  0
  7  8  2  0  0  0  0
  7  9  1  0  0  0  0
  9 10  1  0  0  0  0
  9 11  1  0  0  0  0
  9 33  1  0  0  0  0
 10 34  1  0  0  0  0
 10 35  1  0  0  0  0
 10 36  1  0  0  0  0
 11 15  1  0  0  0  0
 11 12  1  0  0  0  0
 12 13  2  0  0  0  0
 12 37  1  0  0  0  0
 13 14  1  0  0  0  0
 14 15  2  0  0  0  0
 14 38  1  0  0  0  0
 16 21  1  0  0  0  0
 16 17  1  0  0  0  0
 17 18  1  0  0  0  0
 17 39  1  0  0  0  0
 17 40  1  0  0  0  0
 18 19  1  0  0  0  0
 18 41  1  0  0  0  0
 18 42  1  0  0  0  0
 19 20  1  0  0  0  0
 20 21  1  0  0  0  0
 20 43  1  0  0  0  0
 20 44  1  0  0  0  0
 21 45  1  0  0  0  0
 21 46  1  0  0  0  0
M  END
> <s_m_source_file>
AV-unprocessed.smi

> <i_m_source_file_index>
1285

> <i_lp_mmshare_version>
43012

> <i_f3d_flags>
0

> <s_epik_input>
W0NIMl0xW0NIMl1PW0NIMl1bQ0gyXU4xW0NAQF0oW0NIM10pKFtDSDJdW0NIM10pW0NIMl1bTkhdQyg9TylbQ0BIXShbQ0gzXSluMltjSF1uW2NIXW4y

> <s_epik_cmdline>
J2VwaWtfcHl0aG9uJywgJy1waCcsICc3LjAnLCAnLXRuJywgJzgnLCAnLW1hJywgJzIwMCcsICctbWV0YWxfYmluZGluZycsICctaW1hZScsICc8aW5maWxlLm1hZT4nLCAnLW9tYWUnLCAnPG91dGZpbGUubWFlPic=

> <r_lp_tautomer_probability>
1

> <r_epik_Ionization_Penalty>
0.285697

> <r_epik_Ionization_Penalty_Charging>
0

> <r_epik_Ionization_Penalty_Neutral>
0.285697

> <r_epik_State_Penalty>
0.278478

> <r_epik_Charging_Adjusted_Penalty>
0.278478

> <i_epik_Tot_Q>
0

> <i_epik_Tot_abs_Q>
0

> <r_epik_Metal_State_Penalty>
0.278477

> <b_epik_Metal_Only>
0

> <s_lp_Force_Field>
OPLS_2005

> <r_lp_Energy>
48.702

> <b_lp_Chiralities_Consistent>
1

> <s_lp_Variant>
AV-unprocessed.smi:1285-3

> <Gold.Version>
5.8.1

> <Gold.Id.Protein>
6NUR|6NUR_protein|mol2

> <Gold.PLP.Fitness>
31.7682

> <Gold.PLP.PLP>
-24.2869

> <Gold.PLP.part.hbond>
-3.0000

> <Gold.PLP.part.metal>
0.0000

> <Gold.PLP.part.buried>
-1.4469

> <Gold.PLP.part.nonpolar>
-20.9799

> <Gold.PLP.part.repulsive>
0.1044

> <Gold.PLP.ligand.clash>
0.0000

> <Gold.PLP.ligand.torsion>
0.6207

> <Gold.PLP.Chemscore.Hbond>
2.8247

> <Gold.PLP.Chemscore.CHOScore>
0.0000

> <Gold.PLP.Chemscore.Metal>
0.0000

> <Gold.Chemscore.Hbonds>
donor molecule, donor type, donor heavy atom, donor atom, acceptor molecule, acceptor atom, score
      L1  H     6    32       P1  7948  1.00
      P1  H  7997  8009       L1    13  1.00
      P1  H 10752 10764       L1    15  0.63

> <Gold.PLP.Chemscore.Internal.Correction>
0.2486

> <Gold.Rescore>
     Score         DG    S(hbond)    S(metal)    S(lipo)     H(rot)  DE(clash)    DE(int)     intcor
     10.73     -11.82       2.43        0.00      43.64       2.68       0.24       0.85       ----

> <Gold.Chemscore.Fitness>
10.7338

> <Gold.Chemscore.DG>
-11.8222

> <Gold.Chemscore.ZeroCoef>
-5.4800

> <Gold.Chemscore.Hbond>
2.4259

> <Gold.Chemscore.Metal>
0.0000

> <Gold.Chemscore.Lipo>
43.6397

> <Gold.Chemscore.Internal_Hbond>
0.0000

> <Gold.Chemscore.DEClash>
0.2390

> <Gold.Chemscore.DEInternal>
0.8494

> <Gold.Chemscore.Rot>
2.6821

> <Gold.Chemscore.Internal.Correction>
   9.000000E+99

> <Gold.Chemscore.Hbonds>
donor molecule, donor type, donor heavy atom, donor atom, acceptor molecule, acceptor atom, score
      L1  H     6    32       P1  7948  0.97
      P1  H  7997  8009       L1    13  0.78
      P1  H 10752 10764       L1    15  0.22

> <Gold.Chemscore.Hbond.Weighted>
-8.1025

> <Gold.Chemscore.Metal.Weighted>
-0.0000

> <Gold.Chemscore.Lipo.Weighted>
-5.1058

> <Gold.Chemscore.Internal_Hbond.Weighted>
0.0000

> <Gold.Chemscore.DEClash.Weighted>
0.2390

> <Gold.Chemscore.DEInternal.Weighted>
0.8494

> <Gold.Chemscore.Rot.Weighted>
6.8661

> <Gold.Chemscore.Internal.Correction.Weighted>
   9.000000E+99

> <Gold.Protein.RotatedTorsions>
[ 6907 6896 6895 6894 ] final  -88.97 input  -60.11 | X-H torsion
[ 7974 7965 7964 7962 ] final -126.27 input  175.53 | X-H torsion
[ 8008 7997 7996 7995 ] final -158.89 input   59.86 | X-H torsion
[ 10167 10162 10161 10158 ] final -175.19 input  -65.29 | X-H torsion
[ 10718 10713 10712 10709 ] final  -23.05 input   66.30 | X-H torsion
[ 10763 10752 10751 10750 ] final  -63.70 input  -60.55 | X-H torsion
[ 11005 11000 10999 10996 ] final  -40.03 input  -57.11 | X-H torsion

> <Gold.Protein.ActiveResidues>
 VAL166  LYS551  ARG553  GLY616  TRP617  ASP618  TYR619  PRO620  LYS621  CYS622 
 ASP623  PHE694  ASN695  SER759  ASP760  ASP761  ALA762  ILE779  LEU786  VAL792 
 PHE793  MET794  SER795  GLU796  ALA797  LYS798  CYS799  TRP800  GLU811  SER814 

> <Gold.Protein.RotatedAtoms>
  150.6871  134.2660  159.4568 H   0  0  0  0  0  0  0  0  0  0  0  0  # atno 6907 bound_to 6896
  152.0586  134.9606  160.0584 H   0  0  0  0  0  0  0  0  0  0  0  0  # atno 6908 bound_to 6896
  152.1042  133.4231  159.4638 H   0  0  0  0  0  0  0  0  0  0  0  0  # atno 6909 bound_to 6896
  144.9890  140.7713  143.4566 H   0  0  0  0  0  0  0  0  0  0  0  0  # atno 7974 bound_to 7965
  155.7543  140.0831  157.2186 H   0  0  0  0  0  0  0  0  0  0  0  0  # atno 8008 bound_to 7997
  154.4009  140.1554  156.2816 H   0  0  0  0  0  0  0  0  0  0  0  0  # atno 8009 bound_to 7997
  155.8900  140.3416  155.5952 H   0  0  0  0  0  0  0  0  0  0  0  0  # atno 8010 bound_to 7997
  139.5594  144.1908  152.1213 H   0  0  0  0  0  0  0  0  0  0  0  0  # atno 10167 bound_to 10162
  156.4963  130.4578  149.6726 H   0  0  0  0  0  0  0  0  0  0  0  0  # atno 10718 bound_to 10713
  154.3189  135.6200  153.5499 H   0  0  0  0  0  0  0  0  0  0  0  0  # atno 10763 bound_to 10752
  152.9822  135.5719  154.5092 H   0  0  0  0  0  0  0  0  0  0  0  0  # atno 10764 bound_to 10752
  154.4756  135.2861  155.1586 H   0  0  0  0  0  0  0  0  0  0  0  0  # atno 10765 bound_to 10752
  141.0145  133.6892  156.2266 H   0  0  0  0  0  0  0  0  0  0  0  0  # atno 11005 bound_to 11000
  145.2313  139.2113  143.5041 LP  0  0  0  0  0  0  0  0  0  0  0  0  # atno 17320 bound_to 7965
  146.3427  140.2191  142.8591 LP  0  0  0  0  0  0  0  0  0  0  0  0  # atno 17321 bound_to 7965
  140.1419  144.5194  150.6739 LP  0  0  0  0  0  0  0  0  0  0  0  0  # atno 17342 bound_to 10162
  140.6871  143.2356  151.5230 LP  0  0  0  0  0  0  0  0  0  0  0  0  # atno 17343 bound_to 10162
  156.3376  130.7365  151.2305 LP  0  0  0  0  0  0  0  0  0  0  0  0  # atno 17370 bound_to 10713
  157.7468  131.0412  150.4637 LP  0  0  0  0  0  0  0  0  0  0  0  0  # atno 17371 bound_to 10713
  140.6678  134.4899  157.5586 LP  0  0  0  0  0  0  0  0  0  0  0  0  # atno 17394 bound_to 11000
  139.9109  134.8348  156.1533 LP  0  0  0  0  0  0  0  0  0  0  0  0  # atno 17395 bound_to 11000

$$$$
