AV-unprocessed.smi:790|AV-procd|sdf|3743|dock6
  -GOLD-   22720 1173D 1   1.00000     0.00000
 Structure written by MMmdl.
 38 40  0  0  0  0  0  0  0  0  1 V2000
  145.8485  137.5464  154.6732 O   0  0  0  0  0  0  0  0  0  0  0  0
  146.6776  137.1210  153.8699 C   0  0  0  0  0  0  0  0  0  0  0  0
  147.8172  137.7428  153.5215 N   0  0  0  0  0  0  0  0  0  0  0  0
  148.3106  139.0052  153.9502 C   0  0  0  0  0  0  0  0  0  0  0  0
  147.3788  140.0480  154.1315 C   0  0  0  0  0  0  0  0  0  0  0  0
  147.8315  141.3064  154.5709 C   0  0  0  0  0  0  0  0  0  0  0  0
  149.2071  141.4725  154.8212 C   0  0  0  0  0  0  0  0  0  0  0  0
  150.1114  140.4829  154.6663 N   0  0  0  0  0  0  0  0  0  0  0  0
  149.6702  139.2782  154.2437 C   0  0  0  0  0  0  0  0  0  0  0  0
  146.5603  135.9432  153.2410 N   0  0  0  0  0  0  0  0  0  0  0  0
  145.4339  135.0172  153.3753 C   0  0  1  0  0  0  0  0  0  0  0  0
  144.1458  135.5576  152.7056 C   0  0  1  0  0  0  0  0  0  0  0  0
  144.4128  136.0133  151.2550 C   0  0  0  0  0  0  0  0  0  0  0  0
  144.6585  134.6808  150.5251 C   0  0  0  0  0  0  0  0  0  0  0  0
  144.4652  133.6336  151.6420 C   0  0  2  0  0  0  0  0  0  0  0  0
  143.3535  134.2772  152.4623 C   0  0  0  0  0  0  0  0  0  0  0  0
  145.6310  133.6477  152.6613 C   0  0  1  0  0  0  0  0  0  0  0  0
  147.0324  133.3333  152.0904 C   0  0  0  0  0  0  0  0  0  0  0  0
  147.0504  132.0432  151.5165 O   0  0  0  0  0  0  0  0  0  0  0  0
  148.4289  137.2294  152.9039 H   0  0  0  0  0  0  0  0  0  0  0  0
  146.3286  139.8893  153.9339 H   0  0  0  0  0  0  0  0  0  0  0  0
  147.1413  142.1246  154.7135 H   0  0  0  0  0  0  0  0  0  0  0  0
  149.5902  142.4240  155.1589 H   0  0  0  0  0  0  0  0  0  0  0  0
  150.4377  138.5248  154.1644 H   0  0  0  0  0  0  0  0  0  0  0  0
  147.2965  135.6682  152.6076 H   0  0  0  0  0  0  0  0  0  0  0  0
  145.2270  134.8428  154.4332 H   0  0  0  0  0  0  0  0  0  0  0  0
  143.6271  136.3064  153.3049 H   0  0  0  0  0  0  0  0  0  0  0  0
  143.5318  136.5092  150.8452 H   0  0  0  0  0  0  0  0  0  0  0  0
  145.2467  136.7080  151.1562 H   0  0  0  0  0  0  0  0  0  0  0  0
  143.9161  134.5404  149.7384 H   0  0  0  0  0  0  0  0  0  0  0  0
  145.6391  134.6337  150.0536 H   0  0  0  0  0  0  0  0  0  0  0  0
  144.2288  132.6372  151.2671 H   0  0  0  0  0  0  0  0  0  0  0  0
  143.1173  133.7331  153.3787 H   0  0  0  0  0  0  0  0  0  0  0  0
  142.4331  134.4363  151.8973 H   0  0  0  0  0  0  0  0  0  0  0  0
  145.4204  132.8720  153.4002 H   0  0  0  0  0  0  0  0  0  0  0  0
  147.3490  134.0627  151.3459 H   0  0  0  0  0  0  0  0  0  0  0  0
  147.7743  133.3545  152.8887 H   0  0  0  0  0  0  0  0  0  0  0  0
  147.8213  131.9657  150.9753 H   0  0  0  0  0  0  0  0  0  0  0  0
  1  2  2  0  0  0  0
  2  3  1  0  0  0  0
  2 10  1  0  0  0  0
  3  4  1  0  0  0  0
  3 20  1  0  0  0  0
  4  9  1  0  0  0  0
  4  5  2  0  0  0  0
  5  6  1  0  0  0  0
  5 21  1  0  0  0  0
  6  7  2  0  0  0  0
  6 22  1  0  0  0  0
  7  8  1  0  0  0  0
  7 23  1  0  0  0  0
  8  9  2  0  0  0  0
  9 24  1  0  0  0  0
 10 11  1  0  0  0  0
 10 25  1  0  0  0  0
 11 17  1  0  0  0  0
 11 12  1  0  0  0  0
 11 26  1  0  0  0  0
 12 16  1  0  0  0  0
 12 13  1  0  0  0  0
 12 27  1  0  0  0  0
 13 14  1  0  0  0  0
 13 28  1  0  0  0  0
 13 29  1  0  0  0  0
 14 15  1  0  0  0  0
 14 30  1  0  0  0  0
 14 31  1  0  0  0  0
 15 16  1  0  0  0  0
 15 17  1  0  0  0  0
 15 32  1  0  0  0  0
 16 33  1  0  0  0  0
 16 34  1  0  0  0  0
 17 18  1  0  0  0  0
 17 35  1  0  0  0  0
 18 19  1  0  0  0  0
 18 36  1  0  0  0  0
 18 37  1  0  0  0  0
 19 38  1  0  0  0  0
M  END
> <s_m_source_file>
AV-unprocessed.smi

> <i_m_source_file_index>
790

> <i_lp_mmshare_version>
43012

> <i_f3d_flags>
0

> <s_epik_input>
W0NIMl0xW0NIMl1bQ0BASF0oW0NIMl0yKVtDQEBIXShbQ0gyXVtPSF0pW0NAQEhdKFtDQEhdMTIpW05IXUMoPU8pW05IXWMzW2NIXVtjSF1bY0hdbltjSF0z

> <s_epik_cmdline>
J2VwaWtfcHl0aG9uJywgJy1waCcsICc3LjAnLCAnLXRuJywgJzgnLCAnLW1hJywgJzIwMCcsICctbWV0YWxfYmluZGluZycsICctaW1hZScsICc8aW5maWxlLm1hZT4nLCAnLW9tYWUnLCAnPG91dGZpbGUubWFlPic=

> <r_epik_Ionization_Penalty>
0.00497582

> <r_epik_Ionization_Penalty_Charging>
0

> <r_epik_Ionization_Penalty_Neutral>
0.00497582

> <r_epik_State_Penalty>
0.00358602

> <r_epik_Charging_Adjusted_Penalty>
0.00358602

> <i_epik_Tot_Q>
0

> <i_epik_Tot_abs_Q>
0

> <r_epik_Metal_State_Penalty>
-0

> <b_epik_Metal_Only>
0

> <s_lp_Force_Field>
OPLS_2005

> <r_lp_Energy>
55.7442

> <b_lp_Chiralities_Consistent>
1

> <s_lp_Variant>
AV-unprocessed.smi:790-4

> <Gold.Version>
5.8.1

> <Gold.Id.Protein>
6NUR|6NUR_protein|mol2

> <Gold.PLP.Fitness>
42.9272

> <Gold.PLP.PLP>
-29.3362

> <Gold.PLP.part.hbond>
-3.9947

> <Gold.PLP.part.metal>
0.0000

> <Gold.PLP.part.buried>
-1.3262

> <Gold.PLP.part.nonpolar>
-23.9426

> <Gold.PLP.part.repulsive>
0.2045

> <Gold.PLP.ligand.clash>
0.0000

> <Gold.PLP.ligand.torsion>
0.3728

> <Gold.PLP.Chemscore.Hbond>
3.7760

> <Gold.PLP.Chemscore.CHOScore>
1.0000

> <Gold.PLP.Chemscore.Metal>
0.0000

> <Gold.Chemscore.Hbonds>
donor molecule, donor type, donor heavy atom, donor atom, acceptor molecule, acceptor atom, score
      L1  H     3    20       P1  7948  0.99
      L1  H    10    25       P1  7948  0.90
      L1  H    19    38       P1 10747  0.91
      P1  H  7989  7998       L1     8  0.93
      L1  C     7    23       P1  8028  1.00

> <Gold.PLP.Chemscore.Internal.Correction>
0.0087

> <Gold.Rescore>
     Score         DG    S(hbond)    S(metal)    S(lipo)     H(rot)  DE(clash)    DE(int)     intcor
     18.34     -19.98       3.26        0.00      69.74       1.78       0.11       1.54       ----

> <Gold.Chemscore.Fitness>
18.3352

> <Gold.Chemscore.DG>
-19.9845

> <Gold.Chemscore.ZeroCoef>
-5.4800

> <Gold.Chemscore.Hbond>
3.2628

> <Gold.Chemscore.Metal>
0.0000

> <Gold.Chemscore.Lipo>
69.7386

> <Gold.Chemscore.Internal_Hbond>
0.0000

> <Gold.Chemscore.DEClash>
0.1135

> <Gold.Chemscore.DEInternal>
1.5359

> <Gold.Chemscore.Rot>
1.7783

> <Gold.Chemscore.Internal.Correction>
   9.000000E+99

> <Gold.Chemscore.Hbonds>
donor molecule, donor type, donor heavy atom, donor atom, acceptor molecule, acceptor atom, score
      L1  H     3    20       P1  7948  0.92
      L1  H    10    25       P1  7948  0.86
      L1  H    19    38       P1 10747  0.90
      P1  H  7989  7998       L1     8  0.37

> <Gold.Chemscore.Hbond.Weighted>
-10.8976

> <Gold.Chemscore.Metal.Weighted>
-0.0000

> <Gold.Chemscore.Lipo.Weighted>
-8.1594

> <Gold.Chemscore.Internal_Hbond.Weighted>
0.0000

> <Gold.Chemscore.DEClash.Weighted>
0.1135

> <Gold.Chemscore.DEInternal.Weighted>
1.5359

> <Gold.Chemscore.Rot.Weighted>
4.5525

> <Gold.Chemscore.Internal.Correction.Weighted>
   9.000000E+99

> <Gold.Protein.RotatedTorsions>
[ 6907 6896 6895 6894 ] final  -95.29 input  -60.11 | X-H torsion
[ 7974 7965 7964 7962 ] final  141.20 input  175.53 | X-H torsion
[ 8008 7997 7996 7995 ] final -136.18 input   59.86 | X-H torsion
[ 10167 10162 10161 10158 ] final  109.71 input  -65.29 | X-H torsion
[ 10718 10713 10712 10709 ] final  165.00 input   66.30 | X-H torsion
[ 10763 10752 10751 10750 ] final -149.14 input  -60.55 | X-H torsion
[ 11005 11000 10999 10996 ] final  -14.31 input  -57.11 | X-H torsion

> <Gold.Protein.ActiveResidues>
 VAL166  LYS551  ARG553  GLY616  TRP617  ASP618  TYR619  PRO620  LYS621  CYS622 
 ASP623  PHE694  ASN695  SER759  ASP760  ASP761  ALA762  ILE779  LEU786  VAL792 
 PHE793  MET794  SER795  GLU796  ALA797  LYS798  CYS799  TRP800  GLU811  SER814 

> <Gold.Protein.RotatedAtoms>
  150.6960  134.1680  159.4201 H   0  0  0  0  0  0  0  0  0  0  0  0  # atno 6907 bound_to 6896
  151.9659  135.0098  160.0559 H   0  0  0  0  0  0  0  0  0  0  0  0  # atno 6908 bound_to 6896
  152.1885  133.4721  159.5032 H   0  0  0  0  0  0  0  0  0  0  0  0  # atno 6909 bound_to 6896
  144.9118  139.5283  143.5705 H   0  0  0  0  0  0  0  0  0  0  0  0  # atno 7974 bound_to 7965
  155.3910  140.0500  157.3040 H   0  0  0  0  0  0  0  0  0  0  0  0  # atno 8008 bound_to 7997
  154.5036  140.2166  155.9257 H   0  0  0  0  0  0  0  0  0  0  0  0  # atno 8009 bound_to 7997
  156.1498  140.3138  155.8635 H   0  0  0  0  0  0  0  0  0  0  0  0  # atno 8010 bound_to 7997
  139.6745  144.7123  151.1626 H   0  0  0  0  0  0  0  0  0  0  0  0  # atno 10167 bound_to 10162
  157.0864  131.0406  151.2555 H   0  0  0  0  0  0  0  0  0  0  0  0  # atno 10718 bound_to 10713
  154.8194  135.3316  154.7083 H   0  0  0  0  0  0  0  0  0  0  0  0  # atno 10763 bound_to 10752
  153.7718  135.6925  153.4909 H   0  0  0  0  0  0  0  0  0  0  0  0  # atno 10764 bound_to 10752
  153.2039  135.4506  155.0248 H   0  0  0  0  0  0  0  0  0  0  0  0  # atno 10765 bound_to 10752
  140.7851  133.8332  155.9328 H   0  0  0  0  0  0  0  0  0  0  0  0  # atno 11005 bound_to 11000
  146.3162  139.7929  142.8981 LP  0  0  0  0  0  0  0  0  0  0  0  0  # atno 17320 bound_to 7965
  145.3442  141.0294  143.3375 LP  0  0  0  0  0  0  0  0  0  0  0  0  # atno 17321 bound_to 7965
  140.7630  143.5792  150.8912 LP  0  0  0  0  0  0  0  0  0  0  0  0  # atno 17342 bound_to 10162
  139.9460  143.6327  152.3041 LP  0  0  0  0  0  0  0  0  0  0  0  0  # atno 17343 bound_to 10162
  157.4757  130.7735  149.7366 LP  0  0  0  0  0  0  0  0  0  0  0  0  # atno 17370 bound_to 10713
  155.9909  130.3941  150.3005 LP  0  0  0  0  0  0  0  0  0  0  0  0  # atno 17371 bound_to 10713
  140.9444  134.1859  157.4774 LP  0  0  0  0  0  0  0  0  0  0  0  0  # atno 17394 bound_to 11000
  139.8737  134.9885  156.5413 LP  0  0  0  0  0  0  0  0  0  0  0  0  # atno 17395 bound_to 11000

$$$$
