AV-unprocessed.smi:1244|AV-procd|sdf|5229|dock3
  -GOLD-   22720 4333D 1   1.00000     0.00000
 Structure written by MMmdl.
 55 57  0  0  0  0  0  0  0  0  2 V2000
  147.6868  141.3853  154.6442 C   0  0  0  0  0  0  0  0  0  0  0  0
  149.2145  141.2996  154.7226 C   0  0  2  0  0  0  0  0  0  0  0  0
  149.7346  139.8778  154.4377 C   0  0  0  0  0  0  0  0  0  0  0  0
  151.1820  139.7889  154.5871 N   0  0  0  0  0  0  0  0  0  0  0  0
  151.6632  138.4393  154.2900 C   0  0  0  0  0  0  0  0  0  0  0  0
  151.1256  137.3308  155.2178 C   0  0  0  0  0  0  0  0  0  0  0  0
  149.9528  136.6723  154.6515 N   0  0  0  0  0  0  0  0  0  0  0  0
  148.8834  136.2696  155.3509 C   0  0  0  0  0  0  0  0  0  0  0  0
  148.8027  136.3386  156.5773 O   0  0  0  0  0  0  0  0  0  0  0  0
  147.9145  135.8183  154.5380 N   0  0  0  0  0  0  0  0  0  0  0  0
  146.6024  135.4049  154.9000 C   0  0  0  0  0  0  0  0  0  0  0  0
  146.1519  135.4439  156.2438 C   0  0  0  0  0  0  0  0  0  0  0  0
  144.8462  135.0184  156.5558 C   0  0  0  0  0  0  0  0  0  0  0  0
  144.0150  134.5530  155.5213 C   0  0  0  0  0  0  0  0  0  0  0  0
  144.4797  134.5148  154.2550 N   0  3  0  0  0  0  0  0  0  0  0  0
  145.7253  134.9122  153.8959 C   0  0  0  0  0  0  0  0  0  0  0  0
  146.1127  134.8082  152.5433 N   0  0  0  0  0  0  0  0  0  0  0  0
  146.2759  133.4356  152.0717 C   0  0  0  0  0  0  0  0  0  0  0  0
  145.7902  133.4152  150.6206 C   0  0  0  0  0  0  0  0  0  0  0  0
  144.7825  134.5574  150.5769 C   0  0  0  0  0  0  0  0  0  0  0  0
  145.4038  135.5814  151.5250 C   0  0  0  0  0  0  0  0  0  0  0  0
  151.5493  140.2352  155.9278 C   0  0  0  0  0  0  0  0  0  0  0  0
  151.0314  141.6566  156.2205 C   0  0  2  0  0  0  0  0  0  0  0  0
  151.3373  142.1011  157.6545 C   0  0  0  0  0  0  0  0  0  0  0  0
  149.6192  141.6884  156.0326 O   0  0  0  0  0  0  0  0  0  0  0  0
  147.3287  141.1089  153.6522 H   0  0  0  0  0  0  0  0  0  0  0  0
  147.3426  142.3987  154.8514 H   0  0  0  0  0  0  0  0  0  0  0  0
  147.2168  140.7191  155.3681 H   0  0  0  0  0  0  0  0  0  0  0  0
  149.6422  141.9963  153.9994 H   0  0  0  0  0  0  0  0  0  0  0  0
  149.2499  139.1697  155.1122 H   0  0  0  0  0  0  0  0  0  0  0  0
  149.4507  139.5876  153.4252 H   0  0  0  0  0  0  0  0  0  0  0  0
  151.4349  138.1854  153.2539 H   0  0  0  0  0  0  0  0  0  0  0  0
  152.7516  138.4312  154.3613 H   0  0  0  0  0  0  0  0  0  0  0  0
  151.8907  136.5758  155.3973 H   0  0  0  0  0  0  0  0  0  0  0  0
  150.8820  137.7486  156.1957 H   0  0  0  0  0  0  0  0  0  0  0  0
  149.9310  136.5759  153.6471 H   0  0  0  0  0  0  0  0  0  0  0  0
  148.0868  135.9124  153.5480 H   0  0  0  0  0  0  0  0  0  0  0  0
  146.7940  135.7850  157.0420 H   0  0  0  0  0  0  0  0  0  0  0  0
  144.4903  135.0454  157.5753 H   0  0  0  0  0  0  0  0  0  0  0  0
  143.0026  134.2051  155.6675 H   0  0  0  0  0  0  0  0  0  0  0  0
  147.3153  133.1149  152.1439 H   0  0  0  0  0  0  0  0  0  0  0  0
  145.6726  132.7561  152.6766 H   0  0  0  0  0  0  0  0  0  0  0  0
  146.6217  133.6329  149.9485 H   0  0  0  0  0  0  0  0  0  0  0  0
  145.3622  132.4559  150.3289 H   0  0  0  0  0  0  0  0  0  0  0  0
  144.6236  134.9502  149.5721 H   0  0  0  0  0  0  0  0  0  0  0  0
  143.8212  134.2210  150.9679 H   0  0  0  0  0  0  0  0  0  0  0  0
  144.6595  136.2755  151.9155 H   0  0  0  0  0  0  0  0  0  0  0  0
  146.1428  136.1802  150.9913 H   0  0  0  0  0  0  0  0  0  0  0  0
  151.1502  139.5412  156.6694 H   0  0  0  0  0  0  0  0  0  0  0  0
  152.6327  140.2273  156.0431 H   0  0  0  0  0  0  0  0  0  0  0  0
  151.4948  142.3622  155.5286 H   0  0  0  0  0  0  0  0  0  0  0  0
  152.4109  142.1058  157.8437 H   0  0  0  0  0  0  0  0  0  0  0  0
  150.8711  141.4353  158.3815 H   0  0  0  0  0  0  0  0  0  0  0  0
  150.9633  143.1086  157.8378 H   0  0  0  0  0  0  0  0  0  0  0  0
  143.8579  134.1628  153.5268 H   0  0  0  0  0  0  0  0  0  0  0  0
  1  2  1  0  0  0  0
  1 26  1  0  0  0  0
  1 27  1  0  0  0  0
  1 28  1  0  0  0  0
  2 25  1  0  0  0  0
  2  3  1  0  0  0  0
  2 29  1  0  0  0  0
  3  4  1  0  0  0  0
  3 30  1  0  0  0  0
  3 31  1  0  0  0  0
  4  5  1  0  0  0  0
  4 22  1  0  0  0  0
  5  6  1  0  0  0  0
  5 32  1  0  0  0  0
  5 33  1  0  0  0  0
  6  7  1  0  0  0  0
  6 34  1  0  0  0  0
  6 35  1  0  0  0  0
  7  8  1  0  0  0  0
  7 36  1  0  0  0  0
  8  9  2  0  0  0  0
  8 10  1  0  0  0  0
 10 11  1  0  0  0  0
 10 37  1  0  0  0  0
 11 16  1  0  0  0  0
 11 12  2  0  0  0  0
 12 13  1  0  0  0  0
 12 38  1  0  0  0  0
 13 14  2  0  0  0  0
 13 39  1  0  0  0  0
 14 15  1  0  0  0  0
 14 40  1  0  0  0  0
 15 16  2  0  0  0  0
 15 55  1  0  0  0  0
 16 17  1  0  0  0  0
 17 21  1  0  0  0  0
 17 18  1  0  0  0  0
 18 19  1  0  0  0  0
 18 41  1  0  0  0  0
 18 42  1  0  0  0  0
 19 20  1  0  0  0  0
 19 43  1  0  0  0  0
 19 44  1  0  0  0  0
 20 21  1  0  0  0  0
 20 45  1  0  0  0  0
 20 46  1  0  0  0  0
 21 47  1  0  0  0  0
 21 48  1  0  0  0  0
 22 23  1  0  0  0  0
 22 49  1  0  0  0  0
 22 50  1  0  0  0  0
 23 24  1  0  0  0  0
 23 25  1  0  0  0  0
 23 51  1  0  0  0  0
 24 52  1  0  0  0  0
 24 53  1  0  0  0  0
 24 54  1  0  0  0  0
M  CHG  1  15   1
M  END
> <s_m_source_file>
AV-unprocessed.smi

> <i_m_source_file_index>
1244

> <i_lp_mmshare_version>
43012

> <i_f3d_flags>
0

> <s_epik_input>
W0NIM11bQ0BASF0xW0NIMl1OKFtDSDJdW0NASF0oTzEpW0NIM10pW0NIMl1bQ0gyXVtOSF1DKD1PKVtOSF1jMltjSF1bY0hdW2NIXW5jMk4zW0NIMl1bQ0gyXVtDSDJdW0NIMl0z

> <s_epik_cmdline>
J2VwaWtfcHl0aG9uJywgJy1waCcsICc3LjAnLCAnLXRuJywgJzgnLCAnLW1hJywgJzIwMCcsICctbWV0YWxfYmluZGluZycsICctaW1hZScsICc8aW5maWxlLm1hZT4nLCAnLW9tYWUnLCAnPG91dGZpbGUubWFlPic=

> <r_epik_Ionization_Penalty>
1.38385

> <r_epik_Ionization_Penalty_Charging>
1.11784

> <r_epik_Ionization_Penalty_Neutral>
0.26601

> <r_epik_State_Penalty>
1.46794

> <r_epik_Charging_Adjusted_Penalty>
2.58578

> <i_epik_Tot_Q>
1

> <i_epik_Tot_abs_Q>
1

> <r_epik_Metal_State_Penalty>
1.54908

> <b_epik_Metal_Only>
0

> <s_lp_Force_Field>
OPLS_2005

> <r_lp_Energy>
57.7362

> <b_lp_Chiralities_Consistent>
1

> <s_lp_Variant>
AV-unprocessed.smi:1244-9

> <Gold.Version>
5.8.1

> <Gold.Id.Protein>
6NUR|6NUR_protein|mol2

> <Gold.PLP.Fitness>
44.9568

> <Gold.PLP.PLP>
-36.7313

> <Gold.PLP.part.hbond>
-3.0000

> <Gold.PLP.part.metal>
0.0000

> <Gold.PLP.part.buried>
-5.5949

> <Gold.PLP.part.nonpolar>
-28.5756

> <Gold.PLP.part.repulsive>
0.4505

> <Gold.PLP.ligand.clash>
0.0000

> <Gold.PLP.ligand.torsion>
0.4822

> <Gold.PLP.Chemscore.Hbond>
3.0000

> <Gold.PLP.Chemscore.CHOScore>
0.0000

> <Gold.PLP.Chemscore.Metal>
0.0000

> <Gold.Chemscore.Hbonds>
donor molecule, donor type, donor heavy atom, donor atom, acceptor molecule, acceptor atom, score
      L1  H     7    36       P1  7948  1.00
      L1  H    10    37       P1  7948  1.00
      P1  H  7989  7998       L1     4  1.00

> <Gold.PLP.Chemscore.Internal.Correction>
0.1900

> <Gold.Rescore>
     Score         DG    S(hbond)    S(metal)    S(lipo)     H(rot)  DE(clash)    DE(int)     intcor
     14.65     -16.77       1.55        0.00      86.88       1.58       0.02       2.10       ----

> <Gold.Chemscore.Fitness>
14.6520

> <Gold.Chemscore.DG>
-16.7680

> <Gold.Chemscore.ZeroCoef>
-5.4800

> <Gold.Chemscore.Hbond>
1.5471

> <Gold.Chemscore.Metal>
0.0000

> <Gold.Chemscore.Lipo>
86.8775

> <Gold.Chemscore.Internal_Hbond>
0.0000

> <Gold.Chemscore.DEClash>
0.0210

> <Gold.Chemscore.DEInternal>
2.0951

> <Gold.Chemscore.Rot>
1.5797

> <Gold.Chemscore.Internal.Correction>
   9.000000E+99

> <Gold.Chemscore.Hbonds>
donor molecule, donor type, donor heavy atom, donor atom, acceptor molecule, acceptor atom, score
      L1  H     7    36       P1  7948  0.23
      L1  H    10    37       P1  7948  0.99
      P1  H  7989  7998       L1     4  0.17

> <Gold.Chemscore.Hbond.Weighted>
-5.1673

> <Gold.Chemscore.Metal.Weighted>
-0.0000

> <Gold.Chemscore.Lipo.Weighted>
-10.1647

> <Gold.Chemscore.Internal_Hbond.Weighted>
0.0000

> <Gold.Chemscore.DEClash.Weighted>
0.0210

> <Gold.Chemscore.DEInternal.Weighted>
2.0951

> <Gold.Chemscore.Rot.Weighted>
4.0439

> <Gold.Chemscore.Internal.Correction.Weighted>
   9.000000E+99

> <Gold.Protein.RotatedTorsions>
[ 6907 6896 6895 6894 ] final -135.13 input  -60.11 | X-H torsion
[ 7974 7965 7964 7962 ] final   -4.82 input  175.53 | X-H torsion
[ 8008 7997 7996 7995 ] final  159.00 input   59.86 | X-H torsion
[ 10167 10162 10161 10158 ] final -149.79 input  -65.29 | X-H torsion
[ 10718 10713 10712 10709 ] final  -80.09 input   66.30 | X-H torsion
[ 10763 10752 10751 10750 ] final   17.63 input  -60.55 | X-H torsion
[ 11005 11000 10999 10996 ] final  173.74 input  -57.11 | X-H torsion

> <Gold.Protein.ActiveResidues>
 VAL166  LYS551  ARG553  GLY616  TRP617  ASP618  TYR619  PRO620  LYS621  CYS622 
 ASP623  PHE694  ASN695  SER759  ASP760  ASP761  ALA762  ILE779  LEU786  VAL792 
 PHE793  MET794  SER795  GLU796  ALA797  LYS798  CYS799  TRP800  GLU811  SER814 

> <Gold.Protein.RotatedAtoms>
  150.9942  133.6120  159.2703 H   0  0  0  0  0  0  0  0  0  0  0  0  # atno 6907 bound_to 6896
  151.3329  135.0845  159.9354 H   0  0  0  0  0  0  0  0  0  0  0  0  # atno 6908 bound_to 6896
  152.5255  133.9568  159.7752 H   0  0  0  0  0  0  0  0  0  0  0  0  # atno 6909 bound_to 6896
  146.2365  140.1929  142.8333 H   0  0  0  0  0  0  0  0  0  0  0  0  # atno 7974 bound_to 7965
  156.2267  140.1843  156.7346 H   0  0  0  0  0  0  0  0  0  0  0  0  # atno 8008 bound_to 7997
  154.5952  140.0644  156.9322 H   0  0  0  0  0  0  0  0  0  0  0  0  # atno 8009 bound_to 7997
  155.2267  140.3311  155.4311 H   0  0  0  0  0  0  0  0  0  0  0  0  # atno 8010 bound_to 7997
  139.7411  143.8661  152.2562 H   0  0  0  0  0  0  0  0  0  0  0  0  # atno 10167 bound_to 10162
  156.0078  130.4564  150.3748 H   0  0  0  0  0  0  0  0  0  0  0  0  # atno 10718 bound_to 10713
  153.1321  135.6742  153.9161 H   0  0  0  0  0  0  0  0  0  0  0  0  # atno 10763 bound_to 10752
  153.8644  135.3077  155.3440 H   0  0  0  0  0  0  0  0  0  0  0  0  # atno 10764 bound_to 10752
  154.7716  135.4936  153.9742 H   0  0  0  0  0  0  0  0  0  0  0  0  # atno 10765 bound_to 10752
  140.3438  134.7254  157.4220 H   0  0  0  0  0  0  0  0  0  0  0  0  # atno 11005 bound_to 11000
  144.9843  140.8489  143.5378 LP  0  0  0  0  0  0  0  0  0  0  0  0  # atno 17320 bound_to 7965
  145.1926  139.2293  143.5234 LP  0  0  0  0  0  0  0  0  0  0  0  0  # atno 17321 bound_to 7965
  139.8612  144.7116  150.9098 LP  0  0  0  0  0  0  0  0  0  0  0  0  # atno 17342 bound_to 10162
  140.7786  143.3816  151.1466 LP  0  0  0  0  0  0  0  0  0  0  0  0  # atno 17343 bound_to 10162
  157.1830  131.0397  151.2739 LP  0  0  0  0  0  0  0  0  0  0  0  0  # atno 17370 bound_to 10713
  157.4129  130.7395  149.6852 LP  0  0  0  0  0  0  0  0  0  0  0  0  # atno 17371 bound_to 10713
  140.0759  134.5798  155.8591 LP  0  0  0  0  0  0  0  0  0  0  0  0  # atno 17394 bound_to 11000
  141.2031  133.6630  156.6045 LP  0  0  0  0  0  0  0  0  0  0  0  0  # atno 17395 bound_to 11000

$$$$
