AV-unprocessed.smi:959|AV-procd|sdf|4270|dock3
  -GOLD-   22720 2173D 1   1.00000     0.00000
 Structure written by MMmdl.
 33 34  0  0  0  0  0  0  0  0  2 V2000
  151.9136  144.6936  158.8786 C   0  0  0  0  0  0  0  0  0  0  0  0
  151.6633  143.5024  159.8199 C   0  0  0  0  0  0  0  0  0  0  0  0
  152.2837  143.7397  161.2048 C   0  0  0  0  0  0  0  0  0  0  0  0
  152.1368  142.2408  159.2561 N   0  0  0  0  0  0  0  0  0  0  0  0
  153.0973  141.4203  159.7180 C   0  0  0  0  0  0  0  0  0  0  0  0
  153.3011  140.3197  158.9976 N   0  0  0  0  0  0  0  0  0  0  0  0
  152.3830  140.4028  157.9743 N   0  0  0  0  0  0  0  0  0  0  0  0
  151.7016  141.5371  158.1844 C   0  0  0  0  0  0  0  0  0  0  0  0
  150.5856  141.9920  157.2835 C   0  0  1  0  0  0  0  0  0  0  0  0
  150.3219  140.9864  156.1471 C   0  0  0  0  0  0  0  0  0  0  0  0
  149.1685  141.4705  155.2551 C   0  0  0  0  0  0  0  0  0  0  0  0
  147.9108  141.7601  156.0911 C   0  0  0  0  0  0  0  0  0  0  0  0
  148.2091  142.7342  157.1635 N   0  3  0  0  0  0  0  0  0  0  0  0
  149.2893  142.2835  158.0692 C   0  0  0  0  0  0  0  0  0  0  0  0
  151.4566  145.6017  159.2732 H   0  0  0  0  0  0  0  0  0  0  0  0
  151.4849  144.5151  157.8919 H   0  0  0  0  0  0  0  0  0  0  0  0
  152.9778  144.8949  158.7532 H   0  0  0  0  0  0  0  0  0  0  0  0
  150.5819  143.4270  159.9324 H   0  0  0  0  0  0  0  0  0  0  0  0
  151.9042  144.6591  161.6517 H   0  0  0  0  0  0  0  0  0  0  0  0
  153.3692  143.8242  161.1421 H   0  0  0  0  0  0  0  0  0  0  0  0
  152.0535  142.9224  161.8885 H   0  0  0  0  0  0  0  0  0  0  0  0
  153.6731  141.6301  160.6071 H   0  0  0  0  0  0  0  0  0  0  0  0
  150.8762  142.9336  156.8204 H   0  0  0  0  0  0  0  0  0  0  0  0
  151.2233  140.8497  155.5482 H   0  0  0  0  0  0  0  0  0  0  0  0
  150.0735  140.0090  156.5634 H   0  0  0  0  0  0  0  0  0  0  0  0
  149.4709  142.3730  154.7224 H   0  0  0  0  0  0  0  0  0  0  0  0
  148.9468  140.7217  154.4941 H   0  0  0  0  0  0  0  0  0  0  0  0
  147.1184  142.1597  155.4579 H   0  0  0  0  0  0  0  0  0  0  0  0
  147.5300  140.8400  156.5367 H   0  0  0  0  0  0  0  0  0  0  0  0
  148.4897  143.6056  156.7366 H   0  0  0  0  0  0  0  0  0  0  0  0
  148.9508  141.3937  158.6024 H   0  0  0  0  0  0  0  0  0  0  0  0
  149.4648  143.0566  158.8183 H   0  0  0  0  0  0  0  0  0  0  0  0
  147.3713  142.8917  157.7054 H   0  0  0  0  0  0  0  0  0  0  0  0
  1  2  1  0  0  0  0
  1 15  1  0  0  0  0
  1 16  1  0  0  0  0
  1 17  1  0  0  0  0
  2  3  1  0  0  0  0
  2  4  1  0  0  0  0
  2 18  1  0  0  0  0
  3 19  1  0  0  0  0
  3 20  1  0  0  0  0
  3 21  1  0  0  0  0
  4  8  1  0  0  0  0
  4  5  1  0  0  0  0
  5  6  2  0  0  0  0
  5 22  1  0  0  0  0
  6  7  1  0  0  0  0
  7  8  2  0  0  0  0
  8  9  1  0  0  0  0
  9 14  1  0  0  0  0
  9 10  1  0  0  0  0
  9 23  1  0  0  0  0
 10 11  1  0  0  0  0
 10 24  1  0  0  0  0
 10 25  1  0  0  0  0
 11 12  1  0  0  0  0
 11 26  1  0  0  0  0
 11 27  1  0  0  0  0
 12 13  1  0  0  0  0
 12 28  1  0  0  0  0
 12 29  1  0  0  0  0
 13 14  1  0  0  0  0
 13 30  1  0  0  0  0
 13 33  1  0  0  0  0
 14 31  1  0  0  0  0
 14 32  1  0  0  0  0
M  CHG  1  13   1
M  END
> <s_m_source_file>
AV-unprocessed.smi

> <i_m_source_file_index>
959

> <i_lp_mmshare_version>
43012

> <i_f3d_flags>
0

> <s_epik_input>
W0NIM11bQ0hdKFtDSDNdKW4xW2NIXW5uYzFbQ0BASF0yW0NIMl1bQ0gyXVtDSDJdW05IXVtDSDJdMg==

> <s_epik_cmdline>
J2VwaWtfcHl0aG9uJywgJy1waCcsICc3LjAnLCAnLXRuJywgJzgnLCAnLW1hJywgJzIwMCcsICctbWV0YWxfYmluZGluZycsICctaW1hZScsICc8aW5maWxlLm1hZT4nLCAnLW9tYWUnLCAnPG91dGZpbGUubWFlPic=

> <r_lp_tautomer_probability>
1

> <r_epik_Ionization_Penalty>
0.000442722

> <r_epik_Ionization_Penalty_Charging>
0.000426856

> <r_epik_Ionization_Penalty_Neutral>
1.58656e-05

> <r_epik_State_Penalty>
-0

> <r_epik_Charging_Adjusted_Penalty>
0.000426856

> <i_epik_Tot_Q>
1

> <i_epik_Tot_abs_Q>
1

> <r_epik_Metal_State_Penalty>
-0

> <b_epik_Metal_Only>
0

> <s_lp_Force_Field>
OPLS_2005

> <r_lp_Energy>
20.311

> <b_lp_Chiralities_Consistent>
1

> <s_lp_Variant>
AV-unprocessed.smi:959-2

> <Gold.Version>
5.8.1

> <Gold.Id.Protein>
6NUR|6NUR_protein|mol2

> <Gold.PLP.Fitness>
41.6426

> <Gold.PLP.PLP>
-33.6542

> <Gold.PLP.part.hbond>
-2.0348

> <Gold.PLP.part.metal>
0.0000

> <Gold.PLP.part.buried>
-2.3302

> <Gold.PLP.part.nonpolar>
-28.3081

> <Gold.PLP.part.repulsive>
0.0196

> <Gold.PLP.ligand.clash>
0.0000

> <Gold.PLP.ligand.torsion>
0.1560

> <Gold.PLP.Chemscore.Hbond>
2.7426

> <Gold.PLP.Chemscore.CHOScore>
0.0000

> <Gold.PLP.Chemscore.Metal>
0.0000

> <Gold.Chemscore.Hbonds>
donor molecule, donor type, donor heavy atom, donor atom, acceptor molecule, acceptor atom, score
      L1  H    13    30       P1  8028  1.90

> <Gold.PLP.Chemscore.Internal.Correction>
0.0726

> <Gold.Rescore>
     Score         DG    S(hbond)    S(metal)    S(lipo)     H(rot)  DE(clash)    DE(int)     intcor
     13.32     -13.39       0.99        0.00      66.35       1.24       0.01       0.05       ----

> <Gold.Chemscore.Fitness>
13.3242

> <Gold.Chemscore.DG>
-13.3902

> <Gold.Chemscore.ZeroCoef>
-5.4800

> <Gold.Chemscore.Hbond>
0.9910

> <Gold.Chemscore.Metal>
0.0000

> <Gold.Chemscore.Lipo>
66.3549

> <Gold.Chemscore.Internal_Hbond>
0.0000

> <Gold.Chemscore.DEClash>
0.0149

> <Gold.Chemscore.DEInternal>
0.0511

> <Gold.Chemscore.Rot>
1.2357

> <Gold.Chemscore.Internal.Correction>
   9.000000E+99

> <Gold.Chemscore.Hbonds>
donor molecule, donor type, donor heavy atom, donor atom, acceptor molecule, acceptor atom, score
      L1  H    13    30       P1  8028  0.21

> <Gold.Chemscore.Hbond.Weighted>
-3.3100

> <Gold.Chemscore.Metal.Weighted>
-0.0000

> <Gold.Chemscore.Lipo.Weighted>
-7.7635

> <Gold.Chemscore.Internal_Hbond.Weighted>
0.0000

> <Gold.Chemscore.DEClash.Weighted>
0.0149

> <Gold.Chemscore.DEInternal.Weighted>
0.0511

> <Gold.Chemscore.Rot.Weighted>
3.1634

> <Gold.Chemscore.Internal.Correction.Weighted>
   9.000000E+99

> <Gold.Protein.RotatedTorsions>
[ 6907 6896 6895 6894 ] final  -13.15 input  -60.11 | X-H torsion
[ 7974 7965 7964 7962 ] final -134.04 input  175.53 | X-H torsion
[ 8008 7997 7996 7995 ] final   44.61 input   59.86 | X-H torsion
[ 10167 10162 10161 10158 ] final  -98.64 input  -65.29 | X-H torsion
[ 10718 10713 10712 10709 ] final    4.47 input   66.30 | X-H torsion
[ 10763 10752 10751 10750 ] final  -52.96 input  -60.55 | X-H torsion
[ 11005 11000 10999 10996 ] final   64.09 input  -57.11 | X-H torsion

> <Gold.Protein.ActiveResidues>
 VAL166  LYS551  ARG553  GLY616  TRP617  ASP618  TYR619  PRO620  LYS621  CYS622 
 ASP623  PHE694  ASN695  SER759  ASP760  ASP761  ALA762  ILE779  LEU786  VAL792 
 PHE793  MET794  SER795  GLU796  ALA797  LYS798  CYS799  TRP800  GLU811  SER814 

> <Gold.Protein.RotatedAtoms>
  151.3595  135.0901  159.9429 H   0  0  0  0  0  0  0  0  0  0  0  0  # atno 6907 bound_to 6896
  152.5166  133.9273  159.7574 H   0  0  0  0  0  0  0  0  0  0  0  0  # atno 6908 bound_to 6896
  150.9664  133.6336  159.2775 H   0  0  0  0  0  0  0  0  0  0  0  0  # atno 6909 bound_to 6896
  144.9138  140.6929  143.5008 H   0  0  0  0  0  0  0  0  0  0  0  0  # atno 7974 bound_to 7965
  155.3221  140.3397  155.4241 H   0  0  0  0  0  0  0  0  0  0  0  0  # atno 8008 bound_to 7997
  156.1904  140.1695  156.8141 H   0  0  0  0  0  0  0  0  0  0  0  0  # atno 8009 bound_to 7997
  154.5435  140.0720  156.8533 H   0  0  0  0  0  0  0  0  0  0  0  0  # atno 8010 bound_to 7997
  140.2709  143.3345  152.0536 H   0  0  0  0  0  0  0  0  0  0  0  0  # atno 10167 bound_to 10162
  156.8930  130.5694  149.5649 H   0  0  0  0  0  0  0  0  0  0  0  0  # atno 10718 bound_to 10713
  154.1511  135.6490  153.4964 H   0  0  0  0  0  0  0  0  0  0  0  0  # atno 10763 bound_to 10752
  153.0137  135.5338  154.6807 H   0  0  0  0  0  0  0  0  0  0  0  0  # atno 10764 bound_to 10752
  154.6095  135.2952  155.0419 H   0  0  0  0  0  0  0  0  0  0  0  0  # atno 10765 bound_to 10752
  139.9981  134.6485  155.9976 H   0  0  0  0  0  0  0  0  0  0  0  0  # atno 11005 bound_to 11000
  145.3409  139.1732  143.4486 LP  0  0  0  0  0  0  0  0  0  0  0  0  # atno 17320 bound_to 7965
  146.3172  140.3450  142.8651 LP  0  0  0  0  0  0  0  0  0  0  0  0  # atno 17321 bound_to 7965
  139.4989  144.6657  151.6362 LP  0  0  0  0  0  0  0  0  0  0  0  0  # atno 17342 bound_to 10162
  140.5891  143.9812  150.6313 LP  0  0  0  0  0  0  0  0  0  0  0  0  # atno 17343 bound_to 10162
  156.0619  130.5670  150.9211 LP  0  0  0  0  0  0  0  0  0  0  0  0  # atno 17370 bound_to 10713
  157.6072  131.0938  150.8858 LP  0  0  0  0  0  0  0  0  0  0  0  0  # atno 17371 bound_to 10713
  141.1621  133.6538  156.4353 LP  0  0  0  0  0  0  0  0  0  0  0  0  # atno 17394 bound_to 11000
  140.4779  134.6692  157.5158 LP  0  0  0  0  0  0  0  0  0  0  0  0  # atno 17395 bound_to 11000

$$$$
