AV-unprocessed.smi:2822|AV-procd|sdf|10882|dock3
  -GOLD-   2272015323D 1   1.00000     0.00000
 Structure written by MMmdl.
 39 41  0  0  0  0  0  0  0  0  1 V2000
  148.5615  139.4259  154.1009 Cl  0  0  0  0  0  0  0  0  0  0  0  0
  150.1917  139.1776  154.6222 C   0  0  0  0  0  0  0  0  0  0  0  0
  150.9303  138.0907  154.1115 C   0  0  0  0  0  0  0  0  0  0  0  0
  152.2052  137.8247  154.4661 N   0  0  0  0  0  0  0  0  0  0  0  0
  152.7939  138.6501  155.3563 C   0  0  0  0  0  0  0  0  0  0  0  0
  152.1477  139.7649  155.9267 C   0  0  0  0  0  0  0  0  0  0  0  0
  150.8105  140.0411  155.5557 C   0  0  0  0  0  0  0  0  0  0  0  0
  150.0923  141.1287  156.0751 N   0  0  0  0  0  0  0  0  0  0  0  0
  150.4146  141.6837  157.3807 C   0  0  0  0  0  0  0  0  0  0  0  0
  151.7674  142.4200  157.3610 C   0  0  2  0  0  0  0  0  0  0  0  0
  152.7333  141.9313  158.4575 C   0  0  0  0  0  0  0  0  0  0  0  0
  152.3344  142.3576  159.7938 N   0  0  0  0  0  0  0  0  0  0  0  0
  153.2901  141.8946  160.7993 C   0  0  0  0  0  0  0  0  0  0  0  0
  152.8876  142.2996  162.2260 C   0  0  0  0  0  0  0  0  0  0  0  0
  152.7133  143.8220  162.3183 C   0  0  0  0  0  0  0  0  0  0  0  0
  151.7465  144.3077  161.2278 C   0  0  0  0  0  0  0  0  0  0  0  0
  152.1911  143.8156  159.8345 C   0  0  2  0  0  0  0  0  0  0  0  0
  151.2082  144.3052  158.7527 C   0  0  0  0  0  0  0  0  0  0  0  0
  151.6080  143.8363  157.4675 O   0  0  0  0  0  0  0  0  0  0  0  0
  150.4846  137.4142  153.3972 H   0  0  0  0  0  0  0  0  0  0  0  0
  153.8138  138.4156  155.6237 H   0  0  0  0  0  0  0  0  0  0  0  0
  152.6843  140.3827  156.6308 H   0  0  0  0  0  0  0  0  0  0  0  0
  149.2127  141.3850  155.6494 H   0  0  0  0  0  0  0  0  0  0  0  0
  149.6153  142.3458  157.7132 H   0  0  0  0  0  0  0  0  0  0  0  0
  150.4627  140.8636  158.0979 H   0  0  0  0  0  0  0  0  0  0  0  0
  152.2372  142.2250  156.3962 H   0  0  0  0  0  0  0  0  0  0  0  0
  152.8090  140.8439  158.4207 H   0  0  0  0  0  0  0  0  0  0  0  0
  153.7314  142.3149  158.2396 H   0  0  0  0  0  0  0  0  0  0  0  0
  153.3755  140.8086  160.7499 H   0  0  0  0  0  0  0  0  0  0  0  0
  154.2821  142.2915  160.5777 H   0  0  0  0  0  0  0  0  0  0  0  0
  151.9551  141.8038  162.4988 H   0  0  0  0  0  0  0  0  0  0  0  0
  153.6408  141.9637  162.9392 H   0  0  0  0  0  0  0  0  0  0  0  0
  152.3450  144.1030  163.3054 H   0  0  0  0  0  0  0  0  0  0  0  0
  153.6807  144.3101  162.1933 H   0  0  0  0  0  0  0  0  0  0  0  0
  150.7419  143.9418  161.4448 H   0  0  0  0  0  0  0  0  0  0  0  0
  151.6902  145.3966  161.2438 H   0  0  0  0  0  0  0  0  0  0  0  0
  153.1631  144.2633  159.6192 H   0  0  0  0  0  0  0  0  0  0  0  0
  150.1904  143.9811  158.9717 H   0  0  0  0  0  0  0  0  0  0  0  0
  151.1867  145.3951  158.7287 H   0  0  0  0  0  0  0  0  0  0  0  0
  1  2  1  0  0  0  0
  2  7  1  0  0  0  0
  2  3  2  0  0  0  0
  3  4  1  0  0  0  0
  3 20  1  0  0  0  0
  4  5  2  0  0  0  0
  5  6  1  0  0  0  0
  5 21  1  0  0  0  0
  6  7  2  0  0  0  0
  6 22  1  0  0  0  0
  7  8  1  0  0  0  0
  8  9  1  0  0  0  0
  8 23  1  0  0  0  0
  9 10  1  0  0  0  0
  9 24  1  0  0  0  0
  9 25  1  0  0  0  0
 10 19  1  0  0  0  0
 10 11  1  0  0  0  0
 10 26  1  0  0  0  0
 11 12  1  0  0  0  0
 11 27  1  0  0  0  0
 11 28  1  0  0  0  0
 12 17  1  0  0  0  0
 12 13  1  0  0  0  0
 13 14  1  0  0  0  0
 13 29  1  0  0  0  0
 13 30  1  0  0  0  0
 14 15  1  0  0  0  0
 14 31  1  0  0  0  0
 14 32  1  0  0  0  0
 15 16  1  0  0  0  0
 15 33  1  0  0  0  0
 15 34  1  0  0  0  0
 16 17  1  0  0  0  0
 16 35  1  0  0  0  0
 16 36  1  0  0  0  0
 17 18  1  0  0  0  0
 17 37  1  0  0  0  0
 18 19  1  0  0  0  0
 18 38  1  0  0  0  0
 18 39  1  0  0  0  0
M  END
> <s_m_source_file>
AV-unprocessed.smi

> <i_m_source_file_index>
2822

> <i_lp_mmshare_version>
43012

> <i_f3d_flags>
0

> <s_epik_input>
Q2xjMVtjSF1uW2NIXVtjSF1jMVtOSF1bQ0gyXVtDQEhdKFtDSDJdMilPW0NIMl1bQ0BASF0oTjIzKVtDSDJdW0NIMl1bQ0gyXVtDSDJdMw==

> <s_epik_cmdline>
J2VwaWtfcHl0aG9uJywgJy1waCcsICc3LjAnLCAnLXRuJywgJzgnLCAnLW1hJywgJzIwMCcsICctbWV0YWxfYmluZGluZycsICctaW1hZScsICc8aW5maWxlLm1hZT4nLCAnLW9tYWUnLCAnPG91dGZpbGUubWFlPic=

> <r_lp_tautomer_probability>
0.999999

> <r_epik_Ionization_Penalty>
2.10064

> <r_epik_Ionization_Penalty_Charging>
0

> <r_epik_Ionization_Penalty_Neutral>
2.10064

> <r_epik_State_Penalty>
2.1757

> <r_epik_Charging_Adjusted_Penalty>
2.1757

> <i_epik_Tot_Q>
0

> <i_epik_Tot_abs_Q>
0

> <r_epik_Metal_State_Penalty>
1.25425

> <b_epik_Metal_Only>
0

> <s_lp_Force_Field>
OPLS_2005

> <r_lp_Energy>
40.8538

> <b_lp_Chiralities_Consistent>
1

> <s_lp_Variant>
AV-unprocessed.smi:2822-23

> <Gold.Version>
5.8.1

> <Gold.Id.Protein>
6NUR|6NUR_protein|mol2

> <Gold.PLP.Fitness>
45.1411

> <Gold.PLP.PLP>
-42.7651

> <Gold.PLP.part.hbond>
-0.8242

> <Gold.PLP.part.metal>
0.0000

> <Gold.PLP.part.buried>
-5.4894

> <Gold.PLP.part.nonpolar>
-35.4812

> <Gold.PLP.part.repulsive>
0.3225

> <Gold.PLP.ligand.clash>
0.0000

> <Gold.PLP.ligand.torsion>
0.9055

> <Gold.PLP.Chemscore.Hbond>
0.2808

> <Gold.PLP.Chemscore.CHOScore>
1.1126

> <Gold.PLP.Chemscore.Metal>
0.0000

> <Gold.Chemscore.Hbonds>
donor molecule, donor type, donor heavy atom, donor atom, acceptor molecule, acceptor atom, score
      P1  H 10752 10765       L1     4  0.28
      L1  C     3    20       P1  7948  0.62
      L1  C     3    20       P1  7949  0.49

> <Gold.PLP.Chemscore.Internal.Correction>
0.0066

> <Gold.Rescore>
     Score         DG    S(hbond)    S(metal)    S(lipo)     H(rot)  DE(clash)    DE(int)     intcor
     18.20     -20.86       0.63        0.00     138.70       1.15       1.74       0.92       ----

> <Gold.Chemscore.Fitness>
18.1983

> <Gold.Chemscore.DG>
-20.8604

> <Gold.Chemscore.ZeroCoef>
-5.4800

> <Gold.Chemscore.Hbond>
0.6290

> <Gold.Chemscore.Metal>
0.0000

> <Gold.Chemscore.Lipo>
138.7042

> <Gold.Chemscore.Internal_Hbond>
0.0000

> <Gold.Chemscore.DEClash>
1.7416

> <Gold.Chemscore.DEInternal>
0.9205

> <Gold.Chemscore.Rot>
1.1519

> <Gold.Chemscore.Internal.Correction>
   9.000000E+99

> <Gold.Chemscore.Hbonds>
donor molecule, donor type, donor heavy atom, donor atom, acceptor molecule, acceptor atom, score
      P1  H 10752 10765       L1     4  0.27

> <Gold.Chemscore.Hbond.Weighted>
-2.1007

> <Gold.Chemscore.Metal.Weighted>
-0.0000

> <Gold.Chemscore.Lipo.Weighted>
-16.2284

> <Gold.Chemscore.Internal_Hbond.Weighted>
0.0000

> <Gold.Chemscore.DEClash.Weighted>
1.7416

> <Gold.Chemscore.DEInternal.Weighted>
0.9205

> <Gold.Chemscore.Rot.Weighted>
2.9487

> <Gold.Chemscore.Internal.Correction.Weighted>
   9.000000E+99

> <Gold.Protein.RotatedTorsions>
[ 6907 6896 6895 6894 ] final  -81.75 input  -60.11 | X-H torsion
[ 7974 7965 7964 7962 ] final  158.38 input  175.53 | X-H torsion
[ 8008 7997 7996 7995 ] final  -12.08 input   59.86 | X-H torsion
[ 10167 10162 10161 10158 ] final  -46.21 input  -65.29 | X-H torsion
[ 10718 10713 10712 10709 ] final -119.15 input   66.30 | X-H torsion
[ 10763 10752 10751 10750 ] final  161.80 input  -60.55 | X-H torsion
[ 11005 11000 10999 10996 ] final  -93.15 input  -57.11 | X-H torsion

> <Gold.Protein.ActiveResidues>
 VAL166  LYS551  ARG553  GLY616  TRP617  ASP618  TYR619  PRO620  LYS621  CYS622 
 ASP623  PHE694  ASN695  SER759  ASP760  ASP761  ALA762  ILE779  LEU786  VAL792 
 PHE793  MET794  SER795  GLU796  ALA797  LYS798  CYS799  TRP800  GLU811  SER814 

> <Gold.Protein.RotatedAtoms>
  150.6907  134.3770  159.5016 H   0  0  0  0  0  0  0  0  0  0  0  0  # atno 6907 bound_to 6896
  152.1577  134.8934  160.0553 H   0  0  0  0  0  0  0  0  0  0  0  0  # atno 6908 bound_to 6896
  152.0008  133.3790  159.4218 H   0  0  0  0  0  0  0  0  0  0  0  0  # atno 6909 bound_to 6896
  144.7849  139.7470  143.6245 H   0  0  0  0  0  0  0  0  0  0  0  0  # atno 7974 bound_to 7965
  154.5408  140.2285  155.8644 H   0  0  0  0  0  0  0  0  0  0  0  0  # atno 8008 bound_to 7997
  156.1856  140.3089  155.9195 H   0  0  0  0  0  0  0  0  0  0  0  0  # atno 8009 bound_to 7997
  155.3262  140.0443  157.3031 H   0  0  0  0  0  0  0  0  0  0  0  0  # atno 8010 bound_to 7997
  140.6827  143.2842  151.3749 H   0  0  0  0  0  0  0  0  0  0  0  0  # atno 10167 bound_to 10162
  156.1160  130.6286  150.9381 H   0  0  0  0  0  0  0  0  0  0  0  0  # atno 10718 bound_to 10713
  154.2685  135.2766  155.2748 H   0  0  0  0  0  0  0  0  0  0  0  0  # atno 10763 bound_to 10752
  154.5322  135.5726  153.6772 H   0  0  0  0  0  0  0  0  0  0  0  0  # atno 10764 bound_to 10752
  152.9949  135.6230  154.2838 H   0  0  0  0  0  0  0  0  0  0  0  0  # atno 10765 bound_to 10752
  141.1504  133.7868  157.0120 H   0  0  0  0  0  0  0  0  0  0  0  0  # atno 11005 bound_to 11000
  146.2076  139.5410  142.9702 LP  0  0  0  0  0  0  0  0  0  0  0  0  # atno 17320 bound_to 7965
  145.5949  141.0364  143.2050 LP  0  0  0  0  0  0  0  0  0  0  0  0  # atno 17321 bound_to 7965
  139.6161  144.1000  152.2347 LP  0  0  0  0  0  0  0  0  0  0  0  0  # atno 17342 bound_to 10162
  140.0430  144.5993  150.7396 LP  0  0  0  0  0  0  0  0  0  0  0  0  # atno 17343 bound_to 10162
  157.6343  131.0918  150.8380 LP  0  0  0  0  0  0  0  0  0  0  0  0  # atno 17370 bound_to 10713
  156.8483  130.5072  149.5314 LP  0  0  0  0  0  0  0  0  0  0  0  0  # atno 17371 bound_to 10713
  140.0872  134.9614  157.1718 LP  0  0  0  0  0  0  0  0  0  0  0  0  # atno 17394 bound_to 11000
  140.3496  134.2614  155.7200 LP  0  0  0  0  0  0  0  0  0  0  0  0  # atno 17395 bound_to 11000

$$$$
