AV-unprocessed.smi:2571|AV-procd|sdf|10108|dock8
  -GOLD-   2272014123D 1   1.00000     0.00000
 Structure written by MMmdl.
 38 40  0  0  0  0  0  0  0  0  1 V2000
  154.2863  140.8139  161.1516 C   0  0  0  0  0  0  0  0  0  0  0  0
  153.7330  141.9941  161.7158 O   0  0  0  0  0  0  0  0  0  0  0  0
  152.9355  142.7835  160.9151 C   0  0  0  0  0  0  0  0  0  0  0  0
  152.5017  144.0114  161.4547 C   0  0  0  0  0  0  0  0  0  0  0  0
  151.6867  144.8797  160.7045 C   0  0  0  0  0  0  0  0  0  0  0  0
  151.2935  144.5264  159.4009 C   0  0  0  0  0  0  0  0  0  0  0  0
  151.7129  143.3008  158.8443 C   0  0  0  0  0  0  0  0  0  0  0  0
  151.2890  142.9206  157.4345 C   0  0  2  0  0  0  0  0  0  0  0  0
  151.2102  144.0495  156.5850 O   0  0  0  0  0  0  0  0  0  0  0  0
  149.9487  142.1575  157.4383 C   0  0  0  0  0  0  0  0  0  0  0  0
  149.7653  141.3390  156.2495 N   0  0  0  0  0  0  0  0  0  0  0  0
  148.6330  141.4736  155.5120 N   0  0  0  0  0  0  0  0  0  0  0  0
  148.7469  140.6025  154.5113 C   0  0  0  0  0  0  0  0  0  0  0  0
  149.9654  139.8724  154.5760 C   0  0  0  0  0  0  0  0  0  0  0  0
  150.5888  138.8258  153.7718 C   0  0  0  0  0  0  0  0  0  0  0  0
  151.7468  138.3756  154.1417 N   0  0  0  0  0  0  0  0  0  0  0  0
  152.3903  138.8726  155.2809 N   0  0  0  0  0  0  0  0  0  0  0  0
  153.6873  138.2632  155.5656 C   0  0  0  0  0  0  0  0  0  0  0  0
  151.8931  139.8467  156.1013 C   0  0  0  0  0  0  0  0  0  0  0  0
  152.4735  140.2663  157.1025 O   0  0  0  0  0  0  0  0  0  0  0  0
  150.5700  140.3702  155.6829 C   0  0  0  0  0  0  0  0  0  0  0  0
  152.5340  142.4353  159.6006 C   0  0  0  0  0  0  0  0  0  0  0  0
  154.8895  140.3046  161.9030 H   0  0  0  0  0  0  0  0  0  0  0  0
  154.9371  141.0429  160.3067 H   0  0  0  0  0  0  0  0  0  0  0  0
  153.5068  140.1217  160.8305 H   0  0  0  0  0  0  0  0  0  0  0  0
  152.7984  144.2915  162.4550 H   0  0  0  0  0  0  0  0  0  0  0  0
  151.3631  145.8181  161.1302 H   0  0  0  0  0  0  0  0  0  0  0  0
  150.6694  145.1997  158.8316 H   0  0  0  0  0  0  0  0  0  0  0  0
  152.0549  142.2701  157.0100 H   0  0  0  0  0  0  0  0  0  0  0  0
  150.3091  144.1655  156.3255 H   0  0  0  0  0  0  0  0  0  0  0  0
  149.8978  141.5058  158.3119 H   0  0  0  0  0  0  0  0  0  0  0  0
  149.1089  142.8454  157.5304 H   0  0  0  0  0  0  0  0  0  0  0  0
  147.9514  140.5306  153.7843 H   0  0  0  0  0  0  0  0  0  0  0  0
  150.0891  138.4366  152.8848 H   0  0  0  0  0  0  0  0  0  0  0  0
  154.4735  139.0194  155.5755 H   0  0  0  0  0  0  0  0  0  0  0  0
  153.9595  137.5142  154.8202 H   0  0  0  0  0  0  0  0  0  0  0  0
  153.6743  137.7702  156.5387 H   0  0  0  0  0  0  0  0  0  0  0  0
  152.8464  141.5055  159.1495 H   0  0  0  0  0  0  0  0  0  0  0  0
  1  2  1  0  0  0  0
  1 23  1  0  0  0  0
  1 24  1  0  0  0  0
  1 25  1  0  0  0  0
  2  3  1  0  0  0  0
  3 22  1  0  0  0  0
  3  4  2  0  0  0  0
  4  5  1  0  0  0  0
  4 26  1  0  0  0  0
  5  6  2  0  0  0  0
  5 27  1  0  0  0  0
  6  7  1  0  0  0  0
  6 28  1  0  0  0  0
  7  8  1  0  0  0  0
  7 22  2  0  0  0  0
  8  9  1  0  0  0  0
  8 10  1  0  0  0  0
  8 29  1  0  0  0  0
  9 30  1  0  0  0  0
 10 11  1  0  0  0  0
 10 31  1  0  0  0  0
 10 32  1  0  0  0  0
 11 21  1  0  0  0  0
 11 12  1  0  0  0  0
 12 13  2  0  0  0  0
 13 14  1  0  0  0  0
 13 33  1  0  0  0  0
 14 21  2  0  0  0  0
 14 15  1  0  0  0  0
 15 16  2  0  0  0  0
 15 34  1  0  0  0  0
 16 17  1  0  0  0  0
 17 18  1  0  0  0  0
 17 19  1  0  0  0  0
 18 35  1  0  0  0  0
 18 36  1  0  0  0  0
 18 37  1  0  0  0  0
 19 20  2  0  0  0  0
 19 21  1  0  0  0  0
 22 38  1  0  0  0  0
M  END
> <s_m_source_file>
AV-unprocessed.smi

> <i_m_source_file_index>
2571

> <i_lp_mmshare_version>
43012

> <i_f3d_flags>
0

> <s_epik_input>
W0NIM11PYzFbY0hdW2NIXVtjSF1jKFtjSF0xKVtDQEhdKFtPSF0pW0NIMl1uKG5bY0hdMiljKGMyMyljKD1PKW4oW0NIM10pbltjSF0z

> <s_epik_cmdline>
J2VwaWtfcHl0aG9uJywgJy1waCcsICc3LjAnLCAnLXRuJywgJzgnLCAnLW1hJywgJzIwMCcsICctbWV0YWxfYmluZGluZycsICctaW1hZScsICc8aW5maWxlLm1hZT4nLCAnLW9tYWUnLCAnPG91dGZpbGUubWFlPic=

> <r_lp_tautomer_probability>
1

> <r_epik_Ionization_Penalty>
1.38887e-06

> <r_epik_Ionization_Penalty_Charging>
1.65421e-10

> <r_epik_Ionization_Penalty_Neutral>
1.38871e-06

> <r_epik_State_Penalty>
-0

> <r_epik_Charging_Adjusted_Penalty>
1.65421e-10

> <i_epik_Tot_Q>
0

> <i_epik_Tot_abs_Q>
0

> <r_epik_Metal_State_Penalty>
-0

> <b_epik_Metal_Only>
0

> <s_lp_Force_Field>
OPLS_2005

> <r_lp_Energy>
30.8007

> <b_lp_Chiralities_Consistent>
1

> <s_lp_Variant>
AV-unprocessed.smi:2571-1

> <Gold.Version>
5.8.1

> <Gold.Id.Protein>
6NUR|6NUR_protein|mol2

> <Gold.PLP.Fitness>
56.1147

> <Gold.PLP.PLP>
-47.0709

> <Gold.PLP.part.hbond>
-2.0000

> <Gold.PLP.part.metal>
0.0000

> <Gold.PLP.part.buried>
-2.8996

> <Gold.PLP.part.nonpolar>
-41.9914

> <Gold.PLP.part.repulsive>
0.2950

> <Gold.PLP.ligand.clash>
0.0000

> <Gold.PLP.ligand.torsion>
0.9962

> <Gold.PLP.Chemscore.Hbond>
1.9913

> <Gold.PLP.Chemscore.CHOScore>
1.6771

> <Gold.PLP.Chemscore.Metal>
0.0000

> <Gold.Chemscore.Hbonds>
donor molecule, donor type, donor heavy atom, donor atom, acceptor molecule, acceptor atom, score
      L1  H     9    30       P1  8028  1.00
      P1  H  7997  8010       L1    20  1.00
      L1  C    15    34       P1  7948  0.75
      L1  C    15    34       P1  7957  0.73

> <Gold.PLP.Chemscore.Internal.Correction>
0.0310

> <Gold.Rescore>
     Score         DG    S(hbond)    S(metal)    S(lipo)     H(rot)  DE(clash)    DE(int)     intcor
     17.54     -19.76       1.48        0.00     128.34       2.21       0.06       2.16       ----

> <Gold.Chemscore.Fitness>
17.5444

> <Gold.Chemscore.DG>
-19.7574

> <Gold.Chemscore.ZeroCoef>
-5.4800

> <Gold.Chemscore.Hbond>
1.4763

> <Gold.Chemscore.Metal>
0.0000

> <Gold.Chemscore.Lipo>
128.3395

> <Gold.Chemscore.Internal_Hbond>
0.0000

> <Gold.Chemscore.DEClash>
0.0556

> <Gold.Chemscore.DEInternal>
2.1574

> <Gold.Chemscore.Rot>
2.2146

> <Gold.Chemscore.Internal.Correction>
   9.000000E+99

> <Gold.Chemscore.Hbonds>
donor molecule, donor type, donor heavy atom, donor atom, acceptor molecule, acceptor atom, score
      L1  H     9    30       P1  8028  1.00
      P1  H  7997  8010       L1    20  0.42

> <Gold.Chemscore.Hbond.Weighted>
-4.9310

> <Gold.Chemscore.Metal.Weighted>
-0.0000

> <Gold.Chemscore.Lipo.Weighted>
-15.0157

> <Gold.Chemscore.Internal_Hbond.Weighted>
0.0000

> <Gold.Chemscore.DEClash.Weighted>
0.0556

> <Gold.Chemscore.DEInternal.Weighted>
2.1574

> <Gold.Chemscore.Rot.Weighted>
5.6693

> <Gold.Chemscore.Internal.Correction.Weighted>
   9.000000E+99

> <Gold.Protein.RotatedTorsions>
[ 6907 6896 6895 6894 ] final   40.61 input  -60.11 | X-H torsion
[ 7974 7965 7964 7962 ] final   94.41 input  175.53 | X-H torsion
[ 8008 7997 7996 7995 ] final   58.55 input   59.86 | X-H torsion
[ 10167 10162 10161 10158 ] final  -84.20 input  -65.29 | X-H torsion
[ 10718 10713 10712 10709 ] final  133.65 input   66.30 | X-H torsion
[ 10763 10752 10751 10750 ] final -121.26 input  -60.55 | X-H torsion
[ 11005 11000 10999 10996 ] final  -80.12 input  -57.11 | X-H torsion

> <Gold.Protein.ActiveResidues>
 VAL166  LYS551  ARG553  GLY616  TRP617  ASP618  TYR619  PRO620  LYS621  CYS622 
 ASP623  PHE694  ASN695  SER759  ASP760  ASP761  ALA762  ILE779  LEU786  VAL792 
 PHE793  MET794  SER795  GLU796  ALA797  LYS798  CYS799  TRP800  GLU811  SER814 

> <Gold.Protein.RotatedAtoms>
  152.1847  134.8724  160.0522 H   0  0  0  0  0  0  0  0  0  0  0  0  # atno 6907 bound_to 6896
  151.9635  133.3698  159.4052 H   0  0  0  0  0  0  0  0  0  0  0  0  # atno 6908 bound_to 6896
  150.6924  134.4139  159.5218 H   0  0  0  0  0  0  0  0  0  0  0  0  # atno 6909 bound_to 6896
  145.4660  139.2284  143.2961 H   0  0  0  0  0  0  0  0  0  0  0  0  # atno 7974 bound_to 7965
  155.5518  140.3486  155.4470 H   0  0  0  0  0  0  0  0  0  0  0  0  # atno 8008 bound_to 7997
  156.0578  140.1333  157.0002 H   0  0  0  0  0  0  0  0  0  0  0  0  # atno 8009 bound_to 7997
  154.4465  140.0991  156.6456 H   0  0  0  0  0  0  0  0  0  0  0  0  # atno 8010 bound_to 7997
  140.4155  143.2605  151.8961 H   0  0  0  0  0  0  0  0  0  0  0  0  # atno 10167 bound_to 10162
  157.4752  131.1082  150.9752 H   0  0  0  0  0  0  0  0  0  0  0  0  # atno 10718 bound_to 10713
  154.8664  135.4174  154.2591 H   0  0  0  0  0  0  0  0  0  0  0  0  # atno 10763 bound_to 10752
  153.3523  135.6999  153.6784 H   0  0  0  0  0  0  0  0  0  0  0  0  # atno 10764 bound_to 10752
  153.5719  135.3589  155.2814 H   0  0  0  0  0  0  0  0  0  0  0  0  # atno 10765 bound_to 10752
  141.1668  133.7136  156.8225 H   0  0  0  0  0  0  0  0  0  0  0  0  # atno 11005 bound_to 11000
  146.2424  140.5433  142.8928 LP  0  0  0  0  0  0  0  0  0  0  0  0  # atno 17320 bound_to 7965
  144.7974  140.6148  143.6501 LP  0  0  0  0  0  0  0  0  0  0  0  0  # atno 17321 bound_to 7965
  139.4782  144.5493  151.8411 LP  0  0  0  0  0  0  0  0  0  0  0  0  # atno 17342 bound_to 10162
  140.4591  144.1747  150.5904 LP  0  0  0  0  0  0  0  0  0  0  0  0  # atno 17343 bound_to 10162
  157.0504  130.5785  149.5369 LP  0  0  0  0  0  0  0  0  0  0  0  0  # atno 17370 bound_to 10713
  156.0093  130.5183  150.7936 LP  0  0  0  0  0  0  0  0  0  0  0  0  # atno 17371 bound_to 10713
  140.2109  134.8828  157.3273 LP  0  0  0  0  0  0  0  0  0  0  0  0  # atno 17394 bound_to 11000
  140.2088  134.4164  155.7624 LP  0  0  0  0  0  0  0  0  0  0  0  0  # atno 17395 bound_to 11000

$$$$
