AV-unprocessed.smi:287|AV-procd|sdf|2193|dock1
  -GOLD-   2262021593D 1   1.00000     0.00000
 Structure written by MMmdl.
 55 58  0  0  0  0  0  0  0  0  1 V2000
  154.0881  133.8266  164.7774 C   0  0  0  0  0  0  0  0  0  0  0  0
  154.4599  134.9048  163.8183 C   0  0  0  0  0  0  0  0  0  0  0  0
  154.6541  136.2500  163.9389 C   0  0  0  0  0  0  0  0  0  0  0  0
  154.9903  136.7499  162.6452 C   0  0  0  0  0  0  0  0  0  0  0  0
  155.2968  138.2002  162.2961 C   0  0  1  0  0  0  0  0  0  0  0  0
  155.3516  139.0432  163.5807 C   0  0  0  0  0  0  0  0  0  0  0  0
  156.5625  138.3617  161.6856 O   0  0  0  0  0  0  0  0  0  0  0  0
  154.2716  138.8032  161.3085 C   0  0  0  0  0  0  0  0  0  0  0  0
  154.5508  140.1953  160.9800 N   0  0  0  0  0  0  0  0  0  0  0  0
  153.6543  140.9388  160.2994 C   0  0  0  0  0  0  0  0  0  0  0  0
  153.7057  142.2722  160.5331 N   0  0  0  0  0  0  0  0  0  0  0  0
  152.8669  143.0987  159.9021 C   0  0  0  0  0  0  0  0  0  0  0  0
  151.9156  142.8037  159.0143 N   0  0  0  0  0  0  0  0  0  0  0  0
  151.8534  141.4614  158.7803 C   0  0  0  0  0  0  0  0  0  0  0  0
  152.6785  140.4637  159.3732 C   0  0  0  0  0  0  0  0  0  0  0  0
  152.3106  139.2157  158.8788 N   0  0  0  0  0  0  0  0  0  0  0  0
  151.3369  139.4678  158.0461 C   0  0  0  0  0  0  0  0  0  0  0  0
  151.0013  140.7978  157.9275 N   0  0  0  0  0  0  0  0  0  0  0  0
  149.9599  141.4357  157.0676 C   0  0  2  0  0  0  0  0  0  0  0  0
  148.8058  140.6688  157.1130 O   0  0  0  0  0  0  0  0  0  0  0  0
  148.0090  141.0374  155.9965 C   0  0  2  0  0  0  0  0  0  0  0  0
  147.0327  139.8986  155.6660 C   0  0  0  0  0  0  0  0  0  0  0  0
  146.3050  140.2019  154.4947 O   0  0  0  0  0  0  0  0  0  0  0  0
  149.0182  141.3613  154.8748 C   0  0  1  0  0  0  0  0  0  0  0  0
  148.6672  142.5865  154.2619 O   0  0  0  0  0  0  0  0  0  0  0  0
  150.3645  141.4975  155.5884 C   0  0  2  0  0  0  0  0  0  0  0  0
  151.2445  140.4545  155.2078 O   0  0  0  0  0  0  0  0  0  0  0  0
  154.9889  135.6429  161.8307 C   0  0  0  0  0  0  0  0  0  0  0  0
  155.2665  135.4223  160.3802 C   0  0  0  0  0  0  0  0  0  0  0  0
  154.6639  134.5216  162.5331 O   0  0  0  0  0  0  0  0  0  0  0  0
  149.7755  142.4176  157.5070 H   0  0  0  0  0  0  0  0  0  0  0  0
  147.4551  141.9320  156.2901 H   0  0  0  0  0  0  0  0  0  0  0  0
  149.0473  140.5769  154.1166 H   0  0  0  0  0  0  0  0  0  0  0  0
  150.8596  142.4507  155.3964 H   0  0  0  0  0  0  0  0  0  0  0  0
  153.7565  134.2477  165.7267 H   0  0  0  0  0  0  0  0  0  0  0  0
  154.9393  133.1746  164.9749 H   0  0  0  0  0  0  0  0  0  0  0  0
  153.2782  133.2155  164.3784 H   0  0  0  0  0  0  0  0  0  0  0  0
  154.5595  136.8162  164.8536 H   0  0  0  0  0  0  0  0  0  0  0  0
  154.4001  139.0135  164.1133 H   0  0  0  0  0  0  0  0  0  0  0  0
  155.5722  140.0894  163.3646 H   0  0  0  0  0  0  0  0  0  0  0  0
  156.1203  138.6774  164.2629 H   0  0  0  0  0  0  0  0  0  0  0  0
  156.8060  137.5431  161.2812 H   0  0  0  0  0  0  0  0  0  0  0  0
  154.3152  138.2376  160.3768 H   0  0  0  0  0  0  0  0  0  0  0  0
  153.2569  138.6999  161.6950 H   0  0  0  0  0  0  0  0  0  0  0  0
  155.4854  140.5136  161.1923 H   0  0  0  0  0  0  0  0  0  0  0  0
  152.9749  144.1464  160.1421 H   0  0  0  0  0  0  0  0  0  0  0  0
  150.8405  138.6862  157.4890 H   0  0  0  0  0  0  0  0  0  0  0  0
  147.5600  138.9525  155.5400 H   0  0  0  0  0  0  0  0  0  0  0  0
  146.3223  139.7655  156.4823 H   0  0  0  0  0  0  0  0  0  0  0  0
  146.8905  140.6065  153.8729 H   0  0  0  0  0  0  0  0  0  0  0  0
  148.8690  143.2895  154.8608 H   0  0  0  0  0  0  0  0  0  0  0  0
  151.5204  139.9992  155.9891 H   0  0  0  0  0  0  0  0  0  0  0  0
  156.2466  135.8160  160.1113 H   0  0  0  0  0  0  0  0  0  0  0  0
  154.5190  135.9215  159.7637 H   0  0  0  0  0  0  0  0  0  0  0  0
  155.2522  134.3610  160.1313 H   0  0  0  0  0  0  0  0  0  0  0  0
  1  2  1  0  0  0  0
  1 35  1  0  0  0  0
  1 36  1  0  0  0  0
  1 37  1  0  0  0  0
  2 30  1  0  0  0  0
  2  3  2  0  0  0  0
  3  4  1  0  0  0  0
  3 38  1  0  0  0  0
  4  5  1  0  0  0  0
  4 28  2  0  0  0  0
  5  6  1  0  0  0  0
  5  7  1  0  0  0  0
  5  8  1  0  0  0  0
  6 39  1  0  0  0  0
  6 40  1  0  0  0  0
  6 41  1  0  0  0  0
  7 42  1  0  0  0  0
  8  9  1  0  0  0  0
  8 43  1  0  0  0  0
  8 44  1  0  0  0  0
  9 10  1  0  0  0  0
  9 45  1  0  0  0  0
 10 15  1  0  0  0  0
 10 11  2  0  0  0  0
 11 12  1  0  0  0  0
 12 13  2  0  0  0  0
 12 46  1  0  0  0  0
 13 14  1  0  0  0  0
 14 18  1  0  0  0  0
 14 15  2  0  0  0  0
 15 16  1  0  0  0  0
 16 17  2  0  0  0  0
 17 18  1  0  0  0  0
 17 47  1  0  0  0  0
 18 19  1  0  0  0  0
 19 31  1  0  0  0  0
 19 26  1  0  0  0  0
 19 20  1  0  0  0  0
 20 21  1  0  0  0  0
 21 32  1  0  0  0  0
 21 22  1  0  0  0  0
 21 24  1  0  0  0  0
 22 23  1  0  0  0  0
 22 48  1  0  0  0  0
 22 49  1  0  0  0  0
 23 50  1  0  0  0  0
 24 33  1  0  0  0  0
 24 25  1  0  0  0  0
 24 26  1  0  0  0  0
 25 51  1  0  0  0  0
 26 34  1  0  0  0  0
 26 27  1  0  0  0  0
 27 52  1  0  0  0  0
 28 29  1  0  0  0  0
 28 30  1  0  0  0  0
 29 53  1  0  0  0  0
 29 54  1  0  0  0  0
 29 55  1  0  0  0  0
M  END
> <s_m_source_file>
AV-unprocessed.smi

> <i_m_source_file_index>
287

> <i_lp_mmshare_version>
43012

> <i_f3d_flags>
0

> <s_epik_input>
W0NIM11jMVtjSF1jKGMobzEpW0NIM10pW0NAQF0oW0NIM10pKFtPSF0pW0NIMl1bTkhdYyhuW2NIXW4yKWMoYzIzKW5bY0hdbjNbQ0BASF00T1tDQEhdKFtDSDJdW09IXSlbQ0BASF0oW09IXSlbQ0BIXTRbT0hd

> <s_epik_cmdline>
J2VwaWtfcHl0aG9uJywgJy1waCcsICc3LjAnLCAnLXRuJywgJzgnLCAnLW1hJywgJzIwMCcsICctbWV0YWxfYmluZGluZycsICctaW1hZScsICc8aW5maWxlLm1hZT4nLCAnLW9tYWUnLCAnPG91dGZpbGUubWFlPic=

> <r_lp_tautomer_probability>
1

> <r_epik_Ionization_Penalty>
0.000992612

> <r_epik_Ionization_Penalty_Charging>
0

> <r_epik_Ionization_Penalty_Neutral>
0.000992612

> <r_epik_State_Penalty>
-0

> <r_epik_Charging_Adjusted_Penalty>
0

> <i_epik_Tot_Q>
0

> <i_epik_Tot_abs_Q>
0

> <r_epik_Metal_State_Penalty>
-0

> <b_epik_Metal_Only>
0

> <s_epik_Chemistry_Notes>
This compound contains an acetal/aminal-like group ( X-CH(R)-Y where X, Y are N, S, or O) that may be acid/base labile, releasing an aldehyde.

> <s_lp_Force_Field>
OPLS_2005

> <r_lp_Energy>
41.001

> <b_lp_Chiralities_Consistent>
1

> <s_lp_Variant>
AV-unprocessed.smi:287-17

> <Gold.Version>
5.8.1

> <Gold.Id.Protein>
6NUR|6NUR_protein|mol2

> <Gold.PLP.Fitness>
51.6708

> <Gold.PLP.PLP>
-46.6233

> <Gold.PLP.part.hbond>
-3.2899

> <Gold.PLP.part.metal>
0.0000

> <Gold.PLP.part.buried>
-8.0189

> <Gold.PLP.part.nonpolar>
-34.5059

> <Gold.PLP.part.repulsive>
0.0560

> <Gold.PLP.ligand.clash>
0.0000

> <Gold.PLP.ligand.torsion>
0.7367

> <Gold.PLP.Chemscore.Hbond>
2.0502

> <Gold.PLP.Chemscore.CHOScore>
0.0000

> <Gold.PLP.Chemscore.Metal>
0.0000

> <Gold.Chemscore.Hbonds>
donor molecule, donor type, donor heavy atom, donor atom, acceptor molecule, acceptor atom, score
      L1  H    25    51       P1  8028  1.00
      P1  H  7989  7998       L1    27  0.96
      P1  H  8011  8017       L1    25  0.05

> <Gold.PLP.Chemscore.Internal.Correction>
0.3703

> <Gold.Rescore>
     Score         DG    S(hbond)    S(metal)    S(lipo)     H(rot)  DE(clash)    DE(int)     intcor
      7.32      -8.34       1.84        0.00      87.24       5.27       0.06       0.96       ----

> <Gold.Chemscore.Fitness>
7.3248

> <Gold.Chemscore.DG>
-8.3414

> <Gold.Chemscore.ZeroCoef>
-5.4800

> <Gold.Chemscore.Hbond>
1.8379

> <Gold.Chemscore.Metal>
0.0000

> <Gold.Chemscore.Lipo>
87.2378

> <Gold.Chemscore.Internal_Hbond>
0.0000

> <Gold.Chemscore.DEClash>
0.0582

> <Gold.Chemscore.DEInternal>
0.9584

> <Gold.Chemscore.Rot>
5.2672

> <Gold.Chemscore.Internal.Correction>
   9.000000E+99

> <Gold.Chemscore.Hbonds>
donor molecule, donor type, donor heavy atom, donor atom, acceptor molecule, acceptor atom, score
      L1  H    25    51       P1  8028  0.99
      P1  H  7989  7998       L1    27  0.32
      P1  H  8011  8017       L1    25  0.02

> <Gold.Chemscore.Hbond.Weighted>
-6.1385

> <Gold.Chemscore.Metal.Weighted>
-0.0000

> <Gold.Chemscore.Lipo.Weighted>
-10.2068

> <Gold.Chemscore.Internal_Hbond.Weighted>
0.0000

> <Gold.Chemscore.DEClash.Weighted>
0.0582

> <Gold.Chemscore.DEInternal.Weighted>
0.9584

> <Gold.Chemscore.Rot.Weighted>
13.4839

> <Gold.Chemscore.Internal.Correction.Weighted>
   9.000000E+99

> <Gold.Protein.RotatedTorsions>
[ 6907 6896 6895 6894 ] final   -6.20 input  -60.11 | X-H torsion
[ 7974 7965 7964 7962 ] final   91.37 input  175.53 | X-H torsion
[ 8008 7997 7996 7995 ] final  147.72 input   59.86 | X-H torsion
[ 10167 10162 10161 10158 ] final -159.60 input  -65.29 | X-H torsion
[ 10718 10713 10712 10709 ] final -112.20 input   66.30 | X-H torsion
[ 10763 10752 10751 10750 ] final   -7.65 input  -60.55 | X-H torsion
[ 11005 11000 10999 10996 ] final  -59.26 input  -57.11 | X-H torsion

> <Gold.Protein.ActiveResidues>
 VAL166  LYS551  ARG553  GLY616  TRP617  ASP618  TYR619  PRO620  LYS621  CYS622 
 ASP623  PHE694  ASN695  SER759  ASP760  ASP761  ALA762  ILE779  LEU786  VAL792 
 PHE793  MET794  SER795  GLU796  ALA797  LYS798  CYS799  TRP800  GLU811  SER814 

> <Gold.Protein.RotatedAtoms>
  151.4693  135.1044  159.9746 H   0  0  0  0  0  0  0  0  0  0  0  0  # atno 6907 bound_to 6896
  152.4823  133.8280  159.7099 H   0  0  0  0  0  0  0  0  0  0  0  0  # atno 6908 bound_to 6896
  150.8904  133.7190  159.2933 H   0  0  0  0  0  0  0  0  0  0  0  0  # atno 6909 bound_to 6896
  145.5066  139.2276  143.2748 H   0  0  0  0  0  0  0  0  0  0  0  0  # atno 7974 bound_to 7965
  156.2815  140.2148  156.5583 H   0  0  0  0  0  0  0  0  0  0  0  0  # atno 8008 bound_to 7997
  154.7234  140.0501  157.0683 H   0  0  0  0  0  0  0  0  0  0  0  0  # atno 8009 bound_to 7997
  155.0448  140.3149  155.4715 H   0  0  0  0  0  0  0  0  0  0  0  0  # atno 8010 bound_to 7997
  139.6603  143.9925  152.2221 H   0  0  0  0  0  0  0  0  0  0  0  0  # atno 10167 bound_to 10162
  156.0691  130.5907  150.8476 H   0  0  0  0  0  0  0  0  0  0  0  0  # atno 10718 bound_to 10713
  153.4293  135.7011  153.6241 H   0  0  0  0  0  0  0  0  0  0  0  0  # atno 10763 bound_to 10752
  153.4663  135.3725  155.2366 H   0  0  0  0  0  0  0  0  0  0  0  0  # atno 10764 bound_to 10752
  154.8725  135.4032  154.3674 H   0  0  0  0  0  0  0  0  0  0  0  0  # atno 10765 bound_to 10752
  141.1241  133.6615  156.5045 H   0  0  0  0  0  0  0  0  0  0  0  0  # atno 11005 bound_to 11000
  146.2193  140.5870  142.9024 LP  0  0  0  0  0  0  0  0  0  0  0  0  # atno 17320 bound_to 7965
  144.7750  140.5721  143.6644 LP  0  0  0  0  0  0  0  0  0  0  0  0  # atno 17321 bound_to 7965
  139.9662  144.6524  150.8032 LP  0  0  0  0  0  0  0  0  0  0  0  0  # atno 17342 bound_to 10162
  140.7577  143.3091  151.2888 LP  0  0  0  0  0  0  0  0  0  0  0  0  # atno 17343 bound_to 10162
  157.5752  131.0946  150.9357 LP  0  0  0  0  0  0  0  0  0  0  0  0  # atno 17370 bound_to 10713
  156.9565  130.5439  149.5284 LP  0  0  0  0  0  0  0  0  0  0  0  0  # atno 17371 bound_to 10713
  140.4419  134.7008  157.4996 LP  0  0  0  0  0  0  0  0  0  0  0  0  # atno 17394 bound_to 11000
  140.0224  134.6528  155.9221 LP  0  0  0  0  0  0  0  0  0  0  0  0  # atno 17395 bound_to 11000

$$$$
