AV-unprocessed.smi:1291|AV-procd|sdf|5392|dock2
  -GOLD-   22720 4543D 1   1.00000     0.00000
 Structure written by MMmdl.
 43 45  0  0  0  0  0  0  0  0  1 V2000
  151.4228  136.8282  154.0394 O   0  0  0  0  0  0  0  0  0  0  0  0
  151.4690  137.9811  154.8561 C   0  0  0  0  0  0  0  0  0  0  0  0
  150.3209  138.9272  154.6441 C   0  0  0  0  0  0  0  0  0  0  0  0
  149.3492  138.7060  153.7552 N   0  0  0  0  0  0  0  0  0  0  0  0
  148.5304  139.8061  153.9152 C   0  0  0  0  0  0  0  0  0  0  0  0
  147.3294  140.1602  153.2597 C   0  0  0  0  0  0  0  0  0  0  0  0
  146.6569  141.3531  153.5971 C   0  0  0  0  0  0  0  0  0  0  0  0
  147.1739  142.2065  154.5933 C   0  0  0  0  0  0  0  0  0  0  0  0
  148.3682  141.8712  155.2597 C   0  0  0  0  0  0  0  0  0  0  0  0
  149.0365  140.6799  154.9181 C   0  0  0  0  0  0  0  0  0  0  0  0
  150.2051  140.0704  155.3659 N   0  0  0  0  0  0  0  0  0  0  0  0
  151.0985  140.5733  156.4023 C   0  0  0  0  0  0  0  0  0  0  0  0
  150.8861  139.8900  157.7694 C   0  0  1  0  0  0  0  0  0  0  0  0
  149.8890  138.8944  157.6465 O   0  0  0  0  0  0  0  0  0  0  0  0
  152.1753  139.2253  158.2780 C   0  0  0  0  0  0  0  0  0  0  0  0
  152.6587  139.9438  159.4009 O   0  0  0  0  0  0  0  0  0  0  0  0
  153.1468  141.2331  159.0634 C   0  0  0  0  0  0  0  0  0  0  0  0
  152.8207  142.2826  160.1130 C   0  0  0  0  0  0  0  0  0  0  0  0
  153.0310  142.0260  161.4866 C   0  0  0  0  0  0  0  0  0  0  0  0
  152.7152  143.0051  162.4484 C   0  0  0  0  0  0  0  0  0  0  0  0
  152.1826  144.2442  162.0450 C   0  0  0  0  0  0  0  0  0  0  0  0
  151.9630  144.5024  160.6787 C   0  0  0  0  0  0  0  0  0  0  0  0
  152.2782  143.5244  159.7150 C   0  0  0  0  0  0  0  0  0  0  0  0
  152.0568  143.7837  158.4038 F   0  0  0  0  0  0  0  0  0  0  0  0
  150.9720  137.0446  153.2379 H   0  0  0  0  0  0  0  0  0  0  0  0
  151.4808  137.6652  155.8994 H   0  0  0  0  0  0  0  0  0  0  0  0
  152.4066  138.5004  154.6601 H   0  0  0  0  0  0  0  0  0  0  0  0
  146.9257  139.5127  152.4956 H   0  0  0  0  0  0  0  0  0  0  0  0
  145.7404  141.6146  153.0890 H   0  0  0  0  0  0  0  0  0  0  0  0
  146.6536  143.1190  154.8450 H   0  0  0  0  0  0  0  0  0  0  0  0
  148.7668  142.5238  156.0220 H   0  0  0  0  0  0  0  0  0  0  0  0
  152.1272  140.4327  156.0679 H   0  0  0  0  0  0  0  0  0  0  0  0
  150.9590  141.6508  156.4928 H   0  0  0  0  0  0  0  0  0  0  0  0
  150.5490  140.6324  158.4931 H   0  0  0  0  0  0  0  0  0  0  0  0
  149.1320  139.1627  158.1442 H   0  0  0  0  0  0  0  0  0  0  0  0
  152.0076  138.1737  158.5185 H   0  0  0  0  0  0  0  0  0  0  0  0
  152.9381  139.2598  157.4985 H   0  0  0  0  0  0  0  0  0  0  0  0
  154.2298  141.1875  158.9372 H   0  0  0  0  0  0  0  0  0  0  0  0
  152.7200  141.5550  158.1122 H   0  0  0  0  0  0  0  0  0  0  0  0
  153.4354  141.0798  161.8145 H   0  0  0  0  0  0  0  0  0  0  0  0
  152.8815  142.8046  163.4966 H   0  0  0  0  0  0  0  0  0  0  0  0
  151.9408  144.9949  162.7829 H   0  0  0  0  0  0  0  0  0  0  0  0
  151.5513  145.4516  160.3690 H   0  0  0  0  0  0  0  0  0  0  0  0
  1  2  1  0  0  0  0
  1 25  1  0  0  0  0
  2  3  1  0  0  0  0
  2 26  1  0  0  0  0
  2 27  1  0  0  0  0
  3 11  1  0  0  0  0
  3  4  2  0  0  0  0
  4  5  1  0  0  0  0
  5 10  2  0  0  0  0
  5  6  1  0  0  0  0
  6  7  2  0  0  0  0
  6 28  1  0  0  0  0
  7  8  1  0  0  0  0
  7 29  1  0  0  0  0
  8  9  2  0  0  0  0
  8 30  1  0  0  0  0
  9 10  1  0  0  0  0
  9 31  1  0  0  0  0
 10 11  1  0  0  0  0
 11 12  1  0  0  0  0
 12 13  1  0  0  0  0
 12 32  1  0  0  0  0
 12 33  1  0  0  0  0
 13 14  1  0  0  0  0
 13 15  1  0  0  0  0
 13 34  1  0  0  0  0
 14 35  1  0  0  0  0
 15 16  1  0  0  0  0
 15 36  1  0  0  0  0
 15 37  1  0  0  0  0
 16 17  1  0  0  0  0
 17 18  1  0  0  0  0
 17 38  1  0  0  0  0
 17 39  1  0  0  0  0
 18 23  1  0  0  0  0
 18 19  2  0  0  0  0
 19 20  1  0  0  0  0
 19 40  1  0  0  0  0
 20 21  2  0  0  0  0
 20 41  1  0  0  0  0
 21 22  1  0  0  0  0
 21 42  1  0  0  0  0
 22 23  2  0  0  0  0
 22 43  1  0  0  0  0
 23 24  1  0  0  0  0
M  END
> <s_m_source_file>
AV-unprocessed.smi

> <i_m_source_file_index>
1291

> <i_lp_mmshare_version>
43012

> <i_f3d_flags>
0

> <s_epik_input>
W2NIXTFbY0hdW2NIXVtjSF1jKGMxMiluKGMobjIpW0NIMl1bT0hdKVtDSDJdW0NASF0oW09IXSlbQ0gyXU9bQ0gyXWMzW2NIXVtjSF1bY0hdW2NIXWMzRg==

> <s_epik_cmdline>
J2VwaWtfcHl0aG9uJywgJy1waCcsICc3LjAnLCAnLXRuJywgJzgnLCAnLW1hJywgJzIwMCcsICctbWV0YWxfYmluZGluZycsICctaW1hZScsICc8aW5maWxlLm1hZT4nLCAnLW9tYWUnLCAnPG91dGZpbGUubWFlPic=

> <r_epik_Ionization_Penalty>
0.0649918

> <r_epik_Ionization_Penalty_Charging>
0

> <r_epik_Ionization_Penalty_Neutral>
0.0649918

> <r_epik_State_Penalty>
0.0565791

> <r_epik_Charging_Adjusted_Penalty>
0.0565791

> <i_epik_Tot_Q>
0

> <i_epik_Tot_abs_Q>
0

> <r_epik_Metal_State_Penalty>
5.93658e-05

> <b_epik_Metal_Only>
0

> <s_lp_Force_Field>
OPLS_2005

> <r_lp_Energy>
17.1818

> <b_lp_Chiralities_Consistent>
1

> <s_lp_Variant>
AV-unprocessed.smi:1291-2

> <Gold.Version>
5.8.1

> <Gold.Id.Protein>
6NUR|6NUR_protein|mol2

> <Gold.PLP.Fitness>
55.0572

> <Gold.PLP.PLP>
-54.3075

> <Gold.PLP.part.hbond>
-2.0000

> <Gold.PLP.part.metal>
0.0000

> <Gold.PLP.part.buried>
-1.0827

> <Gold.PLP.part.nonpolar>
-53.2615

> <Gold.PLP.part.repulsive>
1.7501

> <Gold.PLP.ligand.clash>
0.0000

> <Gold.PLP.ligand.torsion>
2.1627

> <Gold.PLP.Chemscore.Hbond>
1.6240

> <Gold.PLP.Chemscore.CHOScore>
0.0000

> <Gold.PLP.Chemscore.Metal>
0.0000

> <Gold.Chemscore.Hbonds>
donor molecule, donor type, donor heavy atom, donor atom, acceptor molecule, acceptor atom, score
      L1  H     1    25       P1  7949  0.45
      P1  H 10752 10764       L1     1  1.00

> <Gold.PLP.Chemscore.Internal.Correction>
0.2031

> <Gold.Rescore>
     Score         DG    S(hbond)    S(metal)    S(lipo)     H(rot)  DE(clash)    DE(int)     intcor
     14.43     -17.33       1.29        0.00     137.19       3.33       0.74       2.16       ----

> <Gold.Chemscore.Fitness>
14.4275

> <Gold.Chemscore.DG>
-17.3275

> <Gold.Chemscore.ZeroCoef>
-5.4800

> <Gold.Chemscore.Hbond>
1.2948

> <Gold.Chemscore.Metal>
0.0000

> <Gold.Chemscore.Lipo>
137.1947

> <Gold.Chemscore.Internal_Hbond>
0.0000

> <Gold.Chemscore.DEClash>
0.7389

> <Gold.Chemscore.DEInternal>
2.1612

> <Gold.Chemscore.Rot>
3.3316

> <Gold.Chemscore.Internal.Correction>
   9.000000E+99

> <Gold.Chemscore.Hbonds>
donor molecule, donor type, donor heavy atom, donor atom, acceptor molecule, acceptor atom, score
      L1  H     1    25       P1  7949  0.11
      P1  H 10752 10764       L1     1  0.90

> <Gold.Chemscore.Hbond.Weighted>
-4.3245

> <Gold.Chemscore.Metal.Weighted>
-0.0000

> <Gold.Chemscore.Lipo.Weighted>
-16.0518

> <Gold.Chemscore.Internal_Hbond.Weighted>
0.0000

> <Gold.Chemscore.DEClash.Weighted>
0.7389

> <Gold.Chemscore.DEInternal.Weighted>
2.1612

> <Gold.Chemscore.Rot.Weighted>
8.5288

> <Gold.Chemscore.Internal.Correction.Weighted>
   9.000000E+99

> <Gold.Protein.RotatedTorsions>
[ 6907 6896 6895 6894 ] final  -67.68 input  -60.11 | X-H torsion
[ 7974 7965 7964 7962 ] final   38.97 input  175.53 | X-H torsion
[ 8008 7997 7996 7995 ] final  -41.16 input   59.86 | X-H torsion
[ 10167 10162 10161 10158 ] final -131.22 input  -65.29 | X-H torsion
[ 10718 10713 10712 10709 ] final  135.74 input   66.30 | X-H torsion
[ 10763 10752 10751 10750 ] final  -82.51 input  -60.55 | X-H torsion
[ 11005 11000 10999 10996 ] final -144.47 input  -57.11 | X-H torsion

> <Gold.Protein.ActiveResidues>
 VAL166  LYS551  ARG553  GLY616  TRP617  ASP618  TYR619  PRO620  LYS621  CYS622 
 ASP623  PHE694  ASN695  SER759  ASP760  ASP761  ALA762  ILE779  LEU786  VAL792 
 PHE793  MET794  SER795  GLU796  ALA797  LYS798  CYS799  TRP800  GLU811  SER814 

> <Gold.Protein.RotatedAtoms>
  150.7396  134.5846  159.5956 H   0  0  0  0  0  0  0  0  0  0  0  0  # atno 6907 bound_to 6896
  152.3251  134.7328  160.0313 H   0  0  0  0  0  0  0  0  0  0  0  0  # atno 6908 bound_to 6896
  151.7831  133.3316  159.3514 H   0  0  0  0  0  0  0  0  0  0  0  0  # atno 6909 bound_to 6896
  146.1021  139.5708  142.9407 H   0  0  0  0  0  0  0  0  0  0  0  0  # atno 7974 bound_to 7965
  154.4006  140.1506  156.3145 H   0  0  0  0  0  0  0  0  0  0  0  0  # atno 8008 bound_to 7997
  155.8585  140.3454  155.5719 H   0  0  0  0  0  0  0  0  0  0  0  0  # atno 8009 bound_to 7997
  155.7906  140.0856  157.2001 H   0  0  0  0  0  0  0  0  0  0  0  0  # atno 8010 bound_to 7997
  139.9212  143.6380  152.2553 H   0  0  0  0  0  0  0  0  0  0  0  0  # atno 10167 bound_to 10162
  157.4539  131.1068  151.0001 H   0  0  0  0  0  0  0  0  0  0  0  0  # atno 10718 bound_to 10713
  154.5767  135.5588  153.7146 H   0  0  0  0  0  0  0  0  0  0  0  0  # atno 10763 bound_to 10752
  153.0067  135.6310  154.2040 H   0  0  0  0  0  0  0  0  0  0  0  0  # atno 10764 bound_to 10752
  154.1980  135.2879  155.2980 H   0  0  0  0  0  0  0  0  0  0  0  0  # atno 10765 bound_to 10752
  140.8021  134.2845  157.4974 H   0  0  0  0  0  0  0  0  0  0  0  0  # atno 11005 bound_to 11000
  145.5834  141.0379  143.2110 LP  0  0  0  0  0  0  0  0  0  0  0  0  # atno 17320 bound_to 7965
  144.7441  139.7368  143.7299 LP  0  0  0  0  0  0  0  0  0  0  0  0  # atno 17321 bound_to 7965
  139.6860  144.7651  151.1523 LP  0  0  0  0  0  0  0  0  0  0  0  0  # atno 17342 bound_to 10162
  140.7662  143.5656  150.9051 LP  0  0  0  0  0  0  0  0  0  0  0  0  # atno 17343 bound_to 10162
  157.0821  130.5907  149.5422 LP  0  0  0  0  0  0  0  0  0  0  0  0  # atno 17370 bound_to 10713
  155.9999  130.5075  150.7622 LP  0  0  0  0  0  0  0  0  0  0  0  0  # atno 17371 bound_to 10713
  139.8721  134.9435  156.3855 LP  0  0  0  0  0  0  0  0  0  0  0  0  # atno 17394 bound_to 11000
  140.9284  133.7596  155.9994 LP  0  0  0  0  0  0  0  0  0  0  0  0  # atno 17395 bound_to 11000

$$$$
