AV-unprocessed.smi:2698|AV-procd|sdf|10421|dock10
  -GOLD-   2272014463D 1   1.00000     0.00000
 Structure written by MMmdl.
 33 33  0  0  0  0  0  0  0  0  2 V2000
  153.3830  141.8519  160.9043 C   0  0  0  0  0  0  0  0  0  0  0  0
  152.7693  142.2304  159.5428 C   0  0  0  0  0  0  0  0  0  0  0  0
  151.9806  143.5435  159.6702 C   0  0  0  0  0  0  0  0  0  0  0  0
  151.8762  141.1154  158.9452 C   0  0  0  0  0  0  0  0  0  0  0  0
  152.6351  139.8858  158.4252 C   0  0  0  0  0  0  0  0  0  0  0  0
  153.8060  139.6820  158.7450 O   0  0  0  0  0  0  0  0  0  0  0  0
  151.9428  139.0658  157.6190 N   0  0  0  0  0  0  0  0  0  0  0  0
  152.4390  137.8289  157.0211 C   0  0  2  0  0  0  0  0  0  0  0  0
  152.3430  137.8860  155.4810 C   0  0  0  0  0  0  0  0  0  0  0  0
  151.2968  138.8359  154.9509 C   0  0  0  0  0  0  0  0  0  0  0  0
  150.2846  138.5860  154.0463 C   0  0  0  0  0  0  0  0  0  0  0  0
  149.6094  139.7816  153.8796 N   0  0  0  0  0  0  0  0  0  0  0  0
  150.2110  140.6813  154.6589 C   0  0  0  0  0  0  0  0  0  0  0  0
  151.2354  140.1802  155.3363 N   0  0  0  0  0  0  0  0  0  0  0  0
  151.7325  136.6271  157.6604 C   0  0  0  0  0  0  0  0  0  0  0  0
  150.9980  136.8548  158.6474 O   0  0  0  0  0  0  0  0  0  0  0  0
  151.9338  135.5027  157.1518 O   0  5  0  0  0  0  0  0  0  0  0  0
  148.8164  139.9445  153.2759 H   0  0  0  0  0  0  0  0  0  0  0  0
  152.6082  141.6212  161.6360 H   0  0  0  0  0  0  0  0  0  0  0  0
  153.9795  142.6725  161.3040 H   0  0  0  0  0  0  0  0  0  0  0  0
  154.0416  140.9874  160.8361 H   0  0  0  0  0  0  0  0  0  0  0  0
  153.5904  142.4193  158.8494 H   0  0  0  0  0  0  0  0  0  0  0  0
  151.1338  143.4317  160.3483 H   0  0  0  0  0  0  0  0  0  0  0  0
  151.5929  143.8672  158.7038 H   0  0  0  0  0  0  0  0  0  0  0  0
  152.6109  144.3463  160.0536 H   0  0  0  0  0  0  0  0  0  0  0  0
  151.1392  140.7881  159.6793 H   0  0  0  0  0  0  0  0  0  0  0  0
  151.3039  141.5278  158.1125 H   0  0  0  0  0  0  0  0  0  0  0  0
  150.9832  139.3027  157.4119 H   0  0  0  0  0  0  0  0  0  0  0  0
  153.4965  137.7359  157.2778 H   0  0  0  0  0  0  0  0  0  0  0  0
  153.3083  138.1805  155.0668 H   0  0  0  0  0  0  0  0  0  0  0  0
  152.1307  136.8951  155.0785 H   0  0  0  0  0  0  0  0  0  0  0  0
  150.0079  137.6845  153.5195 H   0  0  0  0  0  0  0  0  0  0  0  0
  149.8976  141.7123  154.7308 H   0  0  0  0  0  0  0  0  0  0  0  0
  1  2  1  0  0  0  0
  1 19  1  0  0  0  0
  1 20  1  0  0  0  0
  1 21  1  0  0  0  0
  2  3  1  0  0  0  0
  2  4  1  0  0  0  0
  2 22  1  0  0  0  0
  3 23  1  0  0  0  0
  3 24  1  0  0  0  0
  3 25  1  0  0  0  0
  4  5  1  0  0  0  0
  4 26  1  0  0  0  0
  4 27  1  0  0  0  0
  5  6  2  0  0  0  0
  5  7  1  0  0  0  0
  7  8  1  0  0  0  0
  7 28  1  0  0  0  0
  8  9  1  0  0  0  0
  8 15  1  0  0  0  0
  8 29  1  0  0  0  0
  9 10  1  0  0  0  0
  9 30  1  0  0  0  0
  9 31  1  0  0  0  0
 10 14  1  0  0  0  0
 10 11  2  0  0  0  0
 11 12  1  0  0  0  0
 11 32  1  0  0  0  0
 12 18  1  0  0  0  0
 12 13  1  0  0  0  0
 13 14  2  0  0  0  0
 13 33  1  0  0  0  0
 15 16  2  0  0  0  0
 15 17  1  0  0  0  0
M  CHG  1  17  -1
M  END
> <s_m_source_file>
AV-unprocessed.smi

> <i_m_source_file_index>
2698

> <i_lp_mmshare_version>
43012

> <i_f3d_flags>
0

> <s_epik_input>
W0NIM11bQ0hdKFtDSDNdKVtDSDJdQyg9TylbTkhdW0NAQEhdKEMoPU8pW09IXSlbQ0gyXWMxW2NIXVtuSF1bY0hdbjE=

> <s_epik_cmdline>
J2VwaWtfcHl0aG9uJywgJy1waCcsICc3LjAnLCAnLXRuJywgJzgnLCAnLW1hJywgJzIwMCcsICctbWV0YWxfYmluZGluZycsICctaW1hZScsICc8aW5maWxlLm1hZT4nLCAnLW9tYWUnLCAnPG91dGZpbGUubWFlPic=

> <r_lp_tautomer_probability>
0.5

> <r_epik_Ionization_Penalty>
0.818672

> <r_epik_Ionization_Penalty_Charging>
0.818672

> <r_epik_Ionization_Penalty_Neutral>
7.99661e-08

> <r_epik_State_Penalty>
0.927032

> <r_epik_Charging_Adjusted_Penalty>
1.7457

> <i_epik_Tot_Q>
-1

> <i_epik_Tot_abs_Q>
1

> <r_epik_Metal_State_Penalty>
0.525537

> <b_epik_Metal_Only>
0

> <s_lp_Force_Field>
OPLS_2005

> <r_lp_Energy>
1.77679

> <b_lp_Chiralities_Consistent>
1

> <s_lp_Variant>
AV-unprocessed.smi:2698-5

> <Gold.Version>
5.8.1

> <Gold.Id.Protein>
6NUR|6NUR_protein|mol2

> <Gold.PLP.Fitness>
45.7025

> <Gold.PLP.PLP>
-31.7315

> <Gold.PLP.part.hbond>
-4.8747

> <Gold.PLP.part.metal>
0.0000

> <Gold.PLP.part.buried>
-3.0688

> <Gold.PLP.part.nonpolar>
-24.9868

> <Gold.PLP.part.repulsive>
0.2167

> <Gold.PLP.ligand.clash>
0.0000

> <Gold.PLP.ligand.torsion>
1.1336

> <Gold.PLP.Chemscore.Hbond>
4.3728

> <Gold.PLP.Chemscore.CHOScore>
1.0000

> <Gold.PLP.Chemscore.Metal>
0.0000

> <Gold.Chemscore.Hbonds>
donor molecule, donor type, donor heavy atom, donor atom, acceptor molecule, acceptor atom, score
      L1  H    12    18       P1  7957  0.06
      P1  H  6896  6909       L1    16  1.38
      P1  H  7997  8010       L1     6  1.00
      P1  H 10752 10765       L1    17  0.20
      L1  C    11    32       P1  7948  1.00
      L1  C    11    32       P1  7949  0.01

> <Gold.PLP.Chemscore.Internal.Correction>
0.1199

> <Gold.Rescore>
     Score         DG    S(hbond)    S(metal)    S(lipo)     H(rot)  DE(clash)    DE(int)     intcor
     11.36     -14.14       2.60        0.00      65.76       3.01       0.00       2.77       ----

> <Gold.Chemscore.Fitness>
11.3647

> <Gold.Chemscore.DG>
-14.1400

> <Gold.Chemscore.ZeroCoef>
-5.4800

> <Gold.Chemscore.Hbond>
2.5996

> <Gold.Chemscore.Metal>
0.0000

> <Gold.Chemscore.Lipo>
65.7630

> <Gold.Chemscore.Internal_Hbond>
0.0000

> <Gold.Chemscore.DEClash>
0.0004

> <Gold.Chemscore.DEInternal>
2.7749

> <Gold.Chemscore.Rot>
3.0145

> <Gold.Chemscore.Internal.Correction>
   9.000000E+99

> <Gold.Chemscore.Hbonds>
donor molecule, donor type, donor heavy atom, donor atom, acceptor molecule, acceptor atom, score
      L1  H    12    18       P1  7957  0.07
      P1  H  6896  6909       L1    16  0.30
      P1  H  7997  8010       L1     6  0.79
      P1  H 10752 10765       L1    17  0.12

> <Gold.Chemscore.Hbond.Weighted>
-8.6828

> <Gold.Chemscore.Metal.Weighted>
-0.0000

> <Gold.Chemscore.Lipo.Weighted>
-7.6943

> <Gold.Chemscore.Internal_Hbond.Weighted>
0.0000

> <Gold.Chemscore.DEClash.Weighted>
0.0004

> <Gold.Chemscore.DEInternal.Weighted>
2.7749

> <Gold.Chemscore.Rot.Weighted>
7.7171

> <Gold.Chemscore.Internal.Correction.Weighted>
   9.000000E+99

> <Gold.Protein.RotatedTorsions>
[ 6907 6896 6895 6894 ] final  101.09 input  -60.11 | X-H torsion
[ 7974 7965 7964 7962 ] final   55.71 input  175.53 | X-H torsion
[ 8008 7997 7996 7995 ] final    4.09 input   59.86 | X-H torsion
[ 10167 10162 10161 10158 ] final  176.08 input  -65.29 | X-H torsion
[ 10718 10713 10712 10709 ] final  -32.61 input   66.30 | X-H torsion
[ 10763 10752 10751 10750 ] final -145.53 input  -60.55 | X-H torsion
[ 11005 11000 10999 10996 ] final   75.07 input  -57.11 | X-H torsion

> <Gold.Protein.ActiveResidues>
 VAL166  LYS551  ARG553  GLY616  TRP617  ASP618  TYR619  PRO620  LYS621  CYS622 
 ASP623  PHE694  ASN695  SER759  ASP760  ASP761  ALA762  ILE779  LEU786  VAL792 
 PHE793  MET794  SER795  GLU796  ALA797  LYS798  CYS799  TRP800  GLU811  SER814 

> <Gold.Protein.RotatedAtoms>
  152.5357  134.0179  159.7967 H   0  0  0  0  0  0  0  0  0  0  0  0  # atno 6907 bound_to 6896
  151.0370  133.5732  159.2662 H   0  0  0  0  0  0  0  0  0  0  0  0  # atno 6908 bound_to 6896
  151.2715  135.0693  159.9189 H   0  0  0  0  0  0  0  0  0  0  0  0  # atno 6909 bound_to 6896
  145.9476  139.3943  143.0326 H   0  0  0  0  0  0  0  0  0  0  0  0  # atno 7974 bound_to 7965
  154.7117  140.2694  155.6623 H   0  0  0  0  0  0  0  0  0  0  0  0  # atno 8008 bound_to 7997
  156.2797  140.2752  156.1685 H   0  0  0  0  0  0  0  0  0  0  0  0  # atno 8009 bound_to 7997
  155.0626  140.0371  157.2572 H   0  0  0  0  0  0  0  0  0  0  0  0  # atno 8010 bound_to 7997
  139.5201  144.2956  152.0424 H   0  0  0  0  0  0  0  0  0  0  0  0  # atno 10167 bound_to 10162
  156.3728  130.4342  149.7531 H   0  0  0  0  0  0  0  0  0  0  0  0  # atno 10718 bound_to 10713
  154.8379  135.3411  154.6518 H   0  0  0  0  0  0  0  0  0  0  0  0  # atno 10763 bound_to 10752
  153.7131  135.6963  153.5036 H   0  0  0  0  0  0  0  0  0  0  0  0  # atno 10764 bound_to 10752
  153.2437  135.4376  155.0678 H   0  0  0  0  0  0  0  0  0  0  0  0  # atno 10765 bound_to 10752
  139.9361  134.7486  156.1225 H   0  0  0  0  0  0  0  0  0  0  0  0  # atno 11005 bound_to 11000
  145.8215  140.9676  143.0896 LP  0  0  0  0  0  0  0  0  0  0  0  0  # atno 17320 bound_to 7965
  144.6790  140.0048  143.7484 LP  0  0  0  0  0  0  0  0  0  0  0  0  # atno 17321 bound_to 7965
  140.2406  144.4273  150.6262 LP  0  0  0  0  0  0  0  0  0  0  0  0  # atno 17342 bound_to 10162
  140.6293  143.2185  151.6529 LP  0  0  0  0  0  0  0  0  0  0  0  0  # atno 17343 bound_to 10162
  156.4652  130.7970  151.2990 LP  0  0  0  0  0  0  0  0  0  0  0  0  # atno 17370 bound_to 10713
  157.7485  131.0053  150.3109 LP  0  0  0  0  0  0  0  0  0  0  0  0  # atno 17371 bound_to 10713
  141.0975  133.6690  156.2678 LP  0  0  0  0  0  0  0  0  0  0  0  0  # atno 17394 bound_to 11000
  140.6073  134.5494  157.5527 LP  0  0  0  0  0  0  0  0  0  0  0  0  # atno 17395 bound_to 11000

$$$$
