AV-unprocessed.smi:3345|AV-procd|sdf|12901|dock10
  -GOLD-   2272019313D 1   1.00000     0.00000
 Structure written by MMmdl.
 40 41  0  0  0  0  0  0  0  0  1 V2000
  146.1716  138.2942  152.1227 C   0  0  0  0  0  0  0  0  0  0  0  0
  146.1575  137.2056  153.2071 C   0  0  2  0  0  0  0  0  0  0  0  0
  147.0730  137.5758  154.3945 C   0  0  0  0  0  0  0  0  0  0  0  0
  148.2042  138.4425  154.0623 N   0  0  0  0  0  0  0  0  0  0  0  0
  147.9785  139.8362  154.4392 C   0  0  0  0  0  0  0  0  0  0  0  0
  149.1893  140.7252  154.1056 C   0  0  0  0  0  0  0  0  0  0  0  0
  150.3533  140.2080  154.7416 O   0  0  0  0  0  0  0  0  0  0  0  0
  150.6356  138.8656  154.3604 C   0  0  0  0  0  0  0  0  0  0  0  0
  149.4302  137.9712  154.6980 C   0  0  0  0  0  0  0  0  0  0  0  0
  146.6015  135.9477  152.6106 N   0  0  0  0  0  0  0  0  0  0  0  0
  145.8633  134.8318  152.5002 C   0  0  0  0  0  0  0  0  0  0  0  0
  144.7061  134.7431  152.9118 O   0  0  0  0  0  0  0  0  0  0  0  0
  146.5350  133.6378  151.8077 C   0  0  1  0  0  0  0  0  0  0  0  0
  146.9103  132.5279  152.8106 C   0  0  0  0  0  0  0  0  0  0  0  0
  145.6905  133.1543  150.7210 N   0  0  0  0  0  0  0  0  0  0  0  0
  145.9399  132.2286  149.7920 C   0  0  0  0  0  0  0  0  0  0  0  0
  144.9622  132.0709  148.9106 N   0  0  0  0  0  0  0  0  0  0  0  0
  144.0829  133.0066  149.3766 C   0  0  0  0  0  0  0  0  0  0  0  0
  144.4746  133.6921  150.4503 N   0  0  0  0  0  0  0  0  0  0  0  0
  145.8207  139.2474  152.5191 H   0  0  0  0  0  0  0  0  0  0  0  0
  145.5206  138.0284  151.2893 H   0  0  0  0  0  0  0  0  0  0  0  0
  147.1757  138.4478  151.7257 H   0  0  0  0  0  0  0  0  0  0  0  0
  145.1314  137.1182  153.5701 H   0  0  0  0  0  0  0  0  0  0  0  0
  146.4889  138.0080  155.2091 H   0  0  0  0  0  0  0  0  0  0  0  0
  147.4794  136.6469  154.7969 H   0  0  0  0  0  0  0  0  0  0  0  0
  147.1061  140.2309  153.9196 H   0  0  0  0  0  0  0  0  0  0  0  0
  147.7652  139.9011  155.5073 H   0  0  0  0  0  0  0  0  0  0  0  0
  149.3471  140.7729  153.0269 H   0  0  0  0  0  0  0  0  0  0  0  0
  149.0175  141.7453  154.4493 H   0  0  0  0  0  0  0  0  0  0  0  0
  150.8637  138.8219  153.2943 H   0  0  0  0  0  0  0  0  0  0  0  0
  151.5228  138.5229  154.8928 H   0  0  0  0  0  0  0  0  0  0  0  0
  149.2976  137.9409  155.7806 H   0  0  0  0  0  0  0  0  0  0  0  0
  149.6429  136.9498  154.3811 H   0  0  0  0  0  0  0  0  0  0  0  0
  147.5432  135.9279  152.2471 H   0  0  0  0  0  0  0  0  0  0  0  0
  147.4638  133.9873  151.3531 H   0  0  0  0  0  0  0  0  0  0  0  0
  147.5911  132.9058  153.5743 H   0  0  0  0  0  0  0  0  0  0  0  0
  147.4124  131.7019  152.3062 H   0  0  0  0  0  0  0  0  0  0  0  0
  146.0370  132.1210  153.3221 H   0  0  0  0  0  0  0  0  0  0  0  0
  146.8584  131.6615  149.7571 H   0  0  0  0  0  0  0  0  0  0  0  0
  143.1283  133.1927  148.9068 H   0  0  0  0  0  0  0  0  0  0  0  0
  1  2  1  0  0  0  0
  1 20  1  0  0  0  0
  1 21  1  0  0  0  0
  1 22  1  0  0  0  0
  2  3  1  0  0  0  0
  2 10  1  0  0  0  0
  2 23  1  0  0  0  0
  3  4  1  0  0  0  0
  3 24  1  0  0  0  0
  3 25  1  0  0  0  0
  4  9  1  0  0  0  0
  4  5  1  0  0  0  0
  5  6  1  0  0  0  0
  5 26  1  0  0  0  0
  5 27  1  0  0  0  0
  6  7  1  0  0  0  0
  6 28  1  0  0  0  0
  6 29  1  0  0  0  0
  7  8  1  0  0  0  0
  8  9  1  0  0  0  0
  8 30  1  0  0  0  0
  8 31  1  0  0  0  0
  9 32  1  0  0  0  0
  9 33  1  0  0  0  0
 10 11  1  0  0  0  0
 10 34  1  0  0  0  0
 11 12  2  0  0  0  0
 11 13  1  0  0  0  0
 13 14  1  0  0  0  0
 13 15  1  0  0  0  0
 13 35  1  0  0  0  0
 14 36  1  0  0  0  0
 14 37  1  0  0  0  0
 14 38  1  0  0  0  0
 15 19  1  0  0  0  0
 15 16  1  0  0  0  0
 16 17  2  0  0  0  0
 16 39  1  0  0  0  0
 17 18  1  0  0  0  0
 18 19  2  0  0  0  0
 18 40  1  0  0  0  0
M  END
> <s_m_source_file>
AV-unprocessed.smi

> <i_m_source_file_index>
3345

> <i_lp_mmshare_version>
43012

> <i_f3d_flags>
0

> <s_epik_input>
W0NIMl0xW0NIMl1PW0NIMl1bQ0gyXU4xW0NIMl1bQ0BASF0oW0NIM10pW05IXUMoPU8pW0NASF0oW0NIM10pbjJbY0hdbltjSF1uMg==

> <s_epik_cmdline>
J2VwaWtfcHl0aG9uJywgJy1waCcsICc3LjAnLCAnLXRuJywgJzgnLCAnLW1hJywgJzIwMCcsICctbWV0YWxfYmluZGluZycsICctaW1hZScsICc8aW5maWxlLm1hZT4nLCAnLW9tYWUnLCAnPG91dGZpbGUubWFlPic=

> <r_lp_tautomer_probability>
1

> <r_epik_Ionization_Penalty>
0.211373

> <r_epik_Ionization_Penalty_Charging>
0

> <r_epik_Ionization_Penalty_Neutral>
0.211373

> <r_epik_State_Penalty>
0.201459

> <r_epik_Charging_Adjusted_Penalty>
0.201459

> <i_epik_Tot_Q>
0

> <i_epik_Tot_abs_Q>
0

> <r_epik_Metal_State_Penalty>
0.201458

> <b_epik_Metal_Only>
0

> <s_lp_Force_Field>
OPLS_2005

> <r_lp_Energy>
31.9389

> <b_lp_Chiralities_Consistent>
1

> <s_lp_Variant>
AV-unprocessed.smi:3345-3

> <Gold.Version>
5.8.1

> <Gold.Id.Protein>
6NUR|6NUR_protein|mol2

> <Gold.PLP.Fitness>
37.5597

> <Gold.PLP.PLP>
-29.7919

> <Gold.PLP.part.hbond>
-2.5138

> <Gold.PLP.part.metal>
0.0000

> <Gold.PLP.part.buried>
-3.7109

> <Gold.PLP.part.nonpolar>
-24.8422

> <Gold.PLP.part.repulsive>
0.6986

> <Gold.PLP.ligand.clash>
0.0000

> <Gold.PLP.ligand.torsion>
1.2691

> <Gold.PLP.Chemscore.Hbond>
1.3875

> <Gold.PLP.Chemscore.CHOScore>
2.0000

> <Gold.PLP.Chemscore.Metal>
0.0000

> <Gold.Chemscore.Hbonds>
donor molecule, donor type, donor heavy atom, donor atom, acceptor molecule, acceptor atom, score
      L1  H    10    34       P1  7948  0.86
      P1  H  7989  7998       L1     7  0.47
      L1  C    16    39       P1 10747  1.00
      L1  C    18    40       P1 10186  1.00

> <Gold.PLP.Chemscore.Internal.Correction>
0.1436

> <Gold.Rescore>
     Score         DG    S(hbond)    S(metal)    S(lipo)     H(rot)  DE(clash)    DE(int)     intcor
      5.26      -8.10       0.98        0.00      49.86       2.54       0.03       2.80       ----

> <Gold.Chemscore.Fitness>
5.2611

> <Gold.Chemscore.DG>
-8.0977

> <Gold.Chemscore.ZeroCoef>
-5.4800

> <Gold.Chemscore.Hbond>
0.9804

> <Gold.Chemscore.Metal>
0.0000

> <Gold.Chemscore.Lipo>
49.8601

> <Gold.Chemscore.Internal_Hbond>
0.0000

> <Gold.Chemscore.DEClash>
0.0339

> <Gold.Chemscore.DEInternal>
2.8027

> <Gold.Chemscore.Rot>
2.5353

> <Gold.Chemscore.Internal.Correction>
   9.000000E+99

> <Gold.Chemscore.Hbonds>
donor molecule, donor type, donor heavy atom, donor atom, acceptor molecule, acceptor atom, score
      L1  H    10    34       P1  7948  0.84

> <Gold.Chemscore.Hbond.Weighted>
-3.2745

> <Gold.Chemscore.Metal.Weighted>
-0.0000

> <Gold.Chemscore.Lipo.Weighted>
-5.8336

> <Gold.Chemscore.Internal_Hbond.Weighted>
0.0000

> <Gold.Chemscore.DEClash.Weighted>
0.0339

> <Gold.Chemscore.DEInternal.Weighted>
2.8027

> <Gold.Chemscore.Rot.Weighted>
6.4905

> <Gold.Chemscore.Internal.Correction.Weighted>
   9.000000E+99

> <Gold.Protein.RotatedTorsions>
[ 6907 6896 6895 6894 ] final  102.40 input  -60.11 | X-H torsion
[ 7974 7965 7964 7962 ] final   78.04 input  175.53 | X-H torsion
[ 8008 7997 7996 7995 ] final  149.77 input   59.86 | X-H torsion
[ 10167 10162 10161 10158 ] final   68.34 input  -65.29 | X-H torsion
[ 10718 10713 10712 10709 ] final -159.38 input   66.30 | X-H torsion
[ 10763 10752 10751 10750 ] final -151.35 input  -60.55 | X-H torsion
[ 11005 11000 10999 10996 ] final  117.99 input  -57.11 | X-H torsion

> <Gold.Protein.ActiveResidues>
 VAL166  LYS551  ARG553  GLY616  TRP617  ASP618  TYR619  PRO620  LYS621  CYS622 
 ASP623  PHE694  ASN695  SER759  ASP760  ASP761  ALA762  ILE779  LEU786  VAL792 
 PHE793  MET794  SER795  GLU796  ALA797  LYS798  CYS799  TRP800  GLU811  SER814 

> <Gold.Protein.RotatedAtoms>
  152.5325  133.9981  159.7881 H   0  0  0  0  0  0  0  0  0  0  0  0  # atno 6907 bound_to 6896
  151.0205  133.5873  159.2679 H   0  0  0  0  0  0  0  0  0  0  0  0  # atno 6908 bound_to 6896
  151.2914  135.0750  159.9259 H   0  0  0  0  0  0  0  0  0  0  0  0  # atno 6909 bound_to 6896
  145.6823  139.2527  143.1807 H   0  0  0  0  0  0  0  0  0  0  0  0  # atno 7974 bound_to 7965
  156.2742  140.2093  156.5911 H   0  0  0  0  0  0  0  0  0  0  0  0  # atno 8008 bound_to 7997
  154.6982  140.0523  157.0455 H   0  0  0  0  0  0  0  0  0  0  0  0  # atno 8009 bound_to 7997
  155.0772  140.3183  155.4615 H   0  0  0  0  0  0  0  0  0  0  0  0  # atno 8010 bound_to 7997
  140.0797  144.5082  150.7170 H   0  0  0  0  0  0  0  0  0  0  0  0  # atno 10167 bound_to 10162
  156.5673  130.8673  151.2827 H   0  0  0  0  0  0  0  0  0  0  0  0  # atno 10718 bound_to 10713
  154.8063  135.3262  154.7423 H   0  0  0  0  0  0  0  0  0  0  0  0  # atno 10763 bound_to 10752
  153.8081  135.6898  153.4849 H   0  0  0  0  0  0  0  0  0  0  0  0  # atno 10764 bound_to 10752
  153.1810  135.4586  154.9973 H   0  0  0  0  0  0  0  0  0  0  0  0  # atno 10765 bound_to 10752
  139.9094  134.9616  156.7435 H   0  0  0  0  0  0  0  0  0  0  0  0  # atno 11005 bound_to 11000
  146.0954  140.7607  142.9575 LP  0  0  0  0  0  0  0  0  0  0  0  0  # atno 17320 bound_to 7965
  144.7022  140.3703  143.7146 LP  0  0  0  0  0  0  0  0  0  0  0  0  # atno 17321 bound_to 7965
  140.7084  143.2485  151.4656 LP  0  0  0  0  0  0  0  0  0  0  0  0  # atno 17342 bound_to 10162
  139.5787  144.1760  152.1938 LP  0  0  0  0  0  0  0  0  0  0  0  0  # atno 17343 bound_to 10162
  157.7356  130.9764  150.2089 LP  0  0  0  0  0  0  0  0  0  0  0  0  # atno 17370 bound_to 10713
  156.2746  130.3726  149.7997 LP  0  0  0  0  0  0  0  0  0  0  0  0  # atno 17371 bound_to 10713
  140.6830  133.9457  155.7921 LP  0  0  0  0  0  0  0  0  0  0  0  0  # atno 17394 bound_to 11000
  141.0496  134.0503  157.3800 LP  0  0  0  0  0  0  0  0  0  0  0  0  # atno 17395 bound_to 11000

$$$$
