AV-unprocessed.smi:906|AV-procd|sdf|4102|dock4
  -GOLD-   22720 1593D 1   1.00000     0.00000
 Structure written by MMmdl.
 48 49  0  0  0  0  0  0  0  0  2 V2000
  151.3056  145.0737  158.9450 C   0  0  0  0  0  0  0  0  0  0  0  0
  151.4650  143.6421  158.4796 C   0  0  0  0  0  0  0  0  0  0  0  0
  152.3144  142.7257  159.1357 C   0  0  0  0  0  0  0  0  0  0  0  0
  152.4179  141.4087  158.6425 C   0  0  0  0  0  0  0  0  0  0  0  0
  151.6711  141.0344  157.5036 C   0  0  0  0  0  0  0  0  0  0  0  0
  151.7870  139.6355  156.9233 C   0  0  0  0  0  0  0  0  0  0  0  0
  150.7267  139.3229  155.8492 C   0  0  0  0  0  0  0  0  0  0  0  0
  150.1884  137.9702  155.9745 N   0  0  0  0  0  0  0  0  0  0  0  0
  150.9082  136.8345  155.9968 C   0  0  0  0  0  0  0  0  0  0  0  0
  152.1377  136.8344  155.9192 O   0  0  0  0  0  0  0  0  0  0  0  0
  150.1782  135.7091  156.1897 N   0  0  0  0  0  0  0  0  0  0  0  0
  148.7318  135.5560  155.9758 C   0  0  0  0  0  0  0  0  0  0  0  0
  148.5036  134.7016  154.7138 C   0  0  0  0  0  0  0  0  0  0  0  0
  149.1460  133.3891  154.8692 N   0  0  0  0  0  0  0  0  0  0  0  0
  148.8919  132.4350  153.7761 C   0  0  2  0  0  0  0  0  0  0  0  0
  147.6458  132.7737  152.9285 C   0  0  0  0  0  0  0  0  0  0  0  0
  148.8833  130.9708  154.2777 C   0  0  0  0  0  0  0  0  0  0  0  0
  150.1041  130.6122  154.6772 F   0  0  0  0  0  0  0  0  0  0  0  0
  148.0264  130.7856  155.2818 F   0  0  0  0  0  0  0  0  0  0  0  0
  148.5264  130.1689  153.2746 F   0  0  0  0  0  0  0  0  0  0  0  0
  150.5816  133.5391  155.1369 C   0  0  0  0  0  0  0  0  0  0  0  0
  150.7953  134.3967  156.3983 C   0  0  0  0  0  0  0  0  0  0  0  0
  150.8324  141.9919  156.8938 C   0  0  0  0  0  0  0  0  0  0  0  0
  150.7624  143.2439  157.3954 N   0  3  0  0  0  0  0  0  0  0  0  0
  151.9600  145.2869  159.7909 H   0  0  0  0  0  0  0  0  0  0  0  0
  150.2769  145.2605  159.2542 H   0  0  0  0  0  0  0  0  0  0  0  0
  151.5553  145.7655  158.1400 H   0  0  0  0  0  0  0  0  0  0  0  0
  152.8846  143.0265  160.0026 H   0  0  0  0  0  0  0  0  0  0  0  0
  153.0732  140.6997  159.1274 H   0  0  0  0  0  0  0  0  0  0  0  0
  152.7848  139.5023  156.5029 H   0  0  0  0  0  0  0  0  0  0  0  0
  151.7042  138.9150  157.7378 H   0  0  0  0  0  0  0  0  0  0  0  0
  149.8972  140.0238  155.9445 H   0  0  0  0  0  0  0  0  0  0  0  0
  151.1406  139.4806  154.8518 H   0  0  0  0  0  0  0  0  0  0  0  0
  149.1856  137.8885  156.0612 H   0  0  0  0  0  0  0  0  0  0  0  0
  148.2885  135.0677  156.8452 H   0  0  0  0  0  0  0  0  0  0  0  0
  148.2001  136.5012  155.8695 H   0  0  0  0  0  0  0  0  0  0  0  0
  147.4328  134.5878  154.5586 H   0  0  0  0  0  0  0  0  0  0  0  0
  148.9041  135.2225  153.8435 H   0  0  0  0  0  0  0  0  0  0  0  0
  149.7559  132.5045  153.1137 H   0  0  0  0  0  0  0  0  0  0  0  0
  147.5731  132.1038  152.0717 H   0  0  0  0  0  0  0  0  0  0  0  0
  147.6799  133.7887  152.5343 H   0  0  0  0  0  0  0  0  0  0  0  0
  146.7229  132.6642  153.4979 H   0  0  0  0  0  0  0  0  0  0  0  0
  151.0344  132.5587  155.2885 H   0  0  0  0  0  0  0  0  0  0  0  0
  151.0855  133.9996  154.2868 H   0  0  0  0  0  0  0  0  0  0  0  0
  151.8602  134.4657  156.6240 H   0  0  0  0  0  0  0  0  0  0  0  0
  150.3406  133.9147  157.2652 H   0  0  0  0  0  0  0  0  0  0  0  0
  150.2315  141.8002  156.0168 H   0  0  0  0  0  0  0  0  0  0  0  0
  150.1557  143.9206  156.9318 H   0  0  0  0  0  0  0  0  0  0  0  0
  1  2  1  0  0  0  0
  1 25  1  0  0  0  0
  1 26  1  0  0  0  0
  1 27  1  0  0  0  0
  2 24  1  0  0  0  0
  2  3  2  0  0  0  0
  3  4  1  0  0  0  0
  3 28  1  0  0  0  0
  4  5  2  0  0  0  0
  4 29  1  0  0  0  0
  5  6  1  0  0  0  0
  5 23  1  0  0  0  0
  6  7  1  0  0  0  0
  6 30  1  0  0  0  0
  6 31  1  0  0  0  0
  7  8  1  0  0  0  0
  7 32  1  0  0  0  0
  7 33  1  0  0  0  0
  8  9  1  0  0  0  0
  8 34  1  0  0  0  0
  9 10  2  0  0  0  0
  9 11  1  0  0  0  0
 11 22  1  0  0  0  0
 11 12  1  0  0  0  0
 12 13  1  0  0  0  0
 12 35  1  0  0  0  0
 12 36  1  0  0  0  0
 13 14  1  0  0  0  0
 13 37  1  0  0  0  0
 13 38  1  0  0  0  0
 14 15  1  0  0  0  0
 14 21  1  0  0  0  0
 15 16  1  0  0  0  0
 15 17  1  0  0  0  0
 15 39  1  0  0  0  0
 16 40  1  0  0  0  0
 16 41  1  0  0  0  0
 16 42  1  0  0  0  0
 17 18  1  0  0  0  0
 17 19  1  0  0  0  0
 17 20  1  0  0  0  0
 21 22  1  0  0  0  0
 21 43  1  0  0  0  0
 21 44  1  0  0  0  0
 22 45  1  0  0  0  0
 22 46  1  0  0  0  0
 23 24  2  0  0  0  0
 23 47  1  0  0  0  0
 24 48  1  0  0  0  0
M  CHG  1  24   1
M  END
> <s_m_source_file>
AV-unprocessed.smi

> <i_m_source_file_index>
906

> <i_lp_mmshare_version>
43012

> <i_f3d_flags>
0

> <s_epik_input>
W0NIM11jMVtjSF1bY0hdYyhbY0hdbjEpW0NIMl1bQ0gyXVtOSF1DKD1PKU4yW0NIMl1bQ0gyXU4oW0NASF0oW0NIM10pQyhGKShGKUYpW0NIMl1bQ0gyXTI=

> <s_epik_cmdline>
J2VwaWtfcHl0aG9uJywgJy1waCcsICc3LjAnLCAnLXRuJywgJzgnLCAnLW1hJywgJzIwMCcsICctbWV0YWxfYmluZGluZycsICctaW1hZScsICc8aW5maWxlLm1hZT4nLCAnLW9tYWUnLCAnPG91dGZpbGUubWFlPic=

> <r_epik_Ionization_Penalty>
1.4413

> <r_epik_Ionization_Penalty_Charging>
1.42075

> <r_epik_Ionization_Penalty_Neutral>
0.0205507

> <r_epik_State_Penalty>
1.52216

> <r_epik_Charging_Adjusted_Penalty>
2.94291

> <i_epik_Tot_Q>
1

> <i_epik_Tot_abs_Q>
1

> <r_epik_Metal_State_Penalty>
1.57308

> <b_epik_Metal_Only>
0

> <s_lp_Force_Field>
OPLS_2005

> <r_lp_Energy>
52.9553

> <b_lp_Chiralities_Consistent>
1

> <s_lp_Variant>
AV-unprocessed.smi:906-3

> <Gold.Version>
5.8.1

> <Gold.Id.Protein>
6NUR|6NUR_protein|mol2

> <Gold.PLP.Fitness>
46.8333

> <Gold.PLP.PLP>
-40.2491

> <Gold.PLP.part.hbond>
-2.0000

> <Gold.PLP.part.metal>
0.0000

> <Gold.PLP.part.buried>
-5.3977

> <Gold.PLP.part.nonpolar>
-31.9261

> <Gold.PLP.part.repulsive>
0.0904

> <Gold.PLP.ligand.clash>
0.0000

> <Gold.PLP.ligand.torsion>
1.5213

> <Gold.PLP.Chemscore.Hbond>
2.9600

> <Gold.PLP.Chemscore.CHOScore>
0.0000

> <Gold.PLP.Chemscore.Metal>
0.0000

> <Gold.Chemscore.Hbonds>
donor molecule, donor type, donor heavy atom, donor atom, acceptor molecule, acceptor atom, score
      L1  H    24    48       P1  8028  2.00
      P1  H 10752 10764       L1    10  1.00

> <Gold.PLP.Chemscore.Internal.Correction>
0.7468

> <Gold.Rescore>
     Score         DG    S(hbond)    S(metal)    S(lipo)     H(rot)  DE(clash)    DE(int)     intcor
     16.92     -19.48       1.99        0.00      99.01       1.66       0.02       2.54       ----

> <Gold.Chemscore.Fitness>
16.9173

> <Gold.Chemscore.DG>
-19.4804

> <Gold.Chemscore.ZeroCoef>
-5.4800

> <Gold.Chemscore.Hbond>
1.9923

> <Gold.Chemscore.Metal>
0.0000

> <Gold.Chemscore.Lipo>
99.0052

> <Gold.Chemscore.Internal_Hbond>
0.0000

> <Gold.Chemscore.DEClash>
0.0208

> <Gold.Chemscore.DEInternal>
2.5423

> <Gold.Chemscore.Rot>
1.6553

> <Gold.Chemscore.Internal.Correction>
   9.000000E+99

> <Gold.Chemscore.Hbonds>
donor molecule, donor type, donor heavy atom, donor atom, acceptor molecule, acceptor atom, score
      L1  H    24    48       P1  8028  0.97
      P1  H 10752 10764       L1    10  0.93

> <Gold.Chemscore.Hbond.Weighted>
-6.6544

> <Gold.Chemscore.Metal.Weighted>
-0.0000

> <Gold.Chemscore.Lipo.Weighted>
-11.5836

> <Gold.Chemscore.Internal_Hbond.Weighted>
0.0000

> <Gold.Chemscore.DEClash.Weighted>
0.0208

> <Gold.Chemscore.DEInternal.Weighted>
2.5423

> <Gold.Chemscore.Rot.Weighted>
4.2376

> <Gold.Chemscore.Internal.Correction.Weighted>
   9.000000E+99

> <Gold.Protein.RotatedTorsions>
[ 6907 6896 6895 6894 ] final   29.57 input  -60.11 | X-H torsion
[ 7974 7965 7964 7962 ] final   -2.61 input  175.53 | X-H torsion
[ 8008 7997 7996 7995 ] final   63.34 input   59.86 | X-H torsion
[ 10167 10162 10161 10158 ] final -123.55 input  -65.29 | X-H torsion
[ 10718 10713 10712 10709 ] final   40.83 input   66.30 | X-H torsion
[ 10763 10752 10751 10750 ] final  -45.31 input  -60.55 | X-H torsion
[ 11005 11000 10999 10996 ] final -138.85 input  -57.11 | X-H torsion

> <Gold.Protein.ActiveResidues>
 VAL166  LYS551  ARG553  GLY616  TRP617  ASP618  TYR619  PRO620  LYS621  CYS622 
 ASP623  PHE694  ASN695  SER759  ASP760  ASP761  ALA762  ILE779  LEU786  VAL792 
 PHE793  MET794  SER795  GLU796  ALA797  LYS798  CYS799  TRP800  GLU811  SER814 

> <Gold.Protein.RotatedAtoms>
  152.0334  134.9754  160.0572 H   0  0  0  0  0  0  0  0  0  0  0  0  # atno 6907 bound_to 6896
  152.1222  133.4355  159.4689 H   0  0  0  0  0  0  0  0  0  0  0  0  # atno 6908 bound_to 6896
  150.6850  134.2440  159.4527 H   0  0  0  0  0  0  0  0  0  0  0  0  # atno 6909 bound_to 6896
  146.2402  140.1596  142.8333 H   0  0  0  0  0  0  0  0  0  0  0  0  # atno 7974 bound_to 7965
  155.6287  140.3496  155.4675 H   0  0  0  0  0  0  0  0  0  0  0  0  # atno 8008 bound_to 7997
  156.0021  140.1215  157.0561 H   0  0  0  0  0  0  0  0  0  0  0  0  # atno 8009 bound_to 7997
  154.4252  140.1098  156.5697 H   0  0  0  0  0  0  0  0  0  0  0  0  # atno 8010 bound_to 7997
  140.0023  143.5527  152.2298 H   0  0  0  0  0  0  0  0  0  0  0  0  # atno 10167 bound_to 10162
  157.3866  130.7783  149.7236 H   0  0  0  0  0  0  0  0  0  0  0  0  # atno 10718 bound_to 10713
  154.0264  135.6662  153.4777 H   0  0  0  0  0  0  0  0  0  0  0  0  # atno 10763 bound_to 10752
  153.0558  135.5057  154.7974 H   0  0  0  0  0  0  0  0  0  0  0  0  # atno 10764 bound_to 10752
  154.6905  135.3060  154.9451 H   0  0  0  0  0  0  0  0  0  0  0  0  # atno 10765 bound_to 10752
  140.8576  134.2208  157.4725 H   0  0  0  0  0  0  0  0  0  0  0  0  # atno 11005 bound_to 11000
  145.0100  140.8706  143.5230 LP  0  0  0  0  0  0  0  0  0  0  0  0  # atno 17320 bound_to 7965
  145.1628  139.2448  143.5382 LP  0  0  0  0  0  0  0  0  0  0  0  0  # atno 17321 bound_to 7965
  139.6263  144.7637  151.2632 LP  0  0  0  0  0  0  0  0  0  0  0  0  # atno 17342 bound_to 10162
  140.7414  143.6559  150.8207 LP  0  0  0  0  0  0  0  0  0  0  0  0  # atno 17343 bound_to 10162
  155.9788  130.4047  150.3625 LP  0  0  0  0  0  0  0  0  0  0  0  0  # atno 17370 bound_to 10713
  157.1736  131.0375  151.2783 LP  0  0  0  0  0  0  0  0  0  0  0  0  # atno 17371 bound_to 10713
  139.8706  134.9714  156.4735 LP  0  0  0  0  0  0  0  0  0  0  0  0  # atno 17394 bound_to 11000
  140.8719  133.7982  155.9374 LP  0  0  0  0  0  0  0  0  0  0  0  0  # atno 17395 bound_to 11000

$$$$
