AV-unprocessed.smi:905|AV-procd|sdf|4099|dock6
  -GOLD-   22720 1593D 1   1.00000     0.00000
 Structure written by MMmdl.
 37 38  0  0  0  0  0  0  0  0  1 V2000
  143.9778  143.3808  154.6571 N   0  0  0  0  0  0  0  0  0  0  0  0
  145.2701  142.8631  154.8421 C   0  0  0  0  0  0  0  0  0  0  0  0
  145.8718  142.8432  156.0237 N   0  0  0  0  0  0  0  0  0  0  0  0
  147.1106  142.2485  155.7442 O   0  0  0  0  0  0  0  0  0  0  0  0
  147.1081  141.9982  154.4127 C   0  0  0  0  0  0  0  0  0  0  0  0
  148.2881  141.3163  153.8060 C   0  0  0  0  0  0  0  0  0  0  0  0
  149.3986  141.0419  154.8335 C   0  0  0  0  0  0  0  0  0  0  0  0
  149.7063  142.2271  155.6259 N   0  0  0  0  0  0  0  0  0  0  0  0
  150.6351  142.2804  156.5909 C   0  0  0  0  0  0  0  0  0  0  0  0
  151.3376  141.3255  156.9230 O   0  0  0  0  0  0  0  0  0  0  0  0
  150.7033  143.4953  157.1534 N   0  0  0  0  0  0  0  0  0  0  0  0
  151.6094  143.8685  158.2358 C   0  0  0  0  0  0  0  0  0  0  0  0
  151.7372  142.7207  159.2593 C   0  0  0  0  0  0  0  0  0  0  0  0
  152.6313  143.1212  160.4440 C   0  0  0  0  0  0  0  0  0  0  0  0
  152.1259  144.4074  161.1162 C   0  0  0  0  0  0  0  0  0  0  0  0
  152.0014  145.5532  160.0994 C   0  0  0  0  0  0  0  0  0  0  0  0
  151.1031  145.1539  158.9176 C   0  0  0  0  0  0  0  0  0  0  0  0
  145.9772  142.3447  153.8023 N   0  0  0  0  0  0  0  0  0  0  0  0
  143.5525  143.3749  153.7413 H   0  0  0  0  0  0  0  0  0  0  0  0
  143.4589  143.7508  155.4401 H   0  0  0  0  0  0  0  0  0  0  0  0
  147.9556  140.3814  153.3528 H   0  0  0  0  0  0  0  0  0  0  0  0
  148.6636  141.9404  152.9943 H   0  0  0  0  0  0  0  0  0  0  0  0
  149.1150  140.2189  155.4921 H   0  0  0  0  0  0  0  0  0  0  0  0
  150.3093  140.7298  154.3210 H   0  0  0  0  0  0  0  0  0  0  0  0
  149.1789  143.0635  155.4225 H   0  0  0  0  0  0  0  0  0  0  0  0
  150.0838  144.2149  156.8107 H   0  0  0  0  0  0  0  0  0  0  0  0
  152.5956  144.0764  157.8160 H   0  0  0  0  0  0  0  0  0  0  0  0
  150.7492  142.4440  159.6298 H   0  0  0  0  0  0  0  0  0  0  0  0
  152.1469  141.8309  158.7797 H   0  0  0  0  0  0  0  0  0  0  0  0
  152.6677  142.3105  161.1724 H   0  0  0  0  0  0  0  0  0  0  0  0
  153.6540  143.2691  160.0947 H   0  0  0  0  0  0  0  0  0  0  0  0
  151.1555  144.2215  161.5781 H   0  0  0  0  0  0  0  0  0  0  0  0
  152.8015  144.6963  161.9219 H   0  0  0  0  0  0  0  0  0  0  0  0
  151.6003  146.4418  160.5876 H   0  0  0  0  0  0  0  0  0  0  0  0
  152.9915  145.8236  159.7299 H   0  0  0  0  0  0  0  0  0  0  0  0
  151.0643  145.9705  158.1953 H   0  0  0  0  0  0  0  0  0  0  0  0
  150.0822  145.0081  159.2742 H   0  0  0  0  0  0  0  0  0  0  0  0
  1  2  1  0  0  0  0
  1 19  1  0  0  0  0
  1 20  1  0  0  0  0
  2 18  1  0  0  0  0
  2  3  2  0  0  0  0
  3  4  1  0  0  0  0
  4  5  1  0  0  0  0
  5  6  1  0  0  0  0
  5 18  2  0  0  0  0
  6  7  1  0  0  0  0
  6 21  1  0  0  0  0
  6 22  1  0  0  0  0
  7  8  1  0  0  0  0
  7 23  1  0  0  0  0
  7 24  1  0  0  0  0
  8  9  1  0  0  0  0
  8 25  1  0  0  0  0
  9 10  2  0  0  0  0
  9 11  1  0  0  0  0
 11 12  1  0  0  0  0
 11 26  1  0  0  0  0
 12 17  1  0  0  0  0
 12 13  1  0  0  0  0
 12 27  1  0  0  0  0
 13 14  1  0  0  0  0
 13 28  1  0  0  0  0
 13 29  1  0  0  0  0
 14 15  1  0  0  0  0
 14 30  1  0  0  0  0
 14 31  1  0  0  0  0
 15 16  1  0  0  0  0
 15 32  1  0  0  0  0
 15 33  1  0  0  0  0
 16 17  1  0  0  0  0
 16 34  1  0  0  0  0
 16 35  1  0  0  0  0
 17 36  1  0  0  0  0
 17 37  1  0  0  0  0
M  END
> <s_m_source_file>
AV-unprocessed.smi

> <i_m_source_file_index>
905

> <i_lp_mmshare_version>
43012

> <i_f3d_flags>
0

> <s_epik_input>
W05IMl1jMW5vYyhuMSlbQ0gyXVtDSDJdW05IXUMoPU8pW05IXVtDSF0yW0NIMl1bQ0gyXVtDSDJdW0NIMl1bQ0gyXTI=

> <s_epik_cmdline>
J2VwaWtfcHl0aG9uJywgJy1waCcsICc3LjAnLCAnLXRuJywgJzgnLCAnLW1hJywgJzIwMCcsICctbWV0YWxfYmluZGluZycsICctaW1hZScsICc8aW5maWxlLm1hZT4nLCAnLW9tYWUnLCAnPG91dGZpbGUubWFlPic=

> <r_lp_tautomer_probability>
1

> <r_epik_Ionization_Penalty>
0.000203748

> <r_epik_Ionization_Penalty_Charging>
0

> <r_epik_Ionization_Penalty_Neutral>
0.000203748

> <r_epik_State_Penalty>
-0

> <r_epik_Charging_Adjusted_Penalty>
0

> <i_epik_Tot_Q>
0

> <i_epik_Tot_abs_Q>
0

> <r_epik_Metal_State_Penalty>
-0

> <b_epik_Metal_Only>
0

> <s_lp_Force_Field>
OPLS_2005

> <r_lp_Energy>
0.830847

> <b_lp_Chiralities_Consistent>
1

> <s_lp_Variant>
AV-unprocessed.smi:905-1

> <Gold.Version>
5.8.1

> <Gold.Id.Protein>
6NUR|6NUR_protein|mol2

> <Gold.PLP.Fitness>
48.5326

> <Gold.PLP.PLP>
-40.1350

> <Gold.PLP.part.hbond>
-3.0000

> <Gold.PLP.part.metal>
0.0000

> <Gold.PLP.part.buried>
-5.2798

> <Gold.PLP.part.nonpolar>
-33.0922

> <Gold.PLP.part.repulsive>
1.4412

> <Gold.PLP.ligand.clash>
0.0000

> <Gold.PLP.ligand.torsion>
0.3094

> <Gold.PLP.Chemscore.Hbond>
3.0000

> <Gold.PLP.Chemscore.CHOScore>
0.0000

> <Gold.PLP.Chemscore.Metal>
0.0000

> <Gold.Chemscore.Hbonds>
donor molecule, donor type, donor heavy atom, donor atom, acceptor molecule, acceptor atom, score
      L1  H     1    19       P1 10174  0.99
      L1  H     8    25       P1  8028  1.00
      L1  H    11    26       P1  8028  1.00

> <Gold.PLP.Chemscore.Internal.Correction>
0.0163

> <Gold.Rescore>
     Score         DG    S(hbond)    S(metal)    S(lipo)     H(rot)  DE(clash)    DE(int)     intcor
     16.26     -18.09       2.58        0.00      86.27       2.39       0.15       1.68       ----

> <Gold.Chemscore.Fitness>
16.2576

> <Gold.Chemscore.DG>
-18.0857

> <Gold.Chemscore.ZeroCoef>
-5.4800

> <Gold.Chemscore.Hbond>
2.5812

> <Gold.Chemscore.Metal>
0.0000

> <Gold.Chemscore.Lipo>
86.2726

> <Gold.Chemscore.Internal_Hbond>
0.0000

> <Gold.Chemscore.DEClash>
0.1513

> <Gold.Chemscore.DEInternal>
1.6768

> <Gold.Chemscore.Rot>
2.3865

> <Gold.Chemscore.Internal.Correction>
   9.000000E+99

> <Gold.Chemscore.Hbonds>
donor molecule, donor type, donor heavy atom, donor atom, acceptor molecule, acceptor atom, score
      L1  H     1    19       P1 10174  0.63
      L1  H     8    25       P1  8028  0.95
      L1  H    11    26       P1  8028  0.89

> <Gold.Chemscore.Hbond.Weighted>
-8.6212

> <Gold.Chemscore.Metal.Weighted>
-0.0000

> <Gold.Chemscore.Lipo.Weighted>
-10.0939

> <Gold.Chemscore.Internal_Hbond.Weighted>
0.0000

> <Gold.Chemscore.DEClash.Weighted>
0.1513

> <Gold.Chemscore.DEInternal.Weighted>
1.6768

> <Gold.Chemscore.Rot.Weighted>
6.1093

> <Gold.Chemscore.Internal.Correction.Weighted>
   9.000000E+99

> <Gold.Protein.RotatedTorsions>
[ 6907 6896 6895 6894 ] final  174.82 input  -60.11 | X-H torsion
[ 7974 7965 7964 7962 ] final   25.98 input  175.53 | X-H torsion
[ 8008 7997 7996 7995 ] final   82.86 input   59.86 | X-H torsion
[ 10167 10162 10161 10158 ] final  -53.05 input  -65.29 | X-H torsion
[ 10718 10713 10712 10709 ] final  176.43 input   66.30 | X-H torsion
[ 10763 10752 10751 10750 ] final -153.24 input  -60.55 | X-H torsion
[ 11005 11000 10999 10996 ] final -158.40 input  -57.11 | X-H torsion

> <Gold.Protein.ActiveResidues>
 VAL166  LYS551  ARG553  GLY616  TRP617  ASP618  TYR619  PRO620  LYS621  CYS622 
 ASP623  PHE694  ASN695  SER759  ASP760  ASP761  ALA762  ILE779  LEU786  VAL792 
 PHE793  MET794  SER795  GLU796  ALA797  LYS798  CYS799  TRP800  GLU811  SER814 

> <Gold.Protein.RotatedAtoms>
  151.7461  133.3324  159.3378 H   0  0  0  0  0  0  0  0  0  0  0  0  # atno 6907 bound_to 6896
  150.7554  134.6234  159.6157 H   0  0  0  0  0  0  0  0  0  0  0  0  # atno 6908 bound_to 6896
  152.3499  134.7022  160.0291 H   0  0  0  0  0  0  0  0  0  0  0  0  # atno 6909 bound_to 6896
  146.1861  139.7390  142.8866 H   0  0  0  0  0  0  0  0  0  0  0  0  # atno 7974 bound_to 7965
  155.9163  140.3424  155.6137 H   0  0  0  0  0  0  0  0  0  0  0  0  # atno 8008 bound_to 7997
  155.7327  140.0797  157.2300 H   0  0  0  0  0  0  0  0  0  0  0  0  # atno 8009 bound_to 7997
  154.4063  140.1585  156.2514 H   0  0  0  0  0  0  0  0  0  0  0  0  # atno 8010 bound_to 7997
  140.6505  143.2563  151.4736 H   0  0  0  0  0  0  0  0  0  0  0  0  # atno 10167 bound_to 10162
  156.9202  130.9938  151.3006 H   0  0  0  0  0  0  0  0  0  0  0  0  # atno 10718 bound_to 10713
  154.7941  135.3217  154.7709 H   0  0  0  0  0  0  0  0  0  0  0  0  # atno 10763 bound_to 10752
  153.8391  135.6872  153.4809 H   0  0  0  0  0  0  0  0  0  0  0  0  # atno 10764 bound_to 10752
  153.1624  135.4655  154.9731 H   0  0  0  0  0  0  0  0  0  0  0  0  # atno 10765 bound_to 10752
  140.6540  134.4420  157.5235 H   0  0  0  0  0  0  0  0  0  0  0  0  # atno 11005 bound_to 11000
  145.3935  141.0375  143.3111 LP  0  0  0  0  0  0  0  0  0  0  0  0  # atno 17320 bound_to 7965
  144.8399  139.5488  143.6905 LP  0  0  0  0  0  0  0  0  0  0  0  0  # atno 17321 bound_to 7965
  139.5720  144.1906  152.1850 LP  0  0  0  0  0  0  0  0  0  0  0  0  # atno 17342 bound_to 10162
  140.1205  144.5377  150.6866 LP  0  0  0  0  0  0  0  0  0  0  0  0  # atno 17343 bound_to 10162
  157.5912  130.8445  149.8662 LP  0  0  0  0  0  0  0  0  0  0  0  0  # atno 17370 bound_to 10713
  156.0494  130.3721  150.1237 LP  0  0  0  0  0  0  0  0  0  0  0  0  # atno 17371 bound_to 10713
  139.9036  134.8500  156.1796 LP  0  0  0  0  0  0  0  0  0  0  0  0  # atno 17394 bound_to 11000
  141.0515  133.6886  156.1781 LP  0  0  0  0  0  0  0  0  0  0  0  0  # atno 17395 bound_to 11000

$$$$
