AV-unprocessed.smi:2567|AV-procd|sdf|10082|dock7
  -GOLD-   2272014113D 1   1.00000     0.00000
 Structure written by MMmdl.
 33 34  0  0  0  0  0  0  0  0  1 V2000
  151.9109  144.0411  161.0884 C   0  0  0  0  0  0  0  0  0  0  0  0
  151.3573  144.2315  159.6586 C   0  0  0  0  0  0  0  0  0  0  0  0
  149.9054  144.7364  159.8089 C   0  0  0  0  0  0  0  0  0  0  0  0
  152.1955  145.2835  158.9102 C   0  0  0  0  0  0  0  0  0  0  0  0
  151.3827  142.9272  158.8957 C   0  0  0  0  0  0  0  0  0  0  0  0
  151.8278  141.8010  159.4590 N   0  0  0  0  0  0  0  0  0  0  0  0
  151.8167  140.9341  158.4255 N   0  0  0  0  0  0  0  0  0  0  0  0
  151.4345  141.5720  157.3190 C   0  0  0  0  0  0  0  0  0  0  0  0
  151.3570  140.8861  155.9915 C   0  0  2  0  0  0  0  0  0  0  0  0
  149.9593  141.0030  155.3525 C   0  0  0  0  0  0  0  0  0  0  0  0
  149.9080  140.2436  154.1043 N   0  0  0  0  0  0  0  0  0  0  0  0
  150.3004  138.8513  154.3174 C   0  0  0  0  0  0  0  0  0  0  0  0
  151.6843  138.7811  154.9878 C   0  0  0  0  0  0  0  0  0  0  0  0
  151.6611  139.5107  156.2101 O   0  0  0  0  0  0  0  0  0  0  0  0
  151.1775  142.8565  157.5424 N   0  0  0  0  0  0  0  0  0  0  0  0
  152.0893  139.9656  158.5138 H   0  0  0  0  0  0  0  0  0  0  0  0
  151.8601  144.9685  161.6600 H   0  0  0  0  0  0  0  0  0  0  0  0
  152.9560  143.7298  161.0807 H   0  0  0  0  0  0  0  0  0  0  0  0
  151.3452  143.2868  161.6371 H   0  0  0  0  0  0  0  0  0  0  0  0
  149.2791  144.0016  160.3163 H   0  0  0  0  0  0  0  0  0  0  0  0
  149.4483  144.9473  158.8414 H   0  0  0  0  0  0  0  0  0  0  0  0
  149.8635  145.6592  160.3885 H   0  0  0  0  0  0  0  0  0  0  0  0
  152.1915  146.2401  159.4335 H   0  0  0  0  0  0  0  0  0  0  0  0
  151.8083  145.4558  157.9053 H   0  0  0  0  0  0  0  0  0  0  0  0
  153.2344  144.9661  158.8121 H   0  0  0  0  0  0  0  0  0  0  0  0
  152.1099  141.3231  155.3325 H   0  0  0  0  0  0  0  0  0  0  0  0
  149.2049  140.6264  156.0443 H   0  0  0  0  0  0  0  0  0  0  0  0
  149.7182  142.0495  155.1642 H   0  0  0  0  0  0  0  0  0  0  0  0
  148.9669  140.2764  153.7254 H   0  0  0  0  0  0  0  0  0  0  0  0
  149.5637  138.3505  154.9466 H   0  0  0  0  0  0  0  0  0  0  0  0
  150.3165  138.3168  153.3674 H   0  0  0  0  0  0  0  0  0  0  0  0
  151.9449  137.7445  155.2012 H   0  0  0  0  0  0  0  0  0  0  0  0
  152.4592  139.1747  154.3279 H   0  0  0  0  0  0  0  0  0  0  0  0
  1  2  1  0  0  0  0
  1 17  1  0  0  0  0
  1 18  1  0  0  0  0
  1 19  1  0  0  0  0
  2  3  1  0  0  0  0
  2  4  1  0  0  0  0
  2  5  1  0  0  0  0
  3 20  1  0  0  0  0
  3 21  1  0  0  0  0
  3 22  1  0  0  0  0
  4 23  1  0  0  0  0
  4 24  1  0  0  0  0
  4 25  1  0  0  0  0
  5 15  1  0  0  0  0
  5  6  2  0  0  0  0
  6  7  1  0  0  0  0
  7 16  1  0  0  0  0
  7  8  1  0  0  0  0
  8  9  1  0  0  0  0
  8 15  2  0  0  0  0
  9 14  1  0  0  0  0
  9 10  1  0  0  0  0
  9 26  1  0  0  0  0
 10 11  1  0  0  0  0
 10 27  1  0  0  0  0
 10 28  1  0  0  0  0
 11 12  1  0  0  0  0
 11 29  1  0  0  0  0
 12 13  1  0  0  0  0
 12 30  1  0  0  0  0
 12 31  1  0  0  0  0
 13 14  1  0  0  0  0
 13 32  1  0  0  0  0
 13 33  1  0  0  0  0
M  END
> <s_m_source_file>
AV-unprocessed.smi

> <i_m_source_file_index>
2567

> <i_lp_mmshare_version>
43012

> <i_f3d_flags>
0

> <s_epik_input>
W0NIM11DKFtDSDNdKShbQ0gzXSljMW5bbkhdYyhuMSlbQ0BASF0yW0NIMl1bTkhdW0NIMl1bQ0gyXU8y

> <s_epik_cmdline>
J2VwaWtfcHl0aG9uJywgJy1waCcsICc3LjAnLCAnLXRuJywgJzgnLCAnLW1hJywgJzIwMCcsICctbWV0YWxfYmluZGluZycsICctaW1hZScsICc8aW5maWxlLm1hZT4nLCAnLW9tYWUnLCAnPG91dGZpbGUubWFlPic=

> <r_epik_Ionization_Penalty>
0.981987

> <r_epik_Ionization_Penalty_Charging>
0

> <r_epik_Ionization_Penalty_Neutral>
0.981987

> <r_epik_State_Penalty>
2.09479

> <r_epik_Charging_Adjusted_Penalty>
2.09479

> <i_epik_Tot_Q>
0

> <i_epik_Tot_abs_Q>
0

> <r_epik_Metal_State_Penalty>
2.40362

> <b_epik_Metal_Only>
0

> <s_lp_Force_Field>
OPLS_2005

> <r_lp_Energy>
12.9727

> <b_lp_Chiralities_Consistent>
1

> <s_lp_Variant>
AV-unprocessed.smi:2567-7

> <Gold.Version>
5.8.1

> <Gold.Id.Protein>
6NUR|6NUR_protein|mol2

> <Gold.PLP.Fitness>
35.3875

> <Gold.PLP.PLP>
-33.9790

> <Gold.PLP.part.hbond>
-2.0000

> <Gold.PLP.part.metal>
0.0000

> <Gold.PLP.part.buried>
-6.8095

> <Gold.PLP.part.nonpolar>
-25.4558

> <Gold.PLP.part.repulsive>
0.2120

> <Gold.PLP.ligand.clash>
0.0000

> <Gold.PLP.ligand.torsion>
0.2562

> <Gold.PLP.Chemscore.Hbond>
0.5724

> <Gold.PLP.Chemscore.CHOScore>
0.0000

> <Gold.PLP.Chemscore.Metal>
0.0000

> <Gold.Chemscore.Hbonds>
donor molecule, donor type, donor heavy atom, donor atom, acceptor molecule, acceptor atom, score
      P1  H  7989  7998       L1    11  0.54

> <Gold.PLP.Chemscore.Internal.Correction>
0.2037

> <Gold.Rescore>
     Score         DG    S(hbond)    S(metal)    S(lipo)     H(rot)  DE(clash)    DE(int)     intcor
     11.01     -11.22       0.00        0.00      76.27       1.25       0.07       0.14       ----

> <Gold.Chemscore.Fitness>
11.0091

> <Gold.Chemscore.DG>
-11.2188

> <Gold.Chemscore.ZeroCoef>
-5.4800

> <Gold.Chemscore.Hbond>
0.0006

> <Gold.Chemscore.Metal>
0.0000

> <Gold.Chemscore.Lipo>
76.2749

> <Gold.Chemscore.Internal_Hbond>
0.0000

> <Gold.Chemscore.DEClash>
0.0727

> <Gold.Chemscore.DEInternal>
0.1370

> <Gold.Chemscore.Rot>
1.2450

> <Gold.Chemscore.Internal.Correction>
   9.000000E+99

> <Gold.Chemscore.Hbonds>
donor molecule, donor type, donor heavy atom, donor atom, acceptor molecule, acceptor atom, score
      P1  H  7989  7998       L1    11  0.01

> <Gold.Chemscore.Hbond.Weighted>
-0.0019

> <Gold.Chemscore.Metal.Weighted>
-0.0000

> <Gold.Chemscore.Lipo.Weighted>
-8.9242

> <Gold.Chemscore.Internal_Hbond.Weighted>
0.0000

> <Gold.Chemscore.DEClash.Weighted>
0.0727

> <Gold.Chemscore.DEInternal.Weighted>
0.1370

> <Gold.Chemscore.Rot.Weighted>
3.1872

> <Gold.Chemscore.Internal.Correction.Weighted>
   9.000000E+99

> <Gold.Protein.RotatedTorsions>
[ 6907 6896 6895 6894 ] final  -35.56 input  -60.11 | X-H torsion
[ 7974 7965 7964 7962 ] final   57.92 input  175.53 | X-H torsion
[ 8008 7997 7996 7995 ] final  115.63 input   59.86 | X-H torsion
[ 10167 10162 10161 10158 ] final  160.39 input  -65.29 | X-H torsion
[ 10718 10713 10712 10709 ] final  169.54 input   66.30 | X-H torsion
[ 10763 10752 10751 10750 ] final  -79.87 input  -60.55 | X-H torsion
[ 11005 11000 10999 10996 ] final -145.94 input  -57.11 | X-H torsion

> <Gold.Protein.ActiveResidues>
 VAL166  LYS551  ARG553  GLY616  TRP617  ASP618  TYR619  PRO620  LYS621  CYS622 
 ASP623  PHE694  ASN695  SER759  ASP760  ASP761  ALA762  ILE779  LEU786  VAL792 
 PHE793  MET794  SER795  GLU796  ALA797  LYS798  CYS799  TRP800  GLU811  SER814 

> <Gold.Protein.RotatedAtoms>
  151.0382  134.9588  159.8147 H   0  0  0  0  0  0  0  0  0  0  0  0  # atno 6907 bound_to 6896
  152.5359  134.2692  159.8975 H   0  0  0  0  0  0  0  0  0  0  0  0  # atno 6908 bound_to 6896
  151.2704  133.4216  159.2655 H   0  0  0  0  0  0  0  0  0  0  0  0  # atno 6909 bound_to 6896
  145.9238  139.3751  143.0462 H   0  0  0  0  0  0  0  0  0  0  0  0  # atno 7974 bound_to 7965
  156.2392  140.2934  156.0398 H   0  0  0  0  0  0  0  0  0  0  0  0  # atno 8008 bound_to 7997
  155.2000  140.0409  157.2933 H   0  0  0  0  0  0  0  0  0  0  0  0  # atno 8009 bound_to 7997
  154.6137  140.2458  155.7644 H   0  0  0  0  0  0  0  0  0  0  0  0  # atno 8010 bound_to 7997
  139.4839  144.4638  151.8668 H   0  0  0  0  0  0  0  0  0  0  0  0  # atno 10167 bound_to 10162
  157.0212  131.0232  151.2774 H   0  0  0  0  0  0  0  0  0  0  0  0  # atno 10718 bound_to 10713
  154.5440  135.5681  153.6864 H   0  0  0  0  0  0  0  0  0  0  0  0  # atno 10763 bound_to 10752
  152.9971  135.6235  154.2463 H   0  0  0  0  0  0  0  0  0  0  0  0  # atno 10764 bound_to 10752
  154.2395  135.2863  155.2839 H   0  0  0  0  0  0  0  0  0  0  0  0  # atno 10765 bound_to 10752
  140.7871  134.3011  157.5026 H   0  0  0  0  0  0  0  0  0  0  0  0  # atno 11005 bound_to 11000
  145.8515  140.9526  143.0747 LP  0  0  0  0  0  0  0  0  0  0  0  0  # atno 17320 bound_to 7965
  144.6756  140.0413  143.7481 LP  0  0  0  0  0  0  0  0  0  0  0  0  # atno 17321 bound_to 7965
  140.4103  144.2378  150.5889 LP  0  0  0  0  0  0  0  0  0  0  0  0  # atno 17342 bound_to 10162
  140.4973  143.2328  151.8731 LP  0  0  0  0  0  0  0  0  0  0  0  0  # atno 17343 bound_to 10162
  157.5248  130.8021  149.7850 LP  0  0  0  0  0  0  0  0  0  0  0  0  # atno 17370 bound_to 10713
  156.0101  130.3837  150.2292 LP  0  0  0  0  0  0  0  0  0  0  0  0  # atno 17371 bound_to 10713
  139.8735  134.9353  156.3629 LP  0  0  0  0  0  0  0  0  0  0  0  0  # atno 17394 bound_to 11000
  140.9426  133.7504  156.0166 LP  0  0  0  0  0  0  0  0  0  0  0  0  # atno 17395 bound_to 11000

$$$$
