AV-unprocessed.smi:3340|AV-procd|sdf|12882|dock2
  -GOLD-   2272019283D 1   1.00000     0.00000
 Structure written by MMmdl.
 41 42  0  0  0  0  0  0  0  0  1 V2000
  149.9480  141.6678  156.3683 C   0  0  0  0  0  0  0  0  0  0  0  0
  150.2170  140.4216  155.5218 C   0  0  0  0  0  0  0  0  0  0  0  0
  151.3546  140.2598  155.0793 O   0  0  0  0  0  0  0  0  0  0  0  0
  149.2088  139.5467  155.2885 N   0  0  0  0  0  0  0  0  0  0  0  0
  149.3714  138.3513  154.4468 C   0  0  0  0  0  0  0  0  0  0  0  0
  148.4482  138.4720  153.2178 C   0  0  0  0  0  0  0  0  0  0  0  0
  147.0547  138.6189  153.6807 N   0  0  0  0  0  0  0  0  0  0  0  0
  146.0507  137.7195  153.5214 C   0  0  0  0  0  0  0  0  0  0  0  0
  144.9357  137.8622  154.0240 O   0  0  0  0  0  0  0  0  0  0  0  0
  146.3623  136.6634  152.7472 N   0  0  0  0  0  0  0  0  0  0  0  0
  145.4965  135.5448  152.3624 C   0  0  1  0  0  0  0  0  0  0  0  0
  144.0338  135.9927  152.1978 C   0  0  0  0  0  0  0  0  0  0  0  0
  146.0197  134.7812  151.1247 C   0  0  0  0  0  0  0  0  0  0  0  0
  145.3725  133.4935  150.9539 N   0  0  0  0  0  0  0  0  0  0  0  0
  144.0176  133.2552  150.7635 C   0  0  0  0  0  0  0  0  0  0  0  0
  143.8708  131.8914  150.6482 C   0  0  0  0  0  0  0  0  0  0  0  0
  145.1144  131.2746  150.7659 N   0  0  0  0  0  0  0  0  0  0  0  0
  145.9535  132.2861  150.9479 C   0  0  0  0  0  0  0  0  0  0  0  0
  146.8999  139.8250  154.5084 C   0  0  0  0  0  0  0  0  0  0  0  0
  147.8178  139.7069  155.7417 C   0  0  0  0  0  0  0  0  0  0  0  0
  149.1813  142.2909  155.9069 H   0  0  0  0  0  0  0  0  0  0  0  0
  150.8519  142.2704  156.4635 H   0  0  0  0  0  0  0  0  0  0  0  0
  149.6258  141.3911  157.3726 H   0  0  0  0  0  0  0  0  0  0  0  0
  150.3998  138.2041  154.1147 H   0  0  0  0  0  0  0  0  0  0  0  0
  149.1139  137.4643  155.0277 H   0  0  0  0  0  0  0  0  0  0  0  0
  148.7216  139.3498  152.6304 H   0  0  0  0  0  0  0  0  0  0  0  0
  148.6127  137.6201  152.5587 H   0  0  0  0  0  0  0  0  0  0  0  0
  147.3003  136.6386  152.3747 H   0  0  0  0  0  0  0  0  0  0  0  0
  145.5211  134.8562  153.2078 H   0  0  0  0  0  0  0  0  0  0  0  0
  143.3796  135.1341  152.0451 H   0  0  0  0  0  0  0  0  0  0  0  0
  143.9053  136.6564  151.3427 H   0  0  0  0  0  0  0  0  0  0  0  0
  143.6810  136.5189  153.0854 H   0  0  0  0  0  0  0  0  0  0  0  0
  145.8401  135.3682  150.2233 H   0  0  0  0  0  0  0  0  0  0  0  0
  147.0981  134.6282  151.1775 H   0  0  0  0  0  0  0  0  0  0  0  0
  143.2917  134.0542  150.7234 H   0  0  0  0  0  0  0  0  0  0  0  0
  142.9733  131.3116  150.4903 H   0  0  0  0  0  0  0  0  0  0  0  0
  147.0168  132.1460  151.0752 H   0  0  0  0  0  0  0  0  0  0  0  0
  147.1675  140.7035  153.9195 H   0  0  0  0  0  0  0  0  0  0  0  0
  145.8713  139.9876  154.8329 H   0  0  0  0  0  0  0  0  0  0  0  0
  147.5355  138.8375  156.3376 H   0  0  0  0  0  0  0  0  0  0  0  0
  147.6639  140.5687  156.3889 H   0  0  0  0  0  0  0  0  0  0  0  0
  1  2  1  0  0  0  0
  1 21  1  0  0  0  0
  1 22  1  0  0  0  0
  1 23  1  0  0  0  0
  2  3  2  0  0  0  0
  2  4  1  0  0  0  0
  4 20  1  0  0  0  0
  4  5  1  0  0  0  0
  5  6  1  0  0  0  0
  5 24  1  0  0  0  0
  5 25  1  0  0  0  0
  6  7  1  0  0  0  0
  6 26  1  0  0  0  0
  6 27  1  0  0  0  0
  7  8  1  0  0  0  0
  7 19  1  0  0  0  0
  8  9  2  0  0  0  0
  8 10  1  0  0  0  0
 10 11  1  0  0  0  0
 10 28  1  0  0  0  0
 11 12  1  0  0  0  0
 11 13  1  0  0  0  0
 11 29  1  0  0  0  0
 12 30  1  0  0  0  0
 12 31  1  0  0  0  0
 12 32  1  0  0  0  0
 13 14  1  0  0  0  0
 13 33  1  0  0  0  0
 13 34  1  0  0  0  0
 14 18  1  0  0  0  0
 14 15  1  0  0  0  0
 15 16  2  0  0  0  0
 15 35  1  0  0  0  0
 16 17  1  0  0  0  0
 16 36  1  0  0  0  0
 17 18  2  0  0  0  0
 18 37  1  0  0  0  0
 19 20  1  0  0  0  0
 19 38  1  0  0  0  0
 19 39  1  0  0  0  0
 20 40  1  0  0  0  0
 20 41  1  0  0  0  0
M  END
> <s_m_source_file>
AV-unprocessed.smi

> <i_m_source_file_index>
3340

> <i_lp_mmshare_version>
43012

> <i_f3d_flags>
0

> <s_epik_input>
W0NIM11DKD1PKU4xW0NIMl1bQ0gyXU4oW0NIMl1bQ0gyXTEpQyg9TylbTkhdW0NASF0oW0NIM10pW0NIMl1uMltjSF1bY0hdbltjSF0y

> <s_epik_cmdline>
J2VwaWtfcHl0aG9uJywgJy1waCcsICc3LjAnLCAnLXRuJywgJzgnLCAnLW1hJywgJzIwMCcsICctbWV0YWxfYmluZGluZycsICctaW1hZScsICc8aW5maWxlLm1hZT4nLCAnLW9tYWUnLCAnPG91dGZpbGUubWFlPic=

> <r_lp_tautomer_probability>
1

> <r_epik_Ionization_Penalty>
0.622948

> <r_epik_Ionization_Penalty_Charging>
0.622904

> <r_epik_Ionization_Penalty_Neutral>
4.39259e-05

> <r_epik_State_Penalty>
0.639086

> <r_epik_Charging_Adjusted_Penalty>
1.26199

> <i_epik_Tot_Q>
0

> <i_epik_Tot_abs_Q>
0

> <r_epik_Metal_State_Penalty>
0.307185

> <b_epik_Metal_Only>
0

> <s_lp_Force_Field>
OPLS_2005

> <r_lp_Energy>
50.7734

> <b_lp_Chiralities_Consistent>
1

> <s_lp_Variant>
AV-unprocessed.smi:3340-4

> <Gold.Version>
5.8.1

> <Gold.Id.Protein>
6NUR|6NUR_protein|mol2

> <Gold.PLP.Fitness>
39.5115

> <Gold.PLP.PLP>
-25.2392

> <Gold.PLP.part.hbond>
-2.0000

> <Gold.PLP.part.metal>
0.0000

> <Gold.PLP.part.buried>
0.4011

> <Gold.PLP.part.nonpolar>
-25.4548

> <Gold.PLP.part.repulsive>
0.3227

> <Gold.PLP.ligand.clash>
0.0000

> <Gold.PLP.ligand.torsion>
0.3947

> <Gold.PLP.Chemscore.Hbond>
2.0000

> <Gold.PLP.Chemscore.CHOScore>
2.9960

> <Gold.PLP.Chemscore.Metal>
0.0000

> <Gold.Chemscore.Hbonds>
donor molecule, donor type, donor heavy atom, donor atom, acceptor molecule, acceptor atom, score
      L1  H    10    28       P1  7948  1.00
      P1  H  7989  7998       L1     3  1.00
      L1  C    15    35       P1 10186  0.85
      L1  C    16    36       P1 10952  1.00
      L1  C    18    37       P1 10747  1.00

> <Gold.PLP.Chemscore.Internal.Correction>
0.0736

> <Gold.Rescore>
     Score         DG    S(hbond)    S(metal)    S(lipo)     H(rot)  DE(clash)    DE(int)     intcor
     11.97     -13.66       1.95        0.00      50.42       1.65       1.56       0.13       ----

> <Gold.Chemscore.Fitness>
11.9696

> <Gold.Chemscore.DG>
-13.6609

> <Gold.Chemscore.ZeroCoef>
-5.4800

> <Gold.Chemscore.Hbond>
1.9455

> <Gold.Chemscore.Metal>
0.0000

> <Gold.Chemscore.Lipo>
50.4232

> <Gold.Chemscore.Internal_Hbond>
0.0000

> <Gold.Chemscore.DEClash>
1.5603

> <Gold.Chemscore.DEInternal>
0.1310

> <Gold.Chemscore.Rot>
1.6471

> <Gold.Chemscore.Internal.Correction>
   9.000000E+99

> <Gold.Chemscore.Hbonds>
donor molecule, donor type, donor heavy atom, donor atom, acceptor molecule, acceptor atom, score
      L1  H    10    28       P1  7948  1.00
      P1  H  7989  7998       L1     3  0.90

> <Gold.Chemscore.Hbond.Weighted>
-6.4980

> <Gold.Chemscore.Metal.Weighted>
-0.0000

> <Gold.Chemscore.Lipo.Weighted>
-5.8995

> <Gold.Chemscore.Internal_Hbond.Weighted>
0.0000

> <Gold.Chemscore.DEClash.Weighted>
1.5603

> <Gold.Chemscore.DEInternal.Weighted>
0.1310

> <Gold.Chemscore.Rot.Weighted>
4.2166

> <Gold.Chemscore.Internal.Correction.Weighted>
   9.000000E+99

> <Gold.Protein.RotatedTorsions>
[ 6907 6896 6895 6894 ] final  -39.28 input  -60.11 | X-H torsion
[ 7974 7965 7964 7962 ] final  -77.23 input  175.53 | X-H torsion
[ 8008 7997 7996 7995 ] final   86.42 input   59.86 | X-H torsion
[ 10167 10162 10161 10158 ] final  -43.37 input  -65.29 | X-H torsion
[ 10718 10713 10712 10709 ] final  -72.55 input   66.30 | X-H torsion
[ 10763 10752 10751 10750 ] final -125.36 input  -60.55 | X-H torsion
[ 11005 11000 10999 10996 ] final   63.85 input  -57.11 | X-H torsion

> <Gold.Protein.ActiveResidues>
 VAL166  LYS551  ARG553  GLY616  TRP617  ASP618  TYR619  PRO620  LYS621  CYS622 
 ASP623  PHE694  ASN695  SER759  ASP760  ASP761  ALA762  ILE779  LEU786  VAL792 
 PHE793  MET794  SER795  GLU796  ALA797  LYS798  CYS799  TRP800  GLU811  SER814 

> <Gold.Protein.RotatedAtoms>
  150.9923  134.9255  159.7906 H   0  0  0  0  0  0  0  0  0  0  0  0  # atno 6907 bound_to 6896
  152.5254  134.3265  159.9177 H   0  0  0  0  0  0  0  0  0  0  0  0  # atno 6908 bound_to 6896
  151.3271  133.3974  159.2694 H   0  0  0  0  0  0  0  0  0  0  0  0  # atno 6909 bound_to 6896
  145.6024  140.9406  143.1234 H   0  0  0  0  0  0  0  0  0  0  0  0  # atno 7974 bound_to 7965
  155.9625  140.3392  155.6503 H   0  0  0  0  0  0  0  0  0  0  0  0  # atno 8008 bound_to 7997
  155.6779  140.0734  157.2514 H   0  0  0  0  0  0  0  0  0  0  0  0  # atno 8009 bound_to 7997
  154.4146  140.1679  156.1938 H   0  0  0  0  0  0  0  0  0  0  0  0  # atno 8010 bound_to 7997
  140.6936  143.2987  151.3342 H   0  0  0  0  0  0  0  0  0  0  0  0  # atno 10167 bound_to 10162
  156.0316  130.4375  150.2610 H   0  0  0  0  0  0  0  0  0  0  0  0  # atno 10718 bound_to 10713
  154.8735  135.4032  154.3255 H   0  0  0  0  0  0  0  0  0  0  0  0  # atno 10763 bound_to 10752
  153.4077  135.7020  153.6387 H   0  0  0  0  0  0  0  0  0  0  0  0  # atno 10764 bound_to 10752
  153.5103  135.3709  155.2554 H   0  0  0  0  0  0  0  0  0  0  0  0  # atno 10765 bound_to 10752
  139.9997  134.6461  155.9951 H   0  0  0  0  0  0  0  0  0  0  0  0  # atno 11005 bound_to 11000
  144.7304  139.7743  143.7349 LP  0  0  0  0  0  0  0  0  0  0  0  0  # atno 17320 bound_to 7965
  146.1566  139.4666  143.0015 LP  0  0  0  0  0  0  0  0  0  0  0  0  # atno 17321 bound_to 7965
  139.6366  144.0619  152.2520 LP  0  0  0  0  0  0  0  0  0  0  0  0  # atno 17342 bound_to 10162
  140.0111  144.6223  150.7647 LP  0  0  0  0  0  0  0  0  0  0  0  0  # atno 17343 bound_to 10162
  157.0712  131.0117  151.3189 LP  0  0  0  0  0  0  0  0  0  0  0  0  # atno 17370 bound_to 10713
  157.4998  130.7873  149.7593 LP  0  0  0  0  0  0  0  0  0  0  0  0  # atno 17371 bound_to 10713
  141.1632  133.6538  156.4391 LP  0  0  0  0  0  0  0  0  0  0  0  0  # atno 17394 bound_to 11000
  140.4751  134.6717  157.5146 LP  0  0  0  0  0  0  0  0  0  0  0  0  # atno 17395 bound_to 11000

$$$$
