AV-unprocessed.smi:49|AV-procd|sdf|477|dock5
  -GOLD-   2262016343D 1   1.00000     0.00000
 Structure written by MMmdl.
 27 28  0  0  0  0  0  0  0  0  1 V2000
  152.6388  142.7611  161.5503 C   0  0  0  0  0  0  0  0  0  0  0  0
  153.1149  143.2672  160.1841 C   0  0  0  0  0  0  0  0  0  0  0  0
  152.0520  143.1629  159.1408 C   0  0  0  0  0  0  0  0  0  0  0  0
  151.5385  141.9656  158.7270 N   0  0  0  0  0  0  0  0  0  0  0  0
  150.6909  142.3823  157.7902 C   0  0  0  0  0  0  0  0  0  0  0  0
  149.7968  141.5066  156.9679 C   0  0  2  0  0  0  0  0  0  0  0  0
  150.5701  140.4629  156.1496 C   0  0  0  0  0  0  0  0  0  0  0  0
  149.6673  140.2480  154.9434 C   0  0  2  0  0  0  0  0  0  0  0  0
  150.3544  139.7282  153.8252 O   0  0  0  0  0  0  0  0  0  0  0  0
  149.1324  141.6548  154.6942 C   0  0  0  0  0  0  0  0  0  0  0  0
  148.9664  142.2545  156.0159 N   0  0  0  0  0  0  0  0  0  0  0  0
  150.6996  143.7101  157.6531 N   0  0  0  0  0  0  0  0  0  0  0  0
  151.5890  144.2447  158.5161 N   0  0  0  0  0  0  0  0  0  0  0  0
  149.1305  140.9739  157.6478 H   0  0  0  0  0  0  0  0  0  0  0  0
  148.8464  139.5795  155.2072 H   0  0  0  0  0  0  0  0  0  0  0  0
  150.1517  144.2654  157.0117 H   0  0  0  0  0  0  0  0  0  0  0  0
  153.4311  142.8476  162.2940 H   0  0  0  0  0  0  0  0  0  0  0  0
  152.3413  141.7133  161.5000 H   0  0  0  0  0  0  0  0  0  0  0  0
  151.7834  143.3362  161.9062 H   0  0  0  0  0  0  0  0  0  0  0  0
  153.4325  144.3073  160.2657 H   0  0  0  0  0  0  0  0  0  0  0  0
  153.9906  142.7012  159.8637 H   0  0  0  0  0  0  0  0  0  0  0  0
  151.5236  140.8778  155.8175 H   0  0  0  0  0  0  0  0  0  0  0  0
  150.7786  139.5498  156.7079 H   0  0  0  0  0  0  0  0  0  0  0  0
  150.0157  138.8662  153.6378 H   0  0  0  0  0  0  0  0  0  0  0  0
  149.8658  142.2315  154.1287 H   0  0  0  0  0  0  0  0  0  0  0  0
  148.2022  141.6557  154.1254 H   0  0  0  0  0  0  0  0  0  0  0  0
  147.9948  142.1598  156.2933 H   0  0  0  0  0  0  0  0  0  0  0  0
  1  2  1  0  0  0  0
  1 17  1  0  0  0  0
  1 18  1  0  0  0  0
  1 19  1  0  0  0  0
  2 20  1  0  0  0  0
  2 21  1  0  0  0  0
  2  3  1  0  0  0  0
  3  4  1  0  0  0  0
  3 13  2  0  0  0  0
  4  5  2  0  0  0  0
  5  6  1  0  0  0  0
  5 12  1  0  0  0  0
  6 14  1  0  0  0  0
  6 11  1  0  0  0  0
  6  7  1  0  0  0  0
  7  8  1  0  0  0  0
  7 22  1  0  0  0  0
  7 23  1  0  0  0  0
  8 15  1  0  0  0  0
  8  9  1  0  0  0  0
  8 10  1  0  0  0  0
  9 24  1  0  0  0  0
 10 11  1  0  0  0  0
 10 25  1  0  0  0  0
 10 26  1  0  0  0  0
 11 27  1  0  0  0  0
 12 13  1  0  0  0  0
 12 16  1  0  0  0  0
M  END
> <s_m_source_file>
AV-unprocessed.smi

> <i_m_source_file_index>
49

> <i_lp_mmshare_version>
43012

> <i_f3d_flags>
0

> <s_epik_input>
W0NIM11bQ0gyXWMxbmMobltuSF0xKVtDQEBIXTJbQ0gyXVtDQEBIXShbT0hdKVtDSDJdW05IXTI=

> <s_epik_cmdline>
J2VwaWtfcHl0aG9uJywgJy1waCcsICc3LjAnLCAnLXRuJywgJzgnLCAnLW1hJywgJzIwMCcsICctbWV0YWxfYmluZGluZycsICctaW1hZScsICc8aW5maWxlLm1hZT4nLCAnLW9tYWUnLCAnPG91dGZpbGUubWFlPic=

> <r_epik_Ionization_Penalty>
1.31544

> <r_epik_Ionization_Penalty_Charging>
0

> <r_epik_Ionization_Penalty_Neutral>
1.31544

> <r_epik_State_Penalty>
2.06074

> <r_epik_Charging_Adjusted_Penalty>
2.06074

> <i_epik_Tot_Q>
0

> <i_epik_Tot_abs_Q>
0

> <r_epik_Metal_State_Penalty>
2.32913

> <b_epik_Metal_Only>
0

> <s_lp_Force_Field>
OPLS_2005

> <r_lp_Energy>
18.1318

> <b_lp_Chiralities_Consistent>
1

> <s_lp_Variant>
AV-unprocessed.smi:49-15

> <Gold.Version>
5.8.1

> <Gold.Id.Protein>
6NUR|6NUR_protein|mol2

> <Gold.PLP.Fitness>
33.8642

> <Gold.PLP.PLP>
-27.9042

> <Gold.PLP.part.hbond>
-3.7714

> <Gold.PLP.part.metal>
0.0000

> <Gold.PLP.part.buried>
-2.6305

> <Gold.PLP.part.nonpolar>
-20.8706

> <Gold.PLP.part.repulsive>
0.0967

> <Gold.PLP.ligand.clash>
0.0000

> <Gold.PLP.ligand.torsion>
0.0114

> <Gold.PLP.Chemscore.Hbond>
1.9920

> <Gold.PLP.Chemscore.CHOScore>
0.0000

> <Gold.PLP.Chemscore.Metal>
0.0000

> <Gold.Chemscore.Hbonds>
donor molecule, donor type, donor heavy atom, donor atom, acceptor molecule, acceptor atom, score
      L1  H    12    16       P1  8028  1.00
      P1  H  7989  7998       L1     9  0.99

> <Gold.PLP.Chemscore.Internal.Correction>
0.0068

> <Gold.Rescore>
     Score         DG    S(hbond)    S(metal)    S(lipo)     H(rot)  DE(clash)    DE(int)     intcor
     11.68     -11.73       1.54        0.00      50.13       1.86       0.01       0.04       ----

> <Gold.Chemscore.Fitness>
11.6778

> <Gold.Chemscore.DG>
-11.7343

> <Gold.Chemscore.ZeroCoef>
-5.4800

> <Gold.Chemscore.Hbond>
1.5388

> <Gold.Chemscore.Metal>
0.0000

> <Gold.Chemscore.Lipo>
50.1319

> <Gold.Chemscore.Internal_Hbond>
0.0000

> <Gold.Chemscore.DEClash>
0.0126

> <Gold.Chemscore.DEInternal>
0.0439

> <Gold.Chemscore.Rot>
1.8558

> <Gold.Chemscore.Internal.Correction>
   9.000000E+99

> <Gold.Chemscore.Hbonds>
donor molecule, donor type, donor heavy atom, donor atom, acceptor molecule, acceptor atom, score
      L1  H    12    16       P1  8028  0.85
      P1  H  7989  7998       L1     9  0.52

> <Gold.Chemscore.Hbond.Weighted>
-5.1396

> <Gold.Chemscore.Metal.Weighted>
-0.0000

> <Gold.Chemscore.Lipo.Weighted>
-5.8654

> <Gold.Chemscore.Internal_Hbond.Weighted>
0.0000

> <Gold.Chemscore.DEClash.Weighted>
0.0126

> <Gold.Chemscore.DEInternal.Weighted>
0.0439

> <Gold.Chemscore.Rot.Weighted>
4.7507

> <Gold.Chemscore.Internal.Correction.Weighted>
   9.000000E+99

> <Gold.Protein.RotatedTorsions>
[ 6907 6896 6895 6894 ] final  136.52 input  -60.11 | X-H torsion
[ 7974 7965 7964 7962 ] final    4.47 input  175.53 | X-H torsion
[ 8008 7997 7996 7995 ] final -166.10 input   59.86 | X-H torsion
[ 10167 10162 10161 10158 ] final    8.84 input  -65.29 | X-H torsion
[ 10718 10713 10712 10709 ] final  -71.55 input   66.30 | X-H torsion
[ 10763 10752 10751 10750 ] final -175.24 input  -60.55 | X-H torsion
[ 11005 11000 10999 10996 ] final  111.22 input  -57.11 | X-H torsion

> <Gold.Protein.ActiveResidues>
 VAL166  LYS551  ARG553  GLY616  TRP617  ASP618  TYR619  PRO620  LYS621  CYS622 
 ASP623  PHE694  ASN695  SER759  ASP760  ASP761  ALA762  ILE779  LEU786  VAL792 
 PHE793  MET794  SER795  GLU796  ALA797  LYS798  CYS799  TRP800  GLU811  SER814 

> <Gold.Protein.RotatedAtoms>
  152.2885  133.5538  159.5541 H   0  0  0  0  0  0  0  0  0  0  0  0  # atno 6907 bound_to 6896
  150.7225  134.0463  159.3792 H   0  0  0  0  0  0  0  0  0  0  0  0  # atno 6908 bound_to 6896
  151.8370  135.0603  160.0494 H   0  0  0  0  0  0  0  0  0  0  0  0  # atno 6909 bound_to 6896
  146.2444  140.0530  142.8374 H   0  0  0  0  0  0  0  0  0  0  0  0  # atno 7974 bound_to 7965
  155.8591  140.0975  157.1625 H   0  0  0  0  0  0  0  0  0  0  0  0  # atno 8008 bound_to 7997
  154.3989  140.1368  156.4001 H   0  0  0  0  0  0  0  0  0  0  0  0  # atno 8009 bound_to 7997
  155.7876  140.3456  155.5334 H   0  0  0  0  0  0  0  0  0  0  0  0  # atno 8010 bound_to 7997
  140.6290  143.8036  150.7271 H   0  0  0  0  0  0  0  0  0  0  0  0  # atno 10167 bound_to 10162
  156.0358  130.4353  150.2460 H   0  0  0  0  0  0  0  0  0  0  0  0  # atno 10718 bound_to 10713
  154.5867  135.2841  155.0678 H   0  0  0  0  0  0  0  0  0  0  0  0  # atno 10763 bound_to 10752
  154.1993  135.6427  153.5086 H   0  0  0  0  0  0  0  0  0  0  0  0  # atno 10764 bound_to 10752
  153.0107  135.5465  154.6539 H   0  0  0  0  0  0  0  0  0  0  0  0  # atno 10765 bound_to 10752
  139.8899  134.9503  156.6399 H   0  0  0  0  0  0  0  0  0  0  0  0  # atno 11005 bound_to 11000
  145.0968  140.9320  143.4736 LP  0  0  0  0  0  0  0  0  0  0  0  0  # atno 17320 bound_to 7965
  145.0714  139.3029  143.5830 LP  0  0  0  0  0  0  0  0  0  0  0  0  # atno 17321 bound_to 7965
  140.1643  143.4248  152.2045 LP  0  0  0  0  0  0  0  0  0  0  0  0  # atno 17342 bound_to 10162
  139.5506  144.7335  151.4445 LP  0  0  0  0  0  0  0  0  0  0  0  0  # atno 17343 bound_to 10162
  157.0560  131.0076  151.3238 LP  0  0  0  0  0  0  0  0  0  0  0  0  # atno 17370 bound_to 10713
  157.5106  130.7936  149.7701 LP  0  0  0  0  0  0  0  0  0  0  0  0  # atno 17371 bound_to 10713
  140.7602  133.8824  155.8412 LP  0  0  0  0  0  0  0  0  0  0  0  0  # atno 17394 bound_to 11000
  140.9928  134.1255  157.4391 LP  0  0  0  0  0  0  0  0  0  0  0  0  # atno 17395 bound_to 11000

$$$$
