AV-unprocessed.smi:2451|AV-procd|sdf|9671|dock8
  -GOLD-   2272013313D 1   1.00000     0.00000
 Structure written by MMmdl.
 38 39  0  0  0  0  0  0  0  0  1 V2000
  150.9403  144.8915  158.8638 C   0  0  0  0  0  0  0  0  0  0  0  0
  151.4710  143.5904  159.4934 C   0  0  2  0  0  0  0  0  0  0  0  0
  152.4358  143.9319  160.6465 C   0  0  0  0  0  0  0  0  0  0  0  0
  152.9666  142.6705  161.3356 C   0  0  0  0  0  0  0  0  0  0  0  0
  153.6794  141.7689  160.3244 C   0  0  0  0  0  0  0  0  0  0  0  0
  152.7524  141.3982  159.1537 C   0  0  2  0  0  0  0  0  0  0  0  0
  153.5204  140.6047  158.1889 N   0  0  0  0  0  0  0  0  0  0  0  0
  154.1559  139.0803  158.6847 S   0  0  0  0  0  0  0  0  0  0  0  0
  155.5318  138.9854  158.1736 O   0  0  0  0  0  0  0  0  0  0  0  0
  153.8961  138.9364  160.1257 O   0  0  0  0  0  0  0  0  0  0  0  0
  153.0852  137.8907  157.7735 C   0  0  0  0  0  0  0  0  0  0  0  0
  153.0237  138.2762  156.3237 C   0  0  0  0  0  0  0  0  0  0  0  0
  152.5419  137.5100  155.2264 C   0  0  0  0  0  0  0  0  0  0  0  0
  152.7189  138.3394  154.1567 C   0  0  0  0  0  0  0  0  0  0  0  0
  153.2593  139.5187  154.5544 O   0  0  0  0  0  0  0  0  0  0  0  0
  153.4484  139.4699  155.9404 N   0  0  0  0  0  0  0  0  0  0  0  0
  152.1406  142.6428  158.4572 C   0  0  1  0  0  0  0  0  0  0  0  0
  151.1468  142.2139  157.3554 C   0  0  0  0  0  0  0  0  0  0  0  0
  151.7276  145.4229  158.3285 H   0  0  0  0  0  0  0  0  0  0  0  0
  150.5481  145.5640  159.6272 H   0  0  0  0  0  0  0  0  0  0  0  0
  150.1256  144.7036  158.1653 H   0  0  0  0  0  0  0  0  0  0  0  0
  150.6183  143.0662  159.9275 H   0  0  0  0  0  0  0  0  0  0  0  0
  153.2728  144.5200  160.2669 H   0  0  0  0  0  0  0  0  0  0  0  0
  151.9304  144.5573  161.3835 H   0  0  0  0  0  0  0  0  0  0  0  0
  153.6520  142.9443  162.1382 H   0  0  0  0  0  0  0  0  0  0  0  0
  152.1430  142.1271  161.8005 H   0  0  0  0  0  0  0  0  0  0  0  0
  154.5656  142.2819  159.9482 H   0  0  0  0  0  0  0  0  0  0  0  0
  154.0330  140.8658  160.8234 H   0  0  0  0  0  0  0  0  0  0  0  0
  151.9364  140.7893  159.5457 H   0  0  0  0  0  0  0  0  0  0  0  0
  154.2312  141.1711  157.7266 H   0  0  0  0  0  0  0  0  0  0  0  0
  153.5078  136.8931  157.8906 H   0  0  0  0  0  0  0  0  0  0  0  0
  152.0967  137.8899  158.2336 H   0  0  0  0  0  0  0  0  0  0  0  0
  152.1355  136.5096  155.2246 H   0  0  0  0  0  0  0  0  0  0  0  0
  152.5190  138.2408  153.0999 H   0  0  0  0  0  0  0  0  0  0  0  0
  152.9532  143.1925  157.9790 H   0  0  0  0  0  0  0  0  0  0  0  0
  150.2807  141.7057  157.7804 H   0  0  0  0  0  0  0  0  0  0  0  0
  151.6057  141.5330  156.6387 H   0  0  0  0  0  0  0  0  0  0  0  0
  150.7874  143.0647  156.7780 H   0  0  0  0  0  0  0  0  0  0  0  0
  1  2  1  0  0  0  0
  1 19  1  0  0  0  0
  1 20  1  0  0  0  0
  1 21  1  0  0  0  0
  2 17  1  0  0  0  0
  2  3  1  0  0  0  0
  2 22  1  0  0  0  0
  3  4  1  0  0  0  0
  3 23  1  0  0  0  0
  3 24  1  0  0  0  0
  4  5  1  0  0  0  0
  4 25  1  0  0  0  0
  4 26  1  0  0  0  0
  5  6  1  0  0  0  0
  5 27  1  0  0  0  0
  5 28  1  0  0  0  0
  6  7  1  0  0  0  0
  6 17  1  0  0  0  0
  6 29  1  0  0  0  0
  7  8  1  0  0  0  0
  7 30  1  0  0  0  0
  8  9  2  0  0  0  0
  8 10  2  0  0  0  0
  8 11  1  0  0  0  0
 11 12  1  0  0  0  0
 11 31  1  0  0  0  0
 11 32  1  0  0  0  0
 12 16  2  0  0  0  0
 12 13  1  0  0  0  0
 13 14  2  0  0  0  0
 13 33  1  0  0  0  0
 14 15  1  0  0  0  0
 14 34  1  0  0  0  0
 15 16  1  0  0  0  0
 17 18  1  0  0  0  0
 17 35  1  0  0  0  0
 18 36  1  0  0  0  0
 18 37  1  0  0  0  0
 18 38  1  0  0  0  0
M  END
> <s_m_source_file>
AV-unprocessed.smi

> <i_m_source_file_index>
2451

> <i_lp_mmshare_version>
43012

> <i_f3d_flags>
0

> <s_epik_input>
W0NIM11bQ0BASF0xW0NIMl1bQ0gyXVtDSDJdW0NASF0oW0NASF0xW0NIM10pW05IXVMoPU8pKD1PKVtDSDJdYzJbY0hdW2NIXW9uMg==

> <s_epik_cmdline>
J2VwaWtfcHl0aG9uJywgJy1waCcsICc3LjAnLCAnLXRuJywgJzgnLCAnLW1hJywgJzIwMCcsICctbWV0YWxfYmluZGluZycsICctaW1hZScsICc8aW5maWxlLm1hZT4nLCAnLW9tYWUnLCAnPG91dGZpbGUubWFlPic=

> <r_lp_tautomer_probability>
1

> <r_epik_Ionization_Penalty>
8.73668e-05

> <r_epik_Ionization_Penalty_Charging>
0

> <r_epik_Ionization_Penalty_Neutral>
8.73668e-05

> <r_epik_State_Penalty>
-0

> <r_epik_Charging_Adjusted_Penalty>
0

> <i_epik_Tot_Q>
0

> <i_epik_Tot_abs_Q>
0

> <r_epik_Metal_State_Penalty>
0.0716439

> <b_epik_Metal_Only>
0

> <s_lp_Force_Field>
OPLS_2005

> <r_lp_Energy>
6.58047

> <b_lp_Chiralities_Consistent>
1

> <s_lp_Variant>
AV-unprocessed.smi:2451-3

> <Gold.Version>
5.8.1

> <Gold.Id.Protein>
6NUR|6NUR_protein|mol2

> <Gold.PLP.Fitness>
42.8364

> <Gold.PLP.PLP>
-35.2563

> <Gold.PLP.part.hbond>
-3.8164

> <Gold.PLP.part.metal>
0.0000

> <Gold.PLP.part.buried>
-3.5167

> <Gold.PLP.part.nonpolar>
-26.6916

> <Gold.PLP.part.repulsive>
0.0521

> <Gold.PLP.ligand.clash>
0.0000

> <Gold.PLP.ligand.torsion>
0.5325

> <Gold.PLP.Chemscore.Hbond>
2.3858

> <Gold.PLP.Chemscore.CHOScore>
0.4477

> <Gold.PLP.Chemscore.Metal>
0.0000

> <Gold.Chemscore.Hbonds>
donor molecule, donor type, donor heavy atom, donor atom, acceptor molecule, acceptor atom, score
      P1  H  7989  7998       L1    15  0.06
      P1  H  7997  8009       L1     9  0.39
      P1  H  7997  8010       L1    16  0.13

> <Gold.PLP.Chemscore.Internal.Correction>
0.1445

> <Gold.Rescore>
     Score         DG    S(hbond)    S(metal)    S(lipo)     H(rot)  DE(clash)    DE(int)     intcor
     15.41     -19.15       1.66        0.00     105.59       1.66       0.10       3.64       ----

> <Gold.Chemscore.Fitness>
15.4075

> <Gold.Chemscore.DG>
-19.1464

> <Gold.Chemscore.ZeroCoef>
-5.4800

> <Gold.Chemscore.Hbond>
1.6644

> <Gold.Chemscore.Metal>
0.0000

> <Gold.Chemscore.Lipo>
105.5902

> <Gold.Chemscore.Internal_Hbond>
0.0000

> <Gold.Chemscore.DEClash>
0.0971

> <Gold.Chemscore.DEInternal>
3.6417

> <Gold.Chemscore.Rot>
1.6588

> <Gold.Chemscore.Internal.Correction>
   9.000000E+99

> <Gold.Chemscore.Hbonds>
donor molecule, donor type, donor heavy atom, donor atom, acceptor molecule, acceptor atom, score
      P1  H  7989  7998       L1    15  0.01
      P1  H  7997  8009       L1     9  0.07
      P1  H  7997  8010       L1    16  0.03

> <Gold.Chemscore.Hbond.Weighted>
-5.5589

> <Gold.Chemscore.Metal.Weighted>
-0.0000

> <Gold.Chemscore.Lipo.Weighted>
-12.3540

> <Gold.Chemscore.Internal_Hbond.Weighted>
0.0000

> <Gold.Chemscore.DEClash.Weighted>
0.0971

> <Gold.Chemscore.DEInternal.Weighted>
3.6417

> <Gold.Chemscore.Rot.Weighted>
4.2466

> <Gold.Chemscore.Internal.Correction.Weighted>
   9.000000E+99

> <Gold.Protein.RotatedTorsions>
[ 6907 6896 6895 6894 ] final   45.79 input  -60.11 | X-H torsion
[ 7974 7965 7964 7962 ] final   67.05 input  175.53 | X-H torsion
[ 8008 7997 7996 7995 ] final   99.22 input   59.86 | X-H torsion
[ 10167 10162 10161 10158 ] final  100.80 input  -65.29 | X-H torsion
[ 10718 10713 10712 10709 ] final  153.44 input   66.30 | X-H torsion
[ 10763 10752 10751 10750 ] final   47.91 input  -60.55 | X-H torsion
[ 11005 11000 10999 10996 ] final -127.79 input  -57.11 | X-H torsion

> <Gold.Protein.ActiveResidues>
 VAL166  LYS551  ARG553  GLY616  TRP617  ASP618  TYR619  PRO620  LYS621  CYS622 
 ASP623  PHE694  ASN695  SER759  ASP760  ASP761  ALA762  ILE779  LEU786  VAL792 
 PHE793  MET794  SER795  GLU796  ALA797  LYS798  CYS799  TRP800  GLU811  SER814 

> <Gold.Protein.RotatedAtoms>
  152.2487  134.8154  160.0449 H   0  0  0  0  0  0  0  0  0  0  0  0  # atno 6907 bound_to 6896
  151.8842  133.3497  159.3785 H   0  0  0  0  0  0  0  0  0  0  0  0  # atno 6908 bound_to 6896
  150.7077  134.4914  159.5562 H   0  0  0  0  0  0  0  0  0  0  0  0  # atno 6909 bound_to 6896
  145.8193  139.3076  143.1052 H   0  0  0  0  0  0  0  0  0  0  0  0  # atno 7974 bound_to 7965
  156.1083  140.3232  155.8036 H   0  0  0  0  0  0  0  0  0  0  0  0  # atno 8008 bound_to 7997
  155.4718  140.0547  157.2996 H   0  0  0  0  0  0  0  0  0  0  0  0  # atno 8009 bound_to 7997
  154.4742  140.2025  155.9933 H   0  0  0  0  0  0  0  0  0  0  0  0  # atno 8010 bound_to 7997
  139.7495  144.6988  151.0454 H   0  0  0  0  0  0  0  0  0  0  0  0  # atno 10167 bound_to 10162
  157.2447  131.0766  151.1769 H   0  0  0  0  0  0  0  0  0  0  0  0  # atno 10718 bound_to 10713
  152.9796  135.5961  154.3840 H   0  0  0  0  0  0  0  0  0  0  0  0  # atno 10763 bound_to 10752
  154.3502  135.2767  155.2378 H   0  0  0  0  0  0  0  0  0  0  0  0  # atno 10764 bound_to 10752
  154.4420  135.6011  153.6191 H   0  0  0  0  0  0  0  0  0  0  0  0  # atno 10765 bound_to 10752
  140.9570  134.0988  157.4006 H   0  0  0  0  0  0  0  0  0  0  0  0  # atno 11005 bound_to 11000
  145.9692  140.8774  143.0171 LP  0  0  0  0  0  0  0  0  0  0  0  0  # atno 17320 bound_to 7965
  144.6749  140.1922  143.7395 LP  0  0  0  0  0  0  0  0  0  0  0  0  # atno 17321 bound_to 7965
  140.7796  143.4826  150.9998 LP  0  0  0  0  0  0  0  0  0  0  0  0  # atno 17342 bound_to 10162
  139.8514  143.7433  152.3178 LP  0  0  0  0  0  0  0  0  0  0  0  0  # atno 17343 bound_to 10162
  157.3342  130.7000  149.6342 LP  0  0  0  0  0  0  0  0  0  0  0  0  # atno 17370 bound_to 10713
  155.9668  130.4298  150.4851 LP  0  0  0  0  0  0  0  0  0  0  0  0  # atno 17371 bound_to 10713
  139.8865  135.0082  156.6505 LP  0  0  0  0  0  0  0  0  0  0  0  0  # atno 17394 bound_to 11000
  140.7522  133.8888  155.8355 LP  0  0  0  0  0  0  0  0  0  0  0  0  # atno 17395 bound_to 11000

$$$$
