AV-unprocessed.smi:2791|AV-procd|sdf|10771|dock2
  -GOLD-   2272015203D 1   1.00000     0.00000
 Structure written by MMmdl.
 35 36  0  0  0  0  0  0  0  0  1 V2000
  150.8171  140.7826  159.3999 C   0  0  0  0  0  0  0  0  0  0  0  0
  150.1956  142.0494  159.2269 O   0  0  0  0  0  0  0  0  0  0  0  0
  151.0701  143.1416  158.9408 C   0  0  0  0  0  0  0  0  0  0  0  0
  151.6963  143.0235  157.5444 C   0  0  0  0  0  0  0  0  0  0  0  0
  150.6650  142.8573  156.5292 N   0  0  0  0  0  0  0  0  0  0  0  0
  150.1650  141.6764  156.1450 C   0  0  0  0  0  0  0  0  0  0  0  0
  150.5315  140.6008  156.6190 O   0  0  0  0  0  0  0  0  0  0  0  0
  149.2324  141.8323  155.1892 N   0  0  0  0  0  0  0  0  0  0  0  0
  148.5056  140.8789  154.5479 C   0  0  0  0  0  0  0  0  0  0  0  0
  148.6833  139.5221  154.5395 C   0  0  0  0  0  0  0  0  0  0  0  0
  147.6176  139.0773  153.7057 C   0  0  0  0  0  0  0  0  0  0  0  0
  146.8621  140.0703  153.2528 N   0  0  0  0  0  0  0  0  0  0  0  0
  147.4091  141.1903  153.7738 N   0  0  0  0  0  0  0  0  0  0  0  0
  146.8274  142.4860  153.4814 C   0  0  0  0  0  0  0  0  0  0  0  0
  150.3284  144.4472  159.2848 C   0  0  0  0  0  0  0  0  0  0  0  0
  151.5885  144.9278  160.0068 C   0  0  0  0  0  0  0  0  0  0  0  0
  151.9859  143.4568  160.1406 C   0  0  0  0  0  0  0  0  0  0  0  0
  150.0697  140.0595  159.7258 H   0  0  0  0  0  0  0  0  0  0  0  0
  151.6012  140.8117  160.1568 H   0  0  0  0  0  0  0  0  0  0  0  0
  151.2428  140.4104  158.4684 H   0  0  0  0  0  0  0  0  0  0  0  0
  152.2727  143.9206  157.3129 H   0  0  0  0  0  0  0  0  0  0  0  0
  152.4015  142.1934  157.4937 H   0  0  0  0  0  0  0  0  0  0  0  0
  150.3105  143.6981  156.0972 H   0  0  0  0  0  0  0  0  0  0  0  0
  149.0519  142.7811  154.8956 H   0  0  0  0  0  0  0  0  0  0  0  0
  149.4358  138.9298  155.0373 H   0  0  0  0  0  0  0  0  0  0  0  0
  147.3696  138.0663  153.4183 H   0  0  0  0  0  0  0  0  0  0  0  0
  147.5838  143.1361  153.0409 H   0  0  0  0  0  0  0  0  0  0  0  0
  146.4612  142.9388  154.4029 H   0  0  0  0  0  0  0  0  0  0  0  0
  145.9972  142.3857  152.7811 H   0  0  0  0  0  0  0  0  0  0  0  0
  150.0418  145.0555  158.4264 H   0  0  0  0  0  0  0  0  0  0  0  0
  149.4883  144.2994  159.9660 H   0  0  0  0  0  0  0  0  0  0  0  0
  152.2605  145.4927  159.3585 H   0  0  0  0  0  0  0  0  0  0  0  0
  151.4073  145.4411  160.9516 H   0  0  0  0  0  0  0  0  0  0  0  0
  151.6392  143.0177  161.0780 H   0  0  0  0  0  0  0  0  0  0  0  0
  153.0449  143.2581  159.9729 H   0  0  0  0  0  0  0  0  0  0  0  0
  1  2  1  0  0  0  0
  1 18  1  0  0  0  0
  1 19  1  0  0  0  0
  1 20  1  0  0  0  0
  2  3  1  0  0  0  0
  3 17  1  0  0  0  0
  3  4  1  0  0  0  0
  3 15  1  0  0  0  0
  4  5  1  0  0  0  0
  4 21  1  0  0  0  0
  4 22  1  0  0  0  0
  5  6  1  0  0  0  0
  5 23  1  0  0  0  0
  6  7  2  0  0  0  0
  6  8  1  0  0  0  0
  8  9  1  0  0  0  0
  8 24  1  0  0  0  0
  9 13  1  0  0  0  0
  9 10  2  0  0  0  0
 10 11  1  0  0  0  0
 10 25  1  0  0  0  0
 11 12  2  0  0  0  0
 11 26  1  0  0  0  0
 12 13  1  0  0  0  0
 13 14  1  0  0  0  0
 14 27  1  0  0  0  0
 14 28  1  0  0  0  0
 14 29  1  0  0  0  0
 15 16  1  0  0  0  0
 15 30  1  0  0  0  0
 15 31  1  0  0  0  0
 16 17  1  0  0  0  0
 16 32  1  0  0  0  0
 16 33  1  0  0  0  0
 17 34  1  0  0  0  0
 17 35  1  0  0  0  0
M  END
> <s_m_source_file>
AV-unprocessed.smi

> <i_m_source_file_index>
2791

> <i_lp_mmshare_version>
43012

> <i_f3d_flags>
0

> <s_epik_input>
W0NIMl0xW0NIMl1bQ0gyXUMxKE9bQ0gzXSlbQ0gyXVtOSF1DKD1PKVtOSF1jMltjSF1bY0hdbm4yW0NIM10=

> <s_epik_cmdline>
J2VwaWtfcHl0aG9uJywgJy1waCcsICc3LjAnLCAnLXRuJywgJzgnLCAnLW1hJywgJzIwMCcsICctbWV0YWxfYmluZGluZycsICctaW1hZScsICc8aW5maWxlLm1hZT4nLCAnLW9tYWUnLCAnPG91dGZpbGUubWFlPic=

> <r_lp_tautomer_probability>
1

> <r_epik_Ionization_Penalty>
4.34911e-05

> <r_epik_Ionization_Penalty_Charging>
0

> <r_epik_Ionization_Penalty_Neutral>
4.34911e-05

> <r_epik_State_Penalty>
-0

> <r_epik_Charging_Adjusted_Penalty>
0

> <i_epik_Tot_Q>
0

> <i_epik_Tot_abs_Q>
0

> <r_epik_Metal_State_Penalty>
-0

> <b_epik_Metal_Only>
0

> <s_lp_Force_Field>
OPLS_2005

> <r_lp_Energy>
18.0019

> <b_lp_Chiralities_Consistent>
1

> <s_lp_Variant>
AV-unprocessed.smi:2791-1

> <Gold.Version>
5.8.1

> <Gold.Id.Protein>
6NUR|6NUR_protein|mol2

> <Gold.PLP.Fitness>
46.8339

> <Gold.PLP.PLP>
-38.3243

> <Gold.PLP.part.hbond>
-2.5556

> <Gold.PLP.part.metal>
0.0000

> <Gold.PLP.part.buried>
-5.8834

> <Gold.PLP.part.nonpolar>
-30.1298

> <Gold.PLP.part.repulsive>
0.4566

> <Gold.PLP.ligand.clash>
0.0000

> <Gold.PLP.ligand.torsion>
0.4015

> <Gold.PLP.Chemscore.Hbond>
2.0000

> <Gold.PLP.Chemscore.CHOScore>
1.0000

> <Gold.PLP.Chemscore.Metal>
0.0000

> <Gold.Chemscore.Hbonds>
donor molecule, donor type, donor heavy atom, donor atom, acceptor molecule, acceptor atom, score
      L1  H     5    23       P1  8028  0.99
      L1  H     8    24       P1  8028  0.74
      L1  C    11    26       P1  7948  0.14

> <Gold.PLP.Chemscore.Internal.Correction>
0.3126

> <Gold.Rescore>
     Score         DG    S(hbond)    S(metal)    S(lipo)     H(rot)  DE(clash)    DE(int)     intcor
     15.69     -17.54       1.93        0.00      81.44       1.53       0.10       1.75       ----

> <Gold.Chemscore.Fitness>
15.6919

> <Gold.Chemscore.DG>
-17.5407

> <Gold.Chemscore.ZeroCoef>
-5.4800

> <Gold.Chemscore.Hbond>
1.9336

> <Gold.Chemscore.Metal>
0.0000

> <Gold.Chemscore.Lipo>
81.4449

> <Gold.Chemscore.Internal_Hbond>
0.0000

> <Gold.Chemscore.DEClash>
0.0975

> <Gold.Chemscore.DEInternal>
1.7513

> <Gold.Chemscore.Rot>
1.5339

> <Gold.Chemscore.Internal.Correction>
   9.000000E+99

> <Gold.Chemscore.Hbonds>
donor molecule, donor type, donor heavy atom, donor atom, acceptor molecule, acceptor atom, score
      L1  H     5    23       P1  8028  0.93
      L1  H     8    24       P1  8028  0.71

> <Gold.Chemscore.Hbond.Weighted>
-6.4584

> <Gold.Chemscore.Metal.Weighted>
-0.0000

> <Gold.Chemscore.Lipo.Weighted>
-9.5291

> <Gold.Chemscore.Internal_Hbond.Weighted>
0.0000

> <Gold.Chemscore.DEClash.Weighted>
0.0975

> <Gold.Chemscore.DEInternal.Weighted>
1.7513

> <Gold.Chemscore.Rot.Weighted>
3.9267

> <Gold.Chemscore.Internal.Correction.Weighted>
   9.000000E+99

> <Gold.Protein.RotatedTorsions>
[ 6907 6896 6895 6894 ] final -106.49 input  -60.11 | X-H torsion
[ 7974 7965 7964 7962 ] final  -38.83 input  175.53 | X-H torsion
[ 8008 7997 7996 7995 ] final  113.72 input   59.86 | X-H torsion
[ 10167 10162 10161 10158 ] final   60.23 input  -65.29 | X-H torsion
[ 10718 10713 10712 10709 ] final   69.02 input   66.30 | X-H torsion
[ 10763 10752 10751 10750 ] final   99.34 input  -60.55 | X-H torsion
[ 11005 11000 10999 10996 ] final -135.57 input  -57.11 | X-H torsion

> <Gold.Protein.ActiveResidues>
 VAL166  LYS551  ARG553  GLY616  TRP617  ASP618  TYR619  PRO620  LYS621  CYS622 
 ASP623  PHE694  ASN695  SER759  ASP760  ASP761  ALA762  ILE779  LEU786  VAL792 
 PHE793  MET794  SER795  GLU796  ALA797  LYS798  CYS799  TRP800  GLU811  SER814 

> <Gold.Protein.RotatedAtoms>
  150.7392  133.9968  159.3624 H   0  0  0  0  0  0  0  0  0  0  0  0  # atno 6907 bound_to 6896
  151.7920  135.0731  160.0398 H   0  0  0  0  0  0  0  0  0  0  0  0  # atno 6908 bound_to 6896
  152.3201  133.5808  159.5775 H   0  0  0  0  0  0  0  0  0  0  0  0  # atno 6909 bound_to 6896
  146.0452  140.6556  142.9068 H   0  0  0  0  0  0  0  0  0  0  0  0  # atno 7974 bound_to 7965
  156.2276  140.2973  156.0107 H   0  0  0  0  0  0  0  0  0  0  0  0  # atno 8008 bound_to 7997
  155.2313  140.0419  157.2979 H   0  0  0  0  0  0  0  0  0  0  0  0  # atno 8009 bound_to 7997
  154.5941  140.2409  155.7888 H   0  0  0  0  0  0  0  0  0  0  0  0  # atno 8010 bound_to 7997
  140.1679  144.4306  150.6676 H   0  0  0  0  0  0  0  0  0  0  0  0  # atno 10167 bound_to 10162
  157.6322  130.9404  150.0457 H   0  0  0  0  0  0  0  0  0  0  0  0  # atno 10718 bound_to 10713
  153.3002  135.4117  155.1245 H   0  0  0  0  0  0  0  0  0  0  0  0  # atno 10763 bound_to 10752
  154.8547  135.3539  154.5862 H   0  0  0  0  0  0  0  0  0  0  0  0  # atno 10764 bound_to 10752
  153.6287  135.7061  153.5341 H   0  0  0  0  0  0  0  0  0  0  0  0  # atno 10765 bound_to 10752
  140.8886  134.1840  157.4543 H   0  0  0  0  0  0  0  0  0  0  0  0  # atno 11005 bound_to 11000
  144.7094  140.3980  143.7092 LP  0  0  0  0  0  0  0  0  0  0  0  0  # atno 17320 bound_to 7965
  145.6818  139.1620  143.2696 LP  0  0  0  0  0  0  0  0  0  0  0  0  # atno 17321 bound_to 7965
  140.6601  143.2249  151.5875 LP  0  0  0  0  0  0  0  0  0  0  0  0  # atno 17342 bound_to 10162
  139.5351  144.2803  152.1234 LP  0  0  0  0  0  0  0  0  0  0  0  0  # atno 17343 bound_to 10162
  156.1535  130.3643  149.9404 LP  0  0  0  0  0  0  0  0  0  0  0  0  # atno 17370 bound_to 10713
  156.7418  130.9082  151.3632 LP  0  0  0  0  0  0  0  0  0  0  0  0  # atno 17371 bound_to 10713
  139.8727  134.9849  156.5257 LP  0  0  0  0  0  0  0  0  0  0  0  0  # atno 17394 bound_to 11000
  140.8374  133.8231  155.9042 LP  0  0  0  0  0  0  0  0  0  0  0  0  # atno 17395 bound_to 11000

$$$$
