AV-unprocessed.smi:1125|AV-procd|sdf|4836|dock2
  -GOLD-   22720 3403D 1   1.00000     0.00000
 Structure written by MMmdl.
 45 46  0  0  0  0  0  0  0  0  1 V2000
  152.1202  144.7241  158.2337 C   0  0  0  0  0  0  0  0  0  0  0  0
  152.4605  143.3256  158.4538 N   0  0  0  0  0  0  0  0  0  0  0  0
  151.4036  142.4772  157.9019 C   0  0  0  0  0  0  0  0  0  0  0  0
  151.7726  140.9924  158.0688 C   0  0  0  0  0  0  0  0  0  0  0  0
  151.9996  140.6433  159.5476 C   0  0  0  0  0  0  0  0  0  0  0  0
  152.4664  139.2656  159.6668 N   0  0  0  0  0  0  0  0  0  0  0  0
  153.6914  138.8314  159.3310 C   0  0  0  0  0  0  0  0  0  0  0  0
  154.5681  139.5626  158.8703 O   0  0  0  0  0  0  0  0  0  0  0  0
  153.9711  137.3428  159.5419 C   0  0  0  0  0  0  0  0  0  0  0  0
  154.1042  137.0385  161.0060 C   0  0  0  0  0  0  0  0  0  0  0  0
  153.7254  137.8409  162.0526 C   0  0  0  0  0  0  0  0  0  0  0  0
  154.0577  137.0994  163.5916 S   0  0  0  0  0  0  0  0  0  0  0  0
  154.7245  135.6957  162.7495 C   0  0  0  0  0  0  0  0  0  0  0  0
  155.3026  134.4751  163.4250 C   0  0  0  0  0  0  0  0  0  0  0  0
  156.8092  134.3712  163.1176 C   0  0  0  0  0  0  0  0  0  0  0  0
  154.6332  133.1808  162.9141 C   0  0  0  0  0  0  0  0  0  0  0  0
  155.0613  134.5562  164.9449 C   0  0  0  0  0  0  0  0  0  0  0  0
  154.6715  135.8291  161.4190 N   0  0  0  0  0  0  0  0  0  0  0  0
  153.0213  141.6256  160.1474 C   0  0  0  0  0  0  0  0  0  0  0  0
  152.6032  143.0841  159.8900 C   0  0  0  0  0  0  0  0  0  0  0  0
  152.0252  144.9317  157.1674 H   0  0  0  0  0  0  0  0  0  0  0  0
  152.9012  145.3744  158.6290 H   0  0  0  0  0  0  0  0  0  0  0  0
  151.1790  144.9871  158.7188 H   0  0  0  0  0  0  0  0  0  0  0  0
  150.4533  142.6887  158.3951 H   0  0  0  0  0  0  0  0  0  0  0  0
  151.2720  142.7010  156.8426 H   0  0  0  0  0  0  0  0  0  0  0  0
  150.9811  140.3670  157.6544 H   0  0  0  0  0  0  0  0  0  0  0  0
  152.6726  140.7766  157.4902 H   0  0  0  0  0  0  0  0  0  0  0  0
  151.0494  140.7499  160.0747 H   0  0  0  0  0  0  0  0  0  0  0  0
  151.8131  138.5938  160.0433 H   0  0  0  0  0  0  0  0  0  0  0  0
  153.1672  136.7599  159.0898 H   0  0  0  0  0  0  0  0  0  0  0  0
  154.8842  137.0688  159.0121 H   0  0  0  0  0  0  0  0  0  0  0  0
  153.2672  138.8180  162.0099 H   0  0  0  0  0  0  0  0  0  0  0  0
  157.2494  133.4869  163.5798 H   0  0  0  0  0  0  0  0  0  0  0  0
  157.3551  135.2379  163.4918 H   0  0  0  0  0  0  0  0  0  0  0  0
  156.9908  134.3070  162.0439 H   0  0  0  0  0  0  0  0  0  0  0  0
  154.7745  133.0512  161.8404 H   0  0  0  0  0  0  0  0  0  0  0  0
  153.5607  133.1758  163.1126 H   0  0  0  0  0  0  0  0  0  0  0  0
  155.0523  132.2996  163.4011 H   0  0  0  0  0  0  0  0  0  0  0  0
  155.4569  133.6793  165.4586 H   0  0  0  0  0  0  0  0  0  0  0  0
  153.9969  134.6201  165.1743 H   0  0  0  0  0  0  0  0  0  0  0  0
  155.5437  135.4321  165.3805 H   0  0  0  0  0  0  0  0  0  0  0  0
  153.1213  141.4581  161.2204 H   0  0  0  0  0  0  0  0  0  0  0  0
  154.0072  141.4497  159.7142 H   0  0  0  0  0  0  0  0  0  0  0  0
  153.3596  143.7548  160.2991 H   0  0  0  0  0  0  0  0  0  0  0  0
  151.6666  143.3054  160.4049 H   0  0  0  0  0  0  0  0  0  0  0  0
  1  2  1  0  0  0  0
  1 21  1  0  0  0  0
  1 22  1  0  0  0  0
  1 23  1  0  0  0  0
  2 20  1  0  0  0  0
  2  3  1  0  0  0  0
  3  4  1  0  0  0  0
  3 24  1  0  0  0  0
  3 25  1  0  0  0  0
  4  5  1  0  0  0  0
  4 26  1  0  0  0  0
  4 27  1  0  0  0  0
  5  6  1  0  0  0  0
  5 19  1  0  0  0  0
  5 28  1  0  0  0  0
  6  7  1  0  0  0  0
  6 29  1  0  0  0  0
  7  8  2  0  0  0  0
  7  9  1  0  0  0  0
  9 10  1  0  0  0  0
  9 30  1  0  0  0  0
  9 31  1  0  0  0  0
 10 18  1  0  0  0  0
 10 11  2  0  0  0  0
 11 12  1  0  0  0  0
 11 32  1  0  0  0  0
 12 13  1  0  0  0  0
 13 14  1  0  0  0  0
 13 18  2  0  0  0  0
 14 15  1  0  0  0  0
 14 16  1  0  0  0  0
 14 17  1  0  0  0  0
 15 33  1  0  0  0  0
 15 34  1  0  0  0  0
 15 35  1  0  0  0  0
 16 36  1  0  0  0  0
 16 37  1  0  0  0  0
 16 38  1  0  0  0  0
 17 39  1  0  0  0  0
 17 40  1  0  0  0  0
 17 41  1  0  0  0  0
 19 20  1  0  0  0  0
 19 42  1  0  0  0  0
 19 43  1  0  0  0  0
 20 44  1  0  0  0  0
 20 45  1  0  0  0  0
M  END
> <s_m_source_file>
AV-unprocessed.smi

> <i_m_source_file_index>
1125

> <i_lp_mmshare_version>
43012

> <i_f3d_flags>
0

> <s_epik_input>
W0NIM11OMVtDSDJdW0NIMl1bQ0hdKFtDSDJdW0NIMl0xKVtOSF1DKD1PKVtDSDJdYzJbY0hdc2MobjIpQyhbQ0gzXSkoW0NIM10pW0NIM10=

> <s_epik_cmdline>
J2VwaWtfcHl0aG9uJywgJy1waCcsICc3LjAnLCAnLXRuJywgJzgnLCAnLW1hJywgJzIwMCcsICctbWV0YWxfYmluZGluZycsICctaW1hZScsICc8aW5maWxlLm1hZT4nLCAnLW9tYWUnLCAnPG91dGZpbGUubWFlPic=

> <r_epik_Ionization_Penalty>
2.53567

> <r_epik_Ionization_Penalty_Charging>
0

> <r_epik_Ionization_Penalty_Neutral>
2.53567

> <r_epik_State_Penalty>
2.70312

> <r_epik_Charging_Adjusted_Penalty>
2.70312

> <i_epik_Tot_Q>
0

> <i_epik_Tot_abs_Q>
0

> <r_epik_Metal_State_Penalty>
2.70311

> <b_epik_Metal_Only>
0

> <s_lp_Force_Field>
OPLS_2005

> <r_lp_Energy>
6.33754

> <b_lp_Chiralities_Consistent>
1

> <s_lp_Variant>
AV-unprocessed.smi:1125-3

> <Gold.Version>
5.8.1

> <Gold.Id.Protein>
6NUR|6NUR_protein|mol2

> <Gold.PLP.Fitness>
39.2547

> <Gold.PLP.PLP>
-37.3783

> <Gold.PLP.part.hbond>
-1.0000

> <Gold.PLP.part.metal>
0.0000

> <Gold.PLP.part.buried>
-4.3717

> <Gold.PLP.part.nonpolar>
-31.8538

> <Gold.PLP.part.repulsive>
0.1069

> <Gold.PLP.ligand.clash>
0.0000

> <Gold.PLP.ligand.torsion>
0.5708

> <Gold.PLP.Chemscore.Hbond>
1.0000

> <Gold.PLP.Chemscore.CHOScore>
0.0000

> <Gold.PLP.Chemscore.Metal>
0.0000

> <Gold.Chemscore.Hbonds>
donor molecule, donor type, donor heavy atom, donor atom, acceptor molecule, acceptor atom, score
      P1  H  7997  8009       L1     8  1.00

> <Gold.PLP.Chemscore.Internal.Correction>
0.0179

> <Gold.Rescore>
     Score         DG    S(hbond)    S(metal)    S(lipo)     H(rot)  DE(clash)    DE(int)     intcor
     15.84     -18.39       0.98        0.00     112.12       1.35       0.00       2.54       ----

> <Gold.Chemscore.Fitness>
15.8447

> <Gold.Chemscore.DG>
-18.3931

> <Gold.Chemscore.ZeroCoef>
-5.4800

> <Gold.Chemscore.Hbond>
0.9755

> <Gold.Chemscore.Metal>
0.0000

> <Gold.Chemscore.Lipo>
112.1160

> <Gold.Chemscore.Internal_Hbond>
0.0000

> <Gold.Chemscore.DEClash>
0.0047

> <Gold.Chemscore.DEInternal>
2.5438

> <Gold.Chemscore.Rot>
1.3526

> <Gold.Chemscore.Internal.Correction>
   9.000000E+99

> <Gold.Chemscore.Hbonds>
donor molecule, donor type, donor heavy atom, donor atom, acceptor molecule, acceptor atom, score
      P1  H  7997  8009       L1     8  0.98

> <Gold.Chemscore.Hbond.Weighted>
-3.2582

> <Gold.Chemscore.Metal.Weighted>
-0.0000

> <Gold.Chemscore.Lipo.Weighted>
-13.1176

> <Gold.Chemscore.Internal_Hbond.Weighted>
0.0000

> <Gold.Chemscore.DEClash.Weighted>
0.0047

> <Gold.Chemscore.DEInternal.Weighted>
2.5438

> <Gold.Chemscore.Rot.Weighted>
3.4626

> <Gold.Chemscore.Internal.Correction.Weighted>
   9.000000E+99

> <Gold.Protein.RotatedTorsions>
[ 6907 6896 6895 6894 ] final  175.45 input  -60.11 | X-H torsion
[ 7974 7965 7964 7962 ] final  117.88 input  175.53 | X-H torsion
[ 8008 7997 7996 7995 ] final  109.39 input   59.86 | X-H torsion
[ 10167 10162 10161 10158 ] final    0.25 input  -65.29 | X-H torsion
[ 10718 10713 10712 10709 ] final  165.54 input   66.30 | X-H torsion
[ 10763 10752 10751 10750 ] final  -89.48 input  -60.55 | X-H torsion
[ 11005 11000 10999 10996 ] final   93.41 input  -57.11 | X-H torsion

> <Gold.Protein.ActiveResidues>
 VAL166  LYS551  ARG553  GLY616  TRP617  ASP618  TYR619  PRO620  LYS621  CYS622 
 ASP623  PHE694  ASN695  SER759  ASP760  ASP761  ALA762  ILE779  LEU786  VAL792 
 PHE793  MET794  SER795  GLU796  ALA797  LYS798  CYS799  TRP800  GLU811  SER814 

> <Gold.Protein.RotatedAtoms>
  151.7360  133.3320  159.3352 H   0  0  0  0  0  0  0  0  0  0  0  0  # atno 6907 bound_to 6896
  150.7593  134.6321  159.6201 H   0  0  0  0  0  0  0  0  0  0  0  0  # atno 6908 bound_to 6896
  152.3561  134.6940  160.0273 H   0  0  0  0  0  0  0  0  0  0  0  0  # atno 6909 bound_to 6896
  145.1619  139.3150  143.4512 H   0  0  0  0  0  0  0  0  0  0  0  0  # atno 7974 bound_to 7965
  156.1976  140.3058  155.9459 H   0  0  0  0  0  0  0  0  0  0  0  0  # atno 8008 bound_to 7997
  155.3030  140.0447  157.3047 H   0  0  0  0  0  0  0  0  0  0  0  0  # atno 8009 bound_to 7997
  154.5529  140.2297  155.8465 H   0  0  0  0  0  0  0  0  0  0  0  0  # atno 8010 bound_to 7997
  140.6737  143.6977  150.7977 H   0  0  0  0  0  0  0  0  0  0  0  0  # atno 10167 bound_to 10162
  157.0787  131.0386  151.2584 H   0  0  0  0  0  0  0  0  0  0  0  0  # atno 10718 bound_to 10713
  154.6557  135.5339  153.7955 H   0  0  0  0  0  0  0  0  0  0  0  0  # atno 10763 bound_to 10752
  153.0412  135.6493  154.0949 H   0  0  0  0  0  0  0  0  0  0  0  0  # atno 10764 bound_to 10752
  154.0863  135.2943  155.3260 H   0  0  0  0  0  0  0  0  0  0  0  0  # atno 10765 bound_to 10752
  139.8810  134.8788  156.3713 H   0  0  0  0  0  0  0  0  0  0  0  0  # atno 11005 bound_to 11000
  146.3481  140.1733  142.8589 LP  0  0  0  0  0  0  0  0  0  0  0  0  # atno 17320 bound_to 7965
  145.0322  140.8879  143.5103 LP  0  0  0  0  0  0  0  0  0  0  0  0  # atno 17321 bound_to 7965
  140.0667  143.5102  152.2601 LP  0  0  0  0  0  0  0  0  0  0  0  0  # atno 17342 bound_to 10162
  139.6018  144.7584  151.3155 LP  0  0  0  0  0  0  0  0  0  0  0  0  # atno 17343 bound_to 10162
  157.4818  130.7770  149.7422 LP  0  0  0  0  0  0  0  0  0  0  0  0  # atno 17370 bound_to 10713
  155.9930  130.3927  150.2920 LP  0  0  0  0  0  0  0  0  0  0  0  0  # atno 17371 bound_to 10713
  140.9462  133.7481  156.0211 LP  0  0  0  0  0  0  0  0  0  0  0  0  # atno 17394 bound_to 11000
  140.8161  134.3344  157.5397 LP  0  0  0  0  0  0  0  0  0  0  0  0  # atno 17395 bound_to 11000

$$$$
