AV-unprocessed.smi:2960|AV-procd|sdf|11312|dock5
  -GOLD-   2272016213D 1   1.00000     0.00000
 Structure written by MMmdl.
 49 51  0  0  0  0  0  0  0  0  2 V2000
  146.8983  139.4878  152.3554 C   0  0  0  0  0  0  0  0  0  0  0  0
  147.1829  140.2129  153.6663 C   0  0  0  0  0  0  0  0  0  0  0  0
  146.2910  140.3513  154.5031 O   0  0  0  0  0  0  0  0  0  0  0  0
  148.4326  140.6710  153.8325 N   0  0  0  0  0  0  0  0  0  0  0  0
  148.9069  141.3991  155.0033 C   0  0  0  0  0  0  0  0  0  0  0  0
  150.3088  140.9362  155.4331 C   0  0  0  0  0  0  0  0  0  0  0  0
  150.8081  141.7138  156.6082 C   0  0  0  0  0  0  0  0  0  0  0  0
  150.7849  143.0720  156.7243 N   0  3  0  0  0  0  0  0  0  0  0  0
  151.3412  143.4532  157.9458 C   0  0  0  0  0  0  0  0  0  0  0  0
  151.5319  144.7116  158.5084 C   0  0  0  0  0  0  0  0  0  0  0  0
  152.1349  144.7500  159.7830 C   0  0  0  0  0  0  0  0  0  0  0  0
  152.5232  143.5685  160.4479 C   0  0  0  0  0  0  0  0  0  0  0  0
  152.3248  142.2986  159.8669 C   0  0  0  0  0  0  0  0  0  0  0  0
  151.7278  142.2697  158.6068 C   0  0  0  0  0  0  0  0  0  0  0  0
  151.3862  141.2225  157.7437 N   0  0  0  0  0  0  0  0  0  0  0  0
  151.6775  139.8415  158.1538 C   0  0  0  0  0  0  0  0  0  0  0  0
  153.1258  139.6736  158.6326 C   0  0  0  0  0  0  0  0  0  0  0  0
  153.2306  138.4410  159.3296 O   0  0  0  0  0  0  0  0  0  0  0  0
  153.8235  138.4452  160.5742 C   0  0  0  0  0  0  0  0  0  0  0  0
  153.7618  137.2484  161.3173 C   0  0  0  0  0  0  0  0  0  0  0  0
  154.3440  137.1623  162.5963 C   0  0  0  0  0  0  0  0  0  0  0  0
  154.9992  138.2785  163.1516 C   0  0  0  0  0  0  0  0  0  0  0  0
  155.6262  138.1798  164.5270 C   0  0  0  0  0  0  0  0  0  0  0  0
  155.0659  139.4805  162.4193 C   0  0  0  0  0  0  0  0  0  0  0  0
  154.4825  139.5661  161.1401 C   0  0  0  0  0  0  0  0  0  0  0  0
  147.5554  138.6242  152.2466 H   0  0  0  0  0  0  0  0  0  0  0  0
  147.0609  140.1548  151.5083 H   0  0  0  0  0  0  0  0  0  0  0  0
  145.8658  139.1374  152.3216 H   0  0  0  0  0  0  0  0  0  0  0  0
  149.0992  140.5133  153.0901 H   0  0  0  0  0  0  0  0  0  0  0  0
  148.9232  142.4590  154.7527 H   0  0  0  0  0  0  0  0  0  0  0  0
  148.1967  141.2848  155.8244 H   0  0  0  0  0  0  0  0  0  0  0  0
  150.2932  139.8788  155.6995 H   0  0  0  0  0  0  0  0  0  0  0  0
  151.0132  141.0343  154.6070 H   0  0  0  0  0  0  0  0  0  0  0  0
  151.2359  145.6180  158.0012 H   0  0  0  0  0  0  0  0  0  0  0  0
  152.3030  145.7046  160.2604 H   0  0  0  0  0  0  0  0  0  0  0  0
  152.9829  143.6372  161.4232 H   0  0  0  0  0  0  0  0  0  0  0  0
  152.6265  141.3992  160.3833 H   0  0  0  0  0  0  0  0  0  0  0  0
  150.9710  139.5527  158.9327 H   0  0  0  0  0  0  0  0  0  0  0  0
  151.4857  139.1858  157.3048 H   0  0  0  0  0  0  0  0  0  0  0  0
  153.8002  139.6812  157.7757 H   0  0  0  0  0  0  0  0  0  0  0  0
  153.4034  140.4988  159.2901 H   0  0  0  0  0  0  0  0  0  0  0  0
  153.2624  136.3856  160.9013 H   0  0  0  0  0  0  0  0  0  0  0  0
  154.2868  136.2364  163.1500 H   0  0  0  0  0  0  0  0  0  0  0  0
  156.1116  139.1139  164.8117 H   0  0  0  0  0  0  0  0  0  0  0  0
  156.3757  137.3882  164.5445 H   0  0  0  0  0  0  0  0  0  0  0  0
  154.8656  137.9498  165.2736 H   0  0  0  0  0  0  0  0  0  0  0  0
  155.5656  140.3435  162.8347 H   0  0  0  0  0  0  0  0  0  0  0  0
  154.5562  140.5050  160.6131 H   0  0  0  0  0  0  0  0  0  0  0  0
  150.4130  143.6916  156.0157 H   0  0  0  0  0  0  0  0  0  0  0  0
  1  2  1  0  0  0  0
  1 26  1  0  0  0  0
  1 27  1  0  0  0  0
  1 28  1  0  0  0  0
  2  3  2  0  0  0  0
  2  4  1  0  0  0  0
  4  5  1  0  0  0  0
  4 29  1  0  0  0  0
  5  6  1  0  0  0  0
  5 30  1  0  0  0  0
  5 31  1  0  0  0  0
  6  7  1  0  0  0  0
  6 32  1  0  0  0  0
  6 33  1  0  0  0  0
  7 15  1  0  0  0  0
  7  8  2  0  0  0  0
  8  9  1  0  0  0  0
  8 49  1  0  0  0  0
  9 14  2  0  0  0  0
  9 10  1  0  0  0  0
 10 11  2  0  0  0  0
 10 34  1  0  0  0  0
 11 12  1  0  0  0  0
 11 35  1  0  0  0  0
 12 13  2  0  0  0  0
 12 36  1  0  0  0  0
 13 14  1  0  0  0  0
 13 37  1  0  0  0  0
 14 15  1  0  0  0  0
 15 16  1  0  0  0  0
 16 17  1  0  0  0  0
 16 38  1  0  0  0  0
 16 39  1  0  0  0  0
 17 18  1  0  0  0  0
 17 40  1  0  0  0  0
 17 41  1  0  0  0  0
 18 19  1  0  0  0  0
 19 25  1  0  0  0  0
 19 20  2  0  0  0  0
 20 21  1  0  0  0  0
 20 42  1  0  0  0  0
 21 22  2  0  0  0  0
 21 43  1  0  0  0  0
 22 23  1  0  0  0  0
 22 24  1  0  0  0  0
 23 44  1  0  0  0  0
 23 45  1  0  0  0  0
 23 46  1  0  0  0  0
 24 25  2  0  0  0  0
 24 47  1  0  0  0  0
 25 48  1  0  0  0  0
M  CHG  1   8   1
M  END
> <s_m_source_file>
AV-unprocessed.smi

> <i_m_source_file_index>
2960

> <i_lp_mmshare_version>
43012

> <i_f3d_flags>
0

> <s_epik_input>
W0NIM11DKD1PKVtOSF1bQ0gyXVtDSDJdYyhuMSluKGMoYzEyKVtjSF1bY0hdW2NIXVtjSF0yKVtDSDJdW0NIMl1PYzNbY0hdW2NIXWMoW0NIM10pW2NIXVtjSF0z

> <s_epik_cmdline>
J2VwaWtfcHl0aG9uJywgJy1waCcsICc3LjAnLCAnLXRuJywgJzgnLCAnLW1hJywgJzIwMCcsICctbWV0YWxfYmluZGluZycsICctaW1hZScsICc8aW5maWxlLm1hZT4nLCAnLW9tYWUnLCAnPG91dGZpbGUubWFlPic=

> <r_lp_tautomer_probability>
1

> <r_epik_Ionization_Penalty>
1.10884

> <r_epik_Ionization_Penalty_Charging>
1.10884

> <r_epik_Ionization_Penalty_Neutral>
3.05925e-07

> <r_epik_State_Penalty>
1.16664

> <r_epik_Charging_Adjusted_Penalty>
2.27548

> <i_epik_Tot_Q>
1

> <i_epik_Tot_abs_Q>
1

> <r_epik_Metal_State_Penalty>
1.2527

> <b_epik_Metal_Only>
0

> <s_lp_Force_Field>
OPLS_2005

> <r_lp_Energy>
19.8643

> <b_lp_Chiralities_Consistent>
1

> <s_lp_Variant>
AV-unprocessed.smi:2960-2

> <Gold.Version>
5.8.1

> <Gold.Id.Protein>
6NUR|6NUR_protein|mol2

> <Gold.PLP.Fitness>
60.8035

> <Gold.PLP.PLP>
-54.6850

> <Gold.PLP.part.hbond>
-2.0000

> <Gold.PLP.part.metal>
0.0000

> <Gold.PLP.part.buried>
-3.8818

> <Gold.PLP.part.nonpolar>
-49.3947

> <Gold.PLP.part.repulsive>
0.3118

> <Gold.PLP.ligand.clash>
0.0000

> <Gold.PLP.ligand.torsion>
0.8277

> <Gold.PLP.Chemscore.Hbond>
2.5680

> <Gold.PLP.Chemscore.CHOScore>
0.0000

> <Gold.PLP.Chemscore.Metal>
0.0000

> <Gold.Chemscore.Hbonds>
donor molecule, donor type, donor heavy atom, donor atom, acceptor molecule, acceptor atom, score
      L1  H     4    29       P1  7957  0.96
      L1  H     8    49       P1  8028  1.63

> <Gold.PLP.Chemscore.Internal.Correction>
0.0700

> <Gold.Rescore>
     Score         DG    S(hbond)    S(metal)    S(lipo)     H(rot)  DE(clash)    DE(int)     intcor
     20.36     -22.58       1.71        0.00     145.03       2.18       0.25       1.96       ----

> <Gold.Chemscore.Fitness>
20.3643

> <Gold.Chemscore.DG>
-22.5810

> <Gold.Chemscore.ZeroCoef>
-5.4800

> <Gold.Chemscore.Hbond>
1.7101

> <Gold.Chemscore.Metal>
0.0000

> <Gold.Chemscore.Lipo>
145.0286

> <Gold.Chemscore.Internal_Hbond>
0.0000

> <Gold.Chemscore.DEClash>
0.2538

> <Gold.Chemscore.DEInternal>
1.9629

> <Gold.Chemscore.Rot>
2.1793

> <Gold.Chemscore.Internal.Correction>
   9.000000E+99

> <Gold.Chemscore.Hbonds>
donor molecule, donor type, donor heavy atom, donor atom, acceptor molecule, acceptor atom, score
      L1  H     4    29       P1  7957  0.87
      L1  H     8    49       P1  8028  0.81

> <Gold.Chemscore.Hbond.Weighted>
-5.7117

> <Gold.Chemscore.Metal.Weighted>
-0.0000

> <Gold.Chemscore.Lipo.Weighted>
-16.9683

> <Gold.Chemscore.Internal_Hbond.Weighted>
0.0000

> <Gold.Chemscore.DEClash.Weighted>
0.2538

> <Gold.Chemscore.DEInternal.Weighted>
1.9629

> <Gold.Chemscore.Rot.Weighted>
5.5791

> <Gold.Chemscore.Internal.Correction.Weighted>
   9.000000E+99

> <Gold.Protein.RotatedTorsions>
[ 6907 6896 6895 6894 ] final -101.78 input  -60.11 | X-H torsion
[ 7974 7965 7964 7962 ] final -154.53 input  175.53 | X-H torsion
[ 8008 7997 7996 7995 ] final -173.22 input   59.86 | X-H torsion
[ 10167 10162 10161 10158 ] final  -27.88 input  -65.29 | X-H torsion
[ 10718 10713 10712 10709 ] final  101.23 input   66.30 | X-H torsion
[ 10763 10752 10751 10750 ] final  -84.82 input  -60.55 | X-H torsion
[ 11005 11000 10999 10996 ] final -152.89 input  -57.11 | X-H torsion

> <Gold.Protein.ActiveResidues>
 VAL166  LYS551  ARG553  GLY616  TRP617  ASP618  TYR619  PRO620  LYS621  CYS622 
 ASP623  PHE694  ASN695  SER759  ASP760  ASP761  ALA762  ILE779  LEU786  VAL792 
 PHE793  MET794  SER795  GLU796  ALA797  LYS798  CYS799  TRP800  GLU811  SER814 

> <Gold.Protein.RotatedAtoms>
  150.7168  134.0682  159.3854 H   0  0  0  0  0  0  0  0  0  0  0  0  # atno 6907 bound_to 6896
  151.8664  135.0503  160.0484 H   0  0  0  0  0  0  0  0  0  0  0  0  # atno 6908 bound_to 6896
  152.2678  133.5319  159.5457 H   0  0  0  0  0  0  0  0  0  0  0  0  # atno 6909 bound_to 6896
  144.7684  140.4375  143.5925 H   0  0  0  0  0  0  0  0  0  0  0  0  # atno 7974 bound_to 7965
  155.9546  140.1133  157.0947 H   0  0  0  0  0  0  0  0  0  0  0  0  # atno 8008 bound_to 7997
  154.4117  140.1194  156.5165 H   0  0  0  0  0  0  0  0  0  0  0  0  # atno 8009 bound_to 7997
  155.6798  140.3473  155.4853 H   0  0  0  0  0  0  0  0  0  0  0  0  # atno 8010 bound_to 7997
  140.7274  143.4056  151.1191 H   0  0  0  0  0  0  0  0  0  0  0  0  # atno 10167 bound_to 10162
  157.6834  131.0720  150.5221 H   0  0  0  0  0  0  0  0  0  0  0  0  # atno 10718 bound_to 10713
  154.6039  135.5507  153.7403 H   0  0  0  0  0  0  0  0  0  0  0  0  # atno 10763 bound_to 10752
  153.0166  135.6373  154.1675 H   0  0  0  0  0  0  0  0  0  0  0  0  # atno 10764 bound_to 10752
  154.1614  135.2897  155.3087 H   0  0  0  0  0  0  0  0  0  0  0  0  # atno 10765 bound_to 10752
  140.7140  134.3801  157.5193 H   0  0  0  0  0  0  0  0  0  0  0  0  # atno 11005 bound_to 11000
  145.6397  139.1548  143.2922 LP  0  0  0  0  0  0  0  0  0  0  0  0  # atno 17320 bound_to 7965
  146.1812  140.6495  142.9188 LP  0  0  0  0  0  0  0  0  0  0  0  0  # atno 17321 bound_to 7965
  139.7682  143.8533  152.3115 LP  0  0  0  0  0  0  0  0  0  0  0  0  # atno 17342 bound_to 10162
  139.8443  144.7195  150.9292 LP  0  0  0  0  0  0  0  0  0  0  0  0  # atno 17343 bound_to 10162
  156.5534  130.4237  149.6097 LP  0  0  0  0  0  0  0  0  0  0  0  0  # atno 17370 bound_to 10713
  156.2883  130.7110  151.1952 LP  0  0  0  0  0  0  0  0  0  0  0  0  # atno 17371 bound_to 10713
  139.8864  134.8909  156.2585 LP  0  0  0  0  0  0  0  0  0  0  0  0  # atno 17394 bound_to 11000
  141.0060  133.7123  156.1036 LP  0  0  0  0  0  0  0  0  0  0  0  0  # atno 17395 bound_to 11000

$$$$
