AV-unprocessed.smi:1866|AV-procd|sdf|7556|dock1
  -GOLD-   22720 9273D 1   1.00000     0.00000
 Structure written by MMmdl.
 30 31  0  0  0  0  0  0  0  0  1 V2000
  154.3936  141.0776  160.3778 C   0  0  0  0  0  0  0  0  0  0  0  0
  153.2612  141.5849  159.5518 C   0  0  0  0  0  0  0  0  0  0  0  0
  152.8869  142.8702  159.5452 N   0  0  0  0  0  0  0  0  0  0  0  0
  151.8090  143.0998  158.7016 N   0  0  0  0  0  0  0  0  0  0  0  0
  151.4010  141.9767  158.0949 C   0  0  0  0  0  0  0  0  0  0  0  0
  150.3163  141.9234  157.1799 N   0  0  0  0  0  0  0  0  0  0  0  0
  150.2855  141.3675  155.9559 C   0  0  0  0  0  0  0  0  0  0  0  0
  151.2272  140.7900  155.4118 O   0  0  0  0  0  0  0  0  0  0  0  0
  149.0820  141.5200  155.3845 N   0  0  0  0  0  0  0  0  0  0  0  0
  148.6965  141.0085  154.0707 C   0  0  2  0  0  0  0  0  0  0  0  0
  147.3059  141.5297  153.6608 C   0  0  0  0  0  0  0  0  0  0  0  0
  146.8349  140.8355  152.3796 C   0  0  0  0  0  0  0  0  0  0  0  0
  146.7960  139.3114  152.5772 C   0  0  0  0  0  0  0  0  0  0  0  0
  147.9916  138.7828  153.2354 N   0  0  0  0  0  0  0  0  0  0  0  0
  148.8580  139.4798  153.9919 C   0  0  0  0  0  0  0  0  0  0  0  0
  149.7851  138.9242  154.5793 O   0  0  0  0  0  0  0  0  0  0  0  0
  152.3091  140.5332  158.5112 S   0  0  0  0  0  0  0  0  0  0  0  0
  154.9975  141.9050  160.7524 H   0  0  0  0  0  0  0  0  0  0  0  0
  155.0297  140.4251  159.7797 H   0  0  0  0  0  0  0  0  0  0  0  0
  154.0100  140.5117  161.2269 H   0  0  0  0  0  0  0  0  0  0  0  0
  149.4624  142.3587  157.4957 H   0  0  0  0  0  0  0  0  0  0  0  0
  148.3651  142.0028  155.9059 H   0  0  0  0  0  0  0  0  0  0  0  0
  149.4132  141.3895  153.3404 H   0  0  0  0  0  0  0  0  0  0  0  0
  146.5857  141.3466  154.4599 H   0  0  0  0  0  0  0  0  0  0  0  0
  147.3347  142.6092  153.5085 H   0  0  0  0  0  0  0  0  0  0  0  0
  145.8511  141.2025  152.0862 H   0  0  0  0  0  0  0  0  0  0  0  0
  147.5149  141.0826  151.5632 H   0  0  0  0  0  0  0  0  0  0  0  0
  145.9350  139.0443  153.1909 H   0  0  0  0  0  0  0  0  0  0  0  0
  146.6637  138.8105  151.6180 H   0  0  0  0  0  0  0  0  0  0  0  0
  148.1392  137.7863  153.1637 H   0  0  0  0  0  0  0  0  0  0  0  0
  1  2  1  0  0  0  0
  1 18  1  0  0  0  0
  1 19  1  0  0  0  0
  1 20  1  0  0  0  0
  2 17  1  0  0  0  0
  2  3  2  0  0  0  0
  3  4  1  0  0  0  0
  4  5  2  0  0  0  0
  5  6  1  0  0  0  0
  5 17  1  0  0  0  0
  6  7  1  0  0  0  0
  6 21  1  0  0  0  0
  7  8  2  0  0  0  0
  7  9  1  0  0  0  0
  9 10  1  0  0  0  0
  9 22  1  0  0  0  0
 10 15  1  0  0  0  0
 10 11  1  0  0  0  0
 10 23  1  0  0  0  0
 11 12  1  0  0  0  0
 11 24  1  0  0  0  0
 11 25  1  0  0  0  0
 12 13  1  0  0  0  0
 12 26  1  0  0  0  0
 12 27  1  0  0  0  0
 13 14  1  0  0  0  0
 13 28  1  0  0  0  0
 13 29  1  0  0  0  0
 14 15  1  0  0  0  0
 14 30  1  0  0  0  0
 15 16  2  0  0  0  0
M  END
> <s_m_source_file>
AV-unprocessed.smi

> <i_m_source_file_index>
1866

> <i_lp_mmshare_version>
43012

> <i_f3d_flags>
0

> <s_epik_input>
W0NIM11jMW5uYyhzMSlbTkhdQyg9TylbTkhdW0NAQEhdMltDSDJdW0NIMl1bQ0gyXVtOSF1DMj1P

> <s_epik_cmdline>
J2VwaWtfcHl0aG9uJywgJy1waCcsICc3LjAnLCAnLXRuJywgJzgnLCAnLW1hJywgJzIwMCcsICctbWV0YWxfYmluZGluZycsICctaW1hZScsICc8aW5maWxlLm1hZT4nLCAnLW9tYWUnLCAnPG91dGZpbGUubWFlPic=

> <r_lp_tautomer_probability>
1

> <r_epik_Ionization_Penalty>
0.00093002

> <r_epik_Ionization_Penalty_Charging>
0

> <r_epik_Ionization_Penalty_Neutral>
0.00093002

> <r_epik_State_Penalty>
-0

> <r_epik_Charging_Adjusted_Penalty>
0

> <i_epik_Tot_Q>
0

> <i_epik_Tot_abs_Q>
0

> <r_epik_Metal_State_Penalty>
0.280775

> <b_epik_Metal_Only>
0

> <s_lp_Force_Field>
OPLS_2005

> <r_lp_Energy>
8.18213

> <b_lp_Chiralities_Consistent>
1

> <s_lp_Variant>
AV-unprocessed.smi:1866-1

> <Gold.Version>
5.8.1

> <Gold.Id.Protein>
6NUR|6NUR_protein|mol2

> <Gold.PLP.Fitness>
33.3580

> <Gold.PLP.PLP>
-29.0810

> <Gold.PLP.part.hbond>
-3.0000

> <Gold.PLP.part.metal>
0.0000

> <Gold.PLP.part.buried>
-0.7007

> <Gold.PLP.part.nonpolar>
-24.6861

> <Gold.PLP.part.repulsive>
0.3956

> <Gold.PLP.ligand.clash>
0.0000

> <Gold.PLP.ligand.torsion>
0.4658

> <Gold.PLP.Chemscore.Hbond>
1.7216

> <Gold.PLP.Chemscore.CHOScore>
0.0000

> <Gold.PLP.Chemscore.Metal>
0.0000

> <Gold.Chemscore.Hbonds>
donor molecule, donor type, donor heavy atom, donor atom, acceptor molecule, acceptor atom, score
      L1  H    14    30       P1  7948  0.54
      P1  H  7989  7998       L1     8  0.75

> <Gold.PLP.Chemscore.Internal.Correction>
0.0439

> <Gold.Rescore>
     Score         DG    S(hbond)    S(metal)    S(lipo)     H(rot)  DE(clash)    DE(int)     intcor
     10.80     -15.30       1.54        0.00      61.79       1.00       1.37       3.13       ----

> <Gold.Chemscore.Fitness>
10.7953

> <Gold.Chemscore.DG>
-15.3013

> <Gold.Chemscore.ZeroCoef>
-5.4800

> <Gold.Chemscore.Hbond>
1.5424

> <Gold.Chemscore.Metal>
0.0000

> <Gold.Chemscore.Lipo>
61.7932

> <Gold.Chemscore.Internal_Hbond>
0.0000

> <Gold.Chemscore.DEClash>
1.3718

> <Gold.Chemscore.DEInternal>
3.1341

> <Gold.Chemscore.Rot>
1.0000

> <Gold.Chemscore.Internal.Correction>
   9.000000E+99

> <Gold.Chemscore.Hbonds>
donor molecule, donor type, donor heavy atom, donor atom, acceptor molecule, acceptor atom, score
      L1  H    14    30       P1  7948  0.54
      P1  H  7989  7998       L1     8  0.75

> <Gold.Chemscore.Hbond.Weighted>
-5.1515

> <Gold.Chemscore.Metal.Weighted>
-0.0000

> <Gold.Chemscore.Lipo.Weighted>
-7.2298

> <Gold.Chemscore.Internal_Hbond.Weighted>
0.0000

> <Gold.Chemscore.DEClash.Weighted>
1.3718

> <Gold.Chemscore.DEInternal.Weighted>
3.1341

> <Gold.Chemscore.Rot.Weighted>
2.5600

> <Gold.Chemscore.Internal.Correction.Weighted>
   9.000000E+99

> <Gold.Protein.RotatedTorsions>
[ 6907 6896 6895 6894 ] final -138.54 input  -60.11 | X-H torsion
[ 7974 7965 7964 7962 ] final -140.01 input  175.53 | X-H torsion
[ 8008 7997 7996 7995 ] final  148.40 input   59.86 | X-H torsion
[ 10167 10162 10161 10158 ] final  -79.46 input  -65.29 | X-H torsion
[ 10718 10713 10712 10709 ] final -170.15 input   66.30 | X-H torsion
[ 10763 10752 10751 10750 ] final  119.54 input  -60.55 | X-H torsion
[ 11005 11000 10999 10996 ] final   35.61 input  -57.11 | X-H torsion

> <Gold.Protein.ActiveResidues>
 VAL166  LYS551  ARG553  GLY616  TRP617  ASP618  TYR619  PRO620  LYS621  CYS622 
 ASP623  PHE694  ASN695  SER759  ASP760  ASP761  ALA762  ILE779  LEU786  VAL792 
 PHE793  MET794  SER795  GLU796  ALA797  LYS798  CYS799  TRP800  GLU811  SER814 

> <Gold.Protein.RotatedAtoms>
  151.0363  133.5746  159.2655 H   0  0  0  0  0  0  0  0  0  0  0  0  # atno 6907 bound_to 6896
  151.2809  135.0712  159.9178 H   0  0  0  0  0  0  0  0  0  0  0  0  # atno 6908 bound_to 6896
  152.5355  134.0077  159.7978 H   0  0  0  0  0  0  0  0  0  0  0  0  # atno 6909 bound_to 6896
  144.8631  140.6251  143.5315 H   0  0  0  0  0  0  0  0  0  0  0  0  # atno 7974 bound_to 7965
  156.2792  140.2129  156.5693 H   0  0  0  0  0  0  0  0  0  0  0  0  # atno 8008 bound_to 7997
  154.7149  140.0508  157.0608 H   0  0  0  0  0  0  0  0  0  0  0  0  # atno 8009 bound_to 7997
  155.0556  140.3161  155.4680 H   0  0  0  0  0  0  0  0  0  0  0  0  # atno 8010 bound_to 7997
  140.4591  143.2459  151.8375 H   0  0  0  0  0  0  0  0  0  0  0  0  # atno 10167 bound_to 10162
  156.7220  130.9273  151.3098 H   0  0  0  0  0  0  0  0  0  0  0  0  # atno 10718 bound_to 10713
  153.5846  135.3477  155.2888 H   0  0  0  0  0  0  0  0  0  0  0  0  # atno 10763 bound_to 10752
  154.8662  135.4190  154.2583 H   0  0  0  0  0  0  0  0  0  0  0  0  # atno 10764 bound_to 10752
  153.3377  135.7048  153.6964 H   0  0  0  0  0  0  0  0  0  0  0  0  # atno 10765 bound_to 10752
  140.2409  134.3416  155.7926 H   0  0  0  0  0  0  0  0  0  0  0  0  # atno 11005 bound_to 11000
  145.4273  139.1554  143.4041 LP  0  0  0  0  0  0  0  0  0  0  0  0  # atno 17320 bound_to 7965
  146.2875  140.4387  142.8752 LP  0  0  0  0  0  0  0  0  0  0  0  0  # atno 17321 bound_to 7965
  139.4804  144.5029  151.9037 LP  0  0  0  0  0  0  0  0  0  0  0  0  # atno 17342 bound_to 10162
  140.4115  144.2363  150.5889 LP  0  0  0  0  0  0  0  0  0  0  0  0  # atno 17343 bound_to 10162
  157.6894  130.9218  150.0473 LP  0  0  0  0  0  0  0  0  0  0  0  0  # atno 17370 bound_to 10713
  156.1588  130.3643  149.9329 LP  0  0  0  0  0  0  0  0  0  0  0  0  # atno 17371 bound_to 10713
  141.2210  133.7298  156.8884 LP  0  0  0  0  0  0  0  0  0  0  0  0  # atno 17394 bound_to 11000
  140.1654  134.9137  157.2767 LP  0  0  0  0  0  0  0  0  0  0  0  0  # atno 17395 bound_to 11000

$$$$
