AV-unprocessed.smi:1586|AV-procd|sdf|6379|dock3
  -GOLD-   22720 7 13D 1   1.00000     0.00000
 Structure written by MMmdl.
 46 47  0  0  0  0  0  0  0  0  3 V2000
  145.5253  128.8795  151.9409 C   0  0  0  0  0  0  0  0  0  0  0  0
  146.8787  129.0584  152.6431 C   0  0  0  0  0  0  0  0  0  0  0  0
  147.3801  130.4533  152.5718 N   0  3  0  0  0  0  0  0  0  0  0  0
  148.4419  130.7200  153.5730 C   0  0  0  0  0  0  0  0  0  0  0  0
  148.9555  132.1701  153.4481 C   0  0  0  0  0  0  0  0  0  0  0  0
  147.8781  133.1497  153.6501 N   0  0  0  0  0  0  0  0  0  0  0  0
  147.3105  133.2051  155.0178 C   0  0  2  0  0  0  0  0  0  0  0  0
  146.4291  134.4663  155.1876 C   0  0  0  0  0  0  0  0  0  0  0  0
  148.4291  133.1664  156.0945 C   0  0  0  0  0  0  0  0  0  0  0  0
  147.9066  133.3421  157.4475 N   0  0  0  0  0  0  0  0  0  0  0  0
  148.4281  134.1117  158.4138 C   0  0  0  0  0  0  0  0  0  0  0  0
  149.4529  134.7631  158.2001 O   0  0  0  0  0  0  0  0  0  0  0  0
  147.7179  134.0865  159.5647 N   0  5  0  0  0  0  0  0  0  0  0  0
  147.6815  135.1662  160.3607 C   0  0  0  0  0  0  0  0  0  0  0  0
  147.3703  135.1694  161.7479 C   0  0  0  0  0  0  0  0  0  0  0  0
  147.4873  136.4862  162.0912 C   0  0  0  0  0  0  0  0  0  0  0  0
  147.3030  137.2160  163.3779 C   0  0  0  0  0  0  0  0  0  0  0  0
  147.8485  137.2260  161.0085 O   0  0  0  0  0  0  0  0  0  0  0  0
  147.9767  136.3724  159.9060 N   0  0  0  0  0  0  0  0  0  0  0  0
  146.9049  132.8985  152.5769 C   0  0  0  0  0  0  0  0  0  0  0  0
  146.3077  131.4772  152.6622 C   0  0  0  0  0  0  0  0  0  0  0  0
  145.2357  127.8285  151.9313 H   0  0  0  0  0  0  0  0  0  0  0  0
  145.5703  129.2181  150.9055 H   0  0  0  0  0  0  0  0  0  0  0  0
  144.7284  129.4279  152.4422 H   0  0  0  0  0  0  0  0  0  0  0  0
  146.8177  128.7355  153.6835 H   0  0  0  0  0  0  0  0  0  0  0  0
  147.5978  128.3983  152.1563 H   0  0  0  0  0  0  0  0  0  0  0  0
  148.0751  130.5153  154.5796 H   0  0  0  0  0  0  0  0  0  0  0  0
  149.2725  130.0344  153.4021 H   0  0  0  0  0  0  0  0  0  0  0  0
  149.7895  132.3452  154.1246 H   0  0  0  0  0  0  0  0  0  0  0  0
  149.3759  132.3162  152.4519 H   0  0  0  0  0  0  0  0  0  0  0  0
  146.6727  132.3378  155.1815 H   0  0  0  0  0  0  0  0  0  0  0  0
  146.0426  134.5570  156.2017 H   0  0  0  0  0  0  0  0  0  0  0  0
  145.5454  134.4479  154.5520 H   0  0  0  0  0  0  0  0  0  0  0  0
  146.9900  135.3758  154.9693 H   0  0  0  0  0  0  0  0  0  0  0  0
  148.9176  132.1947  156.1223 H   0  0  0  0  0  0  0  0  0  0  0  0
  149.2076  133.8962  155.8658 H   0  0  0  0  0  0  0  0  0  0  0  0
  147.0673  132.8307  157.6773 H   0  0  0  0  0  0  0  0  0  0  0  0
  147.1022  134.3399  162.3848 H   0  0  0  0  0  0  0  0  0  0  0  0
  148.0725  136.9309  164.0953 H   0  0  0  0  0  0  0  0  0  0  0  0
  146.3313  136.9863  163.8149 H   0  0  0  0  0  0  0  0  0  0  0  0
  147.3605  138.2948  163.2309 H   0  0  0  0  0  0  0  0  0  0  0  0
  146.1161  133.6482  152.5695 H   0  0  0  0  0  0  0  0  0  0  0  0
  147.4074  133.0186  151.6161 H   0  0  0  0  0  0  0  0  0  0  0  0
  145.6063  131.3481  151.8386 H   0  0  0  0  0  0  0  0  0  0  0  0
  145.7325  131.3457  153.5793 H   0  0  0  0  0  0  0  0  0  0  0  0
  147.8147  130.5641  151.6670 H   0  0  0  0  0  0  0  0  0  0  0  0
  1  2  1  0  0  0  0
  1 22  1  0  0  0  0
  1 23  1  0  0  0  0
  1 24  1  0  0  0  0
  2  3  1  0  0  0  0
  2 25  1  0  0  0  0
  2 26  1  0  0  0  0
  3 21  1  0  0  0  0
  3  4  1  0  0  0  0
  3 46  1  0  0  0  0
  4  5  1  0  0  0  0
  4 27  1  0  0  0  0
  4 28  1  0  0  0  0
  5  6  1  0  0  0  0
  5 29  1  0  0  0  0
  5 30  1  0  0  0  0
  6  7  1  0  0  0  0
  6 20  1  0  0  0  0
  7  8  1  0  0  0  0
  7  9  1  0  0  0  0
  7 31  1  0  0  0  0
  8 32  1  0  0  0  0
  8 33  1  0  0  0  0
  8 34  1  0  0  0  0
  9 10  1  0  0  0  0
  9 35  1  0  0  0  0
  9 36  1  0  0  0  0
 10 11  1  0  0  0  0
 10 37  1  0  0  0  0
 11 12  2  0  0  0  0
 11 13  1  0  0  0  0
 13 14  1  0  0  0  0
 14 19  2  0  0  0  0
 14 15  1  0  0  0  0
 15 16  2  0  0  0  0
 15 38  1  0  0  0  0
 16 17  1  0  0  0  0
 16 18  1  0  0  0  0
 17 39  1  0  0  0  0
 17 40  1  0  0  0  0
 17 41  1  0  0  0  0
 18 19  1  0  0  0  0
 20 21  1  0  0  0  0
 20 42  1  0  0  0  0
 20 43  1  0  0  0  0
 21 44  1  0  0  0  0
 21 45  1  0  0  0  0
M  CHG  1   3   1
M  CHG  1  13  -1
M  END
> <s_m_source_file>
AV-unprocessed.smi

> <i_m_source_file_index>
1586

> <i_lp_mmshare_version>
43012

> <i_f3d_flags>
0

> <s_epik_input>
W0NIM11bQ0gyXU4xW0NIMl1bQ0gyXU4oW0NIMl1bQ0gyXTEpW0NASF0oW0NIM10pW0NIMl1bTkhdQyg9TylbTkhdYzJbY0hdYyhbQ0gzXSlvbjI=

> <s_epik_cmdline>
J2VwaWtfcHl0aG9uJywgJy1waCcsICc3LjAnLCAnLXRuJywgJzgnLCAnLW1hJywgJzIwMCcsICctbWV0YWxfYmluZGluZycsICctaW1hZScsICc8aW5maWxlLm1hZT4nLCAnLW9tYWUnLCAnPG91dGZpbGUubWFlPic=

> <r_epik_Ionization_Penalty>
6.66134

> <r_epik_Ionization_Penalty_Charging>
6.66063

> <r_epik_Ionization_Penalty_Neutral>
0.000714131

> <r_epik_State_Penalty>
6.77843

> <r_epik_Charging_Adjusted_Penalty>
13.4391

> <i_epik_Tot_Q>
0

> <i_epik_Tot_abs_Q>
2

> <r_epik_Metal_State_Penalty>
2.70494

> <b_epik_Metal_Only>
1

> <s_lp_Force_Field>
OPLS_2005

> <r_lp_Energy>
11.4851

> <b_lp_Chiralities_Consistent>
1

> <s_lp_Variant>
AV-unprocessed.smi:1586-7

> <Gold.Version>
5.8.1

> <Gold.Id.Protein>
6NUR|6NUR_protein|mol2

> <Gold.PLP.Fitness>
41.5674

> <Gold.PLP.PLP>
-31.5622

> <Gold.PLP.part.hbond>
-4.0000

> <Gold.PLP.part.metal>
0.0000

> <Gold.PLP.part.buried>
-5.3798

> <Gold.PLP.part.nonpolar>
-23.0952

> <Gold.PLP.part.repulsive>
0.1473

> <Gold.PLP.ligand.clash>
0.0000

> <Gold.PLP.ligand.torsion>
0.7848

> <Gold.PLP.Chemscore.Hbond>
3.8080

> <Gold.PLP.Chemscore.CHOScore>
0.0000

> <Gold.PLP.Chemscore.Metal>
0.0000

> <Gold.Chemscore.Hbonds>
donor molecule, donor type, donor heavy atom, donor atom, acceptor molecule, acceptor atom, score
      L1  H     3    46       P1 10747  1.00
      P1  H  6896  6907       L1    12  1.00
      P1  H  6931  6943       L1    18  0.68
      P1  H  6934  6947       L1    18  0.80

> <Gold.PLP.Chemscore.Internal.Correction>
0.1509

> <Gold.Rescore>
     Score         DG    S(hbond)    S(metal)    S(lipo)     H(rot)  DE(clash)    DE(int)     intcor
     17.96     -21.48       3.48        0.00      75.21       1.73       1.33       2.19       ----

> <Gold.Chemscore.Fitness>
17.9598

> <Gold.Chemscore.DG>
-21.4787

> <Gold.Chemscore.ZeroCoef>
-5.4800

> <Gold.Chemscore.Hbond>
3.4777

> <Gold.Chemscore.Metal>
0.0000

> <Gold.Chemscore.Lipo>
75.2071

> <Gold.Chemscore.Internal_Hbond>
0.0000

> <Gold.Chemscore.DEClash>
1.3289

> <Gold.Chemscore.DEInternal>
2.1899

> <Gold.Chemscore.Rot>
1.7250

> <Gold.Chemscore.Internal.Correction>
   9.000000E+99

> <Gold.Chemscore.Hbonds>
donor molecule, donor type, donor heavy atom, donor atom, acceptor molecule, acceptor atom, score
      L1  H     3    46       P1 10747  1.00
      P1  H  6896  6907       L1    12  0.74
      P1  H  6931  6943       L1    18  0.08
      P1  H  6934  6947       L1    18  0.75

> <Gold.Chemscore.Hbond.Weighted>
-11.6155

> <Gold.Chemscore.Metal.Weighted>
-0.0000

> <Gold.Chemscore.Lipo.Weighted>
-8.7992

> <Gold.Chemscore.Internal_Hbond.Weighted>
0.0000

> <Gold.Chemscore.DEClash.Weighted>
1.3289

> <Gold.Chemscore.DEInternal.Weighted>
2.1899

> <Gold.Chemscore.Rot.Weighted>
4.4161

> <Gold.Chemscore.Internal.Correction.Weighted>
   9.000000E+99

> <Gold.Protein.RotatedTorsions>
[ 6907 6896 6895 6894 ] final  -78.98 input  -60.11 | X-H torsion
[ 7974 7965 7964 7962 ] final    5.37 input  175.53 | X-H torsion
[ 8008 7997 7996 7995 ] final  -18.15 input   59.86 | X-H torsion
[ 10167 10162 10161 10158 ] final  -41.11 input  -65.29 | X-H torsion
[ 10718 10713 10712 10709 ] final  -93.97 input   66.30 | X-H torsion
[ 10763 10752 10751 10750 ] final   88.20 input  -60.55 | X-H torsion
[ 11005 11000 10999 10996 ] final  127.70 input  -57.11 | X-H torsion

> <Gold.Protein.ActiveResidues>
 VAL166  LYS551  ARG553  GLY616  TRP617  ASP618  TYR619  PRO620  LYS621  CYS622 
 ASP623  PHE694  ASN695  SER759  ASP760  ASP761  ALA762  ILE779  LEU786  VAL792 
 PHE793  MET794  SER795  GLU796  ALA797  LYS798  CYS799  TRP800  GLU811  SER814 

> <Gold.Protein.RotatedAtoms>
  150.6960  134.4191  159.5196 H   0  0  0  0  0  0  0  0  0  0  0  0  # atno 6907 bound_to 6896
  152.1937  134.8647  160.0524 H   0  0  0  0  0  0  0  0  0  0  0  0  # atno 6908 bound_to 6896
  151.9593  133.3655  159.4066 H   0  0  0  0  0  0  0  0  0  0  0  0  # atno 6909 bound_to 6896
  146.2441  140.0394  142.8383 H   0  0  0  0  0  0  0  0  0  0  0  0  # atno 7974 bound_to 7965
  154.4927  140.2123  155.9514 H   0  0  0  0  0  0  0  0  0  0  0  0  # atno 8008 bound_to 7997
  156.1327  140.3194  155.8342 H   0  0  0  0  0  0  0  0  0  0  0  0  # atno 8009 bound_to 7997
  155.4267  140.0500  157.3012 H   0  0  0  0  0  0  0  0  0  0  0  0  # atno 8010 bound_to 7997
  140.7013  143.3114  151.3019 H   0  0  0  0  0  0  0  0  0  0  0  0  # atno 10167 bound_to 10162
  156.0020  130.5049  150.5857 H   0  0  0  0  0  0  0  0  0  0  0  0  # atno 10718 bound_to 10713
  153.1745  135.4515  154.9947 H   0  0  0  0  0  0  0  0  0  0  0  0  # atno 10763 bound_to 10752
  154.7989  135.3248  154.7602 H   0  0  0  0  0  0  0  0  0  0  0  0  # atno 10764 bound_to 10752
  153.8074  135.6957  153.4901 H   0  0  0  0  0  0  0  0  0  0  0  0  # atno 10765 bound_to 10752
  139.9521  134.9620  156.8893 H   0  0  0  0  0  0  0  0  0  0  0  0  # atno 11005 bound_to 11000
  145.1083  140.9389  143.4672 LP  0  0  0  0  0  0  0  0  0  0  0  0  # atno 17320 bound_to 7965
  145.0602  139.3111  143.5884 LP  0  0  0  0  0  0  0  0  0  0  0  0  # atno 17321 bound_to 7965
  139.6538  144.0314  152.2645 LP  0  0  0  0  0  0  0  0  0  0  0  0  # atno 17342 bound_to 10162
  139.9859  144.6396  150.7858 LP  0  0  0  0  0  0  0  0  0  0  0  0  # atno 17343 bound_to 10162
  157.3730  131.0768  151.1542 LP  0  0  0  0  0  0  0  0  0  0  0  0  # atno 17370 bound_to 10713
  157.2289  130.6516  149.5841 LP  0  0  0  0  0  0  0  0  0  0  0  0  # atno 17371 bound_to 10713
  140.5694  134.0458  155.7425 LP  0  0  0  0  0  0  0  0  0  0  0  0  # atno 17394 bound_to 11000
  141.1186  133.9499  157.2774 LP  0  0  0  0  0  0  0  0  0  0  0  0  # atno 17395 bound_to 11000

$$$$
