AV-unprocessed.smi:668|AV-procd|sdf|3262|dock8
  -GOLD-   22720 0213D 1   1.00000     0.00000
 Structure written by MMmdl.
 38 39  0  0  0  0  0  0  0  0  1 V2000
  150.3868  142.3420  157.1529 C   0  0  0  0  0  0  0  0  0  0  0  0
  150.9492  141.5769  156.0925 O   0  0  0  0  0  0  0  0  0  0  0  0
  150.1447  140.6593  155.4485 C   0  0  0  0  0  0  0  0  0  0  0  0
  148.7492  140.7467  155.6226 C   0  0  0  0  0  0  0  0  0  0  0  0
  147.9209  139.8127  154.9711 C   0  0  0  0  0  0  0  0  0  0  0  0
  148.5182  138.8115  154.1681 C   0  0  0  0  0  0  0  0  0  0  0  0
  147.7962  137.8218  153.4470 N   0  0  0  0  0  0  0  0  0  0  0  0
  146.4671  137.6978  153.2902 C   0  0  0  0  0  0  0  0  0  0  0  0
  145.6183  138.4416  153.7809 O   0  0  0  0  0  0  0  0  0  0  0  0
  146.1674  136.6308  152.5360 N   0  0  0  0  0  0  0  0  0  0  0  0
  144.8168  136.2027  152.1745 C   0  0  1  0  0  0  0  0  0  0  0  0
  144.7916  135.6422  150.7424 C   0  0  0  0  0  0  0  0  0  0  0  0
  144.6702  134.1278  150.8918 C   0  0  0  0  0  0  0  0  0  0  0  0
  143.8356  133.9447  152.1555 C   0  0  0  0  0  0  0  0  0  0  0  0
  144.3010  135.0669  153.1000 C   0  0  2  0  0  0  0  0  0  0  0  0
  143.1937  135.5343  154.0576 C   0  0  0  0  0  0  0  0  0  0  0  0
  142.6366  134.6075  154.8410 N   0  0  0  0  0  0  0  0  0  0  0  0
  142.8467  136.7135  154.0933 O   0  0  0  0  0  0  0  0  0  0  0  0
  149.9232  138.8203  154.0475 C   0  0  0  0  0  0  0  0  0  0  0  0
  150.7229  139.7116  154.6699 N   0  0  0  0  0  0  0  0  0  0  0  0
  151.1441  143.0166  157.5516 H   0  0  0  0  0  0  0  0  0  0  0  0
  150.0491  141.7038  157.9709 H   0  0  0  0  0  0  0  0  0  0  0  0
  149.5513  142.9516  156.8052 H   0  0  0  0  0  0  0  0  0  0  0  0
  148.3203  141.5197  156.2429 H   0  0  0  0  0  0  0  0  0  0  0  0
  146.8522  139.8940  155.0915 H   0  0  0  0  0  0  0  0  0  0  0  0
  148.3595  137.0882  153.0422 H   0  0  0  0  0  0  0  0  0  0  0  0
  146.9293  136.0726  152.1795 H   0  0  0  0  0  0  0  0  0  0  0  0
  144.1651  137.0789  152.2056 H   0  0  0  0  0  0  0  0  0  0  0  0
  143.9082  136.0204  150.2259 H   0  0  0  0  0  0  0  0  0  0  0  0
  145.6586  135.9312  150.1464 H   0  0  0  0  0  0  0  0  0  0  0  0
  144.2207  133.6537  150.0186 H   0  0  0  0  0  0  0  0  0  0  0  0
  145.6593  133.6916  151.0377 H   0  0  0  0  0  0  0  0  0  0  0  0
  142.7781  134.0457  151.9056 H   0  0  0  0  0  0  0  0  0  0  0  0
  143.9750  132.9553  152.5921 H   0  0  0  0  0  0  0  0  0  0  0  0
  145.1347  134.6739  153.6859 H   0  0  0  0  0  0  0  0  0  0  0  0
  141.8952  134.8627  155.4769 H   0  0  0  0  0  0  0  0  0  0  0  0
  142.9508  133.6497  154.7835 H   0  0  0  0  0  0  0  0  0  0  0  0
  150.4251  138.0858  153.4347 H   0  0  0  0  0  0  0  0  0  0  0  0
  1  2  1  0  0  0  0
  1 21  1  0  0  0  0
  1 22  1  0  0  0  0
  1 23  1  0  0  0  0
  2  3  1  0  0  0  0
  3 20  1  0  0  0  0
  3  4  2  0  0  0  0
  4  5  1  0  0  0  0
  4 24  1  0  0  0  0
  5  6  2  0  0  0  0
  5 25  1  0  0  0  0
  6  7  1  0  0  0  0
  6 19  1  0  0  0  0
  7  8  1  0  0  0  0
  7 26  1  0  0  0  0
  8  9  2  0  0  0  0
  8 10  1  0  0  0  0
 10 11  1  0  0  0  0
 10 27  1  0  0  0  0
 11 15  1  0  0  0  0
 11 12  1  0  0  0  0
 11 28  1  0  0  0  0
 12 13  1  0  0  0  0
 12 29  1  0  0  0  0
 12 30  1  0  0  0  0
 13 14  1  0  0  0  0
 13 31  1  0  0  0  0
 13 32  1  0  0  0  0
 14 15  1  0  0  0  0
 14 33  1  0  0  0  0
 14 34  1  0  0  0  0
 15 16  1  0  0  0  0
 15 35  1  0  0  0  0
 16 17  1  0  0  0  0
 16 18  2  0  0  0  0
 17 36  1  0  0  0  0
 17 37  1  0  0  0  0
 19 20  2  0  0  0  0
 19 38  1  0  0  0  0
M  END
> <s_m_source_file>
AV-unprocessed.smi

> <i_m_source_file_index>
668

> <i_lp_mmshare_version>
43012

> <i_f3d_flags>
0

> <s_epik_input>
W0NIM11PYzFbY0hdW2NIXWMoW2NIXW4xKVtOSF1DKD1PKVtOSF1bQ0BASF0yW0NIMl1bQ0gyXVtDSDJdW0NASF0yQyg9TylbTkgyXQ==

> <s_epik_cmdline>
J2VwaWtfcHl0aG9uJywgJy1waCcsICc3LjAnLCAnLXRuJywgJzgnLCAnLW1hJywgJzIwMCcsICctbWV0YWxfYmluZGluZycsICctaW1hZScsICc8aW5maWxlLm1hZT4nLCAnLW9tYWUnLCAnPG91dGZpbGUubWFlPic=

> <r_lp_tautomer_probability>
1

> <r_epik_Ionization_Penalty>
9.0916e-05

> <r_epik_Ionization_Penalty_Charging>
0

> <r_epik_Ionization_Penalty_Neutral>
9.0916e-05

> <r_epik_State_Penalty>
-0

> <r_epik_Charging_Adjusted_Penalty>
0

> <i_epik_Tot_Q>
0

> <i_epik_Tot_abs_Q>
0

> <r_epik_Metal_State_Penalty>
-0

> <b_epik_Metal_Only>
0

> <s_lp_Force_Field>
OPLS_2005

> <r_lp_Energy>
17.404

> <b_lp_Chiralities_Consistent>
1

> <s_lp_Variant>
AV-unprocessed.smi:668-4

> <Gold.Version>
5.8.1

> <Gold.Id.Protein>
6NUR|6NUR_protein|mol2

> <Gold.PLP.Fitness>
41.2708

> <Gold.PLP.PLP>
-27.5390

> <Gold.PLP.part.hbond>
-4.9589

> <Gold.PLP.part.metal>
0.0000

> <Gold.PLP.part.buried>
-4.9968

> <Gold.PLP.part.nonpolar>
-19.0800

> <Gold.PLP.part.repulsive>
0.4328

> <Gold.PLP.ligand.clash>
0.0000

> <Gold.PLP.ligand.torsion>
0.5591

> <Gold.PLP.Chemscore.Hbond>
4.6724

> <Gold.PLP.Chemscore.CHOScore>
0.2765

> <Gold.PLP.Chemscore.Metal>
0.0000

> <Gold.Chemscore.Hbonds>
donor molecule, donor type, donor heavy atom, donor atom, acceptor molecule, acceptor atom, score
      L1  H     7    26       P1  7948  1.00
      L1  H    10    27       P1  7948  0.79
      L1  H    17    36       P1 11000  0.80
      L1  H    17    37       P1 10957  1.00
      P1  H  7989  7998       L1    20  0.90
      L1  C    19    38       P1  7948  0.27

> <Gold.PLP.Chemscore.Internal.Correction>
0.0031

> <Gold.Rescore>
     Score         DG    S(hbond)    S(metal)    S(lipo)     H(rot)  DE(clash)    DE(int)     intcor
     17.97     -20.38       4.20        0.00      48.27       1.86       0.63       1.78       ----

> <Gold.Chemscore.Fitness>
17.9729

> <Gold.Chemscore.DG>
-20.3848

> <Gold.Chemscore.ZeroCoef>
-5.4800

> <Gold.Chemscore.Hbond>
4.2010

> <Gold.Chemscore.Metal>
0.0000

> <Gold.Chemscore.Lipo>
48.2676

> <Gold.Chemscore.Internal_Hbond>
0.0000

> <Gold.Chemscore.DEClash>
0.6318

> <Gold.Chemscore.DEInternal>
1.7801

> <Gold.Chemscore.Rot>
1.8648

> <Gold.Chemscore.Internal.Correction>
   9.000000E+99

> <Gold.Chemscore.Hbonds>
donor molecule, donor type, donor heavy atom, donor atom, acceptor molecule, acceptor atom, score
      L1  H     7    26       P1  7948  0.95
      L1  H    10    27       P1  7948  0.73
      L1  H    17    36       P1 11000  0.19
      L1  H    17    37       P1 10957  0.96
      P1  H  7989  7998       L1    20  0.16

> <Gold.Chemscore.Hbond.Weighted>
-14.0314

> <Gold.Chemscore.Metal.Weighted>
-0.0000

> <Gold.Chemscore.Lipo.Weighted>
-5.6473

> <Gold.Chemscore.Internal_Hbond.Weighted>
0.0000

> <Gold.Chemscore.DEClash.Weighted>
0.6318

> <Gold.Chemscore.DEInternal.Weighted>
1.7801

> <Gold.Chemscore.Rot.Weighted>
4.7739

> <Gold.Chemscore.Internal.Correction.Weighted>
   9.000000E+99

> <Gold.Protein.RotatedTorsions>
[ 6907 6896 6895 6894 ] final   98.76 input  -60.11 | X-H torsion
[ 7974 7965 7964 7962 ] final -139.83 input  175.53 | X-H torsion
[ 8008 7997 7996 7995 ] final   -2.40 input   59.86 | X-H torsion
[ 10167 10162 10161 10158 ] final   56.63 input  -65.29 | X-H torsion
[ 10718 10713 10712 10709 ] final -167.27 input   66.30 | X-H torsion
[ 10763 10752 10751 10750 ] final  146.46 input  -60.55 | X-H torsion
[ 11005 11000 10999 10996 ] final  169.13 input  -57.11 | X-H torsion

> <Gold.Protein.ActiveResidues>
 VAL166  LYS551  ARG553  GLY616  TRP617  ASP618  TYR619  PRO620  LYS621  CYS622 
 ASP623  PHE694  ASN695  SER759  ASP760  ASP761  ALA762  ILE779  LEU786  VAL792 
 PHE793  MET794  SER795  GLU796  ALA797  LYS798  CYS799  TRP800  GLU811  SER814 

> <Gold.Protein.RotatedAtoms>
  152.5404  134.0531  159.8118 H   0  0  0  0  0  0  0  0  0  0  0  0  # atno 6907 bound_to 6896
  151.0670  133.5490  159.2637 H   0  0  0  0  0  0  0  0  0  0  0  0  # atno 6908 bound_to 6896
  151.2367  135.0582  159.9063 H   0  0  0  0  0  0  0  0  0  0  0  0  # atno 6909 bound_to 6896
  144.8645  140.6272  143.5306 H   0  0  0  0  0  0  0  0  0  0  0  0  # atno 7974 bound_to 7965
  154.6361  140.2535  155.7376 H   0  0  0  0  0  0  0  0  0  0  0  0  # atno 8008 bound_to 7997
  156.2505  140.2897  156.0655 H   0  0  0  0  0  0  0  0  0  0  0  0  # atno 8009 bound_to 7997
  155.1668  140.0385  157.2845 H   0  0  0  0  0  0  0  0  0  0  0  0  # atno 8010 bound_to 7997
  140.2067  144.3932  150.6506 H   0  0  0  0  0  0  0  0  0  0  0  0  # atno 10167 bound_to 10162
  156.6800  130.9118  151.3055 H   0  0  0  0  0  0  0  0  0  0  0  0  # atno 10718 bound_to 10713
  154.0222  135.2905  155.3379 H   0  0  0  0  0  0  0  0  0  0  0  0  # atno 10763 bound_to 10752
  154.7039  135.5177  153.8570 H   0  0  0  0  0  0  0  0  0  0  0  0  # atno 10764 bound_to 10752
  153.0676  135.6636  154.0443 H   0  0  0  0  0  0  0  0  0  0  0  0  # atno 10765 bound_to 10752
  140.2945  134.7646  157.3866 H   0  0  0  0  0  0  0  0  0  0  0  0  # atno 11005 bound_to 11000
  145.4247  139.1558  143.4054 LP  0  0  0  0  0  0  0  0  0  0  0  0  # atno 17320 bound_to 7965
  146.2885  140.4360  142.8748 LP  0  0  0  0  0  0  0  0  0  0  0  0  # atno 17321 bound_to 7965
  140.6352  143.2194  151.6409 LP  0  0  0  0  0  0  0  0  0  0  0  0  # atno 17342 bound_to 10162
  139.5196  144.3249  152.0878 LP  0  0  0  0  0  0  0  0  0  0  0  0  # atno 17343 bound_to 10162
  157.7047  130.9372  150.0893 LP  0  0  0  0  0  0  0  0  0  0  0  0  # atno 17370 bound_to 10713
  156.1875  130.3653  149.8954 LP  0  0  0  0  0  0  0  0  0  0  0  0  # atno 17371 bound_to 10713
  140.1165  134.5276  155.8220 LP  0  0  0  0  0  0  0  0  0  0  0  0  # atno 17394 bound_to 11000
  141.2140  133.6742  156.6786 LP  0  0  0  0  0  0  0  0  0  0  0  0  # atno 17395 bound_to 11000

$$$$
