AV-unprocessed.smi:1487|AV-procd|sdf|6007|dock4
  -GOLD-   22720 6103D 1   1.00000     0.00000
 Structure written by MMmdl.
 48 50  0  0  0  0  0  0  0  0  2 V2000
  151.3694  141.2597  157.4968 C   0  0  0  0  0  0  0  0  0  0  0  0
  150.2773  141.0808  156.4566 C   0  0  0  0  0  0  0  0  0  0  0  0
  149.0455  141.7507  156.6317 C   0  0  0  0  0  0  0  0  0  0  0  0
  148.0037  141.6094  155.6894 C   0  0  0  0  0  0  0  0  0  0  0  0
  146.7371  142.1672  155.6593 N   0  0  0  0  0  0  0  0  0  0  0  0
  146.2460  141.6579  154.5337 C   0  0  0  0  0  0  0  0  0  0  0  0
  147.0488  140.8409  153.8253 N   0  0  0  0  0  0  0  0  0  0  0  0
  146.7354  140.1854  152.5691 C   0  0  0  0  0  0  0  0  0  0  0  0
  146.9449  138.6597  152.6315 C   0  0  2  0  0  0  0  0  0  0  0  0
  148.2384  138.3903  152.1290 O   0  0  0  0  0  0  0  0  0  0  0  0
  145.9041  137.8656  151.8086 C   0  0  0  0  0  0  0  0  0  0  0  0
  146.1412  136.3993  151.8254 N   0  3  1  0  0  0  0  0  0  0  0  0
  145.9435  135.7853  153.1671 C   0  0  0  0  0  0  0  0  0  0  0  0
  146.3118  134.2919  153.1572 C   0  0  0  0  0  0  0  0  0  0  0  0
  145.5096  133.5351  152.0912 C   0  0  0  0  0  0  0  0  0  0  0  0
  145.7071  134.2019  150.7222 C   0  0  1  0  0  0  0  0  0  0  0  0
  144.8892  133.5643  149.7651 O   0  0  0  0  0  0  0  0  0  0  0  0
  145.3478  135.6975  150.7828 C   0  0  0  0  0  0  0  0  0  0  0  0
  148.2297  140.7731  154.5574 C   0  0  0  0  0  0  0  0  0  0  0  0
  149.4518  140.1030  154.3706 C   0  0  0  0  0  0  0  0  0  0  0  0
  150.4822  140.2555  155.3218 C   0  0  0  0  0  0  0  0  0  0  0  0
  151.7983  139.5283  155.1111 C   0  0  0  0  0  0  0  0  0  0  0  0
  151.0321  141.8837  158.3250 H   0  0  0  0  0  0  0  0  0  0  0  0
  152.2441  141.7358  157.0535 H   0  0  0  0  0  0  0  0  0  0  0  0
  151.6702  140.2958  157.9076 H   0  0  0  0  0  0  0  0  0  0  0  0
  148.8898  142.3808  157.4952 H   0  0  0  0  0  0  0  0  0  0  0  0
  145.2467  141.8975  154.1999 H   0  0  0  0  0  0  0  0  0  0  0  0
  145.7042  140.4204  152.3017 H   0  0  0  0  0  0  0  0  0  0  0  0
  147.3642  140.6221  151.7918 H   0  0  0  0  0  0  0  0  0  0  0  0
  146.9201  138.3587  153.6781 H   0  0  0  0  0  0  0  0  0  0  0  0
  148.7040  139.2055  152.0237 H   0  0  0  0  0  0  0  0  0  0  0  0
  144.8917  138.0509  152.1688 H   0  0  0  0  0  0  0  0  0  0  0  0
  145.9300  138.2332  150.7812 H   0  0  0  0  0  0  0  0  0  0  0  0
  146.5554  136.2903  153.9133 H   0  0  0  0  0  0  0  0  0  0  0  0
  144.9046  135.9110  153.4763 H   0  0  0  0  0  0  0  0  0  0  0  0
  147.3795  134.1780  152.9644 H   0  0  0  0  0  0  0  0  0  0  0  0
  146.1264  133.8563  154.1395 H   0  0  0  0  0  0  0  0  0  0  0  0
  145.8222  132.4905  152.0565 H   0  0  0  0  0  0  0  0  0  0  0  0
  144.4522  133.5379  152.3610 H   0  0  0  0  0  0  0  0  0  0  0  0
  146.7457  134.0899  150.4078 H   0  0  0  0  0  0  0  0  0  0  0  0
  145.0538  133.9520  148.9187 H   0  0  0  0  0  0  0  0  0  0  0  0
  144.2842  135.8273  150.9910 H   0  0  0  0  0  0  0  0  0  0  0  0
  145.5388  136.1518  149.8095 H   0  0  0  0  0  0  0  0  0  0  0  0
  149.5962  139.4773  153.5024 H   0  0  0  0  0  0  0  0  0  0  0  0
  151.8043  138.9806  154.1682 H   0  0  0  0  0  0  0  0  0  0  0  0
  151.9715  138.8126  155.9153 H   0  0  0  0  0  0  0  0  0  0  0  0
  152.6280  140.2353  155.0911 H   0  0  0  0  0  0  0  0  0  0  0  0
  147.1101  136.2639  151.5756 H   0  0  0  0  0  0  0  0  0  0  0  0
  1  2  1  0  0  0  0
  1 23  1  0  0  0  0
  1 24  1  0  0  0  0
  1 25  1  0  0  0  0
  2 21  1  0  0  0  0
  2  3  2  0  0  0  0
  3  4  1  0  0  0  0
  3 26  1  0  0  0  0
  4 19  2  0  0  0  0
  4  5  1  0  0  0  0
  5  6  2  0  0  0  0
  6  7  1  0  0  0  0
  6 27  1  0  0  0  0
  7  8  1  0  0  0  0
  7 19  1  0  0  0  0
  8  9  1  0  0  0  0
  8 28  1  0  0  0  0
  8 29  1  0  0  0  0
  9 10  1  0  0  0  0
  9 11  1  0  0  0  0
  9 30  1  0  0  0  0
 10 31  1  0  0  0  0
 11 12  1  0  0  0  0
 11 32  1  0  0  0  0
 11 33  1  0  0  0  0
 12 18  1  0  0  0  0
 12 13  1  0  0  0  0
 12 48  1  0  0  0  0
 13 14  1  0  0  0  0
 13 34  1  0  0  0  0
 13 35  1  0  0  0  0
 14 15  1  0  0  0  0
 14 36  1  0  0  0  0
 14 37  1  0  0  0  0
 15 16  1  0  0  0  0
 15 38  1  0  0  0  0
 15 39  1  0  0  0  0
 16 17  1  0  0  0  0
 16 18  1  0  0  0  0
 16 40  1  0  0  0  0
 17 41  1  0  0  0  0
 18 42  1  0  0  0  0
 18 43  1  0  0  0  0
 19 20  1  0  0  0  0
 20 21  2  0  0  0  0
 20 44  1  0  0  0  0
 21 22  1  0  0  0  0
 22 45  1  0  0  0  0
 22 46  1  0  0  0  0
 22 47  1  0  0  0  0
M  CHG  1  12   1
M  END
> <s_m_source_file>
AV-unprocessed.smi

> <i_m_source_file_index>
1487

> <i_lp_mmshare_version>
43012

> <i_f3d_flags>
0

> <s_epik_input>
W0NIM11jKFtjSF0xKWMoW0NIM10pW2NIXWMoYzEyKW4oW2NIXW4yKVtDSDJdW0NASF0oW09IXSlbQ0gyXU4zW0NIMl1bQ0gyXVtDSDJdW0NAQEhdKFtPSF0pW0NIMl0z

> <s_epik_cmdline>
J2VwaWtfcHl0aG9uJywgJy1waCcsICc3LjAnLCAnLXRuJywgJzgnLCAnLW1hJywgJzIwMCcsICctbWV0YWxfYmluZGluZycsICctaW1hZScsICc8aW5maWxlLm1hZT4nLCAnLW9tYWUnLCAnPG91dGZpbGUubWFlPic=

> <r_epik_Ionization_Penalty>
0.0940186

> <r_epik_Ionization_Penalty_Charging>
0.00679686

> <r_epik_Ionization_Penalty_Neutral>
0.0872218

> <r_epik_State_Penalty>
0.0799311

> <r_epik_Charging_Adjusted_Penalty>
0.086728

> <i_epik_Tot_Q>
1

> <i_epik_Tot_abs_Q>
1

> <r_epik_Metal_State_Penalty>
7.95545e-05

> <b_epik_Metal_Only>
0

> <s_lp_Force_Field>
OPLS_2005

> <r_lp_Energy>
20.897

> <b_lp_Chiralities_Consistent>
1

> <s_lp_Variant>
AV-unprocessed.smi:1487-1

> <Gold.Version>
5.8.1

> <Gold.Id.Protein>
6NUR|6NUR_protein|mol2

> <Gold.PLP.Fitness>
48.9010

> <Gold.PLP.PLP>
-36.3121

> <Gold.PLP.part.hbond>
-3.1065

> <Gold.PLP.part.metal>
0.0000

> <Gold.PLP.part.buried>
4.1060

> <Gold.PLP.part.nonpolar>
-37.8366

> <Gold.PLP.part.repulsive>
0.1924

> <Gold.PLP.ligand.clash>
0.0000

> <Gold.PLP.ligand.torsion>
0.5730

> <Gold.PLP.Chemscore.Hbond>
4.0803

> <Gold.PLP.Chemscore.CHOScore>
0.4849

> <Gold.PLP.Chemscore.Metal>
0.0000

> <Gold.Chemscore.Hbonds>
donor molecule, donor type, donor heavy atom, donor atom, acceptor molecule, acceptor atom, score
      L1  H    10    31       P1  7957  0.80
      L1  H    12    48       P1  7948  2.00
      L1  H    17    41       P1  7921  1.00
      P1  H  7954  7966       L1    10  0.23
      L1  C     6    27       P1 10175  0.47

> <Gold.PLP.Chemscore.Internal.Correction>
0.0393

> <Gold.Rescore>
     Score         DG    S(hbond)    S(metal)    S(lipo)     H(rot)  DE(clash)    DE(int)     intcor
     17.99     -19.13       2.80        0.00      95.15       2.67       0.53       0.61       ----

> <Gold.Chemscore.Fitness>
17.9944

> <Gold.Chemscore.DG>
-19.1287

> <Gold.Chemscore.ZeroCoef>
-5.4800

> <Gold.Chemscore.Hbond>
2.8006

> <Gold.Chemscore.Metal>
0.0000

> <Gold.Chemscore.Lipo>
95.1532

> <Gold.Chemscore.Internal_Hbond>
0.0000

> <Gold.Chemscore.DEClash>
0.5274

> <Gold.Chemscore.DEInternal>
0.6069

> <Gold.Chemscore.Rot>
2.6712

> <Gold.Chemscore.Internal.Correction>
   9.000000E+99

> <Gold.Chemscore.Hbonds>
donor molecule, donor type, donor heavy atom, donor atom, acceptor molecule, acceptor atom, score
      L1  H    10    31       P1  7957  0.75
      L1  H    12    48       P1  7948  0.99
      L1  H    17    41       P1  7921  0.94
      P1  H  7954  7966       L1    10  0.02

> <Gold.Chemscore.Hbond.Weighted>
-9.3541

> <Gold.Chemscore.Metal.Weighted>
-0.0000

> <Gold.Chemscore.Lipo.Weighted>
-11.1329

> <Gold.Chemscore.Internal_Hbond.Weighted>
0.0000

> <Gold.Chemscore.DEClash.Weighted>
0.5274

> <Gold.Chemscore.DEInternal.Weighted>
0.6069

> <Gold.Chemscore.Rot.Weighted>
6.8383

> <Gold.Chemscore.Internal.Correction.Weighted>
   9.000000E+99

> <Gold.Protein.RotatedTorsions>
[ 6907 6896 6895 6894 ] final  120.58 input  -60.11 | X-H torsion
[ 7974 7965 7964 7962 ] final -171.60 input  175.53 | X-H torsion
[ 8008 7997 7996 7995 ] final  -24.16 input   59.86 | X-H torsion
[ 10167 10162 10161 10158 ] final  -85.40 input  -65.29 | X-H torsion
[ 10718 10713 10712 10709 ] final  126.57 input   66.30 | X-H torsion
[ 10763 10752 10751 10750 ] final -100.80 input  -60.55 | X-H torsion
[ 11005 11000 10999 10996 ] final  111.36 input  -57.11 | X-H torsion

> <Gold.Protein.ActiveResidues>
 VAL166  LYS551  ARG553  GLY616  TRP617  ASP618  TYR619  PRO620  LYS621  CYS622 
 ASP623  PHE694  ASN695  SER759  ASP760  ASP761  ALA762  ILE779  LEU786  VAL792 
 PHE793  MET794  SER795  GLU796  ALA797  LYS798  CYS799  TRP800  GLU811  SER814 

> <Gold.Protein.RotatedAtoms>
  152.4387  133.7408  159.6639 H   0  0  0  0  0  0  0  0  0  0  0  0  # atno 6907 bound_to 6896
  150.8274  133.8138  159.3119 H   0  0  0  0  0  0  0  0  0  0  0  0  # atno 6908 bound_to 6896
  151.5802  135.1061  160.0067 H   0  0  0  0  0  0  0  0  0  0  0  0  # atno 6909 bound_to 6896
  144.7155  140.1898  143.6350 H   0  0  0  0  0  0  0  0  0  0  0  0  # atno 7974 bound_to 7965
  154.4544  140.1961  156.0422 H   0  0  0  0  0  0  0  0  0  0  0  0  # atno 8008 bound_to 7997
  156.0716  140.3283  155.7555 H   0  0  0  0  0  0  0  0  0  0  0  0  # atno 8009 bound_to 7997
  155.5253  140.0573  157.2890 H   0  0  0  0  0  0  0  0  0  0  0  0  # atno 8010 bound_to 7997
  140.4040  143.2650  151.9105 H   0  0  0  0  0  0  0  0  0  0  0  0  # atno 10167 bound_to 10162
  157.5407  131.1097  150.8862 H   0  0  0  0  0  0  0  0  0  0  0  0  # atno 10718 bound_to 10713
  154.7608  135.4921  153.9460 H   0  0  0  0  0  0  0  0  0  0  0  0  # atno 10763 bound_to 10752
  153.1249  135.6740  153.9282 H   0  0  0  0  0  0  0  0  0  0  0  0  # atno 10764 bound_to 10752
  153.9003  135.3110  155.3427 H   0  0  0  0  0  0  0  0  0  0  0  0  # atno 10765 bound_to 10752
  139.8902  134.9506  156.6420 H   0  0  0  0  0  0  0  0  0  0  0  0  # atno 11005 bound_to 11000
  145.8779  139.2307  143.1622 LP  0  0  0  0  0  0  0  0  0  0  0  0  # atno 17320 bound_to 7965
  146.0023  140.8510  143.0012 LP  0  0  0  0  0  0  0  0  0  0  0  0  # atno 17321 bound_to 7965
  139.4784  144.5604  151.8247 LP  0  0  0  0  0  0  0  0  0  0  0  0  # atno 17342 bound_to 10162
  140.4709  144.1588  150.5918 LP  0  0  0  0  0  0  0  0  0  0  0  0  # atno 17343 bound_to 10162
  156.9416  130.5386  149.5280 LP  0  0  0  0  0  0  0  0  0  0  0  0  # atno 17370 bound_to 10713
  156.0495  130.5566  150.8956 LP  0  0  0  0  0  0  0  0  0  0  0  0  # atno 17371 bound_to 10713
  140.7586  133.8836  155.8401 LP  0  0  0  0  0  0  0  0  0  0  0  0  # atno 17394 bound_to 11000
  140.9941  134.1239  157.4380 LP  0  0  0  0  0  0  0  0  0  0  0  0  # atno 17395 bound_to 11000

$$$$
