AV-unprocessed.smi:2909|AV-procd|sdf|11172|dock2
  -GOLD-   2272016 63D 1   1.00000     0.00000
 Structure written by MMmdl.
 44 45  0  0  0  0  0  0  0  0  1 V2000
  150.7850  130.8391  154.5489 C   0  0  0  0  0  0  0  0  0  0  0  0
  150.4463  132.1265  155.2202 C   0  0  0  0  0  0  0  0  0  0  0  0
  149.9151  133.2869  154.7322 C   0  0  0  0  0  0  0  0  0  0  0  0
  149.8412  134.1471  155.8680 C   0  0  0  0  0  0  0  0  0  0  0  0
  149.3382  135.5670  155.9219 C   0  0  0  0  0  0  0  0  0  0  0  0
  150.2151  136.5029  155.0835 C   0  0  0  0  0  0  0  0  0  0  0  0
  151.2422  136.0739  154.5581 O   0  0  0  0  0  0  0  0  0  0  0  0
  149.8168  137.7818  154.9860 N   0  0  0  0  0  0  0  0  0  0  0  0
  150.5124  138.8423  154.2607 C   0  0  2  0  0  0  0  0  0  0  0  0
  151.9480  139.0279  154.7835 C   0  0  0  0  0  0  0  0  0  0  0  0
  151.9780  139.5935  156.2141 C   0  0  0  0  0  0  0  0  0  0  0  0
  151.1992  140.9261  156.3464 C   0  0  2  0  0  0  0  0  0  0  0  0
  151.2118  141.4751  157.8038 C   0  0  0  0  0  0  0  0  0  0  0  0
  150.7234  142.9341  157.8948 C   0  0  0  0  0  0  0  0  0  0  0  0
  152.5994  141.3749  158.4671 C   0  0  0  0  0  0  0  0  0  0  0  0
  149.7606  140.7353  155.8040 C   0  0  0  0  0  0  0  0  0  0  0  0
  149.7339  140.1626  154.3755 C   0  0  0  0  0  0  0  0  0  0  0  0
  150.2834  133.5622  156.9729 N   0  0  0  0  0  0  0  0  0  0  0  0
  150.6521  132.3339  156.5647 N   0  0  0  0  0  0  0  0  0  0  0  0
  151.0366  131.6555  157.2071 H   0  0  0  0  0  0  0  0  0  0  0  0
  150.1456  130.6735  153.6815 H   0  0  0  0  0  0  0  0  0  0  0  0
  150.6546  129.9959  155.2277 H   0  0  0  0  0  0  0  0  0  0  0  0
  151.8207  130.8432  154.2091 H   0  0  0  0  0  0  0  0  0  0  0  0
  149.6267  133.4958  153.7126 H   0  0  0  0  0  0  0  0  0  0  0  0
  148.3160  135.6205  155.5460 H   0  0  0  0  0  0  0  0  0  0  0  0
  149.3068  135.9234  156.9527 H   0  0  0  0  0  0  0  0  0  0  0  0
  148.9595  138.0420  155.4517 H   0  0  0  0  0  0  0  0  0  0  0  0
  150.5547  138.5680  153.2051 H   0  0  0  0  0  0  0  0  0  0  0  0
  152.4915  138.0832  154.7450 H   0  0  0  0  0  0  0  0  0  0  0  0
  152.4832  139.7094  154.1209 H   0  0  0  0  0  0  0  0  0  0  0  0
  151.5705  138.8577  156.9086 H   0  0  0  0  0  0  0  0  0  0  0  0
  153.0225  139.7300  156.4908 H   0  0  0  0  0  0  0  0  0  0  0  0
  151.6957  141.6607  155.7104 H   0  0  0  0  0  0  0  0  0  0  0  0
  150.5271  140.8692  158.3991 H   0  0  0  0  0  0  0  0  0  0  0  0
  151.3008  143.5874  157.2399 H   0  0  0  0  0  0  0  0  0  0  0  0
  150.8184  143.3188  158.9107 H   0  0  0  0  0  0  0  0  0  0  0  0
  149.6717  143.0310  157.6279 H   0  0  0  0  0  0  0  0  0  0  0  0
  153.3622  141.8739  157.8687 H   0  0  0  0  0  0  0  0  0  0  0  0
  152.9080  140.3409  158.6159 H   0  0  0  0  0  0  0  0  0  0  0  0
  152.5983  141.8392  159.4537 H   0  0  0  0  0  0  0  0  0  0  0  0
  149.1985  140.0818  156.4725 H   0  0  0  0  0  0  0  0  0  0  0  0
  149.2283  141.6853  155.7862 H   0  0  0  0  0  0  0  0  0  0  0  0
  150.1666  140.8938  153.6913 H   0  0  0  0  0  0  0  0  0  0  0  0
  148.7024  140.0198  154.0511 H   0  0  0  0  0  0  0  0  0  0  0  0
  1  2  1  0  0  0  0
  1 21  1  0  0  0  0
  1 22  1  0  0  0  0
  1 23  1  0  0  0  0
  2 19  1  0  0  0  0
  2  3  2  0  0  0  0
  3  4  1  0  0  0  0
  3 24  1  0  0  0  0
  4  5  1  0  0  0  0
  4 18  2  0  0  0  0
  5  6  1  0  0  0  0
  5 25  1  0  0  0  0
  5 26  1  0  0  0  0
  6  7  2  0  0  0  0
  6  8  1  0  0  0  0
  8  9  1  0  0  0  0
  8 27  1  0  0  0  0
  9 17  1  0  0  0  0
  9 10  1  0  0  0  0
  9 28  1  0  0  0  0
 10 11  1  0  0  0  0
 10 29  1  0  0  0  0
 10 30  1  0  0  0  0
 11 12  1  0  0  0  0
 11 31  1  0  0  0  0
 11 32  1  0  0  0  0
 12 13  1  0  0  0  0
 12 16  1  0  0  0  0
 12 33  1  0  0  0  0
 13 14  1  0  0  0  0
 13 15  1  0  0  0  0
 13 34  1  0  0  0  0
 14 35  1  0  0  0  0
 14 36  1  0  0  0  0
 14 37  1  0  0  0  0
 15 38  1  0  0  0  0
 15 39  1  0  0  0  0
 15 40  1  0  0  0  0
 16 17  1  0  0  0  0
 16 41  1  0  0  0  0
 16 42  1  0  0  0  0
 17 43  1  0  0  0  0
 17 44  1  0  0  0  0
 18 19  1  0  0  0  0
 19 20  1  0  0  0  0
M  END
> <s_m_source_file>
AV-unprocessed.smi

> <i_m_source_file_index>
2909

> <i_lp_mmshare_version>
43012

> <i_f3d_flags>
0

> <s_epik_input>
W0NIM11jMVtjSF1jKG5bbkhdMSlbQ0gyXUMoPU8pW05IXVtDQEBIXTJbQ0gyXVtDSDJdW0NAQEhdKFtDSF0oW0NIM10pW0NIM10pW0NIMl1bQ0gyXTI=

> <s_epik_cmdline>
J2VwaWtfcHl0aG9uJywgJy1waCcsICc3LjAnLCAnLXRuJywgJzgnLCAnLW1hJywgJzIwMCcsICctbWV0YWxfYmluZGluZycsICctaW1hZScsICc8aW5maWxlLm1hZT4nLCAnLW9tYWUnLCAnPG91dGZpbGUubWFlPic=

> <r_lp_tautomer_probability>
0.5

> <r_epik_Ionization_Penalty>
9.34828e-05

> <r_epik_Ionization_Penalty_Charging>
0

> <r_epik_Ionization_Penalty_Neutral>
9.34828e-05

> <r_epik_State_Penalty>
0.41068

> <r_epik_Charging_Adjusted_Penalty>
0.41068

> <i_epik_Tot_Q>
0

> <i_epik_Tot_abs_Q>
0

> <r_epik_Metal_State_Penalty>
0.4107

> <b_epik_Metal_Only>
0

> <s_lp_Force_Field>
OPLS_2005

> <r_lp_Energy>
10.758

> <b_lp_Chiralities_Consistent>
1

> <s_lp_Variant>
AV-unprocessed.smi:2909-2

> <Gold.Version>
5.8.1

> <Gold.Id.Protein>
6NUR|6NUR_protein|mol2

> <Gold.PLP.Fitness>
38.2584

> <Gold.PLP.PLP>
-32.7268

> <Gold.PLP.part.hbond>
-2.0000

> <Gold.PLP.part.metal>
0.0000

> <Gold.PLP.part.buried>
-3.7082

> <Gold.PLP.part.nonpolar>
-27.2582

> <Gold.PLP.part.repulsive>
0.2421

> <Gold.PLP.ligand.clash>
0.0000

> <Gold.PLP.ligand.torsion>
0.2105

> <Gold.PLP.Chemscore.Hbond>
1.9760

> <Gold.PLP.Chemscore.CHOScore>
0.0000

> <Gold.PLP.Chemscore.Metal>
0.0000

> <Gold.Chemscore.Hbonds>
donor molecule, donor type, donor heavy atom, donor atom, acceptor molecule, acceptor atom, score
      P1  H  6896  6909       L1    18  0.22
      P1  H 10752 10763       L1     7  1.00

> <Gold.PLP.Chemscore.Internal.Correction>
0.0246

> <Gold.Rescore>
     Score         DG    S(hbond)    S(metal)    S(lipo)     H(rot)  DE(clash)    DE(int)     intcor
     17.77     -17.96       1.89        0.00      85.47       1.50       0.00       0.19       ----

> <Gold.Chemscore.Fitness>
17.7728

> <Gold.Chemscore.DG>
-17.9645

> <Gold.Chemscore.ZeroCoef>
-5.4800

> <Gold.Chemscore.Hbond>
1.8945

> <Gold.Chemscore.Metal>
0.0000

> <Gold.Chemscore.Lipo>
85.4673

> <Gold.Chemscore.Internal_Hbond>
0.0000

> <Gold.Chemscore.DEClash>
0.0000

> <Gold.Chemscore.DEInternal>
0.1917

> <Gold.Chemscore.Rot>
1.5011

> <Gold.Chemscore.Internal.Correction>
   9.000000E+99

> <Gold.Chemscore.Hbonds>
donor molecule, donor type, donor heavy atom, donor atom, acceptor molecule, acceptor atom, score
      P1  H  6896  6909       L1    18  0.14
      P1  H 10752 10763       L1     7  1.00

> <Gold.Chemscore.Hbond.Weighted>
-6.3277

> <Gold.Chemscore.Metal.Weighted>
-0.0000

> <Gold.Chemscore.Lipo.Weighted>
-9.9997

> <Gold.Chemscore.Internal_Hbond.Weighted>
0.0000

> <Gold.Chemscore.DEClash.Weighted>
0.0000

> <Gold.Chemscore.DEInternal.Weighted>
0.1917

> <Gold.Chemscore.Rot.Weighted>
3.8429

> <Gold.Chemscore.Internal.Correction.Weighted>
   9.000000E+99

> <Gold.Protein.RotatedTorsions>
[ 6907 6896 6895 6894 ] final   -5.12 input  -60.11 | X-H torsion
[ 7974 7965 7964 7962 ] final  -73.62 input  175.53 | X-H torsion
[ 8008 7997 7996 7995 ] final -141.14 input   59.86 | X-H torsion
[ 10167 10162 10161 10158 ] final   90.79 input  -65.29 | X-H torsion
[ 10718 10713 10712 10709 ] final -179.20 input   66.30 | X-H torsion
[ 10763 10752 10751 10750 ] final   55.38 input  -60.55 | X-H torsion
[ 11005 11000 10999 10996 ] final  -75.49 input  -57.11 | X-H torsion

> <Gold.Protein.ActiveResidues>
 VAL166  LYS551  ARG553  GLY616  TRP617  ASP618  TYR619  PRO620  LYS621  CYS622 
 ASP623  PHE694  ASN695  SER759  ASP760  ASP761  ALA762  ILE779  LEU786  VAL792 
 PHE793  MET794  SER795  GLU796  ALA797  LYS798  CYS799  TRP800  GLU811  SER814 

> <Gold.Protein.RotatedAtoms>
  151.4866  135.1055  159.9791 H   0  0  0  0  0  0  0  0  0  0  0  0  # atno 6907 bound_to 6896
  152.4758  133.8130  159.7024 H   0  0  0  0  0  0  0  0  0  0  0  0  # atno 6908 bound_to 6896
  150.8795  133.7330  159.2963 H   0  0  0  0  0  0  0  0  0  0  0  0  # atno 6909 bound_to 6896
  145.6498  140.9286  143.0991 H   0  0  0  0  0  0  0  0  0  0  0  0  # atno 7974 bound_to 7965
  155.4730  140.0554  157.2977 H   0  0  0  0  0  0  0  0  0  0  0  0  # atno 8008 bound_to 7997
  154.4691  140.2032  155.9995 H   0  0  0  0  0  0  0  0  0  0  0  0  # atno 8009 bound_to 7997
  156.1025  140.3217  155.7966 H   0  0  0  0  0  0  0  0  0  0  0  0  # atno 8010 bound_to 7997
  139.8438  144.6628  150.9251 H   0  0  0  0  0  0  0  0  0  0  0  0  # atno 10167 bound_to 10162
  156.8555  130.9734  151.3088 H   0  0  0  0  0  0  0  0  0  0  0  0  # atno 10718 bound_to 10713
  152.9816  135.5713  154.5057 H   0  0  0  0  0  0  0  0  0  0  0  0  # atno 10763 bound_to 10752
  154.4569  135.2780  155.1743 H   0  0  0  0  0  0  0  0  0  0  0  0  # atno 10764 bound_to 10752
  154.3347  135.6242  153.5621 H   0  0  0  0  0  0  0  0  0  0  0  0  # atno 10765 bound_to 10752
  141.1646  133.6948  156.7525 H   0  0  0  0  0  0  0  0  0  0  0  0  # atno 11005 bound_to 11000
  144.7127  139.8312  143.7409 LP  0  0  0  0  0  0  0  0  0  0  0  0  # atno 17320 bound_to 7965
  146.1213  139.4231  143.0226 LP  0  0  0  0  0  0  0  0  0  0  0  0  # atno 17321 bound_to 7965
  140.7795  143.3888  151.1346 LP  0  0  0  0  0  0  0  0  0  0  0  0  # atno 17342 bound_to 10162
  139.7532  143.8747  152.3082 LP  0  0  0  0  0  0  0  0  0  0  0  0  # atno 17343 bound_to 10162
  157.6279  130.8706  149.9222 LP  0  0  0  0  0  0  0  0  0  0  0  0  # atno 17370 bound_to 10713
  156.0805  130.3673  150.0591 LP  0  0  0  0  0  0  0  0  0  0  0  0  # atno 17371 bound_to 10713
  140.2593  134.8479  157.3743 LP  0  0  0  0  0  0  0  0  0  0  0  0  # atno 17394 bound_to 11000
  140.1626  134.4709  155.7884 LP  0  0  0  0  0  0  0  0  0  0  0  0  # atno 17395 bound_to 11000

$$$$
