AV-unprocessed.smi:1174|AV-procd|sdf|4949|dock1
  -GOLD-   22720 3533D 1   1.00000     0.00000
 Structure written by MMmdl.
 41 42  0  0  0  0  0  0  0  0  1 V2000
  151.4223  140.4579  156.0916 C   0  0  0  0  0  0  0  0  0  0  0  0
  150.5883  141.2406  157.1149 C   0  0  1  0  0  0  0  0  0  0  0  0
  151.2604  142.5852  157.4690 C   0  0  0  0  0  0  0  0  0  0  0  0
  152.0175  142.5324  158.7068 N   0  0  0  0  0  0  0  0  0  0  0  0
  152.2102  143.5293  159.6396 C   0  0  0  0  0  0  0  0  0  0  0  0
  152.9923  143.0108  160.6315 C   0  0  0  0  0  0  0  0  0  0  0  0
  153.2303  141.6729  160.2108 C   0  0  0  0  0  0  0  0  0  0  0  0
  152.6513  141.3914  159.0551 N   0  0  0  0  0  0  0  0  0  0  0  0
  149.2486  141.4460  156.5655 N   0  0  0  0  0  0  0  0  0  0  0  0
  148.1109  140.9085  157.0345 C   0  0  0  0  0  0  0  0  0  0  0  0
  148.0693  140.1944  158.0364 O   0  0  0  0  0  0  0  0  0  0  0  0
  146.8316  141.2251  156.2365 C   0  0  1  0  0  0  0  0  0  0  0  0
  147.0350  142.3916  155.2377 C   0  0  0  0  0  0  0  0  0  0  0  0
  147.7463  141.9681  153.9362 C   0  0  0  0  0  0  0  0  0  0  0  0
  147.0954  140.7115  153.3358 C   0  0  0  0  0  0  0  0  0  0  0  0
  147.0917  139.6345  154.3406 N   0  0  0  0  0  0  0  0  0  0  0  0
  147.6881  138.4233  154.2140 C   0  0  0  0  0  0  0  0  0  0  0  0
  148.5217  138.3063  153.1756 N   0  0  0  0  0  0  0  0  0  0  0  0
  147.5420  137.5012  155.0144 O   0  0  0  0  0  0  0  0  0  0  0  0
  146.2651  139.9817  155.5068 C   0  0  0  0  0  0  0  0  0  0  0  0
  152.4194  140.2462  156.4786 H   0  0  0  0  0  0  0  0  0  0  0  0
  151.5379  141.0158  155.1618 H   0  0  0  0  0  0  0  0  0  0  0  0
  150.9550  139.5021  155.8519 H   0  0  0  0  0  0  0  0  0  0  0  0
  150.5253  140.6241  158.0135 H   0  0  0  0  0  0  0  0  0  0  0  0
  151.9481  142.8794  156.6747 H   0  0  0  0  0  0  0  0  0  0  0  0
  150.5171  143.3805  157.5430 H   0  0  0  0  0  0  0  0  0  0  0  0
  151.7749  144.5114  159.5254 H   0  0  0  0  0  0  0  0  0  0  0  0
  153.3366  143.5106  161.5247 H   0  0  0  0  0  0  0  0  0  0  0  0
  153.8045  140.9042  160.7061 H   0  0  0  0  0  0  0  0  0  0  0  0
  149.1854  142.0243  155.7404 H   0  0  0  0  0  0  0  0  0  0  0  0
  146.0806  141.5489  156.9592 H   0  0  0  0  0  0  0  0  0  0  0  0
  146.0564  142.7986  154.9807 H   0  0  0  0  0  0  0  0  0  0  0  0
  147.5809  143.2104  155.7087 H   0  0  0  0  0  0  0  0  0  0  0  0
  147.7108  142.7856  153.2156 H   0  0  0  0  0  0  0  0  0  0  0  0
  148.8032  141.7786  154.1253 H   0  0  0  0  0  0  0  0  0  0  0  0
  146.0651  140.9303  153.0515 H   0  0  0  0  0  0  0  0  0  0  0  0
  147.5992  140.4458  152.4067 H   0  0  0  0  0  0  0  0  0  0  0  0
  148.9939  137.4306  153.0061 H   0  0  0  0  0  0  0  0  0  0  0  0
  148.6641  139.0918  152.5578 H   0  0  0  0  0  0  0  0  0  0  0  0
  146.1716  139.1569  156.2153 H   0  0  0  0  0  0  0  0  0  0  0  0
  145.2490  140.1861  155.1671 H   0  0  0  0  0  0  0  0  0  0  0  0
  1  2  1  0  0  0  0
  1 21  1  0  0  0  0
  1 22  1  0  0  0  0
  1 23  1  0  0  0  0
  2  3  1  0  0  0  0
  2  9  1  0  0  0  0
  2 24  1  0  0  0  0
  3  4  1  0  0  0  0
  3 25  1  0  0  0  0
  3 26  1  0  0  0  0
  4  8  1  0  0  0  0
  4  5  1  0  0  0  0
  5  6  2  0  0  0  0
  5 27  1  0  0  0  0
  6  7  1  0  0  0  0
  6 28  1  0  0  0  0
  7  8  2  0  0  0  0
  7 29  1  0  0  0  0
  9 10  1  0  0  0  0
  9 30  1  0  0  0  0
 10 11  2  0  0  0  0
 10 12  1  0  0  0  0
 12 20  1  0  0  0  0
 12 13  1  0  0  0  0
 12 31  1  0  0  0  0
 13 14  1  0  0  0  0
 13 32  1  0  0  0  0
 13 33  1  0  0  0  0
 14 15  1  0  0  0  0
 14 34  1  0  0  0  0
 14 35  1  0  0  0  0
 15 16  1  0  0  0  0
 15 36  1  0  0  0  0
 15 37  1  0  0  0  0
 16 17  1  0  0  0  0
 16 20  1  0  0  0  0
 17 18  1  0  0  0  0
 17 19  2  0  0  0  0
 18 38  1  0  0  0  0
 18 39  1  0  0  0  0
 20 40  1  0  0  0  0
 20 41  1  0  0  0  0
M  END
> <s_m_source_file>
AV-unprocessed.smi

> <i_m_source_file_index>
1174

> <i_lp_mmshare_version>
43012

> <i_f3d_flags>
0

> <s_epik_input>
bjFbY0hdW2NIXVtjSF1uMVtDSDJdW0NAQEhdKFtDSDNdKVtOSF1DKD1PKVtDQEBIXTJbQ0gyXVtDSDJdW0NIMl1OKFtDSDJdMilDKD1PKVtOSDJd

> <s_epik_cmdline>
J2VwaWtfcHl0aG9uJywgJy1waCcsICc3LjAnLCAnLXRuJywgJzgnLCAnLW1hJywgJzIwMCcsICctbWV0YWxfYmluZGluZycsICctaW1hZScsICc8aW5maWxlLm1hZT4nLCAnLW9tYWUnLCAnPG91dGZpbGUubWFlPic=

> <r_lp_tautomer_probability>
1

> <r_epik_Ionization_Penalty>
0.000372452

> <r_epik_Ionization_Penalty_Charging>
0

> <r_epik_Ionization_Penalty_Neutral>
0.000372452

> <r_epik_State_Penalty>
-0

> <r_epik_Charging_Adjusted_Penalty>
0

> <i_epik_Tot_Q>
0

> <i_epik_Tot_abs_Q>
0

> <r_epik_Metal_State_Penalty>
-0

> <b_epik_Metal_Only>
0

> <s_lp_Force_Field>
OPLS_2005

> <r_lp_Energy>
22.2792

> <b_lp_Chiralities_Consistent>
1

> <s_lp_Variant>
AV-unprocessed.smi:1174-4

> <Gold.Version>
5.8.1

> <Gold.Id.Protein>
6NUR|6NUR_protein|mol2

> <Gold.PLP.Fitness>
38.2249

> <Gold.PLP.PLP>
-35.3662

> <Gold.PLP.part.hbond>
-2.6724

> <Gold.PLP.part.metal>
0.0000

> <Gold.PLP.part.buried>
-4.5242

> <Gold.PLP.part.nonpolar>
-28.5547

> <Gold.PLP.part.repulsive>
0.1745

> <Gold.PLP.ligand.clash>
0.0365

> <Gold.PLP.ligand.torsion>
1.2108

> <Gold.PLP.Chemscore.Hbond>
1.7280

> <Gold.PLP.Chemscore.CHOScore>
0.0000

> <Gold.PLP.Chemscore.Metal>
0.0000

> <Gold.Chemscore.Hbonds>
donor molecule, donor type, donor heavy atom, donor atom, acceptor molecule, acceptor atom, score
      L1  H    18    38       P1  7948  0.75
      L1  H    18    39       P1  7957  1.00

> <Gold.PLP.Chemscore.Internal.Correction>
0.1328

> <Gold.Rescore>
     Score         DG    S(hbond)    S(metal)    S(lipo)     H(rot)  DE(clash)    DE(int)     intcor
     13.70     -15.61       1.71        0.00      77.60       1.82       0.10       1.82       ----

> <Gold.Chemscore.Fitness>
13.6975

> <Gold.Chemscore.DG>
-15.6119

> <Gold.Chemscore.ZeroCoef>
-5.4800

> <Gold.Chemscore.Hbond>
1.7107

> <Gold.Chemscore.Metal>
0.0000

> <Gold.Chemscore.Lipo>
77.5978

> <Gold.Chemscore.Internal_Hbond>
0.0000

> <Gold.Chemscore.DEClash>
0.0985

> <Gold.Chemscore.DEInternal>
1.8159

> <Gold.Chemscore.Rot>
1.8206

> <Gold.Chemscore.Internal.Correction>
   9.000000E+99

> <Gold.Chemscore.Hbonds>
donor molecule, donor type, donor heavy atom, donor atom, acceptor molecule, acceptor atom, score
      L1  H    18    38       P1  7948  0.74
      L1  H    18    39       P1  7957  0.96

> <Gold.Chemscore.Hbond.Weighted>
-5.7136

> <Gold.Chemscore.Metal.Weighted>
-0.0000

> <Gold.Chemscore.Lipo.Weighted>
-9.0789

> <Gold.Chemscore.Internal_Hbond.Weighted>
0.0000

> <Gold.Chemscore.DEClash.Weighted>
0.0985

> <Gold.Chemscore.DEInternal.Weighted>
1.8159

> <Gold.Chemscore.Rot.Weighted>
4.6607

> <Gold.Chemscore.Internal.Correction.Weighted>
   9.000000E+99

> <Gold.Protein.RotatedTorsions>
[ 6907 6896 6895 6894 ] final -142.72 input  -60.11 | X-H torsion
[ 7974 7965 7964 7962 ] final  105.41 input  175.53 | X-H torsion
[ 8008 7997 7996 7995 ] final  145.33 input   59.86 | X-H torsion
[ 10167 10162 10161 10158 ] final -154.03 input  -65.29 | X-H torsion
[ 10718 10713 10712 10709 ] final  168.36 input   66.30 | X-H torsion
[ 10763 10752 10751 10750 ] final  -64.03 input  -60.55 | X-H torsion
[ 11005 11000 10999 10996 ] final   12.27 input  -57.11 | X-H torsion

> <Gold.Protein.ActiveResidues>
 VAL166  LYS551  ARG553  GLY616  TRP617  ASP618  TYR619  PRO620  LYS621  CYS622 
 ASP623  PHE694  ASN695  SER759  ASP760  ASP761  ALA762  ILE779  LEU786  VAL792 
 PHE793  MET794  SER795  GLU796  ALA797  LYS798  CYS799  TRP800  GLU811  SER814 

> <Gold.Protein.RotatedAtoms>
  151.0908  133.5317  159.2614 H   0  0  0  0  0  0  0  0  0  0  0  0  # atno 6907 bound_to 6896
  151.2185  135.0509  159.8950 H   0  0  0  0  0  0  0  0  0  0  0  0  # atno 6908 bound_to 6896
  152.5434  134.0714  159.8249 H   0  0  0  0  0  0  0  0  0  0  0  0  # atno 6909 bound_to 6896
  145.3200  139.2515  143.3717 H   0  0  0  0  0  0  0  0  0  0  0  0  # atno 7974 bound_to 7965
  156.2886  140.2212  156.5198 H   0  0  0  0  0  0  0  0  0  0  0  0  # atno 8008 bound_to 7997
  154.7538  140.0478  157.0938 H   0  0  0  0  0  0  0  0  0  0  0  0  # atno 8009 bound_to 7997
  155.0076  140.3109  155.4845 H   0  0  0  0  0  0  0  0  0  0  0  0  # atno 8010 bound_to 7997
  139.7048  143.9205  152.2444 H   0  0  0  0  0  0  0  0  0  0  0  0  # atno 10167 bound_to 10162
  157.0382  131.0279  151.2722 H   0  0  0  0  0  0  0  0  0  0  0  0  # atno 10718 bound_to 10713
  154.3240  135.6190  153.5520 H   0  0  0  0  0  0  0  0  0  0  0  0  # atno 10763 bound_to 10752
  152.9817  135.5731  154.5038 H   0  0  0  0  0  0  0  0  0  0  0  0  # atno 10764 bound_to 10752
  154.4711  135.2859  155.1618 H   0  0  0  0  0  0  0  0  0  0  0  0  # atno 10765 bound_to 10752
  140.4939  134.0813  155.7777 H   0  0  0  0  0  0  0  0  0  0  0  0  # atno 11005 bound_to 11000
  146.3086  140.3755  142.8678 LP  0  0  0  0  0  0  0  0  0  0  0  0  # atno 17320 bound_to 7965
  144.8947  140.7568  143.5904 LP  0  0  0  0  0  0  0  0  0  0  0  0  # atno 17321 bound_to 7965
  139.9057  144.6886  150.8616 LP  0  0  0  0  0  0  0  0  0  0  0  0  # atno 17342 bound_to 10162
  140.7719  143.3480  151.2071 LP  0  0  0  0  0  0  0  0  0  0  0  0  # atno 17343 bound_to 10162
  157.5125  130.7947  149.7720 LP  0  0  0  0  0  0  0  0  0  0  0  0  # atno 17370 bound_to 10713
  156.0047  130.3862  150.2476 LP  0  0  0  0  0  0  0  0  0  0  0  0  # atno 17371 bound_to 10713
  141.1470  133.9037  157.2191 LP  0  0  0  0  0  0  0  0  0  0  0  0  # atno 17394 bound_to 11000
  139.9753  135.0116  156.9615 LP  0  0  0  0  0  0  0  0  0  0  0  0  # atno 17395 bound_to 11000

$$$$
