AV-unprocessed.smi:1254|AV-procd|sdf|5275|dock1
  -GOLD-   22720 4393D 1   1.00000     0.00000
 Structure written by MMmdl.
 45 46  0  0  0  0  0  0  0  0  3 V2000
  148.3272  141.1491  154.0658 C   0  0  0  0  0  0  0  0  0  0  0  0
  149.2013  139.9449  154.1503 C   0  0  0  0  0  0  0  0  0  0  0  0
  148.9341  138.6092  154.2530 C   0  0  0  0  0  0  0  0  0  0  0  0
  150.2279  138.0212  154.2915 C   0  0  0  0  0  0  0  0  0  0  0  0
  150.4950  136.7087  154.3761 N   0  5  0  0  0  0  0  0  0  0  0  0
  149.6030  135.8668  154.9454 C   0  0  0  0  0  0  0  0  0  0  0  0
  148.7466  136.1633  155.7820 O   0  0  0  0  0  0  0  0  0  0  0  0
  149.7034  134.6022  154.5122 N   0  0  0  0  0  0  0  0  0  0  0  0
  148.8566  133.4894  154.9277 C   0  0  0  0  0  0  0  0  0  0  0  0
  148.4555  132.6044  153.7345 C   0  0  2  0  0  0  0  0  0  0  0  0
  147.5698  133.3598  152.7260 C   0  0  0  0  0  0  0  0  0  0  0  0
  147.1679  132.4597  151.6167 N   0  3  2  0  0  0  0  0  0  0  0  0
  146.3545  133.1264  150.5674 C   0  0  0  0  0  0  0  0  0  0  0  0
  144.9530  133.5524  151.0571 C   0  0  0  0  0  0  0  0  0  0  0  0
  143.9042  132.5004  150.6672 C   0  0  0  0  0  0  0  0  0  0  0  0
  144.5504  134.9358  150.5189 C   0  0  0  0  0  0  0  0  0  0  0  0
  146.5103  131.2437  152.1518 C   0  0  0  0  0  0  0  0  0  0  0  0
  147.4094  130.5583  153.1938 C   0  0  0  0  0  0  0  0  0  0  0  0
  147.7274  131.4831  154.2252 O   0  0  0  0  0  0  0  0  0  0  0  0
  151.1947  138.9196  154.2033 N   0  0  0  0  0  0  0  0  0  0  0  0
  150.5445  140.1565  154.1182 O   0  0  0  0  0  0  0  0  0  0  0  0
  148.0060  141.3192  153.0381 H   0  0  0  0  0  0  0  0  0  0  0  0
  148.8537  142.0402  154.4082 H   0  0  0  0  0  0  0  0  0  0  0  0
  147.4371  141.0255  154.6831 H   0  0  0  0  0  0  0  0  0  0  0  0
  147.9685  138.1285  154.2966 H   0  0  0  0  0  0  0  0  0  0  0  0
  150.4198  134.4021  153.8295 H   0  0  0  0  0  0  0  0  0  0  0  0
  149.3998  132.9007  155.6672 H   0  0  0  0  0  0  0  0  0  0  0  0
  147.9694  133.8770  155.4310 H   0  0  0  0  0  0  0  0  0  0  0  0
  149.3559  132.2570  153.2242 H   0  0  0  0  0  0  0  0  0  0  0  0
  146.6804  133.7508  153.2229 H   0  0  0  0  0  0  0  0  0  0  0  0
  148.1222  134.2150  152.3391 H   0  0  0  0  0  0  0  0  0  0  0  0
  146.8796  134.0175  150.2195 H   0  0  0  0  0  0  0  0  0  0  0  0
  146.2745  132.4647  149.7035 H   0  0  0  0  0  0  0  0  0  0  0  0
  144.9530  133.6028  152.1454 H   0  0  0  0  0  0  0  0  0  0  0  0
  143.8332  132.3924  149.5844 H   0  0  0  0  0  0  0  0  0  0  0  0
  142.9160  132.7730  151.0393 H   0  0  0  0  0  0  0  0  0  0  0  0
  144.1521  131.5235  151.0835 H   0  0  0  0  0  0  0  0  0  0  0  0
  144.5317  134.9478  149.4286 H   0  0  0  0  0  0  0  0  0  0  0  0
  145.2423  135.7109  150.8492 H   0  0  0  0  0  0  0  0  0  0  0  0
  143.5577  135.2191  150.8703 H   0  0  0  0  0  0  0  0  0  0  0  0
  145.5547  131.5140  152.6038 H   0  0  0  0  0  0  0  0  0  0  0  0
  146.2967  130.5479  151.3397 H   0  0  0  0  0  0  0  0  0  0  0  0
  146.8930  129.7044  153.6324 H   0  0  0  0  0  0  0  0  0  0  0  0
  148.3223  130.1766  152.7338 H   0  0  0  0  0  0  0  0  0  0  0  0
  148.0175  132.1472  151.1683 H   0  0  0  0  0  0  0  0  0  0  0  0
  1  2  1  0  0  0  0
  1 22  1  0  0  0  0
  1 23  1  0  0  0  0
  1 24  1  0  0  0  0
  2 21  1  0  0  0  0
  2  3  2  0  0  0  0
  3  4  1  0  0  0  0
  3 25  1  0  0  0  0
  4  5  1  0  0  0  0
  4 20  2  0  0  0  0
  5  6  1  0  0  0  0
  6  7  2  0  0  0  0
  6  8  1  0  0  0  0
  8  9  1  0  0  0  0
  8 26  1  0  0  0  0
  9 10  1  0  0  0  0
  9 27  1  0  0  0  0
  9 28  1  0  0  0  0
 10 19  1  0  0  0  0
 10 11  1  0  0  0  0
 10 29  1  0  0  0  0
 11 12  1  0  0  0  0
 11 30  1  0  0  0  0
 11 31  1  0  0  0  0
 12 13  1  0  0  0  0
 12 17  1  0  0  0  0
 12 45  1  0  0  0  0
 13 14  1  0  0  0  0
 13 32  1  0  0  0  0
 13 33  1  0  0  0  0
 14 15  1  0  0  0  0
 14 16  1  0  0  0  0
 14 34  1  0  0  0  0
 15 35  1  0  0  0  0
 15 36  1  0  0  0  0
 15 37  1  0  0  0  0
 16 38  1  0  0  0  0
 16 39  1  0  0  0  0
 16 40  1  0  0  0  0
 17 18  1  0  0  0  0
 17 41  1  0  0  0  0
 17 42  1  0  0  0  0
 18 19  1  0  0  0  0
 18 43  1  0  0  0  0
 18 44  1  0  0  0  0
 20 21  1  0  0  0  0
M  CHG  1   5  -1
M  CHG  1  12   1
M  END
> <s_m_source_file>
AV-unprocessed.smi

> <i_m_source_file_index>
1254

> <i_lp_mmshare_version>
43012

> <i_f3d_flags>
0

> <s_epik_input>
W0NIM11jMVtjSF1jKG5vMSlbTkhdQyg9TylbTkhdW0NIMl1bQ0BASF0yW0NIMl1OKFtDSDJdW0NIMl1PMilbQ0gyXVtDSF0oW0NIM10pW0NIM10=

> <s_epik_cmdline>
J2VwaWtfcHl0aG9uJywgJy1waCcsICc3LjAnLCAnLXRuJywgJzgnLCAnLW1hJywgJzIwMCcsICctbWV0YWxfYmluZGluZycsICctaW1hZScsICc8aW5maWxlLm1hZT4nLCAnLW9tYWUnLCAnPG91dGZpbGUubWFlPic=

> <r_epik_Ionization_Penalty>
6.33139

> <r_epik_Ionization_Penalty_Charging>
6.33128

> <r_epik_Ionization_Penalty_Neutral>
0.000104968

> <r_epik_State_Penalty>
6.32522

> <r_epik_Charging_Adjusted_Penalty>
12.6565

> <i_epik_Tot_Q>
0

> <i_epik_Tot_abs_Q>
2

> <r_epik_Metal_State_Penalty>
2.26285

> <b_epik_Metal_Only>
1

> <s_lp_Force_Field>
OPLS_2005

> <r_lp_Energy>
5.65212

> <b_lp_Chiralities_Consistent>
1

> <s_lp_Variant>
AV-unprocessed.smi:1254-7

> <Gold.Version>
5.8.1

> <Gold.Id.Protein>
6NUR|6NUR_protein|mol2

> <Gold.PLP.Fitness>
48.7800

> <Gold.PLP.PLP>
-38.1844

> <Gold.PLP.part.hbond>
-3.0000

> <Gold.PLP.part.metal>
0.0000

> <Gold.PLP.part.buried>
-5.9923

> <Gold.PLP.part.nonpolar>
-30.2939

> <Gold.PLP.part.repulsive>
0.5204

> <Gold.PLP.ligand.clash>
0.0000

> <Gold.PLP.ligand.torsion>
0.9643

> <Gold.PLP.Chemscore.Hbond>
4.0000

> <Gold.PLP.Chemscore.CHOScore>
0.0000

> <Gold.PLP.Chemscore.Metal>
0.0000

> <Gold.Chemscore.Hbonds>
donor molecule, donor type, donor heavy atom, donor atom, acceptor molecule, acceptor atom, score
      L1  H    12    45       P1 10747  1.00
      P1  H  7989  7998       L1    21  0.65

> <Gold.PLP.Chemscore.Internal.Correction>
0.5241

> <Gold.Rescore>
     Score         DG    S(hbond)    S(metal)    S(lipo)     H(rot)  DE(clash)    DE(int)     intcor
     17.61     -18.90       2.78        0.00      72.51       1.69       0.03       1.26       ----

> <Gold.Chemscore.Fitness>
17.6113

> <Gold.Chemscore.DG>
-18.9007

> <Gold.Chemscore.ZeroCoef>
-5.4800

> <Gold.Chemscore.Hbond>
2.7753

> <Gold.Chemscore.Metal>
0.0000

> <Gold.Chemscore.Lipo>
72.5138

> <Gold.Chemscore.Internal_Hbond>
0.0000

> <Gold.Chemscore.DEClash>
0.0272

> <Gold.Chemscore.DEInternal>
1.2621

> <Gold.Chemscore.Rot>
1.6926

> <Gold.Chemscore.Internal.Correction>
   9.000000E+99

> <Gold.Chemscore.Hbonds>
donor molecule, donor type, donor heavy atom, donor atom, acceptor molecule, acceptor atom, score
      L1  H    12    45       P1 10747  0.95
      P1  H  7989  7998       L1    21  0.11

> <Gold.Chemscore.Hbond.Weighted>
-9.2696

> <Gold.Chemscore.Metal.Weighted>
-0.0000

> <Gold.Chemscore.Lipo.Weighted>
-8.4841

> <Gold.Chemscore.Internal_Hbond.Weighted>
0.0000

> <Gold.Chemscore.DEClash.Weighted>
0.0272

> <Gold.Chemscore.DEInternal.Weighted>
1.2621

> <Gold.Chemscore.Rot.Weighted>
4.3330

> <Gold.Chemscore.Internal.Correction.Weighted>
   9.000000E+99

> <Gold.Protein.RotatedTorsions>
[ 6907 6896 6895 6894 ] final -117.17 input  -60.11 | X-H torsion
[ 7974 7965 7964 7962 ] final  -77.42 input  175.53 | X-H torsion
[ 8008 7997 7996 7995 ] final   13.43 input   59.86 | X-H torsion
[ 10167 10162 10161 10158 ] final -113.11 input  -65.29 | X-H torsion
[ 10718 10713 10712 10709 ] final  -37.12 input   66.30 | X-H torsion
[ 10763 10752 10751 10750 ] final   70.87 input  -60.55 | X-H torsion
[ 11005 11000 10999 10996 ] final   58.64 input  -57.11 | X-H torsion

> <Gold.Protein.ActiveResidues>
 VAL166  LYS551  ARG553  GLY616  TRP617  ASP618  TYR619  PRO620  LYS621  CYS622 
 ASP623  PHE694  ASN695  SER759  ASP760  ASP761  ALA762  ILE779  LEU786  VAL792 
 PHE793  MET794  SER795  GLU796  ALA797  LYS798  CYS799  TRP800  GLU811  SER814 

> <Gold.Protein.RotatedAtoms>
  150.8115  133.8414  159.3180 H   0  0  0  0  0  0  0  0  0  0  0  0  # atno 6907 bound_to 6896
  151.6198  135.1031  160.0109 H   0  0  0  0  0  0  0  0  0  0  0  0  # atno 6908 bound_to 6896
  152.4206  133.7070  159.6514 H   0  0  0  0  0  0  0  0  0  0  0  0  # atno 6909 bound_to 6896
  145.5999  140.9411  143.1246 H   0  0  0  0  0  0  0  0  0  0  0  0  # atno 7974 bound_to 7965
  154.8343  140.2904  155.5701 H   0  0  0  0  0  0  0  0  0  0  0  0  # atno 8008 bound_to 7997
  156.3007  140.2526  156.3205 H   0  0  0  0  0  0  0  0  0  0  0  0  # atno 8009 bound_to 7997
  154.9196  140.0386  157.1980 H   0  0  0  0  0  0  0  0  0  0  0  0  # atno 8010 bound_to 7997
  140.1154  143.4491  152.1726 H   0  0  0  0  0  0  0  0  0  0  0  0  # atno 10167 bound_to 10162
  156.3189  130.4263  149.7979 H   0  0  0  0  0  0  0  0  0  0  0  0  # atno 10718 bound_to 10713
  153.0366  135.5158  154.7506 H   0  0  0  0  0  0  0  0  0  0  0  0  # atno 10763 bound_to 10752
  154.6478  135.2921  155.0027 H   0  0  0  0  0  0  0  0  0  0  0  0  # atno 10764 bound_to 10752
  154.0922  135.6648  153.4907 H   0  0  0  0  0  0  0  0  0  0  0  0  # atno 10765 bound_to 10752
  140.0362  134.5939  155.9440 H   0  0  0  0  0  0  0  0  0  0  0  0  # atno 11005 bound_to 11000
  144.7314  139.7714  143.7345 LP  0  0  0  0  0  0  0  0  0  0  0  0  # atno 17320 bound_to 7965
  146.1584  139.4690  143.0004 LP  0  0  0  0  0  0  0  0  0  0  0  0  # atno 17321 bound_to 7965
  139.5597  144.7397  151.4191 LP  0  0  0  0  0  0  0  0  0  0  0  0  # atno 17342 bound_to 10162
  140.6902  143.7879  150.7245 LP  0  0  0  0  0  0  0  0  0  0  0  0  # atno 17343 bound_to 10162
  156.5294  130.8251  151.3232 LP  0  0  0  0  0  0  0  0  0  0  0  0  # atno 17370 bound_to 10713
  157.7407  130.9856  150.2398 LP  0  0  0  0  0  0  0  0  0  0  0  0  # atno 17371 bound_to 10713
  141.1859  133.6556  156.5216 LP  0  0  0  0  0  0  0  0  0  0  0  0  # atno 17394 bound_to 11000
  140.4143  134.7244  157.4854 LP  0  0  0  0  0  0  0  0  0  0  0  0  # atno 17395 bound_to 11000

$$$$
