AV-unprocessed.smi:1950|AV-procd|sdf|7879|dock5
  -GOLD-   2272010 33D 1   1.00000     0.00000
 Structure written by MMmdl.
 33 34  0  0  0  0  0  0  0  0  1 V2000
  144.7364  131.0791  151.2142 C   0  0  0  0  0  0  0  0  0  0  0  0
  144.4228  132.3471  150.4168 C   0  0  0  0  0  0  0  0  0  0  0  0
  144.4612  132.2817  149.1880 O   0  0  0  0  0  0  0  0  0  0  0  0
  144.1093  133.4859  151.0802 N   0  0  0  0  0  0  0  0  0  0  0  0
  144.1494  133.5895  152.5433 C   0  0  0  0  0  0  0  0  0  0  0  0
  145.3471  134.4694  152.9450 C   0  0  0  0  0  0  0  0  0  0  0  0
  145.2846  135.8531  152.2619 C   0  0  0  0  0  0  0  0  0  0  0  0
  146.5357  136.5716  152.4892 N   0  0  0  0  0  0  0  0  0  0  0  0
  146.6814  137.6885  153.2172 C   0  0  0  0  0  0  0  0  0  0  0  0
  145.7524  138.2548  153.7935 O   0  0  0  0  0  0  0  0  0  0  0  0
  147.9633  138.0947  153.2256 N   0  0  0  0  0  0  0  0  0  0  0  0
  148.5268  139.2200  153.8836 C   0  0  0  0  0  0  0  0  0  0  0  0
  149.8266  139.3228  154.2028 N   0  0  0  0  0  0  0  0  0  0  0  0
  150.1125  140.5246  154.8374 N   0  0  0  0  0  0  0  0  0  0  0  0
  149.0186  141.2797  154.9725 C   0  0  0  0  0  0  0  0  0  0  0  0
  147.5321  140.5969  154.3363 S   0  0  0  0  0  0  0  0  0  0  0  0
  145.0251  135.7276  150.7447 C   0  0  0  0  0  0  0  0  0  0  0  0
  143.8420  134.7871  150.4553 C   0  0  0  0  0  0  0  0  0  0  0  0
  143.8968  130.8064  151.8543 H   0  0  0  0  0  0  0  0  0  0  0  0
  145.6234  131.2200  151.8321 H   0  0  0  0  0  0  0  0  0  0  0  0
  144.9274  130.2408  150.5436 H   0  0  0  0  0  0  0  0  0  0  0  0
  143.2196  134.0344  152.9005 H   0  0  0  0  0  0  0  0  0  0  0  0
  144.2203  132.6181  153.0345 H   0  0  0  0  0  0  0  0  0  0  0  0
  145.3755  134.5884  154.0289 H   0  0  0  0  0  0  0  0  0  0  0  0
  146.2710  133.9600  152.6662 H   0  0  0  0  0  0  0  0  0  0  0  0
  144.4441  136.3978  152.6960 H   0  0  0  0  0  0  0  0  0  0  0  0
  147.3602  136.1822  152.0560 H   0  0  0  0  0  0  0  0  0  0  0  0
  148.6145  137.5306  152.7000 H   0  0  0  0  0  0  0  0  0  0  0  0
  149.0874  142.2458  155.4502 H   0  0  0  0  0  0  0  0  0  0  0  0
  144.8320  136.7119  150.3163 H   0  0  0  0  0  0  0  0  0  0  0  0
  145.9159  135.3421  150.2458 H   0  0  0  0  0  0  0  0  0  0  0  0
  143.6669  134.7289  149.3820 H   0  0  0  0  0  0  0  0  0  0  0  0
  142.9256  135.2044  150.8754 H   0  0  0  0  0  0  0  0  0  0  0  0
  1  2  1  0  0  0  0
  1 19  1  0  0  0  0
  1 20  1  0  0  0  0
  1 21  1  0  0  0  0
  2  3  2  0  0  0  0
  2  4  1  0  0  0  0
  4 18  1  0  0  0  0
  4  5  1  0  0  0  0
  5  6  1  0  0  0  0
  5 22  1  0  0  0  0
  5 23  1  0  0  0  0
  6  7  1  0  0  0  0
  6 24  1  0  0  0  0
  6 25  1  0  0  0  0
  7  8  1  0  0  0  0
  7 17  1  0  0  0  0
  7 26  1  0  0  0  0
  8  9  1  0  0  0  0
  8 27  1  0  0  0  0
  9 10  2  0  0  0  0
  9 11  1  0  0  0  0
 11 12  1  0  0  0  0
 11 28  1  0  0  0  0
 12 16  1  0  0  0  0
 12 13  2  0  0  0  0
 13 14  1  0  0  0  0
 14 15  2  0  0  0  0
 15 16  1  0  0  0  0
 15 29  1  0  0  0  0
 17 18  1  0  0  0  0
 17 30  1  0  0  0  0
 17 31  1  0  0  0  0
 18 32  1  0  0  0  0
 18 33  1  0  0  0  0
M  END
> <s_m_source_file>
AV-unprocessed.smi

> <i_m_source_file_index>
1950

> <i_lp_mmshare_version>
43012

> <i_f3d_flags>
0

> <s_epik_input>
W0NIM11DKD1PKU4xW0NIMl1bQ0gyXVtDSF0oW0NIMl1bQ0gyXTEpW05IXUMoPU8pW05IXWMybm5bY0hdczI=

> <s_epik_cmdline>
J2VwaWtfcHl0aG9uJywgJy1waCcsICc3LjAnLCAnLXRuJywgJzgnLCAnLW1hJywgJzIwMCcsICctbWV0YWxfYmluZGluZycsICctaW1hZScsICc8aW5maWxlLm1hZT4nLCAnLW9tYWUnLCAnPG91dGZpbGUubWFlPic=

> <r_lp_tautomer_probability>
1

> <r_epik_Ionization_Penalty>
0.00190949

> <r_epik_Ionization_Penalty_Charging>
0

> <r_epik_Ionization_Penalty_Neutral>
0.00190949

> <r_epik_State_Penalty>
-0

> <r_epik_Charging_Adjusted_Penalty>
0

> <i_epik_Tot_Q>
0

> <i_epik_Tot_abs_Q>
0

> <r_epik_Metal_State_Penalty>
0.336167

> <b_epik_Metal_Only>
0

> <s_lp_Force_Field>
OPLS_2005

> <r_lp_Energy>
22.3171

> <b_lp_Chiralities_Consistent>
1

> <s_lp_Variant>
AV-unprocessed.smi:1950-1

> <Gold.Version>
5.8.1

> <Gold.Id.Protein>
6NUR|6NUR_protein|mol2

> <Gold.PLP.Fitness>
36.9666

> <Gold.PLP.PLP>
-26.9354

> <Gold.PLP.part.hbond>
-3.6785

> <Gold.PLP.part.metal>
0.0000

> <Gold.PLP.part.buried>
-0.3754

> <Gold.PLP.part.nonpolar>
-25.7444

> <Gold.PLP.part.repulsive>
1.8732

> <Gold.PLP.ligand.clash>
0.0000

> <Gold.PLP.ligand.torsion>
0.1434

> <Gold.PLP.Chemscore.Hbond>
2.4336

> <Gold.PLP.Chemscore.CHOScore>
1.0000

> <Gold.PLP.Chemscore.Metal>
0.0000

> <Gold.Chemscore.Hbonds>
donor molecule, donor type, donor heavy atom, donor atom, acceptor molecule, acceptor atom, score
      L1  H     8    27       P1  7948  0.99
      L1  H    11    28       P1  7948  1.00
      P1  H  7989  7998       L1    14  0.44
      L1  C    15    29       P1  8028  1.00

> <Gold.PLP.Chemscore.Internal.Correction>
0.0173

> <Gold.Rescore>
     Score         DG    S(hbond)    S(metal)    S(lipo)     H(rot)  DE(clash)    DE(int)     intcor
     13.19     -14.65       1.94        0.00      44.81       1.00       0.11       1.35       ----

> <Gold.Chemscore.Fitness>
13.1889

> <Gold.Chemscore.DG>
-14.6543

> <Gold.Chemscore.ZeroCoef>
-5.4800

> <Gold.Chemscore.Hbond>
1.9435

> <Gold.Chemscore.Metal>
0.0000

> <Gold.Chemscore.Lipo>
44.8124

> <Gold.Chemscore.Internal_Hbond>
0.0000

> <Gold.Chemscore.DEClash>
0.1134

> <Gold.Chemscore.DEInternal>
1.3520

> <Gold.Chemscore.Rot>
1.0000

> <Gold.Chemscore.Internal.Correction>
   9.000000E+99

> <Gold.Chemscore.Hbonds>
donor molecule, donor type, donor heavy atom, donor atom, acceptor molecule, acceptor atom, score
      L1  H     8    27       P1  7948  0.92
      L1  H    11    28       P1  7948  0.93
      P1  H  7989  7998       L1    14  0.02

> <Gold.Chemscore.Hbond.Weighted>
-6.4913

> <Gold.Chemscore.Metal.Weighted>
-0.0000

> <Gold.Chemscore.Lipo.Weighted>
-5.2430

> <Gold.Chemscore.Internal_Hbond.Weighted>
0.0000

> <Gold.Chemscore.DEClash.Weighted>
0.1134

> <Gold.Chemscore.DEInternal.Weighted>
1.3520

> <Gold.Chemscore.Rot.Weighted>
2.5600

> <Gold.Chemscore.Internal.Correction.Weighted>
   9.000000E+99

> <Gold.Protein.RotatedTorsions>
[ 6907 6896 6895 6894 ] final -109.37 input  -60.11 | X-H torsion
[ 7974 7965 7964 7962 ] final -121.37 input  175.53 | X-H torsion
[ 8008 7997 7996 7995 ] final  -75.53 input   59.86 | X-H torsion
[ 10167 10162 10161 10158 ] final   40.15 input  -65.29 | X-H torsion
[ 10718 10713 10712 10709 ] final  156.71 input   66.30 | X-H torsion
[ 10763 10752 10751 10750 ] final  -26.52 input  -60.55 | X-H torsion
[ 11005 11000 10999 10996 ] final -120.30 input  -57.11 | X-H torsion

> <Gold.Protein.ActiveResidues>
 VAL166  LYS551  ARG553  GLY616  TRP617  ASP618  TYR619  PRO620  LYS621  CYS622 
 ASP623  PHE694  ASN695  SER759  ASP760  ASP761  ALA762  ILE779  LEU786  VAL792 
 PHE793  MET794  SER795  GLU796  ALA797  LYS798  CYS799  TRP800  GLU811  SER814 

> <Gold.Protein.RotatedAtoms>
  150.7558  133.9539  159.3494 H   0  0  0  0  0  0  0  0  0  0  0  0  # atno 6907 bound_to 6896
  151.7459  135.0842  160.0332 H   0  0  0  0  0  0  0  0  0  0  0  0  # atno 6908 bound_to 6896
  152.3498  133.6129  159.5972 H   0  0  0  0  0  0  0  0  0  0  0  0  # atno 6909 bound_to 6896
  145.0411  140.8145  143.4265 H   0  0  0  0  0  0  0  0  0  0  0  0  # atno 7974 bound_to 7965
  154.5425  140.0742  156.8534 H   0  0  0  0  0  0  0  0  0  0  0  0  # atno 8008 bound_to 7997
  155.3153  140.3392  155.4224 H   0  0  0  0  0  0  0  0  0  0  0  0  # atno 8009 bound_to 7997
  156.1887  140.1678  156.8120 H   0  0  0  0  0  0  0  0  0  0  0  0  # atno 8010 bound_to 7997
  140.3770  144.2030  150.6131 H   0  0  0  0  0  0  0  0  0  0  0  0  # atno 10167 bound_to 10162
  157.2013  131.0677  151.2023 H   0  0  0  0  0  0  0  0  0  0  0  0  # atno 10718 bound_to 10713
  153.7173  135.6947  153.5022 H   0  0  0  0  0  0  0  0  0  0  0  0  # atno 10763 bound_to 10752
  153.2229  135.4364  155.0508 H   0  0  0  0  0  0  0  0  0  0  0  0  # atno 10764 bound_to 10752
  154.8295  135.3465  154.6708 H   0  0  0  0  0  0  0  0  0  0  0  0  # atno 10765 bound_to 10752
  141.0153  134.0204  157.3357 H   0  0  0  0  0  0  0  0  0  0  0  0  # atno 11005 bound_to 11000
  145.1646  139.2439  143.5373 LP  0  0  0  0  0  0  0  0  0  0  0  0  # atno 17320 bound_to 7965
  146.3509  140.1382  142.8595 LP  0  0  0  0  0  0  0  0  0  0  0  0  # atno 17321 bound_to 7965
  140.4976  143.2328  151.8727 LP  0  0  0  0  0  0  0  0  0  0  0  0  # atno 17342 bound_to 10162
  139.4798  144.5096  151.8950 LP  0  0  0  0  0  0  0  0  0  0  0  0  # atno 17343 bound_to 10162
  157.3764  130.7208  149.6599 LP  0  0  0  0  0  0  0  0  0  0  0  0  # atno 17370 bound_to 10713
  155.9700  130.4184  150.4328 LP  0  0  0  0  0  0  0  0  0  0  0  0  # atno 17371 bound_to 10713
  139.9113  135.0190  156.7705 LP  0  0  0  0  0  0  0  0  0  0  0  0  # atno 17394 bound_to 11000
  140.6664  133.9598  155.7833 LP  0  0  0  0  0  0  0  0  0  0  0  0  # atno 17395 bound_to 11000

$$$$
