AV-unprocessed.smi:1944|AV-procd|sdf|7854|dock10
  -GOLD-   2272010 03D 1   1.00000     0.00000
 Structure written by MMmdl.
 46 47  0  0  0  0  0  0  0  0  2 V2000
  152.8827  139.1426  155.4481 C   0  0  0  0  0  0  0  0  0  0  0  0
  151.7219  139.7668  154.9100 O   0  0  0  0  0  0  0  0  0  0  0  0
  150.8382  140.3768  155.7800 C   0  0  0  0  0  0  0  0  0  0  0  0
  151.3266  140.9062  156.9297 N   0  0  0  0  0  0  0  0  0  0  0  0
  150.4662  141.5048  157.7787 C   0  0  0  0  0  0  0  0  0  0  0  0
  149.0864  141.6139  157.5272 C   0  0  0  0  0  0  0  0  0  0  0  0
  148.5771  141.0654  156.3358 C   0  0  0  0  0  0  0  0  0  0  0  0
  149.4653  140.4196  155.4418 C   0  0  0  0  0  0  0  0  0  0  0  0
  149.0555  139.8531  154.2035 N   0  0  0  0  0  0  0  0  0  0  0  0
  147.8075  139.5838  153.7844 C   0  0  0  0  0  0  0  0  0  0  0  0
  146.7822  139.7535  154.4444 O   0  0  0  0  0  0  0  0  0  0  0  0
  147.8078  139.0756  152.5438 N   0  0  0  0  0  0  0  0  0  0  0  0
  146.6114  138.6899  151.8044 C   0  0  0  0  0  0  0  0  0  0  0  0
  145.7578  137.6822  152.5995 C   0  0  0  0  0  0  0  0  0  0  0  0
  146.2383  136.2790  152.4787 N   0  3  1  0  0  0  0  0  0  0  0  0
  146.1192  135.5359  153.7624 C   0  0  0  0  0  0  0  0  0  0  0  0
  146.8173  134.1688  153.6866 C   0  0  0  0  0  0  0  0  0  0  0  0
  146.2711  133.3352  152.5228 C   0  0  0  0  0  0  0  0  0  0  0  0
  146.3882  134.1294  151.2148 C   0  0  0  0  0  0  0  0  0  0  0  0
  145.7057  135.5111  151.3079 C   0  0  1  0  0  0  0  0  0  0  0  0
  144.1655  135.4026  151.2841 C   0  0  0  0  0  0  0  0  0  0  0  0
  153.4651  138.7058  154.6371 H   0  0  0  0  0  0  0  0  0  0  0  0
  152.6209  138.3379  156.1367 H   0  0  0  0  0  0  0  0  0  0  0  0
  153.5211  139.8618  155.9632 H   0  0  0  0  0  0  0  0  0  0  0  0
  150.8917  141.9155  158.6823 H   0  0  0  0  0  0  0  0  0  0  0  0
  148.4343  142.1117  158.2297 H   0  0  0  0  0  0  0  0  0  0  0  0
  147.5238  141.1638  156.1240 H   0  0  0  0  0  0  0  0  0  0  0  0
  149.8060  139.5676  153.5915 H   0  0  0  0  0  0  0  0  0  0  0  0
  148.6945  138.9616  152.0744 H   0  0  0  0  0  0  0  0  0  0  0  0
  146.0481  139.5909  151.5606 H   0  0  0  0  0  0  0  0  0  0  0  0
  146.9228  138.2495  150.8568 H   0  0  0  0  0  0  0  0  0  0  0  0
  145.7978  137.9708  153.6509 H   0  0  0  0  0  0  0  0  0  0  0  0
  144.7068  137.7462  152.3171 H   0  0  0  0  0  0  0  0  0  0  0  0
  146.5756  136.1159  154.5653 H   0  0  0  0  0  0  0  0  0  0  0  0
  145.0688  135.4139  154.0291 H   0  0  0  0  0  0  0  0  0  0  0  0
  147.8913  134.3129  153.5606 H   0  0  0  0  0  0  0  0  0  0  0  0
  146.6853  133.6299  154.6253 H   0  0  0  0  0  0  0  0  0  0  0  0
  146.8206  132.3968  152.4425 H   0  0  0  0  0  0  0  0  0  0  0  0
  145.2305  133.0690  152.7106 H   0  0  0  0  0  0  0  0  0  0  0  0
  147.4444  134.2675  150.9787 H   0  0  0  0  0  0  0  0  0  0  0  0
  145.9690  133.5538  150.3889 H   0  0  0  0  0  0  0  0  0  0  0  0
  145.9970  136.0402  150.4018 H   0  0  0  0  0  0  0  0  0  0  0  0
  143.8365  134.8097  150.4304 H   0  0  0  0  0  0  0  0  0  0  0  0
  143.6914  136.3788  151.1848 H   0  0  0  0  0  0  0  0  0  0  0  0
  143.7673  134.9266  152.1797 H   0  0  0  0  0  0  0  0  0  0  0  0
  147.2323  136.3541  152.3159 H   0  0  0  0  0  0  0  0  0  0  0  0
  1  2  1  0  0  0  0
  1 22  1  0  0  0  0
  1 23  1  0  0  0  0
  1 24  1  0  0  0  0
  2  3  1  0  0  0  0
  3  8  1  0  0  0  0
  3  4  2  0  0  0  0
  4  5  1  0  0  0  0
  5  6  2  0  0  0  0
  5 25  1  0  0  0  0
  6  7  1  0  0  0  0
  6 26  1  0  0  0  0
  7  8  2  0  0  0  0
  7 27  1  0  0  0  0
  8  9  1  0  0  0  0
  9 10  1  0  0  0  0
  9 28  1  0  0  0  0
 10 11  2  0  0  0  0
 10 12  1  0  0  0  0
 12 13  1  0  0  0  0
 12 29  1  0  0  0  0
 13 14  1  0  0  0  0
 13 30  1  0  0  0  0
 13 31  1  0  0  0  0
 14 15  1  0  0  0  0
 14 32  1  0  0  0  0
 14 33  1  0  0  0  0
 15 20  1  0  0  0  0
 15 16  1  0  0  0  0
 15 46  1  0  0  0  0
 16 17  1  0  0  0  0
 16 34  1  0  0  0  0
 16 35  1  0  0  0  0
 17 18  1  0  0  0  0
 17 36  1  0  0  0  0
 17 37  1  0  0  0  0
 18 19  1  0  0  0  0
 18 38  1  0  0  0  0
 18 39  1  0  0  0  0
 19 20  1  0  0  0  0
 19 40  1  0  0  0  0
 19 41  1  0  0  0  0
 20 21  1  0  0  0  0
 20 42  1  0  0  0  0
 21 43  1  0  0  0  0
 21 44  1  0  0  0  0
 21 45  1  0  0  0  0
M  CHG  1  15   1
M  END
> <s_m_source_file>
AV-unprocessed.smi

> <i_m_source_file_index>
1944

> <i_lp_mmshare_version>
43012

> <i_f3d_flags>
0

> <s_epik_input>
W0NIM11PYzFuW2NIXVtjSF1bY0hdYzFbTkhdQyg9TylbTkhdW0NIMl1bQ0gyXU4yW0NIMl1bQ0gyXVtDSDJdW0NIMl1bQ0BIXTJbQ0gzXQ==

> <s_epik_cmdline>
J2VwaWtfcHl0aG9uJywgJy1waCcsICc3LjAnLCAnLXRuJywgJzgnLCAnLW1hJywgJzIwMCcsICctbWV0YWxfYmluZGluZycsICctaW1hZScsICc8aW5maWxlLm1hZT4nLCAnLW9tYWUnLCAnPG91dGZpbGUubWFlPic=

> <r_lp_tautomer_probability>
1

> <r_epik_Ionization_Penalty>
0.00219525

> <r_epik_Ionization_Penalty_Charging>
0.00211816

> <r_epik_Ionization_Penalty_Neutral>
7.7088e-05

> <r_epik_State_Penalty>
0.00145254

> <r_epik_Charging_Adjusted_Penalty>
0.0035707

> <i_epik_Tot_Q>
1

> <i_epik_Tot_abs_Q>
1

> <r_epik_Metal_State_Penalty>
-0

> <b_epik_Metal_Only>
0

> <s_lp_Force_Field>
OPLS_2005

> <r_lp_Energy>
22.8304

> <b_lp_Chiralities_Consistent>
1

> <s_lp_Variant>
AV-unprocessed.smi:1944-2

> <Gold.Version>
5.8.1

> <Gold.Id.Protein>
6NUR|6NUR_protein|mol2

> <Gold.PLP.Fitness>
44.7508

> <Gold.PLP.PLP>
-35.1120

> <Gold.PLP.part.hbond>
-4.6024

> <Gold.PLP.part.metal>
0.0000

> <Gold.PLP.part.buried>
-4.3723

> <Gold.PLP.part.nonpolar>
-27.0624

> <Gold.PLP.part.repulsive>
0.3937

> <Gold.PLP.ligand.clash>
0.0000

> <Gold.PLP.ligand.torsion>
0.9663

> <Gold.PLP.Chemscore.Hbond>
3.8350

> <Gold.PLP.Chemscore.CHOScore>
0.0000

> <Gold.PLP.Chemscore.Metal>
0.0000

> <Gold.Chemscore.Hbonds>
donor molecule, donor type, donor heavy atom, donor atom, acceptor molecule, acceptor atom, score
      L1  H    12    29       P1  7957  0.64
      L1  H    15    46       P1  7948  2.00
      P1  H  7989  7998       L1     2  1.00

> <Gold.PLP.Chemscore.Internal.Correction>
0.0661

> <Gold.Rescore>
     Score         DG    S(hbond)    S(metal)    S(lipo)     H(rot)  DE(clash)    DE(int)     intcor
     14.09     -18.09       2.74        0.00      67.06       1.71       0.50       3.50       ----

> <Gold.Chemscore.Fitness>
14.0931

> <Gold.Chemscore.DG>
-18.0888

> <Gold.Chemscore.ZeroCoef>
-5.4800

> <Gold.Chemscore.Hbond>
2.7373

> <Gold.Chemscore.Metal>
0.0000

> <Gold.Chemscore.Lipo>
67.0566

> <Gold.Chemscore.Internal_Hbond>
0.0000

> <Gold.Chemscore.DEClash>
0.4951

> <Gold.Chemscore.DEInternal>
3.5006

> <Gold.Chemscore.Rot>
1.7107

> <Gold.Chemscore.Internal.Correction>
   9.000000E+99

> <Gold.Chemscore.Hbonds>
donor molecule, donor type, donor heavy atom, donor atom, acceptor molecule, acceptor atom, score
      L1  H     9    28       P1  7957  0.01
      L1  H    12    29       P1  7957  0.61
      L1  H    15    46       P1  7948  1.00
      P1  H  7989  7998       L1     2  0.34

> <Gold.Chemscore.Hbond.Weighted>
-9.1426

> <Gold.Chemscore.Metal.Weighted>
-0.0000

> <Gold.Chemscore.Lipo.Weighted>
-7.8456

> <Gold.Chemscore.Internal_Hbond.Weighted>
0.0000

> <Gold.Chemscore.DEClash.Weighted>
0.4951

> <Gold.Chemscore.DEInternal.Weighted>
3.5006

> <Gold.Chemscore.Rot.Weighted>
4.3794

> <Gold.Chemscore.Internal.Correction.Weighted>
   9.000000E+99

> <Gold.Protein.RotatedTorsions>
[ 6907 6896 6895 6894 ] final -104.08 input  -60.11 | X-H torsion
[ 7974 7965 7964 7962 ] final -163.86 input  175.53 | X-H torsion
[ 8008 7997 7996 7995 ] final  -44.52 input   59.86 | X-H torsion
[ 10167 10162 10161 10158 ] final   49.90 input  -65.29 | X-H torsion
[ 10718 10713 10712 10709 ] final  -44.80 input   66.30 | X-H torsion
[ 10763 10752 10751 10750 ] final   75.11 input  -60.55 | X-H torsion
[ 11005 11000 10999 10996 ] final  -29.51 input  -57.11 | X-H torsion

> <Gold.Protein.ActiveResidues>
 VAL166  LYS551  ARG553  GLY616  TRP617  ASP618  TYR619  PRO620  LYS621  CYS622 
 ASP623  PHE694  ASN695  SER759  ASP760  ASP761  ALA762  ILE779  LEU786  VAL792 
 PHE793  MET794  SER795  GLU796  ALA797  LYS798  CYS799  TRP800  GLU811  SER814 

> <Gold.Protein.RotatedAtoms>
  150.7270  134.0331  159.3739 H   0  0  0  0  0  0  0  0  0  0  0  0  # atno 6907 bound_to 6896
  151.8301  135.0622  160.0445 H   0  0  0  0  0  0  0  0  0  0  0  0  # atno 6908 bound_to 6896
  152.2939  133.5553  159.5612 H   0  0  0  0  0  0  0  0  0  0  0  0  # atno 6909 bound_to 6896
  144.7313  140.3045  143.6198 H   0  0  0  0  0  0  0  0  0  0  0  0  # atno 7974 bound_to 7965
  154.3997  140.1420  156.3697 H   0  0  0  0  0  0  0  0  0  0  0  0  # atno 8008 bound_to 7997
  155.8104  140.3473  155.5433 H   0  0  0  0  0  0  0  0  0  0  0  0  # atno 8009 bound_to 7997
  155.8392  140.0924  157.1735 H   0  0  0  0  0  0  0  0  0  0  0  0  # atno 8010 bound_to 7997
  140.2780  144.3189  150.6272 H   0  0  0  0  0  0  0  0  0  0  0  0  # atno 10167 bound_to 10162
  156.2348  130.4175  149.8831 H   0  0  0  0  0  0  0  0  0  0  0  0  # atno 10718 bound_to 10713
  153.0632  135.5001  154.8141 H   0  0  0  0  0  0  0  0  0  0  0  0  # atno 10763 bound_to 10752
  154.6914  135.2985  154.9476 H   0  0  0  0  0  0  0  0  0  0  0  0  # atno 10764 bound_to 10752
  154.0229  135.6739  153.4827 H   0  0  0  0  0  0  0  0  0  0  0  0  # atno 10765 bound_to 10752
  140.9302  133.7343  156.0925 H   0  0  0  0  0  0  0  0  0  0  0  0  # atno 11005 bound_to 11000
  145.7726  139.1863  143.2203 LP  0  0  0  0  0  0  0  0  0  0  0  0  # atno 17320 bound_to 7965
  146.0898  140.7669  142.9601 LP  0  0  0  0  0  0  0  0  0  0  0  0  # atno 17321 bound_to 7965
  140.5835  143.2171  151.7385 LP  0  0  0  0  0  0  0  0  0  0  0  0  # atno 17342 bound_to 10162
  139.4970  144.4045  152.0146 LP  0  0  0  0  0  0  0  0  0  0  0  0  # atno 17343 bound_to 10162
  156.6432  130.8713  151.3518 LP  0  0  0  0  0  0  0  0  0  0  0  0  # atno 17370 bound_to 10713
  157.7149  130.9485  150.1221 LP  0  0  0  0  0  0  0  0  0  0  0  0  # atno 17371 bound_to 10713
  140.7872  134.3658  157.5473 LP  0  0  0  0  0  0  0  0  0  0  0  0  # atno 17394 bound_to 11000
  139.8794  134.9118  156.3046 LP  0  0  0  0  0  0  0  0  0  0  0  0  # atno 17395 bound_to 11000

$$$$
