AV-unprocessed.smi:1844|AV-procd|sdf|7508|dock4
  -GOLD-   22720 9213D 1   1.00000     0.00000
 Structure written by MMmdl.
 45 46  0  0  0  0  0  0  0  0  1 V2000
  146.3361  134.8815  161.9550 C   0  0  0  0  0  0  0  0  0  0  0  0
  147.2288  135.3265  160.8956 N   0  0  0  0  0  0  0  0  0  0  0  0
  147.3989  136.6083  160.5317 C   0  0  0  0  0  0  0  0  0  0  0  0
  146.7948  137.5246  161.0917 O   0  0  0  0  0  0  0  0  0  0  0  0
  148.3516  136.7910  159.4338 C   0  0  0  0  0  0  0  0  0  0  0  0
  148.0115  136.5632  158.0370 C   0  0  0  0  0  0  0  0  0  0  0  0
  148.9274  136.7570  157.0678 C   0  0  0  0  0  0  0  0  0  0  0  0
  150.2918  137.1978  157.3716 C   0  0  0  0  0  0  0  0  0  0  0  0
  151.1312  137.3807  156.4895 O   0  0  0  0  0  0  0  0  0  0  0  0
  150.5720  137.3918  158.6960 N   0  0  0  0  0  0  0  0  0  0  0  0
  151.9097  137.8311  159.1277 C   0  0  0  0  0  0  0  0  0  0  0  0
  152.3133  139.2057  158.5755 C   0  0  0  0  0  0  0  0  0  0  0  0
  152.8858  139.3125  157.4898 O   0  0  0  0  0  0  0  0  0  0  0  0
  151.9929  140.2575  159.3441 N   0  0  0  0  0  0  0  0  0  0  0  0
  152.2731  141.6566  159.0285 C   0  0  2  0  0  0  0  0  0  0  0  0
  152.2555  142.4930  160.3255 C   0  0  0  0  0  0  0  0  0  0  0  0
  152.4758  143.9859  160.0434 C   0  0  0  0  0  0  0  0  0  0  0  0
  151.4428  144.5137  159.0391 C   0  0  0  0  0  0  0  0  0  0  0  0
  151.4730  143.6967  157.7389 C   0  0  0  0  0  0  0  0  0  0  0  0
  151.2478  142.1931  157.9982 C   0  0  1  0  0  0  0  0  0  0  0  0
  151.2769  141.4076  156.6746 C   0  0  0  0  0  0  0  0  0  0  0  0
  149.6086  137.1938  159.7046 C   0  0  0  0  0  0  0  0  0  0  0  0
  146.4285  133.8041  162.0902 H   0  0  0  0  0  0  0  0  0  0  0  0
  145.2985  135.1065  161.7062 H   0  0  0  0  0  0  0  0  0  0  0  0
  146.5803  135.3654  162.9014 H   0  0  0  0  0  0  0  0  0  0  0  0
  147.7507  134.6163  160.4035 H   0  0  0  0  0  0  0  0  0  0  0  0
  147.0237  136.2386  157.7445 H   0  0  0  0  0  0  0  0  0  0  0  0
  148.6507  136.5836  156.0380 H   0  0  0  0  0  0  0  0  0  0  0  0
  151.9636  137.8722  160.2166 H   0  0  0  0  0  0  0  0  0  0  0  0
  152.6605  137.0947  158.8347 H   0  0  0  0  0  0  0  0  0  0  0  0
  151.5196  140.0765  160.2175 H   0  0  0  0  0  0  0  0  0  0  0  0
  153.2668  141.7301  158.5820 H   0  0  0  0  0  0  0  0  0  0  0  0
  151.3009  142.3608  160.8368 H   0  0  0  0  0  0  0  0  0  0  0  0
  153.0238  142.1371  161.0130 H   0  0  0  0  0  0  0  0  0  0  0  0
  152.4150  144.5527  160.9728 H   0  0  0  0  0  0  0  0  0  0  0  0
  153.4816  144.1402  159.6511 H   0  0  0  0  0  0  0  0  0  0  0  0
  150.4459  144.4678  159.4791 H   0  0  0  0  0  0  0  0  0  0  0  0
  151.6379  145.5646  158.8226 H   0  0  0  0  0  0  0  0  0  0  0  0
  150.7121  144.0758  157.0557 H   0  0  0  0  0  0  0  0  0  0  0  0
  152.4329  143.8441  157.2418 H   0  0  0  0  0  0  0  0  0  0  0  0
  150.2496  142.0791  158.4239 H   0  0  0  0  0  0  0  0  0  0  0  0
  152.2607  141.4587  156.2071 H   0  0  0  0  0  0  0  0  0  0  0  0
  150.5521  141.8088  155.9657 H   0  0  0  0  0  0  0  0  0  0  0  0
  151.0338  140.3553  156.8227 H   0  0  0  0  0  0  0  0  0  0  0  0
  149.9641  137.3986  160.7049 H   0  0  0  0  0  0  0  0  0  0  0  0
  1  2  1  0  0  0  0
  1 23  1  0  0  0  0
  1 24  1  0  0  0  0
  1 25  1  0  0  0  0
  2  3  1  0  0  0  0
  2 26  1  0  0  0  0
  3  4  2  0  0  0  0
  3  5  1  0  0  0  0
  5 22  2  0  0  0  0
  5  6  1  0  0  0  0
  6  7  2  0  0  0  0
  6 27  1  0  0  0  0
  7  8  1  0  0  0  0
  7 28  1  0  0  0  0
  8  9  2  0  0  0  0
  8 10  1  0  0  0  0
 10 11  1  0  0  0  0
 10 22  1  0  0  0  0
 11 12  1  0  0  0  0
 11 29  1  0  0  0  0
 11 30  1  0  0  0  0
 12 13  2  0  0  0  0
 12 14  1  0  0  0  0
 14 15  1  0  0  0  0
 14 31  1  0  0  0  0
 15 20  1  0  0  0  0
 15 16  1  0  0  0  0
 15 32  1  0  0  0  0
 16 17  1  0  0  0  0
 16 33  1  0  0  0  0
 16 34  1  0  0  0  0
 17 18  1  0  0  0  0
 17 35  1  0  0  0  0
 17 36  1  0  0  0  0
 18 19  1  0  0  0  0
 18 37  1  0  0  0  0
 18 38  1  0  0  0  0
 19 20  1  0  0  0  0
 19 39  1  0  0  0  0
 19 40  1  0  0  0  0
 20 21  1  0  0  0  0
 20 41  1  0  0  0  0
 21 42  1  0  0  0  0
 21 43  1  0  0  0  0
 21 44  1  0  0  0  0
 22 45  1  0  0  0  0
M  END
> <s_m_source_file>
AV-unprocessed.smi

> <i_m_source_file_index>
1844

> <i_lp_mmshare_version>
43012

> <i_f3d_flags>
0

> <s_epik_input>
W0NIM11bTkhdQyg9TyljMVtjSF1bY0hdYyg9TyluKFtjSF0xKVtDSDJdQyg9TylbTkhdW0NAQEhdMltDSDJdW0NIMl1bQ0gyXVtDSDJdW0NASF0yW0NIM10=

> <s_epik_cmdline>
J2VwaWtfcHl0aG9uJywgJy1waCcsICc3LjAnLCAnLXRuJywgJzgnLCAnLW1hJywgJzIwMCcsICctbWV0YWxfYmluZGluZycsICctaW1hZScsICc8aW5maWxlLm1hZT4nLCAnLW9tYWUnLCAnPG91dGZpbGUubWFlPic=

> <r_lp_tautomer_probability>
1

> <r_epik_Ionization_Penalty>
3.66612e-07

> <r_epik_Ionization_Penalty_Charging>
5.18929e-08

> <r_epik_Ionization_Penalty_Neutral>
3.14719e-07

> <r_epik_State_Penalty>
-0

> <r_epik_Charging_Adjusted_Penalty>
5.18929e-08

> <i_epik_Tot_Q>
0

> <i_epik_Tot_abs_Q>
0

> <r_epik_Metal_State_Penalty>
-0

> <b_epik_Metal_Only>
0

> <s_lp_Force_Field>
OPLS_2005

> <r_lp_Energy>
22.707

> <b_lp_Chiralities_Consistent>
1

> <s_lp_Variant>
AV-unprocessed.smi:1844-1

> <Gold.Version>
5.8.1

> <Gold.Id.Protein>
6NUR|6NUR_protein|mol2

> <Gold.PLP.Fitness>
44.3649

> <Gold.PLP.PLP>
-40.0906

> <Gold.PLP.part.hbond>
-3.0000

> <Gold.PLP.part.metal>
0.0000

> <Gold.PLP.part.buried>
-5.1926

> <Gold.PLP.part.nonpolar>
-32.7249

> <Gold.PLP.part.repulsive>
0.2179

> <Gold.PLP.ligand.clash>
0.0000

> <Gold.PLP.ligand.torsion>
2.1021

> <Gold.PLP.Chemscore.Hbond>
2.8240

> <Gold.PLP.Chemscore.CHOScore>
0.0000

> <Gold.PLP.Chemscore.Metal>
0.0000

> <Gold.Chemscore.Hbonds>
donor molecule, donor type, donor heavy atom, donor atom, acceptor molecule, acceptor atom, score
      P1  H  6934  6947       L1     4  1.00
      P1  H  7997  8009       L1    13  1.00

> <Gold.PLP.Chemscore.Internal.Correction>
0.0066

> <Gold.Rescore>
     Score         DG    S(hbond)    S(metal)    S(lipo)     H(rot)  DE(clash)    DE(int)     intcor
     18.72     -21.44       2.74        0.00      90.76       1.49       0.00       2.71       ----

> <Gold.Chemscore.Fitness>
18.7231

> <Gold.Chemscore.DG>
-21.4372

> <Gold.Chemscore.ZeroCoef>
-5.4800

> <Gold.Chemscore.Hbond>
2.7422

> <Gold.Chemscore.Metal>
0.0000

> <Gold.Chemscore.Lipo>
90.7583

> <Gold.Chemscore.Internal_Hbond>
0.0000

> <Gold.Chemscore.DEClash>
0.0009

> <Gold.Chemscore.DEInternal>
2.7132

> <Gold.Chemscore.Rot>
1.4923

> <Gold.Chemscore.Internal.Correction>
   9.000000E+99

> <Gold.Chemscore.Hbonds>
donor molecule, donor type, donor heavy atom, donor atom, acceptor molecule, acceptor atom, score
      P1  H  6934  6947       L1     4  0.95
      P1  H  7997  8009       L1    13  1.00

> <Gold.Chemscore.Hbond.Weighted>
-9.1589

> <Gold.Chemscore.Metal.Weighted>
-0.0000

> <Gold.Chemscore.Lipo.Weighted>
-10.6187

> <Gold.Chemscore.Internal_Hbond.Weighted>
0.0000

> <Gold.Chemscore.DEClash.Weighted>
0.0009

> <Gold.Chemscore.DEInternal.Weighted>
2.7132

> <Gold.Chemscore.Rot.Weighted>
3.8204

> <Gold.Chemscore.Internal.Correction.Weighted>
   9.000000E+99

> <Gold.Protein.RotatedTorsions>
[ 6907 6896 6895 6894 ] final  155.11 input  -60.11 | X-H torsion
[ 7974 7965 7964 7962 ] final  -51.35 input  175.53 | X-H torsion
[ 8008 7997 7996 7995 ] final  164.77 input   59.86 | X-H torsion
[ 10167 10162 10161 10158 ] final  -93.09 input  -65.29 | X-H torsion
[ 10718 10713 10712 10709 ] final -113.84 input   66.30 | X-H torsion
[ 10763 10752 10751 10750 ] final -155.90 input  -60.55 | X-H torsion
[ 11005 11000 10999 10996 ] final   80.33 input  -57.11 | X-H torsion

> <Gold.Protein.ActiveResidues>
 VAL166  LYS551  ARG553  GLY616  TRP617  ASP618  TYR619  PRO620  LYS621  CYS622 
 ASP623  PHE694  ASN695  SER759  ASP760  ASP761  ALA762  ILE779  LEU786  VAL792 
 PHE793  MET794  SER795  GLU796  ALA797  LYS798  CYS799  TRP800  GLU811  SER814 

> <Gold.Protein.RotatedAtoms>
  152.0489  133.4010  159.4368 H   0  0  0  0  0  0  0  0  0  0  0  0  # atno 6907 bound_to 6896
  150.6871  134.3330  159.4844 H   0  0  0  0  0  0  0  0  0  0  0  0  # atno 6908 bound_to 6896
  152.1138  134.9255  160.0616 H   0  0  0  0  0  0  0  0  0  0  0  0  # atno 6909 bound_to 6896
  145.9199  140.7842  142.9652 H   0  0  0  0  0  0  0  0  0  0  0  0  # atno 7974 bound_to 7965
  156.1854  140.1688  156.8195 H   0  0  0  0  0  0  0  0  0  0  0  0  # atno 8008 bound_to 7997
  154.5408  140.0737  156.8539 H   0  0  0  0  0  0  0  0  0  0  0  0  # atno 8009 bound_to 7997
  155.3219  140.3374  155.4243 H   0  0  0  0  0  0  0  0  0  0  0  0  # atno 8010 bound_to 7997
  140.3282  143.3010  151.9971 H   0  0  0  0  0  0  0  0  0  0  0  0  # atno 10167 bound_to 10162
  156.0792  130.5995  150.8696 H   0  0  0  0  0  0  0  0  0  0  0  0  # atno 10718 bound_to 10713
  154.7753  135.3157  154.8105 H   0  0  0  0  0  0  0  0  0  0  0  0  # atno 10763 bound_to 10752
  153.8831  135.6833  153.4770 H   0  0  0  0  0  0  0  0  0  0  0  0  # atno 10764 bound_to 10752
  153.1375  135.4753  154.9380 H   0  0  0  0  0  0  0  0  0  0  0  0  # atno 10765 bound_to 10752
  139.9139  134.7912  156.1895 H   0  0  0  0  0  0  0  0  0  0  0  0  # atno 11005 bound_to 11000
  144.6752  140.1960  143.7392 LP  0  0  0  0  0  0  0  0  0  0  0  0  # atno 17320 bound_to 7965
  145.8563  139.2200  143.1743 LP  0  0  0  0  0  0  0  0  0  0  0  0  # atno 17321 bound_to 7965
  139.4861  144.6256  151.7170 LP  0  0  0  0  0  0  0  0  0  0  0  0  # atno 17342 bound_to 10162
  140.5421  144.0562  150.6092 LP  0  0  0  0  0  0  0  0  0  0  0  0  # atno 17343 bound_to 10162
  157.5902  131.0944  150.9132 LP  0  0  0  0  0  0  0  0  0  0  0  0  # atno 17370 bound_to 10713
  156.9309  130.5349  149.5279 LP  0  0  0  0  0  0  0  0  0  0  0  0  # atno 17371 bound_to 10713
  141.0593  133.6850  156.1920 LP  0  0  0  0  0  0  0  0  0  0  0  0  # atno 17394 bound_to 11000
  140.6687  134.4891  157.5586 LP  0  0  0  0  0  0  0  0  0  0  0  0  # atno 17395 bound_to 11000

$$$$
