AV-unprocessed.smi:1677|AV-procd|sdf|6720|dock1
  -GOLD-   22720 7463D 1   1.00000     0.00000
 Structure written by MMmdl.
 37 38  0  0  0  0  0  0  0  0  2 V2000
  150.6742  137.8747  155.7159 C   0  0  0  0  0  0  0  0  0  0  0  0
  149.7745  139.1166  155.7707 C   0  0  2  0  0  0  0  0  0  0  0  0
  149.4843  139.6601  154.3549 C   0  0  0  0  0  0  0  0  0  0  0  0
  148.1916  140.3475  154.2600 N   0  0  0  0  0  0  0  0  0  0  0  0
  147.8617  141.5708  154.7845 C   0  0  0  0  0  0  0  0  0  0  0  0
  146.5586  141.8090  154.4309 C   0  0  0  0  0  0  0  0  0  0  0  0
  146.1466  140.7197  153.7111 N   0  3  0  0  0  0  0  0  0  0  0  0
  147.1390  139.8296  153.6129 C   0  0  0  0  0  0  0  0  0  0  0  0
  150.4204  140.1323  156.6015 N   0  0  0  0  0  0  0  0  0  0  0  0
  151.6205  140.6886  156.3694 C   0  0  0  0  0  0  0  0  0  0  0  0
  152.3252  140.3959  155.4030 O   0  0  0  0  0  0  0  0  0  0  0  0
  152.1115  141.7123  157.4002 C   0  0  2  0  0  0  0  0  0  0  0  0
  152.2554  141.0748  158.8013 C   0  0  0  0  0  0  0  0  0  0  0  0
  152.4839  142.1160  159.8828 C   0  0  0  0  0  0  0  0  0  0  0  0
  152.2473  143.4276  159.7083 C   0  0  0  0  0  0  0  0  0  0  0  0
  151.7206  144.0171  158.4117 C   0  0  0  0  0  0  0  0  0  0  0  0
  151.1760  142.9368  157.4581 C   0  0  0  0  0  0  0  0  0  0  0  0
  150.2099  137.0796  155.1319 H   0  0  0  0  0  0  0  0  0  0  0  0
  150.8617  137.4800  156.7151 H   0  0  0  0  0  0  0  0  0  0  0  0
  151.6388  138.1014  155.2605 H   0  0  0  0  0  0  0  0  0  0  0  0
  148.8330  138.8101  156.2306 H   0  0  0  0  0  0  0  0  0  0  0  0
  150.2700  140.3442  154.0303 H   0  0  0  0  0  0  0  0  0  0  0  0
  149.4621  138.8415  153.6344 H   0  0  0  0  0  0  0  0  0  0  0  0
  148.5633  142.1688  155.3482 H   0  0  0  0  0  0  0  0  0  0  0  0
  145.9115  142.6505  154.6309 H   0  0  0  0  0  0  0  0  0  0  0  0
  147.1006  138.8848  153.1006 H   0  0  0  0  0  0  0  0  0  0  0  0
  149.9132  140.4371  157.4201 H   0  0  0  0  0  0  0  0  0  0  0  0
  153.0965  142.0652  157.0880 H   0  0  0  0  0  0  0  0  0  0  0  0
  151.3678  140.5010  159.0714 H   0  0  0  0  0  0  0  0  0  0  0  0
  153.0957  140.3798  158.8056 H   0  0  0  0  0  0  0  0  0  0  0  0
  152.8434  141.7576  160.8362 H   0  0  0  0  0  0  0  0  0  0  0  0
  152.4428  144.1199  160.5141 H   0  0  0  0  0  0  0  0  0  0  0  0
  150.9386  144.7423  158.6374 H   0  0  0  0  0  0  0  0  0  0  0  0
  152.5342  144.5649  157.9356 H   0  0  0  0  0  0  0  0  0  0  0  0
  151.0339  143.3636  156.4642 H   0  0  0  0  0  0  0  0  0  0  0  0
  150.1883  142.6246  157.8019 H   0  0  0  0  0  0  0  0  0  0  0  0
  145.2249  140.6035  153.3087 H   0  0  0  0  0  0  0  0  0  0  0  0
  1  2  1  0  0  0  0
  1 18  1  0  0  0  0
  1 19  1  0  0  0  0
  1 20  1  0  0  0  0
  2  3  1  0  0  0  0
  2  9  1  0  0  0  0
  2 21  1  0  0  0  0
  3  4  1  0  0  0  0
  3 22  1  0  0  0  0
  3 23  1  0  0  0  0
  4  8  1  0  0  0  0
  4  5  1  0  0  0  0
  5  6  2  0  0  0  0
  5 24  1  0  0  0  0
  6  7  1  0  0  0  0
  6 25  1  0  0  0  0
  7  8  2  0  0  0  0
  7 37  1  0  0  0  0
  8 26  1  0  0  0  0
  9 10  1  0  0  0  0
  9 27  1  0  0  0  0
 10 11  2  0  0  0  0
 10 12  1  0  0  0  0
 12 17  1  0  0  0  0
 12 13  1  0  0  0  0
 12 28  1  0  0  0  0
 13 14  1  0  0  0  0
 13 29  1  0  0  0  0
 13 30  1  0  0  0  0
 14 15  2  0  0  0  0
 14 31  1  0  0  0  0
 15 16  1  0  0  0  0
 15 32  1  0  0  0  0
 16 17  1  0  0  0  0
 16 33  1  0  0  0  0
 16 34  1  0  0  0  0
 17 35  1  0  0  0  0
 17 36  1  0  0  0  0
M  CHG  1   7   1
M  END
> <s_m_source_file>
AV-unprocessed.smi

> <i_m_source_file_index>
1677

> <i_lp_mmshare_version>
43012

> <i_f3d_flags>
0

> <s_epik_input>
W2NIXTFuW2NIXVtjSF1uMVtDSDJdW0NAQEhdKFtDSDNdKVtOSF1DKD1PKVtDQEBIXTJbQ0gyXVtDSF09W0NIXVtDSDJdW0NIMl0y

> <s_epik_cmdline>
J2VwaWtfcHl0aG9uJywgJy1waCcsICc3LjAnLCAnLXRuJywgJzgnLCAnLW1hJywgJzIwMCcsICctbWV0YWxfYmluZGluZycsICctaW1hZScsICc8aW5maWxlLm1hZT4nLCAnLW9tYWUnLCAnPG91dGZpbGUubWFlPic=

> <r_lp_tautomer_probability>
1

> <r_epik_Ionization_Penalty>
0.245541

> <r_epik_Ionization_Penalty_Charging>
0

> <r_epik_Ionization_Penalty_Neutral>
0.245541

> <r_epik_State_Penalty>
0.236686

> <r_epik_Charging_Adjusted_Penalty>
0.236686

> <i_epik_Tot_Q>
1

> <i_epik_Tot_abs_Q>
1

> <r_epik_Metal_State_Penalty>
0.529594

> <b_epik_Metal_Only>
0

> <s_lp_Force_Field>
OPLS_2005

> <r_lp_Energy>
10.8723

> <b_lp_Chiralities_Consistent>
1

> <s_lp_Variant>
AV-unprocessed.smi:1677-1

> <Gold.Version>
5.8.1

> <Gold.Id.Protein>
6NUR|6NUR_protein|mol2

> <Gold.PLP.Fitness>
44.7875

> <Gold.PLP.PLP>
-33.3813

> <Gold.PLP.part.hbond>
-2.8565

> <Gold.PLP.part.metal>
0.0000

> <Gold.PLP.part.buried>
-2.0911

> <Gold.PLP.part.nonpolar>
-27.7785

> <Gold.PLP.part.repulsive>
0.0548

> <Gold.PLP.ligand.clash>
0.0000

> <Gold.PLP.ligand.torsion>
0.4734

> <Gold.PLP.Chemscore.Hbond>
3.1066

> <Gold.PLP.Chemscore.CHOScore>
0.9876

> <Gold.PLP.Chemscore.Metal>
0.0000

> <Gold.Chemscore.Hbonds>
donor molecule, donor type, donor heavy atom, donor atom, acceptor molecule, acceptor atom, score
      L1  H     7    37       P1 10175  2.00
      P1  H  7989  7998       L1    11  0.52
      P1  H  7997  8010       L1    11  0.65
      L1  C     5    24       P1  8028  0.88

> <Gold.PLP.Chemscore.Internal.Correction>
0.0707

> <Gold.Rescore>
     Score         DG    S(hbond)    S(metal)    S(lipo)     H(rot)  DE(clash)    DE(int)     intcor
     15.09     -17.29       1.91        0.00      86.09       1.81       0.49       1.71       ----

> <Gold.Chemscore.Fitness>
15.0897

> <Gold.Chemscore.DG>
-17.2875

> <Gold.Chemscore.ZeroCoef>
-5.4800

> <Gold.Chemscore.Hbond>
1.9102

> <Gold.Chemscore.Metal>
0.0000

> <Gold.Chemscore.Lipo>
86.0940

> <Gold.Chemscore.Internal_Hbond>
0.0000

> <Gold.Chemscore.DEClash>
0.4892

> <Gold.Chemscore.DEInternal>
1.7086

> <Gold.Chemscore.Rot>
1.8147

> <Gold.Chemscore.Internal.Correction>
   9.000000E+99

> <Gold.Chemscore.Hbonds>
donor molecule, donor type, donor heavy atom, donor atom, acceptor molecule, acceptor atom, score
      L1  H     7    37       P1 10175  0.93
      P1  H  7989  7998       L1    11  0.48
      P1  H  7997  8010       L1    11  0.38

> <Gold.Chemscore.Hbond.Weighted>
-6.3801

> <Gold.Chemscore.Metal.Weighted>
-0.0000

> <Gold.Chemscore.Lipo.Weighted>
-10.0730

> <Gold.Chemscore.Internal_Hbond.Weighted>
0.0000

> <Gold.Chemscore.DEClash.Weighted>
0.4892

> <Gold.Chemscore.DEInternal.Weighted>
1.7086

> <Gold.Chemscore.Rot.Weighted>
4.6456

> <Gold.Chemscore.Internal.Correction.Weighted>
   9.000000E+99

> <Gold.Protein.RotatedTorsions>
[ 6907 6896 6895 6894 ] final  -77.24 input  -60.11 | X-H torsion
[ 7974 7965 7964 7962 ] final -133.93 input  175.53 | X-H torsion
[ 8008 7997 7996 7995 ] final   89.54 input   59.86 | X-H torsion
[ 10167 10162 10161 10158 ] final -125.44 input  -65.29 | X-H torsion
[ 10718 10713 10712 10709 ] final   97.30 input   66.30 | X-H torsion
[ 10763 10752 10751 10750 ] final -148.06 input  -60.55 | X-H torsion
[ 11005 11000 10999 10996 ] final -176.49 input  -57.11 | X-H torsion

> <Gold.Protein.ActiveResidues>
 VAL166  LYS551  ARG553  GLY616  TRP617  ASP618  TYR619  PRO620  LYS621  CYS622 
 ASP623  PHE694  ASN695  SER759  ASP760  ASP761  ALA762  ILE779  LEU786  VAL792 
 PHE793  MET794  SER795  GLU796  ALA797  LYS798  CYS799  TRP800  GLU811  SER814 

> <Gold.Protein.RotatedAtoms>
  150.7004  134.4452  159.5310 H   0  0  0  0  0  0  0  0  0  0  0  0  # atno 6907 bound_to 6896
  152.2155  134.8459  160.0501 H   0  0  0  0  0  0  0  0  0  0  0  0  # atno 6908 bound_to 6896
  151.9329  133.3581  159.3974 H   0  0  0  0  0  0  0  0  0  0  0  0  # atno 6909 bound_to 6896
  144.9148  140.6941  143.5002 H   0  0  0  0  0  0  0  0  0  0  0  0  # atno 7974 bound_to 7965
  156.0012  140.3359  155.6847 H   0  0  0  0  0  0  0  0  0  0  0  0  # atno 8008 bound_to 7997
  155.6288  140.0683  157.2673 H   0  0  0  0  0  0  0  0  0  0  0  0  # atno 8009 bound_to 7997
  154.4250  140.1763  156.1437 H   0  0  0  0  0  0  0  0  0  0  0  0  # atno 8010 bound_to 7997
  139.9821  143.5732  152.2374 H   0  0  0  0  0  0  0  0  0  0  0  0  # atno 10167 bound_to 10162
  157.6914  131.0605  150.4623 H   0  0  0  0  0  0  0  0  0  0  0  0  # atno 10718 bound_to 10713
  154.8253  135.3344  154.6914 H   0  0  0  0  0  0  0  0  0  0  0  0  # atno 10763 bound_to 10752
  153.7541  135.6937  153.4944 H   0  0  0  0  0  0  0  0  0  0  0  0  # atno 10764 bound_to 10752
  153.2156  135.4467  155.0380 H   0  0  0  0  0  0  0  0  0  0  0  0  # atno 10765 bound_to 10752
  140.4515  134.6339  157.4803 H   0  0  0  0  0  0  0  0  0  0  0  0  # atno 11005 bound_to 11000
  145.3393  139.1737  143.4494 LP  0  0  0  0  0  0  0  0  0  0  0  0  # atno 17320 bound_to 7965
  146.3176  140.3432  142.8650 LP  0  0  0  0  0  0  0  0  0  0  0  0  # atno 17321 bound_to 7965
  139.6402  144.7654  151.2354 LP  0  0  0  0  0  0  0  0  0  0  0  0  # atno 17342 bound_to 10162
  140.7485  143.6330  150.8406 LP  0  0  0  0  0  0  0  0  0  0  0  0  # atno 17343 bound_to 10162
  156.4967  130.4107  149.6376 LP  0  0  0  0  0  0  0  0  0  0  0  0  # atno 17370 bound_to 10713
  156.3367  130.7360  151.2298 LP  0  0  0  0  0  0  0  0  0  0  0  0  # atno 17371 bound_to 10713
  140.0004  134.6846  155.9540 LP  0  0  0  0  0  0  0  0  0  0  0  0  # atno 17394 bound_to 11000
  141.1662  133.6537  156.4488 LP  0  0  0  0  0  0  0  0  0  0  0  0  # atno 17395 bound_to 11000

$$$$
