AV-unprocessed.smi:1067|AV-procd|sdf|4672|dock7
  -GOLD-   22720 3183D 1   1.00000     0.00000
 Structure written by MMmdl.
 50 52  0  0  0  0  0  0  0  0  1 V2000
  145.2766  136.8724  151.4842 N   0  0  0  0  0  0  0  0  0  0  0  0
  145.0222  135.6299  151.0618 C   0  0  0  0  0  0  0  0  0  0  0  0
  144.6000  135.4265  149.9245 O   0  0  0  0  0  0  0  0  0  0  0  0
  145.2886  134.4444  152.0337 C   0  0  0  0  0  0  0  0  0  0  0  0
  145.6337  135.0118  153.4408 C   0  0  0  0  0  0  0  0  0  0  0  0
  146.7953  135.9030  153.4598 N   0  0  0  0  0  0  0  0  0  0  0  0
  147.1227  136.7368  154.4569 C   0  0  0  0  0  0  0  0  0  0  0  0
  146.4569  136.8621  155.4846 O   0  0  0  0  0  0  0  0  0  0  0  0
  148.2510  137.4100  154.1747 N   0  0  0  0  0  0  0  0  0  0  0  0
  148.9206  138.3796  154.9685 C   0  0  0  0  0  0  0  0  0  0  0  0
  148.6558  138.6067  156.3389 C   0  0  0  0  0  0  0  0  0  0  0  0
  149.3957  139.5900  157.0229 C   0  0  0  0  0  0  0  0  0  0  0  0
  150.3898  140.3157  156.3249 C   0  0  0  0  0  0  0  0  0  0  0  0
  151.1428  141.3165  156.9695 N   0  0  0  0  0  0  0  0  0  0  0  0
  151.4355  141.2663  158.3932 C   0  0  0  0  0  0  0  0  0  0  0  0
  152.1767  142.5715  158.6786 C   0  0  0  0  0  0  0  0  0  0  0  0
  151.5489  143.5512  157.6868 C   0  0  0  0  0  0  0  0  0  0  0  0
  151.1998  142.6837  156.4715 C   0  0  0  0  0  0  0  0  0  0  0  0
  150.6502  140.0875  155.0156 N   0  0  0  0  0  0  0  0  0  0  0  0
  149.9394  139.1428  154.3650 C   0  0  0  0  0  0  0  0  0  0  0  0
  144.0617  133.4994  152.1656 C   0  0  0  0  0  0  0  0  0  0  0  0
  143.7810  132.7032  150.8758 C   0  0  0  0  0  0  0  0  0  0  0  0
  144.9302  131.9463  150.5175 O   0  0  0  0  0  0  0  0  0  0  0  0
  146.0663  132.7585  150.2486 C   0  0  0  0  0  0  0  0  0  0  0  0
  146.4513  133.5569  151.5091 C   0  0  0  0  0  0  0  0  0  0  0  0
  145.1051  137.6553  150.8697 H   0  0  0  0  0  0  0  0  0  0  0  0
  145.6337  137.0260  152.4160 H   0  0  0  0  0  0  0  0  0  0  0  0
  144.7855  135.5802  153.8245 H   0  0  0  0  0  0  0  0  0  0  0  0
  145.7751  134.1954  154.1511 H   0  0  0  0  0  0  0  0  0  0  0  0
  147.4049  135.8664  152.6557 H   0  0  0  0  0  0  0  0  0  0  0  0
  148.6435  137.2558  153.2575 H   0  0  0  0  0  0  0  0  0  0  0  0
  147.9116  138.0437  156.8804 H   0  0  0  0  0  0  0  0  0  0  0  0
  149.1873  139.7753  158.0658 H   0  0  0  0  0  0  0  0  0  0  0  0
  150.5013  141.2220  158.9546 H   0  0  0  0  0  0  0  0  0  0  0  0
  152.0378  140.3949  158.6523 H   0  0  0  0  0  0  0  0  0  0  0  0
  152.0856  142.8938  159.7161 H   0  0  0  0  0  0  0  0  0  0  0  0
  153.2373  142.4504  158.4537 H   0  0  0  0  0  0  0  0  0  0  0  0
  150.6345  143.9643  158.1147 H   0  0  0  0  0  0  0  0  0  0  0  0
  152.2070  144.3835  157.4367 H   0  0  0  0  0  0  0  0  0  0  0  0
  151.9790  142.7498  155.7116 H   0  0  0  0  0  0  0  0  0  0  0  0
  150.2560  142.9989  156.0252 H   0  0  0  0  0  0  0  0  0  0  0  0
  150.1889  138.9990  153.3238 H   0  0  0  0  0  0  0  0  0  0  0  0
  144.2455  132.7833  152.9681 H   0  0  0  0  0  0  0  0  0  0  0  0
  143.1681  134.0448  152.4714 H   0  0  0  0  0  0  0  0  0  0  0  0
  142.9502  132.0161  151.0373 H   0  0  0  0  0  0  0  0  0  0  0  0
  143.4907  133.3567  150.0523 H   0  0  0  0  0  0  0  0  0  0  0  0
  146.8928  132.1120  149.9529 H   0  0  0  0  0  0  0  0  0  0  0  0
  145.8662  133.4173  149.4025 H   0  0  0  0  0  0  0  0  0  0  0  0
  147.3424  134.1499  151.3000 H   0  0  0  0  0  0  0  0  0  0  0  0
  146.7466  132.8520  152.2876 H   0  0  0  0  0  0  0  0  0  0  0  0
  1  2  1  0  0  0  0
  1 26  1  0  0  0  0
  1 27  1  0  0  0  0
  2  3  2  0  0  0  0
  2  4  1  0  0  0  0
  4 25  1  0  0  0  0
  4  5  1  0  0  0  0
  4 21  1  0  0  0  0
  5  6  1  0  0  0  0
  5 28  1  0  0  0  0
  5 29  1  0  0  0  0
  6  7  1  0  0  0  0
  6 30  1  0  0  0  0
  7  8  2  0  0  0  0
  7  9  1  0  0  0  0
  9 10  1  0  0  0  0
  9 31  1  0  0  0  0
 10 20  1  0  0  0  0
 10 11  2  0  0  0  0
 11 12  1  0  0  0  0
 11 32  1  0  0  0  0
 12 13  2  0  0  0  0
 12 33  1  0  0  0  0
 13 14  1  0  0  0  0
 13 19  1  0  0  0  0
 14 18  1  0  0  0  0
 14 15  1  0  0  0  0
 15 16  1  0  0  0  0
 15 34  1  0  0  0  0
 15 35  1  0  0  0  0
 16 17  1  0  0  0  0
 16 36  1  0  0  0  0
 16 37  1  0  0  0  0
 17 18  1  0  0  0  0
 17 38  1  0  0  0  0
 17 39  1  0  0  0  0
 18 40  1  0  0  0  0
 18 41  1  0  0  0  0
 19 20  2  0  0  0  0
 20 42  1  0  0  0  0
 21 22  1  0  0  0  0
 21 43  1  0  0  0  0
 21 44  1  0  0  0  0
 22 23  1  0  0  0  0
 22 45  1  0  0  0  0
 22 46  1  0  0  0  0
 23 24  1  0  0  0  0
 24 25  1  0  0  0  0
 24 47  1  0  0  0  0
 24 48  1  0  0  0  0
 25 49  1  0  0  0  0
 25 50  1  0  0  0  0
M  END
> <s_m_source_file>
AV-unprocessed.smi

> <i_m_source_file_index>
1067

> <i_lp_mmshare_version>
43012

> <i_f3d_flags>
0

> <s_epik_input>
W0NIMl0xW0NIMl1PW0NIMl1bQ0gyXUMxKEMoPU8pW05IMl0pW0NIMl1bTkhdQyg9TylbTkhdYzJbY0hdW2NIXWMobltjSF0yKU4zW0NIMl1bQ0gyXVtDSDJdW0NIMl0z

> <s_epik_cmdline>
J2VwaWtfcHl0aG9uJywgJy1waCcsICc3LjAnLCAnLXRuJywgJzgnLCAnLW1hJywgJzIwMCcsICctbWV0YWxfYmluZGluZycsICctaW1hZScsICc8aW5maWxlLm1hZT4nLCAnLW9tYWUnLCAnPG91dGZpbGUubWFlPic=

> <r_lp_tautomer_probability>
1

> <r_epik_Ionization_Penalty>
0.0944962

> <r_epik_Ionization_Penalty_Charging>
0

> <r_epik_Ionization_Penalty_Neutral>
0.0944962

> <r_epik_State_Penalty>
0.0841646

> <r_epik_Charging_Adjusted_Penalty>
0.0841646

> <i_epik_Tot_Q>
0

> <i_epik_Tot_abs_Q>
0

> <r_epik_Metal_State_Penalty>
0.0725577

> <b_epik_Metal_Only>
0

> <s_lp_Force_Field>
OPLS_2005

> <r_lp_Energy>
34.2759

> <b_lp_Chiralities_Consistent>
1

> <s_lp_Variant>
AV-unprocessed.smi:1067-1

> <Gold.Version>
5.8.1

> <Gold.Id.Protein>
6NUR|6NUR_protein|mol2

> <Gold.PLP.Fitness>
48.5150

> <Gold.PLP.PLP>
-36.2942

> <Gold.PLP.part.hbond>
-4.0000

> <Gold.PLP.part.metal>
0.0000

> <Gold.PLP.part.buried>
-6.4341

> <Gold.PLP.part.nonpolar>
-27.9820

> <Gold.PLP.part.repulsive>
1.9736

> <Gold.PLP.ligand.clash>
0.9574

> <Gold.PLP.ligand.torsion>
0.9911

> <Gold.PLP.Chemscore.Hbond>
3.9920

> <Gold.PLP.Chemscore.CHOScore>
1.0000

> <Gold.PLP.Chemscore.Metal>
0.0000

> <Gold.Chemscore.Hbonds>
donor molecule, donor type, donor heavy atom, donor atom, acceptor molecule, acceptor atom, score
      L1  H     1    26       P1 10171  0.96
      L1  H     6    30       P1  7948  1.00
      L1  H     9    31       P1  7948  1.00
      P1  H  7989  7998       L1    19  1.00
      L1  C    20    42       P1  7957  1.00

> <Gold.PLP.Chemscore.Internal.Correction>
0.1845

> <Gold.Rescore>
     Score         DG    S(hbond)    S(metal)    S(lipo)     H(rot)  DE(clash)    DE(int)     intcor
     16.19     -22.48       3.45        0.00      86.28       1.81       1.44       4.85       ----

> <Gold.Chemscore.Fitness>
16.1851

> <Gold.Chemscore.DG>
-22.4770

> <Gold.Chemscore.ZeroCoef>
-5.4800

> <Gold.Chemscore.Hbond>
3.4519

> <Gold.Chemscore.Metal>
0.0000

> <Gold.Chemscore.Lipo>
86.2814

> <Gold.Chemscore.Internal_Hbond>
0.0000

> <Gold.Chemscore.DEClash>
1.4376

> <Gold.Chemscore.DEInternal>
4.8542

> <Gold.Chemscore.Rot>
1.8075

> <Gold.Chemscore.Internal.Correction>
   9.000000E+99

> <Gold.Chemscore.Hbonds>
donor molecule, donor type, donor heavy atom, donor atom, acceptor molecule, acceptor atom, score
      L1  H     1    26       P1 10171  0.92
      L1  H     6    30       P1  7948  0.96
      L1  H     9    31       P1  7948  0.96
      P1  H  7989  7998       L1    19  0.25

> <Gold.Chemscore.Hbond.Weighted>
-11.5292

> <Gold.Chemscore.Metal.Weighted>
-0.0000

> <Gold.Chemscore.Lipo.Weighted>
-10.0949

> <Gold.Chemscore.Internal_Hbond.Weighted>
0.0000

> <Gold.Chemscore.DEClash.Weighted>
1.4376

> <Gold.Chemscore.DEInternal.Weighted>
4.8542

> <Gold.Chemscore.Rot.Weighted>
4.6272

> <Gold.Chemscore.Internal.Correction.Weighted>
   9.000000E+99

> <Gold.Protein.RotatedTorsions>
[ 6907 6896 6895 6894 ] final  -43.41 input  -60.11 | X-H torsion
[ 7974 7965 7964 7962 ] final  128.24 input  175.53 | X-H torsion
[ 8008 7997 7996 7995 ] final -177.29 input   59.86 | X-H torsion
[ 10167 10162 10161 10158 ] final   39.95 input  -65.29 | X-H torsion
[ 10718 10713 10712 10709 ] final -138.44 input   66.30 | X-H torsion
[ 10763 10752 10751 10750 ] final  176.69 input  -60.55 | X-H torsion
[ 11005 11000 10999 10996 ] final -146.64 input  -57.11 | X-H torsion

> <Gold.Protein.ActiveResidues>
 VAL166  LYS551  ARG553  GLY616  TRP617  ASP618  TYR619  PRO620  LYS621  CYS622 
 ASP623  PHE694  ASN695  SER759  ASP760  ASP761  ALA762  ILE779  LEU786  VAL792 
 PHE793  MET794  SER795  GLU796  ALA797  LYS798  CYS799  TRP800  GLU811  SER814 

> <Gold.Protein.RotatedAtoms>
  150.9442  134.8849  159.7631 H   0  0  0  0  0  0  0  0  0  0  0  0  # atno 6907 bound_to 6896
  152.5093  134.3898  159.9390 H   0  0  0  0  0  0  0  0  0  0  0  0  # atno 6908 bound_to 6896
  151.3917  133.3746  159.2756 H   0  0  0  0  0  0  0  0  0  0  0  0  # atno 6909 bound_to 6896
  145.0417  139.3957  143.5098 H   0  0  0  0  0  0  0  0  0  0  0  0  # atno 7974 bound_to 7965
  156.0052  140.1229  157.0508 H   0  0  0  0  0  0  0  0  0  0  0  0  # atno 8008 bound_to 7997
  154.4256  140.1099  156.5821 H   0  0  0  0  0  0  0  0  0  0  0  0  # atno 8009 bound_to 7997
  155.6157  140.3472  155.4638 H   0  0  0  0  0  0  0  0  0  0  0  0  # atno 8010 bound_to 7997
  140.3790  144.2005  150.6131 H   0  0  0  0  0  0  0  0  0  0  0  0  # atno 10167 bound_to 10162
  156.2994  130.7420  151.1467 H   0  0  0  0  0  0  0  0  0  0  0  0  # atno 10718 bound_to 10713
  154.4845  135.2776  155.1545 H   0  0  0  0  0  0  0  0  0  0  0  0  # atno 10763 bound_to 10752
  154.3241  135.6203  153.5525 H   0  0  0  0  0  0  0  0  0  0  0  0  # atno 10764 bound_to 10752
  152.9879  135.5750  154.5253 H   0  0  0  0  0  0  0  0  0  0  0  0  # atno 10765 bound_to 10752
  140.7799  134.3091  157.5048 H   0  0  0  0  0  0  0  0  0  0  0  0  # atno 11005 bound_to 11000
  146.3510  140.0021  142.8675 LP  0  0  0  0  0  0  0  0  0  0  0  0  # atno 17320 bound_to 7965
  145.1639  140.9687  143.4361 LP  0  0  0  0  0  0  0  0  0  0  0  0  # atno 17321 bound_to 7965
  140.4957  143.2333  151.8753 LP  0  0  0  0  0  0  0  0  0  0  0  0  # atno 17342 bound_to 10162
  139.4797  144.5116  151.8924 LP  0  0  0  0  0  0  0  0  0  0  0  0  # atno 17343 bound_to 10162
  157.7364  131.0563  150.5417 LP  0  0  0  0  0  0  0  0  0  0  0  0  # atno 17370 bound_to 10713
  156.5542  130.4239  149.6093 LP  0  0  0  0  0  0  0  0  0  0  0  0  # atno 17371 bound_to 10713
  139.8744  134.9312  156.3522 LP  0  0  0  0  0  0  0  0  0  0  0  0  # atno 17394 bound_to 11000
  140.9492  133.7462  156.0249 LP  0  0  0  0  0  0  0  0  0  0  0  0  # atno 17395 bound_to 11000

$$$$
