AV-unprocessed.smi:3113|AV-procd|sdf|11853|dock10
  -GOLD-   2272017233D 1   1.00000     0.00000
 Structure written by MMmdl.
 35 36  0  0  0  0  0  0  0  0  2 V2000
  151.1743  137.7294  154.6804 C   0  0  0  0  0  0  0  0  0  0  0  0
  151.9047  138.8840  155.0788 C   0  0  0  0  0  0  0  0  0  0  0  0
  151.1959  139.9969  154.9749 N   0  0  0  0  0  0  0  0  0  0  0  0
  149.9964  139.5915  154.5059 N   0  0  0  0  0  0  0  0  0  0  0  0
  148.9514  140.5682  154.2701 C   0  0  0  0  0  0  0  0  0  0  0  0
  148.5023  141.2427  155.5737 C   0  0  0  0  0  0  0  0  0  0  0  0
  149.6202  141.9690  156.2055 N   0  3  0  0  0  0  0  0  0  0  0  0
  150.0079  141.4428  157.5292 C   0  0  0  0  0  0  0  0  0  0  0  0
  151.2787  142.1317  158.0462 C   0  0  1  0  0  0  0  0  0  0  0  0
  151.3159  143.6270  157.6755 C   0  0  0  0  0  0  0  0  0  0  0  0
  152.5542  144.3001  158.2785 C   0  0  0  0  0  0  0  0  0  0  0  0
  152.6112  144.0263  159.7851 C   0  0  0  0  0  0  0  0  0  0  0  0
  152.4918  142.5188  160.0610 C   0  0  0  0  0  0  0  0  0  0  0  0
  151.3021  142.0073  159.4669 O   0  0  0  0  0  0  0  0  0  0  0  0
  149.9545  138.2257  154.3187 C   0  0  0  0  0  0  0  0  0  0  0  0
  151.4960  136.6986  154.6628 H   0  0  0  0  0  0  0  0  0  0  0  0
  152.9211  138.9458  155.4391 H   0  0  0  0  0  0  0  0  0  0  0  0
  149.3219  141.3109  153.5617 H   0  0  0  0  0  0  0  0  0  0  0  0
  148.1100  140.0658  153.7911 H   0  0  0  0  0  0  0  0  0  0  0  0
  147.6888  141.9408  155.3706 H   0  0  0  0  0  0  0  0  0  0  0  0
  148.1219  140.4964  156.2727 H   0  0  0  0  0  0  0  0  0  0  0  0
  150.4237  141.9162  155.5951 H   0  0  0  0  0  0  0  0  0  0  0  0
  149.1860  141.6146  158.2256 H   0  0  0  0  0  0  0  0  0  0  0  0
  150.1587  140.3639  157.4686 H   0  0  0  0  0  0  0  0  0  0  0  0
  152.1523  141.6328  157.6219 H   0  0  0  0  0  0  0  0  0  0  0  0
  151.3178  143.7493  156.5919 H   0  0  0  0  0  0  0  0  0  0  0  0
  150.4160  144.1214  158.0443 H   0  0  0  0  0  0  0  0  0  0  0  0
  153.4534  143.9106  157.7997 H   0  0  0  0  0  0  0  0  0  0  0  0
  152.5367  145.3732  158.0869 H   0  0  0  0  0  0  0  0  0  0  0  0
  153.5399  144.4146  160.2043 H   0  0  0  0  0  0  0  0  0  0  0  0
  151.7975  144.5535  160.2850 H   0  0  0  0  0  0  0  0  0  0  0  0
  153.3612  141.9822  159.6781 H   0  0  0  0  0  0  0  0  0  0  0  0
  152.4548  142.3371  161.1352 H   0  0  0  0  0  0  0  0  0  0  0  0
  149.0712  137.7256  153.9496 H   0  0  0  0  0  0  0  0  0  0  0  0
  149.3567  142.9384  156.3095 H   0  0  0  0  0  0  0  0  0  0  0  0
  1 15  2  0  0  0  0
  1  2  1  0  0  0  0
  1 16  1  0  0  0  0
  2  3  2  0  0  0  0
  2 17  1  0  0  0  0
  3  4  1  0  0  0  0
  4  5  1  0  0  0  0
  4 15  1  0  0  0  0
  5  6  1  0  0  0  0
  5 18  1  0  0  0  0
  5 19  1  0  0  0  0
  6  7  1  0  0  0  0
  6 20  1  0  0  0  0
  6 21  1  0  0  0  0
  7  8  1  0  0  0  0
  7 22  1  0  0  0  0
  7 35  1  0  0  0  0
  8  9  1  0  0  0  0
  8 23  1  0  0  0  0
  8 24  1  0  0  0  0
  9 14  1  0  0  0  0
  9 10  1  0  0  0  0
  9 25  1  0  0  0  0
 10 11  1  0  0  0  0
 10 26  1  0  0  0  0
 10 27  1  0  0  0  0
 11 12  1  0  0  0  0
 11 28  1  0  0  0  0
 11 29  1  0  0  0  0
 12 13  1  0  0  0  0
 12 30  1  0  0  0  0
 12 31  1  0  0  0  0
 13 14  1  0  0  0  0
 13 32  1  0  0  0  0
 13 33  1  0  0  0  0
 15 34  1  0  0  0  0
M  CHG  1   7   1
M  END
> <s_m_source_file>
AV-unprocessed.smi

> <i_m_source_file_index>
3113

> <i_lp_mmshare_version>
43012

> <i_f3d_flags>
0

> <s_epik_input>
W2NIXTFbY0hdW2NIXW5uMVtDSDJdW0NIMl1bTkhdW0NIMl1bQ0BASF0yW0NIMl1bQ0gyXVtDSDJdW0NIMl1PMg==

> <s_epik_cmdline>
J2VwaWtfcHl0aG9uJywgJy1waCcsICc3LjAnLCAnLXRuJywgJzgnLCAnLW1hJywgJzIwMCcsICctbWV0YWxfYmluZGluZycsICctaW1hZScsICc8aW5maWxlLm1hZT4nLCAnLW9tYWUnLCAnPG91dGZpbGUubWFlPic=

> <r_lp_tautomer_probability>
1

> <r_epik_Ionization_Penalty>
0.00849054

> <r_epik_Ionization_Penalty_Charging>
0.00848754

> <r_epik_Ionization_Penalty_Neutral>
3.00382e-06

> <r_epik_State_Penalty>
0.00639836

> <r_epik_Charging_Adjusted_Penalty>
0.0148859

> <i_epik_Tot_Q>
1

> <i_epik_Tot_abs_Q>
1

> <r_epik_Metal_State_Penalty>
0.00641155

> <b_epik_Metal_Only>
0

> <s_lp_Force_Field>
OPLS_2005

> <r_lp_Energy>
10.7636

> <b_lp_Chiralities_Consistent>
1

> <s_lp_Variant>
AV-unprocessed.smi:3113-2

> <Gold.Version>
5.8.1

> <Gold.Id.Protein>
6NUR|6NUR_protein|mol2

> <Gold.PLP.Fitness>
48.6983

> <Gold.PLP.PLP>
-38.9999

> <Gold.PLP.part.hbond>
-2.3642

> <Gold.PLP.part.metal>
0.0000

> <Gold.PLP.part.buried>
-2.8016

> <Gold.PLP.part.nonpolar>
-34.4697

> <Gold.PLP.part.repulsive>
0.1377

> <Gold.PLP.ligand.clash>
0.0000

> <Gold.PLP.ligand.torsion>
0.6447

> <Gold.PLP.Chemscore.Hbond>
2.6500

> <Gold.PLP.Chemscore.CHOScore>
1.0000

> <Gold.PLP.Chemscore.Metal>
0.0000

> <Gold.Chemscore.Hbonds>
donor molecule, donor type, donor heavy atom, donor atom, acceptor molecule, acceptor atom, score
      L1  H     7    35       P1  8028  2.00
      P1  H  7989  7998       L1     3  0.75
      L1  C    15    34       P1  7948  0.85

> <Gold.PLP.Chemscore.Internal.Correction>
0.0378

> <Gold.Rescore>
     Score         DG    S(hbond)    S(metal)    S(lipo)     H(rot)  DE(clash)    DE(int)     intcor
     18.14     -19.02       1.95        0.00      97.30       1.70       0.01       0.87       ----

> <Gold.Chemscore.Fitness>
18.1416

> <Gold.Chemscore.DG>
-19.0242

> <Gold.Chemscore.ZeroCoef>
-5.4800

> <Gold.Chemscore.Hbond>
1.9486

> <Gold.Chemscore.Metal>
0.0000

> <Gold.Chemscore.Lipo>
97.2991

> <Gold.Chemscore.Internal_Hbond>
0.0000

> <Gold.Chemscore.DEClash>
0.0129

> <Gold.Chemscore.DEInternal>
0.8697

> <Gold.Chemscore.Rot>
1.6985

> <Gold.Chemscore.Internal.Correction>
   9.000000E+99

> <Gold.Chemscore.Hbonds>
donor molecule, donor type, donor heavy atom, donor atom, acceptor molecule, acceptor atom, score
      L1  H     7    35       P1  8028  0.97
      P1  H  7989  7998       L1     3  0.07

> <Gold.Chemscore.Hbond.Weighted>
-6.5084

> <Gold.Chemscore.Metal.Weighted>
-0.0000

> <Gold.Chemscore.Lipo.Weighted>
-11.3840

> <Gold.Chemscore.Internal_Hbond.Weighted>
0.0000

> <Gold.Chemscore.DEClash.Weighted>
0.0129

> <Gold.Chemscore.DEInternal.Weighted>
0.8697

> <Gold.Chemscore.Rot.Weighted>
4.3482

> <Gold.Chemscore.Internal.Correction.Weighted>
   9.000000E+99

> <Gold.Protein.RotatedTorsions>
[ 6907 6896 6895 6894 ] final -131.81 input  -60.11 | X-H torsion
[ 7974 7965 7964 7962 ] final -102.80 input  175.53 | X-H torsion
[ 8008 7997 7996 7995 ] final  -96.87 input   59.86 | X-H torsion
[ 10167 10162 10161 10158 ] final   83.57 input  -65.29 | X-H torsion
[ 10718 10713 10712 10709 ] final  -71.73 input   66.30 | X-H torsion
[ 10763 10752 10751 10750 ] final  163.17 input  -60.55 | X-H torsion
[ 11005 11000 10999 10996 ] final  -52.10 input  -57.11 | X-H torsion

> <Gold.Protein.ActiveResidues>
 VAL166  LYS551  ARG553  GLY616  TRP617  ASP618  TYR619  PRO620  LYS621  CYS622 
 ASP623  PHE694  ASN695  SER759  ASP760  ASP761  ALA762  ILE779  LEU786  VAL792 
 PHE793  MET794  SER795  GLU796  ALA797  LYS798  CYS799  TRP800  GLU811  SER814 

> <Gold.Protein.RotatedAtoms>
  150.9551  133.6506  159.2764 H   0  0  0  0  0  0  0  0  0  0  0  0  # atno 6907 bound_to 6896
  151.3848  135.0945  159.9517 H   0  0  0  0  0  0  0  0  0  0  0  0  # atno 6908 bound_to 6896
  152.5126  133.9078  159.7528 H   0  0  0  0  0  0  0  0  0  0  0  0  # atno 6909 bound_to 6896
  145.2641  140.9278  143.3024 H   0  0  0  0  0  0  0  0  0  0  0  0  # atno 7974 bound_to 7965
  154.7802  140.0468  157.1121 H   0  0  0  0  0  0  0  0  0  0  0  0  # atno 8008 bound_to 7997
  154.9714  140.3090  155.4966 H   0  0  0  0  0  0  0  0  0  0  0  0  # atno 8009 bound_to 7997
  156.2935  140.2252  156.4807 H   0  0  0  0  0  0  0  0  0  0  0  0  # atno 8010 bound_to 7997
  139.9171  144.6236  150.8478 H   0  0  0  0  0  0  0  0  0  0  0  0  # atno 10167 bound_to 10162
  156.0350  130.4357  150.2487 H   0  0  0  0  0  0  0  0  0  0  0  0  # atno 10718 bound_to 10713
  154.2896  135.2761  155.2660 H   0  0  0  0  0  0  0  0  0  0  0  0  # atno 10763 bound_to 10752
  154.5145  135.5773  153.6635 H   0  0  0  0  0  0  0  0  0  0  0  0  # atno 10764 bound_to 10752
  152.9916  135.6189  154.3060 H   0  0  0  0  0  0  0  0  0  0  0  0  # atno 10765 bound_to 10752
  141.0907  133.6633  156.3975 H   0  0  0  0  0  0  0  0  0  0  0  0  # atno 11005 bound_to 11000
  144.9392  139.4208  143.6457 LP  0  0  0  0  0  0  0  0  0  0  0  0  # atno 17320 bound_to 7965
  146.3266  139.8344  142.8902 LP  0  0  0  0  0  0  0  0  0  0  0  0  # atno 17321 bound_to 7965
  140.7671  143.3324  151.2382 LP  0  0  0  0  0  0  0  0  0  0  0  0  # atno 17342 bound_to 10162
  139.6893  143.9719  152.2851 LP  0  0  0  0  0  0  0  0  0  0  0  0  # atno 17343 bound_to 10162
  157.0587  131.0083  151.3230 LP  0  0  0  0  0  0  0  0  0  0  0  0  # atno 17370 bound_to 10713
  157.5087  130.7925  149.7681 LP  0  0  0  0  0  0  0  0  0  0  0  0  # atno 17371 bound_to 10713
  140.5259  134.6259  157.5334 LP  0  0  0  0  0  0  0  0  0  0  0  0  # atno 17394 bound_to 11000
  139.9732  134.7258  156.0001 LP  0  0  0  0  0  0  0  0  0  0  0  0  # atno 17395 bound_to 11000

$$$$
