AV-unprocessed.smi:2826|AV-procd|sdf|10892|dock2
  -GOLD-   2272015343D 1   1.00000     0.00000
 Structure written by MMmdl.
 50 51  0  0  0  0  0  0  0  0  1 V2000
  150.7021  142.8598  157.5449 C   0  0  0  0  0  0  0  0  0  0  0  0
  151.3316  142.0879  156.5282 O   0  0  0  0  0  0  0  0  0  0  0  0
  150.5643  141.1839  155.8228 C   0  0  0  0  0  0  0  0  0  0  0  0
  149.1934  141.4538  155.6494 C   0  0  0  0  0  0  0  0  0  0  0  0
  148.4065  140.5382  154.9262 C   0  0  0  0  0  0  0  0  0  0  0  0
  149.0161  139.3795  154.3879 C   0  0  0  0  0  0  0  0  0  0  0  0
  148.2987  138.3893  153.6599 N   0  0  0  0  0  0  0  0  0  0  0  0
  146.9696  138.2012  153.5990 C   0  0  0  0  0  0  0  0  0  0  0  0
  146.1269  138.8818  154.1838 O   0  0  0  0  0  0  0  0  0  0  0  0
  146.6621  137.1781  152.7895 N   0  0  0  0  0  0  0  0  0  0  0  0
  145.3078  136.7230  152.4779 C   0  0  2  0  0  0  0  0  0  0  0  0
  144.6511  136.1006  153.7200 C   0  0  0  0  0  0  0  0  0  0  0  0
  145.2453  134.7171  154.0351 C   0  0  0  0  0  0  0  0  0  0  0  0
  145.1388  133.8708  152.8958 O   0  0  0  0  0  0  0  0  0  0  0  0
  145.8792  134.3399  151.7716 C   0  0  1  0  0  0  0  0  0  0  0  0
  145.7897  133.2883  150.6501 C   0  0  0  0  0  0  0  0  0  0  0  0
  144.4032  133.1708  149.9800 C   0  0  0  0  0  0  0  0  0  0  0  0
  143.3410  132.5706  150.9167 C   0  0  0  0  0  0  0  0  0  0  0  0
  144.4980  132.3490  148.6852 C   0  0  0  0  0  0  0  0  0  0  0  0
  145.3026  135.6997  151.3266 C   0  0  0  0  0  0  0  0  0  0  0  0
  150.3977  139.1895  154.6330 C   0  0  0  0  0  0  0  0  0  0  0  0
  151.1331  137.9660  154.1144 C   0  0  0  0  0  0  0  0  0  0  0  0
  151.1540  140.0686  155.3268 N   0  0  0  0  0  0  0  0  0  0  0  0
  151.4399  143.5124  158.0110 H   0  0  0  0  0  0  0  0  0  0  0  0
  150.2815  142.2249  158.3261 H   0  0  0  0  0  0  0  0  0  0  0  0
  149.9140  143.4924  157.1341 H   0  0  0  0  0  0  0  0  0  0  0  0
  148.7514  142.3466  156.0665 H   0  0  0  0  0  0  0  0  0  0  0  0
  147.3516  140.7348  154.8117 H   0  0  0  0  0  0  0  0  0  0  0  0
  148.8581  137.8072  153.0538 H   0  0  0  0  0  0  0  0  0  0  0  0
  147.4201  136.6787  152.3477 H   0  0  0  0  0  0  0  0  0  0  0  0
  144.7188  137.5931  152.1823 H   0  0  0  0  0  0  0  0  0  0  0  0
  144.7493  136.7630  154.5810 H   0  0  0  0  0  0  0  0  0  0  0  0
  143.5809  135.9904  153.5399 H   0  0  0  0  0  0  0  0  0  0  0  0
  146.2880  134.7978  154.3460 H   0  0  0  0  0  0  0  0  0  0  0  0
  144.7041  134.2593  154.8632 H   0  0  0  0  0  0  0  0  0  0  0  0
  146.9232  134.4746  152.0556 H   0  0  0  0  0  0  0  0  0  0  0  0
  146.5323  133.5339  149.8896 H   0  0  0  0  0  0  0  0  0  0  0  0
  146.0788  132.3136  151.0456 H   0  0  0  0  0  0  0  0  0  0  0  0
  144.0725  134.1713  149.6988 H   0  0  0  0  0  0  0  0  0  0  0  0
  143.6411  131.5869  151.2784 H   0  0  0  0  0  0  0  0  0  0  0  0
  142.3862  132.4569  150.4023 H   0  0  0  0  0  0  0  0  0  0  0  0
  143.1604  133.2060  151.7831 H   0  0  0  0  0  0  0  0  0  0  0  0
  144.8229  131.3278  148.8869 H   0  0  0  0  0  0  0  0  0  0  0  0
  145.2087  132.7929  147.9875 H   0  0  0  0  0  0  0  0  0  0  0  0
  143.5334  132.2976  148.1794 H   0  0  0  0  0  0  0  0  0  0  0  0
  144.2760  135.5573  150.9866 H   0  0  0  0  0  0  0  0  0  0  0  0
  145.8542  136.0840  150.4677 H   0  0  0  0  0  0  0  0  0  0  0  0
  151.0628  137.9131  153.0277 H   0  0  0  0  0  0  0  0  0  0  0  0
  150.7003  137.0575  154.5337 H   0  0  0  0  0  0  0  0  0  0  0  0
  152.1899  137.9886  154.3829 H   0  0  0  0  0  0  0  0  0  0  0  0
  1  2  1  0  0  0  0
  1 24  1  0  0  0  0
  1 25  1  0  0  0  0
  1 26  1  0  0  0  0
  2  3  1  0  0  0  0
  3 23  1  0  0  0  0
  3  4  2  0  0  0  0
  4  5  1  0  0  0  0
  4 27  1  0  0  0  0
  5  6  2  0  0  0  0
  5 28  1  0  0  0  0
  6  7  1  0  0  0  0
  6 21  1  0  0  0  0
  7  8  1  0  0  0  0
  7 29  1  0  0  0  0
  8  9  2  0  0  0  0
  8 10  1  0  0  0  0
 10 11  1  0  0  0  0
 10 30  1  0  0  0  0
 11 20  1  0  0  0  0
 11 12  1  0  0  0  0
 11 31  1  0  0  0  0
 12 13  1  0  0  0  0
 12 32  1  0  0  0  0
 12 33  1  0  0  0  0
 13 14  1  0  0  0  0
 13 34  1  0  0  0  0
 13 35  1  0  0  0  0
 14 15  1  0  0  0  0
 15 16  1  0  0  0  0
 15 20  1  0  0  0  0
 15 36  1  0  0  0  0
 16 17  1  0  0  0  0
 16 37  1  0  0  0  0
 16 38  1  0  0  0  0
 17 18  1  0  0  0  0
 17 19  1  0  0  0  0
 17 39  1  0  0  0  0
 18 40  1  0  0  0  0
 18 41  1  0  0  0  0
 18 42  1  0  0  0  0
 19 43  1  0  0  0  0
 19 44  1  0  0  0  0
 19 45  1  0  0  0  0
 20 46  1  0  0  0  0
 20 47  1  0  0  0  0
 21 22  1  0  0  0  0
 21 23  2  0  0  0  0
 22 48  1  0  0  0  0
 22 49  1  0  0  0  0
 22 50  1  0  0  0  0
M  END
> <s_m_source_file>
AV-unprocessed.smi

> <i_m_source_file_index>
2826

> <i_lp_mmshare_version>
43012

> <i_f3d_flags>
0

> <s_epik_input>
W0NIM11PYzFbY0hdW2NIXWMoYyhuMSlbQ0gzXSlbTkhdQyg9TylbTkhdW0NAQEhdMltDSDJdW0NIMl1PW0NASF0oW0NIMl0yKVtDSDJdW0NIXShbQ0gzXSlbQ0gzXQ==

> <s_epik_cmdline>
J2VwaWtfcHl0aG9uJywgJy1waCcsICc3LjAnLCAnLXRuJywgJzgnLCAnLW1hJywgJzIwMCcsICctbWV0YWxfYmluZGluZycsICctaW1hZScsICc8aW5maWxlLm1hZT4nLCAnLW9tYWUnLCAnPG91dGZpbGUubWFlPic=

> <r_lp_tautomer_probability>
1

> <r_epik_Ionization_Penalty>
0.000249977

> <r_epik_Ionization_Penalty_Charging>
0

> <r_epik_Ionization_Penalty_Neutral>
0.000249977

> <r_epik_State_Penalty>
-0

> <r_epik_Charging_Adjusted_Penalty>
0

> <i_epik_Tot_Q>
0

> <i_epik_Tot_abs_Q>
0

> <r_epik_Metal_State_Penalty>
-0

> <b_epik_Metal_Only>
0

> <s_lp_Force_Field>
OPLS_2005

> <r_lp_Energy>
13.0861

> <b_lp_Chiralities_Consistent>
1

> <s_lp_Variant>
AV-unprocessed.smi:2826-1

> <Gold.Version>
5.8.1

> <Gold.Id.Protein>
6NUR|6NUR_protein|mol2

> <Gold.PLP.Fitness>
42.0758

> <Gold.PLP.PLP>
-36.3000

> <Gold.PLP.part.hbond>
-3.1695

> <Gold.PLP.part.metal>
0.0000

> <Gold.PLP.part.buried>
-3.2355

> <Gold.PLP.part.nonpolar>
-31.6669

> <Gold.PLP.part.repulsive>
0.3431

> <Gold.PLP.ligand.clash>
0.0000

> <Gold.PLP.ligand.torsion>
0.6394

> <Gold.PLP.Chemscore.Hbond>
2.2869

> <Gold.PLP.Chemscore.CHOScore>
0.0000

> <Gold.PLP.Chemscore.Metal>
0.0000

> <Gold.Chemscore.Hbonds>
donor molecule, donor type, donor heavy atom, donor atom, acceptor molecule, acceptor atom, score
      L1  H     7    29       P1  7948  0.99
      L1  H    10    30       P1  7948  1.00
      P1  H  7989  7998       L1    23  0.23

> <Gold.PLP.Chemscore.Internal.Correction>
0.1939

> <Gold.Rescore>
     Score         DG    S(hbond)    S(metal)    S(lipo)     H(rot)  DE(clash)    DE(int)     intcor
     17.37     -19.77       1.92        0.00     100.18       1.51       0.42       1.98       ----

> <Gold.Chemscore.Fitness>
17.3656

> <Gold.Chemscore.DG>
-19.7678

> <Gold.Chemscore.ZeroCoef>
-5.4800

> <Gold.Chemscore.Hbond>
1.9225

> <Gold.Chemscore.Metal>
0.0000

> <Gold.Chemscore.Lipo>
100.1814

> <Gold.Chemscore.Internal_Hbond>
0.0000

> <Gold.Chemscore.DEClash>
0.4236

> <Gold.Chemscore.DEInternal>
1.9786

> <Gold.Chemscore.Rot>
1.5057

> <Gold.Chemscore.Internal.Correction>
   9.000000E+99

> <Gold.Chemscore.Hbonds>
donor molecule, donor type, donor heavy atom, donor atom, acceptor molecule, acceptor atom, score
      L1  H     7    29       P1  7948  0.92
      L1  H    10    30       P1  7948  1.00

> <Gold.Chemscore.Hbond.Weighted>
-6.4212

> <Gold.Chemscore.Metal.Weighted>
-0.0000

> <Gold.Chemscore.Lipo.Weighted>
-11.7212

> <Gold.Chemscore.Internal_Hbond.Weighted>
0.0000

> <Gold.Chemscore.DEClash.Weighted>
0.4236

> <Gold.Chemscore.DEInternal.Weighted>
1.9786

> <Gold.Chemscore.Rot.Weighted>
3.8547

> <Gold.Chemscore.Internal.Correction.Weighted>
   9.000000E+99

> <Gold.Protein.RotatedTorsions>
[ 6907 6896 6895 6894 ] final -119.00 input  -60.11 | X-H torsion
[ 7974 7965 7964 7962 ] final  157.91 input  175.53 | X-H torsion
[ 8008 7997 7996 7995 ] final  151.76 input   59.86 | X-H torsion
[ 10167 10162 10161 10158 ] final   30.97 input  -65.29 | X-H torsion
[ 10718 10713 10712 10709 ] final  -40.41 input   66.30 | X-H torsion
[ 10763 10752 10751 10750 ] final  -26.71 input  -60.55 | X-H torsion
[ 11005 11000 10999 10996 ] final -128.84 input  -57.11 | X-H torsion

> <Gold.Protein.ActiveResidues>
 VAL166  LYS551  ARG553  GLY616  TRP617  ASP618  TYR619  PRO620  LYS621  CYS622 
 ASP623  PHE694  ASN695  SER759  ASP760  ASP761  ALA762  ILE779  LEU786  VAL792 
 PHE793  MET794  SER795  GLU796  ALA797  LYS798  CYS799  TRP800  GLU811  SER814 

> <Gold.Protein.RotatedAtoms>
  150.8268  133.8158  159.3115 H   0  0  0  0  0  0  0  0  0  0  0  0  # atno 6907 bound_to 6896
  151.5900  135.1052  160.0046 H   0  0  0  0  0  0  0  0  0  0  0  0  # atno 6908 bound_to 6896
  152.4352  133.7307  159.6642 H   0  0  0  0  0  0  0  0  0  0  0  0  # atno 6909 bound_to 6896
  144.7876  139.7405  143.6234 H   0  0  0  0  0  0  0  0  0  0  0  0  # atno 7974 bound_to 7965
  156.2659  140.2039  156.6227 H   0  0  0  0  0  0  0  0  0  0  0  0  # atno 8008 bound_to 7997
  154.6744  140.0546  157.0224 H   0  0  0  0  0  0  0  0  0  0  0  0  # atno 8009 bound_to 7997
  155.1090  140.3213  155.4529 H   0  0  0  0  0  0  0  0  0  0  0  0  # atno 8010 bound_to 7997
  140.4631  144.0877  150.6217 H   0  0  0  0  0  0  0  0  0  0  0  0  # atno 10167 bound_to 10162
  156.2817  130.4218  149.8330 H   0  0  0  0  0  0  0  0  0  0  0  0  # atno 10718 bound_to 10713
  153.7204  135.6945  153.5014 H   0  0  0  0  0  0  0  0  0  0  0  0  # atno 10763 bound_to 10752
  153.2208  135.4370  155.0486 H   0  0  0  0  0  0  0  0  0  0  0  0  # atno 10764 bound_to 10752
  154.8286  135.3460  154.6737 H   0  0  0  0  0  0  0  0  0  0  0  0  # atno 10765 bound_to 10752
  140.9482  134.1101  157.4087 H   0  0  0  0  0  0  0  0  0  0  0  0  # atno 11005 bound_to 11000
  146.2114  139.5473  142.9678 LP  0  0  0  0  0  0  0  0  0  0  0  0  # atno 17320 bound_to 7965
  145.5880  141.0373  143.2085 LP  0  0  0  0  0  0  0  0  0  0  0  0  # atno 17321 bound_to 7965
  140.4069  143.2676  151.9879 LP  0  0  0  0  0  0  0  0  0  0  0  0  # atno 17342 bound_to 10162
  139.4808  144.5949  151.7708 LP  0  0  0  0  0  0  0  0  0  0  0  0  # atno 17343 bound_to 10162
  156.5775  130.8451  151.3374 LP  0  0  0  0  0  0  0  0  0  0  0  0  # atno 17370 bound_to 10713
  157.7316  130.9703  150.1889 LP  0  0  0  0  0  0  0  0  0  0  0  0  # atno 17371 bound_to 10713
  139.8839  135.0058  156.6336 LP  0  0  0  0  0  0  0  0  0  0  0  0  # atno 17394 bound_to 11000
  140.7640  133.8794  155.8440 LP  0  0  0  0  0  0  0  0  0  0  0  0  # atno 17395 bound_to 11000

$$$$
