AV-unprocessed.smi:3085|AV-procd|sdf|11763|dock5
  -GOLD-   2272017143D 1   1.00000     0.00000
 Structure written by MMmdl.
 26 27  0  0  0  0  0  0  0  0  2 V2000
  152.8249  143.1465  159.9336 C   0  0  0  0  0  0  0  0  0  0  0  0
  152.7046  141.6364  159.7055 C   0  0  0  0  0  0  0  0  0  0  0  0
  152.1372  141.3116  158.3413 C   0  0  0  0  0  0  0  0  0  0  0  0
  151.0906  141.9023  157.7740 N   0  0  0  0  0  0  0  0  0  0  0  0
  150.9723  141.3476  156.5583 C   0  0  0  0  0  0  0  0  0  0  0  0
  149.8883  141.6834  155.5534 C   0  0  1  0  0  0  0  0  0  0  0  0
  150.0334  140.8350  154.2736 C   0  0  0  0  0  0  0  0  0  0  0  0
  148.9788  141.1632  153.3142 N   0  0  0  0  0  0  0  0  0  0  0  0
  147.6546  141.0234  153.9160 C   0  0  0  0  0  0  0  0  0  0  0  0
  147.5616  141.8655  155.1996 C   0  0  0  0  0  0  0  0  0  0  0  0
  148.5887  141.4704  156.1014 O   0  0  0  0  0  0  0  0  0  0  0  0
  151.9192  140.4155  156.3692 N   0  0  0  0  0  0  0  0  0  0  0  0
  152.6372  140.4142  157.4737 N   0  5  0  0  0  0  0  0  0  0  0  0
  153.2356  143.3598  160.9202 H   0  0  0  0  0  0  0  0  0  0  0  0
  151.8509  143.6317  159.8635 H   0  0  0  0  0  0  0  0  0  0  0  0
  153.4810  143.6033  159.1920 H   0  0  0  0  0  0  0  0  0  0  0  0
  153.6830  141.1653  159.8014 H   0  0  0  0  0  0  0  0  0  0  0  0
  152.0648  141.1930  160.4690 H   0  0  0  0  0  0  0  0  0  0  0  0
  149.9953  142.7415  155.3066 H   0  0  0  0  0  0  0  0  0  0  0  0
  151.0113  141.0034  153.8217 H   0  0  0  0  0  0  0  0  0  0  0  0
  149.9860  139.7754  154.5284 H   0  0  0  0  0  0  0  0  0  0  0  0
  149.0526  140.5511  152.5084 H   0  0  0  0  0  0  0  0  0  0  0  0
  146.8861  141.3327  153.2075 H   0  0  0  0  0  0  0  0  0  0  0  0
  147.4630  139.9757  154.1512 H   0  0  0  0  0  0  0  0  0  0  0  0
  147.6419  142.9309  154.9778 H   0  0  0  0  0  0  0  0  0  0  0  0
  146.5946  141.7123  155.6790 H   0  0  0  0  0  0  0  0  0  0  0  0
  1  2  1  0  0  0  0
  1 14  1  0  0  0  0
  1 15  1  0  0  0  0
  1 16  1  0  0  0  0
  2  3  1  0  0  0  0
  2 17  1  0  0  0  0
  2 18  1  0  0  0  0
  3 13  1  0  0  0  0
  3  4  2  0  0  0  0
  4  5  1  0  0  0  0
  5  6  1  0  0  0  0
  5 12  2  0  0  0  0
  6 11  1  0  0  0  0
  6  7  1  0  0  0  0
  6 19  1  0  0  0  0
  7  8  1  0  0  0  0
  7 20  1  0  0  0  0
  7 21  1  0  0  0  0
  8  9  1  0  0  0  0
  8 22  1  0  0  0  0
  9 10  1  0  0  0  0
  9 23  1  0  0  0  0
  9 24  1  0  0  0  0
 10 11  1  0  0  0  0
 10 25  1  0  0  0  0
 10 26  1  0  0  0  0
 12 13  1  0  0  0  0
M  CHG  1  13  -1
M  END
> <s_m_source_file>
AV-unprocessed.smi

> <i_m_source_file_index>
3085

> <i_lp_mmshare_version>
43012

> <i_f3d_flags>
0

> <s_epik_input>
W0NIM11bQ0gyXWMxbmMobltuSF0xKVtDQEBIXTJbQ0gyXVtOSF1bQ0gyXVtDSDJdTzI=

> <s_epik_cmdline>
J2VwaWtfcHl0aG9uJywgJy1waCcsICc3LjAnLCAnLXRuJywgJzgnLCAnLW1hJywgJzIwMCcsICctbWV0YWxfYmluZGluZycsICctaW1hZScsICc8aW5maWxlLm1hZT4nLCAnLW9tYWUnLCAnPG91dGZpbGUubWFlPic=

> <r_lp_tautomer_probability>
0.948284

> <r_epik_Ionization_Penalty>
17.858

> <r_epik_Ionization_Penalty_Charging>
16.2847

> <r_epik_Ionization_Penalty_Neutral>
1.5733

> <r_epik_State_Penalty>
7.01418

> <r_epik_Charging_Adjusted_Penalty>
23.2989

> <i_epik_Tot_Q>
-1

> <i_epik_Tot_abs_Q>
1

> <r_epik_Metal_State_Penalty>
3.17281

> <b_epik_Metal_Only>
1

> <s_lp_Force_Field>
OPLS_2005

> <r_lp_Energy>
10.7333

> <b_lp_Chiralities_Consistent>
1

> <s_lp_Variant>
AV-unprocessed.smi:3085-14

> <Gold.Version>
5.8.1

> <Gold.Id.Protein>
6NUR|6NUR_protein|mol2

> <Gold.PLP.Fitness>
33.1982

> <Gold.PLP.PLP>
-22.6124

> <Gold.PLP.part.hbond>
-3.2691

> <Gold.PLP.part.metal>
0.0000

> <Gold.PLP.part.buried>
1.0405

> <Gold.PLP.part.nonpolar>
-20.6303

> <Gold.PLP.part.repulsive>
0.1566

> <Gold.PLP.ligand.clash>
0.0000

> <Gold.PLP.ligand.torsion>
0.1677

> <Gold.PLP.Chemscore.Hbond>
3.6360

> <Gold.PLP.Chemscore.CHOScore>
0.0000

> <Gold.PLP.Chemscore.Metal>
0.0000

> <Gold.Chemscore.Hbonds>
donor molecule, donor type, donor heavy atom, donor atom, acceptor molecule, acceptor atom, score
      L1  H     8    22       P1  7957  1.00
      P1  H  7997  8008       L1    13  1.76
      P1  H  8011  8017       L1     8  0.35

> <Gold.PLP.Chemscore.Internal.Correction>
0.0132

> <Gold.Rescore>
     Score         DG    S(hbond)    S(metal)    S(lipo)     H(rot)  DE(clash)    DE(int)     intcor
     11.72     -13.57       1.65        0.00      49.69       1.26       1.66       0.18       ----

> <Gold.Chemscore.Fitness>
11.7217

> <Gold.Chemscore.DG>
-13.5666

> <Gold.Chemscore.ZeroCoef>
-5.4800

> <Gold.Chemscore.Hbond>
1.6487

> <Gold.Chemscore.Metal>
0.0000

> <Gold.Chemscore.Lipo>
49.6873

> <Gold.Chemscore.Internal_Hbond>
0.0000

> <Gold.Chemscore.DEClash>
1.6612

> <Gold.Chemscore.DEInternal>
0.1837

> <Gold.Chemscore.Rot>
1.2630

> <Gold.Chemscore.Internal.Correction>
   9.000000E+99

> <Gold.Chemscore.Hbonds>
donor molecule, donor type, donor heavy atom, donor atom, acceptor molecule, acceptor atom, score
      L1  H     8    22       P1  7957  0.93
      P1  H  7997  8008       L1    13  0.34

> <Gold.Chemscore.Hbond.Weighted>
-5.5065

> <Gold.Chemscore.Metal.Weighted>
-0.0000

> <Gold.Chemscore.Lipo.Weighted>
-5.8134

> <Gold.Chemscore.Internal_Hbond.Weighted>
0.0000

> <Gold.Chemscore.DEClash.Weighted>
1.6612

> <Gold.Chemscore.DEInternal.Weighted>
0.1837

> <Gold.Chemscore.Rot.Weighted>
3.2333

> <Gold.Chemscore.Internal.Correction.Weighted>
   9.000000E+99

> <Gold.Protein.RotatedTorsions>
[ 6907 6896 6895 6894 ] final -128.04 input  -60.11 | X-H torsion
[ 7974 7965 7964 7962 ] final   16.27 input  175.53 | X-H torsion
[ 8008 7997 7996 7995 ] final  -71.61 input   59.86 | X-H torsion
[ 10167 10162 10161 10158 ] final  -86.52 input  -65.29 | X-H torsion
[ 10718 10713 10712 10709 ] final   59.94 input   66.30 | X-H torsion
[ 10763 10752 10751 10750 ] final   39.60 input  -60.55 | X-H torsion
[ 11005 11000 10999 10996 ] final   72.78 input  -57.11 | X-H torsion

> <Gold.Protein.ActiveResidues>
 VAL166  LYS551  ARG553  GLY616  TRP617  ASP618  TYR619  PRO620  LYS621  CYS622 
 ASP623  PHE694  ASN695  SER759  ASP760  ASP761  ALA762  ILE779  LEU786  VAL792 
 PHE793  MET794  SER795  GLU796  ALA797  LYS798  CYS799  TRP800  GLU811  SER814 

> <Gold.Protein.RotatedAtoms>
  150.9137  133.6966  159.2848 H   0  0  0  0  0  0  0  0  0  0  0  0  # atno 6907 bound_to 6896
  151.4444  135.1022  159.9689 H   0  0  0  0  0  0  0  0  0  0  0  0  # atno 6908 bound_to 6896
  152.4943  133.8538  159.7270 H   0  0  0  0  0  0  0  0  0  0  0  0  # atno 6909 bound_to 6896
  146.2254  139.8772  142.8577 H   0  0  0  0  0  0  0  0  0  0  0  0  # atno 7974 bound_to 7965
  154.5101  140.0812  156.7973 H   0  0  0  0  0  0  0  0  0  0  0  0  # atno 8008 bound_to 7997
  155.3803  140.3427  155.4228 H   0  0  0  0  0  0  0  0  0  0  0  0  # atno 8009 bound_to 7997
  156.1563  140.1574  156.8674 H   0  0  0  0  0  0  0  0  0  0  0  0  # atno 8010 bound_to 7997
  140.3933  143.2695  151.9236 H   0  0  0  0  0  0  0  0  0  0  0  0  # atno 10167 bound_to 10162
  157.5715  130.8911  149.9274 H   0  0  0  0  0  0  0  0  0  0  0  0  # atno 10718 bound_to 10713
  152.9962  135.6216  154.2491 H   0  0  0  0  0  0  0  0  0  0  0  0  # atno 10763 bound_to 10752
  154.2230  135.2795  155.2919 H   0  0  0  0  0  0  0  0  0  0  0  0  # atno 10764 bound_to 10752
  154.5513  135.5732  153.6982 H   0  0  0  0  0  0  0  0  0  0  0  0  # atno 10765 bound_to 10752
  139.9473  134.7290  156.0948 H   0  0  0  0  0  0  0  0  0  0  0  0  # atno 11005 bound_to 11000
  145.2548  141.0057  143.3860 LP  0  0  0  0  0  0  0  0  0  0  0  0  # atno 17320 bound_to 7965
  144.9345  139.4260  143.6479 LP  0  0  0  0  0  0  0  0  0  0  0  0  # atno 17321 bound_to 7965
  139.4788  144.5706  151.8094 LP  0  0  0  0  0  0  0  0  0  0  0  0  # atno 17342 bound_to 10162
  140.4817  144.1440  150.5934 LP  0  0  0  0  0  0  0  0  0  0  0  0  # atno 17343 bound_to 10162
  156.0760  130.3679  150.0677 LP  0  0  0  0  0  0  0  0  0  0  0  0  # atno 17370 bound_to 10713
  156.8829  130.9562  151.3597 LP  0  0  0  0  0  0  0  0  0  0  0  0  # atno 17371 bound_to 10713
  141.1127  133.6638  156.3018 LP  0  0  0  0  0  0  0  0  0  0  0  0  # atno 17394 bound_to 11000
  140.5803  134.5752  157.5478 LP  0  0  0  0  0  0  0  0  0  0  0  0  # atno 17395 bound_to 11000

$$$$
