AV-unprocessed.smi:1106|AV-procd|sdf|4778|dock2
  -GOLD-   22720 3313D 1   1.00000     0.00000
 Structure written by MMmdl.
 48 49  0  0  0  0  0  0  0  0  2 V2000
  151.4834  144.6650  159.0118 C   0  0  0  0  0  0  0  0  0  0  0  0
  151.9998  143.8857  157.7932 C   0  0  0  0  0  0  0  0  0  0  0  0
  152.2193  142.4904  158.0713 N   0  0  0  0  0  0  0  0  0  0  0  0
  153.0283  142.0766  159.1117 C   0  0  0  0  0  0  0  0  0  0  0  0
  153.2539  140.7747  159.3912 C   0  0  0  0  0  0  0  0  0  0  0  0
  154.0869  140.3740  160.4763 C   0  0  0  0  0  0  0  0  0  0  0  0
  154.7500  140.0621  161.3720 N   0  0  0  0  0  0  0  0  0  0  0  0
  152.6470  139.7138  158.5902 C   0  0  0  0  0  0  0  0  0  0  0  0
  152.7965  138.5116  158.8199 O   0  0  0  0  0  0  0  0  0  0  0  0
  151.8426  140.1740  157.5170 N   0  0  0  0  0  0  0  0  0  0  0  0
  151.1946  139.1737  156.6838 C   0  0  0  0  0  0  0  0  0  0  0  0
  151.5698  139.2910  155.1902 C   0  0  1  0  0  0  0  0  0  0  0  0
  152.9757  139.4042  155.0877 O   0  0  0  0  0  0  0  0  0  0  0  0
  151.1595  138.0301  154.4041 C   0  0  0  0  0  0  0  0  0  0  0  0
  149.6846  137.8825  154.3170 N   0  3  2  0  0  0  0  0  0  0  0  0
  148.9962  139.1313  153.8964 C   0  0  0  0  0  0  0  0  0  0  0  0
  147.4939  138.8880  153.6773 C   0  0  0  0  0  0  0  0  0  0  0  0
  146.8319  138.3062  154.9383 C   0  0  1  0  0  0  0  0  0  0  0  0
  145.3380  138.0293  154.7188 C   0  0  0  0  0  0  0  0  0  0  0  0
  147.5904  137.0400  155.3715 C   0  0  0  0  0  0  0  0  0  0  0  0
  149.0906  137.3233  155.5577 C   0  0  0  0  0  0  0  0  0  0  0  0
  151.5935  141.5383  157.2330 C   0  0  0  0  0  0  0  0  0  0  0  0
  150.8593  141.8855  156.3040 O   0  0  0  0  0  0  0  0  0  0  0  0
  151.2932  145.7056  158.7498 H   0  0  0  0  0  0  0  0  0  0  0  0
  152.2045  144.6582  159.8294 H   0  0  0  0  0  0  0  0  0  0  0  0
  150.5507  144.2402  159.3839 H   0  0  0  0  0  0  0  0  0  0  0  0
  151.2732  143.9187  156.9803 H   0  0  0  0  0  0  0  0  0  0  0  0
  152.9309  144.2941  157.3963 H   0  0  0  0  0  0  0  0  0  0  0  0
  153.4997  142.8264  159.7314 H   0  0  0  0  0  0  0  0  0  0  0  0
  151.3959  138.1818  157.0924 H   0  0  0  0  0  0  0  0  0  0  0  0
  150.1215  139.3061  156.8322 H   0  0  0  0  0  0  0  0  0  0  0  0
  151.1061  140.1760  154.7553 H   0  0  0  0  0  0  0  0  0  0  0  0
  153.3078  138.6460  154.6302 H   0  0  0  0  0  0  0  0  0  0  0  0
  151.5941  138.0870  153.4045 H   0  0  0  0  0  0  0  0  0  0  0  0
  151.5805  137.1345  154.8639 H   0  0  0  0  0  0  0  0  0  0  0  0
  149.1425  139.9017  154.6550 H   0  0  0  0  0  0  0  0  0  0  0  0
  149.4329  139.5131  152.9742 H   0  0  0  0  0  0  0  0  0  0  0  0
  147.0087  139.8242  153.3993 H   0  0  0  0  0  0  0  0  0  0  0  0
  147.3552  138.2068  152.8364 H   0  0  0  0  0  0  0  0  0  0  0  0
  146.9177  139.0429  155.7384 H   0  0  0  0  0  0  0  0  0  0  0  0
  145.1814  137.2998  153.9236 H   0  0  0  0  0  0  0  0  0  0  0  0
  144.8068  138.9408  154.4433 H   0  0  0  0  0  0  0  0  0  0  0  0
  144.8729  137.6392  155.6247 H   0  0  0  0  0  0  0  0  0  0  0  0
  147.1730  136.6525  156.3015 H   0  0  0  0  0  0  0  0  0  0  0  0
  147.4591  136.2557  154.6245 H   0  0  0  0  0  0  0  0  0  0  0  0
  149.5970  136.3945  155.8234 H   0  0  0  0  0  0  0  0  0  0  0  0
  149.2461  138.0188  156.3841 H   0  0  0  0  0  0  0  0  0  0  0  0
  149.5183  137.1941  153.5963 H   0  0  0  0  0  0  0  0  0  0  0  0
  1  2  1  0  0  0  0
  1 24  1  0  0  0  0
  1 25  1  0  0  0  0
  1 26  1  0  0  0  0
  2  3  1  0  0  0  0
  2 27  1  0  0  0  0
  2 28  1  0  0  0  0
  3 22  1  0  0  0  0
  3  4  1  0  0  0  0
  4  5  2  0  0  0  0
  4 29  1  0  0  0  0
  5  6  1  0  0  0  0
  5  8  1  0  0  0  0
  6  7  3  0  0  0  0
  8  9  2  0  0  0  0
  8 10  1  0  0  0  0
 10 11  1  0  0  0  0
 10 22  1  0  0  0  0
 11 12  1  0  0  0  0
 11 30  1  0  0  0  0
 11 31  1  0  0  0  0
 12 13  1  0  0  0  0
 12 14  1  0  0  0  0
 12 32  1  0  0  0  0
 13 33  1  0  0  0  0
 14 15  1  0  0  0  0
 14 34  1  0  0  0  0
 14 35  1  0  0  0  0
 15 21  1  0  0  0  0
 15 16  1  0  0  0  0
 15 48  1  0  0  0  0
 16 17  1  0  0  0  0
 16 36  1  0  0  0  0
 16 37  1  0  0  0  0
 17 18  1  0  0  0  0
 17 38  1  0  0  0  0
 17 39  1  0  0  0  0
 18 19  1  0  0  0  0
 18 20  1  0  0  0  0
 18 40  1  0  0  0  0
 19 41  1  0  0  0  0
 19 42  1  0  0  0  0
 19 43  1  0  0  0  0
 20 21  1  0  0  0  0
 20 44  1  0  0  0  0
 20 45  1  0  0  0  0
 21 46  1  0  0  0  0
 21 47  1  0  0  0  0
 22 23  2  0  0  0  0
M  CHG  1  15   1
M  END
> <s_m_source_file>
AV-unprocessed.smi

> <i_m_source_file_index>
1106

> <i_lp_mmshare_version>
43012

> <i_f3d_flags>
0

> <s_epik_input>
W0NIM11bQ0gyXW4xW2NIXWMoQyNOKWMoPU8pbihjMT1PKVtDSDJdW0NASF0oW09IXSlbQ0gyXU4yW0NIMl1bQ0gyXVtDSF0oW0NIM10pW0NIMl1bQ0gyXTI=

> <s_epik_cmdline>
J2VwaWtfcHl0aG9uJywgJy1waCcsICc3LjAnLCAnLXRuJywgJzgnLCAnLW1hJywgJzIwMCcsICctbWV0YWxfYmluZGluZycsICctaW1hZScsICc8aW5maWxlLm1hZT4nLCAnLW9tYWUnLCAnPG91dGZpbGUubWFlPic=

> <r_epik_Ionization_Penalty>
0.00136816

> <r_epik_Ionization_Penalty_Charging>
0.00136813

> <r_epik_Ionization_Penalty_Neutral>
3.19882e-08

> <r_epik_State_Penalty>
0.000910892

> <r_epik_Charging_Adjusted_Penalty>
0.00227902

> <i_epik_Tot_Q>
1

> <i_epik_Tot_abs_Q>
1

> <r_epik_Metal_State_Penalty>
-0

> <b_epik_Metal_Only>
0

> <s_lp_Force_Field>
OPLS_2005

> <r_lp_Energy>
28.6797

> <b_lp_Chiralities_Consistent>
1

> <s_lp_Variant>
AV-unprocessed.smi:1106-2

> <Gold.Version>
5.8.1

> <Gold.Id.Protein>
6NUR|6NUR_protein|mol2

> <Gold.PLP.Fitness>
47.5460

> <Gold.PLP.PLP>
-39.0022

> <Gold.PLP.part.hbond>
-3.0000

> <Gold.PLP.part.metal>
0.0000

> <Gold.PLP.part.buried>
-4.9395

> <Gold.PLP.part.nonpolar>
-31.7207

> <Gold.PLP.part.repulsive>
0.1198

> <Gold.PLP.ligand.clash>
0.0000

> <Gold.PLP.ligand.torsion>
0.2673

> <Gold.PLP.Chemscore.Hbond>
3.0000

> <Gold.PLP.Chemscore.CHOScore>
0.0000

> <Gold.PLP.Chemscore.Metal>
0.0000

> <Gold.Chemscore.Hbonds>
donor molecule, donor type, donor heavy atom, donor atom, acceptor molecule, acceptor atom, score
      L1  H    15    48       P1  7948  1.98
      P1  H  7997  8010       L1    13  1.00

> <Gold.PLP.Chemscore.Internal.Correction>
0.0785

> <Gold.Rescore>
     Score         DG    S(hbond)    S(metal)    S(lipo)     H(rot)  DE(clash)    DE(int)     intcor
     12.46     -14.35       1.75        0.00      80.10       2.48       0.32       1.56       ----

> <Gold.Chemscore.Fitness>
12.4613

> <Gold.Chemscore.DG>
-14.3476

> <Gold.Chemscore.ZeroCoef>
-5.4800

> <Gold.Chemscore.Hbond>
1.7528

> <Gold.Chemscore.Metal>
0.0000

> <Gold.Chemscore.Lipo>
80.0986

> <Gold.Chemscore.Internal_Hbond>
0.0000

> <Gold.Chemscore.DEClash>
0.3216

> <Gold.Chemscore.DEInternal>
1.5646

> <Gold.Chemscore.Rot>
2.4838

> <Gold.Chemscore.Internal.Correction>
   9.000000E+99

> <Gold.Chemscore.Hbonds>
donor molecule, donor type, donor heavy atom, donor atom, acceptor molecule, acceptor atom, score
      L1  H    15    48       P1  7948  0.84
      P1  H  7997  8010       L1    13  0.71

> <Gold.Chemscore.Hbond.Weighted>
-5.8545

> <Gold.Chemscore.Metal.Weighted>
-0.0000

> <Gold.Chemscore.Lipo.Weighted>
-9.3715

> <Gold.Chemscore.Internal_Hbond.Weighted>
0.0000

> <Gold.Chemscore.DEClash.Weighted>
0.3216

> <Gold.Chemscore.DEInternal.Weighted>
1.5646

> <Gold.Chemscore.Rot.Weighted>
6.3585

> <Gold.Chemscore.Internal.Correction.Weighted>
   9.000000E+99

> <Gold.Protein.RotatedTorsions>
[ 6907 6896 6895 6894 ] final   -8.45 input  -60.11 | X-H torsion
[ 7974 7965 7964 7962 ] final   78.29 input  175.53 | X-H torsion
[ 8008 7997 7996 7995 ] final   81.98 input   59.86 | X-H torsion
[ 10167 10162 10161 10158 ] final -121.26 input  -65.29 | X-H torsion
[ 10718 10713 10712 10709 ] final -132.19 input   66.30 | X-H torsion
[ 10763 10752 10751 10750 ] final  136.27 input  -60.55 | X-H torsion
[ 11005 11000 10999 10996 ] final   50.96 input  -57.11 | X-H torsion

> <Gold.Protein.ActiveResidues>
 VAL166  LYS551  ARG553  GLY616  TRP617  ASP618  TYR619  PRO620  LYS621  CYS622 
 ASP623  PHE694  ASN695  SER759  ASP760  ASP761  ALA762  ILE779  LEU786  VAL792 
 PHE793  MET794  SER795  GLU796  ALA797  LYS798  CYS799  TRP800  GLU811  SER814 

> <Gold.Protein.RotatedAtoms>
  151.4334  135.1012  159.9648 H   0  0  0  0  0  0  0  0  0  0  0  0  # atno 6907 bound_to 6896
  152.4948  133.8596  159.7253 H   0  0  0  0  0  0  0  0  0  0  0  0  # atno 6908 bound_to 6896
  150.9139  133.6905  159.2876 H   0  0  0  0  0  0  0  0  0  0  0  0  # atno 6909 bound_to 6896
  145.6791  139.2518  143.1824 H   0  0  0  0  0  0  0  0  0  0  0  0  # atno 7974 bound_to 7965
  155.9044  140.3431  155.6051 H   0  0  0  0  0  0  0  0  0  0  0  0  # atno 8008 bound_to 7997
  155.7461  140.0814  157.2242 H   0  0  0  0  0  0  0  0  0  0  0  0  # atno 8009 bound_to 7997
  154.4048  140.1562  156.2659 H   0  0  0  0  0  0  0  0  0  0  0  0  # atno 8010 bound_to 7997
  140.0270  143.5287  152.2194 H   0  0  0  0  0  0  0  0  0  0  0  0  # atno 10167 bound_to 10162
  156.2320  130.7043  151.0868 H   0  0  0  0  0  0  0  0  0  0  0  0  # atno 10718 bound_to 10713
  153.8537  135.3076  155.3434 H   0  0  0  0  0  0  0  0  0  0  0  0  # atno 10763 bound_to 10752
  154.7880  135.4799  153.9991 H   0  0  0  0  0  0  0  0  0  0  0  0  # atno 10764 bound_to 10752
  153.1503  135.6841  153.8986 H   0  0  0  0  0  0  0  0  0  0  0  0  # atno 10765 bound_to 10752
  140.0973  134.5128  155.8795 H   0  0  0  0  0  0  0  0  0  0  0  0  # atno 11005 bound_to 11000
  146.0980  140.7578  142.9563 LP  0  0  0  0  0  0  0  0  0  0  0  0  # atno 17320 bound_to 7965
  144.7032  140.3742  143.7139 LP  0  0  0  0  0  0  0  0  0  0  0  0  # atno 17321 bound_to 7965
  139.6102  144.7606  151.2970 LP  0  0  0  0  0  0  0  0  0  0  0  0  # atno 17342 bound_to 10162
  140.7318  143.6840  150.7977 LP  0  0  0  0  0  0  0  0  0  0  0  0  # atno 17343 bound_to 10162
  157.7137  131.0721  150.6406 LP  0  0  0  0  0  0  0  0  0  0  0  0  # atno 17370 bound_to 10713
  156.6474  130.4475  149.5731 LP  0  0  0  0  0  0  0  0  0  0  0  0  # atno 17371 bound_to 10713
  141.2095  133.6685  156.6448 LP  0  0  0  0  0  0  0  0  0  0  0  0  # atno 17394 bound_to 11000
  140.3269  134.7961  157.4296 LP  0  0  0  0  0  0  0  0  0  0  0  0  # atno 17395 bound_to 11000

$$$$
