AV-unprocessed.smi:2968|AV-procd|sdf|11328|dock7
  -GOLD-   2272016233D 1   1.00000     0.00000
 Structure written by MMmdl.
 45 46  0  0  0  0  0  0  0  0  1 V2000
  153.2913  139.8539  158.0424 O   0  0  0  0  0  0  0  0  0  0  0  0
  151.9168  140.1825  157.6330 S   0  0  0  0  0  0  0  0  0  0  0  0
  151.6039  140.3780  156.2085 O   0  0  0  0  0  0  0  0  0  0  0  0
  150.8251  138.9230  158.2780 C   0  0  0  0  0  0  0  0  0  0  0  0
  149.4818  138.8581  157.8619 C   0  0  0  0  0  0  0  0  0  0  0  0
  148.6701  137.8305  158.3806 C   0  0  0  0  0  0  0  0  0  0  0  0
  149.2381  136.9027  159.2800 C   0  0  0  0  0  0  0  0  0  0  0  0
  148.4415  135.8492  159.7511 N   0  0  0  0  0  0  0  0  0  0  0  0
  147.1165  136.1591  160.2801 C   0  0  0  0  0  0  0  0  0  0  0  0
  147.1093  136.2601  161.8151 C   0  0  0  0  0  0  0  0  0  0  0  0
  147.4645  135.0021  162.3627 O   0  0  0  0  0  0  0  0  0  0  0  0
  146.6138  133.9437  161.9629 C   0  0  0  0  0  0  0  0  0  0  0  0
  145.1711  134.3269  162.3154 C   0  0  0  0  0  0  0  0  0  0  0  0
  144.2954  133.2661  161.9949 O   0  0  0  0  0  0  0  0  0  0  0  0
  150.5282  136.9775  159.6886 N   0  0  0  0  0  0  0  0  0  0  0  0
  151.3052  137.9605  159.1868 C   0  0  0  0  0  0  0  0  0  0  0  0
  151.4335  141.6200  158.4878 N   0  0  0  0  0  0  0  0  0  0  0  0
  152.2227  142.0847  159.6475 C   0  0  0  0  0  0  0  0  0  0  0  0
  153.1603  143.2455  159.2697 C   0  0  0  0  0  0  0  0  0  0  0  0
  152.3870  144.3879  158.6028 C   0  0  0  0  0  0  0  0  0  0  0  0
  151.6260  143.8529  157.3852 C   0  0  0  0  0  0  0  0  0  0  0  0
  150.6996  142.6869  157.7755 C   0  0  0  0  0  0  0  0  0  0  0  0
  149.0788  139.5755  157.1628 H   0  0  0  0  0  0  0  0  0  0  0  0
  147.6374  137.7467  158.0749 H   0  0  0  0  0  0  0  0  0  0  0  0
  148.9321  135.0995  160.2164 H   0  0  0  0  0  0  0  0  0  0  0  0
  146.7101  137.0634  159.8258 H   0  0  0  0  0  0  0  0  0  0  0  0
  146.4569  135.3457  159.9772 H   0  0  0  0  0  0  0  0  0  0  0  0
  147.8355  137.0044  162.1440 H   0  0  0  0  0  0  0  0  0  0  0  0
  146.1281  136.5836  162.1672 H   0  0  0  0  0  0  0  0  0  0  0  0
  146.7073  133.8106  160.8841 H   0  0  0  0  0  0  0  0  0  0  0  0
  146.8934  133.0005  162.4355 H   0  0  0  0  0  0  0  0  0  0  0  0
  145.0772  134.5924  163.3688 H   0  0  0  0  0  0  0  0  0  0  0  0
  144.8663  135.1967  161.7333 H   0  0  0  0  0  0  0  0  0  0  0  0
  144.5238  132.5171  162.5242 H   0  0  0  0  0  0  0  0  0  0  0  0
  152.3298  137.9799  159.5273 H   0  0  0  0  0  0  0  0  0  0  0  0
  151.5312  142.4133  160.4239 H   0  0  0  0  0  0  0  0  0  0  0  0
  152.7932  141.2601  160.0738 H   0  0  0  0  0  0  0  0  0  0  0  0
  153.6685  143.6139  160.1610 H   0  0  0  0  0  0  0  0  0  0  0  0
  153.9417  142.8931  158.5978 H   0  0  0  0  0  0  0  0  0  0  0  0
  151.6875  144.8284  159.3142 H   0  0  0  0  0  0  0  0  0  0  0  0
  153.0713  145.1814  158.3013 H   0  0  0  0  0  0  0  0  0  0  0  0
  151.0395  144.6536  156.9341 H   0  0  0  0  0  0  0  0  0  0  0  0
  152.3360  143.5309  156.6248 H   0  0  0  0  0  0  0  0  0  0  0  0
  150.2047  142.2834  156.8925 H   0  0  0  0  0  0  0  0  0  0  0  0
  149.9085  143.0546  158.4296 H   0  0  0  0  0  0  0  0  0  0  0  0
  1  2  2  0  0  0  0
  2  3  2  0  0  0  0
  2  4  1  0  0  0  0
  2 17  1  0  0  0  0
  4 16  1  0  0  0  0
  4  5  2  0  0  0  0
  5  6  1  0  0  0  0
  5 23  1  0  0  0  0
  6  7  2  0  0  0  0
  6 24  1  0  0  0  0
  7  8  1  0  0  0  0
  7 15  1  0  0  0  0
  8  9  1  0  0  0  0
  8 25  1  0  0  0  0
  9 10  1  0  0  0  0
  9 26  1  0  0  0  0
  9 27  1  0  0  0  0
 10 11  1  0  0  0  0
 10 28  1  0  0  0  0
 10 29  1  0  0  0  0
 11 12  1  0  0  0  0
 12 13  1  0  0  0  0
 12 30  1  0  0  0  0
 12 31  1  0  0  0  0
 13 14  1  0  0  0  0
 13 32  1  0  0  0  0
 13 33  1  0  0  0  0
 14 34  1  0  0  0  0
 15 16  2  0  0  0  0
 16 35  1  0  0  0  0
 17 22  1  0  0  0  0
 17 18  1  0  0  0  0
 18 19  1  0  0  0  0
 18 36  1  0  0  0  0
 18 37  1  0  0  0  0
 19 20  1  0  0  0  0
 19 38  1  0  0  0  0
 19 39  1  0  0  0  0
 20 21  1  0  0  0  0
 20 40  1  0  0  0  0
 20 41  1  0  0  0  0
 21 22  1  0  0  0  0
 21 42  1  0  0  0  0
 21 43  1  0  0  0  0
 22 44  1  0  0  0  0
 22 45  1  0  0  0  0
M  END
> <s_m_source_file>
AV-unprocessed.smi

> <i_m_source_file_index>
2968

> <i_lp_mmshare_version>
43012

> <i_f3d_flags>
0

> <s_epik_input>
W0NIMl0xW0NIMl1bQ0gyXVtDSDJdW0NIMl1OMVMoPU8pKD1PKWMyW2NIXVtjSF1jKG5bY0hdMilbTkhdW0NIMl1bQ0gyXU9bQ0gyXVtDSDJdW09IXQ==

> <s_epik_cmdline>
J2VwaWtfcHl0aG9uJywgJy1waCcsICc3LjAnLCAnLXRuJywgJzgnLCAnLW1hJywgJzIwMCcsICctbWV0YWxfYmluZGluZycsICctaW1hZScsICc8aW5maWxlLm1hZT4nLCAnLW9tYWUnLCAnPG91dGZpbGUubWFlPic=

> <r_lp_tautomer_probability>
1

> <r_epik_Ionization_Penalty>
0.000398056

> <r_epik_Ionization_Penalty_Charging>
0

> <r_epik_Ionization_Penalty_Neutral>
0.000398056

> <r_epik_State_Penalty>
0.00024364

> <r_epik_Charging_Adjusted_Penalty>
0.00024364

> <i_epik_Tot_Q>
0

> <i_epik_Tot_abs_Q>
0

> <r_epik_Metal_State_Penalty>
-0

> <b_epik_Metal_Only>
0

> <s_lp_Force_Field>
OPLS_2005

> <r_lp_Energy>
3.3881

> <b_lp_Chiralities_Consistent>
1

> <s_lp_Variant>
AV-unprocessed.smi:2968-1

> <Gold.Version>
5.8.1

> <Gold.Id.Protein>
6NUR|6NUR_protein|mol2

> <Gold.PLP.Fitness>
48.8830

> <Gold.PLP.PLP>
-43.9859

> <Gold.PLP.part.hbond>
-2.3698

> <Gold.PLP.part.metal>
0.0000

> <Gold.PLP.part.buried>
-6.2261

> <Gold.PLP.part.nonpolar>
-35.3887

> <Gold.PLP.part.repulsive>
0.1609

> <Gold.PLP.ligand.clash>
0.0000

> <Gold.PLP.ligand.torsion>
2.6397

> <Gold.PLP.Chemscore.Hbond>
2.0000

> <Gold.PLP.Chemscore.CHOScore>
0.0000

> <Gold.PLP.Chemscore.Metal>
0.0000

> <Gold.Chemscore.Hbonds>
donor molecule, donor type, donor heavy atom, donor atom, acceptor molecule, acceptor atom, score
      P1  H  6896  6908       L1    15  0.99
      P1  H  7997  8008       L1     1  1.00

> <Gold.PLP.Chemscore.Internal.Correction>
4.1765

> <Gold.Rescore>
     Score         DG    S(hbond)    S(metal)    S(lipo)     H(rot)  DE(clash)    DE(int)     intcor
     14.03     -16.74       1.86        0.00      99.91       2.60       0.04       2.67       ----

> <Gold.Chemscore.Fitness>
14.0276

> <Gold.Chemscore.DG>
-16.7357

> <Gold.Chemscore.ZeroCoef>
-5.4800

> <Gold.Chemscore.Hbond>
1.8635

> <Gold.Chemscore.Metal>
0.0000

> <Gold.Chemscore.Lipo>
99.9148

> <Gold.Chemscore.Internal_Hbond>
0.0000

> <Gold.Chemscore.DEClash>
0.0402

> <Gold.Chemscore.DEInternal>
2.6678

> <Gold.Chemscore.Rot>
2.6009

> <Gold.Chemscore.Internal.Correction>
   9.000000E+99

> <Gold.Chemscore.Hbonds>
donor molecule, donor type, donor heavy atom, donor atom, acceptor molecule, acceptor atom, score
      P1  H  6896  6908       L1    15  0.23
      P1  H  7997  8008       L1     1  0.97

> <Gold.Chemscore.Hbond.Weighted>
-6.2240

> <Gold.Chemscore.Metal.Weighted>
-0.0000

> <Gold.Chemscore.Lipo.Weighted>
-11.6900

> <Gold.Chemscore.Internal_Hbond.Weighted>
0.0000

> <Gold.Chemscore.DEClash.Weighted>
0.0402

> <Gold.Chemscore.DEInternal.Weighted>
2.6678

> <Gold.Chemscore.Rot.Weighted>
6.6583

> <Gold.Chemscore.Internal.Correction.Weighted>
   9.000000E+99

> <Gold.Protein.RotatedTorsions>
[ 6907 6896 6895 6894 ] final -159.08 input  -60.11 | X-H torsion
[ 7974 7965 7964 7962 ] final  -53.60 input  175.53 | X-H torsion
[ 8008 7997 7996 7995 ] final  -94.36 input   59.86 | X-H torsion
[ 10167 10162 10161 10158 ] final  -72.75 input  -65.29 | X-H torsion
[ 10718 10713 10712 10709 ] final -113.29 input   66.30 | X-H torsion
[ 10763 10752 10751 10750 ] final  -84.39 input  -60.55 | X-H torsion
[ 11005 11000 10999 10996 ] final  -51.19 input  -57.11 | X-H torsion

> <Gold.Protein.ActiveResidues>
 VAL166  LYS551  ARG553  GLY616  TRP617  ASP618  TYR619  PRO620  LYS621  CYS622 
 ASP623  PHE694  ASN695  SER759  ASP760  ASP761  ALA762  ILE779  LEU786  VAL792 
 PHE793  MET794  SER795  GLU796  ALA797  LYS798  CYS799  TRP800  GLU811  SER814 

> <Gold.Protein.RotatedAtoms>
  151.3280  133.4012  159.2659 H   0  0  0  0  0  0  0  0  0  0  0  0  # atno 6907 bound_to 6896
  150.9979  134.9299  159.7947 H   0  0  0  0  0  0  0  0  0  0  0  0  # atno 6908 bound_to 6896
  152.5266  134.3245  159.9213 H   0  0  0  0  0  0  0  0  0  0  0  0  # atno 6909 bound_to 6896
  145.8950  140.8040  142.9772 H   0  0  0  0  0  0  0  0  0  0  0  0  # atno 7974 bound_to 7965
  154.7474  140.0490  157.0864 H   0  0  0  0  0  0  0  0  0  0  0  0  # atno 8008 bound_to 7997
  155.0101  140.3135  155.4814 H   0  0  0  0  0  0  0  0  0  0  0  0  # atno 8009 bound_to 7997
  156.2878  140.2186  156.5215 H   0  0  0  0  0  0  0  0  0  0  0  0  # atno 8010 bound_to 7997
  140.5166  143.2337  151.7501 H   0  0  0  0  0  0  0  0  0  0  0  0  # atno 10167 bound_to 10162
  156.0758  130.5965  150.8623 H   0  0  0  0  0  0  0  0  0  0  0  0  # atno 10718 bound_to 10713
  154.5990  135.5522  153.7354 H   0  0  0  0  0  0  0  0  0  0  0  0  # atno 10763 bound_to 10752
  153.0147  135.6361  154.1742 H   0  0  0  0  0  0  0  0  0  0  0  0  # atno 10764 bound_to 10752
  154.1682  135.2893  155.3069 H   0  0  0  0  0  0  0  0  0  0  0  0  # atno 10765 bound_to 10752
  141.0857  133.6643  156.3841 H   0  0  0  0  0  0  0  0  0  0  0  0  # atno 11005 bound_to 11000
  144.6732  140.1589  143.7424 LP  0  0  0  0  0  0  0  0  0  0  0  0  # atno 17320 bound_to 7965
  145.8861  139.2350  143.1577 LP  0  0  0  0  0  0  0  0  0  0  0  0  # atno 17321 bound_to 7965
  139.4911  144.4314  151.9868 LP  0  0  0  0  0  0  0  0  0  0  0  0  # atno 17342 bound_to 10162
  140.3409  144.3205  150.5967 LP  0  0  0  0  0  0  0  0  0  0  0  0  # atno 17343 bound_to 10162
  157.5852  131.0945  150.9208 LP  0  0  0  0  0  0  0  0  0  0  0  0  # atno 17370 bound_to 10713
  156.9395  130.5379  149.5280 LP  0  0  0  0  0  0  0  0  0  0  0  0  # atno 17371 bound_to 10713
  140.5368  134.6159  157.5367 LP  0  0  0  0  0  0  0  0  0  0  0  0  # atno 17394 bound_to 11000
  139.9675  134.7348  156.0108 LP  0  0  0  0  0  0  0  0  0  0  0  0  # atno 17395 bound_to 11000

$$$$
