AV-unprocessed.smi:3031|AV-procd|sdf|11554|dock4
  -GOLD-   2272016513D 1   1.00000     0.00000
 Structure written by MMmdl.
 46 47  0  0  0  0  0  0  0  0  1 V2000
  150.6009  142.6123  157.7824 C   0  0  0  0  0  0  0  0  0  0  0  0
  150.3741  141.6206  156.6781 C   0  0  0  0  0  0  0  0  0  0  0  0
  151.2424  140.5796  156.2427 C   0  0  0  0  0  0  0  0  0  0  0  0
  150.7433  139.8815  155.2358 N   0  0  0  0  0  0  0  0  0  0  0  0
  149.5338  140.4362  155.0046 N   0  0  0  0  0  0  0  0  0  0  0  0
  148.6985  139.9247  153.9298 C   0  0  0  0  0  0  0  0  0  0  0  0
  147.2038  140.3132  154.0563 C   0  0  1  0  0  0  0  0  0  0  0  0
  147.0100  141.8006  153.7287 C   0  0  0  0  0  0  0  0  0  0  0  0
  146.3242  139.5253  153.1836 N   0  0  0  0  0  0  0  0  0  0  0  0
  146.2428  138.0932  153.4683 C   0  0  0  0  0  0  0  0  0  0  0  0
  145.4310  137.3552  152.3919 C   0  0  2  0  0  0  0  0  0  0  0  0
  144.1915  138.0227  152.2738 O   0  0  0  0  0  0  0  0  0  0  0  0
  145.1518  135.8861  152.7785 C   0  0  0  0  0  0  0  0  0  0  0  0
  145.1574  134.9263  151.6731 N   0  0  0  0  0  0  0  0  0  0  0  0
  143.8416  134.3172  151.5095 C   0  0  0  0  0  0  0  0  0  0  0  0
  143.8147  133.3066  150.3503 C   0  0  0  0  0  0  0  0  0  0  0  0
  144.8029  132.3061  150.5712 O   0  0  0  0  0  0  0  0  0  0  0  0
  146.1135  132.8486  150.6944 C   0  0  0  0  0  0  0  0  0  0  0  0
  146.1495  133.8668  151.8481 C   0  0  0  0  0  0  0  0  0  0  0  0
  149.2957  141.5016  155.8480 C   0  0  0  0  0  0  0  0  0  0  0  0
  151.5268  142.4136  158.3229 H   0  0  0  0  0  0  0  0  0  0  0  0
  149.7922  142.5912  158.5133 H   0  0  0  0  0  0  0  0  0  0  0  0
  150.6640  143.6314  157.4008 H   0  0  0  0  0  0  0  0  0  0  0  0
  152.2177  140.3148  156.6241 H   0  0  0  0  0  0  0  0  0  0  0  0
  149.1071  140.3302  153.0034 H   0  0  0  0  0  0  0  0  0  0  0  0
  148.8077  138.8409  153.8604 H   0  0  0  0  0  0  0  0  0  0  0  0
  146.8874  140.1805  155.0915 H   0  0  0  0  0  0  0  0  0  0  0  0
  147.5897  142.4314  154.4032 H   0  0  0  0  0  0  0  0  0  0  0  0
  145.9643  142.0939  153.8282 H   0  0  0  0  0  0  0  0  0  0  0  0
  147.3241  142.0272  152.7092 H   0  0  0  0  0  0  0  0  0  0  0  0
  145.3907  139.9236  153.2008 H   0  0  0  0  0  0  0  0  0  0  0  0
  147.2361  137.6520  153.5280 H   0  0  0  0  0  0  0  0  0  0  0  0
  145.7706  137.9452  154.4405 H   0  0  0  0  0  0  0  0  0  0  0  0
  145.9547  137.4316  151.4397 H   0  0  0  0  0  0  0  0  0  0  0  0
  144.0124  138.1609  151.3563 H   0  0  0  0  0  0  0  0  0  0  0  0
  145.8804  135.5646  153.5243 H   0  0  0  0  0  0  0  0  0  0  0  0
  144.1845  135.8487  153.2820 H   0  0  0  0  0  0  0  0  0  0  0  0
  143.5497  133.8133  152.4324 H   0  0  0  0  0  0  0  0  0  0  0  0
  143.0951  135.0912  151.3278 H   0  0  0  0  0  0  0  0  0  0  0  0
  142.8356  132.8323  150.2827 H   0  0  0  0  0  0  0  0  0  0  0  0
  143.9967  133.8057  149.3971 H   0  0  0  0  0  0  0  0  0  0  0  0
  146.8180  132.0383  150.8822 H   0  0  0  0  0  0  0  0  0  0  0  0
  146.4090  133.3192  149.7554 H   0  0  0  0  0  0  0  0  0  0  0  0
  147.1523  134.2878  151.9033 H   0  0  0  0  0  0  0  0  0  0  0  0
  145.9749  133.3481  152.7920 H   0  0  0  0  0  0  0  0  0  0  0  0
  148.3849  142.0795  155.7928 H   0  0  0  0  0  0  0  0  0  0  0  0
  1  2  1  0  0  0  0
  1 21  1  0  0  0  0
  1 22  1  0  0  0  0
  1 23  1  0  0  0  0
  2 20  2  0  0  0  0
  2  3  1  0  0  0  0
  3  4  2  0  0  0  0
  3 24  1  0  0  0  0
  4  5  1  0  0  0  0
  5  6  1  0  0  0  0
  5 20  1  0  0  0  0
  6  7  1  0  0  0  0
  6 25  1  0  0  0  0
  6 26  1  0  0  0  0
  7  8  1  0  0  0  0
  7  9  1  0  0  0  0
  7 27  1  0  0  0  0
  8 28  1  0  0  0  0
  8 29  1  0  0  0  0
  8 30  1  0  0  0  0
  9 10  1  0  0  0  0
  9 31  1  0  0  0  0
 10 11  1  0  0  0  0
 10 32  1  0  0  0  0
 10 33  1  0  0  0  0
 11 12  1  0  0  0  0
 11 13  1  0  0  0  0
 11 34  1  0  0  0  0
 12 35  1  0  0  0  0
 13 14  1  0  0  0  0
 13 36  1  0  0  0  0
 13 37  1  0  0  0  0
 14 19  1  0  0  0  0
 14 15  1  0  0  0  0
 15 16  1  0  0  0  0
 15 38  1  0  0  0  0
 15 39  1  0  0  0  0
 16 17  1  0  0  0  0
 16 40  1  0  0  0  0
 16 41  1  0  0  0  0
 17 18  1  0  0  0  0
 18 19  1  0  0  0  0
 18 42  1  0  0  0  0
 18 43  1  0  0  0  0
 19 44  1  0  0  0  0
 19 45  1  0  0  0  0
 20 46  1  0  0  0  0
M  END
> <s_m_source_file>
AV-unprocessed.smi

> <i_m_source_file_index>
3031

> <i_lp_mmshare_version>
43012

> <i_f3d_flags>
0

> <s_epik_input>
W0NIM11jMVtjSF1ubihbY0hdMSlbQ0gyXVtDQEhdKFtDSDNdKVtOSF1bQ0gyXVtDQEhdKFtPSF0pW0NIMl1OMltDSDJdW0NIMl1PW0NIMl1bQ0gyXTI=

> <s_epik_cmdline>
J2VwaWtfcHl0aG9uJywgJy1waCcsICc3LjAnLCAnLXRuJywgJzgnLCAnLW1hJywgJzIwMCcsICctbWV0YWxfYmluZGluZycsICctaW1hZScsICc8aW5maWxlLm1hZT4nLCAnLW9tYWUnLCAnPG91dGZpbGUubWFlPic=

> <r_lp_tautomer_probability>
1

> <r_epik_Ionization_Penalty>
2.8101

> <r_epik_Ionization_Penalty_Charging>
0

> <r_epik_Ionization_Penalty_Neutral>
2.8101

> <r_epik_State_Penalty>
2.12351

> <r_epik_Charging_Adjusted_Penalty>
2.12351

> <i_epik_Tot_Q>
0

> <i_epik_Tot_abs_Q>
0

> <r_epik_Metal_State_Penalty>
2.12345

> <b_epik_Metal_Only>
0

> <s_lp_Force_Field>
OPLS_2005

> <r_lp_Energy>
32.7569

> <b_lp_Chiralities_Consistent>
1

> <s_lp_Variant>
AV-unprocessed.smi:3031-14

> <Gold.Version>
5.8.1

> <Gold.Id.Protein>
6NUR|6NUR_protein|mol2

> <Gold.PLP.Fitness>
43.8409

> <Gold.PLP.PLP>
-36.6251

> <Gold.PLP.part.hbond>
-4.0000

> <Gold.PLP.part.metal>
0.0000

> <Gold.PLP.part.buried>
-1.5747

> <Gold.PLP.part.nonpolar>
-30.4910

> <Gold.PLP.part.repulsive>
0.3535

> <Gold.PLP.ligand.clash>
0.0000

> <Gold.PLP.ligand.torsion>
1.6905

> <Gold.PLP.Chemscore.Hbond>
3.0000

> <Gold.PLP.Chemscore.CHOScore>
0.4357

> <Gold.PLP.Chemscore.Metal>
0.0000

> <Gold.Chemscore.Hbonds>
donor molecule, donor type, donor heavy atom, donor atom, acceptor molecule, acceptor atom, score
      L1  H     9    31       P1 10175  1.00
      L1  H    12    35       P1 10171  1.00
      P1  H  7989  7998       L1     4  0.36
      L1  C    20    46       P1  8028  0.41

> <Gold.PLP.Chemscore.Internal.Correction>
0.2898

> <Gold.Rescore>
     Score         DG    S(hbond)    S(metal)    S(lipo)     H(rot)  DE(clash)    DE(int)     intcor
     16.21     -17.99       2.79        0.00      82.83       2.53       0.73       1.06       ----

> <Gold.Chemscore.Fitness>
16.2068

> <Gold.Chemscore.DG>
-17.9927

> <Gold.Chemscore.ZeroCoef>
-5.4800

> <Gold.Chemscore.Hbond>
2.7863

> <Gold.Chemscore.Metal>
0.0000

> <Gold.Chemscore.Lipo>
82.8346

> <Gold.Chemscore.Internal_Hbond>
0.0000

> <Gold.Chemscore.DEClash>
0.7275

> <Gold.Chemscore.DEInternal>
1.0585

> <Gold.Chemscore.Rot>
2.5333

> <Gold.Chemscore.Internal.Correction>
   9.000000E+99

> <Gold.Chemscore.Hbonds>
donor molecule, donor type, donor heavy atom, donor atom, acceptor molecule, acceptor atom, score
      L1  H     9    31       P1 10175  0.98
      L1  H    12    35       P1 10171  0.99
      P1  H  7989  7998       L1     4  0.01

> <Gold.Chemscore.Hbond.Weighted>
-9.3062

> <Gold.Chemscore.Metal.Weighted>
-0.0000

> <Gold.Chemscore.Lipo.Weighted>
-9.6916

> <Gold.Chemscore.Internal_Hbond.Weighted>
0.0000

> <Gold.Chemscore.DEClash.Weighted>
0.7275

> <Gold.Chemscore.DEInternal.Weighted>
1.0585

> <Gold.Chemscore.Rot.Weighted>
6.4852

> <Gold.Chemscore.Internal.Correction.Weighted>
   9.000000E+99

> <Gold.Protein.RotatedTorsions>
[ 6907 6896 6895 6894 ] final  -81.14 input  -60.11 | X-H torsion
[ 7974 7965 7964 7962 ] final -162.15 input  175.53 | X-H torsion
[ 8008 7997 7996 7995 ] final -126.05 input   59.86 | X-H torsion
[ 10167 10162 10161 10158 ] final   47.96 input  -65.29 | X-H torsion
[ 10718 10713 10712 10709 ] final  158.62 input   66.30 | X-H torsion
[ 10763 10752 10751 10750 ] final -107.61 input  -60.55 | X-H torsion
[ 11005 11000 10999 10996 ] final   95.87 input  -57.11 | X-H torsion

> <Gold.Protein.ActiveResidues>
 VAL166  LYS551  ARG553  GLY616  TRP617  ASP618  TYR619  PRO620  LYS621  CYS622 
 ASP623  PHE694  ASN695  SER759  ASP760  ASP761  ALA762  ILE779  LEU786  VAL792 
 PHE793  MET794  SER795  GLU796  ALA797  LYS798  CYS799  TRP800  GLU811  SER814 

> <Gold.Protein.RotatedAtoms>
  150.6917  134.3863  159.5056 H   0  0  0  0  0  0  0  0  0  0  0  0  # atno 6907 bound_to 6896
  152.1658  134.8872  160.0547 H   0  0  0  0  0  0  0  0  0  0  0  0  # atno 6908 bound_to 6896
  151.9917  133.3758  159.4184 H   0  0  0  0  0  0  0  0  0  0  0  0  # atno 6909 bound_to 6896
  144.7367  140.3295  143.6156 H   0  0  0  0  0  0  0  0  0  0  0  0  # atno 7974 bound_to 7965
  155.2234  140.0423  157.2951 H   0  0  0  0  0  0  0  0  0  0  0  0  # atno 8008 bound_to 7997
  154.5935  140.2433  155.7859 H   0  0  0  0  0  0  0  0  0  0  0  0  # atno 8009 bound_to 7997
  156.2275  140.2949  156.0112 H   0  0  0  0  0  0  0  0  0  0  0  0  # atno 8010 bound_to 7997
  140.2982  144.2965  150.6225 H   0  0  0  0  0  0  0  0  0  0  0  0  # atno 10167 bound_to 10162
  157.1754  131.0620  151.2161 H   0  0  0  0  0  0  0  0  0  0  0  0  # atno 10718 bound_to 10713
  154.8086  135.4668  154.0456 H   0  0  0  0  0  0  0  0  0  0  0  0  # atno 10763 bound_to 10752
  153.1905  135.6854  153.8365 H   0  0  0  0  0  0  0  0  0  0  0  0  # atno 10764 bound_to 10752
  153.7884  135.3246  155.3352 H   0  0  0  0  0  0  0  0  0  0  0  0  # atno 10765 bound_to 10752
  139.8785  134.8921  156.4075 H   0  0  0  0  0  0  0  0  0  0  0  0  # atno 11005 bound_to 11000
  145.7487  139.1786  143.2334 LP  0  0  0  0  0  0  0  0  0  0  0  0  # atno 17320 bound_to 7965
  146.1078  140.7465  142.9518 LP  0  0  0  0  0  0  0  0  0  0  0  0  # atno 17321 bound_to 7965
  140.5674  143.2184  151.7660 LP  0  0  0  0  0  0  0  0  0  0  0  0  # atno 17342 bound_to 10162
  139.4921  144.4265  151.9920 LP  0  0  0  0  0  0  0  0  0  0  0  0  # atno 17343 bound_to 10162
  157.4004  130.7330  149.6763 LP  0  0  0  0  0  0  0  0  0  0  0  0  # atno 17370 bound_to 10713
  155.9732  130.4122  150.4021 LP  0  0  0  0  0  0  0  0  0  0  0  0  # atno 17371 bound_to 10713
  140.9224  133.7636  155.9922 LP  0  0  0  0  0  0  0  0  0  0  0  0  # atno 17394 bound_to 11000
  140.8425  134.3050  157.5308 LP  0  0  0  0  0  0  0  0  0  0  0  0  # atno 17395 bound_to 11000

$$$$
