AV-unprocessed.smi:928|AV-procd|sdf|4194|dock1
  -GOLD-   22720 2103D 1   1.00000     0.00000
 Structure written by MMmdl.
 43 44  0  0  0  0  0  0  0  0  1 V2000
  151.4784  142.1819  158.5964 C   0  0  0  0  0  0  0  0  0  0  0  0
  150.0176  142.1136  158.1384 C   0  0  0  0  0  0  0  0  0  0  0  0
  149.8386  141.3850  156.8476 C   0  0  0  0  0  0  0  0  0  0  0  0
  150.8102  140.7943  156.0778 C   0  0  0  0  0  0  0  0  0  0  0  0
  150.3218  140.1823  154.9216 N   0  0  0  0  0  0  0  0  0  0  0  0
  148.9982  140.3042  154.8003 C   0  0  0  0  0  0  0  0  0  0  0  0
  148.2168  139.7006  153.6780 C   0  0  0  0  0  0  0  0  0  0  0  0
  147.1099  138.7302  154.1328 C   0  0  0  0  0  0  0  0  0  0  0  0
  147.1775  137.4436  153.4449 N   0  0  0  0  0  0  0  0  0  0  0  0
  146.2258  136.4998  153.4655 C   0  0  0  0  0  0  0  0  0  0  0  0
  145.1705  136.5939  154.0916 O   0  0  0  0  0  0  0  0  0  0  0  0
  146.5605  135.4463  152.7087 N   0  0  0  0  0  0  0  0  0  0  0  0
  145.7323  134.2638  152.4820 C   0  0  1  0  0  0  0  0  0  0  0  0
  144.3294  134.7605  152.0726 C   0  0  0  0  0  0  0  0  0  0  0  0
  143.4085  133.6193  151.6204 C   0  0  0  0  0  0  0  0  0  0  0  0
  144.0468  132.8290  150.4719 C   0  0  0  0  0  0  0  0  0  0  0  0
  145.4083  132.2682  150.9001 C   0  0  0  0  0  0  0  0  0  0  0  0
  146.3648  133.3774  151.3795 C   0  0  2  0  0  0  0  0  0  0  0  0
  147.5179  132.7348  151.8859 O   0  0  0  0  0  0  0  0  0  0  0  0
  148.2598  141.1913  156.1304 S   0  0  0  0  0  0  0  0  0  0  0  0
  151.5643  142.7171  159.5422 H   0  0  0  0  0  0  0  0  0  0  0  0
  152.0985  142.6998  157.8642 H   0  0  0  0  0  0  0  0  0  0  0  0
  151.8922  141.1835  158.7398 H   0  0  0  0  0  0  0  0  0  0  0  0
  149.4207  141.6318  158.9135 H   0  0  0  0  0  0  0  0  0  0  0  0
  149.6223  143.1248  158.0394 H   0  0  0  0  0  0  0  0  0  0  0  0
  151.8708  140.7595  156.2788 H   0  0  0  0  0  0  0  0  0  0  0  0
  147.7806  140.5080  153.0891 H   0  0  0  0  0  0  0  0  0  0  0  0
  148.9092  139.1797  153.0158 H   0  0  0  0  0  0  0  0  0  0  0  0
  147.2111  138.5421  155.2017 H   0  0  0  0  0  0  0  0  0  0  0  0
  146.1298  139.1908  153.9978 H   0  0  0  0  0  0  0  0  0  0  0  0
  148.0075  137.2658  152.8984 H   0  0  0  0  0  0  0  0  0  0  0  0
  147.4512  135.4697  152.2341 H   0  0  0  0  0  0  0  0  0  0  0  0
  145.6266  133.6815  153.4000 H   0  0  0  0  0  0  0  0  0  0  0  0
  143.8683  135.2957  152.9037 H   0  0  0  0  0  0  0  0  0  0  0  0
  144.4178  135.4805  151.2573 H   0  0  0  0  0  0  0  0  0  0  0  0
  143.2065  132.9536  152.4607 H   0  0  0  0  0  0  0  0  0  0  0  0
  142.4458  134.0226  151.3051 H   0  0  0  0  0  0  0  0  0  0  0  0
  143.3881  132.0149  150.1681 H   0  0  0  0  0  0  0  0  0  0  0  0
  144.1689  133.4732  149.6001 H   0  0  0  0  0  0  0  0  0  0  0  0
  145.2548  131.5427  151.7007 H   0  0  0  0  0  0  0  0  0  0  0  0
  145.8577  131.7199  150.0712 H   0  0  0  0  0  0  0  0  0  0  0  0
  146.6521  133.9947  150.5269 H   0  0  0  0  0  0  0  0  0  0  0  0
  147.7486  132.0290  151.3009 H   0  0  0  0  0  0  0  0  0  0  0  0
  1  2  1  0  0  0  0
  1 21  1  0  0  0  0
  1 22  1  0  0  0  0
  1 23  1  0  0  0  0
  2  3  1  0  0  0  0
  2 24  1  0  0  0  0
  2 25  1  0  0  0  0
  3 20  1  0  0  0  0
  3  4  2  0  0  0  0
  4  5  1  0  0  0  0
  4 26  1  0  0  0  0
  5  6  2  0  0  0  0
  6  7  1  0  0  0  0
  6 20  1  0  0  0  0
  7  8  1  0  0  0  0
  7 27  1  0  0  0  0
  7 28  1  0  0  0  0
  8  9  1  0  0  0  0
  8 29  1  0  0  0  0
  8 30  1  0  0  0  0
  9 10  1  0  0  0  0
  9 31  1  0  0  0  0
 10 11  2  0  0  0  0
 10 12  1  0  0  0  0
 12 13  1  0  0  0  0
 12 32  1  0  0  0  0
 13 18  1  0  0  0  0
 13 14  1  0  0  0  0
 13 33  1  0  0  0  0
 14 15  1  0  0  0  0
 14 34  1  0  0  0  0
 14 35  1  0  0  0  0
 15 16  1  0  0  0  0
 15 36  1  0  0  0  0
 15 37  1  0  0  0  0
 16 17  1  0  0  0  0
 16 38  1  0  0  0  0
 16 39  1  0  0  0  0
 17 18  1  0  0  0  0
 17 40  1  0  0  0  0
 17 41  1  0  0  0  0
 18 19  1  0  0  0  0
 18 42  1  0  0  0  0
 19 43  1  0  0  0  0
M  END
> <s_m_source_file>
AV-unprocessed.smi

> <i_m_source_file_index>
928

> <i_lp_mmshare_version>
43012

> <i_f3d_flags>
0

> <s_epik_input>
W0NIM11bQ0gyXWMxW2NIXW5jKHMxKVtDSDJdW0NIMl1bTkhdQyg9TylbTkhdW0NAQEhdMltDSDJdW0NIMl1bQ0gyXVtDSDJdW0NASF0yW09IXQ==

> <s_epik_cmdline>
J2VwaWtfcHl0aG9uJywgJy1waCcsICc3LjAnLCAnLXRuJywgJzgnLCAnLW1hJywgJzIwMCcsICctbWV0YWxfYmluZGluZycsICctaW1hZScsICc8aW5maWxlLm1hZT4nLCAnLW9tYWUnLCAnPG91dGZpbGUubWFlPic=

> <r_epik_Ionization_Penalty>
0.000957396

> <r_epik_Ionization_Penalty_Charging>
0

> <r_epik_Ionization_Penalty_Neutral>
0.000957396

> <r_epik_State_Penalty>
0.000586538

> <r_epik_Charging_Adjusted_Penalty>
0.000586538

> <i_epik_Tot_Q>
0

> <i_epik_Tot_abs_Q>
0

> <r_epik_Metal_State_Penalty>
-0

> <b_epik_Metal_Only>
0

> <s_lp_Force_Field>
OPLS_2005

> <r_lp_Energy>
-1.18646

> <b_lp_Chiralities_Consistent>
1

> <s_lp_Variant>
AV-unprocessed.smi:928-4

> <Gold.Version>
5.8.1

> <Gold.Id.Protein>
6NUR|6NUR_protein|mol2

> <Gold.PLP.Fitness>
42.7431

> <Gold.PLP.PLP>
-31.7358

> <Gold.PLP.part.hbond>
-4.0000

> <Gold.PLP.part.metal>
0.0000

> <Gold.PLP.part.buried>
-3.5610

> <Gold.PLP.part.nonpolar>
-25.2721

> <Gold.PLP.part.repulsive>
0.1773

> <Gold.PLP.ligand.clash>
0.0000

> <Gold.PLP.ligand.torsion>
0.5217

> <Gold.PLP.Chemscore.Hbond>
3.9920

> <Gold.PLP.Chemscore.CHOScore>
0.0000

> <Gold.PLP.Chemscore.Metal>
0.0000

> <Gold.Chemscore.Hbonds>
donor molecule, donor type, donor heavy atom, donor atom, acceptor molecule, acceptor atom, score
      L1  H     9    31       P1  7948  1.00
      L1  H    12    32       P1  7948  1.00
      L1  H    19    43       P1 10747  1.00
      P1  H  7989  7998       L1     5  0.94

> <Gold.PLP.Chemscore.Internal.Correction>
0.0746

> <Gold.Rescore>
     Score         DG    S(hbond)    S(metal)    S(lipo)     H(rot)  DE(clash)    DE(int)     intcor
     17.32     -20.21       3.36        0.00      78.40       2.21       0.73       2.17       ----

> <Gold.Chemscore.Fitness>
17.3186

> <Gold.Chemscore.DG>
-20.2098

> <Gold.Chemscore.ZeroCoef>
-5.4800

> <Gold.Chemscore.Hbond>
3.3564

> <Gold.Chemscore.Metal>
0.0000

> <Gold.Chemscore.Lipo>
78.4008

> <Gold.Chemscore.Internal_Hbond>
0.0000

> <Gold.Chemscore.DEClash>
0.7258

> <Gold.Chemscore.DEInternal>
2.1654

> <Gold.Chemscore.Rot>
2.2084

> <Gold.Chemscore.Internal.Correction>
   9.000000E+99

> <Gold.Chemscore.Hbonds>
donor molecule, donor type, donor heavy atom, donor atom, acceptor molecule, acceptor atom, score
      L1  H     9    31       P1  7948  0.95
      L1  H    12    32       P1  7948  0.97
      L1  H    19    43       P1 10747  0.95
      P1  H  7989  7998       L1     5  0.31

> <Gold.Chemscore.Hbond.Weighted>
-11.2104

> <Gold.Chemscore.Metal.Weighted>
-0.0000

> <Gold.Chemscore.Lipo.Weighted>
-9.1729

> <Gold.Chemscore.Internal_Hbond.Weighted>
0.0000

> <Gold.Chemscore.DEClash.Weighted>
0.7258

> <Gold.Chemscore.DEInternal.Weighted>
2.1654

> <Gold.Chemscore.Rot.Weighted>
5.6535

> <Gold.Chemscore.Internal.Correction.Weighted>
   9.000000E+99

> <Gold.Protein.RotatedTorsions>
[ 6907 6896 6895 6894 ] final  -38.79 input  -60.11 | X-H torsion
[ 7974 7965 7964 7962 ] final -144.52 input  175.53 | X-H torsion
[ 8008 7997 7996 7995 ] final   38.69 input   59.86 | X-H torsion
[ 10167 10162 10161 10158 ] final   58.00 input  -65.29 | X-H torsion
[ 10718 10713 10712 10709 ] final  -73.92 input   66.30 | X-H torsion
[ 10763 10752 10751 10750 ] final  121.46 input  -60.55 | X-H torsion
[ 11005 11000 10999 10996 ] final  154.31 input  -57.11 | X-H torsion

> <Gold.Protein.ActiveResidues>
 VAL166  LYS551  ARG553  GLY616  TRP617  ASP618  TYR619  PRO620  LYS621  CYS622 
 ASP623  PHE694  ASN695  SER759  ASP760  ASP761  ALA762  ILE779  LEU786  VAL792 
 PHE793  MET794  SER795  GLU796  ALA797  LYS798  CYS799  TRP800  GLU811  SER814 

> <Gold.Protein.RotatedAtoms>
  150.9981  134.9300  159.7937 H   0  0  0  0  0  0  0  0  0  0  0  0  # atno 6907 bound_to 6896
  152.5270  134.3191  159.9151 H   0  0  0  0  0  0  0  0  0  0  0  0  # atno 6908 bound_to 6896
  151.3196  133.4004  159.2688 H   0  0  0  0  0  0  0  0  0  0  0  0  # atno 6909 bound_to 6896
  144.8292  140.5700  143.5526 H   0  0  0  0  0  0  0  0  0  0  0  0  # atno 7974 bound_to 7965
  155.2244  140.3333  155.4311 H   0  0  0  0  0  0  0  0  0  0  0  0  # atno 8008 bound_to 7997
  156.2320  140.1855  156.7264 H   0  0  0  0  0  0  0  0  0  0  0  0  # atno 8009 bound_to 7997
  154.5995  140.0625  156.9334 H   0  0  0  0  0  0  0  0  0  0  0  0  # atno 8010 bound_to 7997
  140.1919  144.4077  150.6567 H   0  0  0  0  0  0  0  0  0  0  0  0  # atno 10167 bound_to 10162
  156.0262  130.4405  150.2814 H   0  0  0  0  0  0  0  0  0  0  0  0  # atno 10718 bound_to 10713
  153.6145  135.3424  155.2990 H   0  0  0  0  0  0  0  0  0  0  0  0  # atno 10763 bound_to 10752
  154.8612  135.4258  154.2274 H   0  0  0  0  0  0  0  0  0  0  0  0  # atno 10764 bound_to 10752
  153.3132  135.7033  153.7169 H   0  0  0  0  0  0  0  0  0  0  0  0  # atno 10765 bound_to 10752
  140.1478  134.8696  157.2415 H   0  0  0  0  0  0  0  0  0  0  0  0  # atno 11005 bound_to 11000
  145.4933  139.1487  143.3697 LP  0  0  0  0  0  0  0  0  0  0  0  0  # atno 17320 bound_to 7965
  146.2596  140.5072  142.8859 LP  0  0  0  0  0  0  0  0  0  0  0  0  # atno 17321 bound_to 7965
  140.6450  143.2211  151.6206 LP  0  0  0  0  0  0  0  0  0  0  0  0  # atno 17342 bound_to 10162
  139.5252  144.3081  152.1017 LP  0  0  0  0  0  0  0  0  0  0  0  0  # atno 17343 bound_to 10162
  157.0918  131.0171  151.3119 LP  0  0  0  0  0  0  0  0  0  0  0  0  # atno 17370 bound_to 10713
  157.4848  130.7787  149.7450 LP  0  0  0  0  0  0  0  0  0  0  0  0  # atno 17371 bound_to 10713
  140.2642  134.3535  155.7395 LP  0  0  0  0  0  0  0  0  0  0  0  0  # atno 17394 bound_to 11000
  141.2195  133.7387  156.9126 LP  0  0  0  0  0  0  0  0  0  0  0  0  # atno 17395 bound_to 11000

$$$$
