AV-unprocessed.smi:952|AV-procd|sdf|4256|dock6
  -GOLD-   22720 2163D 1   1.00000     0.00000
 Structure written by MMmdl.
 35 35  0  0  0  0  0  0  0  0  1 V2000
  151.4651  145.3744  160.0875 C   0  0  0  0  0  0  0  0  0  0  0  0
  152.0548  144.9959  158.7249 C   0  0  0  0  0  0  0  0  0  0  0  0
  152.9620  143.7571  158.8017 C   0  0  0  0  0  0  0  0  0  0  0  0
  152.1847  142.5233  158.8063 N   0  0  0  0  0  0  0  0  0  0  0  0
  151.3009  142.1654  157.8624 C   0  0  0  0  0  0  0  0  0  0  0  0
  151.0379  142.8658  156.8835 O   0  0  0  0  0  0  0  0  0  0  0  0
  150.5978  140.8191  158.0754 C   0  0  0  0  0  0  0  0  0  0  0  0
  149.9992  140.2884  156.8534 N   0  0  0  0  0  0  0  0  0  0  0  0
  150.6300  140.1563  155.6751 C   0  0  0  0  0  0  0  0  0  0  0  0
  151.8101  140.4671  155.5060 O   0  0  0  0  0  0  0  0  0  0  0  0
  149.7949  139.5825  154.5200 C   0  0  1  0  0  0  0  0  0  0  0  0
  149.4859  138.0840  154.6933 C   0  0  0  0  0  0  0  0  0  0  0  0
  148.5694  140.3521  154.3486 N   0  0  0  0  0  0  0  0  0  0  0  0
  148.3880  141.7205  154.4119 C   0  0  0  0  0  0  0  0  0  0  0  0
  147.0641  141.9687  154.1897 C   0  0  0  0  0  0  0  0  0  0  0  0
  146.5054  140.6743  154.0011 C   0  0  0  0  0  0  0  0  0  0  0  0
  147.4065  139.7104  154.0985 N   0  0  0  0  0  0  0  0  0  0  0  0
  150.8344  146.2599  160.0048 H   0  0  0  0  0  0  0  0  0  0  0  0
  152.2514  145.5917  160.8111 H   0  0  0  0  0  0  0  0  0  0  0  0
  150.8528  144.5662  160.4888 H   0  0  0  0  0  0  0  0  0  0  0  0
  151.2398  144.8165  158.0228 H   0  0  0  0  0  0  0  0  0  0  0  0
  152.6207  145.8409  158.3310 H   0  0  0  0  0  0  0  0  0  0  0  0
  153.6295  143.7322  157.9397 H   0  0  0  0  0  0  0  0  0  0  0  0
  153.5996  143.8028  159.6863 H   0  0  0  0  0  0  0  0  0  0  0  0
  152.3362  141.8912  159.5791 H   0  0  0  0  0  0  0  0  0  0  0  0
  151.2958  140.0923  158.4953 H   0  0  0  0  0  0  0  0  0  0  0  0
  149.8067  140.9552  158.8128 H   0  0  0  0  0  0  0  0  0  0  0  0
  149.0296  140.0110  156.9043 H   0  0  0  0  0  0  0  0  0  0  0  0
  150.3911  139.6867  153.6110 H   0  0  0  0  0  0  0  0  0  0  0  0
  150.4012  137.5031  154.8125 H   0  0  0  0  0  0  0  0  0  0  0  0
  148.9632  137.6931  153.8200 H   0  0  0  0  0  0  0  0  0  0  0  0
  148.8566  137.8975  155.5644 H   0  0  0  0  0  0  0  0  0  0  0  0
  149.2083  142.3956  154.6068 H   0  0  0  0  0  0  0  0  0  0  0  0
  146.5700  142.9286  154.1664 H   0  0  0  0  0  0  0  0  0  0  0  0
  145.4784  140.4080  153.7984 H   0  0  0  0  0  0  0  0  0  0  0  0
  1  2  1  0  0  0  0
  1 18  1  0  0  0  0
  1 19  1  0  0  0  0
  1 20  1  0  0  0  0
  2  3  1  0  0  0  0
  2 21  1  0  0  0  0
  2 22  1  0  0  0  0
  3  4  1  0  0  0  0
  3 23  1  0  0  0  0
  3 24  1  0  0  0  0
  4  5  1  0  0  0  0
  4 25  1  0  0  0  0
  5  6  2  0  0  0  0
  5  7  1  0  0  0  0
  7  8  1  0  0  0  0
  7 26  1  0  0  0  0
  7 27  1  0  0  0  0
  8  9  1  0  0  0  0
  8 28  1  0  0  0  0
  9 10  2  0  0  0  0
  9 11  1  0  0  0  0
 11 12  1  0  0  0  0
 11 13  1  0  0  0  0
 11 29  1  0  0  0  0
 12 30  1  0  0  0  0
 12 31  1  0  0  0  0
 12 32  1  0  0  0  0
 13 17  1  0  0  0  0
 13 14  1  0  0  0  0
 14 15  2  0  0  0  0
 14 33  1  0  0  0  0
 15 16  1  0  0  0  0
 15 34  1  0  0  0  0
 16 17  2  0  0  0  0
 16 35  1  0  0  0  0
M  END
> <s_m_source_file>
AV-unprocessed.smi

> <i_m_source_file_index>
952

> <i_lp_mmshare_version>
43012

> <i_f3d_flags>
0

> <s_epik_input>
W0NIM11bQ0gyXVtDSDJdW05IXUMoPU8pW0NIMl1bTkhdQyg9TylbQ0BIXShbQ0gzXSluMVtjSF1bY0hdW2NIXW4x

> <s_epik_cmdline>
J2VwaWtfcHl0aG9uJywgJy1waCcsICc3LjAnLCAnLXRuJywgJzgnLCAnLW1hJywgJzIwMCcsICctbWV0YWxfYmluZGluZycsICctaW1hZScsICc8aW5maWxlLm1hZT4nLCAnLW9tYWUnLCAnPG91dGZpbGUubWFlPic=

> <r_lp_tautomer_probability>
1

> <r_epik_Ionization_Penalty>
2.62173e-05

> <r_epik_Ionization_Penalty_Charging>
0

> <r_epik_Ionization_Penalty_Neutral>
2.62173e-05

> <r_epik_State_Penalty>
-0

> <r_epik_Charging_Adjusted_Penalty>
0

> <i_epik_Tot_Q>
0

> <i_epik_Tot_abs_Q>
0

> <r_epik_Metal_State_Penalty>
-0

> <b_epik_Metal_Only>
0

> <s_lp_Force_Field>
OPLS_2005

> <r_lp_Energy>
2.421

> <b_lp_Chiralities_Consistent>
1

> <s_lp_Variant>
AV-unprocessed.smi:952-2

> <Gold.Version>
5.8.1

> <Gold.Id.Protein>
6NUR|6NUR_protein|mol2

> <Gold.PLP.Fitness>
40.4966

> <Gold.PLP.PLP>
-34.9654

> <Gold.PLP.part.hbond>
-1.0000

> <Gold.PLP.part.metal>
0.0000

> <Gold.PLP.part.buried>
-3.6939

> <Gold.PLP.part.nonpolar>
-32.0113

> <Gold.PLP.part.repulsive>
0.7442

> <Gold.PLP.ligand.clash>
0.0000

> <Gold.PLP.ligand.torsion>
0.9814

> <Gold.PLP.Chemscore.Hbond>
0.6120

> <Gold.PLP.Chemscore.CHOScore>
1.8508

> <Gold.PLP.Chemscore.Metal>
0.0000

> <Gold.Chemscore.Hbonds>
donor molecule, donor type, donor heavy atom, donor atom, acceptor molecule, acceptor atom, score
      P1  H  7989  7998       L1    10  0.61
      L1  C    14    33       P1  8028  0.80
      L1  C    16    35       P1 10175  1.00

> <Gold.PLP.Chemscore.Internal.Correction>
0.1054

> <Gold.Rescore>
     Score         DG    S(hbond)    S(metal)    S(lipo)     H(rot)  DE(clash)    DE(int)     intcor
      9.42     -11.21       0.85        0.00      73.48       2.24       1.21       0.57       ----

> <Gold.Chemscore.Fitness>
9.4243

> <Gold.Chemscore.DG>
-11.2064

> <Gold.Chemscore.ZeroCoef>
-5.4800

> <Gold.Chemscore.Hbond>
0.8547

> <Gold.Chemscore.Metal>
0.0000

> <Gold.Chemscore.Lipo>
73.4760

> <Gold.Chemscore.Internal_Hbond>
0.0000

> <Gold.Chemscore.DEClash>
1.2138

> <Gold.Chemscore.DEInternal>
0.5683

> <Gold.Chemscore.Rot>
2.2364

> <Gold.Chemscore.Internal.Correction>
   9.000000E+99

> <Gold.Chemscore.Hbonds>
donor molecule, donor type, donor heavy atom, donor atom, acceptor molecule, acceptor atom, score
      P1  H  7989  7998       L1    10  0.10

> <Gold.Chemscore.Hbond.Weighted>
-2.8548

> <Gold.Chemscore.Metal.Weighted>
-0.0000

> <Gold.Chemscore.Lipo.Weighted>
-8.5967

> <Gold.Chemscore.Internal_Hbond.Weighted>
0.0000

> <Gold.Chemscore.DEClash.Weighted>
1.2138

> <Gold.Chemscore.DEInternal.Weighted>
0.5683

> <Gold.Chemscore.Rot.Weighted>
5.7251

> <Gold.Chemscore.Internal.Correction.Weighted>
   9.000000E+99

> <Gold.Protein.RotatedTorsions>
[ 6907 6896 6895 6894 ] final -159.94 input  -60.11 | X-H torsion
[ 7974 7965 7964 7962 ] final -116.16 input  175.53 | X-H torsion
[ 8008 7997 7996 7995 ] final   95.03 input   59.86 | X-H torsion
[ 10167 10162 10161 10158 ] final  153.09 input  -65.29 | X-H torsion
[ 10718 10713 10712 10709 ] final -131.67 input   66.30 | X-H torsion
[ 10763 10752 10751 10750 ] final  159.83 input  -60.55 | X-H torsion
[ 11005 11000 10999 10996 ] final   57.78 input  -57.11 | X-H torsion

> <Gold.Protein.ActiveResidues>
 VAL166  LYS551  ARG553  GLY616  TRP617  ASP618  TYR619  PRO620  LYS621  CYS622 
 ASP623  PHE694  ASN695  SER759  ASP760  ASP761  ALA762  ILE779  LEU786  VAL792 
 PHE793  MET794  SER795  GLU796  ALA797  LYS798  CYS799  TRP800  GLU811  SER814 

> <Gold.Protein.RotatedAtoms>
  151.3413  133.3961  159.2671 H   0  0  0  0  0  0  0  0  0  0  0  0  # atno 6907 bound_to 6896
  150.9875  134.9218  159.7891 H   0  0  0  0  0  0  0  0  0  0  0  0  # atno 6908 bound_to 6896
  152.5237  134.3378  159.9258 H   0  0  0  0  0  0  0  0  0  0  0  0  # atno 6909 bound_to 6896
  145.0999  140.8545  143.3932 H   0  0  0  0  0  0  0  0  0  0  0  0  # atno 7974 bound_to 7965
  156.0645  140.3292  155.7501 H   0  0  0  0  0  0  0  0  0  0  0  0  # atno 8008 bound_to 7997
  155.5403  140.0601  157.2888 H   0  0  0  0  0  0  0  0  0  0  0  0  # atno 8009 bound_to 7997
  154.4498  140.1912  156.0573 H   0  0  0  0  0  0  0  0  0  0  0  0  # atno 8010 bound_to 7997
  139.4829  144.5303  151.7734 H   0  0  0  0  0  0  0  0  0  0  0  0  # atno 10167 bound_to 10162
  156.2268  130.7012  151.0815 H   0  0  0  0  0  0  0  0  0  0  0  0  # atno 10718 bound_to 10713
  154.2379  135.2776  155.2865 H   0  0  0  0  0  0  0  0  0  0  0  0  # atno 10763 bound_to 10752
  154.5569  135.5658  153.6976 H   0  0  0  0  0  0  0  0  0  0  0  0  # atno 10764 bound_to 10752
  153.0006  135.6288  154.2522 H   0  0  0  0  0  0  0  0  0  0  0  0  # atno 10765 bound_to 10752
  140.0427  134.5851  155.9362 H   0  0  0  0  0  0  0  0  0  0  0  0  # atno 11005 bound_to 11000
  145.0967  139.2851  143.5707 LP  0  0  0  0  0  0  0  0  0  0  0  0  # atno 17320 bound_to 7965
  146.3530  140.0521  142.8635 LP  0  0  0  0  0  0  0  0  0  0  0  0  # atno 17321 bound_to 7965
  140.4828  144.1424  150.5935 LP  0  0  0  0  0  0  0  0  0  0  0  0  # atno 17342 bound_to 10162
  140.4258  143.2590  151.9658 LP  0  0  0  0  0  0  0  0  0  0  0  0  # atno 17343 bound_to 10162
  157.7114  131.0732  150.6487 LP  0  0  0  0  0  0  0  0  0  0  0  0  # atno 17370 bound_to 10713
  156.6552  130.4496  149.5706 LP  0  0  0  0  0  0  0  0  0  0  0  0  # atno 17371 bound_to 10713
  141.1891  133.6564  156.5353 LP  0  0  0  0  0  0  0  0  0  0  0  0  # atno 17394 bound_to 11000
  140.4044  134.7328  157.4799 LP  0  0  0  0  0  0  0  0  0  0  0  0  # atno 17395 bound_to 11000

$$$$
