AV-unprocessed.smi:24|AV-procd|sdf|178|dock4
  -GOLD-   2262015443D 1   1.00000     0.00000
 Structure written by MMmdl.
 61 65  0  0  0  0  0  0  0  0  1 V2000
  147.5349  134.4629  161.0225 C   0  0  0  0  0  0  0  0  0  0  0  0
  147.8786  134.4104  159.6455 O   0  0  0  0  0  0  0  0  0  0  0  0
  148.7102  135.3903  159.1475 C   0  0  0  0  0  0  0  0  0  0  0  0
  148.9937  135.3498  157.7674 C   0  0  0  0  0  0  0  0  0  0  0  0
  149.8406  136.3064  157.1758 C   0  0  0  0  0  0  0  0  0  0  0  0
  150.4231  137.3232  157.9586 C   0  0  0  0  0  0  0  0  0  0  0  0
  151.3450  138.3462  157.2961 C   0  0  1  0  0  0  0  0  0  0  0  0
  150.8579  139.7835  157.5003 C   0  0  0  0  0  0  0  0  0  0  0  0
  152.0482  140.4173  158.1390 C   0  0  0  0  0  0  0  0  0  0  0  0
  152.0548  141.8445  158.5307 C   0  0  0  0  0  0  0  0  0  0  0  0
  151.3334  142.7807  157.7550 C   0  0  0  0  0  0  0  0  0  0  0  0
  151.3324  144.1382  158.1311 C   0  0  0  0  0  0  0  0  0  0  0  0
  152.0451  144.5570  159.2720 C   0  0  0  0  0  0  0  0  0  0  0  0
  152.7633  143.6203  160.0416 C   0  0  0  0  0  0  0  0  0  0  0  0
  152.7724  142.2597  159.6754 C   0  0  0  0  0  0  0  0  0  0  0  0
  153.0341  139.6159  158.3061 N   0  0  0  0  0  0  0  0  0  0  0  0
  152.7124  138.3863  157.8320 N   0  0  0  0  0  0  0  0  0  0  0  0
  153.5935  137.3634  157.7690 C   0  0  0  0  0  0  0  0  0  0  0  0
  153.3183  136.3003  157.2096 O   0  0  0  0  0  0  0  0  0  0  0  0
  154.9816  137.5535  158.4162 C   0  0  0  0  0  0  0  0  0  0  0  0
  156.0957  137.0889  157.5615 N   0  0  0  0  0  0  0  0  0  0  0  0
  157.1033  136.2738  158.1337 C   0  0  0  0  0  0  0  0  0  0  0  0
  157.0614  135.9434  159.3197 O   0  0  0  0  0  0  0  0  0  0  0  0
  158.1755  135.8713  157.2303 C   0  0  0  0  0  0  0  0  0  0  0  0
  159.1679  135.0867  157.6836 F   0  0  0  0  0  0  0  0  0  0  0  0
  158.1887  136.2741  155.9429 C   0  0  0  0  0  0  0  0  0  0  0  0
  157.2060  137.0839  155.4021 N   0  0  0  0  0  0  0  0  0  0  0  0
  157.2436  137.5413  153.9599 C   0  0  1  0  0  0  0  0  0  0  0  0
  158.6880  137.5270  153.4266 C   0  0  0  0  0  0  0  0  0  0  0  0
  158.5537  136.7626  152.1251 C   0  0  0  0  0  0  0  0  0  0  0  0
  157.3896  135.8310  152.4276 C   0  0  0  0  0  0  0  0  0  0  0  0
  156.5008  136.6630  153.1621 O   0  0  0  0  0  0  0  0  0  0  0  0
  156.1297  137.5087  156.2104 C   0  0  0  0  0  0  0  0  0  0  0  0
  155.2470  138.2362  155.7490 O   0  0  0  0  0  0  0  0  0  0  0  0
  150.1316  137.3796  159.3395 C   0  0  0  0  0  0  0  0  0  0  0  0
  149.2869  136.4209  159.9312 C   0  0  0  0  0  0  0  0  0  0  0  0
  146.8934  133.6159  161.2652 H   0  0  0  0  0  0  0  0  0  0  0  0
  146.9831  135.3734  161.2607 H   0  0  0  0  0  0  0  0  0  0  0  0
  148.4195  134.3989  161.6576 H   0  0  0  0  0  0  0  0  0  0  0  0
  148.5592  134.5733  157.1551 H   0  0  0  0  0  0  0  0  0  0  0  0
  150.0462  136.2526  156.1167 H   0  0  0  0  0  0  0  0  0  0  0  0
  151.4059  138.1315  156.2273 H   0  0  0  0  0  0  0  0  0  0  0  0
  150.6120  140.2604  156.5508 H   0  0  0  0  0  0  0  0  0  0  0  0
  149.9886  139.8394  158.1573 H   0  0  0  0  0  0  0  0  0  0  0  0
  150.7795  142.4794  156.8775 H   0  0  0  0  0  0  0  0  0  0  0  0
  150.7831  144.8592  157.5438 H   0  0  0  0  0  0  0  0  0  0  0  0
  152.0405  145.5987  159.5574 H   0  0  0  0  0  0  0  0  0  0  0  0
  153.3080  143.9461  160.9157 H   0  0  0  0  0  0  0  0  0  0  0  0
  153.3288  141.5614  160.2826 H   0  0  0  0  0  0  0  0  0  0  0  0
  155.0959  138.6049  158.6835 H   0  0  0  0  0  0  0  0  0  0  0  0
  155.0067  137.0299  159.3736 H   0  0  0  0  0  0  0  0  0  0  0  0
  159.0092  135.9393  155.3274 H   0  0  0  0  0  0  0  0  0  0  0  0
  156.7712  138.5251  153.9462 H   0  0  0  0  0  0  0  0  0  0  0  0
  159.0681  138.5405  153.2960 H   0  0  0  0  0  0  0  0  0  0  0  0
  159.3401  136.9896  154.1172 H   0  0  0  0  0  0  0  0  0  0  0  0
  158.2878  137.4428  151.3150 H   0  0  0  0  0  0  0  0  0  0  0  0
  159.4637  136.2318  151.8441 H   0  0  0  0  0  0  0  0  0  0  0  0
  156.9183  135.4367  151.5274 H   0  0  0  0  0  0  0  0  0  0  0  0
  157.7153  134.9915  153.0433 H   0  0  0  0  0  0  0  0  0  0  0  0
  150.5579  138.1570  159.9565 H   0  0  0  0  0  0  0  0  0  0  0  0
  149.0972  136.4985  160.9909 H   0  0  0  0  0  0  0  0  0  0  0  0
  1  2  1  0  0  0  0
  1 37  1  0  0  0  0
  1 38  1  0  0  0  0
  1 39  1  0  0  0  0
  2  3  1  0  0  0  0
  3 36  1  0  0  0  0
  3  4  2  0  0  0  0
  4  5  1  0  0  0  0
  4 40  1  0  0  0  0
  5  6  2  0  0  0  0
  5 41  1  0  0  0  0
  6  7  1  0  0  0  0
  6 35  1  0  0  0  0
  7 17  1  0  0  0  0
  7  8  1  0  0  0  0
  7 42  1  0  0  0  0
  8  9  1  0  0  0  0
  8 43  1  0  0  0  0
  8 44  1  0  0  0  0
  9 10  1  0  0  0  0
  9 16  2  0  0  0  0
 10 15  1  0  0  0  0
 10 11  2  0  0  0  0
 11 12  1  0  0  0  0
 11 45  1  0  0  0  0
 12 13  2  0  0  0  0
 12 46  1  0  0  0  0
 13 14  1  0  0  0  0
 13 47  1  0  0  0  0
 14 15  2  0  0  0  0
 14 48  1  0  0  0  0
 15 49  1  0  0  0  0
 16 17  1  0  0  0  0
 17 18  1  0  0  0  0
 18 19  2  0  0  0  0
 18 20  1  0  0  0  0
 20 21  1  0  0  0  0
 20 50  1  0  0  0  0
 20 51  1  0  0  0  0
 21 33  1  0  0  0  0
 21 22  1  0  0  0  0
 22 23  2  0  0  0  0
 22 24  1  0  0  0  0
 24 25  1  0  0  0  0
 24 26  2  0  0  0  0
 26 27  1  0  0  0  0
 26 52  1  0  0  0  0
 27 28  1  0  0  0  0
 27 33  1  0  0  0  0
 28 32  1  0  0  0  0
 28 29  1  0  0  0  0
 28 53  1  0  0  0  0
 29 30  1  0  0  0  0
 29 54  1  0  0  0  0
 29 55  1  0  0  0  0
 30 31  1  0  0  0  0
 30 56  1  0  0  0  0
 30 57  1  0  0  0  0
 31 32  1  0  0  0  0
 31 58  1  0  0  0  0
 31 59  1  0  0  0  0
 33 34  2  0  0  0  0
 35 36  2  0  0  0  0
 35 60  1  0  0  0  0
 36 61  1  0  0  0  0
M  END
> <s_m_source_file>
AV-unprocessed.smi

> <i_m_source_file_index>
24

> <i_lp_mmshare_version>
43012

> <i_f3d_flags>
0

> <s_epik_input>
W0NIM11PYzFbY0hdW2NIXWMoW2NIXVtjSF0xKVtDQEBIXTJbQ0gyXUMoYzNbY0hdW2NIXVtjSF1bY0hdW2NIXTMpPU5OMkMoPU8pW0NIMl1uNGMoPU8pYyhGKVtjSF1uKGM0PU8pW0NAQEhdNVtDSDJdW0NIMl1bQ0gyXU81

> <s_epik_cmdline>
J2VwaWtfcHl0aG9uJywgJy1waCcsICc3LjAnLCAnLXRuJywgJzgnLCAnLW1hJywgJzIwMCcsICctbWV0YWxfYmluZGluZycsICctaW1hZScsICc8aW5maWxlLm1hZT4nLCAnLW9tYWUnLCAnPG91dGZpbGUubWFlPic=

> <r_lp_tautomer_probability>
1

> <r_epik_Ionization_Penalty>
1.46326e-08

> <r_epik_Ionization_Penalty_Charging>
4.53232e-09

> <r_epik_Ionization_Penalty_Neutral>
1.01002e-08

> <r_epik_State_Penalty>
-0

> <r_epik_Charging_Adjusted_Penalty>
4.53232e-09

> <i_epik_Tot_Q>
0

> <i_epik_Tot_abs_Q>
0

> <r_epik_Metal_State_Penalty>
-0

> <b_epik_Metal_Only>
0

> <s_epik_Chemistry_Notes>
This compound has an imine and may undergo hydrolysis. This compound contains an acetal/aminal-like group ( X-CH(R)-Y where X, Y are N, S, or O) that may be acid/base labile, releasing an aldehyde.

> <s_lp_Force_Field>
OPLS_2005

> <r_lp_Energy>
49.9994

> <b_lp_Chiralities_Consistent>
1

> <s_lp_Variant>
AV-unprocessed.smi:24-4

> <Gold.Version>
5.8.1

> <Gold.Id.Protein>
6NUR|6NUR_protein|mol2

> <Gold.PLP.Fitness>
59.6619

> <Gold.PLP.PLP>
-53.3994

> <Gold.PLP.part.hbond>
-3.8541

> <Gold.PLP.part.metal>
0.0000

> <Gold.PLP.part.buried>
-4.3148

> <Gold.PLP.part.nonpolar>
-46.6513

> <Gold.PLP.part.repulsive>
0.0699

> <Gold.PLP.ligand.clash>
0.0000

> <Gold.PLP.ligand.torsion>
1.5090

> <Gold.PLP.Chemscore.Hbond>
3.0667

> <Gold.PLP.Chemscore.CHOScore>
0.0000

> <Gold.PLP.Chemscore.Metal>
0.0000

> <Gold.Chemscore.Hbonds>
donor molecule, donor type, donor heavy atom, donor atom, acceptor molecule, acceptor atom, score
      P1  H  7997  8010       L1    16  0.86
      P1  H 10752 10763       L1    32  0.65
      P1  H 10752 10765       L1    19  0.80

> <Gold.PLP.Chemscore.Internal.Correction>
0.0805

> <Gold.Rescore>
     Score         DG    S(hbond)    S(metal)    S(lipo)     H(rot)  DE(clash)    DE(int)     intcor
     20.79     -23.71       1.58        0.00     153.78       1.98       0.94       1.98       ----

> <Gold.Chemscore.Fitness>
20.7892

> <Gold.Chemscore.DG>
-23.7056

> <Gold.Chemscore.ZeroCoef>
-5.4800

> <Gold.Chemscore.Hbond>
1.5837

> <Gold.Chemscore.Metal>
0.0000

> <Gold.Chemscore.Lipo>
153.7789

> <Gold.Chemscore.Internal_Hbond>
0.0000

> <Gold.Chemscore.DEClash>
0.9404

> <Gold.Chemscore.DEInternal>
1.9760

> <Gold.Chemscore.Rot>
1.9750

> <Gold.Chemscore.Internal.Correction>
   9.000000E+99

> <Gold.Chemscore.Hbonds>
donor molecule, donor type, donor heavy atom, donor atom, acceptor molecule, acceptor atom, score
      P1  H  7997  8008       L1    34  0.01
      P1  H  7997  8010       L1    16  0.19
      P1  H 10752 10763       L1    32  0.50
      P1  H 10752 10765       L1    19  0.78

> <Gold.Chemscore.Hbond.Weighted>
-5.2895

> <Gold.Chemscore.Metal.Weighted>
-0.0000

> <Gold.Chemscore.Lipo.Weighted>
-17.9921

> <Gold.Chemscore.Internal_Hbond.Weighted>
0.0000

> <Gold.Chemscore.DEClash.Weighted>
0.9404

> <Gold.Chemscore.DEInternal.Weighted>
1.9760

> <Gold.Chemscore.Rot.Weighted>
5.0561

> <Gold.Chemscore.Internal.Correction.Weighted>
   9.000000E+99

> <Gold.Protein.RotatedTorsions>
[ 6907 6896 6895 6894 ] final  179.89 input  -60.11 | X-H torsion
[ 7974 7965 7964 7962 ] final  -38.75 input  175.53 | X-H torsion
[ 8008 7997 7996 7995 ] final   24.62 input   59.86 | X-H torsion
[ 10167 10162 10161 10158 ] final -148.26 input  -65.29 | X-H torsion
[ 10718 10713 10712 10709 ] final  -61.48 input   66.30 | X-H torsion
[ 10763 10752 10751 10750 ] final -103.35 input  -60.55 | X-H torsion
[ 11005 11000 10999 10996 ] final  -32.69 input  -57.11 | X-H torsion

> <Gold.Protein.ActiveResidues>
 VAL166  LYS551  ARG553  GLY616  TRP617  ASP618  TYR619  PRO620  LYS621  CYS622 
 ASP623  PHE694  ASN695  SER759  ASP760  ASP761  ALA762  ILE779  LEU786  VAL792 
 PHE793  MET794  SER795  GLU796  ALA797  LYS798  CYS799  TRP800  GLU811  SER814 

> <Gold.Protein.RotatedAtoms>
  151.6643  133.3316  159.3181 H   0  0  0  0  0  0  0  0  0  0  0  0  # atno 6907 bound_to 6896
  150.7898  134.6917  159.6510 H   0  0  0  0  0  0  0  0  0  0  0  0  # atno 6908 bound_to 6896
  152.3976  134.6344  160.0135 H   0  0  0  0  0  0  0  0  0  0  0  0  # atno 6909 bound_to 6896
  146.0459  140.6547  142.9065 H   0  0  0  0  0  0  0  0  0  0  0  0  # atno 7974 bound_to 7965
  154.9991  140.3123  155.4874 H   0  0  0  0  0  0  0  0  0  0  0  0  # atno 8008 bound_to 7997
  156.2928  140.2235  156.5041 H   0  0  0  0  0  0  0  0  0  0  0  0  # atno 8009 bound_to 7997
  154.7634  140.0457  157.0980 H   0  0  0  0  0  0  0  0  0  0  0  0  # atno 8010 bound_to 7997
  139.7548  143.8465  152.2594 H   0  0  0  0  0  0  0  0  0  0  0  0  # atno 10167 bound_to 10162
  156.0919  130.4199  150.1000 H   0  0  0  0  0  0  0  0  0  0  0  0  # atno 10718 bound_to 10713
  154.7801  135.4826  153.9826 H   0  0  0  0  0  0  0  0  0  0  0  0  # atno 10763 bound_to 10752
  153.1482  135.6786  153.8930 H   0  0  0  0  0  0  0  0  0  0  0  0  # atno 10764 bound_to 10752
  153.8583  135.3158  155.3414 H   0  0  0  0  0  0  0  0  0  0  0  0  # atno 10765 bound_to 10752
  140.9573  133.7185  156.1314 H   0  0  0  0  0  0  0  0  0  0  0  0  # atno 11005 bound_to 11000
  144.7097  140.3993  143.7090 LP  0  0  0  0  0  0  0  0  0  0  0  0  # atno 17320 bound_to 7965
  145.6807  139.1618  143.2702 LP  0  0  0  0  0  0  0  0  0  0  0  0  # atno 17321 bound_to 7965
  139.8454  144.7190  150.9280 LP  0  0  0  0  0  0  0  0  0  0  0  0  # atno 17342 bound_to 10162
  140.7801  143.3946  151.1251 LP  0  0  0  0  0  0  0  0  0  0  0  0  # atno 17343 bound_to 10162
  156.9008  130.9619  151.3576 LP  0  0  0  0  0  0  0  0  0  0  0  0  # atno 17370 bound_to 10713
  157.6070  130.8555  149.8891 LP  0  0  0  0  0  0  0  0  0  0  0  0  # atno 17371 bound_to 10713
  140.7518  134.4037  157.5540 LP  0  0  0  0  0  0  0  0  0  0  0  0  # atno 17394 bound_to 11000
  139.8866  134.8904  156.2574 LP  0  0  0  0  0  0  0  0  0  0  0  0  # atno 17395 bound_to 11000

$$$$
