AV-unprocessed.smi:3292|AV-procd|sdf|12622|dock5
  -GOLD-   2272018553D 1   1.00000     0.00000
 Structure written by MMmdl.
 39 40  0  0  0  0  0  0  0  0  2 V2000
  146.0535  132.8350  154.1461 C   0  0  0  0  0  0  0  0  0  0  0  0
  147.2089  132.8171  153.1320 C   0  0  1  0  0  0  0  0  0  0  0  0
  146.7280  132.7311  151.6667 C   0  0  0  0  0  0  0  0  0  0  0  0
  145.7086  133.7332  151.3429 N   0  0  0  0  0  0  0  0  0  0  0  0
  145.8306  135.0959  151.4340 C   0  0  0  0  0  0  0  0  0  0  0  0
  144.6294  135.6234  151.0352 C   0  0  0  0  0  0  0  0  0  0  0  0
  143.8243  134.5610  150.7223 N   0  3  0  0  0  0  0  0  0  0  0  0
  144.4811  133.4121  150.9134 C   0  0  0  0  0  0  0  0  0  0  0  0
  148.0360  134.0049  153.3250 N   0  0  0  0  0  0  0  0  0  0  0  0
  148.6875  134.3146  154.4551 C   0  0  0  0  0  0  0  0  0  0  0  0
  148.6760  133.6160  155.4689 O   0  0  0  0  0  0  0  0  0  0  0  0
  149.3485  135.4756  154.3470 N   0  0  0  0  0  0  0  0  0  0  0  0
  150.1460  136.0942  155.4015 C   0  0  0  0  0  0  0  0  0  0  0  0
  151.0237  137.2384  154.8604 C   0  0  2  0  0  0  0  0  0  0  0  0
  151.9179  137.8711  155.9070 C   0  0  0  0  0  0  0  0  0  0  0  0
  152.2894  139.1979  155.2505 C   0  0  0  0  0  0  0  0  0  0  0  0
  151.1888  139.5439  154.4142 O   0  0  0  0  0  0  0  0  0  0  0  0
  150.2608  138.4655  154.3577 C   0  0  0  0  0  0  0  0  0  0  0  0
  145.4643  131.9190  154.0982 H   0  0  0  0  0  0  0  0  0  0  0  0
  145.3810  133.6744  153.9665 H   0  0  0  0  0  0  0  0  0  0  0  0
  146.4296  132.9224  155.1661 H   0  0  0  0  0  0  0  0  0  0  0  0
  147.8187  131.9381  153.3504 H   0  0  0  0  0  0  0  0  0  0  0  0
  147.5664  132.8552  150.9792 H   0  0  0  0  0  0  0  0  0  0  0  0
  146.2924  131.7527  151.4592 H   0  0  0  0  0  0  0  0  0  0  0  0
  146.7405  135.5755  151.7656 H   0  0  0  0  0  0  0  0  0  0  0  0
  144.2961  136.6478  150.9541 H   0  0  0  0  0  0  0  0  0  0  0  0
  144.0958  132.4215  150.7492 H   0  0  0  0  0  0  0  0  0  0  0  0
  148.1055  134.6438  152.5463 H   0  0  0  0  0  0  0  0  0  0  0  0
  149.2932  135.9738  153.4706 H   0  0  0  0  0  0  0  0  0  0  0  0
  149.5096  136.4471  156.2149 H   0  0  0  0  0  0  0  0  0  0  0  0
  150.7833  135.3201  155.8297 H   0  0  0  0  0  0  0  0  0  0  0  0
  151.6530  136.8616  154.0522 H   0  0  0  0  0  0  0  0  0  0  0  0
  151.3578  138.0543  156.8253 H   0  0  0  0  0  0  0  0  0  0  0  0
  152.7879  137.2621  156.1540 H   0  0  0  0  0  0  0  0  0  0  0  0
  152.4949  139.9792  155.9824 H   0  0  0  0  0  0  0  0  0  0  0  0
  153.1746  139.0789  154.6248 H   0  0  0  0  0  0  0  0  0  0  0  0
  149.8682  138.3320  153.3493 H   0  0  0  0  0  0  0  0  0  0  0  0
  149.4241  138.6975  155.0183 H   0  0  0  0  0  0  0  0  0  0  0  0
  142.8689  134.6317  150.3952 H   0  0  0  0  0  0  0  0  0  0  0  0
  1  2  1  0  0  0  0
  1 19  1  0  0  0  0
  1 20  1  0  0  0  0
  1 21  1  0  0  0  0
  2  3  1  0  0  0  0
  2  9  1  0  0  0  0
  2 22  1  0  0  0  0
  3  4  1  0  0  0  0
  3 23  1  0  0  0  0
  3 24  1  0  0  0  0
  4  8  1  0  0  0  0
  4  5  1  0  0  0  0
  5  6  2  0  0  0  0
  5 25  1  0  0  0  0
  6  7  1  0  0  0  0
  6 26  1  0  0  0  0
  7  8  2  0  0  0  0
  7 39  1  0  0  0  0
  8 27  1  0  0  0  0
  9 10  1  0  0  0  0
  9 28  1  0  0  0  0
 10 11  2  0  0  0  0
 10 12  1  0  0  0  0
 12 13  1  0  0  0  0
 12 29  1  0  0  0  0
 13 14  1  0  0  0  0
 13 30  1  0  0  0  0
 13 31  1  0  0  0  0
 14 18  1  0  0  0  0
 14 15  1  0  0  0  0
 14 32  1  0  0  0  0
 15 16  1  0  0  0  0
 15 33  1  0  0  0  0
 15 34  1  0  0  0  0
 16 17  1  0  0  0  0
 16 35  1  0  0  0  0
 16 36  1  0  0  0  0
 17 18  1  0  0  0  0
 18 37  1  0  0  0  0
 18 38  1  0  0  0  0
M  CHG  1   7   1
M  END
> <s_m_source_file>
AV-unprocessed.smi

> <i_m_source_file_index>
3292

> <i_lp_mmshare_version>
43012

> <i_f3d_flags>
0

> <s_epik_input>
W2NIXTFuW2NIXVtjSF1uMVtDSDJdW0NAQEhdKFtDSDNdKVtOSF1DKD1PKVtOSF1bQ0gyXVtDQEBIXTJbQ0gyXVtDSDJdT1tDSDJdMg==

> <s_epik_cmdline>
J2VwaWtfcHl0aG9uJywgJy1waCcsICc3LjAnLCAnLXRuJywgJzgnLCAnLW1hJywgJzIwMCcsICctbWV0YWxfYmluZGluZycsICctaW1hZScsICc8aW5maWxlLm1hZT4nLCAnLW9tYWUnLCAnPG91dGZpbGUubWFlPic=

> <r_lp_tautomer_probability>
1

> <r_epik_Ionization_Penalty>
0.255703

> <r_epik_Ionization_Penalty_Charging>
0

> <r_epik_Ionization_Penalty_Neutral>
0.255703

> <r_epik_State_Penalty>
0.247169

> <r_epik_Charging_Adjusted_Penalty>
0.247169

> <i_epik_Tot_Q>
1

> <i_epik_Tot_abs_Q>
1

> <r_epik_Metal_State_Penalty>
0.536791

> <b_epik_Metal_Only>
0

> <s_lp_Force_Field>
OPLS_2005

> <r_lp_Energy>
19.451

> <b_lp_Chiralities_Consistent>
1

> <s_lp_Variant>
AV-unprocessed.smi:3292-2

> <Gold.Version>
5.8.1

> <Gold.Id.Protein>
6NUR|6NUR_protein|mol2

> <Gold.PLP.Fitness>
48.9938

> <Gold.PLP.PLP>
-31.4254

> <Gold.PLP.part.hbond>
-4.0000

> <Gold.PLP.part.metal>
0.0000

> <Gold.PLP.part.buried>
-3.7660

> <Gold.PLP.part.nonpolar>
-23.7540

> <Gold.PLP.part.repulsive>
0.1719

> <Gold.PLP.ligand.clash>
0.0000

> <Gold.PLP.ligand.torsion>
0.1628

> <Gold.PLP.Chemscore.Hbond>
4.9280

> <Gold.PLP.Chemscore.CHOScore>
1.0000

> <Gold.PLP.Chemscore.Metal>
0.0000

> <Gold.Chemscore.Hbonds>
donor molecule, donor type, donor heavy atom, donor atom, acceptor molecule, acceptor atom, score
      L1  H     7    39       P1 10186  1.92
      L1  H     9    28       P1  7948  0.93
      L1  H    12    29       P1  7948  1.00
      P1  H  7989  7998       L1    17  1.00
      L1  C     5    25       P1  7948  1.00

> <Gold.PLP.Chemscore.Internal.Correction>
0.1100

> <Gold.Rescore>
     Score         DG    S(hbond)    S(metal)    S(lipo)     H(rot)  DE(clash)    DE(int)     intcor
     17.68     -18.15       3.55        0.00      55.84       2.24       0.05       0.42       ----

> <Gold.Chemscore.Fitness>
17.6826

> <Gold.Chemscore.DG>
-18.1510

> <Gold.Chemscore.ZeroCoef>
-5.4800

> <Gold.Chemscore.Hbond>
3.5521

> <Gold.Chemscore.Metal>
0.0000

> <Gold.Chemscore.Lipo>
55.8351

> <Gold.Chemscore.Internal_Hbond>
0.0000

> <Gold.Chemscore.DEClash>
0.0451

> <Gold.Chemscore.DEInternal>
0.4233

> <Gold.Chemscore.Rot>
2.2367

> <Gold.Chemscore.Internal.Correction>
   9.000000E+99

> <Gold.Chemscore.Hbonds>
donor molecule, donor type, donor heavy atom, donor atom, acceptor molecule, acceptor atom, score
      L1  H     7    39       P1 10186  0.41
      L1  H     9    28       P1  7948  0.45
      L1  H    12    29       P1  7948  0.69
      P1  H  7989  7998       L1    17  0.65

> <Gold.Chemscore.Hbond.Weighted>
-11.8641

> <Gold.Chemscore.Metal.Weighted>
-0.0000

> <Gold.Chemscore.Lipo.Weighted>
-6.5327

> <Gold.Chemscore.Internal_Hbond.Weighted>
0.0000

> <Gold.Chemscore.DEClash.Weighted>
0.0451

> <Gold.Chemscore.DEInternal.Weighted>
0.4233

> <Gold.Chemscore.Rot.Weighted>
5.7259

> <Gold.Chemscore.Internal.Correction.Weighted>
   9.000000E+99

> <Gold.Protein.RotatedTorsions>
[ 6907 6896 6895 6894 ] final -147.00 input  -60.11 | X-H torsion
[ 7974 7965 7964 7962 ] final   91.43 input  175.53 | X-H torsion
[ 8008 7997 7996 7995 ] final   33.57 input   59.86 | X-H torsion
[ 10167 10162 10161 10158 ] final   49.92 input  -65.29 | X-H torsion
[ 10718 10713 10712 10709 ] final -124.35 input   66.30 | X-H torsion
[ 10763 10752 10751 10750 ] final  124.61 input  -60.55 | X-H torsion
[ 11005 11000 10999 10996 ] final -139.41 input  -57.11 | X-H torsion

> <Gold.Protein.ActiveResidues>
 VAL166  LYS551  ARG553  GLY616  TRP617  ASP618  TYR619  PRO620  LYS621  CYS622 
 ASP623  PHE694  ASN695  SER759  ASP760  ASP761  ALA762  ILE779  LEU786  VAL792 
 PHE793  MET794  SER795  GLU796  ALA797  LYS798  CYS799  TRP800  GLU811  SER814 

> <Gold.Protein.RotatedAtoms>
  151.1496  133.4916  159.2595 H   0  0  0  0  0  0  0  0  0  0  0  0  # atno 6907 bound_to 6896
  151.1568  135.0254  159.8703 H   0  0  0  0  0  0  0  0  0  0  0  0  # atno 6908 bound_to 6896
  152.5463  134.1374  159.8517 H   0  0  0  0  0  0  0  0  0  0  0  0  # atno 6909 bound_to 6896
  145.5058  139.2276  143.2752 H   0  0  0  0  0  0  0  0  0  0  0  0  # atno 7974 bound_to 7965
  155.1407  140.3266  155.4453 H   0  0  0  0  0  0  0  0  0  0  0  0  # atno 8008 bound_to 7997
  156.2605  140.1994  156.6473 H   0  0  0  0  0  0  0  0  0  0  0  0  # atno 8009 bound_to 7997
  154.6544  140.0554  156.9979 H   0  0  0  0  0  0  0  0  0  0  0  0  # atno 8010 bound_to 7997
  140.2778  144.3191  150.6272 H   0  0  0  0  0  0  0  0  0  0  0  0  # atno 10167 bound_to 10162
  156.1580  130.6581  151.0009 H   0  0  0  0  0  0  0  0  0  0  0  0  # atno 10718 bound_to 10713
  153.6641  135.3341  155.3135 H   0  0  0  0  0  0  0  0  0  0  0  0  # atno 10763 bound_to 10752
  154.8507  135.4371  154.1773 H   0  0  0  0  0  0  0  0  0  0  0  0  # atno 10764 bound_to 10752
  153.2747  135.7003  153.7520 H   0  0  0  0  0  0  0  0  0  0  0  0  # atno 10765 bound_to 10752
  140.8522  134.2271  157.4754 H   0  0  0  0  0  0  0  0  0  0  0  0  # atno 11005 bound_to 11000
  146.2197  140.5862  142.9022 LP  0  0  0  0  0  0  0  0  0  0  0  0  # atno 17320 bound_to 7965
  144.7755  140.5729  143.6641 LP  0  0  0  0  0  0  0  0  0  0  0  0  # atno 17321 bound_to 7965
  140.5837  143.2171  151.7382 LP  0  0  0  0  0  0  0  0  0  0  0  0  # atno 17342 bound_to 10162
  139.4971  144.4043  152.0149 LP  0  0  0  0  0  0  0  0  0  0  0  0  # atno 17343 bound_to 10162
  157.6710  131.0861  150.7612 LP  0  0  0  0  0  0  0  0  0  0  0  0  # atno 17370 bound_to 10713
  156.7676  130.4818  149.5424 LP  0  0  0  0  0  0  0  0  0  0  0  0  # atno 17371 bound_to 10713
  139.8704  134.9689  156.4647 LP  0  0  0  0  0  0  0  0  0  0  0  0  # atno 17394 bound_to 11000
  140.8777  133.7941  155.9432 LP  0  0  0  0  0  0  0  0  0  0  0  0  # atno 17395 bound_to 11000

$$$$
