AV-unprocessed.smi:2694|AV-procd|sdf|10405|dock7
  -GOLD-   2272014443D 1   1.00000     0.00000
 Structure written by MMmdl.
 42 44  0  0  0  0  0  0  0  0  1 V2000
  146.3882  141.6100  155.4150 O   0  0  0  0  0  0  0  0  0  0  0  0
  147.5535  141.2553  155.2378 C   0  0  0  0  0  0  0  0  0  0  0  0
  148.6443  141.6615  156.1241 C   0  0  0  0  0  0  0  0  0  0  0  0
  149.9153  141.2531  155.8928 C   0  0  0  0  0  0  0  0  0  0  0  0
  151.0857  141.6823  156.7672 C   0  0  0  0  0  0  0  0  0  0  0  0
  151.6988  140.6054  157.6787 C   0  0  0  0  0  0  0  0  0  0  0  0
  151.8309  141.6836  158.7599 C   0  0  0  0  0  0  0  0  0  0  0  0
  150.7085  142.4458  158.0475 C   0  0  0  0  0  0  0  0  0  0  0  0
  150.2107  140.4318  154.7993 N   0  0  0  0  0  0  0  0  0  0  0  0
  149.2626  140.0545  154.0027 C   0  0  0  0  0  0  0  0  0  0  0  0
  147.9262  140.4577  154.1951 N   0  0  0  0  0  0  0  0  0  0  0  0
  146.9411  139.9823  153.2075 C   0  0  0  0  0  0  0  0  0  0  0  0
  147.0828  138.4770  152.8773 C   0  0  2  0  0  0  0  0  0  0  0  0
  147.3600  138.3560  151.4974 O   0  0  0  0  0  0  0  0  0  0  0  0
  145.8319  137.6386  153.1983 C   0  0  0  0  0  0  0  0  0  0  0  0
  146.2204  136.2794  153.3482 O   0  0  0  0  0  0  0  0  0  0  0  0
  145.7918  135.3584  152.4163 C   0  0  0  0  0  0  0  0  0  0  0  0
  144.8310  135.6372  151.4113 C   0  0  0  0  0  0  0  0  0  0  0  0
  144.4334  134.6347  150.5054 C   0  0  0  0  0  0  0  0  0  0  0  0
  144.9906  133.3458  150.5886 C   0  0  0  0  0  0  0  0  0  0  0  0
  145.9519  133.0618  151.5754 C   0  0  0  0  0  0  0  0  0  0  0  0
  146.3527  134.0634  152.4808 C   0  0  0  0  0  0  0  0  0  0  0  0
  147.5449  133.6921  153.6731 Cl  0  0  0  0  0  0  0  0  0  0  0  0
  148.4220  142.3013  156.9654 H   0  0  0  0  0  0  0  0  0  0  0  0
  151.8488  142.2089  156.1911 H   0  0  0  0  0  0  0  0  0  0  0  0
  151.0000  139.8180  157.9647 H   0  0  0  0  0  0  0  0  0  0  0  0
  152.6453  140.1947  157.3264 H   0  0  0  0  0  0  0  0  0  0  0  0
  151.5879  141.3507  159.7693 H   0  0  0  0  0  0  0  0  0  0  0  0
  152.7881  142.2060  158.7228 H   0  0  0  0  0  0  0  0  0  0  0  0
  150.8507  143.5254  157.9945 H   0  0  0  0  0  0  0  0  0  0  0  0
  149.7200  142.1880  158.4329 H   0  0  0  0  0  0  0  0  0  0  0  0
  149.4415  139.4159  153.1362 H   0  0  0  0  0  0  0  0  0  0  0  0
  145.9220  140.1856  153.5433 H   0  0  0  0  0  0  0  0  0  0  0  0
  147.0466  140.5663  152.2911 H   0  0  0  0  0  0  0  0  0  0  0  0
  147.9399  138.0573  153.4054 H   0  0  0  0  0  0  0  0  0  0  0  0
  148.1480  138.8404  151.3040 H   0  0  0  0  0  0  0  0  0  0  0  0
  145.3535  138.0297  154.0975 H   0  0  0  0  0  0  0  0  0  0  0  0
  145.1120  137.6988  152.3803 H   0  0  0  0  0  0  0  0  0  0  0  0
  144.3845  136.6146  151.3115 H   0  0  0  0  0  0  0  0  0  0  0  0
  143.6993  134.8561  149.7450 H   0  0  0  0  0  0  0  0  0  0  0  0
  144.6846  132.5774  149.8941 H   0  0  0  0  0  0  0  0  0  0  0  0
  146.3836  132.0736  151.6370 H   0  0  0  0  0  0  0  0  0  0  0  0
  1  2  2  0  0  0  0
  2 11  1  0  0  0  0
  2  3  1  0  0  0  0
  3  4  2  0  0  0  0
  3 24  1  0  0  0  0
  4  5  1  0  0  0  0
  4  9  1  0  0  0  0
  5  8  1  0  0  0  0
  5  6  1  0  0  0  0
  5 25  1  0  0  0  0
  6  7  1  0  0  0  0
  6 26  1  0  0  0  0
  6 27  1  0  0  0  0
  7  8  1  0  0  0  0
  7 28  1  0  0  0  0
  7 29  1  0  0  0  0
  8 30  1  0  0  0  0
  8 31  1  0  0  0  0
  9 10  2  0  0  0  0
 10 11  1  0  0  0  0
 10 32  1  0  0  0  0
 11 12  1  0  0  0  0
 12 13  1  0  0  0  0
 12 33  1  0  0  0  0
 12 34  1  0  0  0  0
 13 14  1  0  0  0  0
 13 15  1  0  0  0  0
 13 35  1  0  0  0  0
 14 36  1  0  0  0  0
 15 16  1  0  0  0  0
 15 37  1  0  0  0  0
 15 38  1  0  0  0  0
 16 17  1  0  0  0  0
 17 22  1  0  0  0  0
 17 18  2  0  0  0  0
 18 19  1  0  0  0  0
 18 39  1  0  0  0  0
 19 20  2  0  0  0  0
 19 40  1  0  0  0  0
 20 21  1  0  0  0  0
 20 41  1  0  0  0  0
 21 22  2  0  0  0  0
 21 42  1  0  0  0  0
 22 23  1  0  0  0  0
M  END
> <s_m_source_file>
AV-unprocessed.smi

> <i_m_source_file_index>
2694

> <i_lp_mmshare_version>
43012

> <i_f3d_flags>
0

> <s_epik_input>
W0NIMl0xW0NIMl1bQ0gyXVtDSF0xYyhbY0hdYzI9TyluW2NIXW4yW0NIMl1bQ0BIXShbT0hdKVtDSDJdT2MzW2NIXVtjSF1bY0hdW2NIXWMzQ2w=

> <s_epik_cmdline>
J2VwaWtfcHl0aG9uJywgJy1waCcsICc3LjAnLCAnLXRuJywgJzgnLCAnLW1hJywgJzIwMCcsICctbWV0YWxfYmluZGluZycsICctaW1hZScsICc8aW5maWxlLm1hZT4nLCAnLW9tYWUnLCAnPG91dGZpbGUubWFlPic=

> <r_lp_tautomer_probability>
1

> <r_epik_Ionization_Penalty>
1.78212e-05

> <r_epik_Ionization_Penalty_Charging>
5.61663e-08

> <r_epik_Ionization_Penalty_Neutral>
1.7765e-05

> <r_epik_State_Penalty>
-0

> <r_epik_Charging_Adjusted_Penalty>
5.61663e-08

> <i_epik_Tot_Q>
0

> <i_epik_Tot_abs_Q>
0

> <r_epik_Metal_State_Penalty>
-0

> <b_epik_Metal_Only>
0

> <s_lp_Force_Field>
OPLS_2005

> <r_lp_Energy>
26.4785

> <b_lp_Chiralities_Consistent>
1

> <s_lp_Variant>
AV-unprocessed.smi:2694-1

> <Gold.Version>
5.8.1

> <Gold.Id.Protein>
6NUR|6NUR_protein|mol2

> <Gold.PLP.Fitness>
44.7474

> <Gold.PLP.PLP>
-39.1288

> <Gold.PLP.part.hbond>
-4.0000

> <Gold.PLP.part.metal>
0.0000

> <Gold.PLP.part.buried>
-1.1766

> <Gold.PLP.part.nonpolar>
-34.9148

> <Gold.PLP.part.repulsive>
0.5125

> <Gold.PLP.ligand.clash>
0.0000

> <Gold.PLP.ligand.torsion>
1.7702

> <Gold.PLP.Chemscore.Hbond>
1.9760

> <Gold.PLP.Chemscore.CHOScore>
0.9432

> <Gold.PLP.Chemscore.Metal>
0.0000

> <Gold.Chemscore.Hbonds>
donor molecule, donor type, donor heavy atom, donor atom, acceptor molecule, acceptor atom, score
      L1  H    14    36       P1  7957  1.00
      P1  H  7989  7998       L1     9  0.99
      L1  C    10    32       P1  7957  0.94

> <Gold.PLP.Chemscore.Internal.Correction>
0.4016

> <Gold.Rescore>
     Score         DG    S(hbond)    S(metal)    S(lipo)     H(rot)  DE(clash)    DE(int)     intcor
     11.61     -13.59       1.05        0.00      92.39       2.42       0.26       1.72       ----

> <Gold.Chemscore.Fitness>
11.6055

> <Gold.Chemscore.DG>
-13.5882

> <Gold.Chemscore.ZeroCoef>
-5.4800

> <Gold.Chemscore.Hbond>
1.0495

> <Gold.Chemscore.Metal>
0.0000

> <Gold.Chemscore.Lipo>
92.3888

> <Gold.Chemscore.Internal_Hbond>
0.0000

> <Gold.Chemscore.DEClash>
0.2603

> <Gold.Chemscore.DEInternal>
1.7224

> <Gold.Chemscore.Rot>
2.4245

> <Gold.Chemscore.Internal.Correction>
   9.000000E+99

> <Gold.Chemscore.Hbonds>
donor molecule, donor type, donor heavy atom, donor atom, acceptor molecule, acceptor atom, score
      L1  H    14    36       P1  7957  0.40
      P1  H  7989  7998       L1     9  0.23

> <Gold.Chemscore.Hbond.Weighted>
-3.5053

> <Gold.Chemscore.Metal.Weighted>
-0.0000

> <Gold.Chemscore.Lipo.Weighted>
-10.8095

> <Gold.Chemscore.Internal_Hbond.Weighted>
0.0000

> <Gold.Chemscore.DEClash.Weighted>
0.2603

> <Gold.Chemscore.DEInternal.Weighted>
1.7224

> <Gold.Chemscore.Rot.Weighted>
6.2066

> <Gold.Chemscore.Internal.Correction.Weighted>
   9.000000E+99

> <Gold.Protein.RotatedTorsions>
[ 6907 6896 6895 6894 ] final   98.27 input  -60.11 | X-H torsion
[ 7974 7965 7964 7962 ] final   22.91 input  175.53 | X-H torsion
[ 8008 7997 7996 7995 ] final  156.65 input   59.86 | X-H torsion
[ 10167 10162 10161 10158 ] final  -78.99 input  -65.29 | X-H torsion
[ 10718 10713 10712 10709 ] final  111.88 input   66.30 | X-H torsion
[ 10763 10752 10751 10750 ] final -104.58 input  -60.55 | X-H torsion
[ 11005 11000 10999 10996 ] final   31.16 input  -57.11 | X-H torsion

> <Gold.Protein.ActiveResidues>
 VAL166  LYS551  ARG553  GLY616  TRP617  ASP618  TYR619  PRO620  LYS621  CYS622 
 ASP623  PHE694  ASN695  SER759  ASP760  ASP761  ALA762  ILE779  LEU786  VAL792 
 PHE793  MET794  SER795  GLU796  ALA797  LYS798  CYS799  TRP800  GLU811  SER814 

> <Gold.Protein.RotatedAtoms>
  152.5411  134.0606  159.8150 H   0  0  0  0  0  0  0  0  0  0  0  0  # atno 6907 bound_to 6896
  151.0735  133.5440  159.2633 H   0  0  0  0  0  0  0  0  0  0  0  0  # atno 6908 bound_to 6896
  151.2294  135.0557  159.9035 H   0  0  0  0  0  0  0  0  0  0  0  0  # atno 6909 bound_to 6896
  146.2008  139.7819  142.8763 H   0  0  0  0  0  0  0  0  0  0  0  0  # atno 7974 bound_to 7965
  156.2410  140.1906  156.6988 H   0  0  0  0  0  0  0  0  0  0  0  0  # atno 8008 bound_to 7997
  154.6197  140.0610  156.9626 H   0  0  0  0  0  0  0  0  0  0  0  0  # atno 8009 bound_to 7997
  155.1882  140.3282  155.4366 H   0  0  0  0  0  0  0  0  0  0  0  0  # atno 8010 bound_to 7997
  140.4633  143.2447  151.8316 H   0  0  0  0  0  0  0  0  0  0  0  0  # atno 10167 bound_to 10162
  157.6422  131.0958  150.6813 H   0  0  0  0  0  0  0  0  0  0  0  0  # atno 10718 bound_to 10713
  154.7888  135.4781  154.0006 H   0  0  0  0  0  0  0  0  0  0  0  0  # atno 10763 bound_to 10752
  153.1600  135.6807  153.8764 H   0  0  0  0  0  0  0  0  0  0  0  0  # atno 10764 bound_to 10752
  153.8381  135.3183  155.3402 H   0  0  0  0  0  0  0  0  0  0  0  0  # atno 10765 bound_to 10752
  140.2868  134.2910  155.7786 H   0  0  0  0  0  0  0  0  0  0  0  0  # atno 11005 bound_to 11000
  145.3490  141.0303  143.3349 LP  0  0  0  0  0  0  0  0  0  0  0  0  # atno 17320 bound_to 7965
  144.8679  139.5080  143.6781 LP  0  0  0  0  0  0  0  0  0  0  0  0  # atno 17321 bound_to 7965
  139.4809  144.4982  151.9096 LP  0  0  0  0  0  0  0  0  0  0  0  0  # atno 17342 bound_to 10162
  140.4067  144.2422  150.5890 LP  0  0  0  0  0  0  0  0  0  0  0  0  # atno 17343 bound_to 10162
  156.7135  130.4659  149.5541 LP  0  0  0  0  0  0  0  0  0  0  0  0  # atno 17370 bound_to 10713
  156.1714  130.6439  151.0841 LP  0  0  0  0  0  0  0  0  0  0  0  0  # atno 17371 bound_to 10713
  141.2153  133.7560  156.9564 LP  0  0  0  0  0  0  0  0  0  0  0  0  # atno 17394 bound_to 11000
  140.1232  134.9403  157.2233 LP  0  0  0  0  0  0  0  0  0  0  0  0  # atno 17395 bound_to 11000

$$$$
