AV-unprocessed.smi:1195|AV-procd|sdf|4995|dock3
  -GOLD-   22720 4 03D 1   1.00000     0.00000
 Structure written by MMmdl.
 39 40  0  0  0  0  0  0  0  0  1 V2000
  146.7035  132.3428  149.8021 N   0  0  0  0  0  0  0  0  0  0  0  0
  145.6317  131.7478  150.3312 C   0  0  0  0  0  0  0  0  0  0  0  0
  145.7207  130.7068  150.9811 O   0  0  0  0  0  0  0  0  0  0  0  0
  144.2807  132.4332  150.0859 C   0  0  0  0  0  0  0  0  0  0  0  0
  144.1289  133.6684  150.8377 N   0  0  0  0  0  0  0  0  0  0  0  0
  144.8759  134.8258  150.7355 C   0  0  0  0  0  0  0  0  0  0  0  0
  144.3396  135.6938  151.6441 C   0  0  0  0  0  0  0  0  0  0  0  0
  144.7202  137.0253  151.9484 N   0  0  0  0  0  0  0  0  0  0  0  0
  145.5207  137.4353  152.9460 C   0  0  0  0  0  0  0  0  0  0  0  0
  146.0524  136.6967  153.7752 O   0  0  0  0  0  0  0  0  0  0  0  0
  145.6733  138.7673  152.9328 N   0  0  0  0  0  0  0  0  0  0  0  0
  146.4748  139.5312  153.8840 C   0  0  2  0  0  0  0  0  0  0  0  0
  146.7278  140.9450  153.3303 C   0  0  0  0  0  0  0  0  0  0  0  0
  147.6066  141.7757  154.2823 C   0  0  0  0  0  0  0  0  0  0  0  0
  148.9304  141.0662  154.6251 C   0  0  2  0  0  0  0  0  0  0  0  0
  149.7768  141.0455  153.4926 O   0  0  0  0  0  0  0  0  0  0  0  0
  148.6910  139.6312  155.1311 C   0  0  0  0  0  0  0  0  0  0  0  0
  147.8084  138.8133  154.1723 C   0  0  0  0  0  0  0  0  0  0  0  0
  143.2699  134.9955  152.2620 C   0  0  0  0  0  0  0  0  0  0  0  0
  143.1506  133.7709  151.7723 N   0  0  0  0  0  0  0  0  0  0  0  0
  147.6176  131.9344  149.9341 H   0  0  0  0  0  0  0  0  0  0  0  0
  146.5987  133.1967  149.2742 H   0  0  0  0  0  0  0  0  0  0  0  0
  144.1670  132.6435  149.0213 H   0  0  0  0  0  0  0  0  0  0  0  0
  143.4724  131.7575  150.3682 H   0  0  0  0  0  0  0  0  0  0  0  0
  145.6954  134.9188  150.0384 H   0  0  0  0  0  0  0  0  0  0  0  0
  144.3409  137.7402  151.3448 H   0  0  0  0  0  0  0  0  0  0  0  0
  145.2017  139.2934  152.2117 H   0  0  0  0  0  0  0  0  0  0  0  0
  145.9170  139.6290  154.8175 H   0  0  0  0  0  0  0  0  0  0  0  0
  147.2107  140.8795  152.3543 H   0  0  0  0  0  0  0  0  0  0  0  0
  145.7791  141.4584  153.1694 H   0  0  0  0  0  0  0  0  0  0  0  0
  147.8043  142.7569  153.8489 H   0  0  0  0  0  0  0  0  0  0  0  0
  147.0530  141.9581  155.2043 H   0  0  0  0  0  0  0  0  0  0  0  0
  149.4484  141.6348  155.3979 H   0  0  0  0  0  0  0  0  0  0  0  0
  149.4830  140.3617  152.9103 H   0  0  0  0  0  0  0  0  0  0  0  0
  149.6420  139.1221  155.2919 H   0  0  0  0  0  0  0  0  0  0  0  0
  148.2027  139.6755  156.1054 H   0  0  0  0  0  0  0  0  0  0  0  0
  147.6216  137.8291  154.6034 H   0  0  0  0  0  0  0  0  0  0  0  0
  148.3450  138.6411  153.2382 H   0  0  0  0  0  0  0  0  0  0  0  0
  142.5913  135.3281  153.0337 H   0  0  0  0  0  0  0  0  0  0  0  0
  1  2  1  0  0  0  0
  1 21  1  0  0  0  0
  1 22  1  0  0  0  0
  2  3  2  0  0  0  0
  2  4  1  0  0  0  0
  4  5  1  0  0  0  0
  4 23  1  0  0  0  0
  4 24  1  0  0  0  0
  5 20  1  0  0  0  0
  5  6  1  0  0  0  0
  6  7  2  0  0  0  0
  6 25  1  0  0  0  0
  7  8  1  0  0  0  0
  7 19  1  0  0  0  0
  8  9  1  0  0  0  0
  8 26  1  0  0  0  0
  9 10  2  0  0  0  0
  9 11  1  0  0  0  0
 11 12  1  0  0  0  0
 11 27  1  0  0  0  0
 12 18  1  0  0  0  0
 12 13  1  0  0  0  0
 12 28  1  0  0  0  0
 13 14  1  0  0  0  0
 13 29  1  0  0  0  0
 13 30  1  0  0  0  0
 14 15  1  0  0  0  0
 14 31  1  0  0  0  0
 14 32  1  0  0  0  0
 15 16  1  0  0  0  0
 15 17  1  0  0  0  0
 15 33  1  0  0  0  0
 16 34  1  0  0  0  0
 17 18  1  0  0  0  0
 17 35  1  0  0  0  0
 17 36  1  0  0  0  0
 18 37  1  0  0  0  0
 18 38  1  0  0  0  0
 19 20  2  0  0  0  0
 19 39  1  0  0  0  0
M  END
> <s_m_source_file>
AV-unprocessed.smi

> <i_m_source_file_index>
1195

> <i_lp_mmshare_version>
43012

> <i_f3d_flags>
0

> <s_epik_input>
W05IMl1DKD1PKVtDSDJdbjFbY0hdYyhbY0hdbjEpW05IXUMoPU8pW05IXVtDQEBIXTJbQ0gyXVtDSDJdW0NAQEhdKFtPSF0pW0NIMl1bQ0gyXTI=

> <s_epik_cmdline>
J2VwaWtfcHl0aG9uJywgJy1waCcsICc3LjAnLCAnLXRuJywgJzgnLCAnLW1hJywgJzIwMCcsICctbWV0YWxfYmluZGluZycsICctaW1hZScsICc8aW5maWxlLm1hZT4nLCAnLW9tYWUnLCAnPG91dGZpbGUubWFlPic=

> <r_lp_tautomer_probability>
1

> <r_epik_Ionization_Penalty>
4.75851e-05

> <r_epik_Ionization_Penalty_Charging>
0

> <r_epik_Ionization_Penalty_Neutral>
4.75851e-05

> <r_epik_State_Penalty>
-0

> <r_epik_Charging_Adjusted_Penalty>
0

> <i_epik_Tot_Q>
0

> <i_epik_Tot_abs_Q>
0

> <r_epik_Metal_State_Penalty>
-0

> <b_epik_Metal_Only>
0

> <s_lp_Force_Field>
OPLS_2005

> <r_lp_Energy>
14.5792

> <b_lp_Chiralities_Consistent>
1

> <s_lp_Variant>
AV-unprocessed.smi:1195-2

> <Gold.Version>
5.8.1

> <Gold.Id.Protein>
6NUR|6NUR_protein|mol2

> <Gold.PLP.Fitness>
48.1398

> <Gold.PLP.PLP>
-33.8496

> <Gold.PLP.part.hbond>
-5.4004

> <Gold.PLP.part.metal>
0.0000

> <Gold.PLP.part.buried>
-5.8442

> <Gold.PLP.part.nonpolar>
-24.2670

> <Gold.PLP.part.repulsive>
0.6106

> <Gold.PLP.ligand.clash>
0.0000

> <Gold.PLP.ligand.torsion>
1.0956

> <Gold.PLP.Chemscore.Hbond>
4.4880

> <Gold.PLP.Chemscore.CHOScore>
1.0000

> <Gold.PLP.Chemscore.Metal>
0.0000

> <Gold.Chemscore.Hbonds>
donor molecule, donor type, donor heavy atom, donor atom, acceptor molecule, acceptor atom, score
      L1  H     1    21       P1 10747  1.00
      L1  H     8    26       P1 10171  1.00
      L1  H    11    27       P1 10175  0.54
      L1  H    16    34       P1  7957  0.70
      P1  H  7989  7998       L1    16  0.24
      P1  H  8011  8017       L1    16  0.95
      L1  C     6    25       P1  7921  1.00

> <Gold.PLP.Chemscore.Internal.Correction>
0.0173

> <Gold.Rescore>
     Score         DG    S(hbond)    S(metal)    S(lipo)     H(rot)  DE(clash)    DE(int)     intcor
     14.14     -18.04       3.60        0.00      62.06       2.62       1.60       2.29       ----

> <Gold.Chemscore.Fitness>
14.1446

> <Gold.Chemscore.DG>
-18.0425

> <Gold.Chemscore.ZeroCoef>
-5.4800

> <Gold.Chemscore.Hbond>
3.5964

> <Gold.Chemscore.Metal>
0.0000

> <Gold.Chemscore.Lipo>
62.0568

> <Gold.Chemscore.Internal_Hbond>
0.0000

> <Gold.Chemscore.DEClash>
1.6030

> <Gold.Chemscore.DEInternal>
2.2948

> <Gold.Chemscore.Rot>
2.6212

> <Gold.Chemscore.Internal.Correction>
   9.000000E+99

> <Gold.Chemscore.Hbonds>
donor molecule, donor type, donor heavy atom, donor atom, acceptor molecule, acceptor atom, score
      L1  H     1    21       P1 10747  1.00
      L1  H     8    26       P1 10171  0.99
      L1  H    11    27       P1 10175  0.54
      L1  H    16    34       P1  7957  0.70
      P1  H  7989  7998       L1    16  0.11
      P1  H  8011  8017       L1    16  0.20

> <Gold.Chemscore.Hbond.Weighted>
-12.0121

> <Gold.Chemscore.Metal.Weighted>
-0.0000

> <Gold.Chemscore.Lipo.Weighted>
-7.2607

> <Gold.Chemscore.Internal_Hbond.Weighted>
0.0000

> <Gold.Chemscore.DEClash.Weighted>
1.6030

> <Gold.Chemscore.DEInternal.Weighted>
2.2948

> <Gold.Chemscore.Rot.Weighted>
6.7103

> <Gold.Chemscore.Internal.Correction.Weighted>
   9.000000E+99

> <Gold.Protein.RotatedTorsions>
[ 6907 6896 6895 6894 ] final  -33.61 input  -60.11 | X-H torsion
[ 7974 7965 7964 7962 ] final   60.49 input  175.53 | X-H torsion
[ 8008 7997 7996 7995 ] final  -49.66 input   59.86 | X-H torsion
[ 10167 10162 10161 10158 ] final  -67.85 input  -65.29 | X-H torsion
[ 10718 10713 10712 10709 ] final -140.60 input   66.30 | X-H torsion
[ 10763 10752 10751 10750 ] final -109.18 input  -60.55 | X-H torsion
[ 11005 11000 10999 10996 ] final  -46.47 input  -57.11 | X-H torsion

> <Gold.Protein.ActiveResidues>
 VAL166  LYS551  ARG553  GLY616  TRP617  ASP618  TYR619  PRO620  LYS621  CYS622 
 ASP623  PHE694  ASN695  SER759  ASP760  ASP761  ALA762  ILE779  LEU786  VAL792 
 PHE793  MET794  SER795  GLU796  ALA797  LYS798  CYS799  TRP800  GLU811  SER814 

> <Gold.Protein.RotatedAtoms>
  151.0634  134.9752  159.8271 H   0  0  0  0  0  0  0  0  0  0  0  0  # atno 6907 bound_to 6896
  152.5398  134.2389  159.8864 H   0  0  0  0  0  0  0  0  0  0  0  0  # atno 6908 bound_to 6896
  151.2410  133.4356  159.2641 H   0  0  0  0  0  0  0  0  0  0  0  0  # atno 6909 bound_to 6896
  145.8955  139.3542  143.0624 H   0  0  0  0  0  0  0  0  0  0  0  0  # atno 7974 bound_to 7965
  154.4048  140.1291  156.4539 H   0  0  0  0  0  0  0  0  0  0  0  0  # atno 8008 bound_to 7997
  155.7339  140.3491  155.5052 H   0  0  0  0  0  0  0  0  0  0  0  0  # atno 8009 bound_to 7997
  155.9101  140.1034  157.1275 H   0  0  0  0  0  0  0  0  0  0  0  0  # atno 8010 bound_to 7997
  140.5551  143.2312  151.6836 H   0  0  0  0  0  0  0  0  0  0  0  0  # atno 10167 bound_to 10162
  156.3242  130.7551  151.1655 H   0  0  0  0  0  0  0  0  0  0  0  0  # atno 10718 bound_to 10713
  154.8178  135.4610  154.0693 H   0  0  0  0  0  0  0  0  0  0  0  0  # atno 10763 bound_to 10752
  153.2072  135.6877  153.8165 H   0  0  0  0  0  0  0  0  0  0  0  0  # atno 10764 bound_to 10752
  153.7629  135.3281  155.3317 H   0  0  0  0  0  0  0  0  0  0  0  0  # atno 10765 bound_to 10752
  141.0580  133.6719  156.3159 H   0  0  0  0  0  0  0  0  0  0  0  0  # atno 11005 bound_to 11000
  145.8856  140.9336  143.0578 LP  0  0  0  0  0  0  0  0  0  0  0  0  # atno 17320 bound_to 7965
  144.6732  140.0838  143.7468 LP  0  0  0  0  0  0  0  0  0  0  0  0  # atno 17321 bound_to 7965
  139.5044  144.3754  152.0429 LP  0  0  0  0  0  0  0  0  0  0  0  0  # atno 17342 bound_to 10162
  140.2874  144.3791  150.6099 LP  0  0  0  0  0  0  0  0  0  0  0  0  # atno 17343 bound_to 10162
  157.7418  131.0499  150.5072 LP  0  0  0  0  0  0  0  0  0  0  0  0  # atno 17370 bound_to 10713
  156.5229  130.4166  149.6241 LP  0  0  0  0  0  0  0  0  0  0  0  0  # atno 17371 bound_to 10713
  140.5925  134.5637  157.5502 LP  0  0  0  0  0  0  0  0  0  0  0  0  # atno 17394 bound_to 11000
  139.9407  134.7791  156.0685 LP  0  0  0  0  0  0  0  0  0  0  0  0  # atno 17395 bound_to 11000

$$$$
