AV-unprocessed.smi:1721|AV-procd|sdf|6935|dock1
  -GOLD-   22720 8143D 1   1.00000     0.00000
 Structure written by MMmdl.
 44 46  0  0  0  0  0  0  0  0  2 V2000
  148.4966  140.4864  154.0492 C   0  0  0  0  0  0  0  0  0  0  0  0
  149.0829  139.1900  154.0057 O   0  0  0  0  0  0  0  0  0  0  0  0
  150.2508  138.9690  154.7114 C   0  0  0  0  0  0  0  0  0  0  0  0
  150.9205  140.0433  155.1990 N   0  0  0  0  0  0  0  0  0  0  0  0
  152.0609  139.8324  155.8862 C   0  0  0  0  0  0  0  0  0  0  0  0
  152.5910  138.5512  156.1213 C   0  0  0  0  0  0  0  0  0  0  0  0
  151.8988  137.4347  155.6173 C   0  0  0  0  0  0  0  0  0  0  0  0
  150.6966  137.6382  154.8941 C   0  0  0  0  0  0  0  0  0  0  0  0
  149.9038  136.5959  154.3325 N   0  0  0  0  0  0  0  0  0  0  0  0
  149.6828  135.3460  154.7749 C   0  0  0  0  0  0  0  0  0  0  0  0
  150.1520  134.8507  155.7983 O   0  0  0  0  0  0  0  0  0  0  0  0
  148.8625  134.6827  153.9478 N   0  0  0  0  0  0  0  0  0  0  0  0
  148.4214  133.3023  154.1283 C   0  0  2  0  0  0  0  0  0  0  0  0
  149.5674  132.3419  154.4232 C   0  0  0  0  0  0  0  0  0  0  0  0
  148.9480  130.9856  154.0817 C   0  0  0  0  0  0  0  0  0  0  0  0
  148.0118  131.2344  152.9610 N   0  3  1  0  0  0  0  0  0  0  0  0
  146.7816  130.4061  152.9918 C   0  0  0  0  0  0  0  0  0  0  0  0
  145.8842  130.7149  151.7786 C   0  0  0  0  0  0  0  0  0  0  0  0
  145.6492  132.2253  151.5676 C   0  0  0  0  0  0  0  0  0  0  0  0
  146.3032  133.0787  152.6651 C   0  0  0  0  0  0  0  0  0  0  0  0
  147.7910  132.7053  152.8585 C   0  0  1  0  0  0  0  0  0  0  0  0
  147.5924  140.4933  153.4407 H   0  0  0  0  0  0  0  0  0  0  0  0
  149.1708  141.2440  153.6468 H   0  0  0  0  0  0  0  0  0  0  0  0
  148.2130  140.7620  155.0658 H   0  0  0  0  0  0  0  0  0  0  0  0
  152.5665  140.7109  156.2589 H   0  0  0  0  0  0  0  0  0  0  0  0
  153.5093  138.4272  156.6760 H   0  0  0  0  0  0  0  0  0  0  0  0
  152.3127  136.4567  155.7991 H   0  0  0  0  0  0  0  0  0  0  0  0
  149.4339  136.8445  153.4739 H   0  0  0  0  0  0  0  0  0  0  0  0
  148.5239  135.1665  153.1288 H   0  0  0  0  0  0  0  0  0  0  0  0
  147.7131  133.2376  154.9575 H   0  0  0  0  0  0  0  0  0  0  0  0
  150.4144  132.5418  153.7649 H   0  0  0  0  0  0  0  0  0  0  0  0
  149.9170  132.3995  155.4547 H   0  0  0  0  0  0  0  0  0  0  0  0
  149.6973  130.2392  153.8168 H   0  0  0  0  0  0  0  0  0  0  0  0
  148.4005  130.6138  154.9494 H   0  0  0  0  0  0  0  0  0  0  0  0
  147.0534  129.3500  152.9955 H   0  0  0  0  0  0  0  0  0  0  0  0
  146.2366  130.5926  153.9186 H   0  0  0  0  0  0  0  0  0  0  0  0
  146.3376  130.2969  150.8790 H   0  0  0  0  0  0  0  0  0  0  0  0
  144.9287  130.2028  151.8965 H   0  0  0  0  0  0  0  0  0  0  0  0
  146.0570  132.5181  150.5993 H   0  0  0  0  0  0  0  0  0  0  0  0
  144.5803  132.4367  151.5209 H   0  0  0  0  0  0  0  0  0  0  0  0
  146.2103  134.1357  152.4145 H   0  0  0  0  0  0  0  0  0  0  0  0
  145.7571  132.9424  153.5996 H   0  0  0  0  0  0  0  0  0  0  0  0
  148.3565  133.0337  151.9847 H   0  0  0  0  0  0  0  0  0  0  0  0
  148.5013  130.9777  152.1156 H   0  0  0  0  0  0  0  0  0  0  0  0
  1  2  1  0  0  0  0
  1 22  1  0  0  0  0
  1 23  1  0  0  0  0
  1 24  1  0  0  0  0
  2  3  1  0  0  0  0
  3  8  1  0  0  0  0
  3  4  2  0  0  0  0
  4  5  1  0  0  0  0
  5  6  2  0  0  0  0
  5 25  1  0  0  0  0
  6  7  1  0  0  0  0
  6 26  1  0  0  0  0
  7  8  2  0  0  0  0
  7 27  1  0  0  0  0
  8  9  1  0  0  0  0
  9 10  1  0  0  0  0
  9 28  1  0  0  0  0
 10 11  2  0  0  0  0
 10 12  1  0  0  0  0
 12 13  1  0  0  0  0
 12 29  1  0  0  0  0
 13 21  1  0  0  0  0
 13 14  1  0  0  0  0
 13 30  1  0  0  0  0
 14 15  1  0  0  0  0
 14 31  1  0  0  0  0
 14 32  1  0  0  0  0
 15 16  1  0  0  0  0
 15 33  1  0  0  0  0
 15 34  1  0  0  0  0
 16 21  1  0  0  0  0
 16 17  1  0  0  0  0
 16 44  1  0  0  0  0
 17 18  1  0  0  0  0
 17 35  1  0  0  0  0
 17 36  1  0  0  0  0
 18 19  1  0  0  0  0
 18 37  1  0  0  0  0
 18 38  1  0  0  0  0
 19 20  1  0  0  0  0
 19 39  1  0  0  0  0
 19 40  1  0  0  0  0
 20 21  1  0  0  0  0
 20 41  1  0  0  0  0
 20 42  1  0  0  0  0
 21 43  1  0  0  0  0
M  CHG  1  16   1
M  END
> <s_m_source_file>
AV-unprocessed.smi

> <i_m_source_file_index>
1721

> <i_lp_mmshare_version>
43012

> <i_f3d_flags>
0

> <s_epik_input>
W0NIM11PYzFuW2NIXVtjSF1bY0hdYzFbTkhdQyg9TylbTkhdW0NASF0oW0NIMl1bQ0gyXTIpW0NAQEhdKE4yMylbQ0gyXVtDSDJdW0NIMl1bQ0gyXTM=

> <s_epik_cmdline>
J2VwaWtfcHl0aG9uJywgJy1waCcsICc3LjAnLCAnLXRuJywgJzgnLCAnLW1hJywgJzIwMCcsICctbWV0YWxfYmluZGluZycsICctaW1hZScsICc8aW5maWxlLm1hZT4nLCAnLW9tYWUnLCAnPG91dGZpbGUubWFlPic=

> <r_lp_tautomer_probability>
1

> <r_epik_Ionization_Penalty>
0.00104793

> <r_epik_Ionization_Penalty_Charging>
0.000974069

> <r_epik_Ionization_Penalty_Neutral>
7.38649e-05

> <r_epik_State_Penalty>
0.000633842

> <r_epik_Charging_Adjusted_Penalty>
0.00160791

> <i_epik_Tot_Q>
1

> <i_epik_Tot_abs_Q>
1

> <r_epik_Metal_State_Penalty>
-0

> <b_epik_Metal_Only>
0

> <s_lp_Force_Field>
OPLS_2005

> <r_lp_Energy>
42.7216

> <b_lp_Chiralities_Consistent>
1

> <s_lp_Variant>
AV-unprocessed.smi:1721-1

> <Gold.Version>
5.8.1

> <Gold.Id.Protein>
6NUR|6NUR_protein|mol2

> <Gold.PLP.Fitness>
46.4571

> <Gold.PLP.PLP>
-35.7481

> <Gold.PLP.part.hbond>
-4.5432

> <Gold.PLP.part.metal>
0.0000

> <Gold.PLP.part.buried>
-2.0456

> <Gold.PLP.part.nonpolar>
-30.5003

> <Gold.PLP.part.repulsive>
0.9375

> <Gold.PLP.ligand.clash>
0.0000

> <Gold.PLP.ligand.torsion>
0.5096

> <Gold.PLP.Chemscore.Hbond>
3.9040

> <Gold.PLP.Chemscore.CHOScore>
0.0000

> <Gold.PLP.Chemscore.Metal>
0.0000

> <Gold.Chemscore.Hbonds>
donor molecule, donor type, donor heavy atom, donor atom, acceptor molecule, acceptor atom, score
      L1  H     9    28       P1  7948  0.86
      L1  H    12    29       P1  7948  0.88
      L1  H    16    44       P1 10747  1.00
      P1  H  7989  7998       L1     4  1.00

> <Gold.PLP.Chemscore.Internal.Correction>
0.0161

> <Gold.Rescore>
     Score         DG    S(hbond)    S(metal)    S(lipo)     H(rot)  DE(clash)    DE(int)     intcor
     19.33     -19.83       2.54        0.00      77.32       1.25       0.23       0.26       ----

> <Gold.Chemscore.Fitness>
19.3348

> <Gold.Chemscore.DG>
-19.8289

> <Gold.Chemscore.ZeroCoef>
-5.4800

> <Gold.Chemscore.Hbond>
2.5436

> <Gold.Chemscore.Metal>
0.0000

> <Gold.Chemscore.Lipo>
77.3214

> <Gold.Chemscore.Internal_Hbond>
0.0000

> <Gold.Chemscore.DEClash>
0.2345

> <Gold.Chemscore.DEInternal>
0.2596

> <Gold.Chemscore.Rot>
1.2474

> <Gold.Chemscore.Internal.Correction>
   9.000000E+99

> <Gold.Chemscore.Hbonds>
donor molecule, donor type, donor heavy atom, donor atom, acceptor molecule, acceptor atom, score
      L1  H     9    28       P1  7948  0.75
      L1  H    12    29       P1  7948  0.71
      L1  H    16    44       P1 10747  0.96
      P1  H  7989  7998       L1     4  0.10

> <Gold.Chemscore.Hbond.Weighted>
-8.4958

> <Gold.Chemscore.Metal.Weighted>
-0.0000

> <Gold.Chemscore.Lipo.Weighted>
-9.0466

> <Gold.Chemscore.Internal_Hbond.Weighted>
0.0000

> <Gold.Chemscore.DEClash.Weighted>
0.2345

> <Gold.Chemscore.DEInternal.Weighted>
0.2596

> <Gold.Chemscore.Rot.Weighted>
3.1934

> <Gold.Chemscore.Internal.Correction.Weighted>
   9.000000E+99

> <Gold.Protein.RotatedTorsions>
[ 6907 6896 6895 6894 ] final   79.19 input  -60.11 | X-H torsion
[ 7974 7965 7964 7962 ] final -164.56 input  175.53 | X-H torsion
[ 8008 7997 7996 7995 ] final -130.12 input   59.86 | X-H torsion
[ 10167 10162 10161 10158 ] final   71.80 input  -65.29 | X-H torsion
[ 10718 10713 10712 10709 ] final  -46.48 input   66.30 | X-H torsion
[ 10763 10752 10751 10750 ] final  -80.86 input  -60.55 | X-H torsion
[ 11005 11000 10999 10996 ] final  172.10 input  -57.11 | X-H torsion

> <Gold.Protein.ActiveResidues>
 VAL166  LYS551  ARG553  GLY616  TRP617  ASP618  TYR619  PRO620  LYS621  CYS622 
 ASP623  PHE694  ASN695  SER759  ASP760  ASP761  ALA762  ILE779  LEU786  VAL792 
 PHE793  MET794  SER795  GLU796  ALA797  LYS798  CYS799  TRP800  GLU811  SER814 

> <Gold.Protein.RotatedAtoms>
  152.5189  134.3549  159.9263 H   0  0  0  0  0  0  0  0  0  0  0  0  # atno 6907 bound_to 6896
  151.3500  133.3923  159.2687 H   0  0  0  0  0  0  0  0  0  0  0  0  # atno 6908 bound_to 6896
  150.9735  134.9122  159.7860 H   0  0  0  0  0  0  0  0  0  0  0  0  # atno 6909 bound_to 6896
  144.7293  140.2943  143.6215 H   0  0  0  0  0  0  0  0  0  0  0  0  # atno 7974 bound_to 7965
  155.2905  140.0448  157.3022 H   0  0  0  0  0  0  0  0  0  0  0  0  # atno 8008 bound_to 7997
  154.5544  140.2327  155.8401 H   0  0  0  0  0  0  0  0  0  0  0  0  # atno 8009 bound_to 7997
  156.1995  140.3029  155.9503 H   0  0  0  0  0  0  0  0  0  0  0  0  # atno 8010 bound_to 7997
  140.0421  144.5381  150.7426 H   0  0  0  0  0  0  0  0  0  0  0  0  # atno 10167 bound_to 10162
  156.2179  130.4164  149.9031 H   0  0  0  0  0  0  0  0  0  0  0  0  # atno 10718 bound_to 10713
  154.5564  135.5646  153.6968 H   0  0  0  0  0  0  0  0  0  0  0  0  # atno 10763 bound_to 10752
  153.0005  135.6263  154.2304 H   0  0  0  0  0  0  0  0  0  0  0  0  # atno 10764 bound_to 10752
  154.2240  135.2868  155.2894 H   0  0  0  0  0  0  0  0  0  0  0  0  # atno 10765 bound_to 10752
  140.3261  134.7397  157.4100 H   0  0  0  0  0  0  0  0  0  0  0  0  # atno 11005 bound_to 11000
  145.7824  139.1896  143.2150 LP  0  0  0  0  0  0  0  0  0  0  0  0  # atno 17320 bound_to 7965
  146.0823  140.7750  142.9635 LP  0  0  0  0  0  0  0  0  0  0  0  0  # atno 17321 bound_to 7965
  140.7255  143.2632  151.4134 LP  0  0  0  0  0  0  0  0  0  0  0  0  # atno 17342 bound_to 10162
  139.6007  144.1302  152.2194 LP  0  0  0  0  0  0  0  0  0  0  0  0  # atno 17343 bound_to 10162
  156.6687  130.8811  151.3559 LP  0  0  0  0  0  0  0  0  0  0  0  0  # atno 17370 bound_to 10713
  157.7072  130.9399  150.0970 LP  0  0  0  0  0  0  0  0  0  0  0  0  # atno 17371 bound_to 10713
  140.0900  134.5614  155.8453 LP  0  0  0  0  0  0  0  0  0  0  0  0  # atno 17394 bound_to 11000
  141.2075  133.6664  156.6309 LP  0  0  0  0  0  0  0  0  0  0  0  0  # atno 17395 bound_to 11000

$$$$
