AV-unprocessed.smi:927|AV-procd|sdf|4188|dock8
  -GOLD-   22720 2 93D 1   1.00000     0.00000
 Structure written by MMmdl.
 21 21  0  0  0  0  0  0  0  0  2 V2000
  144.5411  137.6864  152.3019 N   0  3  0  0  0  0  0  0  0  0  0  0
  144.2555  136.2752  151.9873 C   0  0  0  0  0  0  0  0  0  0  0  0
  145.5077  135.5372  151.4807 C   0  0  1  0  0  0  0  0  0  0  0  0
  146.4350  135.4316  152.5436 O   0  0  0  0  0  0  0  0  0  0  0  0
  145.1497  134.1742  150.9091 C   0  0  0  0  0  0  0  0  0  0  0  0
  143.8037  133.7735  150.7632 C   0  0  0  0  0  0  0  0  0  0  0  0
  143.5341  132.5002  150.2227 C   0  0  0  0  0  0  0  0  0  0  0  0
  144.5000  131.6413  149.8326 N   0  0  0  0  0  0  0  0  0  0  0  0
  145.7853  132.0302  149.9717 C   0  0  0  0  0  0  0  0  0  0  0  0
  146.1625  133.2811  150.5007 C   0  0  0  0  0  0  0  0  0  0  0  0
  143.9101  138.0071  153.0221 H   0  0  0  0  0  0  0  0  0  0  0  0
  144.4217  138.2494  151.4719 H   0  0  0  0  0  0  0  0  0  0  0  0
  143.8510  135.7873  152.8751 H   0  0  0  0  0  0  0  0  0  0  0  0
  143.4743  136.2515  151.2267 H   0  0  0  0  0  0  0  0  0  0  0  0
  145.9807  136.1271  150.6942 H   0  0  0  0  0  0  0  0  0  0  0  0
  147.2856  135.6971  152.2267 H   0  0  0  0  0  0  0  0  0  0  0  0
  142.9926  134.4237  151.0568 H   0  0  0  0  0  0  0  0  0  0  0  0
  142.5153  132.1638  150.0990 H   0  0  0  0  0  0  0  0  0  0  0  0
  146.5367  131.3240  149.6508 H   0  0  0  0  0  0  0  0  0  0  0  0
  147.2068  133.5424  150.5887 H   0  0  0  0  0  0  0  0  0  0  0  0
  145.4940  137.7667  152.6277 H   0  0  0  0  0  0  0  0  0  0  0  0
  1  2  1  0  0  0  0
  1 11  1  0  0  0  0
  1 12  1  0  0  0  0
  1 21  1  0  0  0  0
  2  3  1  0  0  0  0
  2 13  1  0  0  0  0
  2 14  1  0  0  0  0
  3  4  1  0  0  0  0
  3  5  1  0  0  0  0
  3 15  1  0  0  0  0
  4 16  1  0  0  0  0
  5 10  1  0  0  0  0
  5  6  2  0  0  0  0
  6  7  1  0  0  0  0
  6 17  1  0  0  0  0
  7  8  2  0  0  0  0
  7 18  1  0  0  0  0
  8  9  1  0  0  0  0
  9 10  2  0  0  0  0
  9 19  1  0  0  0  0
 10 20  1  0  0  0  0
M  CHG  1   1   1
M  END
> <s_m_source_file>
AV-unprocessed.smi

> <i_m_source_file_index>
927

> <i_lp_mmshare_version>
43012

> <i_f3d_flags>
0

> <s_epik_input>
W05IMl1bQ0gyXVtDQEhdKFtPSF0pYzFbY0hdW2NIXW5bY0hdW2NIXTE=

> <s_epik_cmdline>
J2VwaWtfcHl0aG9uJywgJy1waCcsICc3LjAnLCAnLXRuJywgJzgnLCAnLW1hJywgJzIwMCcsICctbWV0YWxfYmluZGluZycsICctaW1hZScsICc8aW5maWxlLm1hZT4nLCAnLW9tYWUnLCAnPG91dGZpbGUubWFlPic=

> <r_epik_Ionization_Penalty>
0.0159363

> <r_epik_Ionization_Penalty_Charging>
0.0140431

> <r_epik_Ionization_Penalty_Neutral>
0.00189321

> <r_epik_State_Penalty>
0.0109628

> <r_epik_Charging_Adjusted_Penalty>
0.0250059

> <i_epik_Tot_Q>
1

> <i_epik_Tot_abs_Q>
1

> <r_epik_Metal_State_Penalty>
0.0113463

> <b_epik_Metal_Only>
0

> <s_lp_Force_Field>
OPLS_2005

> <r_lp_Energy>
4.52461

> <b_lp_Chiralities_Consistent>
1

> <s_lp_Variant>
AV-unprocessed.smi:927-2

> <Gold.Version>
5.8.1

> <Gold.Id.Protein>
6NUR|6NUR_protein|mol2

> <Gold.PLP.Fitness>
34.6581

> <Gold.PLP.PLP>
-21.7344

> <Gold.PLP.part.hbond>
-4.0000

> <Gold.PLP.part.metal>
0.0000

> <Gold.PLP.part.buried>
-1.1675

> <Gold.PLP.part.nonpolar>
-16.7121

> <Gold.PLP.part.repulsive>
0.1685

> <Gold.PLP.ligand.clash>
0.0000

> <Gold.PLP.ligand.torsion>
0.1409

> <Gold.PLP.Chemscore.Hbond>
2.1991

> <Gold.PLP.Chemscore.CHOScore>
2.2006

> <Gold.PLP.Chemscore.Metal>
0.0000

> <Gold.Chemscore.Hbonds>
donor molecule, donor type, donor heavy atom, donor atom, acceptor molecule, acceptor atom, score
      L1  H     1    12       P1 10171  1.00
      L1  H     4    16       P1  7948  1.00
      P1  H 10785 10796       L1     8  0.22
      L1  C     7    18       P1 10186  0.23
      L1  C     7    18       P1 10952  0.99
      L1  C     9    19       P1 10747  0.97

> <Gold.PLP.Chemscore.Internal.Correction>
0.0065

> <Gold.Rescore>
     Score         DG    S(hbond)    S(metal)    S(lipo)     H(rot)  DE(clash)    DE(int)     intcor
     14.53     -14.76       2.44        0.00      51.29       1.90       0.10       0.13       ----

> <Gold.Chemscore.Fitness>
14.5269

> <Gold.Chemscore.DG>
-14.7594

> <Gold.Chemscore.ZeroCoef>
-5.4800

> <Gold.Chemscore.Hbond>
2.4365

> <Gold.Chemscore.Metal>
0.0000

> <Gold.Chemscore.Lipo>
51.2870

> <Gold.Chemscore.Internal_Hbond>
0.0000

> <Gold.Chemscore.DEClash>
0.1022

> <Gold.Chemscore.DEInternal>
0.1303

> <Gold.Chemscore.Rot>
1.8981

> <Gold.Chemscore.Internal.Correction>
   9.000000E+99

> <Gold.Chemscore.Hbonds>
donor molecule, donor type, donor heavy atom, donor atom, acceptor molecule, acceptor atom, score
      L1  H     1    12       P1 10171  0.99
      L1  H     4    16       P1  7948  1.00
      P1  H 10785 10796       L1     8  0.06

> <Gold.Chemscore.Hbond.Weighted>
-8.1380

> <Gold.Chemscore.Metal.Weighted>
-0.0000

> <Gold.Chemscore.Lipo.Weighted>
-6.0006

> <Gold.Chemscore.Internal_Hbond.Weighted>
0.0000

> <Gold.Chemscore.DEClash.Weighted>
0.1022

> <Gold.Chemscore.DEInternal.Weighted>
0.1303

> <Gold.Chemscore.Rot.Weighted>
4.8592

> <Gold.Chemscore.Internal.Correction.Weighted>
   9.000000E+99

> <Gold.Protein.RotatedTorsions>
[ 6907 6896 6895 6894 ] final  100.14 input  -60.11 | X-H torsion
[ 7974 7965 7964 7962 ] final   20.20 input  175.53 | X-H torsion
[ 8008 7997 7996 7995 ] final  -19.67 input   59.86 | X-H torsion
[ 10167 10162 10161 10158 ] final  -71.25 input  -65.29 | X-H torsion
[ 10718 10713 10712 10709 ] final  -59.31 input   66.30 | X-H torsion
[ 10763 10752 10751 10750 ] final -167.98 input  -60.55 | X-H torsion
[ 11005 11000 10999 10996 ] final   93.61 input  -57.11 | X-H torsion

> <Gold.Protein.ActiveResidues>
 VAL166  LYS551  ARG553  GLY616  TRP617  ASP618  TYR619  PRO620  LYS621  CYS622 
 ASP623  PHE694  ASN695  SER759  ASP760  ASP761  ALA762  ILE779  LEU786  VAL792 
 PHE793  MET794  SER795  GLU796  ALA797  LYS798  CYS799  TRP800  GLU811  SER814 

> <Gold.Protein.RotatedAtoms>
  152.5378  134.0322  159.8029 H   0  0  0  0  0  0  0  0  0  0  0  0  # atno 6907 bound_to 6896
  151.0491  133.5632  159.2651 H   0  0  0  0  0  0  0  0  0  0  0  0  # atno 6908 bound_to 6896
  151.2573  135.0650  159.9138 H   0  0  0  0  0  0  0  0  0  0  0  0  # atno 6909 bound_to 6896
  146.2120  139.8203  142.8681 H   0  0  0  0  0  0  0  0  0  0  0  0  # atno 7974 bound_to 7965
  154.4821  140.2082  155.9740 H   0  0  0  0  0  0  0  0  0  0  0  0  # atno 8008 bound_to 7997
  156.1181  140.3218  155.8137 H   0  0  0  0  0  0  0  0  0  0  0  0  # atno 8009 bound_to 7997
  155.4517  140.0517  157.2991 H   0  0  0  0  0  0  0  0  0  0  0  0  # atno 8010 bound_to 7997
  140.5288  143.2323  151.7300 H   0  0  0  0  0  0  0  0  0  0  0  0  # atno 10167 bound_to 10162
  156.1071  130.4179  150.0697 H   0  0  0  0  0  0  0  0  0  0  0  0  # atno 10718 bound_to 10713
  154.6676  135.2934  154.9784 H   0  0  0  0  0  0  0  0  0  0  0  0  # atno 10763 bound_to 10752
  154.0822  135.6603  153.4843 H   0  0  0  0  0  0  0  0  0  0  0  0  # atno 10764 bound_to 10752
  153.0467  135.5200  154.7657 H   0  0  0  0  0  0  0  0  0  0  0  0  # atno 10765 bound_to 10752
  139.8808  134.8799  156.3742 H   0  0  0  0  0  0  0  0  0  0  0  0  # atno 11005 bound_to 11000
  145.3103  141.0218  143.3558 LP  0  0  0  0  0  0  0  0  0  0  0  0  # atno 17320 bound_to 7965
  144.8941  139.4736  143.6664 LP  0  0  0  0  0  0  0  0  0  0  0  0  # atno 17321 bound_to 7965
  139.4947  144.4146  152.0044 LP  0  0  0  0  0  0  0  0  0  0  0  0  # atno 17342 bound_to 10162
  140.3247  144.3387  150.6001 LP  0  0  0  0  0  0  0  0  0  0  0  0  # atno 17343 bound_to 10162
  156.8670  130.9511  151.3613 LP  0  0  0  0  0  0  0  0  0  0  0  0  # atno 17370 bound_to 10713
  157.6249  130.8683  149.9171 LP  0  0  0  0  0  0  0  0  0  0  0  0  # atno 17371 bound_to 10713
  140.9443  133.7493  156.0187 LP  0  0  0  0  0  0  0  0  0  0  0  0  # atno 17394 bound_to 11000
  140.8182  134.3320  157.5390 LP  0  0  0  0  0  0  0  0  0  0  0  0  # atno 17395 bound_to 11000

$$$$
