AV-unprocessed.smi:139|AV-procd|sdf|1181|dock7
  -GOLD-   2262018333D 1   1.00000     0.00000
 Structure written by MMmdl.
 50 53  0  0  0  0  0  0  0  0  1 V2000
  149.2210  142.0337  154.2830 O   0  0  0  0  0  0  0  0  0  0  0  0
  148.7664  141.0099  154.7954 C   0  0  0  0  0  0  0  0  0  0  0  0
  147.2610  140.7079  154.7538 C   0  0  0  0  0  0  0  0  0  0  0  0
  146.4513  141.6564  155.5490 N   0  0  0  0  0  0  0  0  0  0  0  0
  145.8009  142.7262  154.8855 C   0  0  0  0  0  0  0  0  0  0  0  0
  145.8899  142.8705  153.6654 O   0  0  0  0  0  0  0  0  0  0  0  0
  145.0411  143.6291  155.7426 C   0  0  0  0  0  0  0  0  0  0  0  0
  144.3911  144.6723  155.1994 F   0  0  0  0  0  0  0  0  0  0  0  0
  144.9809  143.4366  157.0764 C   0  0  0  0  0  0  0  0  0  0  0  0
  145.6218  142.3873  157.7115 N   0  0  0  0  0  0  0  0  0  0  0  0
  145.5606  142.1954  159.2126 C   0  0  2  0  0  0  0  0  0  0  0  0
  144.6385  143.2475  159.8584 C   0  0  0  0  0  0  0  0  0  0  0  0
  145.5108  143.8330  160.9514 C   0  0  0  0  0  0  0  0  0  0  0  0
  146.9049  143.6588  160.3686 C   0  0  0  0  0  0  0  0  0  0  0  0
  146.8329  142.3725  159.7678 O   0  0  0  0  0  0  0  0  0  0  0  0
  146.3855  141.4754  156.9512 C   0  0  0  0  0  0  0  0  0  0  0  0
  146.9823  140.5463  157.5000 O   0  0  0  0  0  0  0  0  0  0  0  0
  149.5258  140.0908  155.4104 N   0  0  0  0  0  0  0  0  0  0  0  0
  150.9714  140.1623  155.6133 C   0  0  2  0  0  0  0  0  0  0  0  0
  151.5542  138.7436  155.7567 C   0  0  0  0  0  0  0  0  0  0  0  0
  151.4253  138.2080  157.1856 C   0  0  0  0  0  0  0  0  0  0  0  0
  152.1591  139.1138  158.1812 C   0  0  0  0  0  0  0  0  0  0  0  0
  151.8431  140.5900  157.9969 C   0  0  0  0  0  0  0  0  0  0  0  0
  152.1132  141.4811  159.0568 C   0  0  0  0  0  0  0  0  0  0  0  0
  151.8398  142.8551  158.9211 C   0  0  0  0  0  0  0  0  0  0  0  0
  151.2946  143.3471  157.7213 C   0  0  0  0  0  0  0  0  0  0  0  0
  151.0250  142.4648  156.6585 C   0  0  0  0  0  0  0  0  0  0  0  0
  151.2983  141.0850  156.7839 C   0  0  0  0  0  0  0  0  0  0  0  0
  146.9466  140.6887  153.7094 H   0  0  0  0  0  0  0  0  0  0  0  0
  147.0940  139.6856  155.0981 H   0  0  0  0  0  0  0  0  0  0  0  0
  144.4052  144.1444  157.6527 H   0  0  0  0  0  0  0  0  0  0  0  0
  145.2384  141.1636  159.3645 H   0  0  0  0  0  0  0  0  0  0  0  0
  144.3729  144.0163  159.1309 H   0  0  0  0  0  0  0  0  0  0  0  0
  143.7256  142.7878  160.2380 H   0  0  0  0  0  0  0  0  0  0  0  0
  145.2705  144.8712  161.1813 H   0  0  0  0  0  0  0  0  0  0  0  0
  145.4120  143.2467  161.8658 H   0  0  0  0  0  0  0  0  0  0  0  0
  147.1072  144.4178  159.6115 H   0  0  0  0  0  0  0  0  0  0  0  0
  147.6885  143.7064  161.1247 H   0  0  0  0  0  0  0  0  0  0  0  0
  149.0597  139.2821  155.7960 H   0  0  0  0  0  0  0  0  0  0  0  0
  151.4359  140.6130  154.7345 H   0  0  0  0  0  0  0  0  0  0  0  0
  151.0947  138.0608  155.0407 H   0  0  0  0  0  0  0  0  0  0  0  0
  152.6148  138.7727  155.5029 H   0  0  0  0  0  0  0  0  0  0  0  0
  150.3691  138.1537  157.4522 H   0  0  0  0  0  0  0  0  0  0  0  0
  151.8132  137.1910  157.2498 H   0  0  0  0  0  0  0  0  0  0  0  0
  151.9179  138.8113  159.2011 H   0  0  0  0  0  0  0  0  0  0  0  0
  153.2360  138.9876  158.0645 H   0  0  0  0  0  0  0  0  0  0  0  0
  152.5328  141.1114  159.9809 H   0  0  0  0  0  0  0  0  0  0  0  0
  152.0482  143.5306  159.7377 H   0  0  0  0  0  0  0  0  0  0  0  0
  151.0823  144.4007  157.6154 H   0  0  0  0  0  0  0  0  0  0  0  0
  150.6038  142.8500  155.7412 H   0  0  0  0  0  0  0  0  0  0  0  0
  1  2  2  0  0  0  0
  2  3  1  0  0  0  0
  2 18  1  0  0  0  0
  3  4  1  0  0  0  0
  3 29  1  0  0  0  0
  3 30  1  0  0  0  0
  4 16  1  0  0  0  0
  4  5  1  0  0  0  0
  5  6  2  0  0  0  0
  5  7  1  0  0  0  0
  7  8  1  0  0  0  0
  7  9  2  0  0  0  0
  9 10  1  0  0  0  0
  9 31  1  0  0  0  0
 10 11  1  0  0  0  0
 10 16  1  0  0  0  0
 11 15  1  0  0  0  0
 11 12  1  0  0  0  0
 11 32  1  0  0  0  0
 12 13  1  0  0  0  0
 12 33  1  0  0  0  0
 12 34  1  0  0  0  0
 13 14  1  0  0  0  0
 13 35  1  0  0  0  0
 13 36  1  0  0  0  0
 14 15  1  0  0  0  0
 14 37  1  0  0  0  0
 14 38  1  0  0  0  0
 16 17  2  0  0  0  0
 18 19  1  0  0  0  0
 18 39  1  0  0  0  0
 19 28  1  0  0  0  0
 19 20  1  0  0  0  0
 19 40  1  0  0  0  0
 20 21  1  0  0  0  0
 20 41  1  0  0  0  0
 20 42  1  0  0  0  0
 21 22  1  0  0  0  0
 21 43  1  0  0  0  0
 21 44  1  0  0  0  0
 22 23  1  0  0  0  0
 22 45  1  0  0  0  0
 22 46  1  0  0  0  0
 23 28  2  0  0  0  0
 23 24  1  0  0  0  0
 24 25  2  0  0  0  0
 24 47  1  0  0  0  0
 25 26  1  0  0  0  0
 25 48  1  0  0  0  0
 26 27  2  0  0  0  0
 26 49  1  0  0  0  0
 27 28  1  0  0  0  0
 27 50  1  0  0  0  0
M  END
> <s_m_source_file>
AV-unprocessed.smi

> <i_m_source_file_index>
139

> <i_lp_mmshare_version>
43012

> <i_f3d_flags>
0

> <s_epik_input>
W2NIXTFbY0hdW2NIXVtjSF1jKGMxMilbQ0BASF0oW0NIMl1bQ0gyXVtDSDJdMilbTkhdQyg9TylbQ0gyXW4zYyg9TyljKEYpW2NIXW4oYzM9TylbQ0BASF00W0NIMl1bQ0gyXVtDSDJdTzQ=

> <s_epik_cmdline>
J2VwaWtfcHl0aG9uJywgJy1waCcsICc3LjAnLCAnLXRuJywgJzgnLCAnLW1hJywgJzIwMCcsICctbWV0YWxfYmluZGluZycsICctaW1hZScsICc8aW5maWxlLm1hZT4nLCAnLW9tYWUnLCAnPG91dGZpbGUubWFlPic=

> <r_lp_tautomer_probability>
1

> <r_epik_Ionization_Penalty>
3.261e-08

> <r_epik_Ionization_Penalty_Charging>
3.6725e-09

> <r_epik_Ionization_Penalty_Neutral>
2.89375e-08

> <r_epik_State_Penalty>
-0

> <r_epik_Charging_Adjusted_Penalty>
3.6725e-09

> <i_epik_Tot_Q>
0

> <i_epik_Tot_abs_Q>
0

> <r_epik_Metal_State_Penalty>
-0

> <b_epik_Metal_Only>
0

> <s_epik_Chemistry_Notes>
This compound contains an acetal/aminal-like group ( X-CH(R)-Y where X, Y are N, S, or O) that may be acid/base labile, releasing an aldehyde.

> <s_lp_Force_Field>
OPLS_2005

> <r_lp_Energy>
30.3029

> <b_lp_Chiralities_Consistent>
1

> <s_lp_Variant>
AV-unprocessed.smi:139-1

> <Gold.Version>
5.8.1

> <Gold.Id.Protein>
6NUR|6NUR_protein|mol2

> <Gold.PLP.Fitness>
43.0537

> <Gold.PLP.PLP>
-40.3743

> <Gold.PLP.part.hbond>
-2.8165

> <Gold.PLP.part.metal>
0.0000

> <Gold.PLP.part.buried>
-6.8638

> <Gold.PLP.part.nonpolar>
-31.7937

> <Gold.PLP.part.repulsive>
1.2021

> <Gold.PLP.ligand.clash>
0.0000

> <Gold.PLP.ligand.torsion>
0.6733

> <Gold.PLP.Chemscore.Hbond>
1.3318

> <Gold.PLP.Chemscore.CHOScore>
0.0000

> <Gold.PLP.Chemscore.Metal>
0.0000

> <Gold.Chemscore.Hbonds>
donor molecule, donor type, donor heavy atom, donor atom, acceptor molecule, acceptor atom, score
      P1  H  6934  6946       L1    15  0.91
      P1  H  8011  8017       L1     1  0.33

> <Gold.PLP.Chemscore.Internal.Correction>
0.0307

> <Gold.Rescore>
     Score         DG    S(hbond)    S(metal)    S(lipo)     H(rot)  DE(clash)    DE(int)     intcor
     13.41     -15.52       1.30        0.00      88.54       1.82       0.06       2.05       ----

> <Gold.Chemscore.Fitness>
13.4078

> <Gold.Chemscore.DG>
-15.5176

> <Gold.Chemscore.ZeroCoef>
-5.4800

> <Gold.Chemscore.Hbond>
1.2967

> <Gold.Chemscore.Metal>
0.0000

> <Gold.Chemscore.Lipo>
88.5393

> <Gold.Chemscore.Internal_Hbond>
0.0000

> <Gold.Chemscore.DEClash>
0.0611

> <Gold.Chemscore.DEInternal>
2.0487

> <Gold.Chemscore.Rot>
1.8174

> <Gold.Chemscore.Internal.Correction>
   9.000000E+99

> <Gold.Chemscore.Hbonds>
donor molecule, donor type, donor heavy atom, donor atom, acceptor molecule, acceptor atom, score
      P1  H  6934  6946       L1    15  0.20
      P1  H  8011  8017       L1     1  0.32

> <Gold.Chemscore.Hbond.Weighted>
-4.3309

> <Gold.Chemscore.Metal.Weighted>
-0.0000

> <Gold.Chemscore.Lipo.Weighted>
-10.3591

> <Gold.Chemscore.Internal_Hbond.Weighted>
0.0000

> <Gold.Chemscore.DEClash.Weighted>
0.0611

> <Gold.Chemscore.DEInternal.Weighted>
2.0487

> <Gold.Chemscore.Rot.Weighted>
4.6524

> <Gold.Chemscore.Internal.Correction.Weighted>
   9.000000E+99

> <Gold.Protein.RotatedTorsions>
[ 6907 6896 6895 6894 ] final  -13.04 input  -60.11 | X-H torsion
[ 7974 7965 7964 7962 ] final -147.77 input  175.53 | X-H torsion
[ 8008 7997 7996 7995 ] final   70.49 input   59.86 | X-H torsion
[ 10167 10162 10161 10158 ] final  -78.94 input  -65.29 | X-H torsion
[ 10718 10713 10712 10709 ] final   59.58 input   66.30 | X-H torsion
[ 10763 10752 10751 10750 ] final -162.40 input  -60.55 | X-H torsion
[ 11005 11000 10999 10996 ] final   36.82 input  -57.11 | X-H torsion

> <Gold.Protein.ActiveResidues>
 VAL166  LYS551  ARG553  GLY616  TRP617  ASP618  TYR619  PRO620  LYS621  CYS622 
 ASP623  PHE694  ASN695  SER759  ASP760  ASP761  ALA762  ILE779  LEU786  VAL792 
 PHE793  MET794  SER795  GLU796  ALA797  LYS798  CYS799  TRP800  GLU811  SER814 

> <Gold.Protein.RotatedAtoms>
  151.3611  135.0904  159.9434 H   0  0  0  0  0  0  0  0  0  0  0  0  # atno 6907 bound_to 6896
  152.5161  133.9257  159.7566 H   0  0  0  0  0  0  0  0  0  0  0  0  # atno 6908 bound_to 6896
  150.9652  133.6348  159.2777 H   0  0  0  0  0  0  0  0  0  0  0  0  # atno 6909 bound_to 6896
  144.8072  140.5283  143.5667 H   0  0  0  0  0  0  0  0  0  0  0  0  # atno 7974 bound_to 7965
  155.7396  140.3490  155.5098 H   0  0  0  0  0  0  0  0  0  0  0  0  # atno 8008 bound_to 7997
  155.9106  140.1050  157.1303 H   0  0  0  0  0  0  0  0  0  0  0  0  # atno 8009 bound_to 7997
  154.4055  140.1268  156.4539 H   0  0  0  0  0  0  0  0  0  0  0  0  # atno 8010 bound_to 7997
  140.4638  143.2446  151.8309 H   0  0  0  0  0  0  0  0  0  0  0  0  # atno 10167 bound_to 10162
  157.5686  130.8890  149.9229 H   0  0  0  0  0  0  0  0  0  0  0  0  # atno 10718 bound_to 10713
  154.7218  135.3027  154.9035 H   0  0  0  0  0  0  0  0  0  0  0  0  # atno 10763 bound_to 10752
  153.9905  135.6719  153.4758 H   0  0  0  0  0  0  0  0  0  0  0  0  # atno 10764 bound_to 10752
  153.0840  135.4994  154.8478 H   0  0  0  0  0  0  0  0  0  0  0  0  # atno 10765 bound_to 10752
  140.2287  134.3553  155.7973 H   0  0  0  0  0  0  0  0  0  0  0  0  # atno 11005 bound_to 11000
  145.5410  139.1475  143.3447 LP  0  0  0  0  0  0  0  0  0  0  0  0  # atno 17320 bound_to 7965
  146.2365  140.5550  142.8952 LP  0  0  0  0  0  0  0  0  0  0  0  0  # atno 17321 bound_to 7965
  139.4809  144.4976  151.9103 LP  0  0  0  0  0  0  0  0  0  0  0  0  # atno 17342 bound_to 10162
  140.4061  144.2430  150.5890 LP  0  0  0  0  0  0  0  0  0  0  0  0  # atno 17343 bound_to 10162
  156.0733  130.3682  150.0730 LP  0  0  0  0  0  0  0  0  0  0  0  0  # atno 17370 bound_to 10713
  156.8886  130.9581  151.3591 LP  0  0  0  0  0  0  0  0  0  0  0  0  # atno 17371 bound_to 10713
  141.2219  133.7234  156.8696 LP  0  0  0  0  0  0  0  0  0  0  0  0  # atno 17394 bound_to 11000
  140.1773  134.9058  157.2906 LP  0  0  0  0  0  0  0  0  0  0  0  0  # atno 17395 bound_to 11000

$$$$
