AV-unprocessed.smi:3029|AV-procd|sdf|11530|dock7
  -GOLD-   2272016473D 1   1.00000     0.00000
 Structure written by MMmdl.
 41 42  0  0  0  0  0  0  0  0  3 V2000
  150.1964  140.6530  154.4984 O   0  0  0  0  0  0  0  0  0  0  0  0
  150.6642  139.7227  155.1551 C   0  0  0  0  0  0  0  0  0  0  0  0
  151.1107  138.4770  154.5232 C   0  0  0  0  0  0  0  0  0  0  0  0
  151.6105  137.4554  155.2458 C   0  0  0  0  0  0  0  0  0  0  0  0
  151.7229  137.5606  156.6875 C   0  0  0  0  0  0  0  0  0  0  0  0
  152.2426  136.4640  157.4746 N   0  3  0  0  0  0  0  0  0  0  0  0
  152.4054  136.6216  158.6809 O   0  0  0  0  0  0  0  0  0  0  0  0
  152.5048  135.4071  156.9098 O   0  5  0  0  0  0  0  0  0  0  0  0
  151.3188  138.7088  157.2651 C   0  0  0  0  0  0  0  0  0  0  0  0
  150.7953  139.7802  156.5158 N   0  0  0  0  0  0  0  0  0  0  0  0
  150.3591  140.9627  157.2744 C   0  0  0  0  0  0  0  0  0  0  0  0
  151.5414  141.8799  157.6364 C   0  0  0  0  0  0  0  0  0  0  0  0
  152.0606  141.5430  158.9539 N   0  0  0  0  0  0  0  0  0  0  0  0
  153.1096  142.4591  159.3900 C   0  0  1  0  0  0  0  0  0  0  0  0
  152.5319  143.8906  159.3968 C   0  0  0  0  0  0  0  0  0  0  0  0
  151.5492  144.1312  160.5566 C   0  0  0  0  0  0  0  0  0  0  0  0
  152.1744  143.7676  161.9096 C   0  0  0  0  0  0  0  0  0  0  0  0
  152.6849  142.3192  161.9125 C   0  0  0  0  0  0  0  0  0  0  0  0
  153.7007  142.0733  160.7761 C   0  0  1  0  0  0  0  0  0  0  0  0
  154.3434  140.6690  160.8477 C   0  0  0  0  0  0  0  0  0  0  0  0
  154.7091  140.3545  162.0904 F   0  0  0  0  0  0  0  0  0  0  0  0
  153.4898  139.7501  160.3963 F   0  0  0  0  0  0  0  0  0  0  0  0
  155.4274  140.6365  160.0726 F   0  0  0  0  0  0  0  0  0  0  0  0
  151.0350  138.3773  153.4504 H   0  0  0  0  0  0  0  0  0  0  0  0
  151.9249  136.5572  154.7346 H   0  0  0  0  0  0  0  0  0  0  0  0
  151.3532  138.8858  158.3306 H   0  0  0  0  0  0  0  0  0  0  0  0
  149.6506  141.5246  156.6641 H   0  0  0  0  0  0  0  0  0  0  0  0
  149.7981  140.6948  158.1714 H   0  0  0  0  0  0  0  0  0  0  0  0
  152.3234  141.8029  156.8816 H   0  0  0  0  0  0  0  0  0  0  0  0
  151.2089  142.9184  157.6479 H   0  0  0  0  0  0  0  0  0  0  0  0
  151.3027  141.5487  159.6217 H   0  0  0  0  0  0  0  0  0  0  0  0
  153.9159  142.4458  158.6549 H   0  0  0  0  0  0  0  0  0  0  0  0
  153.3558  144.5996  159.4863 H   0  0  0  0  0  0  0  0  0  0  0  0
  152.0493  144.1133  158.4441 H   0  0  0  0  0  0  0  0  0  0  0  0
  151.2327  145.1746  160.5632 H   0  0  0  0  0  0  0  0  0  0  0  0
  150.6459  143.5392  160.4032 H   0  0  0  0  0  0  0  0  0  0  0  0
  152.9989  144.4477  162.1271 H   0  0  0  0  0  0  0  0  0  0  0  0
  151.4425  143.9052  162.7059 H   0  0  0  0  0  0  0  0  0  0  0  0
  153.1426  142.1033  162.8781 H   0  0  0  0  0  0  0  0  0  0  0  0
  151.8432  141.6325  161.8131 H   0  0  0  0  0  0  0  0  0  0  0  0
  154.5202  142.7735  160.9471 H   0  0  0  0  0  0  0  0  0  0  0  0
  1  2  2  0  0  0  0
  2 10  1  0  0  0  0
  2  3  1  0  0  0  0
  3  4  2  0  0  0  0
  3 24  1  0  0  0  0
  4  5  1  0  0  0  0
  4 25  1  0  0  0  0
  5  6  1  0  0  0  0
  5  9  2  0  0  0  0
  6  7  2  0  0  0  0
  6  8  1  0  0  0  0
  9 10  1  0  0  0  0
  9 26  1  0  0  0  0
 10 11  1  0  0  0  0
 11 12  1  0  0  0  0
 11 27  1  0  0  0  0
 11 28  1  0  0  0  0
 12 13  1  0  0  0  0
 12 29  1  0  0  0  0
 12 30  1  0  0  0  0
 13 14  1  0  0  0  0
 13 31  1  0  0  0  0
 14 19  1  0  0  0  0
 14 15  1  0  0  0  0
 14 32  1  0  0  0  0
 15 16  1  0  0  0  0
 15 33  1  0  0  0  0
 15 34  1  0  0  0  0
 16 17  1  0  0  0  0
 16 35  1  0  0  0  0
 16 36  1  0  0  0  0
 17 18  1  0  0  0  0
 17 37  1  0  0  0  0
 17 38  1  0  0  0  0
 18 19  1  0  0  0  0
 18 39  1  0  0  0  0
 18 40  1  0  0  0  0
 19 20  1  0  0  0  0
 19 41  1  0  0  0  0
 20 21  1  0  0  0  0
 20 22  1  0  0  0  0
 20 23  1  0  0  0  0
M  CHG  1   6   1
M  CHG  1   8  -1
M  END
> <s_m_source_file>
AV-unprocessed.smi

> <i_m_source_file_index>
3029

> <i_lp_mmshare_version>
43012

> <i_f3d_flags>
0

> <s_epik_input>
Tz1jMVtjSF1bY0hdYyhbTitdKD1PKVtPLV0pW2NIXW4xW0NIMl1bQ0gyXVtOSF1bQ0BASF0yW0NIMl1bQ0gyXVtDSDJdW0NIMl1bQ0BIXTJDKEYpKEYpRg==

> <s_epik_cmdline>
J2VwaWtfcHl0aG9uJywgJy1waCcsICc3LjAnLCAnLXRuJywgJzgnLCAnLW1hJywgJzIwMCcsICctbWV0YWxfYmluZGluZycsICctaW1hZScsICc8aW5maWxlLm1hZT4nLCAnLW9tYWUnLCAnPG91dGZpbGUubWFlPic=

> <r_lp_tautomer_probability>
1

> <r_epik_Ionization_Penalty>
1.65565

> <r_epik_Ionization_Penalty_Charging>
3.32684e-10

> <r_epik_Ionization_Penalty_Neutral>
1.65565

> <r_epik_State_Penalty>
1.75811

> <r_epik_Charging_Adjusted_Penalty>
1.75811

> <i_epik_Tot_Q>
0

> <i_epik_Tot_abs_Q>
2

> <r_epik_Metal_State_Penalty>
1.75811

> <b_epik_Metal_Only>
0

> <s_lp_Force_Field>
OPLS_2005

> <r_lp_Energy>
39.0204

> <b_lp_Chiralities_Consistent>
1

> <s_lp_Variant>
AV-unprocessed.smi:3029-6

> <Gold.Version>
5.8.1

> <Gold.Id.Protein>
6NUR|6NUR_protein|mol2

> <Gold.PLP.Fitness>
54.7590

> <Gold.PLP.PLP>
-48.2766

> <Gold.PLP.part.hbond>
-3.1994

> <Gold.PLP.part.metal>
0.0000

> <Gold.PLP.part.buried>
-6.0800

> <Gold.PLP.part.nonpolar>
-40.0128

> <Gold.PLP.part.repulsive>
0.1094

> <Gold.PLP.ligand.clash>
0.0000

> <Gold.PLP.ligand.torsion>
0.7477

> <Gold.PLP.Chemscore.Hbond>
2.6160

> <Gold.PLP.Chemscore.CHOScore>
0.0000

> <Gold.PLP.Chemscore.Metal>
0.0000

> <Gold.Chemscore.Hbonds>
donor molecule, donor type, donor heavy atom, donor atom, acceptor molecule, acceptor atom, score
      P1  H  6896  6907       L1     7  0.61
      P1  H  7989  7998       L1     1  0.67
      P1  H 10752 10764       L1     8  1.00

> <Gold.PLP.Chemscore.Internal.Correction>
0.1298

> <Gold.Rescore>
     Score         DG    S(hbond)    S(metal)    S(lipo)     H(rot)  DE(clash)    DE(int)     intcor
     19.78     -21.90       2.31        0.00     115.19       1.86       0.12       2.00       ----

> <Gold.Chemscore.Fitness>
19.7817

> <Gold.Chemscore.DG>
-21.8998

> <Gold.Chemscore.ZeroCoef>
-5.4800

> <Gold.Chemscore.Hbond>
2.3053

> <Gold.Chemscore.Metal>
0.0000

> <Gold.Chemscore.Lipo>
115.1933

> <Gold.Chemscore.Internal_Hbond>
0.0000

> <Gold.Chemscore.DEClash>
0.1222

> <Gold.Chemscore.DEInternal>
1.9958

> <Gold.Chemscore.Rot>
1.8584

> <Gold.Chemscore.Internal.Correction>
   9.000000E+99

> <Gold.Chemscore.Hbonds>
donor molecule, donor type, donor heavy atom, donor atom, acceptor molecule, acceptor atom, score
      P1  H  6896  6907       L1     7  0.56
      P1  H  7989  7998       L1     1  0.10
      P1  H 10752 10764       L1     8  0.98

> <Gold.Chemscore.Hbond.Weighted>
-7.6997

> <Gold.Chemscore.Metal.Weighted>
-0.0000

> <Gold.Chemscore.Lipo.Weighted>
-13.4776

> <Gold.Chemscore.Internal_Hbond.Weighted>
0.0000

> <Gold.Chemscore.DEClash.Weighted>
0.1222

> <Gold.Chemscore.DEInternal.Weighted>
1.9958

> <Gold.Chemscore.Rot.Weighted>
4.7576

> <Gold.Chemscore.Internal.Correction.Weighted>
   9.000000E+99

> <Gold.Protein.RotatedTorsions>
[ 6907 6896 6895 6894 ] final    7.45 input  -60.11 | X-H torsion
[ 7974 7965 7964 7962 ] final   18.85 input  175.53 | X-H torsion
[ 8008 7997 7996 7995 ] final -153.63 input   59.86 | X-H torsion
[ 10167 10162 10161 10158 ] final  148.56 input  -65.29 | X-H torsion
[ 10718 10713 10712 10709 ] final   70.13 input   66.30 | X-H torsion
[ 10763 10752 10751 10750 ] final  -17.11 input  -60.55 | X-H torsion
[ 11005 11000 10999 10996 ] final   37.09 input  -57.11 | X-H torsion

> <Gold.Protein.ActiveResidues>
 VAL166  LYS551  ARG553  GLY616  TRP617  ASP618  TYR619  PRO620  LYS621  CYS622 
 ASP623  PHE694  ASN695  SER759  ASP760  ASP761  ALA762  ILE779  LEU786  VAL792 
 PHE793  MET794  SER795  GLU796  ALA797  LYS798  CYS799  TRP800  GLU811  SER814 

> <Gold.Protein.RotatedAtoms>
  151.6901  135.0948  160.0231 H   0  0  0  0  0  0  0  0  0  0  0  0  # atno 6907 bound_to 6896
  152.3784  133.6508  159.6150 H   0  0  0  0  0  0  0  0  0  0  0  0  # atno 6908 bound_to 6896
  150.7727  133.9072  159.3400 H   0  0  0  0  0  0  0  0  0  0  0  0  # atno 6909 bound_to 6896
  146.2170  139.8398  142.8643 H   0  0  0  0  0  0  0  0  0  0  0  0  # atno 7974 bound_to 7965
  155.6738  140.0736  157.2510 H   0  0  0  0  0  0  0  0  0  0  0  0  # atno 8008 bound_to 7997
  154.4118  140.1694  156.1959 H   0  0  0  0  0  0  0  0  0  0  0  0  # atno 8009 bound_to 7997
  155.9594  140.3371  155.6480 H   0  0  0  0  0  0  0  0  0  0  0  0  # atno 8010 bound_to 7997
  139.4873  144.5670  151.7126 H   0  0  0  0  0  0  0  0  0  0  0  0  # atno 10167 bound_to 10162
  157.6383  130.9461  150.0608 H   0  0  0  0  0  0  0  0  0  0  0  0  # atno 10718 bound_to 10713
  153.5688  135.7008  153.5514 H   0  0  0  0  0  0  0  0  0  0  0  0  # atno 10763 bound_to 10752
  153.3363  135.4033  155.1536 H   0  0  0  0  0  0  0  0  0  0  0  0  # atno 10764 bound_to 10752
  154.8636  135.3731  154.5209 H   0  0  0  0  0  0  0  0  0  0  0  0  # atno 10765 bound_to 10752
  140.2260  134.3584  155.7984 H   0  0  0  0  0  0  0  0  0  0  0  0  # atno 11005 bound_to 11000
  145.2910  141.0167  143.3663 LP  0  0  0  0  0  0  0  0  0  0  0  0  # atno 17320 bound_to 7965
  144.9077  139.4568  143.6602 LP  0  0  0  0  0  0  0  0  0  0  0  0  # atno 17321 bound_to 7965
  140.5250  144.0820  150.6034 LP  0  0  0  0  0  0  0  0  0  0  0  0  # atno 17342 bound_to 10162
  140.3791  143.2813  152.0191 LP  0  0  0  0  0  0  0  0  0  0  0  0  # atno 17343 bound_to 10162
  156.1641  130.3644  149.9257 LP  0  0  0  0  0  0  0  0  0  0  0  0  # atno 17370 bound_to 10713
  156.7248  130.9021  151.3621 LP  0  0  0  0  0  0  0  0  0  0  0  0  # atno 17371 bound_to 10713
  141.2220  133.7219  156.8654 LP  0  0  0  0  0  0  0  0  0  0  0  0  # atno 17394 bound_to 11000
  140.1799  134.9040  157.2936 LP  0  0  0  0  0  0  0  0  0  0  0  0  # atno 17395 bound_to 11000

$$$$
