AV-unprocessed.smi:650|AV-procd|sdf|3182|dock3
  -GOLD-   22720 0103D 1   1.00000     0.00000
 Structure written by MMmdl.
 43 44  0  0  0  0  0  0  0  0  2 V2000
  150.6526  142.1698  157.3590 C   0  0  0  0  0  0  0  0  0  0  0  0
  150.4796  141.2148  156.2277 C   0  0  0  0  0  0  0  0  0  0  0  0
  149.3775  140.7286  155.5825 C   0  0  0  0  0  0  0  0  0  0  0  0
  149.9349  139.8592  154.6075 C   0  0  0  0  0  0  0  0  0  0  0  0
  149.1025  139.1389  153.7133 N   0  0  0  0  0  0  0  0  0  0  0  0
  147.7608  139.1639  153.6439 C   0  0  0  0  0  0  0  0  0  0  0  0
  147.0252  139.8328  154.3704 O   0  0  0  0  0  0  0  0  0  0  0  0
  147.3073  138.3552  152.6746 N   0  0  0  0  0  0  0  0  0  0  0  0
  145.9047  138.1764  152.3091 C   0  0  0  0  0  0  0  0  0  0  0  0
  145.4736  136.6943  152.3106 C   0  0  2  0  0  0  0  0  0  0  0  0
  145.8909  136.0040  150.9998 C   0  0  0  0  0  0  0  0  0  0  0  0
  145.4538  134.5305  150.9695 C   0  0  0  0  0  0  0  0  0  0  0  0
  143.9873  134.4039  151.1628 N   0  3  1  0  0  0  0  0  0  0  0  0
  143.5146  133.0061  150.9908 C   0  0  0  0  0  0  0  0  0  0  0  0
  143.8738  132.4255  149.6123 C   0  0  0  0  0  0  0  0  0  0  0  0
  142.6965  132.1445  148.8850 O   0  0  0  0  0  0  0  0  0  0  0  0
  143.5570  135.0195  152.4454 C   0  0  0  0  0  0  0  0  0  0  0  0
  143.9566  136.5027  152.5118 C   0  0  0  0  0  0  0  0  0  0  0  0
  151.2581  139.8216  154.6502 N   0  0  0  0  0  0  0  0  0  0  0  0
  151.6138  140.6902  155.6889 O   0  0  0  0  0  0  0  0  0  0  0  0
  149.7905  142.1415  158.0255 H   0  0  0  0  0  0  0  0  0  0  0  0
  150.7620  143.1894  156.9896 H   0  0  0  0  0  0  0  0  0  0  0  0
  151.5386  141.9245  157.9451 H   0  0  0  0  0  0  0  0  0  0  0  0
  148.3411  140.9579  155.7804 H   0  0  0  0  0  0  0  0  0  0  0  0
  149.5816  138.5472  153.0509 H   0  0  0  0  0  0  0  0  0  0  0  0
  147.9853  137.8402  152.1321 H   0  0  0  0  0  0  0  0  0  0  0  0
  145.2541  138.7632  152.9601 H   0  0  0  0  0  0  0  0  0  0  0  0
  145.7794  138.5912  151.3086 H   0  0  0  0  0  0  0  0  0  0  0  0
  145.9906  136.1955  153.1320 H   0  0  0  0  0  0  0  0  0  0  0  0
  145.4525  136.5290  150.1497 H   0  0  0  0  0  0  0  0  0  0  0  0
  146.9724  136.0650  150.8740 H   0  0  0  0  0  0  0  0  0  0  0  0
  145.7385  134.0957  150.0105 H   0  0  0  0  0  0  0  0  0  0  0  0
  145.9761  133.9647  151.7429 H   0  0  0  0  0  0  0  0  0  0  0  0
  143.9596  132.3673  151.7553 H   0  0  0  0  0  0  0  0  0  0  0  0
  142.4363  132.9651  151.1511 H   0  0  0  0  0  0  0  0  0  0  0  0
  144.4565  133.1536  149.0475 H   0  0  0  0  0  0  0  0  0  0  0  0
  144.4841  131.5265  149.6874 H   0  0  0  0  0  0  0  0  0  0  0  0
  142.0952  132.8666  148.9918 H   0  0  0  0  0  0  0  0  0  0  0  0
  142.4767  134.9427  152.5614 H   0  0  0  0  0  0  0  0  0  0  0  0
  144.0021  134.4751  153.2797 H   0  0  0  0  0  0  0  0  0  0  0  0
  143.6459  136.9063  153.4754 H   0  0  0  0  0  0  0  0  0  0  0  0
  143.4096  137.0630  151.7520 H   0  0  0  0  0  0  0  0  0  0  0  0
  143.5590  134.9367  150.4187 H   0  0  0  0  0  0  0  0  0  0  0  0
  1  2  1  0  0  0  0
  1 21  1  0  0  0  0
  1 22  1  0  0  0  0
  1 23  1  0  0  0  0
  2 20  1  0  0  0  0
  2  3  2  0  0  0  0
  3  4  1  0  0  0  0
  3 24  1  0  0  0  0
  4  5  1  0  0  0  0
  4 19  2  0  0  0  0
  5  6  1  0  0  0  0
  5 25  1  0  0  0  0
  6  7  2  0  0  0  0
  6  8  1  0  0  0  0
  8  9  1  0  0  0  0
  8 26  1  0  0  0  0
  9 10  1  0  0  0  0
  9 27  1  0  0  0  0
  9 28  1  0  0  0  0
 10 18  1  0  0  0  0
 10 11  1  0  0  0  0
 10 29  1  0  0  0  0
 11 12  1  0  0  0  0
 11 30  1  0  0  0  0
 11 31  1  0  0  0  0
 12 13  1  0  0  0  0
 12 32  1  0  0  0  0
 12 33  1  0  0  0  0
 13 14  1  0  0  0  0
 13 17  1  0  0  0  0
 13 43  1  0  0  0  0
 14 15  1  0  0  0  0
 14 34  1  0  0  0  0
 14 35  1  0  0  0  0
 15 16  1  0  0  0  0
 15 36  1  0  0  0  0
 15 37  1  0  0  0  0
 16 38  1  0  0  0  0
 17 18  1  0  0  0  0
 17 39  1  0  0  0  0
 17 40  1  0  0  0  0
 18 41  1  0  0  0  0
 18 42  1  0  0  0  0
 19 20  1  0  0  0  0
M  CHG  1  13   1
M  END
> <s_m_source_file>
AV-unprocessed.smi

> <i_m_source_file_index>
650

> <i_lp_mmshare_version>
43012

> <i_f3d_flags>
0

> <s_epik_input>
W0NIM11jMVtjSF1jKG5vMSlbTkhdQyg9TylbTkhdW0NIMl1bQ0hdMltDSDJdW0NIMl1OKFtDSDJdW0NIMl0yKVtDSDJdW0NIMl1bT0hd

> <s_epik_cmdline>
J2VwaWtfcHl0aG9uJywgJy1waCcsICc3LjAnLCAnLXRuJywgJzgnLCAnLW1hJywgJzIwMCcsICctbWV0YWxfYmluZGluZycsICctaW1hZScsICc8aW5maWxlLm1hZT4nLCAnLW9tYWUnLCAnPG91dGZpbGUubWFlPic=

> <r_epik_Ionization_Penalty>
0.00179437

> <r_epik_Ionization_Penalty_Charging>
0.00177223

> <r_epik_Ionization_Penalty_Neutral>
2.21418e-05

> <r_epik_State_Penalty>
0.00120075

> <r_epik_Charging_Adjusted_Penalty>
0.00297297

> <i_epik_Tot_Q>
1

> <i_epik_Tot_abs_Q>
1

> <r_epik_Metal_State_Penalty>
-0

> <b_epik_Metal_Only>
0

> <s_lp_Force_Field>
OPLS_2005

> <r_lp_Energy>
15.9462

> <b_lp_Chiralities_Consistent>
1

> <s_lp_Variant>
AV-unprocessed.smi:650-1

> <Gold.Version>
5.8.1

> <Gold.Id.Protein>
6NUR|6NUR_protein|mol2

> <Gold.PLP.Fitness>
48.3097

> <Gold.PLP.PLP>
-39.3160

> <Gold.PLP.part.hbond>
-7.4887

> <Gold.PLP.part.metal>
0.0000

> <Gold.PLP.part.buried>
-3.3089

> <Gold.PLP.part.nonpolar>
-28.4370

> <Gold.PLP.part.repulsive>
0.3498

> <Gold.PLP.ligand.clash>
0.0000

> <Gold.PLP.ligand.torsion>
0.6343

> <Gold.PLP.Chemscore.Hbond>
3.4000

> <Gold.PLP.Chemscore.CHOScore>
0.0000

> <Gold.PLP.Chemscore.Metal>
0.0000

> <Gold.Chemscore.Hbonds>
donor molecule, donor type, donor heavy atom, donor atom, acceptor molecule, acceptor atom, score
      L1  H     8    26       P1  7948  1.00
      L1  H    16    38       P1 10186  1.00
      P1  H  7989  7998       L1    19  0.70
      P1  H 10785 10796       L1    16  0.55

> <Gold.PLP.Chemscore.Internal.Correction>
0.0622

> <Gold.Rescore>
     Score         DG    S(hbond)    S(metal)    S(lipo)     H(rot)  DE(clash)    DE(int)     intcor
     12.51     -14.81       2.36        0.00      68.31       2.55       0.19       2.11       ----

> <Gold.Chemscore.Fitness>
12.5080

> <Gold.Chemscore.DG>
-14.8136

> <Gold.Chemscore.ZeroCoef>
-5.4800

> <Gold.Chemscore.Hbond>
2.3553

> <Gold.Chemscore.Metal>
0.0000

> <Gold.Chemscore.Lipo>
68.3146

> <Gold.Chemscore.Internal_Hbond>
0.0000

> <Gold.Chemscore.DEClash>
0.1950

> <Gold.Chemscore.DEInternal>
2.1107

> <Gold.Chemscore.Rot>
2.5492

> <Gold.Chemscore.Internal.Correction>
   9.000000E+99

> <Gold.Chemscore.Hbonds>
donor molecule, donor type, donor heavy atom, donor atom, acceptor molecule, acceptor atom, score
      L1  H     5    25       P1  7957  0.01
      L1  H     8    26       P1  7948  0.94
      L1  H    16    38       P1 10186  0.99
      P1  H  7989  7998       L1    19  0.03
      P1  H 10785 10796       L1    16  0.04

> <Gold.Chemscore.Hbond.Weighted>
-7.8668

> <Gold.Chemscore.Metal.Weighted>
-0.0000

> <Gold.Chemscore.Lipo.Weighted>
-7.9928

> <Gold.Chemscore.Internal_Hbond.Weighted>
0.0000

> <Gold.Chemscore.DEClash.Weighted>
0.1950

> <Gold.Chemscore.DEInternal.Weighted>
2.1107

> <Gold.Chemscore.Rot.Weighted>
6.5260

> <Gold.Chemscore.Internal.Correction.Weighted>
   9.000000E+99

> <Gold.Protein.RotatedTorsions>
[ 6907 6896 6895 6894 ] final  141.17 input  -60.11 | X-H torsion
[ 7974 7965 7964 7962 ] final  -36.20 input  175.53 | X-H torsion
[ 8008 7997 7996 7995 ] final  -34.15 input   59.86 | X-H torsion
[ 10167 10162 10161 10158 ] final   69.77 input  -65.29 | X-H torsion
[ 10718 10713 10712 10709 ] final -105.32 input   66.30 | X-H torsion
[ 10763 10752 10751 10750 ] final -160.00 input  -60.55 | X-H torsion
[ 11005 11000 10999 10996 ] final    8.30 input  -57.11 | X-H torsion

> <Gold.Protein.ActiveResidues>
 VAL166  LYS551  ARG553  GLY616  TRP617  ASP618  TYR619  PRO620  LYS621  CYS622 
 ASP623  PHE694  ASN695  SER759  ASP760  ASP761  ALA762  ILE779  LEU786  VAL792 
 PHE793  MET794  SER795  GLU796  ALA797  LYS798  CYS799  TRP800  GLU811  SER814 

> <Gold.Protein.RotatedAtoms>
  152.2342  133.5082  159.5232 H   0  0  0  0  0  0  0  0  0  0  0  0  # atno 6907 bound_to 6896
  150.7046  134.1176  159.4032 H   0  0  0  0  0  0  0  0  0  0  0  0  # atno 6908 bound_to 6896
  151.9097  135.0344  160.0564 H   0  0  0  0  0  0  0  0  0  0  0  0  # atno 6909 bound_to 6896
  146.0681  140.6250  142.8965 H   0  0  0  0  0  0  0  0  0  0  0  0  # atno 7974 bound_to 7965
  154.4128  140.1691  156.2003 H   0  0  0  0  0  0  0  0  0  0  0  0  # atno 8008 bound_to 7997
  155.9529  140.3399  155.6400 H   0  0  0  0  0  0  0  0  0  0  0  0  # atno 8009 bound_to 7997
  155.6847  140.0726  157.2462 H   0  0  0  0  0  0  0  0  0  0  0  0  # atno 8010 bound_to 7997
  140.0641  144.5208  150.7273 H   0  0  0  0  0  0  0  0  0  0  0  0  # atno 10167 bound_to 10162
  156.0341  130.5558  150.7522 H   0  0  0  0  0  0  0  0  0  0  0  0  # atno 10718 bound_to 10713
  154.7428  135.3073  154.8698 H   0  0  0  0  0  0  0  0  0  0  0  0  # atno 10763 bound_to 10752
  153.9508  135.6764  153.4748 H   0  0  0  0  0  0  0  0  0  0  0  0  # atno 10764 bound_to 10752
  153.1026  135.4905  154.8819 H   0  0  0  0  0  0  0  0  0  0  0  0  # atno 10765 bound_to 10752
  140.5385  134.0397  155.7896 H   0  0  0  0  0  0  0  0  0  0  0  0  # atno 11005 bound_to 11000
  144.7215  140.4388  143.7005 LP  0  0  0  0  0  0  0  0  0  0  0  0  # atno 17320 bound_to 7965
  145.6440  139.1554  143.2899 LP  0  0  0  0  0  0  0  0  0  0  0  0  # atno 17321 bound_to 7965
  140.7157  143.2543  151.4440 LP  0  0  0  0  0  0  0  0  0  0  0  0  # atno 17342 bound_to 10162
  139.5875  144.1571  152.2048 LP  0  0  0  0  0  0  0  0  0  0  0  0  # atno 17343 bound_to 10162
  157.5063  131.0922  151.0252 LP  0  0  0  0  0  0  0  0  0  0  0  0  # atno 17370 bound_to 10713
  157.0620  130.5829  149.5387 LP  0  0  0  0  0  0  0  0  0  0  0  0  # atno 17371 bound_to 10713
  141.1241  133.9413  157.2671 LP  0  0  0  0  0  0  0  0  0  0  0  0  # atno 17394 bound_to 11000
  139.9516  135.0174  156.9011 LP  0  0  0  0  0  0  0  0  0  0  0  0  # atno 17395 bound_to 11000

$$$$
