AV-unprocessed.smi:3017|AV-procd|sdf|11477|dock10
  -GOLD-   2272016413D 1   1.00000     0.00000
 Structure written by MMmdl.
 37 38  0  0  0  0  0  0  0  0  1 V2000
  152.8935  143.0945  162.0763 C   0  0  0  0  0  0  0  0  0  0  0  0
  152.9238  143.0921  160.5413 C   0  0  2  0  0  0  0  0  0  0  0  0
  152.1521  144.2932  159.9616 C   0  0  0  0  0  0  0  0  0  0  0  0
  152.1766  144.2894  158.4251 C   0  0  0  0  0  0  0  0  0  0  0  0
  151.6304  142.9673  157.8661 C   0  0  0  0  0  0  0  0  0  0  0  0
  152.4032  141.7612  158.4253 C   0  0  2  0  0  0  0  0  0  0  0  0
  151.7811  140.5902  157.9141 O   0  0  0  0  0  0  0  0  0  0  0  0
  152.1397  140.2659  156.5765 C   0  0  0  0  0  0  0  0  0  0  0  0
  150.9003  140.3609  155.6866 C   0  0  0  0  0  0  0  0  0  0  0  0
  150.8972  139.7917  154.5952 O   0  0  0  0  0  0  0  0  0  0  0  0
  149.8813  141.0972  156.1684 N   0  0  0  0  0  0  0  0  0  0  0  0
  148.6168  141.3435  155.5731 C   0  0  0  0  0  0  0  0  0  0  0  0
  148.5542  141.1685  154.1704 C   0  0  0  0  0  0  0  0  0  0  0  0
  147.4217  141.3686  153.4601 N   0  0  0  0  0  0  0  0  0  0  0  0
  146.3309  141.7500  154.1580 C   0  0  0  0  0  0  0  0  0  0  0  0
  146.3743  141.9283  155.5552 C   0  0  0  0  0  0  0  0  0  0  0  0
  147.5095  141.7265  156.2591 N   0  0  0  0  0  0  0  0  0  0  0  0
  152.3767  141.7694  159.9683 C   0  0  0  0  0  0  0  0  0  0  0  0
  151.8748  142.9995  162.4531 H   0  0  0  0  0  0  0  0  0  0  0  0
  153.3112  144.0193  162.4755 H   0  0  0  0  0  0  0  0  0  0  0  0
  153.4773  142.2679  162.4820 H   0  0  0  0  0  0  0  0  0  0  0  0
  153.9668  143.1845  160.2344 H   0  0  0  0  0  0  0  0  0  0  0  0
  151.1181  144.2697  160.3085 H   0  0  0  0  0  0  0  0  0  0  0  0
  152.5797  145.2259  160.3309 H   0  0  0  0  0  0  0  0  0  0  0  0
  151.5903  145.1251  158.0421 H   0  0  0  0  0  0  0  0  0  0  0  0
  153.1982  144.4412  158.0744 H   0  0  0  0  0  0  0  0  0  0  0  0
  150.5729  142.8754  158.1180 H   0  0  0  0  0  0  0  0  0  0  0  0
  151.6891  142.9739  156.7771 H   0  0  0  0  0  0  0  0  0  0  0  0
  153.4344  141.8205  158.0717 H   0  0  0  0  0  0  0  0  0  0  0  0
  152.8945  140.9604  156.2047 H   0  0  0  0  0  0  0  0  0  0  0  0
  152.5522  139.2585  156.5151 H   0  0  0  0  0  0  0  0  0  0  0  0
  150.0255  141.5139  157.0769 H   0  0  0  0  0  0  0  0  0  0  0  0
  149.4247  140.8645  153.6071 H   0  0  0  0  0  0  0  0  0  0  0  0
  145.4205  141.9135  153.6004 H   0  0  0  0  0  0  0  0  0  0  0  0
  145.4984  142.2331  156.1083 H   0  0  0  0  0  0  0  0  0  0  0  0
  152.9623  140.9382  160.3605 H   0  0  0  0  0  0  0  0  0  0  0  0
  151.3536  141.6153  160.3142 H   0  0  0  0  0  0  0  0  0  0  0  0
  1  2  1  0  0  0  0
  1 19  1  0  0  0  0
  1 20  1  0  0  0  0
  1 21  1  0  0  0  0
  2 18  1  0  0  0  0
  2  3  1  0  0  0  0
  2 22  1  0  0  0  0
  3  4  1  0  0  0  0
  3 23  1  0  0  0  0
  3 24  1  0  0  0  0
  4  5  1  0  0  0  0
  4 25  1  0  0  0  0
  4 26  1  0  0  0  0
  5  6  1  0  0  0  0
  5 27  1  0  0  0  0
  5 28  1  0  0  0  0
  6  7  1  0  0  0  0
  6 18  1  0  0  0  0
  6 29  1  0  0  0  0
  7  8  1  0  0  0  0
  8  9  1  0  0  0  0
  8 30  1  0  0  0  0
  8 31  1  0  0  0  0
  9 10  2  0  0  0  0
  9 11  1  0  0  0  0
 11 12  1  0  0  0  0
 11 32  1  0  0  0  0
 12 17  1  0  0  0  0
 12 13  2  0  0  0  0
 13 14  1  0  0  0  0
 13 33  1  0  0  0  0
 14 15  2  0  0  0  0
 15 16  1  0  0  0  0
 15 34  1  0  0  0  0
 16 17  2  0  0  0  0
 16 35  1  0  0  0  0
 18 36  1  0  0  0  0
 18 37  1  0  0  0  0
M  END
> <s_m_source_file>
AV-unprocessed.smi

> <i_m_source_file_index>
3017

> <i_lp_mmshare_version>
43012

> <i_f3d_flags>
0

> <s_epik_input>
W0NIM11bQ0BASF0xW0NIMl1bQ0gyXVtDSDJdW0NASF0oW0NIMl0xKU9bQ0gyXUMoPU8pW05IXWMyW2NIXW5bY0hdW2NIXW4y

> <s_epik_cmdline>
J2VwaWtfcHl0aG9uJywgJy1waCcsICc3LjAnLCAnLXRuJywgJzgnLCAnLW1hJywgJzIwMCcsICctbWV0YWxfYmluZGluZycsICctaW1hZScsICc8aW5maWxlLm1hZT4nLCAnLW9tYWUnLCAnPG91dGZpbGUubWFlPic=

> <r_lp_tautomer_probability>
1

> <r_epik_Ionization_Penalty>
2.89243e-06

> <r_epik_Ionization_Penalty_Charging>
0

> <r_epik_Ionization_Penalty_Neutral>
2.89243e-06

> <r_epik_State_Penalty>
-0

> <r_epik_Charging_Adjusted_Penalty>
0

> <i_epik_Tot_Q>
0

> <i_epik_Tot_abs_Q>
0

> <r_epik_Metal_State_Penalty>
-0

> <b_epik_Metal_Only>
0

> <s_lp_Force_Field>
OPLS_2005

> <r_lp_Energy>
19.9912

> <b_lp_Chiralities_Consistent>
1

> <s_lp_Variant>
AV-unprocessed.smi:3017-3

> <Gold.Version>
5.8.1

> <Gold.Id.Protein>
6NUR|6NUR_protein|mol2

> <Gold.PLP.Fitness>
44.0681

> <Gold.PLP.PLP>
-39.0579

> <Gold.PLP.part.hbond>
-1.0000

> <Gold.PLP.part.metal>
0.0000

> <Gold.PLP.part.buried>
-4.3414

> <Gold.PLP.part.nonpolar>
-33.7109

> <Gold.PLP.part.repulsive>
0.4668

> <Gold.PLP.ligand.clash>
0.0000

> <Gold.PLP.ligand.torsion>
0.9331

> <Gold.PLP.Chemscore.Hbond>
1.0000

> <Gold.PLP.Chemscore.CHOScore>
1.2903

> <Gold.PLP.Chemscore.Metal>
0.0000

> <Gold.Chemscore.Hbonds>
donor molecule, donor type, donor heavy atom, donor atom, acceptor molecule, acceptor atom, score
      P1  H  7989  7998       L1    10  1.00
      L1  C    13    33       P1  7957  0.86
      L1  C    15    34       P1 10175  0.50

> <Gold.PLP.Chemscore.Internal.Correction>
0.0054

> <Gold.Rescore>
     Score         DG    S(hbond)    S(metal)    S(lipo)     H(rot)  DE(clash)    DE(int)     intcor
     14.93     -17.33       1.00        0.00     105.90       1.51       0.18       2.21       ----

> <Gold.Chemscore.Fitness>
14.9345

> <Gold.Chemscore.DG>
-17.3288

> <Gold.Chemscore.ZeroCoef>
-5.4800

> <Gold.Chemscore.Hbond>
0.9967

> <Gold.Chemscore.Metal>
0.0000

> <Gold.Chemscore.Lipo>
105.8998

> <Gold.Chemscore.Internal_Hbond>
0.0000

> <Gold.Chemscore.DEClash>
0.1820

> <Gold.Chemscore.DEInternal>
2.2123

> <Gold.Chemscore.Rot>
1.5119

> <Gold.Chemscore.Internal.Correction>
   9.000000E+99

> <Gold.Chemscore.Hbonds>
donor molecule, donor type, donor heavy atom, donor atom, acceptor molecule, acceptor atom, score
      P1  H  7989  7998       L1    10  0.55

> <Gold.Chemscore.Hbond.Weighted>
-3.3291

> <Gold.Chemscore.Metal.Weighted>
-0.0000

> <Gold.Chemscore.Lipo.Weighted>
-12.3903

> <Gold.Chemscore.Internal_Hbond.Weighted>
0.0000

> <Gold.Chemscore.DEClash.Weighted>
0.1820

> <Gold.Chemscore.DEInternal.Weighted>
2.2123

> <Gold.Chemscore.Rot.Weighted>
3.8706

> <Gold.Chemscore.Internal.Correction.Weighted>
   9.000000E+99

> <Gold.Protein.RotatedTorsions>
[ 6907 6896 6895 6894 ] final  106.55 input  -60.11 | X-H torsion
[ 7974 7965 7964 7962 ] final  -83.35 input  175.53 | X-H torsion
[ 8008 7997 7996 7995 ] final  146.58 input   59.86 | X-H torsion
[ 10167 10162 10161 10158 ] final -177.90 input  -65.29 | X-H torsion
[ 10718 10713 10712 10709 ] final   59.29 input   66.30 | X-H torsion
[ 10763 10752 10751 10750 ] final  101.13 input  -60.55 | X-H torsion
[ 11005 11000 10999 10996 ] final -132.31 input  -57.11 | X-H torsion

> <Gold.Protein.ActiveResidues>
 VAL166  LYS551  ARG553  GLY616  TRP617  ASP618  TYR619  PRO620  LYS621  CYS622 
 ASP623  PHE694  ASN695  SER759  ASP760  ASP761  ALA762  ILE779  LEU786  VAL792 
 PHE793  MET794  SER795  GLU796  ALA797  LYS798  CYS799  TRP800  GLU811  SER814 

> <Gold.Protein.RotatedAtoms>
  152.5189  133.9365  159.7605 H   0  0  0  0  0  0  0  0  0  0  0  0  # atno 6907 bound_to 6896
  150.9704  133.6341  159.2746 H   0  0  0  0  0  0  0  0  0  0  0  0  # atno 6908 bound_to 6896
  151.3555  135.0899  159.9470 H   0  0  0  0  0  0  0  0  0  0  0  0  # atno 6909 bound_to 6896
  145.5211  140.9531  143.1654 H   0  0  0  0  0  0  0  0  0  0  0  0  # atno 7974 bound_to 7965
  156.2851  140.2178  156.5400 H   0  0  0  0  0  0  0  0  0  0  0  0  # atno 8008 bound_to 7997
  154.7377  140.0490  157.0806 H   0  0  0  0  0  0  0  0  0  0  0  0  # atno 8009 bound_to 7997
  155.0271  140.3130  155.4775 H   0  0  0  0  0  0  0  0  0  0  0  0  # atno 8010 bound_to 7997
  139.5458  144.2239  152.0985 H   0  0  0  0  0  0  0  0  0  0  0  0  # atno 10167 bound_to 10162
  157.5664  130.8874  149.9194 H   0  0  0  0  0  0  0  0  0  0  0  0  # atno 10718 bound_to 10713
  153.3228  135.4055  155.1431 H   0  0  0  0  0  0  0  0  0  0  0  0  # atno 10763 bound_to 10752
  154.8604  135.3591  154.5574 H   0  0  0  0  0  0  0  0  0  0  0  0  # atno 10764 bound_to 10752
  153.6008  135.7071  153.5444 H   0  0  0  0  0  0  0  0  0  0  0  0  # atno 10765 bound_to 10752
  140.9181  134.1480  157.4336 H   0  0  0  0  0  0  0  0  0  0  0  0  # atno 11005 bound_to 11000
  144.7675  139.6811  143.7208 LP  0  0  0  0  0  0  0  0  0  0  0  0  # atno 17320 bound_to 7965
  146.2105  139.5458  142.9684 LP  0  0  0  0  0  0  0  0  0  0  0  0  # atno 17321 bound_to 7965
  140.1726  144.4921  150.6571 LP  0  0  0  0  0  0  0  0  0  0  0  0  # atno 17342 bound_to 10162
  140.6705  143.2284  151.5636 LP  0  0  0  0  0  0  0  0  0  0  0  0  # atno 17343 bound_to 10162
  156.0712  130.3685  150.0772 LP  0  0  0  0  0  0  0  0  0  0  0  0  # atno 17370 bound_to 10713
  156.8930  130.9595  151.3586 LP  0  0  0  0  0  0  0  0  0  0  0  0  # atno 17371 bound_to 10713
  139.8770  134.9961  156.5779 LP  0  0  0  0  0  0  0  0  0  0  0  0  # atno 17394 bound_to 11000
  140.8023  133.8495  155.8737 LP  0  0  0  0  0  0  0  0  0  0  0  0  # atno 17395 bound_to 11000

$$$$
