AV-unprocessed.smi:191|AV-procd|sdf|1494|dock6
  -GOLD-   2262019313D 1   1.00000     0.00000
 Structure written by MMmdl.
 46 48  0  0  0  0  0  0  0  0  1 V2000
  146.6633  138.4189  155.9703 C   0  0  0  0  0  0  0  0  0  0  0  0
  146.4871  136.8988  155.8337 C   0  0  0  0  0  0  0  0  0  0  0  0
  145.0977  136.4678  156.0149 N   0  0  0  0  0  0  0  0  0  0  0  0
  144.4040  136.8753  157.2376 C   0  0  0  0  0  0  0  0  0  0  0  0
  144.4795  135.8128  158.3512 C   0  0  1  0  0  0  0  0  0  0  0  0
  143.8463  136.3249  159.6503 C   0  0  0  0  0  0  0  0  0  0  0  0
  143.8865  134.5244  157.9549 C   0  0  0  0  0  0  0  0  0  0  0  0
  143.4204  133.5110  157.6468 N   0  0  0  0  0  0  0  0  0  0  0  0
  144.4100  135.9186  154.9692 C   0  0  0  0  0  0  0  0  0  0  0  0
  143.1977  135.3534  155.2211 N   0  0  0  0  0  0  0  0  0  0  0  0
  142.4755  134.8020  154.2435 C   0  0  0  0  0  0  0  0  0  0  0  0
  142.7662  134.7075  152.9471 N   0  0  0  0  0  0  0  0  0  0  0  0
  143.9735  135.2760  152.6717 C   0  0  0  0  0  0  0  0  0  0  0  0
  144.8529  135.8966  153.6086 C   0  0  0  0  0  0  0  0  0  0  0  0
  145.9758  136.3663  152.9336 N   0  0  0  0  0  0  0  0  0  0  0  0
  145.7764  136.0403  151.6873 C   0  0  0  0  0  0  0  0  0  0  0  0
  144.6003  135.3728  151.4409 N   0  0  0  0  0  0  0  0  0  0  0  0
  144.1203  134.8994  150.1510 C   0  0  0  0  0  0  0  0  0  0  0  0
  144.3543  133.3963  149.9102 C   0  0  0  0  0  0  0  0  0  0  0  0
  144.0787  133.0887  148.4245 C   0  0  0  0  0  0  0  0  0  0  0  0
  142.7861  133.4933  148.0188 O   0  0  0  0  0  0  0  0  0  0  0  0
  145.6663  132.8459  150.4882 C   0  0  0  0  0  0  0  0  0  0  0  0
  144.9793  131.7966  151.2057 O   0  0  0  0  0  0  0  0  0  0  0  0
  143.7150  132.4372  150.9249 C   0  0  0  0  0  0  0  0  0  0  0  0
  147.7079  138.6978  155.8308 H   0  0  0  0  0  0  0  0  0  0  0  0
  146.3591  138.7714  156.9557 H   0  0  0  0  0  0  0  0  0  0  0  0
  146.0766  138.9583  155.2269 H   0  0  0  0  0  0  0  0  0  0  0  0
  146.8715  136.5585  154.8715 H   0  0  0  0  0  0  0  0  0  0  0  0
  147.1085  136.4043  156.5796 H   0  0  0  0  0  0  0  0  0  0  0  0
  144.8780  137.7872  157.6000 H   0  0  0  0  0  0  0  0  0  0  0  0
  143.3733  137.1658  157.0477 H   0  0  0  0  0  0  0  0  0  0  0  0
  145.5275  135.5977  158.5583 H   0  0  0  0  0  0  0  0  0  0  0  0
  143.9414  135.5870  160.4474 H   0  0  0  0  0  0  0  0  0  0  0  0
  142.7847  136.5348  159.5157 H   0  0  0  0  0  0  0  0  0  0  0  0
  144.3294  137.2418  159.9888 H   0  0  0  0  0  0  0  0  0  0  0  0
  141.5293  134.3766  154.5439 H   0  0  0  0  0  0  0  0  0  0  0  0
  146.4863  136.2842  150.9105 H   0  0  0  0  0  0  0  0  0  0  0  0
  143.0599  135.1396  150.0666 H   0  0  0  0  0  0  0  0  0  0  0  0
  144.6164  135.4912  149.3805 H   0  0  0  0  0  0  0  0  0  0  0  0
  144.7925  133.5995  147.7784 H   0  0  0  0  0  0  0  0  0  0  0  0
  144.1771  132.0213  148.2241 H   0  0  0  0  0  0  0  0  0  0  0  0
  142.2001  133.4111  148.7557 H   0  0  0  0  0  0  0  0  0  0  0  0
  146.3631  132.4598  149.7434 H   0  0  0  0  0  0  0  0  0  0  0  0
  146.1738  133.5320  151.1680 H   0  0  0  0  0  0  0  0  0  0  0  0
  143.3116  132.9274  151.8114 H   0  0  0  0  0  0  0  0  0  0  0  0
  142.9837  131.7528  150.4936 H   0  0  0  0  0  0  0  0  0  0  0  0
  1  2  1  0  0  0  0
  1 25  1  0  0  0  0
  1 26  1  0  0  0  0
  1 27  1  0  0  0  0
  2  3  1  0  0  0  0
  2 28  1  0  0  0  0
  2 29  1  0  0  0  0
  3  4  1  0  0  0  0
  3  9  1  0  0  0  0
  4  5  1  0  0  0  0
  4 30  1  0  0  0  0
  4 31  1  0  0  0  0
  5  6  1  0  0  0  0
  5  7  1  0  0  0  0
  5 32  1  0  0  0  0
  6 33  1  0  0  0  0
  6 34  1  0  0  0  0
  6 35  1  0  0  0  0
  7  8  3  0  0  0  0
  9 14  1  0  0  0  0
  9 10  2  0  0  0  0
 10 11  1  0  0  0  0
 11 12  2  0  0  0  0
 11 36  1  0  0  0  0
 12 13  1  0  0  0  0
 13 17  1  0  0  0  0
 13 14  2  0  0  0  0
 14 15  1  0  0  0  0
 15 16  2  0  0  0  0
 16 17  1  0  0  0  0
 16 37  1  0  0  0  0
 17 18  1  0  0  0  0
 18 19  1  0  0  0  0
 18 38  1  0  0  0  0
 18 39  1  0  0  0  0
 19 24  1  0  0  0  0
 19 20  1  0  0  0  0
 19 22  1  0  0  0  0
 20 21  1  0  0  0  0
 20 40  1  0  0  0  0
 20 41  1  0  0  0  0
 21 42  1  0  0  0  0
 22 23  1  0  0  0  0
 22 43  1  0  0  0  0
 22 44  1  0  0  0  0
 23 24  1  0  0  0  0
 24 45  1  0  0  0  0
 24 46  1  0  0  0  0
M  END
> <s_m_source_file>
AV-unprocessed.smi

> <i_m_source_file_index>
191

> <i_lp_mmshare_version>
43012

> <i_f3d_flags>
0

> <s_epik_input>
TiNDW0NAQEhdKFtDSDNdKVtDSDJdTihbQ0gyXVtDSDNdKWMobltjSF1uMSljKGMxMiluW2NIXW4yW0NIMl1DMyhbQ0gyXVtPSF0pW0NIMl1PW0NIMl0z

> <s_epik_cmdline>
J2VwaWtfcHl0aG9uJywgJy1waCcsICc3LjAnLCAnLXRuJywgJzgnLCAnLW1hJywgJzIwMCcsICctbWV0YWxfYmluZGluZycsICctaW1hZScsICc8aW5maWxlLm1hZT4nLCAnLW9tYWUnLCAnPG91dGZpbGUubWFlPic=

> <r_lp_tautomer_probability>
1

> <r_epik_Ionization_Penalty>
0.000569684

> <r_epik_Ionization_Penalty_Charging>
0

> <r_epik_Ionization_Penalty_Neutral>
0.000569684

> <r_epik_State_Penalty>
0.000286009

> <r_epik_Charging_Adjusted_Penalty>
0.000286009

> <i_epik_Tot_Q>
0

> <i_epik_Tot_abs_Q>
0

> <r_epik_Metal_State_Penalty>
-0

> <b_epik_Metal_Only>
0

> <s_lp_Force_Field>
OPLS_2005

> <r_lp_Energy>
30.7711

> <b_lp_Chiralities_Consistent>
1

> <s_lp_Variant>
AV-unprocessed.smi:191-2

> <Gold.Version>
5.8.1

> <Gold.Id.Protein>
6NUR|6NUR_protein|mol2

> <Gold.PLP.Fitness>
38.3736

> <Gold.PLP.PLP>
-26.7561

> <Gold.PLP.part.hbond>
-3.7468

> <Gold.PLP.part.metal>
0.0000

> <Gold.PLP.part.buried>
-3.3808

> <Gold.PLP.part.nonpolar>
-21.4696

> <Gold.PLP.part.repulsive>
0.6009

> <Gold.PLP.ligand.clash>
0.0000

> <Gold.PLP.ligand.torsion>
1.0475

> <Gold.PLP.Chemscore.Hbond>
2.6300

> <Gold.PLP.Chemscore.CHOScore>
1.7041

> <Gold.PLP.Chemscore.Metal>
0.0000

> <Gold.Chemscore.Hbonds>
donor molecule, donor type, donor heavy atom, donor atom, acceptor molecule, acceptor atom, score
      L1  H    21    42       P1 10186  0.72
      P1  H 10192 10197       L1    21  1.00
      P1  H 11000 11005       L1     8  0.13
      L1  C    11    36       P1 10957  0.06
      L1  C    11    36       P1 11000  1.00
      L1  C    16    37       P1  7948  0.53

> <Gold.PLP.Chemscore.Internal.Correction>
0.7105

> <Gold.Rescore>
     Score         DG    S(hbond)    S(metal)    S(lipo)     H(rot)  DE(clash)    DE(int)     intcor
      7.35     -10.46       2.19        0.00      48.09       3.11       0.99       2.11       ----

> <Gold.Chemscore.Fitness>
7.3485

> <Gold.Chemscore.DG>
-10.4572

> <Gold.Chemscore.ZeroCoef>
-5.4800

> <Gold.Chemscore.Hbond>
2.1869

> <Gold.Chemscore.Metal>
0.0000

> <Gold.Chemscore.Lipo>
48.0878

> <Gold.Chemscore.Internal_Hbond>
0.0000

> <Gold.Chemscore.DEClash>
0.9947

> <Gold.Chemscore.DEInternal>
2.1140

> <Gold.Chemscore.Rot>
3.1067

> <Gold.Chemscore.Internal.Correction>
   9.000000E+99

> <Gold.Chemscore.Hbonds>
donor molecule, donor type, donor heavy atom, donor atom, acceptor molecule, acceptor atom, score
      L1  H    21    42       P1 10186  0.72
      P1  H 10192 10197       L1    21  0.24
      P1  H 11000 11005       L1     8  0.07

> <Gold.Chemscore.Hbond.Weighted>
-7.3042

> <Gold.Chemscore.Metal.Weighted>
-0.0000

> <Gold.Chemscore.Lipo.Weighted>
-5.6263

> <Gold.Chemscore.Internal_Hbond.Weighted>
0.0000

> <Gold.Chemscore.DEClash.Weighted>
0.9947

> <Gold.Chemscore.DEInternal.Weighted>
2.1140

> <Gold.Chemscore.Rot.Weighted>
7.9532

> <Gold.Chemscore.Internal.Correction.Weighted>
   9.000000E+99

> <Gold.Protein.RotatedTorsions>
[ 6907 6896 6895 6894 ] final -106.69 input  -60.11 | X-H torsion
[ 7974 7965 7964 7962 ] final  -70.16 input  175.53 | X-H torsion
[ 8008 7997 7996 7995 ] final -102.20 input   59.86 | X-H torsion
[ 10167 10162 10161 10158 ] final  139.24 input  -65.29 | X-H torsion
[ 10718 10713 10712 10709 ] final  135.76 input   66.30 | X-H torsion
[ 10763 10752 10751 10750 ] final   35.02 input  -60.55 | X-H torsion
[ 11005 11000 10999 10996 ] final -116.49 input  -57.11 | X-H torsion

> <Gold.Protein.ActiveResidues>
 VAL166  LYS551  ARG553  GLY616  TRP617  ASP618  TYR619  PRO620  LYS621  CYS622 
 ASP623  PHE694  ASN695  SER759  ASP760  ASP761  ALA762  ILE779  LEU786  VAL792 
 PHE793  MET794  SER795  GLU796  ALA797  LYS798  CYS799  TRP800  GLU811  SER814 

> <Gold.Protein.RotatedAtoms>
  150.7403  133.9938  159.3615 H   0  0  0  0  0  0  0  0  0  0  0  0  # atno 6907 bound_to 6896
  151.7888  135.0739  160.0393 H   0  0  0  0  0  0  0  0  0  0  0  0  # atno 6908 bound_to 6896
  152.3222  133.5830  159.5789 H   0  0  0  0  0  0  0  0  0  0  0  0  # atno 6909 bound_to 6896
  145.6945  140.9140  143.0764 H   0  0  0  0  0  0  0  0  0  0  0  0  # atno 7974 bound_to 7965
  154.8533  140.0430  157.1618 H   0  0  0  0  0  0  0  0  0  0  0  0  # atno 8008 bound_to 7997
  154.8919  140.2987  155.5345 H   0  0  0  0  0  0  0  0  0  0  0  0  # atno 8009 bound_to 7997
  156.2996  140.2392  156.3936 H   0  0  0  0  0  0  0  0  0  0  0  0  # atno 8010 bound_to 7997
  139.5085  144.6306  151.5826 H   0  0  0  0  0  0  0  0  0  0  0  0  # atno 10167 bound_to 10162
  157.4537  131.1068  151.0003 H   0  0  0  0  0  0  0  0  0  0  0  0  # atno 10718 bound_to 10713
  153.0137  135.6344  154.1761 H   0  0  0  0  0  0  0  0  0  0  0  0  # atno 10763 bound_to 10752
  154.1502  135.2829  155.3139 H   0  0  0  0  0  0  0  0  0  0  0  0  # atno 10764 bound_to 10752
  154.6059  135.5572  153.7484 H   0  0  0  0  0  0  0  0  0  0  0  0  # atno 10765 bound_to 10752
  141.0418  133.9824  157.2982 H   0  0  0  0  0  0  0  0  0  0  0  0  # atno 11005 bound_to 11000
  144.6987  139.8865  143.7450 LP  0  0  0  0  0  0  0  0  0  0  0  0  # atno 17320 bound_to 7965
  146.0852  139.3841  143.0439 LP  0  0  0  0  0  0  0  0  0  0  0  0  # atno 17321 bound_to 7965
  140.6038  143.9561  150.6404 LP  0  0  0  0  0  0  0  0  0  0  0  0  # atno 17342 bound_to 10162
  140.2782  143.3408  152.1176 LP  0  0  0  0  0  0  0  0  0  0  0  0  # atno 17343 bound_to 10162
  157.0824  130.5908  149.5423 LP  0  0  0  0  0  0  0  0  0  0  0  0  # atno 17370 bound_to 10713
  155.9998  130.5075  150.7620 LP  0  0  0  0  0  0  0  0  0  0  0  0  # atno 17371 bound_to 10713
  139.9282  135.0201  156.8307 LP  0  0  0  0  0  0  0  0  0  0  0  0  # atno 17394 bound_to 11000
  140.6220  133.9985  155.7622 LP  0  0  0  0  0  0  0  0  0  0  0  0  # atno 17395 bound_to 11000

$$$$
