AV-unprocessed.smi:3185|AV-procd|sdf|12168|dock9
  -GOLD-   2272018 03D 1   1.00000     0.00000
 Structure written by MMmdl.
 38 39  0  0  0  0  0  0  0  0  2 V2000
  154.0612  135.6664  160.0340 N   0  0  0  0  0  0  0  0  0  0  0  0
  153.9807  136.7463  160.4402 C   0  0  0  0  0  0  0  0  0  0  0  0
  153.8736  138.1198  160.9574 C   0  0  0  0  0  0  0  0  0  0  0  0
  153.5900  139.1564  159.8612 C   0  0  0  0  0  0  0  0  0  0  0  0
  152.2095  138.9798  159.2139 C   0  0  0  0  0  0  0  0  0  0  0  0
  152.0788  139.8170  158.0030 N   0  3  0  0  0  0  0  0  0  0  0  0
  151.6491  141.2163  158.2367 C   0  0  1  0  0  0  0  0  0  0  0  0
  152.7294  141.9302  159.0741 C   0  0  0  0  0  0  0  0  0  0  0  0
  152.3871  143.4067  159.3201 C   0  0  0  0  0  0  0  0  0  0  0  0
  152.1769  144.1485  157.9937 C   0  0  0  0  0  0  0  0  0  0  0  0
  151.0884  143.4659  157.1540 C   0  0  0  0  0  0  0  0  0  0  0  0
  151.4103  141.9761  156.9012 C   0  0  2  0  0  0  0  0  0  0  0  0
  150.3709  141.3601  156.0851 N   0  0  0  0  0  0  0  0  0  0  0  0
  149.0039  141.4084  156.2675 C   0  0  0  0  0  0  0  0  0  0  0  0
  148.4299  140.7066  155.2468 C   0  0  0  0  0  0  0  0  0  0  0  0
  149.5395  140.2551  154.4800 C   0  0  0  0  0  0  0  0  0  0  0  0
  150.6985  140.6483  154.9824 N   0  0  0  0  0  0  0  0  0  0  0  0
  153.0828  138.1333  161.7077 H   0  0  0  0  0  0  0  0  0  0  0  0
  154.8067  138.3566  161.4691 H   0  0  0  0  0  0  0  0  0  0  0  0
  153.6725  140.1587  160.2832 H   0  0  0  0  0  0  0  0  0  0  0  0
  154.3632  139.0797  159.0956 H   0  0  0  0  0  0  0  0  0  0  0  0
  152.0588  137.9339  158.9563 H   0  0  0  0  0  0  0  0  0  0  0  0
  151.4277  139.2490  159.9251 H   0  0  0  0  0  0  0  0  0  0  0  0
  152.9881  139.8464  157.5644 H   0  0  0  0  0  0  0  0  0  0  0  0
  150.7286  141.2138  158.8236 H   0  0  0  0  0  0  0  0  0  0  0  0
  152.8525  141.4231  160.0320 H   0  0  0  0  0  0  0  0  0  0  0  0
  153.6933  141.8662  158.5669 H   0  0  0  0  0  0  0  0  0  0  0  0
  151.4850  143.4792  159.9292 H   0  0  0  0  0  0  0  0  0  0  0  0
  153.1850  143.8838  159.8899 H   0  0  0  0  0  0  0  0  0  0  0  0
  151.9017  145.1859  158.1869 H   0  0  0  0  0  0  0  0  0  0  0  0
  153.1124  144.1751  157.4333 H   0  0  0  0  0  0  0  0  0  0  0  0
  150.1323  143.5630  157.6706 H   0  0  0  0  0  0  0  0  0  0  0  0
  150.9783  143.9899  156.2037 H   0  0  0  0  0  0  0  0  0  0  0  0
  152.3343  141.9353  156.3216 H   0  0  0  0  0  0  0  0  0  0  0  0
  148.5563  141.9351  157.0975 H   0  0  0  0  0  0  0  0  0  0  0  0
  147.3770  140.5396  155.0737 H   0  0  0  0  0  0  0  0  0  0  0  0
  149.5373  139.6605  153.5783 H   0  0  0  0  0  0  0  0  0  0  0  0
  151.4304  139.3825  157.3621 H   0  0  0  0  0  0  0  0  0  0  0  0
  1  2  3  0  0  0  0
  2  3  1  0  0  0  0
  3  4  1  0  0  0  0
  3 18  1  0  0  0  0
  3 19  1  0  0  0  0
  4  5  1  0  0  0  0
  4 20  1  0  0  0  0
  4 21  1  0  0  0  0
  5  6  1  0  0  0  0
  5 22  1  0  0  0  0
  5 23  1  0  0  0  0
  6  7  1  0  0  0  0
  6 24  1  0  0  0  0
  6 38  1  0  0  0  0
  7 12  1  0  0  0  0
  7  8  1  0  0  0  0
  7 25  1  0  0  0  0
  8  9  1  0  0  0  0
  8 26  1  0  0  0  0
  8 27  1  0  0  0  0
  9 10  1  0  0  0  0
  9 28  1  0  0  0  0
  9 29  1  0  0  0  0
 10 11  1  0  0  0  0
 10 30  1  0  0  0  0
 10 31  1  0  0  0  0
 11 12  1  0  0  0  0
 11 32  1  0  0  0  0
 11 33  1  0  0  0  0
 12 13  1  0  0  0  0
 12 34  1  0  0  0  0
 13 17  1  0  0  0  0
 13 14  1  0  0  0  0
 14 15  2  0  0  0  0
 14 35  1  0  0  0  0
 15 16  1  0  0  0  0
 15 36  1  0  0  0  0
 16 17  2  0  0  0  0
 16 37  1  0  0  0  0
M  CHG  1   6   1
M  END
> <s_m_source_file>
AV-unprocessed.smi

> <i_m_source_file_index>
3185

> <i_lp_mmshare_version>
43012

> <i_f3d_flags>
0

> <s_epik_input>
TiNDW0NIMl1bQ0gyXVtDSDJdW05IXVtDQEBIXTFbQ0gyXVtDSDJdW0NIMl1bQ0gyXVtDQEhdMW4yW2NIXVtjSF1bY0hdbjI=

> <s_epik_cmdline>
J2VwaWtfcHl0aG9uJywgJy1waCcsICc3LjAnLCAnLXRuJywgJzgnLCAnLW1hJywgJzIwMCcsICctbWV0YWxfYmluZGluZycsICctaW1hZScsICc8aW5maWxlLm1hZT4nLCAnLW9tYWUnLCAnPG91dGZpbGUubWFlPic=

> <r_lp_tautomer_probability>
1

> <r_epik_Ionization_Penalty>
0.0143465

> <r_epik_Ionization_Penalty_Charging>
0.0143338

> <r_epik_Ionization_Penalty_Neutral>
1.27047e-05

> <r_epik_State_Penalty>
0.0112058

> <r_epik_Charging_Adjusted_Penalty>
0.0255397

> <i_epik_Tot_Q>
1

> <i_epik_Tot_abs_Q>
1

> <r_epik_Metal_State_Penalty>
0.0112253

> <b_epik_Metal_Only>
0

> <s_lp_Force_Field>
OPLS_2005

> <r_lp_Energy>
15.0666

> <b_lp_Chiralities_Consistent>
1

> <s_lp_Variant>
AV-unprocessed.smi:3185-4

> <Gold.Version>
5.8.1

> <Gold.Id.Protein>
6NUR|6NUR_protein|mol2

> <Gold.PLP.Fitness>
40.2632

> <Gold.PLP.PLP>
-32.1504

> <Gold.PLP.part.hbond>
-2.0000

> <Gold.PLP.part.metal>
0.0000

> <Gold.PLP.part.buried>
-1.8961

> <Gold.PLP.part.nonpolar>
-27.8796

> <Gold.PLP.part.repulsive>
0.1539

> <Gold.PLP.ligand.clash>
0.0000

> <Gold.PLP.ligand.torsion>
0.4708

> <Gold.PLP.Chemscore.Hbond>
1.9760

> <Gold.PLP.Chemscore.CHOScore>
1.0000

> <Gold.PLP.Chemscore.Metal>
0.0000

> <Gold.Chemscore.Hbonds>
donor molecule, donor type, donor heavy atom, donor atom, acceptor molecule, acceptor atom, score
      P1  H  6896  6909       L1     1  1.00
      P1  H  7989  7998       L1    17  0.94
      L1  C    16    37       P1  7957  1.00

> <Gold.PLP.Chemscore.Internal.Correction>
0.1262

> <Gold.Rescore>
     Score         DG    S(hbond)    S(metal)    S(lipo)     H(rot)  DE(clash)    DE(int)     intcor
     16.00     -17.03       1.64        0.00      93.00       1.88       0.46       0.57       ----

> <Gold.Chemscore.Fitness>
15.9995

> <Gold.Chemscore.DG>
-17.0270

> <Gold.Chemscore.ZeroCoef>
-5.4800

> <Gold.Chemscore.Hbond>
1.6382

> <Gold.Chemscore.Metal>
0.0000

> <Gold.Chemscore.Lipo>
92.9950

> <Gold.Chemscore.Internal_Hbond>
0.0000

> <Gold.Chemscore.DEClash>
0.4585

> <Gold.Chemscore.DEInternal>
0.5690

> <Gold.Chemscore.Rot>
1.8769

> <Gold.Chemscore.Internal.Correction>
   9.000000E+99

> <Gold.Chemscore.Hbonds>
donor molecule, donor type, donor heavy atom, donor atom, acceptor molecule, acceptor atom, score
      P1  H  6896  6909       L1     1  0.96
      P1  H  7989  7998       L1    17  0.27

> <Gold.Chemscore.Hbond.Weighted>
-5.4715

> <Gold.Chemscore.Metal.Weighted>
-0.0000

> <Gold.Chemscore.Lipo.Weighted>
-10.8804

> <Gold.Chemscore.Internal_Hbond.Weighted>
0.0000

> <Gold.Chemscore.DEClash.Weighted>
0.4585

> <Gold.Chemscore.DEInternal.Weighted>
0.5690

> <Gold.Chemscore.Rot.Weighted>
4.8049

> <Gold.Chemscore.Internal.Correction.Weighted>
   9.000000E+99

> <Gold.Protein.RotatedTorsions>
[ 6907 6896 6895 6894 ] final -176.09 input  -60.11 | X-H torsion
[ 7974 7965 7964 7962 ] final  144.05 input  175.53 | X-H torsion
[ 8008 7997 7996 7995 ] final  164.17 input   59.86 | X-H torsion
[ 10167 10162 10161 10158 ] final -178.93 input  -65.29 | X-H torsion
[ 10718 10713 10712 10709 ] final -130.93 input   66.30 | X-H torsion
[ 10763 10752 10751 10750 ] final   98.93 input  -60.55 | X-H torsion
[ 11005 11000 10999 10996 ] final -103.12 input  -57.11 | X-H torsion

> <Gold.Protein.ActiveResidues>
 VAL166  LYS551  ARG553  GLY616  TRP617  ASP618  TYR619  PRO620  LYS621  CYS622 
 ASP623  PHE694  ASN695  SER759  ASP760  ASP761  ALA762  ILE779  LEU786  VAL792 
 PHE793  MET794  SER795  GLU796  ALA797  LYS798  CYS799  TRP800  GLU811  SER814 

> <Gold.Protein.RotatedAtoms>
  151.5992  133.3358  159.3043 H   0  0  0  0  0  0  0  0  0  0  0  0  # atno 6907 bound_to 6896
  150.8217  134.7431  159.6789 H   0  0  0  0  0  0  0  0  0  0  0  0  # atno 6908 bound_to 6896
  152.4310  134.5783  159.9992 H   0  0  0  0  0  0  0  0  0  0  0  0  # atno 6909 bound_to 6896
  144.8868  139.5616  143.5817 H   0  0  0  0  0  0  0  0  0  0  0  0  # atno 7974 bound_to 7965
  156.1900  140.1704  156.8110 H   0  0  0  0  0  0  0  0  0  0  0  0  # atno 8008 bound_to 7997
  154.5460  140.0727  156.8622 H   0  0  0  0  0  0  0  0  0  0  0  0  # atno 8009 bound_to 7997
  155.3121  140.3368  155.4246 H   0  0  0  0  0  0  0  0  0  0  0  0  # atno 8010 bound_to 7997
  139.5409  144.2365  152.0894 H   0  0  0  0  0  0  0  0  0  0  0  0  # atno 10167 bound_to 10162
  156.2194  130.6968  151.0739 H   0  0  0  0  0  0  0  0  0  0  0  0  # atno 10718 bound_to 10713
  153.2951  135.4131  155.1202 H   0  0  0  0  0  0  0  0  0  0  0  0  # atno 10763 bound_to 10752
  154.8532  135.3528  154.5928 H   0  0  0  0  0  0  0  0  0  0  0  0  # atno 10764 bound_to 10752
  153.6351  135.7059  153.5319 H   0  0  0  0  0  0  0  0  0  0  0  0  # atno 10765 bound_to 10752
  141.1159  133.8614  157.1446 H   0  0  0  0  0  0  0  0  0  0  0  0  # atno 11005 bound_to 11000
  146.3029  139.7486  142.9077 LP  0  0  0  0  0  0  0  0  0  0  0  0  # atno 17320 bound_to 7965
  145.3854  141.0364  143.3154 LP  0  0  0  0  0  0  0  0  0  0  0  0  # atno 17321 bound_to 7965
  140.1843  144.4814  150.6512 LP  0  0  0  0  0  0  0  0  0  0  0  0  # atno 17342 bound_to 10162
  140.6639  143.2261  151.5790 LP  0  0  0  0  0  0  0  0  0  0  0  0  # atno 17343 bound_to 10162
  157.7080  131.0748  150.6602 LP  0  0  0  0  0  0  0  0  0  0  0  0  # atno 17370 bound_to 10713
  156.6664  130.4527  149.5671 LP  0  0  0  0  0  0  0  0  0  0  0  0  # atno 17371 bound_to 10713
  140.0082  134.9999  157.0338 LP  0  0  0  0  0  0  0  0  0  0  0  0  # atno 17394 bound_to 11000
  140.4646  134.1449  155.7195 LP  0  0  0  0  0  0  0  0  0  0  0  0  # atno 17395 bound_to 11000

$$$$
