AV-unprocessed.smi:1492|AV-procd|sdf|6045|dock8
  -GOLD-   22720 6163D 1   1.00000     0.00000
 Structure written by MMmdl.
 51 52  0  0  0  0  0  0  0  0  2 V2000
  150.5266  135.4624  155.0056 C   0  0  0  0  0  0  0  0  0  0  0  0
  150.1453  136.9523  155.0794 C   0  0  0  0  0  0  0  0  0  0  0  0
  151.1681  137.9024  155.7795 C   0  0  2  0  0  0  0  0  0  0  0  0
  152.4176  138.0398  154.8686 C   0  0  0  0  0  0  0  0  0  0  0  0
  151.6529  137.2310  157.1041 C   0  0  0  0  0  0  0  0  0  0  0  0
  152.5904  138.0750  157.8405 N   0  0  0  0  0  0  0  0  0  0  0  0
  153.2993  137.7229  158.9226 C   0  0  0  0  0  0  0  0  0  0  0  0
  153.1322  136.6703  159.5382 O   0  0  0  0  0  0  0  0  0  0  0  0
  154.3934  138.7019  159.3489 C   0  0  0  0  0  0  0  0  0  0  0  0
  153.8800  140.0212  159.9292 C   0  0  0  0  0  0  0  0  0  0  0  0
  154.1767  140.4482  161.1899 C   0  0  0  0  0  0  0  0  0  0  0  0
  155.0334  139.6458  162.1537 C   0  0  0  0  0  0  0  0  0  0  0  0
  153.7015  141.6799  161.6712 N   0  0  0  0  0  0  0  0  0  0  0  0
  152.9764  142.4135  160.9163 C   0  0  0  0  0  0  0  0  0  0  0  0
  152.4828  143.7424  161.4476 C   0  0  0  0  0  0  0  0  0  0  0  0
  152.6160  142.0737  159.6317 N   0  5  0  0  0  0  0  0  0  0  0  0
  153.0503  140.9021  159.0871 C   0  0  0  0  0  0  0  0  0  0  0  0
  152.7805  140.5808  157.9304 O   0  0  0  0  0  0  0  0  0  0  0  0
  150.5891  139.2513  156.0534 N   0  0  0  0  0  0  0  0  0  0  0  0
  149.9820  139.9268  154.9010 C   0  0  0  0  0  0  0  0  0  0  0  0
  149.5563  141.3658  155.2386 C   0  0  0  0  0  0  0  0  0  0  0  0
  148.6559  141.3531  156.3400 O   0  0  0  0  0  0  0  0  0  0  0  0
  149.2279  140.7588  157.4989 C   0  0  0  0  0  0  0  0  0  0  0  0
  149.6537  139.3150  157.1830 C   0  0  0  0  0  0  0  0  0  0  0  0
  149.7494  134.9004  154.4878 H   0  0  0  0  0  0  0  0  0  0  0  0
  150.6351  135.0178  155.9943 H   0  0  0  0  0  0  0  0  0  0  0  0
  151.4540  135.3042  154.4560 H   0  0  0  0  0  0  0  0  0  0  0  0
  149.9665  137.2883  154.0586 H   0  0  0  0  0  0  0  0  0  0  0  0
  149.1805  137.0120  155.5823 H   0  0  0  0  0  0  0  0  0  0  0  0
  153.0210  137.1320  154.8583 H   0  0  0  0  0  0  0  0  0  0  0  0
  153.0691  138.8476  155.2034 H   0  0  0  0  0  0  0  0  0  0  0  0
  152.1490  138.2455  153.8323 H   0  0  0  0  0  0  0  0  0  0  0  0
  150.8090  137.0229  157.7620 H   0  0  0  0  0  0  0  0  0  0  0  0
  152.1050  136.2573  156.9120 H   0  0  0  0  0  0  0  0  0  0  0  0
  152.8097  138.9664  157.4183 H   0  0  0  0  0  0  0  0  0  0  0  0
  155.0578  138.1995  160.0526 H   0  0  0  0  0  0  0  0  0  0  0  0
  155.0192  138.9201  158.4834 H   0  0  0  0  0  0  0  0  0  0  0  0
  156.0073  139.4288  161.7154 H   0  0  0  0  0  0  0  0  0  0  0  0
  154.5462  138.7032  162.4027 H   0  0  0  0  0  0  0  0  0  0  0  0
  155.2006  140.1928  163.0821 H   0  0  0  0  0  0  0  0  0  0  0  0
  153.3168  144.4360  161.5564 H   0  0  0  0  0  0  0  0  0  0  0  0
  152.0133  143.6104  162.4228 H   0  0  0  0  0  0  0  0  0  0  0  0
  151.7499  144.1912  160.7753 H   0  0  0  0  0  0  0  0  0  0  0  0
  150.6783  139.9765  154.0655 H   0  0  0  0  0  0  0  0  0  0  0  0
  149.1083  139.3750  154.5548 H   0  0  0  0  0  0  0  0  0  0  0  0
  150.4260  141.9792  155.4764 H   0  0  0  0  0  0  0  0  0  0  0  0
  149.0647  141.8266  154.3818 H   0  0  0  0  0  0  0  0  0  0  0  0
  150.0801  141.3486  157.8379 H   0  0  0  0  0  0  0  0  0  0  0  0
  148.4928  140.7690  158.3037 H   0  0  0  0  0  0  0  0  0  0  0  0
  148.7604  138.7296  156.9664 H   0  0  0  0  0  0  0  0  0  0  0  0
  150.0974  138.8933  158.0830 H   0  0  0  0  0  0  0  0  0  0  0  0
  1  2  1  0  0  0  0
  1 25  1  0  0  0  0
  1 26  1  0  0  0  0
  1 27  1  0  0  0  0
  2  3  1  0  0  0  0
  2 28  1  0  0  0  0
  2 29  1  0  0  0  0
  3  4  1  0  0  0  0
  3  5  1  0  0  0  0
  3 19  1  0  0  0  0
  4 30  1  0  0  0  0
  4 31  1  0  0  0  0
  4 32  1  0  0  0  0
  5  6  1  0  0  0  0
  5 33  1  0  0  0  0
  5 34  1  0  0  0  0
  6  7  1  0  0  0  0
  6 35  1  0  0  0  0
  7  8  2  0  0  0  0
  7  9  1  0  0  0  0
  9 10  1  0  0  0  0
  9 36  1  0  0  0  0
  9 37  1  0  0  0  0
 10 17  1  0  0  0  0
 10 11  2  0  0  0  0
 11 12  1  0  0  0  0
 11 13  1  0  0  0  0
 12 38  1  0  0  0  0
 12 39  1  0  0  0  0
 12 40  1  0  0  0  0
 13 14  2  0  0  0  0
 14 15  1  0  0  0  0
 14 16  1  0  0  0  0
 15 41  1  0  0  0  0
 15 42  1  0  0  0  0
 15 43  1  0  0  0  0
 16 17  1  0  0  0  0
 17 18  2  0  0  0  0
 19 24  1  0  0  0  0
 19 20  1  0  0  0  0
 20 21  1  0  0  0  0
 20 44  1  0  0  0  0
 20 45  1  0  0  0  0
 21 22  1  0  0  0  0
 21 46  1  0  0  0  0
 21 47  1  0  0  0  0
 22 23  1  0  0  0  0
 23 24  1  0  0  0  0
 23 48  1  0  0  0  0
 23 49  1  0  0  0  0
 24 50  1  0  0  0  0
 24 51  1  0  0  0  0
M  CHG  1  16  -1
M  END
> <s_m_source_file>
AV-unprocessed.smi

> <i_m_source_file_index>
1492

> <i_lp_mmshare_version>
43012

> <i_f3d_flags>
0

> <s_epik_input>
W0NIMl0xW0NIMl1PW0NIMl1bQ0gyXU4xW0NAQF0oW0NIM10pKFtDSDJdW0NIM10pW0NIMl1bTkhdQyg9TylbQ0gyXWMyYyhbQ0gzXSluYyhbQ0gzXSlbbkhdYzI9Tw==

> <s_epik_cmdline>
J2VwaWtfcHl0aG9uJywgJy1waCcsICc3LjAnLCAnLXRuJywgJzgnLCAnLW1hJywgJzIwMCcsICctbWV0YWxfYmluZGluZycsICctaW1hZScsICc8aW5maWxlLm1hZT4nLCAnLW9tYWUnLCAnPG91dGZpbGUubWFlPic=

> <r_lp_tautomer_probability>
0.839158

> <r_epik_Ionization_Penalty>
6.88574

> <r_epik_Ionization_Penalty_Charging>
6.74373e-08

> <r_epik_Ionization_Penalty_Neutral>
6.88574

> <r_epik_State_Penalty>
4.79448

> <r_epik_Charging_Adjusted_Penalty>
4.79448

> <i_epik_Tot_Q>
-1

> <i_epik_Tot_abs_Q>
1

> <r_epik_Metal_State_Penalty>
1.16421

> <b_epik_Metal_Only>
1

> <s_lp_Force_Field>
OPLS_2005

> <r_lp_Energy>
46.4707

> <b_lp_Chiralities_Consistent>
1

> <s_lp_Variant>
AV-unprocessed.smi:1492-10

> <Gold.Version>
5.8.1

> <Gold.Id.Protein>
6NUR|6NUR_protein|mol2

> <Gold.PLP.Fitness>
39.6582

> <Gold.PLP.PLP>
-35.1878

> <Gold.PLP.part.hbond>
-2.0000

> <Gold.PLP.part.metal>
0.0000

> <Gold.PLP.part.buried>
-4.0750

> <Gold.PLP.part.nonpolar>
-28.5789

> <Gold.PLP.part.repulsive>
0.2001

> <Gold.PLP.ligand.clash>
0.0000

> <Gold.PLP.ligand.torsion>
0.4530

> <Gold.PLP.Chemscore.Hbond>
1.7540

> <Gold.PLP.Chemscore.CHOScore>
0.0000

> <Gold.PLP.Chemscore.Metal>
0.0000

> <Gold.Chemscore.Hbonds>
donor molecule, donor type, donor heavy atom, donor atom, acceptor molecule, acceptor atom, score
      P1  H  6896  6909       L1     8  1.00
      P1  H  7997  8010       L1    18  0.73

> <Gold.PLP.Chemscore.Internal.Correction>
0.1144

> <Gold.Rescore>
     Score         DG    S(hbond)    S(metal)    S(lipo)     H(rot)  DE(clash)    DE(int)     intcor
     14.00     -16.24       1.71        0.00      87.91       2.05       0.10       2.14       ----

> <Gold.Chemscore.Fitness>
14.0014

> <Gold.Chemscore.DG>
-16.2427

> <Gold.Chemscore.ZeroCoef>
-5.4800

> <Gold.Chemscore.Hbond>
1.7112

> <Gold.Chemscore.Metal>
0.0000

> <Gold.Chemscore.Lipo>
87.9084

> <Gold.Chemscore.Internal_Hbond>
0.0000

> <Gold.Chemscore.DEClash>
0.0969

> <Gold.Chemscore.DEInternal>
2.1445

> <Gold.Chemscore.Rot>
2.0461

> <Gold.Chemscore.Internal.Correction>
   9.000000E+99

> <Gold.Chemscore.Hbonds>
donor molecule, donor type, donor heavy atom, donor atom, acceptor molecule, acceptor atom, score
      P1  H  6896  6909       L1     8  0.94
      P1  H  7997  8010       L1    18  0.57

> <Gold.Chemscore.Hbond.Weighted>
-5.7155

> <Gold.Chemscore.Metal.Weighted>
-0.0000

> <Gold.Chemscore.Lipo.Weighted>
-10.2853

> <Gold.Chemscore.Internal_Hbond.Weighted>
0.0000

> <Gold.Chemscore.DEClash.Weighted>
0.0969

> <Gold.Chemscore.DEInternal.Weighted>
2.1445

> <Gold.Chemscore.Rot.Weighted>
5.2381

> <Gold.Chemscore.Internal.Correction.Weighted>
   9.000000E+99

> <Gold.Protein.RotatedTorsions>
[ 6907 6896 6895 6894 ] final  147.63 input  -60.11 | X-H torsion
[ 7974 7965 7964 7962 ] final  -58.44 input  175.53 | X-H torsion
[ 8008 7997 7996 7995 ] final   46.59 input   59.86 | X-H torsion
[ 10167 10162 10161 10158 ] final -124.01 input  -65.29 | X-H torsion
[ 10718 10713 10712 10709 ] final   77.55 input   66.30 | X-H torsion
[ 10763 10752 10751 10750 ] final -125.03 input  -60.55 | X-H torsion
[ 11005 11000 10999 10996 ] final   96.75 input  -57.11 | X-H torsion

> <Gold.Protein.ActiveResidues>
 VAL166  LYS551  ARG553  GLY616  TRP617  ASP618  TYR619  PRO620  LYS621  CYS622 
 ASP623  PHE694  ASN695  SER759  ASP760  ASP761  ALA762  ILE779  LEU786  VAL792 
 PHE793  MET794  SER795  GLU796  ALA797  LYS798  CYS799  TRP800  GLU811  SER814 

> <Gold.Protein.RotatedAtoms>
  152.1523  133.4529  159.4819 H   0  0  0  0  0  0  0  0  0  0  0  0  # atno 6907 bound_to 6896
  150.6897  134.2174  159.4392 H   0  0  0  0  0  0  0  0  0  0  0  0  # atno 6908 bound_to 6896
  152.0072  134.9896  160.0617 H   0  0  0  0  0  0  0  0  0  0  0  0  # atno 6909 bound_to 6896
  145.8392  140.8428  143.0043 H   0  0  0  0  0  0  0  0  0  0  0  0  # atno 7974 bound_to 7965
  155.3550  140.3415  155.4240 H   0  0  0  0  0  0  0  0  0  0  0  0  # atno 8008 bound_to 7997
  156.1744  140.1642  156.8424 H   0  0  0  0  0  0  0  0  0  0  0  0  # atno 8009 bound_to 7997
  154.5266  140.0754  156.8253 H   0  0  0  0  0  0  0  0  0  0  0  0  # atno 8010 bound_to 7997
  139.9973  143.5577  152.2318 H   0  0  0  0  0  0  0  0  0  0  0  0  # atno 10167 bound_to 10162
  157.6714  130.9827  150.1658 H   0  0  0  0  0  0  0  0  0  0  0  0  # atno 10718 bound_to 10713
  154.8731  135.4043  154.3202 H   0  0  0  0  0  0  0  0  0  0  0  0  # atno 10763 bound_to 10752
  153.4031  135.7018  153.6417 H   0  0  0  0  0  0  0  0  0  0  0  0  # atno 10764 bound_to 10752
  153.5151  135.3699  155.2576 H   0  0  0  0  0  0  0  0  0  0  0  0  # atno 10765 bound_to 10752
  139.8779  134.8966  156.4205 H   0  0  0  0  0  0  0  0  0  0  0  0  # atno 11005 bound_to 11000
  144.6734  140.0787  143.7470 LP  0  0  0  0  0  0  0  0  0  0  0  0  # atno 17320 bound_to 7965
  145.9484  139.2716  143.1227 LP  0  0  0  0  0  0  0  0  0  0  0  0  # atno 17321 bound_to 7965
  139.6297  144.7642  151.2563 LP  0  0  0  0  0  0  0  0  0  0  0  0  # atno 17342 bound_to 10162
  140.7432  143.6502  150.8255 LP  0  0  0  0  0  0  0  0  0  0  0  0  # atno 17343 bound_to 10162
  156.2424  130.3692  149.8322 LP  0  0  0  0  0  0  0  0  0  0  0  0  # atno 17370 bound_to 10713
  156.6119  130.8590  151.3456 LP  0  0  0  0  0  0  0  0  0  0  0  0  # atno 17371 bound_to 10713
  140.9137  133.7693  155.9822 LP  0  0  0  0  0  0  0  0  0  0  0  0  # atno 17394 bound_to 11000
  140.8517  134.2945  157.5272 LP  0  0  0  0  0  0  0  0  0  0  0  0  # atno 17395 bound_to 11000

$$$$
