AV-unprocessed.smi:290|AV-procd|sdf|2231|dock8
  -GOLD-   2262022 93D 1   1.00000     0.00000
 Structure written by MMmdl.
 59 62  0  0  0  0  0  0  0  0  2 V2000
  153.1444  142.6926  162.2935 C   0  0  0  0  0  0  0  0  0  0  0  0
  153.5518  141.3231  161.7371 C   0  0  2  0  0  0  0  0  0  0  0  0
  154.9010  141.0684  162.1074 O   0  0  0  0  0  0  0  0  0  0  0  0
  155.3925  140.0530  161.2549 C   0  0  0  0  0  0  0  0  0  0  0  0
  154.8812  140.5109  159.8980 C   0  0  0  0  0  0  0  0  0  0  0  0
  153.4976  141.0969  160.1949 C   0  0  1  0  0  0  0  0  0  0  0  0
  152.5485  140.0754  159.9458 O   0  0  0  0  0  0  0  0  0  0  0  0
  153.2242  142.3190  159.2671 C   0  0  0  0  0  0  0  0  0  0  0  0
  151.9934  142.2707  158.4859 N   0  0  0  0  0  0  0  0  0  0  0  0
  150.9082  143.1085  158.5988 C   0  0  0  0  0  0  0  0  0  0  0  0
  149.9326  142.8719  157.7666 N   0  0  0  0  0  0  0  0  0  0  0  0
  150.3902  141.8194  156.9812 C   0  0  0  0  0  0  0  0  0  0  0  0
  149.8581  141.0753  155.8835 C   0  0  0  0  0  0  0  0  0  0  0  0
  148.6427  141.2720  155.3051 N   0  0  0  0  0  0  0  0  0  0  0  0
  148.5391  141.4308  153.8637 C   0  0  0  0  0  0  0  0  0  0  0  0
  147.2238  140.7617  153.4888 C   0  0  0  0  0  0  0  0  0  0  0  0
  146.3397  140.9434  154.7330 C   0  0  1  0  0  0  0  0  0  0  0  0
  145.2414  139.9301  154.7843 N   0  3  1  0  0  0  0  0  0  0  0  0
  145.6949  138.5196  154.7088 C   0  0  0  0  0  0  0  0  0  0  0  0
  144.3114  140.1377  155.9278 C   0  0  0  0  0  0  0  0  0  0  0  0
  143.8197  141.5921  156.0097 C   0  0  0  0  0  0  0  0  0  0  0  0
  143.0684  141.9102  154.8570 O   0  0  0  0  0  0  0  0  0  0  0  0
  147.3690  140.8637  155.8914 C   0  0  2  0  0  0  0  0  0  0  0  0
  147.0169  141.7777  157.0857 C   0  0  0  0  0  0  0  0  0  0  0  0
  150.6386  140.0900  155.3670 N   0  0  0  0  0  0  0  0  0  0  0  0
  151.8516  139.8473  155.8690 C   0  0  0  0  0  0  0  0  0  0  0  0
  152.4713  140.4578  156.8784 N   0  0  0  0  0  0  0  0  0  0  0  0
  151.6932  141.4389  157.4184 C   0  0  0  0  0  0  0  0  0  0  0  0
  145.9053  141.9446  154.7100 H   0  0  0  0  0  0  0  0  0  0  0  0
  147.4595  139.8253  156.2082 H   0  0  0  0  0  0  0  0  0  0  0  0
  152.0811  142.8734  162.1458 H   0  0  0  0  0  0  0  0  0  0  0  0
  153.7105  143.5045  161.8381 H   0  0  0  0  0  0  0  0  0  0  0  0
  153.3248  142.7348  163.3677 H   0  0  0  0  0  0  0  0  0  0  0  0
  152.9501  140.5662  162.2448 H   0  0  0  0  0  0  0  0  0  0  0  0
  156.4794  139.9800  161.2954 H   0  0  0  0  0  0  0  0  0  0  0  0
  154.9660  139.0883  161.5345 H   0  0  0  0  0  0  0  0  0  0  0  0
  155.5481  141.2904  159.5266 H   0  0  0  0  0  0  0  0  0  0  0  0
  154.8739  139.7115  159.1555 H   0  0  0  0  0  0  0  0  0  0  0  0
  152.6829  139.7473  159.0696 H   0  0  0  0  0  0  0  0  0  0  0  0
  153.2441  143.2478  159.8376 H   0  0  0  0  0  0  0  0  0  0  0  0
  154.0411  142.4066  158.5493 H   0  0  0  0  0  0  0  0  0  0  0  0
  150.8572  143.9071  159.3241 H   0  0  0  0  0  0  0  0  0  0  0  0
  148.5148  142.4954  153.6282 H   0  0  0  0  0  0  0  0  0  0  0  0
  149.3739  140.9793  153.3259 H   0  0  0  0  0  0  0  0  0  0  0  0
  146.8001  141.1906  152.5811 H   0  0  0  0  0  0  0  0  0  0  0  0
  147.4003  139.7001  153.3071 H   0  0  0  0  0  0  0  0  0  0  0  0
  146.3835  138.2874  155.5220 H   0  0  0  0  0  0  0  0  0  0  0  0
  146.1854  138.3079  153.7595 H   0  0  0  0  0  0  0  0  0  0  0  0
  144.8543  137.8300  154.7796 H   0  0  0  0  0  0  0  0  0  0  0  0
  143.4636  139.4575  155.8345 H   0  0  0  0  0  0  0  0  0  0  0  0
  144.7789  139.8849  156.8786 H   0  0  0  0  0  0  0  0  0  0  0  0
  143.2191  141.7728  156.9007 H   0  0  0  0  0  0  0  0  0  0  0  0
  144.6732  142.2687  156.0593 H   0  0  0  0  0  0  0  0  0  0  0  0
  143.3714  141.3720  154.1408 H   0  0  0  0  0  0  0  0  0  0  0  0
  146.0862  141.4923  157.5709 H   0  0  0  0  0  0  0  0  0  0  0  0
  146.9136  142.8152  156.7663 H   0  0  0  0  0  0  0  0  0  0  0  0
  147.7897  141.7557  157.8533 H   0  0  0  0  0  0  0  0  0  0  0  0
  152.4045  139.0510  155.3927 H   0  0  0  0  0  0  0  0  0  0  0  0
  144.6914  140.0931  153.9525 H   0  0  0  0  0  0  0  0  0  0  0  0
  1  2  1  0  0  0  0
  1 31  1  0  0  0  0
  1 32  1  0  0  0  0
  1 33  1  0  0  0  0
  2  6  1  0  0  0  0
  2  3  1  0  0  0  0
  2 34  1  0  0  0  0
  3  4  1  0  0  0  0
  4  5  1  0  0  0  0
  4 35  1  0  0  0  0
  4 36  1  0  0  0  0
  5  6  1  0  0  0  0
  5 37  1  0  0  0  0
  5 38  1  0  0  0  0
  6  7  1  0  0  0  0
  6  8  1  0  0  0  0
  7 39  1  0  0  0  0
  8  9  1  0  0  0  0
  8 40  1  0  0  0  0
  8 41  1  0  0  0  0
  9 28  1  0  0  0  0
  9 10  1  0  0  0  0
 10 11  2  0  0  0  0
 10 42  1  0  0  0  0
 11 12  1  0  0  0  0
 12 28  2  0  0  0  0
 12 13  1  0  0  0  0
 13 14  1  0  0  0  0
 13 25  2  0  0  0  0
 14 23  1  0  0  0  0
 14 15  1  0  0  0  0
 15 16  1  0  0  0  0
 15 43  1  0  0  0  0
 15 44  1  0  0  0  0
 16 17  1  0  0  0  0
 16 45  1  0  0  0  0
 16 46  1  0  0  0  0
 17 29  1  0  0  0  0
 17 18  1  0  0  0  0
 17 23  1  0  0  0  0
 18 19  1  0  0  0  0
 18 20  1  0  0  0  0
 18 59  1  0  0  0  0
 19 47  1  0  0  0  0
 19 48  1  0  0  0  0
 19 49  1  0  0  0  0
 20 21  1  0  0  0  0
 20 50  1  0  0  0  0
 20 51  1  0  0  0  0
 21 22  1  0  0  0  0
 21 52  1  0  0  0  0
 21 53  1  0  0  0  0
 22 54  1  0  0  0  0
 23 30  1  0  0  0  0
 23 24  1  0  0  0  0
 24 55  1  0  0  0  0
 24 56  1  0  0  0  0
 24 57  1  0  0  0  0
 25 26  1  0  0  0  0
 26 27  2  0  0  0  0
 26 58  1  0  0  0  0
 27 28  1  0  0  0  0
M  CHG  1  18   1
M  END
> <s_m_source_file>
AV-unprocessed.smi

> <i_m_source_file_index>
290

> <i_lp_mmshare_version>
43012

> <i_f3d_flags>
0

> <s_epik_input>
W0NIMl0xW0NIMl1PW0NAQEhdKFtDSDNdKVtDQEBdMShbT0hdKVtDSDJdbihbY0hdbjIpYyhjMjMpbltjSF1uYzNONFtDSDJdW0NIMl1bQ0BIXShbQ0BIXTRbQ0gzXSlOKFtDSDNdKVtDSDJdW0NIMl1bT0hd

> <s_epik_cmdline>
J2VwaWtfcHl0aG9uJywgJy1waCcsICc3LjAnLCAnLXRuJywgJzgnLCAnLW1hJywgJzIwMCcsICctbWV0YWxfYmluZGluZycsICctaW1hZScsICc8aW5maWxlLm1hZT4nLCAnLW9tYWUnLCAnPG91dGZpbGUubWFlPic=

> <r_lp_tautomer_probability>
1

> <r_epik_Ionization_Penalty>
0.0036983

> <r_epik_Ionization_Penalty_Charging>
0.0032725

> <r_epik_Ionization_Penalty_Neutral>
0.000425798

> <r_epik_State_Penalty>
-0

> <r_epik_Charging_Adjusted_Penalty>
0.0032725

> <i_epik_Tot_Q>
1

> <i_epik_Tot_abs_Q>
1

> <r_epik_Metal_State_Penalty>
-0

> <b_epik_Metal_Only>
0

> <s_lp_Force_Field>
OPLS_2005

> <r_lp_Energy>
63.0436

> <b_lp_Chiralities_Consistent>
1

> <s_lp_Variant>
AV-unprocessed.smi:290-17

> <Gold.Version>
5.8.1

> <Gold.Id.Protein>
6NUR|6NUR_protein|mol2

> <Gold.PLP.Fitness>
51.5987

> <Gold.PLP.PLP>
-43.8089

> <Gold.PLP.part.hbond>
-5.4145

> <Gold.PLP.part.metal>
0.0000

> <Gold.PLP.part.buried>
-2.0318

> <Gold.PLP.part.nonpolar>
-36.3185

> <Gold.PLP.part.repulsive>
0.9017

> <Gold.PLP.ligand.clash>
0.1181

> <Gold.PLP.ligand.torsion>
2.3632

> <Gold.PLP.Chemscore.Hbond>
4.0929

> <Gold.PLP.Chemscore.CHOScore>
0.0000

> <Gold.PLP.Chemscore.Metal>
0.0000

> <Gold.Chemscore.Hbonds>
donor molecule, donor type, donor heavy atom, donor atom, acceptor molecule, acceptor atom, score
      L1  H    18    59       P1 10175  2.00
      L1  H    22    54       P1 10175  0.85
      P1  H  7989  7998       L1    25  0.18
      P1  H  7997  8009       L1    27  0.91

> <Gold.PLP.Chemscore.Internal.Correction>
0.3554

> <Gold.Rescore>
     Score         DG    S(hbond)    S(metal)    S(lipo)     H(rot)  DE(clash)    DE(int)     intcor
     11.96     -15.59       2.72        0.00      82.07       3.35       0.27       3.36       ----

> <Gold.Chemscore.Fitness>
11.9604

> <Gold.Chemscore.DG>
-15.5890

> <Gold.Chemscore.ZeroCoef>
-5.4800

> <Gold.Chemscore.Hbond>
2.7207

> <Gold.Chemscore.Metal>
0.0000

> <Gold.Chemscore.Lipo>
82.0719

> <Gold.Chemscore.Internal_Hbond>
0.0000

> <Gold.Chemscore.DEClash>
0.2728

> <Gold.Chemscore.DEInternal>
3.3558

> <Gold.Chemscore.Rot>
3.3518

> <Gold.Chemscore.Internal.Correction>
   9.000000E+99

> <Gold.Chemscore.Hbonds>
donor molecule, donor type, donor heavy atom, donor atom, acceptor molecule, acceptor atom, score
      L1  H    18    59       P1 10175  1.00
      L1  H    22    54       P1 10175  0.15
      P1  H  7997  8009       L1    27  0.31

> <Gold.Chemscore.Hbond.Weighted>
-9.0871

> <Gold.Chemscore.Metal.Weighted>
-0.0000

> <Gold.Chemscore.Lipo.Weighted>
-9.6024

> <Gold.Chemscore.Internal_Hbond.Weighted>
0.0000

> <Gold.Chemscore.DEClash.Weighted>
0.2728

> <Gold.Chemscore.DEInternal.Weighted>
3.3558

> <Gold.Chemscore.Rot.Weighted>
8.5806

> <Gold.Chemscore.Internal.Correction.Weighted>
   9.000000E+99

> <Gold.Protein.RotatedTorsions>
[ 6907 6896 6895 6894 ] final   20.87 input  -60.11 | X-H torsion
[ 7974 7965 7964 7962 ] final -145.60 input  175.53 | X-H torsion
[ 8008 7997 7996 7995 ] final -168.93 input   59.86 | X-H torsion
[ 10167 10162 10161 10158 ] final  -44.61 input  -65.29 | X-H torsion
[ 10718 10713 10712 10709 ] final   20.59 input   66.30 | X-H torsion
[ 10763 10752 10751 10750 ] final  179.61 input  -60.55 | X-H torsion
[ 11005 11000 10999 10996 ] final -144.82 input  -57.11 | X-H torsion

> <Gold.Protein.ActiveResidues>
 VAL166  LYS551  ARG553  GLY616  TRP617  ASP618  TYR619  PRO620  LYS621  CYS622 
 ASP623  PHE694  ASN695  SER759  ASP760  ASP761  ALA762  ILE779  LEU786  VAL792 
 PHE793  MET794  SER795  GLU796  ALA797  LYS798  CYS799  TRP800  GLU811  SER814 

> <Gold.Protein.RotatedAtoms>
  151.9031  135.0370  160.0507 H   0  0  0  0  0  0  0  0  0  0  0  0  # atno 6907 bound_to 6896
  152.2342  133.5078  159.5241 H   0  0  0  0  0  0  0  0  0  0  0  0  # atno 6908 bound_to 6896
  150.7034  134.1092  159.4036 H   0  0  0  0  0  0  0  0  0  0  0  0  # atno 6909 bound_to 6896
  144.8216  140.5563  143.5574 H   0  0  0  0  0  0  0  0  0  0  0  0  # atno 7974 bound_to 7965
  155.8980  140.1036  157.1370 H   0  0  0  0  0  0  0  0  0  0  0  0  # atno 8008 bound_to 7997
  154.4023  140.1298  156.4464 H   0  0  0  0  0  0  0  0  0  0  0  0  # atno 8009 bound_to 7997
  155.7456  140.3466  155.5127 H   0  0  0  0  0  0  0  0  0  0  0  0  # atno 8010 bound_to 7997
  140.6890  143.2921  151.3520 H   0  0  0  0  0  0  0  0  0  0  0  0  # atno 10167 bound_to 10162
  157.1267  130.6573  149.5939 H   0  0  0  0  0  0  0  0  0  0  0  0  # atno 10718 bound_to 10713
  154.5229  135.2795  155.1247 H   0  0  0  0  0  0  0  0  0  0  0  0  # atno 10763 bound_to 10752
  154.2797  135.6288  153.5346 H   0  0  0  0  0  0  0  0  0  0  0  0  # atno 10764 bound_to 10752
  152.9940  135.5648  154.5723 H   0  0  0  0  0  0  0  0  0  0  0  0  # atno 10765 bound_to 10752
  140.7985  134.2885  157.4987 H   0  0  0  0  0  0  0  0  0  0  0  0  # atno 11005 bound_to 11000
  145.5092  139.1480  143.3614 LP  0  0  0  0  0  0  0  0  0  0  0  0  # atno 17320 bound_to 7965
  146.2521  140.5233  142.8889 LP  0  0  0  0  0  0  0  0  0  0  0  0  # atno 17321 bound_to 7965
  139.6275  144.0786  152.2447 LP  0  0  0  0  0  0  0  0  0  0  0  0  # atno 17342 bound_to 10162
  140.0250  144.6124  150.7535 LP  0  0  0  0  0  0  0  0  0  0  0  0  # atno 17343 bound_to 10162
  155.9817  130.4825  150.6840 LP  0  0  0  0  0  0  0  0  0  0  0  0  # atno 17370 bound_to 10713
  157.4429  131.0863  151.0925 LP  0  0  0  0  0  0  0  0  0  0  0  0  # atno 17371 bound_to 10713
  139.8724  134.9416  156.3801 LP  0  0  0  0  0  0  0  0  0  0  0  0  # atno 17394 bound_to 11000
  140.9318  133.7574  156.0035 LP  0  0  0  0  0  0  0  0  0  0  0  0  # atno 17395 bound_to 11000

$$$$
