AV-unprocessed.smi:427|AV-procd|sdf|2543|dock1
  -GOLD-   2262022503D 1   1.00000     0.00000
 Structure written by MMmdl.
 51 52  0  0  0  0  0  0  0  0  1 V2000
  152.7003  138.7087  158.8174 C   0  0  0  0  0  0  0  0  0  0  0  0
  152.0914  139.9568  158.2052 C   0  0  0  0  0  0  0  0  0  0  0  0
  152.2571  141.2012  158.8485 C   0  0  0  0  0  0  0  0  0  0  0  0
  151.7003  142.3845  158.3057 C   0  0  0  0  0  0  0  0  0  0  0  0
  151.8631  143.7602  158.9809 C   0  0  0  0  0  0  0  0  0  0  0  0
  152.5925  143.5917  160.3301 C   0  0  0  0  0  0  0  0  0  0  0  0
  150.5134  144.4592  159.2622 C   0  0  0  0  0  0  0  0  0  0  0  0
  152.6900  144.6911  158.0695 C   0  0  0  0  0  0  0  0  0  0  0  0
  150.9719  142.2822  157.0987 C   0  0  0  0  0  0  0  0  0  0  0  0
  150.8033  141.0440  156.4522 C   0  0  0  0  0  0  0  0  0  0  0  0
  151.3629  139.8645  156.9993 C   0  0  0  0  0  0  0  0  0  0  0  0
  151.2412  138.6174  156.4237 O   0  0  0  0  0  0  0  0  0  0  0  0
  150.4573  138.4836  155.2446 C   0  0  0  0  0  0  0  0  0  0  0  0
  150.3930  137.0040  154.8313 C   0  0  1  0  0  0  0  0  0  0  0  0
  151.6243  136.6748  154.2203 O   0  0  0  0  0  0  0  0  0  0  0  0
  150.1108  136.0604  156.0216 C   0  0  0  0  0  0  0  0  0  0  0  0
  150.1477  134.6530  155.6614 N   0  0  0  0  0  0  0  0  0  0  0  0
  151.1395  133.8389  156.2629 C   0  0  0  0  0  0  0  0  0  0  0  0
  151.9559  134.2850  157.0697 O   0  0  0  0  0  0  0  0  0  0  0  0
  151.1230  132.4428  155.8396 C   0  0  0  0  0  0  0  0  0  0  0  0
  150.2237  132.0025  154.9329 C   0  0  0  0  0  0  0  0  0  0  0  0
  149.2799  132.8274  154.3530 N   0  0  0  0  0  0  0  0  0  0  0  0
  148.3334  132.3533  153.3848 C   0  0  0  0  0  0  0  0  0  0  0  0
  149.2173  134.1950  154.6983 C   0  0  0  0  0  0  0  0  0  0  0  0
  148.3937  134.9506  154.1742 O   0  0  0  0  0  0  0  0  0  0  0  0
  153.2437  138.9347  159.7351 H   0  0  0  0  0  0  0  0  0  0  0  0
  153.3958  138.2444  158.1179 H   0  0  0  0  0  0  0  0  0  0  0  0
  151.9198  137.9855  159.0554 H   0  0  0  0  0  0  0  0  0  0  0  0
  152.8215  141.2216  159.7673 H   0  0  0  0  0  0  0  0  0  0  0  0
  152.7053  144.5482  160.8415 H   0  0  0  0  0  0  0  0  0  0  0  0
  153.5928  143.1761  160.2081 H   0  0  0  0  0  0  0  0  0  0  0  0
  152.0408  142.9277  160.9965 H   0  0  0  0  0  0  0  0  0  0  0  0
  149.8854  143.8701  159.9317 H   0  0  0  0  0  0  0  0  0  0  0  0
  149.9536  144.6410  158.3440 H   0  0  0  0  0  0  0  0  0  0  0  0
  150.6628  145.4284  159.7395 H   0  0  0  0  0  0  0  0  0  0  0  0
  152.8049  145.6808  158.5134 H   0  0  0  0  0  0  0  0  0  0  0  0
  152.2094  144.8219  157.0992 H   0  0  0  0  0  0  0  0  0  0  0  0
  153.6935  144.3053  157.8891 H   0  0  0  0  0  0  0  0  0  0  0  0
  150.5311  143.1605  156.6518 H   0  0  0  0  0  0  0  0  0  0  0  0
  150.2380  141.0277  155.5331 H   0  0  0  0  0  0  0  0  0  0  0  0
  149.4440  138.8310  155.4523 H   0  0  0  0  0  0  0  0  0  0  0  0
  150.8571  139.0919  154.4312 H   0  0  0  0  0  0  0  0  0  0  0  0
  149.6151  136.9011  154.0735 H   0  0  0  0  0  0  0  0  0  0  0  0
  151.5057  136.6814  153.2828 H   0  0  0  0  0  0  0  0  0  0  0  0
  150.7887  136.2296  156.8600 H   0  0  0  0  0  0  0  0  0  0  0  0
  149.1193  136.2433  156.4401 H   0  0  0  0  0  0  0  0  0  0  0  0
  151.8419  131.7533  156.2572 H   0  0  0  0  0  0  0  0  0  0  0  0
  150.2502  130.9603  154.6498 H   0  0  0  0  0  0  0  0  0  0  0  0
  147.3350  132.5143  153.7952 H   0  0  0  0  0  0  0  0  0  0  0  0
  148.5178  131.2904  153.2259 H   0  0  0  0  0  0  0  0  0  0  0  0
  148.4960  132.9139  152.4628 H   0  0  0  0  0  0  0  0  0  0  0  0
  1  2  1  0  0  0  0
  1 26  1  0  0  0  0
  1 27  1  0  0  0  0
  1 28  1  0  0  0  0
  2 11  1  0  0  0  0
  2  3  2  0  0  0  0
  3  4  1  0  0  0  0
  3 29  1  0  0  0  0
  4  5  1  0  0  0  0
  4  9  2  0  0  0  0
  5  6  1  0  0  0  0
  5  7  1  0  0  0  0
  5  8  1  0  0  0  0
  6 30  1  0  0  0  0
  6 31  1  0  0  0  0
  6 32  1  0  0  0  0
  7 33  1  0  0  0  0
  7 34  1  0  0  0  0
  7 35  1  0  0  0  0
  8 36  1  0  0  0  0
  8 37  1  0  0  0  0
  8 38  1  0  0  0  0
  9 10  1  0  0  0  0
  9 39  1  0  0  0  0
 10 11  2  0  0  0  0
 10 40  1  0  0  0  0
 11 12  1  0  0  0  0
 12 13  1  0  0  0  0
 13 14  1  0  0  0  0
 13 41  1  0  0  0  0
 13 42  1  0  0  0  0
 14 15  1  0  0  0  0
 14 16  1  0  0  0  0
 14 43  1  0  0  0  0
 15 44  1  0  0  0  0
 16 17  1  0  0  0  0
 16 45  1  0  0  0  0
 16 46  1  0  0  0  0
 17 24  1  0  0  0  0
 17 18  1  0  0  0  0
 18 19  2  0  0  0  0
 18 20  1  0  0  0  0
 20 21  2  0  0  0  0
 20 47  1  0  0  0  0
 21 22  1  0  0  0  0
 21 48  1  0  0  0  0
 22 23  1  0  0  0  0
 22 24  1  0  0  0  0
 23 49  1  0  0  0  0
 23 50  1  0  0  0  0
 23 51  1  0  0  0  0
 24 25  2  0  0  0  0
M  END
> <s_m_source_file>
AV-unprocessed.smi

> <i_m_source_file_index>
427

> <i_lp_mmshare_version>
43012

> <i_f3d_flags>
0

> <s_epik_input>
W0NIM11jMVtjSF1jKEMoW0NIM10pKFtDSDNdKVtDSDNdKVtjSF1bY0hdYzFPW0NIMl1bQ0BIXShbT0hdKVtDSDJdbjJjKD1PKVtjSF1bY0hdbihbQ0gzXSljMj1P

> <s_epik_cmdline>
J2VwaWtfcHl0aG9uJywgJy1waCcsICc3LjAnLCAnLXRuJywgJzgnLCAnLW1hJywgJzIwMCcsICctbWV0YWxfYmluZGluZycsICctaW1hZScsICc8aW5maWxlLm1hZT4nLCAnLW9tYWUnLCAnPG91dGZpbGUubWFlPic=

> <r_lp_tautomer_probability>
1

> <r_epik_Ionization_Penalty>
2.02112e-07

> <r_epik_Ionization_Penalty_Charging>
8.49383e-08

> <r_epik_Ionization_Penalty_Neutral>
1.17174e-07

> <r_epik_State_Penalty>
-0

> <r_epik_Charging_Adjusted_Penalty>
8.49383e-08

> <i_epik_Tot_Q>
0

> <i_epik_Tot_abs_Q>
0

> <r_epik_Metal_State_Penalty>
-0

> <b_epik_Metal_Only>
0

> <s_lp_Force_Field>
OPLS_2005

> <r_lp_Energy>
28.8364

> <b_lp_Chiralities_Consistent>
1

> <s_lp_Variant>
AV-unprocessed.smi:427-2

> <Gold.Version>
5.8.1

> <Gold.Id.Protein>
6NUR|6NUR_protein|mol2

> <Gold.PLP.Fitness>
55.1008

> <Gold.PLP.PLP>
-49.4991

> <Gold.PLP.part.hbond>
-3.0000

> <Gold.PLP.part.metal>
0.0000

> <Gold.PLP.part.buried>
-7.9874

> <Gold.PLP.part.nonpolar>
-41.7991

> <Gold.PLP.part.repulsive>
2.7748

> <Gold.PLP.ligand.clash>
0.0000

> <Gold.PLP.ligand.torsion>
0.2188

> <Gold.PLP.Chemscore.Hbond>
2.0000

> <Gold.PLP.Chemscore.CHOScore>
0.0000

> <Gold.PLP.Chemscore.Metal>
0.0000

> <Gold.Chemscore.Hbonds>
donor molecule, donor type, donor heavy atom, donor atom, acceptor molecule, acceptor atom, score
      L1  H    15    44       P1  7949  1.00
      P1  H 10752 10763       L1    15  1.00

> <Gold.PLP.Chemscore.Internal.Correction>
0.0393

> <Gold.Rescore>
     Score         DG    S(hbond)    S(metal)    S(lipo)     H(rot)  DE(clash)    DE(int)     intcor
     17.26     -20.68       1.74        0.00     134.77       2.49       1.95       1.47       ----

> <Gold.Chemscore.Fitness>
17.2602

> <Gold.Chemscore.DG>
-20.6824

> <Gold.Chemscore.ZeroCoef>
-5.4800

> <Gold.Chemscore.Hbond>
1.7387

> <Gold.Chemscore.Metal>
0.0000

> <Gold.Chemscore.Lipo>
134.7690

> <Gold.Chemscore.Internal_Hbond>
0.0000

> <Gold.Chemscore.DEClash>
1.9491

> <Gold.Chemscore.DEInternal>
1.4730

> <Gold.Chemscore.Rot>
2.4894

> <Gold.Chemscore.Internal.Correction>
   9.000000E+99

> <Gold.Chemscore.Hbonds>
donor molecule, donor type, donor heavy atom, donor atom, acceptor molecule, acceptor atom, score
      L1  H    15    44       P1  7949  0.87
      P1  H 10752 10763       L1    15  0.35

> <Gold.Chemscore.Hbond.Weighted>
-5.8072

> <Gold.Chemscore.Metal.Weighted>
-0.0000

> <Gold.Chemscore.Lipo.Weighted>
-15.7680

> <Gold.Chemscore.Internal_Hbond.Weighted>
0.0000

> <Gold.Chemscore.DEClash.Weighted>
1.9491

> <Gold.Chemscore.DEInternal.Weighted>
1.4730

> <Gold.Chemscore.Rot.Weighted>
6.3728

> <Gold.Chemscore.Internal.Correction.Weighted>
   9.000000E+99

> <Gold.Protein.RotatedTorsions>
[ 6907 6896 6895 6894 ] final   -6.50 input  -60.11 | X-H torsion
[ 7974 7965 7964 7962 ] final  -82.81 input  175.53 | X-H torsion
[ 8008 7997 7996 7995 ] final  -74.14 input   59.86 | X-H torsion
[ 10167 10162 10161 10158 ] final -158.36 input  -65.29 | X-H torsion
[ 10718 10713 10712 10709 ] final  -45.72 input   66.30 | X-H torsion
[ 10763 10752 10751 10750 ] final   50.14 input  -60.55 | X-H torsion
[ 11005 11000 10999 10996 ] final   74.34 input  -57.11 | X-H torsion

> <Gold.Protein.ActiveResidues>
 VAL166  LYS551  ARG553  GLY616  TRP617  ASP618  TYR619  PRO620  LYS621  CYS622 
 ASP623  PHE694  ASN695  SER759  ASP760  ASP761  ALA762  ILE779  LEU786  VAL792 
 PHE793  MET794  SER795  GLU796  ALA797  LYS798  CYS799  TRP800  GLU811  SER814 

> <Gold.Protein.RotatedAtoms>
  151.4646  135.1041  159.9734 H   0  0  0  0  0  0  0  0  0  0  0  0  # atno 6907 bound_to 6896
  152.4840  133.8321  159.7119 H   0  0  0  0  0  0  0  0  0  0  0  0  # atno 6908 bound_to 6896
  150.8934  133.7153  159.2925 H   0  0  0  0  0  0  0  0  0  0  0  0  # atno 6909 bound_to 6896
  145.5284  140.9524  143.1617 H   0  0  0  0  0  0  0  0  0  0  0  0  # atno 7974 bound_to 7965
  154.5306  140.0766  156.8337 H   0  0  0  0  0  0  0  0  0  0  0  0  # atno 8008 bound_to 7997
  155.3383  140.3406  155.4221 H   0  0  0  0  0  0  0  0  0  0  0  0  # atno 8009 bound_to 7997
  156.1777  140.1641  156.8319 H   0  0  0  0  0  0  0  0  0  0  0  0  # atno 8010 bound_to 7997
  139.6698  143.9764  152.2277 H   0  0  0  0  0  0  0  0  0  0  0  0  # atno 10167 bound_to 10162
  156.2255  130.4169  149.8939 H   0  0  0  0  0  0  0  0  0  0  0  0  # atno 10718 bound_to 10713
  152.9785  135.5889  154.4204 H   0  0  0  0  0  0  0  0  0  0  0  0  # atno 10763 bound_to 10752
  154.3829  135.2767  155.2203 H   0  0  0  0  0  0  0  0  0  0  0  0  # atno 10764 bound_to 10752
  154.4109  135.6082  153.6006 H   0  0  0  0  0  0  0  0  0  0  0  0  # atno 10765 bound_to 10752
  139.9396  134.7425  156.1136 H   0  0  0  0  0  0  0  0  0  0  0  0  # atno 11005 bound_to 11000
  144.7639  139.6891  143.7223 LP  0  0  0  0  0  0  0  0  0  0  0  0  # atno 17320 bound_to 7965
  146.2060  139.5385  142.9712 LP  0  0  0  0  0  0  0  0  0  0  0  0  # atno 17321 bound_to 7965
  139.9526  144.6610  150.8157 LP  0  0  0  0  0  0  0  0  0  0  0  0  # atno 17342 bound_to 10162
  140.7614  143.3173  151.2704 LP  0  0  0  0  0  0  0  0  0  0  0  0  # atno 17343 bound_to 10162
  156.6571  130.8767  151.3541 LP  0  0  0  0  0  0  0  0  0  0  0  0  # atno 17370 bound_to 10713
  157.7108  130.9438  150.1084 LP  0  0  0  0  0  0  0  0  0  0  0  0  # atno 17371 bound_to 10713
  141.1024  133.6672  156.2786 LP  0  0  0  0  0  0  0  0  0  0  0  0  # atno 17394 bound_to 11000
  140.5987  134.5577  157.5513 LP  0  0  0  0  0  0  0  0  0  0  0  0  # atno 17395 bound_to 11000

$$$$
