AV-unprocessed.smi:304|AV-procd|sdf|2279|dock8
  -GOLD-   2262022173D 1   1.00000     0.00000
 Structure written by MMmdl.
 37 39  0  0  0  0  0  0  0  0  2 V2000
  151.4800  139.1547  154.5664 O   0  0  0  0  0  0  0  0  0  0  0  0
  151.0587  138.6556  155.8207 C   0  0  1  0  0  0  0  0  0  0  0  0
  151.4704  137.1791  155.9228 C   0  0  0  0  0  0  0  0  0  0  0  0
  150.4667  136.3866  155.3119 O   0  0  0  0  0  0  0  0  0  0  0  0
  150.8682  135.0409  155.1157 C   0  0  0  0  0  0  0  0  0  0  0  0
  149.6530  134.2624  154.7270 C   0  0  0  0  0  0  0  0  0  0  0  0
  149.6132  132.9839  154.2314 C   0  0  0  0  0  0  0  0  0  0  0  0
  148.2917  132.5319  153.9440 C   0  0  0  0  0  0  0  0  0  0  0  0
  147.3368  133.4755  154.2141 C   0  0  0  0  0  0  0  0  0  0  0  0
  148.0455  134.9438  154.8288 S   0  0  0  0  0  0  0  0  0  0  0  0
  151.6933  139.5113  156.9349 C   0  0  0  0  0  0  0  0  0  0  0  0
  151.2058  140.8970  156.9345 N   0  0  0  0  0  0  0  0  0  0  0  0
  150.4199  141.5477  156.0342 C   0  0  0  0  0  0  0  0  0  0  0  0
  150.2425  142.8197  156.4880 N   0  3  0  0  0  0  0  0  0  0  0  0
  150.9250  142.9835  157.6959 C   0  0  0  0  0  0  0  0  0  0  0  0
  151.0441  144.0868  158.5349 C   0  0  0  0  0  0  0  0  0  0  0  0
  151.8203  143.9174  159.7007 C   0  0  0  0  0  0  0  0  0  0  0  0
  151.9709  144.9601  160.5512 F   0  0  0  0  0  0  0  0  0  0  0  0
  152.4411  142.6851  159.9967 C   0  0  0  0  0  0  0  0  0  0  0  0
  153.1759  142.5648  161.1275 F   0  0  0  0  0  0  0  0  0  0  0  0
  152.3126  141.5732  159.1383 C   0  0  0  0  0  0  0  0  0  0  0  0
  151.5458  141.7512  157.9880 C   0  0  0  0  0  0  0  0  0  0  0  0
  151.5356  138.4302  153.9614 H   0  0  0  0  0  0  0  0  0  0  0  0
  149.9726  138.7348  155.8837 H   0  0  0  0  0  0  0  0  0  0  0  0
  152.4482  137.0067  155.4692 H   0  0  0  0  0  0  0  0  0  0  0  0
  151.5437  136.8893  156.9723 H   0  0  0  0  0  0  0  0  0  0  0  0
  151.6205  134.9771  154.3282 H   0  0  0  0  0  0  0  0  0  0  0  0
  151.3023  134.6344  156.0305 H   0  0  0  0  0  0  0  0  0  0  0  0
  150.4801  132.3607  154.0693 H   0  0  0  0  0  0  0  0  0  0  0  0
  148.0914  131.5453  153.5532 H   0  0  0  0  0  0  0  0  0  0  0  0
  146.2669  133.3996  154.0885 H   0  0  0  0  0  0  0  0  0  0  0  0
  151.5024  139.0797  157.9183 H   0  0  0  0  0  0  0  0  0  0  0  0
  152.7773  139.5446  156.8167 H   0  0  0  0  0  0  0  0  0  0  0  0
  150.0071  141.1283  155.1278 H   0  0  0  0  0  0  0  0  0  0  0  0
  150.5694  145.0312  158.3128 H   0  0  0  0  0  0  0  0  0  0  0  0
  152.7897  140.6338  159.3743 H   0  0  0  0  0  0  0  0  0  0  0  0
  149.6931  143.5207  156.0072 H   0  0  0  0  0  0  0  0  0  0  0  0
  1  2  1  0  0  0  0
  1 23  1  0  0  0  0
  2  3  1  0  0  0  0
  2 11  1  0  0  0  0
  2 24  1  0  0  0  0
  3  4  1  0  0  0  0
  3 25  1  0  0  0  0
  3 26  1  0  0  0  0
  4  5  1  0  0  0  0
  5  6  1  0  0  0  0
  5 27  1  0  0  0  0
  5 28  1  0  0  0  0
  6 10  1  0  0  0  0
  6  7  2  0  0  0  0
  7  8  1  0  0  0  0
  7 29  1  0  0  0  0
  8  9  2  0  0  0  0
  8 30  1  0  0  0  0
  9 10  1  0  0  0  0
  9 31  1  0  0  0  0
 11 12  1  0  0  0  0
 11 32  1  0  0  0  0
 11 33  1  0  0  0  0
 12 22  1  0  0  0  0
 12 13  1  0  0  0  0
 13 14  2  0  0  0  0
 13 34  1  0  0  0  0
 14 15  1  0  0  0  0
 14 37  1  0  0  0  0
 15 22  2  0  0  0  0
 15 16  1  0  0  0  0
 16 17  2  0  0  0  0
 16 35  1  0  0  0  0
 17 18  1  0  0  0  0
 17 19  1  0  0  0  0
 19 20  1  0  0  0  0
 19 21  2  0  0  0  0
 21 22  1  0  0  0  0
 21 36  1  0  0  0  0
M  CHG  1  14   1
M  END
> <s_m_source_file>
AV-unprocessed.smi

> <i_m_source_file_index>
304

> <i_lp_mmshare_version>
43012

> <i_f3d_flags>
0

> <s_epik_input>
W2NIXTFjKEYpYyhGKVtjSF1jKGMxMiluKFtjSF1uMilbQ0gyXVtDQEhdKFtPSF0pW0NIMl1PW0NIMl1jM1tjSF1bY0hdW2NIXXMz

> <s_epik_cmdline>
J2VwaWtfcHl0aG9uJywgJy1waCcsICc3LjAnLCAnLXRuJywgJzgnLCAnLW1hJywgJzIwMCcsICctbWV0YWxfYmluZGluZycsICctaW1hZScsICc8aW5maWxlLm1hZT4nLCAnLW9tYWUnLCAnPG91dGZpbGUubWFlPic=

> <r_epik_Ionization_Penalty>
2.17745

> <r_epik_Ionization_Penalty_Charging>
2.17744

> <r_epik_Ionization_Penalty_Neutral>
1.26231e-06

> <r_epik_State_Penalty>
2.31922

> <r_epik_Charging_Adjusted_Penalty>
4.49666

> <i_epik_Tot_Q>
1

> <i_epik_Tot_abs_Q>
1

> <r_epik_Metal_State_Penalty>
6.40003

> <b_epik_Metal_Only>
0

> <s_lp_Force_Field>
OPLS_2005

> <r_lp_Energy>
12.5781

> <b_lp_Chiralities_Consistent>
1

> <s_lp_Variant>
AV-unprocessed.smi:304-4

> <Gold.Version>
5.8.1

> <Gold.Id.Protein>
6NUR|6NUR_protein|mol2

> <Gold.PLP.Fitness>
54.6866

> <Gold.PLP.PLP>
-46.6439

> <Gold.PLP.part.hbond>
-1.8554

> <Gold.PLP.part.metal>
0.0000

> <Gold.PLP.part.buried>
-5.6296

> <Gold.PLP.part.nonpolar>
-39.7084

> <Gold.PLP.part.repulsive>
0.2278

> <Gold.PLP.ligand.clash>
0.0000

> <Gold.PLP.ligand.torsion>
0.5448

> <Gold.PLP.Chemscore.Hbond>
3.0000

> <Gold.PLP.Chemscore.CHOScore>
0.0000

> <Gold.PLP.Chemscore.Metal>
0.0000

> <Gold.Chemscore.Hbonds>
donor molecule, donor type, donor heavy atom, donor atom, acceptor molecule, acceptor atom, score
      L1  H    14    37       P1  8028  1.79
      P1  H  7989  7998       L1     1  1.00

> <Gold.PLP.Chemscore.Internal.Correction>
0.1322

> <Gold.Rescore>
     Score         DG    S(hbond)    S(metal)    S(lipo)     H(rot)  DE(clash)    DE(int)     intcor
     15.59     -16.16       1.78        0.00     100.10       2.73       0.03       0.54       ----

> <Gold.Chemscore.Fitness>
15.5854

> <Gold.Chemscore.DG>
-16.1576

> <Gold.Chemscore.ZeroCoef>
-5.4800

> <Gold.Chemscore.Hbond>
1.7798

> <Gold.Chemscore.Metal>
0.0000

> <Gold.Chemscore.Lipo>
100.0967

> <Gold.Chemscore.Internal_Hbond>
0.0000

> <Gold.Chemscore.DEClash>
0.0290

> <Gold.Chemscore.DEInternal>
0.5432

> <Gold.Chemscore.Rot>
2.7258

> <Gold.Chemscore.Internal.Correction>
   9.000000E+99

> <Gold.Chemscore.Hbonds>
donor molecule, donor type, donor heavy atom, donor atom, acceptor molecule, acceptor atom, score
      L1  H    14    37       P1  8028  0.86
      P1  H  7989  7998       L1     1  0.56

> <Gold.Chemscore.Hbond.Weighted>
-5.9444

> <Gold.Chemscore.Metal.Weighted>
-0.0000

> <Gold.Chemscore.Lipo.Weighted>
-11.7113

> <Gold.Chemscore.Internal_Hbond.Weighted>
0.0000

> <Gold.Chemscore.DEClash.Weighted>
0.0290

> <Gold.Chemscore.DEInternal.Weighted>
0.5432

> <Gold.Chemscore.Rot.Weighted>
6.9781

> <Gold.Chemscore.Internal.Correction.Weighted>
   9.000000E+99

> <Gold.Protein.RotatedTorsions>
[ 6907 6896 6895 6894 ] final  148.66 input  -60.11 | X-H torsion
[ 7974 7965 7964 7962 ] final   26.90 input  175.53 | X-H torsion
[ 8008 7997 7996 7995 ] final -122.90 input   59.86 | X-H torsion
[ 10167 10162 10161 10158 ] final  -65.82 input  -65.29 | X-H torsion
[ 10718 10713 10712 10709 ] final  -51.83 input   66.30 | X-H torsion
[ 10763 10752 10751 10750 ] final  -82.06 input  -60.55 | X-H torsion
[ 11005 11000 10999 10996 ] final  -86.44 input  -57.11 | X-H torsion

> <Gold.Protein.ActiveResidues>
 VAL166  LYS551  ARG553  GLY616  TRP617  ASP618  TYR619  PRO620  LYS621  CYS622 
 ASP623  PHE694  ASN695  SER759  ASP760  ASP761  ALA762  ILE779  LEU786  VAL792 
 PHE793  MET794  SER795  GLU796  ALA797  LYS798  CYS799  TRP800  GLU811  SER814 

> <Gold.Protein.RotatedAtoms>
  152.1385  133.4449  159.4754 H   0  0  0  0  0  0  0  0  0  0  0  0  # atno 6907 bound_to 6896
  150.6884  134.2334  159.4453 H   0  0  0  0  0  0  0  0  0  0  0  0  # atno 6908 bound_to 6896
  152.0223  134.9815  160.0621 H   0  0  0  0  0  0  0  0  0  0  0  0  # atno 6909 bound_to 6896
  146.1813  139.7265  142.8898 H   0  0  0  0  0  0  0  0  0  0  0  0  # atno 7974 bound_to 7965
  155.1717  140.0408  157.2864 H   0  0  0  0  0  0  0  0  0  0  0  0  # atno 8008 bound_to 7997
  154.6265  140.2513  155.7458 H   0  0  0  0  0  0  0  0  0  0  0  0  # atno 8009 bound_to 7997
  156.2462  140.2884  156.0597 H   0  0  0  0  0  0  0  0  0  0  0  0  # atno 8010 bound_to 7997
  140.5701  143.2317  151.6554 H   0  0  0  0  0  0  0  0  0  0  0  0  # atno 10167 bound_to 10162
  156.1675  130.4149  149.9698 H   0  0  0  0  0  0  0  0  0  0  0  0  # atno 10718 bound_to 10713
  154.5711  135.5604  153.7096 H   0  0  0  0  0  0  0  0  0  0  0  0  # atno 10763 bound_to 10752
  153.0049  135.6297  154.2113 H   0  0  0  0  0  0  0  0  0  0  0  0  # atno 10764 bound_to 10752
  154.2052  135.2876  155.2957 H   0  0  0  0  0  0  0  0  0  0  0  0  # atno 10765 bound_to 10752
  141.1630  133.7454  156.9161 H   0  0  0  0  0  0  0  0  0  0  0  0  # atno 11005 bound_to 11000
  145.4068  141.0392  143.3039 LP  0  0  0  0  0  0  0  0  0  0  0  0  # atno 17320 bound_to 7965
  144.8320  139.5613  143.6939 LP  0  0  0  0  0  0  0  0  0  0  0  0  # atno 17321 bound_to 7965
  139.5113  144.3513  152.0649 LP  0  0  0  0  0  0  0  0  0  0  0  0  # atno 17342 bound_to 10162
  140.2649  144.4027  150.6172 LP  0  0  0  0  0  0  0  0  0  0  0  0  # atno 17343 bound_to 10162
  156.7508  130.9115  151.3637 LP  0  0  0  0  0  0  0  0  0  0  0  0  # atno 17370 bound_to 10713
  157.6778  130.9111  150.0194 LP  0  0  0  0  0  0  0  0  0  0  0  0  # atno 17371 bound_to 10713
  140.1483  134.9247  157.2559 LP  0  0  0  0  0  0  0  0  0  0  0  0  # atno 17394 bound_to 11000
  140.2753  134.3412  155.7360 LP  0  0  0  0  0  0  0  0  0  0  0  0  # atno 17395 bound_to 11000

$$$$
