AV-unprocessed.smi:1702|AV-procd|sdf|6850|dock7
  -GOLD-   22720 8 33D 1   1.00000     0.00000
 Structure written by MMmdl.
 45 47  0  0  0  0  0  0  0  0  3 V2000
  146.4335  132.0609  153.0389 C   0  0  0  0  0  0  0  0  0  0  0  0
  145.8649  133.4386  152.6704 C   0  0  2  0  0  0  0  0  0  0  0  0
  146.1609  133.8031  151.2060 C   0  0  0  0  0  0  0  0  0  0  0  0
  145.6176  135.1988  150.8568 C   0  0  0  0  0  0  0  0  0  0  0  0
  146.1715  136.2330  151.7680 N   0  3  1  0  0  0  0  0  0  0  0  0
  145.7823  137.6090  151.3643 C   0  0  0  0  0  0  0  0  0  0  0  0
  146.6867  138.6893  151.9908 C   0  0  1  0  0  0  0  0  0  0  0  0
  146.7525  139.7970  151.1127 O   0  0  0  0  0  0  0  0  0  0  0  0
  146.1544  139.1583  153.3601 C   0  0  0  0  0  0  0  0  0  0  0  0
  147.0073  140.1759  153.9899 N   0  0  0  0  0  0  0  0  0  0  0  0
  146.7673  141.4945  154.2283 C   0  0  0  0  0  0  0  0  0  0  0  0
  147.8724  142.0104  154.8349 N   0  3  0  0  0  0  0  0  0  0  0  0
  148.8319  141.0071  154.9882 C   0  0  0  0  0  0  0  0  0  0  0  0
  150.1072  141.0412  155.5432 C   0  0  0  0  0  0  0  0  0  0  0  0
  150.8335  139.8321  155.5406 C   0  0  0  0  0  0  0  0  0  0  0  0
  152.0814  139.8101  156.0652 F   0  0  0  0  0  0  0  0  0  0  0  0
  150.2859  138.6481  155.0020 C   0  0  0  0  0  0  0  0  0  0  0  0
  151.0172  137.5086  155.0184 F   0  0  0  0  0  0  0  0  0  0  0  0
  148.9903  138.6254  154.4443 C   0  0  0  0  0  0  0  0  0  0  0  0
  148.2816  139.8257  154.4486 C   0  0  0  0  0  0  0  0  0  0  0  0
  145.8617  135.9251  153.1895 C   0  0  0  0  0  0  0  0  0  0  0  0
  146.4109  134.5452  153.5889 C   0  0  0  0  0  0  0  0  0  0  0  0
  147.5187  132.0379  152.9350 H   0  0  0  0  0  0  0  0  0  0  0  0
  146.0212  131.2816  152.3975 H   0  0  0  0  0  0  0  0  0  0  0  0
  146.1927  131.7998  154.0698 H   0  0  0  0  0  0  0  0  0  0  0  0
  144.7822  133.3947  152.7973 H   0  0  0  0  0  0  0  0  0  0  0  0
  147.2368  133.7768  151.0272 H   0  0  0  0  0  0  0  0  0  0  0  0
  145.7198  133.0613  150.5395 H   0  0  0  0  0  0  0  0  0  0  0  0
  145.8830  135.4343  149.8252 H   0  0  0  0  0  0  0  0  0  0  0  0
  144.5279  135.2062  150.9142 H   0  0  0  0  0  0  0  0  0  0  0  0
  145.8338  137.7053  150.2784 H   0  0  0  0  0  0  0  0  0  0  0  0
  144.7384  137.7793  151.6323 H   0  0  0  0  0  0  0  0  0  0  0  0
  147.6977  138.3063  152.1230 H   0  0  0  0  0  0  0  0  0  0  0  0
  147.6606  140.0046  150.9521 H   0  0  0  0  0  0  0  0  0  0  0  0
  145.1579  139.5894  153.2526 H   0  0  0  0  0  0  0  0  0  0  0  0
  146.0545  138.3188  154.0493 H   0  0  0  0  0  0  0  0  0  0  0  0
  145.8655  142.0353  153.9788 H   0  0  0  0  0  0  0  0  0  0  0  0
  150.5301  141.9448  155.9572 H   0  0  0  0  0  0  0  0  0  0  0  0
  148.5809  137.7136  154.0366 H   0  0  0  0  0  0  0  0  0  0  0  0
  146.2933  136.6795  153.8460 H   0  0  0  0  0  0  0  0  0  0  0  0
  144.7817  135.9561  153.3431 H   0  0  0  0  0  0  0  0  0  0  0  0
  146.1483  134.3327  154.6259 H   0  0  0  0  0  0  0  0  0  0  0  0
  147.5009  134.5608  153.5438 H   0  0  0  0  0  0  0  0  0  0  0  0
  147.1757  136.1838  151.6671 H   0  0  0  0  0  0  0  0  0  0  0  0
  147.9621  142.9770  155.1217 H   0  0  0  0  0  0  0  0  0  0  0  0
  1  2  1  0  0  0  0
  1 23  1  0  0  0  0
  1 24  1  0  0  0  0
  1 25  1  0  0  0  0
  2 22  1  0  0  0  0
  2  3  1  0  0  0  0
  2 26  1  0  0  0  0
  3  4  1  0  0  0  0
  3 27  1  0  0  0  0
  3 28  1  0  0  0  0
  4  5  1  0  0  0  0
  4 29  1  0  0  0  0
  4 30  1  0  0  0  0
  5  6  1  0  0  0  0
  5 21  1  0  0  0  0
  5 44  1  0  0  0  0
  6  7  1  0  0  0  0
  6 31  1  0  0  0  0
  6 32  1  0  0  0  0
  7  8  1  0  0  0  0
  7  9  1  0  0  0  0
  7 33  1  0  0  0  0
  8 34  1  0  0  0  0
  9 10  1  0  0  0  0
  9 35  1  0  0  0  0
  9 36  1  0  0  0  0
 10 20  1  0  0  0  0
 10 11  1  0  0  0  0
 11 12  2  0  0  0  0
 11 37  1  0  0  0  0
 12 13  1  0  0  0  0
 12 45  1  0  0  0  0
 13 20  2  0  0  0  0
 13 14  1  0  0  0  0
 14 15  2  0  0  0  0
 14 38  1  0  0  0  0
 15 16  1  0  0  0  0
 15 17  1  0  0  0  0
 17 18  1  0  0  0  0
 17 19  2  0  0  0  0
 19 20  1  0  0  0  0
 19 39  1  0  0  0  0
 21 22  1  0  0  0  0
 21 40  1  0  0  0  0
 21 41  1  0  0  0  0
 22 42  1  0  0  0  0
 22 43  1  0  0  0  0
M  CHG  1   5   1
M  CHG  1  12   1
M  END
> <s_m_source_file>
AV-unprocessed.smi

> <i_m_source_file_index>
1702

> <i_lp_mmshare_version>
43012

> <i_f3d_flags>
0

> <s_epik_input>
W0NIM11bQ0hdMVtDSDJdW0NIMl1OKFtDSDJdW0NIMl0xKVtDSDJdW0NASF0oW09IXSlbQ0gyXW4oW2NIXW4yKWMoYzIzKVtjSF1jKEYpYyhGKVtjSF0z

> <s_epik_cmdline>
J2VwaWtfcHl0aG9uJywgJy1waCcsICc3LjAnLCAnLXRuJywgJzgnLCAnLW1hJywgJzIwMCcsICctbWV0YWxfYmluZGluZycsICctaW1hZScsICc8aW5maWxlLm1hZT4nLCAnLW9tYWUnLCAnPG91dGZpbGUubWFlPic=

> <r_epik_Ionization_Penalty>
2.33291

> <r_epik_Ionization_Penalty_Charging>
2.33291

> <r_epik_Ionization_Penalty_Neutral>
6.90208e-07

> <r_epik_State_Penalty>
2.4838

> <r_epik_Charging_Adjusted_Penalty>
4.81672

> <i_epik_Tot_Q>
2

> <i_epik_Tot_abs_Q>
2

> <r_epik_Metal_State_Penalty>
6.56754

> <b_epik_Metal_Only>
0

> <s_lp_Force_Field>
OPLS_2005

> <r_lp_Energy>
29.8556

> <b_lp_Chiralities_Consistent>
1

> <s_lp_Variant>
AV-unprocessed.smi:1702-6

> <Gold.Version>
5.8.1

> <Gold.Id.Protein>
6NUR|6NUR_protein|mol2

> <Gold.PLP.Fitness>
53.2263

> <Gold.PLP.PLP>
-39.3060

> <Gold.PLP.part.hbond>
-3.1875

> <Gold.PLP.part.metal>
0.0000

> <Gold.PLP.part.buried>
4.1352

> <Gold.PLP.part.nonpolar>
-39.6921

> <Gold.PLP.part.repulsive>
0.2020

> <Gold.PLP.ligand.clash>
0.0000

> <Gold.PLP.ligand.torsion>
0.5484

> <Gold.PLP.Chemscore.Hbond>
5.0000

> <Gold.PLP.Chemscore.CHOScore>
0.0000

> <Gold.PLP.Chemscore.Metal>
0.0000

> <Gold.Chemscore.Hbonds>
donor molecule, donor type, donor heavy atom, donor atom, acceptor molecule, acceptor atom, score
      L1  H     5    44       P1  7948  2.00
      L1  H     8    34       P1  7957  1.00
      L1  H    12    45       P1  8028  2.00

> <Gold.PLP.Chemscore.Internal.Correction>
0.0171

> <Gold.Rescore>
     Score         DG    S(hbond)    S(metal)    S(lipo)     H(rot)  DE(clash)    DE(int)     intcor
     17.75     -19.19       2.97        0.00      83.06       2.32       0.87       0.56       ----

> <Gold.Chemscore.Fitness>
17.7519

> <Gold.Chemscore.DG>
-19.1876

> <Gold.Chemscore.ZeroCoef>
-5.4800

> <Gold.Chemscore.Hbond>
2.9736

> <Gold.Chemscore.Metal>
0.0000

> <Gold.Chemscore.Lipo>
83.0559

> <Gold.Chemscore.Internal_Hbond>
0.0000

> <Gold.Chemscore.DEClash>
0.8744

> <Gold.Chemscore.DEInternal>
0.5614

> <Gold.Chemscore.Rot>
2.3210

> <Gold.Chemscore.Internal.Correction>
   9.000000E+99

> <Gold.Chemscore.Hbonds>
donor molecule, donor type, donor heavy atom, donor atom, acceptor molecule, acceptor atom, score
      L1  H     5    44       P1  7948  1.00
      L1  H     8    34       P1  7957  0.92
      L1  H    12    45       P1  8028  0.83

> <Gold.Chemscore.Hbond.Weighted>
-9.9317

> <Gold.Chemscore.Metal.Weighted>
-0.0000

> <Gold.Chemscore.Lipo.Weighted>
-9.7175

> <Gold.Chemscore.Internal_Hbond.Weighted>
0.0000

> <Gold.Chemscore.DEClash.Weighted>
0.8744

> <Gold.Chemscore.DEInternal.Weighted>
0.5614

> <Gold.Chemscore.Rot.Weighted>
5.9416

> <Gold.Chemscore.Internal.Correction.Weighted>
   9.000000E+99

> <Gold.Protein.RotatedTorsions>
[ 6907 6896 6895 6894 ] final  115.09 input  -60.11 | X-H torsion
[ 7974 7965 7964 7962 ] final   31.94 input  175.53 | X-H torsion
[ 8008 7997 7996 7995 ] final  -35.92 input   59.86 | X-H torsion
[ 10167 10162 10161 10158 ] final  -63.98 input  -65.29 | X-H torsion
[ 10718 10713 10712 10709 ] final -158.92 input   66.30 | X-H torsion
[ 10763 10752 10751 10750 ] final  121.20 input  -60.55 | X-H torsion
[ 11005 11000 10999 10996 ] final -165.39 input  -57.11 | X-H torsion

> <Gold.Protein.ActiveResidues>
 VAL166  LYS551  ARG553  GLY616  TRP617  ASP618  TYR619  PRO620  LYS621  CYS622 
 ASP623  PHE694  ASN695  SER759  ASP760  ASP761  ALA762  ILE779  LEU786  VAL792 
 PHE793  MET794  SER795  GLU796  ALA797  LYS798  CYS799  TRP800  GLU811  SER814 

> <Gold.Protein.RotatedAtoms>
  152.4762  133.8145  159.7020 H   0  0  0  0  0  0  0  0  0  0  0  0  # atno 6907 bound_to 6896
  150.8781  133.7400  159.2947 H   0  0  0  0  0  0  0  0  0  0  0  0  # atno 6908 bound_to 6896
  151.4913  135.1061  159.9856 H   0  0  0  0  0  0  0  0  0  0  0  0  # atno 6909 bound_to 6896
  146.1518  139.6591  142.9093 H   0  0  0  0  0  0  0  0  0  0  0  0  # atno 7974 bound_to 7965
  154.4084  140.1644  156.2290 H   0  0  0  0  0  0  0  0  0  0  0  0  # atno 8008 bound_to 7997
  155.9298  140.3415  155.6217 H   0  0  0  0  0  0  0  0  0  0  0  0  # atno 8009 bound_to 7997
  155.7120  140.0758  157.2358 H   0  0  0  0  0  0  0  0  0  0  0  0  # atno 8010 bound_to 7997
  140.5833  143.2330  151.6297 H   0  0  0  0  0  0  0  0  0  0  0  0  # atno 10167 bound_to 10162
  156.5609  130.8647  151.2809 H   0  0  0  0  0  0  0  0  0  0  0  0  # atno 10718 bound_to 10713
  153.6104  135.3431  155.2977 H   0  0  0  0  0  0  0  0  0  0  0  0  # atno 10763 bound_to 10752
  154.8619  135.4249  154.2316 H   0  0  0  0  0  0  0  0  0  0  0  0  # atno 10764 bound_to 10752
  153.3165  135.7035  153.7141 H   0  0  0  0  0  0  0  0  0  0  0  0  # atno 10765 bound_to 10752
  140.5762  134.5188  157.5170 H   0  0  0  0  0  0  0  0  0  0  0  0  # atno 11005 bound_to 11000
  145.4804  141.0438  143.2649 LP  0  0  0  0  0  0  0  0  0  0  0  0  # atno 17320 bound_to 7965
  144.7914  139.6321  143.7112 LP  0  0  0  0  0  0  0  0  0  0  0  0  # atno 17321 bound_to 7965
  139.5182  144.3290  152.0843 LP  0  0  0  0  0  0  0  0  0  0  0  0  # atno 17342 bound_to 10162
  140.2444  144.4236  150.6247 LP  0  0  0  0  0  0  0  0  0  0  0  0  # atno 17343 bound_to 10162
  157.7368  130.9786  150.2160 LP  0  0  0  0  0  0  0  0  0  0  0  0  # atno 17370 bound_to 10713
  156.2800  130.3732  149.7945 LP  0  0  0  0  0  0  0  0  0  0  0  0  # atno 17371 bound_to 10713
  139.9338  134.7913  156.0857 LP  0  0  0  0  0  0  0  0  0  0  0  0  # atno 17394 bound_to 11000
  141.1025  133.6672  156.2787 LP  0  0  0  0  0  0  0  0  0  0  0  0  # atno 17395 bound_to 11000

$$$$
