AV-unprocessed.smi:2939|AV-procd|sdf|11261|dock1
  -GOLD-   2272016153D 1   1.00000     0.00000
 Structure written by MMmdl.
 30 31  0  0  0  0  0  0  0  0  2 V2000
  153.1268  139.3755  154.6659 O   0  0  0  0  0  0  0  0  0  0  0  0
  152.5466  138.2885  154.8782 C   0  0  0  0  0  0  0  0  0  0  0  0
  152.0723  137.5335  154.0016 O   0  5  0  0  0  0  0  0  0  0  0  0
  152.4064  137.8425  156.3368 C   0  0  0  0  0  0  0  0  0  0  0  0
  151.7944  138.8600  157.1802 N   0  0  0  0  0  0  0  0  0  0  0  0
  150.4286  139.1702  156.9532 C   0  0  0  0  0  0  0  0  0  0  0  0
  149.7268  138.5238  156.1742 O   0  0  0  0  0  0  0  0  0  0  0  0
  149.9222  140.3067  157.7136 C   0  0  0  0  0  0  0  0  0  0  0  0
  150.7269  140.9981  158.5481 C   0  0  0  0  0  0  0  0  0  0  0  0
  152.0598  140.6879  158.7338 N   0  0  0  0  0  0  0  0  0  0  0  0
  152.9052  141.4464  159.6215 C   0  0  0  0  0  0  0  0  0  0  0  0
  152.5499  142.9206  159.7759 C   0  0  0  0  0  0  0  0  0  0  0  0
  152.2098  143.4185  161.0513 C   0  0  0  0  0  0  0  0  0  0  0  0
  151.8729  144.7759  161.2188 C   0  0  0  0  0  0  0  0  0  0  0  0
  151.8686  145.6429  160.1095 C   0  0  0  0  0  0  0  0  0  0  0  0
  152.1999  145.1512  158.8326 C   0  0  0  0  0  0  0  0  0  0  0  0
  152.5374  143.7940  158.6648 C   0  0  0  0  0  0  0  0  0  0  0  0
  152.6425  139.6033  158.0379 C   0  0  0  0  0  0  0  0  0  0  0  0
  153.8358  139.3218  158.1813 O   0  0  0  0  0  0  0  0  0  0  0  0
  151.8149  136.9285  156.4115 H   0  0  0  0  0  0  0  0  0  0  0  0
  153.3774  137.5803  156.7599 H   0  0  0  0  0  0  0  0  0  0  0  0
  148.8888  140.6001  157.6027 H   0  0  0  0  0  0  0  0  0  0  0  0
  150.3072  141.8349  159.0874 H   0  0  0  0  0  0  0  0  0  0  0  0
  152.8384  140.9573  160.5940 H   0  0  0  0  0  0  0  0  0  0  0  0
  153.9300  141.3082  159.2705 H   0  0  0  0  0  0  0  0  0  0  0  0
  152.2107  142.7601  161.9077 H   0  0  0  0  0  0  0  0  0  0  0  0
  151.6173  145.1516  162.1987 H   0  0  0  0  0  0  0  0  0  0  0  0
  151.6101  146.6836  160.2377 H   0  0  0  0  0  0  0  0  0  0  0  0
  152.1950  145.8148  157.9806 H   0  0  0  0  0  0  0  0  0  0  0  0
  152.7864  143.4310  157.6788 H   0  0  0  0  0  0  0  0  0  0  0  0
  1  2  2  0  0  0  0
  2  3  1  0  0  0  0
  2  4  1  0  0  0  0
  4  5  1  0  0  0  0
  4 20  1  0  0  0  0
  4 21  1  0  0  0  0
  5 18  1  0  0  0  0
  5  6  1  0  0  0  0
  6  7  2  0  0  0  0
  6  8  1  0  0  0  0
  8  9  2  0  0  0  0
  8 22  1  0  0  0  0
  9 10  1  0  0  0  0
  9 23  1  0  0  0  0
 10 11  1  0  0  0  0
 10 18  1  0  0  0  0
 11 12  1  0  0  0  0
 11 24  1  0  0  0  0
 11 25  1  0  0  0  0
 12 17  1  0  0  0  0
 12 13  2  0  0  0  0
 13 14  1  0  0  0  0
 13 26  1  0  0  0  0
 14 15  2  0  0  0  0
 14 27  1  0  0  0  0
 15 16  1  0  0  0  0
 15 28  1  0  0  0  0
 16 17  2  0  0  0  0
 16 29  1  0  0  0  0
 17 30  1  0  0  0  0
 18 19  2  0  0  0  0
M  CHG  1   3  -1
M  END
> <s_m_source_file>
AV-unprocessed.smi

> <i_m_source_file_index>
2939

> <i_lp_mmshare_version>
43012

> <i_f3d_flags>
0

> <s_epik_input>
Tz1DKFtPSF0pW0NIMl1uMWMoPU8pW2NIXVtjSF1uKGMxPU8pW0NIMl1jMltjSF1bY0hdW2NIXVtjSF1bY0hdMg==

> <s_epik_cmdline>
J2VwaWtfcHl0aG9uJywgJy1waCcsICc3LjAnLCAnLXRuJywgJzgnLCAnLW1hJywgJzIwMCcsICctbWV0YWxfYmluZGluZycsICctaW1hZScsICc8aW5maWxlLm1hZT4nLCAnLW9tYWUnLCAnPG91dGZpbGUubWFlPic=

> <r_lp_tautomer_probability>
1

> <r_epik_Ionization_Penalty>
0.00125818

> <r_epik_Ionization_Penalty_Charging>
0.00125818

> <r_epik_Ionization_Penalty_Neutral>
0

> <r_epik_State_Penalty>
0.000832915

> <r_epik_Charging_Adjusted_Penalty>
0.00209109

> <i_epik_Tot_Q>
-1

> <i_epik_Tot_abs_Q>
1

> <r_epik_Metal_State_Penalty>
-0

> <b_epik_Metal_Only>
0

> <s_lp_Force_Field>
OPLS_2005

> <r_lp_Energy>
10.7616

> <b_lp_Chiralities_Consistent>
1

> <s_lp_Variant>
AV-unprocessed.smi:2939-1

> <Gold.Version>
5.8.1

> <Gold.Id.Protein>
6NUR|6NUR_protein|mol2

> <Gold.PLP.Fitness>
55.5634

> <Gold.PLP.PLP>
-42.1859

> <Gold.PLP.part.hbond>
-4.0000

> <Gold.PLP.part.metal>
0.0000

> <Gold.PLP.part.buried>
-4.0465

> <Gold.PLP.part.nonpolar>
-35.3671

> <Gold.PLP.part.repulsive>
0.4036

> <Gold.PLP.ligand.clash>
0.0000

> <Gold.PLP.ligand.torsion>
0.5598

> <Gold.PLP.Chemscore.Hbond>
4.8086

> <Gold.PLP.Chemscore.CHOScore>
0.0000

> <Gold.PLP.Chemscore.Metal>
0.0000

> <Gold.Chemscore.Hbonds>
donor molecule, donor type, donor heavy atom, donor atom, acceptor molecule, acceptor atom, score
      P1  H  7989  7998       L1     1  0.06
      P1  H  7997  8008       L1    19  0.90
      P1  H  7997  8009       L1     1  2.00
      P1  H 10752 10764       L1     3  1.72

> <Gold.PLP.Chemscore.Internal.Correction>
0.0714

> <Gold.Rescore>
     Score         DG    S(hbond)    S(metal)    S(lipo)     H(rot)  DE(clash)    DE(int)     intcor
     19.67     -20.30       2.69        0.00      96.45       2.13       0.05       0.58       ----

> <Gold.Chemscore.Fitness>
19.6653

> <Gold.Chemscore.DG>
-20.3010

> <Gold.Chemscore.ZeroCoef>
-5.4800

> <Gold.Chemscore.Hbond>
2.6901

> <Gold.Chemscore.Metal>
0.0000

> <Gold.Chemscore.Lipo>
96.4465

> <Gold.Chemscore.Internal_Hbond>
0.0000

> <Gold.Chemscore.DEClash>
0.0544

> <Gold.Chemscore.DEInternal>
0.5812

> <Gold.Chemscore.Rot>
2.1282

> <Gold.Chemscore.Internal.Correction>
   9.000000E+99

> <Gold.Chemscore.Hbonds>
donor molecule, donor type, donor heavy atom, donor atom, acceptor molecule, acceptor atom, score
      P1  H  7989  7998       L1     1  0.05
      P1  H  7997  8008       L1    19  0.87
      P1  H  7997  8009       L1     1  0.97
      P1  H 10752 10764       L1     3  0.59

> <Gold.Chemscore.Hbond.Weighted>
-8.9848

> <Gold.Chemscore.Metal.Weighted>
-0.0000

> <Gold.Chemscore.Lipo.Weighted>
-11.2842

> <Gold.Chemscore.Internal_Hbond.Weighted>
0.0000

> <Gold.Chemscore.DEClash.Weighted>
0.0544

> <Gold.Chemscore.DEInternal.Weighted>
0.5812

> <Gold.Chemscore.Rot.Weighted>
5.4481

> <Gold.Chemscore.Internal.Correction.Weighted>
   9.000000E+99

> <Gold.Protein.RotatedTorsions>
[ 6907 6896 6895 6894 ] final   34.62 input  -60.11 | X-H torsion
[ 7974 7965 7964 7962 ] final  153.60 input  175.53 | X-H torsion
[ 8008 7997 7996 7995 ] final -118.79 input   59.86 | X-H torsion
[ 10167 10162 10161 10158 ] final -168.89 input  -65.29 | X-H torsion
[ 10718 10713 10712 10709 ] final  -37.59 input   66.30 | X-H torsion
[ 10763 10752 10751 10750 ] final  -91.78 input  -60.55 | X-H torsion
[ 11005 11000 10999 10996 ] final  149.64 input  -57.11 | X-H torsion

> <Gold.Protein.ActiveResidues>
 VAL166  LYS551  ARG553  GLY616  TRP617  ASP618  TYR619  PRO620  LYS621  CYS622 
 ASP623  PHE694  ASN695  SER759  ASP760  ASP761  ALA762  ILE779  LEU786  VAL792 
 PHE793  MET794  SER795  GLU796  ALA797  LYS798  CYS799  TRP800  GLU811  SER814 

> <Gold.Protein.RotatedAtoms>
  152.1049  134.9316  160.0568 H   0  0  0  0  0  0  0  0  0  0  0  0  # atno 6907 bound_to 6896
  152.0516  133.4016  159.4387 H   0  0  0  0  0  0  0  0  0  0  0  0  # atno 6908 bound_to 6896
  150.6841  134.3222  159.4835 H   0  0  0  0  0  0  0  0  0  0  0  0  # atno 6909 bound_to 6896
  144.8144  139.6822  143.6128 H   0  0  0  0  0  0  0  0  0  0  0  0  # atno 7974 bound_to 7965
  155.1054  140.0396  157.2709 H   0  0  0  0  0  0  0  0  0  0  0  0  # atno 8008 bound_to 7997
  154.6726  140.2615  155.6965 H   0  0  0  0  0  0  0  0  0  0  0  0  # atno 8009 bound_to 7997
  156.2664  140.2794  156.1241 H   0  0  0  0  0  0  0  0  0  0  0  0  # atno 8010 bound_to 7997
  139.5957  144.1118  152.1686 H   0  0  0  0  0  0  0  0  0  0  0  0  # atno 10167 bound_to 10162
  156.3134  130.4255  149.8028 H   0  0  0  0  0  0  0  0  0  0  0  0  # atno 10718 bound_to 10713
  154.6795  135.5255  153.8244 H   0  0  0  0  0  0  0  0  0  0  0  0  # atno 10763 bound_to 10752
  153.0555  135.6549  154.0598 H   0  0  0  0  0  0  0  0  0  0  0  0  # atno 10764 bound_to 10752
  154.0487  135.2971  155.3323 H   0  0  0  0  0  0  0  0  0  0  0  0  # atno 10765 bound_to 10752
  140.1062  134.8953  157.1869 H   0  0  0  0  0  0  0  0  0  0  0  0  # atno 11005 bound_to 11000
  146.2446  139.6071  142.9468 LP  0  0  0  0  0  0  0  0  0  0  0  0  # atno 17320 bound_to 7965
  145.5249  141.0430  143.2415 LP  0  0  0  0  0  0  0  0  0  0  0  0  # atno 17321 bound_to 7965
  140.0703  144.5785  150.7197 LP  0  0  0  0  0  0  0  0  0  0  0  0  # atno 17342 bound_to 10162
  140.7209  143.2588  151.4280 LP  0  0  0  0  0  0  0  0  0  0  0  0  # atno 17343 bound_to 10162
  156.5363  130.8280  151.3254 LP  0  0  0  0  0  0  0  0  0  0  0  0  # atno 17370 bound_to 10713
  157.7396  130.9835  150.2325 LP  0  0  0  0  0  0  0  0  0  0  0  0  # atno 17371 bound_to 10713
  140.3153  134.2978  155.7258 LP  0  0  0  0  0  0  0  0  0  0  0  0  # atno 17394 bound_to 11000
  141.2119  133.7675  156.9834 LP  0  0  0  0  0  0  0  0  0  0  0  0  # atno 17395 bound_to 11000

$$$$
