AV-unprocessed.smi:1437|AV-procd|sdf|5866|dock1
  -GOLD-   22720 5543D 1   1.00000     0.00000
 Structure written by MMmdl.
 35 36  0  0  0  0  0  0  0  0  3 V2000
  153.6770  140.5475  160.1102 C   0  0  0  0  0  0  0  0  0  0  0  0
  152.7905  140.7550  158.9300 C   0  0  0  0  0  0  0  0  0  0  0  0
  151.9379  141.7620  158.5759 C   0  0  0  0  0  0  0  0  0  0  0  0
  151.4096  141.3179  157.3328 C   0  0  0  0  0  0  0  0  0  0  0  0
  150.5243  141.9780  156.5705 N   0  5  0  0  0  0  0  0  0  0  0  0
  149.9711  141.3760  155.4933 C   0  0  0  0  0  0  0  0  0  0  0  0
  150.3648  140.3431  154.9473 O   0  0  0  0  0  0  0  0  0  0  0  0
  148.8871  142.0102  155.0247 N   0  0  0  0  0  0  0  0  0  0  0  0
  148.0637  141.5958  153.8894 C   0  0  2  0  0  0  0  0  0  0  0  0
  146.9532  142.6304  153.6345 C   0  0  0  0  0  0  0  0  0  0  0  0
  145.8884  142.6147  154.7472 C   0  0  0  0  0  0  0  0  0  0  0  0
  145.3188  141.2557  154.9258 N   0  3  2  0  0  0  0  0  0  0  0  0
  144.2158  141.2344  155.9101 C   0  0  0  0  0  0  0  0  0  0  0  0
  146.3633  140.2457  155.2281 C   0  0  0  0  0  0  0  0  0  0  0  0
  147.4319  140.2085  154.1216 C   0  0  0  0  0  0  0  0  0  0  0  0
  151.9104  140.1528  156.9577 N   0  0  0  0  0  0  0  0  0  0  0  0
  152.7927  139.7820  157.9795 O   0  0  0  0  0  0  0  0  0  0  0  0
  154.5491  141.1990  160.0558 H   0  0  0  0  0  0  0  0  0  0  0  0
  154.0278  139.5165  160.1620 H   0  0  0  0  0  0  0  0  0  0  0  0
  153.1454  140.7694  161.0355 H   0  0  0  0  0  0  0  0  0  0  0  0
  151.7233  142.6698  159.1196 H   0  0  0  0  0  0  0  0  0  0  0  0
  148.6140  142.8570  155.5014 H   0  0  0  0  0  0  0  0  0  0  0  0
  148.7013  141.5544  153.0046 H   0  0  0  0  0  0  0  0  0  0  0  0
  147.3816  143.6291  153.5393 H   0  0  0  0  0  0  0  0  0  0  0  0
  146.4742  142.4146  152.6786 H   0  0  0  0  0  0  0  0  0  0  0  0
  146.3190  142.9574  155.6895 H   0  0  0  0  0  0  0  0  0  0  0  0
  145.0901  143.3134  154.4939 H   0  0  0  0  0  0  0  0  0  0  0  0
  144.5738  141.5070  156.9038 H   0  0  0  0  0  0  0  0  0  0  0  0
  143.7700  140.2409  155.9674 H   0  0  0  0  0  0  0  0  0  0  0  0
  143.4304  141.9350  155.6244 H   0  0  0  0  0  0  0  0  0  0  0  0
  146.8231  140.4685  156.1925 H   0  0  0  0  0  0  0  0  0  0  0  0
  145.9030  139.2613  155.3191 H   0  0  0  0  0  0  0  0  0  0  0  0
  146.9725  139.8655  153.1936 H   0  0  0  0  0  0  0  0  0  0  0  0
  148.1974  139.4716  154.3670 H   0  0  0  0  0  0  0  0  0  0  0  0
  144.9163  140.9945  154.0371 H   0  0  0  0  0  0  0  0  0  0  0  0
  1  2  1  0  0  0  0
  1 18  1  0  0  0  0
  1 19  1  0  0  0  0
  1 20  1  0  0  0  0
  2 17  1  0  0  0  0
  2  3  2  0  0  0  0
  3  4  1  0  0  0  0
  3 21  1  0  0  0  0
  4  5  1  0  0  0  0
  4 16  2  0  0  0  0
  5  6  1  0  0  0  0
  6  7  2  0  0  0  0
  6  8  1  0  0  0  0
  8  9  1  0  0  0  0
  8 22  1  0  0  0  0
  9 15  1  0  0  0  0
  9 10  1  0  0  0  0
  9 23  1  0  0  0  0
 10 11  1  0  0  0  0
 10 24  1  0  0  0  0
 10 25  1  0  0  0  0
 11 12  1  0  0  0  0
 11 26  1  0  0  0  0
 11 27  1  0  0  0  0
 12 13  1  0  0  0  0
 12 14  1  0  0  0  0
 12 35  1  0  0  0  0
 13 28  1  0  0  0  0
 13 29  1  0  0  0  0
 13 30  1  0  0  0  0
 14 15  1  0  0  0  0
 14 31  1  0  0  0  0
 14 32  1  0  0  0  0
 15 33  1  0  0  0  0
 15 34  1  0  0  0  0
 16 17  1  0  0  0  0
M  CHG  1   5  -1
M  CHG  1  12   1
M  END
> <s_m_source_file>
AV-unprocessed.smi

> <i_m_source_file_index>
1437

> <i_lp_mmshare_version>
43012

> <i_f3d_flags>
0

> <s_epik_input>
W0NIM11jMVtjSF1jKG5vMSlbTkhdQyg9TylbTkhdW0NIXTJbQ0gyXVtDSDJdTihbQ0gzXSlbQ0gyXVtDSDJdMg==

> <s_epik_cmdline>
J2VwaWtfcHl0aG9uJywgJy1waCcsICc3LjAnLCAnLXRuJywgJzgnLCAnLW1hJywgJzIwMCcsICctbWV0YWxfYmluZGluZycsICctaW1hZScsICc8aW5maWxlLm1hZT4nLCAnLW9tYWUnLCAnPG91dGZpbGUubWFlPic=

> <r_epik_Ionization_Penalty>
6.28535

> <r_epik_Ionization_Penalty_Charging>
6.28525

> <r_epik_Ionization_Penalty_Neutral>
9.66055e-05

> <r_epik_State_Penalty>
6.28414

> <r_epik_Charging_Adjusted_Penalty>
12.5694

> <i_epik_Tot_Q>
0

> <i_epik_Tot_abs_Q>
2

> <r_epik_Metal_State_Penalty>
2.21724

> <b_epik_Metal_Only>
1

> <s_lp_Force_Field>
OPLS_2005

> <r_lp_Energy>
2.0091

> <b_lp_Chiralities_Consistent>
1

> <s_lp_Variant>
AV-unprocessed.smi:1437-4

> <Gold.Version>
5.8.1

> <Gold.Id.Protein>
6NUR|6NUR_protein|mol2

> <Gold.PLP.Fitness>
42.0841

> <Gold.PLP.PLP>
-28.2498

> <Gold.PLP.part.hbond>
-4.0000

> <Gold.PLP.part.metal>
0.0000

> <Gold.PLP.part.buried>
-6.3530

> <Gold.PLP.part.nonpolar>
-18.4210

> <Gold.PLP.part.repulsive>
0.3561

> <Gold.PLP.ligand.clash>
0.0000

> <Gold.PLP.ligand.torsion>
0.0739

> <Gold.PLP.Chemscore.Hbond>
4.6560

> <Gold.PLP.Chemscore.CHOScore>
0.0000

> <Gold.PLP.Chemscore.Metal>
0.0000

> <Gold.Chemscore.Hbonds>
donor molecule, donor type, donor heavy atom, donor atom, acceptor molecule, acceptor atom, score
      L1  H     8    22       P1  8028  0.93
      L1  H    12    35       P1 10175  1.95
      P1  H  7989  7998       L1     7  1.00
      P1  H  7997  8008       L1    17  0.89

> <Gold.PLP.Chemscore.Internal.Correction>
0.0141

> <Gold.Rescore>
     Score         DG    S(hbond)    S(metal)    S(lipo)     H(rot)  DE(clash)    DE(int)     intcor
     17.32     -19.35       3.04        0.00      53.57       1.00       0.21       1.81       ----

> <Gold.Chemscore.Fitness>
17.3200

> <Gold.Chemscore.DG>
-19.3453

> <Gold.Chemscore.ZeroCoef>
-5.4800

> <Gold.Chemscore.Hbond>
3.0411

> <Gold.Chemscore.Metal>
0.0000

> <Gold.Chemscore.Lipo>
53.5720

> <Gold.Chemscore.Internal_Hbond>
0.0000

> <Gold.Chemscore.DEClash>
0.2112

> <Gold.Chemscore.DEInternal>
1.8141

> <Gold.Chemscore.Rot>
1.0000

> <Gold.Chemscore.Internal.Correction>
   9.000000E+99

> <Gold.Chemscore.Hbonds>
donor molecule, donor type, donor heavy atom, donor atom, acceptor molecule, acceptor atom, score
      L1  H     8    22       P1  8028  0.89
      L1  H    12    35       P1 10175  0.80
      P1  H  7989  7998       L1     7  0.57
      P1  H  7997  8008       L1    17  0.10

> <Gold.Chemscore.Hbond.Weighted>
-10.1573

> <Gold.Chemscore.Metal.Weighted>
-0.0000

> <Gold.Chemscore.Lipo.Weighted>
-6.2679

> <Gold.Chemscore.Internal_Hbond.Weighted>
0.0000

> <Gold.Chemscore.DEClash.Weighted>
0.2112

> <Gold.Chemscore.DEInternal.Weighted>
1.8141

> <Gold.Chemscore.Rot.Weighted>
2.5600

> <Gold.Chemscore.Internal.Correction.Weighted>
   9.000000E+99

> <Gold.Protein.RotatedTorsions>
[ 6907 6896 6895 6894 ] final   50.29 input  -60.11 | X-H torsion
[ 7974 7965 7964 7962 ] final   84.44 input  175.53 | X-H torsion
[ 8008 7997 7996 7995 ] final  -91.03 input   59.86 | X-H torsion
[ 10167 10162 10161 10158 ] final  -69.35 input  -65.29 | X-H torsion
[ 10718 10713 10712 10709 ] final  -23.06 input   66.30 | X-H torsion
[ 10763 10752 10751 10750 ] final  107.39 input  -60.55 | X-H torsion
[ 11005 11000 10999 10996 ] final  127.87 input  -57.11 | X-H torsion

> <Gold.Protein.ActiveResidues>
 VAL166  LYS551  ARG553  GLY616  TRP617  ASP618  TYR619  PRO620  LYS621  CYS622 
 ASP623  PHE694  ASN695  SER759  ASP760  ASP761  ALA762  ILE779  LEU786  VAL792 
 PHE793  MET794  SER795  GLU796  ALA797  LYS798  CYS799  TRP800  GLU811  SER814 

> <Gold.Protein.RotatedAtoms>
  152.3002  134.7619  160.0359 H   0  0  0  0  0  0  0  0  0  0  0  0  # atno 6907 bound_to 6896
  151.8135  133.3379  159.3570 H   0  0  0  0  0  0  0  0  0  0  0  0  # atno 6908 bound_to 6896
  150.7270  134.5571  159.5868 H   0  0  0  0  0  0  0  0  0  0  0  0  # atno 6909 bound_to 6896
  145.5987  139.2349  143.2258 H   0  0  0  0  0  0  0  0  0  0  0  0  # atno 7974 bound_to 7965
  154.7058  140.0524  157.0502 H   0  0  0  0  0  0  0  0  0  0  0  0  # atno 8008 bound_to 7997
  155.0622  140.3190  155.4638 H   0  0  0  0  0  0  0  0  0  0  0  0  # atno 8009 bound_to 7997
  156.2774  140.2096  156.5749 H   0  0  0  0  0  0  0  0  0  0  0  0  # atno 8010 bound_to 7997
  140.5437  143.2314  151.7042 H   0  0  0  0  0  0  0  0  0  0  0  0  # atno 10167 bound_to 10162
  156.4961  130.4577  149.6727 H   0  0  0  0  0  0  0  0  0  0  0  0  # atno 10718 bound_to 10713
  153.4060  135.3846  155.2019 H   0  0  0  0  0  0  0  0  0  0  0  0  # atno 10763 bound_to 10752
  154.8733  135.3783  154.4559 H   0  0  0  0  0  0  0  0  0  0  0  0  # atno 10764 bound_to 10752
  153.5062  135.7088  153.5867 H   0  0  0  0  0  0  0  0  0  0  0  0  # atno 10765 bound_to 10752
  139.9530  134.9618  156.8918 H   0  0  0  0  0  0  0  0  0  0  0  0  # atno 11005 bound_to 11000
  146.1593  140.6812  142.9285 LP  0  0  0  0  0  0  0  0  0  0  0  0  # atno 17320 bound_to 7965
  144.7319  140.4698  143.6931 LP  0  0  0  0  0  0  0  0  0  0  0  0  # atno 17321 bound_to 7965
  139.4999  144.3928  152.0262 LP  0  0  0  0  0  0  0  0  0  0  0  0  # atno 17342 bound_to 10162
  140.3039  144.3615  150.6052 LP  0  0  0  0  0  0  0  0  0  0  0  0  # atno 17343 bound_to 10162
  156.3378  130.7366  151.2306 LP  0  0  0  0  0  0  0  0  0  0  0  0  # atno 17370 bound_to 10713
  157.7468  131.0412  150.4634 LP  0  0  0  0  0  0  0  0  0  0  0  0  # atno 17371 bound_to 10713
  140.5674  134.0476  155.7419 LP  0  0  0  0  0  0  0  0  0  0  0  0  # atno 17394 bound_to 11000
  141.1197  133.9482  157.2754 LP  0  0  0  0  0  0  0  0  0  0  0  0  # atno 17395 bound_to 11000

$$$$
