AV-unprocessed.smi:1641|AV-procd|sdf|6558|dock3
  -GOLD-   22720 7243D 1   1.00000     0.00000
 Structure written by MMmdl.
 41 42  0  0  0  0  0  0  0  0  1 V2000
  141.4445  145.2522  161.6008 C   0  0  0  0  0  0  0  0  0  0  0  0
  142.5334  145.1125  160.5927 C   0  0  0  0  0  0  0  0  0  0  0  0
  142.4801  145.6924  159.3874 N   0  0  0  0  0  0  0  0  0  0  0  0
  143.6072  145.4227  158.6234 N   0  0  0  0  0  0  0  0  0  0  0  0
  144.4795  144.6435  159.2777 C   0  0  0  0  0  0  0  0  0  0  0  0
  145.7173  144.2123  158.7318 N   0  0  0  0  0  0  0  0  0  0  0  0
  146.3639  143.0532  158.9463 C   0  0  0  0  0  0  0  0  0  0  0  0
  145.9608  142.1364  159.6625 O   0  0  0  0  0  0  0  0  0  0  0  0
  147.5222  143.0134  158.2712 N   0  0  0  0  0  0  0  0  0  0  0  0
  148.4797  141.9117  158.2986 C   0  0  0  0  0  0  0  0  0  0  0  0
  149.8095  142.2956  157.6190 C   0  0  0  0  0  0  0  0  0  0  0  0
  150.8331  142.8453  158.5073 N   0  0  0  0  0  0  0  0  0  0  0  0
  151.7943  141.8409  158.9514 C   0  0  0  0  0  0  0  0  0  0  0  0
  152.8291  142.4341  159.9240 C   0  0  1  0  0  0  0  0  0  0  0  0
  153.8932  141.4091  160.3290 C   0  0  0  0  0  0  0  0  0  0  0  0
  153.4866  143.5381  159.3032 O   0  0  0  0  0  0  0  0  0  0  0  0
  152.6214  144.5586  158.8015 C   0  0  2  0  0  0  0  0  0  0  0  0
  152.0231  145.4076  159.9364 C   0  0  0  0  0  0  0  0  0  0  0  0
  151.5546  143.9428  157.8745 C   0  0  0  0  0  0  0  0  0  0  0  0
  143.9857  144.1657  160.8928 S   0  0  0  0  0  0  0  0  0  0  0  0
  141.0399  146.2647  161.5838 H   0  0  0  0  0  0  0  0  0  0  0  0
  141.8269  145.0481  162.6012 H   0  0  0  0  0  0  0  0  0  0  0  0
  140.6414  144.5488  161.3816 H   0  0  0  0  0  0  0  0  0  0  0  0
  146.1635  144.8641  158.1037 H   0  0  0  0  0  0  0  0  0  0  0  0
  147.7690  143.8123  157.7057 H   0  0  0  0  0  0  0  0  0  0  0  0
  148.6299  141.5423  159.3133 H   0  0  0  0  0  0  0  0  0  0  0  0
  148.0315  141.0838  157.7488 H   0  0  0  0  0  0  0  0  0  0  0  0
  150.2117  141.4242  157.1003 H   0  0  0  0  0  0  0  0  0  0  0  0
  149.5838  143.0245  156.8392 H   0  0  0  0  0  0  0  0  0  0  0  0
  151.2831  141.0186  159.4499 H   0  0  0  0  0  0  0  0  0  0  0  0
  152.3054  141.4118  158.0881 H   0  0  0  0  0  0  0  0  0  0  0  0
  152.3227  142.7753  160.8276 H   0  0  0  0  0  0  0  0  0  0  0  0
  153.4406  140.5508  160.8262 H   0  0  0  0  0  0  0  0  0  0  0  0
  154.6157  141.8486  161.0173 H   0  0  0  0  0  0  0  0  0  0  0  0
  154.4400  141.0433  159.4593 H   0  0  0  0  0  0  0  0  0  0  0  0
  153.2451  145.2220  158.2015 H   0  0  0  0  0  0  0  0  0  0  0  0
  151.4579  146.2483  159.5341 H   0  0  0  0  0  0  0  0  0  0  0  0
  152.8087  145.8126  160.5745 H   0  0  0  0  0  0  0  0  0  0  0  0
  151.3443  144.8323  160.5659 H   0  0  0  0  0  0  0  0  0  0  0  0
  152.0400  143.5809  156.9666 H   0  0  0  0  0  0  0  0  0  0  0  0
  150.8553  144.7183  157.5599 H   0  0  0  0  0  0  0  0  0  0  0  0
  1  2  1  0  0  0  0
  1 21  1  0  0  0  0
  1 22  1  0  0  0  0
  1 23  1  0  0  0  0
  2 20  1  0  0  0  0
  2  3  2  0  0  0  0
  3  4  1  0  0  0  0
  4  5  2  0  0  0  0
  5  6  1  0  0  0  0
  5 20  1  0  0  0  0
  6  7  1  0  0  0  0
  6 24  1  0  0  0  0
  7  8  2  0  0  0  0
  7  9  1  0  0  0  0
  9 10  1  0  0  0  0
  9 25  1  0  0  0  0
 10 11  1  0  0  0  0
 10 26  1  0  0  0  0
 10 27  1  0  0  0  0
 11 12  1  0  0  0  0
 11 28  1  0  0  0  0
 11 29  1  0  0  0  0
 12 19  1  0  0  0  0
 12 13  1  0  0  0  0
 13 14  1  0  0  0  0
 13 30  1  0  0  0  0
 13 31  1  0  0  0  0
 14 15  1  0  0  0  0
 14 16  1  0  0  0  0
 14 32  1  0  0  0  0
 15 33  1  0  0  0  0
 15 34  1  0  0  0  0
 15 35  1  0  0  0  0
 16 17  1  0  0  0  0
 17 18  1  0  0  0  0
 17 19  1  0  0  0  0
 17 36  1  0  0  0  0
 18 37  1  0  0  0  0
 18 38  1  0  0  0  0
 18 39  1  0  0  0  0
 19 40  1  0  0  0  0
 19 41  1  0  0  0  0
M  END
> <s_m_source_file>
AV-unprocessed.smi

> <i_m_source_file_index>
1641

> <i_lp_mmshare_version>
43012

> <i_f3d_flags>
0

> <s_epik_input>
W0NIM11jMW5uYyhzMSlbTkhdQyg9TylbTkhdW0NIMl1bQ0gyXU4yW0NIMl1bQ0BASF0oW0NIM10pT1tDQEBIXShbQ0gzXSlbQ0gyXTI=

> <s_epik_cmdline>
J2VwaWtfcHl0aG9uJywgJy1waCcsICc3LjAnLCAnLXRuJywgJzgnLCAnLW1hJywgJzIwMCcsICctbWV0YWxfYmluZGluZycsICctaW1hZScsICc8aW5maWxlLm1hZT4nLCAnLW9tYWUnLCAnPG91dGZpbGUubWFlPic=

> <r_lp_tautomer_probability>
1

> <r_epik_Ionization_Penalty>
0.221104

> <r_epik_Ionization_Penalty_Charging>
0

> <r_epik_Ionization_Penalty_Neutral>
0.221104

> <r_epik_State_Penalty>
0.209349

> <r_epik_Charging_Adjusted_Penalty>
0.209349

> <i_epik_Tot_Q>
0

> <i_epik_Tot_abs_Q>
0

> <r_epik_Metal_State_Penalty>
0.560954

> <b_epik_Metal_Only>
0

> <s_lp_Force_Field>
OPLS_2005

> <r_lp_Energy>
25.2137

> <b_lp_Chiralities_Consistent>
1

> <s_lp_Variant>
AV-unprocessed.smi:1641-3

> <Gold.Version>
5.8.1

> <Gold.Id.Protein>
6NUR|6NUR_protein|mol2

> <Gold.PLP.Fitness>
38.2492

> <Gold.PLP.PLP>
-33.5707

> <Gold.PLP.part.hbond>
-3.1145

> <Gold.PLP.part.metal>
0.0000

> <Gold.PLP.part.buried>
-3.4069

> <Gold.PLP.part.nonpolar>
-28.1798

> <Gold.PLP.part.repulsive>
0.2766

> <Gold.PLP.ligand.clash>
0.0000

> <Gold.PLP.ligand.torsion>
1.0038

> <Gold.PLP.Chemscore.Hbond>
2.2236

> <Gold.PLP.Chemscore.CHOScore>
0.0000

> <Gold.PLP.Chemscore.Metal>
0.0000

> <Gold.Chemscore.Hbonds>
donor molecule, donor type, donor heavy atom, donor atom, acceptor molecule, acceptor atom, score
      L1  H     6    24       P1  8029  0.68
      L1  H     9    25       P1  8029  0.27
      P1  H  6934  6946       L1     8  1.00

> <Gold.PLP.Chemscore.Internal.Correction>
0.0152

> <Gold.Rescore>
     Score         DG    S(hbond)    S(metal)    S(lipo)     H(rot)  DE(clash)    DE(int)     intcor
     17.98     -19.06       1.91        0.00      96.43       1.60       0.07       1.01       ----

> <Gold.Chemscore.Fitness>
17.9820

> <Gold.Chemscore.DG>
-19.0589

> <Gold.Chemscore.ZeroCoef>
-5.4800

> <Gold.Chemscore.Hbond>
1.9120

> <Gold.Chemscore.Metal>
0.0000

> <Gold.Chemscore.Lipo>
96.4317

> <Gold.Chemscore.Internal_Hbond>
0.0000

> <Gold.Chemscore.DEClash>
0.0696

> <Gold.Chemscore.DEInternal>
1.0073

> <Gold.Chemscore.Rot>
1.5975

> <Gold.Chemscore.Internal.Correction>
   9.000000E+99

> <Gold.Chemscore.Hbonds>
donor molecule, donor type, donor heavy atom, donor atom, acceptor molecule, acceptor atom, score
      L1  H     6    24       P1  8029  0.53
      L1  H     9    25       P1  8029  0.01
      P1  H  6934  6946       L1     8  1.00

> <Gold.Chemscore.Hbond.Weighted>
-6.3859

> <Gold.Chemscore.Metal.Weighted>
-0.0000

> <Gold.Chemscore.Lipo.Weighted>
-11.2825

> <Gold.Chemscore.Internal_Hbond.Weighted>
0.0000

> <Gold.Chemscore.DEClash.Weighted>
0.0696

> <Gold.Chemscore.DEInternal.Weighted>
1.0073

> <Gold.Chemscore.Rot.Weighted>
4.0896

> <Gold.Chemscore.Internal.Correction.Weighted>
   9.000000E+99

> <Gold.Protein.RotatedTorsions>
[ 6907 6896 6895 6894 ] final -159.65 input  -60.11 | X-H torsion
[ 7974 7965 7964 7962 ] final  125.93 input  175.53 | X-H torsion
[ 8008 7997 7996 7995 ] final   96.38 input   59.86 | X-H torsion
[ 10167 10162 10161 10158 ] final  -16.76 input  -65.29 | X-H torsion
[ 10718 10713 10712 10709 ] final -141.22 input   66.30 | X-H torsion
[ 10763 10752 10751 10750 ] final -123.94 input  -60.55 | X-H torsion
[ 11005 11000 10999 10996 ] final   -3.54 input  -57.11 | X-H torsion

> <Gold.Protein.ActiveResidues>
 VAL166  LYS551  ARG553  GLY616  TRP617  ASP618  TYR619  PRO620  LYS621  CYS622 
 ASP623  PHE694  ASN695  SER759  ASP760  ASP761  ALA762  ILE779  LEU786  VAL792 
 PHE793  MET794  SER795  GLU796  ALA797  LYS798  CYS799  TRP800  GLU811  SER814 

> <Gold.Protein.RotatedAtoms>
  151.3368  133.3978  159.2667 H   0  0  0  0  0  0  0  0  0  0  0  0  # atno 6907 bound_to 6896
  150.9910  134.9246  159.7910 H   0  0  0  0  0  0  0  0  0  0  0  0  # atno 6908 bound_to 6896
  152.5247  134.3333  159.9243 H   0  0  0  0  0  0  0  0  0  0  0  0  # atno 6909 bound_to 6896
  145.0675  139.3756  143.4974 H   0  0  0  0  0  0  0  0  0  0  0  0  # atno 7974 bound_to 7965
  156.0790  140.3273  155.7670 H   0  0  0  0  0  0  0  0  0  0  0  0  # atno 8008 bound_to 7997
  155.5183  140.0583  157.2928 H   0  0  0  0  0  0  0  0  0  0  0  0  # atno 8009 bound_to 7997
  154.4572  140.1948  156.0364 H   0  0  0  0  0  0  0  0  0  0  0  0  # atno 8010 bound_to 7997
  140.7238  143.5083  150.9781 H   0  0  0  0  0  0  0  0  0  0  0  0  # atno 10167 bound_to 10162
  156.3315  130.7588  151.1707 H   0  0  0  0  0  0  0  0  0  0  0  0  # atno 10718 bound_to 10713
  154.8716  135.4081  154.3025 H   0  0  0  0  0  0  0  0  0  0  0  0  # atno 10763 bound_to 10752
  153.3882  135.7014  153.6520 H   0  0  0  0  0  0  0  0  0  0  0  0  # atno 10764 bound_to 10752
  153.5313  135.3667  155.2648 H   0  0  0  0  0  0  0  0  0  0  0  0  # atno 10765 bound_to 10752
  140.6704  133.9241  155.8491 H   0  0  0  0  0  0  0  0  0  0  0  0  # atno 11005 bound_to 11000
  146.3527  140.0403  142.8643 LP  0  0  0  0  0  0  0  0  0  0  0  0  # atno 17320 bound_to 7965
  145.1333  140.9530  143.4531 LP  0  0  0  0  0  0  0  0  0  0  0  0  # atno 17321 bound_to 7965
  139.8796  143.7089  152.3158 LP  0  0  0  0  0  0  0  0  0  0  0  0  # atno 17342 bound_to 10162
  139.7366  144.7570  151.0717 LP  0  0  0  0  0  0  0  0  0  0  0  0  # atno 17343 bound_to 10162
  157.7431  131.0480  150.4972 LP  0  0  0  0  0  0  0  0  0  0  0  0  # atno 17370 bound_to 10713
  156.5139  130.4146  149.6286 LP  0  0  0  0  0  0  0  0  0  0  0  0  # atno 17371 bound_to 10713
  141.0396  134.0640  157.3918 LP  0  0  0  0  0  0  0  0  0  0  0  0  # atno 17394 bound_to 11000
  139.8983  135.0154  156.7143 LP  0  0  0  0  0  0  0  0  0  0  0  0  # atno 17395 bound_to 11000

$$$$
