AV-unprocessed.smi:308|AV-procd|sdf|2289|dock10
  -GOLD-   2262022193D 1   1.00000     0.00000
 Structure written by MMmdl.
 50 51  0  0  0  0  0  0  0  0  4 V2000
  145.4104  132.8233  151.1286 C   0  0  0  0  0  0  0  0  0  0  0  0
  145.2830  134.2046  151.7867 C   0  0  2  0  0  0  0  0  0  0  0  0
  145.5228  135.3397  150.7766 C   0  0  0  0  0  0  0  0  0  0  0  0
  145.4252  136.7173  151.4521 C   0  0  0  0  0  0  0  0  0  0  0  0
  146.3805  136.8228  152.5881 N   0  3  1  0  0  0  0  0  0  0  0  0
  146.4598  138.1854  153.1805 C   0  0  0  0  0  0  0  0  0  0  0  0
  147.4877  138.2571  154.3299 C   0  0  0  0  0  0  0  0  0  0  0  0
  148.7278  138.8909  153.8724 N   0  5  0  0  0  0  0  0  0  0  0  0
  149.2742  140.0141  154.4113 C   0  0  0  0  0  0  0  0  0  0  0  0
  149.3764  141.1272  153.8842 O   0  0  0  0  0  0  0  0  0  0  0  0
  149.7398  139.8007  155.6550 N   0  0  0  0  0  0  0  0  0  0  0  0
  150.3804  140.7032  156.5469 C   0  0  0  0  0  0  0  0  0  0  0  0
  150.8627  140.1853  157.7661 C   0  0  0  0  0  0  0  0  0  0  0  0
  151.4904  141.0413  158.6935 C   0  0  0  0  0  0  0  0  0  0  0  0
  151.6249  142.4205  158.4003 C   0  0  0  0  0  0  0  0  0  0  0  0
  152.2408  143.3401  159.2765 N   0  0  0  0  0  0  0  0  0  0  0  0
  152.3465  144.7436  158.8938 C   0  0  0  0  0  0  0  0  0  0  0  0
  152.8810  142.8611  160.4945 C   0  0  0  0  0  0  0  0  0  0  0  0
  151.1312  142.8747  157.2222 N   0  3  0  0  0  0  0  0  0  0  0  0
  150.5243  142.0899  156.3057 C   0  0  0  0  0  0  0  0  0  0  0  0
  146.1465  135.7621  153.6010 C   0  0  0  0  0  0  0  0  0  0  0  0
  146.2529  134.3633  152.9703 C   0  0  0  0  0  0  0  0  0  0  0  0
  146.4134  132.6628  150.7318 H   0  0  0  0  0  0  0  0  0  0  0  0
  144.7051  132.7148  150.3039 H   0  0  0  0  0  0  0  0  0  0  0  0
  145.2045  132.0271  151.8445 H   0  0  0  0  0  0  0  0  0  0  0  0
  144.2645  134.2981  152.1665 H   0  0  0  0  0  0  0  0  0  0  0  0
  146.5072  135.2290  150.3195 H   0  0  0  0  0  0  0  0  0  0  0  0
  144.7968  135.2777  149.9651 H   0  0  0  0  0  0  0  0  0  0  0  0
  145.6340  137.4932  150.7149 H   0  0  0  0  0  0  0  0  0  0  0  0
  144.4094  136.8885  151.8119 H   0  0  0  0  0  0  0  0  0  0  0  0
  146.7029  138.9169  152.4087 H   0  0  0  0  0  0  0  0  0  0  0  0
  145.4860  138.4864  153.5702 H   0  0  0  0  0  0  0  0  0  0  0  0
  147.0484  138.8164  155.1559 H   0  0  0  0  0  0  0  0  0  0  0  0
  147.6578  137.2532  154.7201 H   0  0  0  0  0  0  0  0  0  0  0  0
  149.6869  138.8437  155.9720 H   0  0  0  0  0  0  0  0  0  0  0  0
  150.7588  139.1337  157.9911 H   0  0  0  0  0  0  0  0  0  0  0  0
  151.8584  140.6220  159.6177 H   0  0  0  0  0  0  0  0  0  0  0  0
  151.3576  145.1720  158.7283 H   0  0  0  0  0  0  0  0  0  0  0  0
  152.9283  144.8473  157.9777 H   0  0  0  0  0  0  0  0  0  0  0  0
  152.8370  145.3306  159.6704 H   0  0  0  0  0  0  0  0  0  0  0  0
  153.6843  142.1630  160.2563 H   0  0  0  0  0  0  0  0  0  0  0  0
  152.1573  142.3559  161.1348 H   0  0  0  0  0  0  0  0  0  0  0  0
  153.3109  143.6833  161.0666 H   0  0  0  0  0  0  0  0  0  0  0  0
  150.1708  142.6091  155.4276 H   0  0  0  0  0  0  0  0  0  0  0  0
  146.8853  135.8488  154.3992 H   0  0  0  0  0  0  0  0  0  0  0  0
  145.1649  135.9011  154.0568 H   0  0  0  0  0  0  0  0  0  0  0  0
  146.0485  133.6045  153.7265 H   0  0  0  0  0  0  0  0  0  0  0  0
  147.2775  134.1958  152.6344 H   0  0  0  0  0  0  0  0  0  0  0  0
  147.3039  136.6495  152.2150 H   0  0  0  0  0  0  0  0  0  0  0  0
  151.2201  143.8693  157.0145 H   0  0  0  0  0  0  0  0  0  0  0  0
  1  2  1  0  0  0  0
  1 23  1  0  0  0  0
  1 24  1  0  0  0  0
  1 25  1  0  0  0  0
  2 22  1  0  0  0  0
  2  3  1  0  0  0  0
  2 26  1  0  0  0  0
  3  4  1  0  0  0  0
  3 27  1  0  0  0  0
  3 28  1  0  0  0  0
  4  5  1  0  0  0  0
  4 29  1  0  0  0  0
  4 30  1  0  0  0  0
  5  6  1  0  0  0  0
  5 21  1  0  0  0  0
  5 49  1  0  0  0  0
  6  7  1  0  0  0  0
  6 31  1  0  0  0  0
  6 32  1  0  0  0  0
  7  8  1  0  0  0  0
  7 33  1  0  0  0  0
  7 34  1  0  0  0  0
  8  9  1  0  0  0  0
  9 10  2  0  0  0  0
  9 11  1  0  0  0  0
 11 12  1  0  0  0  0
 11 35  1  0  0  0  0
 12 20  1  0  0  0  0
 12 13  2  0  0  0  0
 13 14  1  0  0  0  0
 13 36  1  0  0  0  0
 14 15  2  0  0  0  0
 14 37  1  0  0  0  0
 15 16  1  0  0  0  0
 15 19  1  0  0  0  0
 16 17  1  0  0  0  0
 16 18  1  0  0  0  0
 17 38  1  0  0  0  0
 17 39  1  0  0  0  0
 17 40  1  0  0  0  0
 18 41  1  0  0  0  0
 18 42  1  0  0  0  0
 18 43  1  0  0  0  0
 19 20  2  0  0  0  0
 19 50  1  0  0  0  0
 20 44  1  0  0  0  0
 21 22  1  0  0  0  0
 21 45  1  0  0  0  0
 21 46  1  0  0  0  0
 22 47  1  0  0  0  0
 22 48  1  0  0  0  0
M  CHG  1   5   1
M  CHG  1   8  -1
M  CHG  1  19   1
M  END
> <s_m_source_file>
AV-unprocessed.smi

> <i_m_source_file_index>
308

> <i_lp_mmshare_version>
43012

> <i_f3d_flags>
0

> <s_epik_input>
W0NIM11bQ0hdMVtDSDJdW0NIMl1OKFtDSDJdW0NIMl0xKVtDSDJdW0NIMl1bTkhdQyg9TylbTkhdYzJbY0hdW2NIXWMoTihbQ0gzXSlbQ0gzXSluW2NIXTI=

> <s_epik_cmdline>
J2VwaWtfcHl0aG9uJywgJy1waCcsICc3LjAnLCAnLXRuJywgJzgnLCAnLW1hJywgJzIwMCcsICctbWV0YWxfYmluZGluZycsICctaW1hZScsICc8aW5maWxlLm1hZT4nLCAnLW9tYWUnLCAnPG91dGZpbGUubWFlPic=

> <r_lp_tautomer_probability>
0.999994

> <r_epik_Ionization_Penalty>
7.42107

> <r_epik_Ionization_Penalty_Charging>
7.42107

> <r_epik_Ionization_Penalty_Neutral>
3.68925e-06

> <r_epik_State_Penalty>
7.0982

> <r_epik_Charging_Adjusted_Penalty>
14.5193

> <i_epik_Tot_Q>
1

> <i_epik_Tot_abs_Q>
3

> <r_epik_Metal_State_Penalty>
3.28646

> <b_epik_Metal_Only>
1

> <s_lp_Force_Field>
OPLS_2005

> <r_lp_Energy>
19.707

> <b_lp_Chiralities_Consistent>
1

> <s_lp_Variant>
AV-unprocessed.smi:308-5

> <Gold.Version>
5.8.1

> <Gold.Id.Protein>
6NUR|6NUR_protein|mol2

> <Gold.PLP.Fitness>
47.6411

> <Gold.PLP.PLP>
-40.1556

> <Gold.PLP.part.hbond>
-3.0000

> <Gold.PLP.part.metal>
0.0000

> <Gold.PLP.part.buried>
-3.3293

> <Gold.PLP.part.nonpolar>
-34.8219

> <Gold.PLP.part.repulsive>
2.4653

> <Gold.PLP.ligand.clash>
0.0000

> <Gold.PLP.ligand.torsion>
0.9763

> <Gold.PLP.Chemscore.Hbond>
3.1035

> <Gold.PLP.Chemscore.CHOScore>
0.0000

> <Gold.PLP.Chemscore.Metal>
0.0000

> <Gold.Chemscore.Hbonds>
donor molecule, donor type, donor heavy atom, donor atom, acceptor molecule, acceptor atom, score
      L1  H     5    49       P1  7948  2.00
      P1  H  7989  7998       L1    10  0.10
      P1  H  8011  8017       L1    10  0.82

> <Gold.PLP.Chemscore.Internal.Correction>
0.1275

> <Gold.Rescore>
     Score         DG    S(hbond)    S(metal)    S(lipo)     H(rot)  DE(clash)    DE(int)     intcor
     14.99     -18.58       2.09        0.00      83.59       1.42       1.32       2.27       ----

> <Gold.Chemscore.Fitness>
14.9910

> <Gold.Chemscore.DG>
-18.5818

> <Gold.Chemscore.ZeroCoef>
-5.4800

> <Gold.Chemscore.Hbond>
2.0862

> <Gold.Chemscore.Metal>
0.0000

> <Gold.Chemscore.Lipo>
83.5868

> <Gold.Chemscore.Internal_Hbond>
0.0000

> <Gold.Chemscore.DEClash>
1.3203

> <Gold.Chemscore.DEInternal>
2.2705

> <Gold.Chemscore.Rot>
1.4241

> <Gold.Chemscore.Internal.Correction>
   9.000000E+99

> <Gold.Chemscore.Hbonds>
donor molecule, donor type, donor heavy atom, donor atom, acceptor molecule, acceptor atom, score
      L1  H     5    49       P1  7948  1.00
      P1  H  7989  7998       L1    10  0.01
      P1  H  8011  8017       L1    10  0.77

> <Gold.Chemscore.Hbond.Weighted>
-6.9678

> <Gold.Chemscore.Metal.Weighted>
-0.0000

> <Gold.Chemscore.Lipo.Weighted>
-9.7797

> <Gold.Chemscore.Internal_Hbond.Weighted>
0.0000

> <Gold.Chemscore.DEClash.Weighted>
1.3203

> <Gold.Chemscore.DEInternal.Weighted>
2.2705

> <Gold.Chemscore.Rot.Weighted>
3.6456

> <Gold.Chemscore.Internal.Correction.Weighted>
   9.000000E+99

> <Gold.Protein.RotatedTorsions>
[ 6907 6896 6895 6894 ] final  -57.20 input  -60.11 | X-H torsion
[ 7974 7965 7964 7962 ] final   56.12 input  175.53 | X-H torsion
[ 8008 7997 7996 7995 ] final  -58.16 input   59.86 | X-H torsion
[ 10167 10162 10161 10158 ] final   73.25 input  -65.29 | X-H torsion
[ 10718 10713 10712 10709 ] final   -4.55 input   66.30 | X-H torsion
[ 10763 10752 10751 10750 ] final  176.58 input  -60.55 | X-H torsion
[ 11005 11000 10999 10996 ] final  135.51 input  -57.11 | X-H torsion

> <Gold.Protein.ActiveResidues>
 VAL166  LYS551  ARG553  GLY616  TRP617  ASP618  TYR619  PRO620  LYS621  CYS622 
 ASP623  PHE694  ASN695  SER759  ASP760  ASP761  ALA762  ILE779  LEU786  VAL792 
 PHE793  MET794  SER795  GLU796  ALA797  LYS798  CYS799  TRP800  GLU811  SER814 

> <Gold.Protein.RotatedAtoms>
  150.8105  134.7257  159.6683 H   0  0  0  0  0  0  0  0  0  0  0  0  # atno 6907 bound_to 6896
  152.4225  134.5925  159.9988 H   0  0  0  0  0  0  0  0  0  0  0  0  # atno 6908 bound_to 6896
  151.6136  133.3308  159.3109 H   0  0  0  0  0  0  0  0  0  0  0  0  # atno 6909 bound_to 6896
  145.9432  139.3906  143.0351 H   0  0  0  0  0  0  0  0  0  0  0  0  # atno 7974 bound_to 7965
  154.4297  140.1090  156.5913 H   0  0  0  0  0  0  0  0  0  0  0  0  # atno 8008 bound_to 7997
  155.6009  140.3493  155.4574 H   0  0  0  0  0  0  0  0  0  0  0  0  # atno 8009 bound_to 7997
  156.0174  140.1232  157.0382 H   0  0  0  0  0  0  0  0  0  0  0  0  # atno 8010 bound_to 7997
  140.0265  144.5500  150.7541 H   0  0  0  0  0  0  0  0  0  0  0  0  # atno 10167 bound_to 10162
  156.7596  130.5265  149.5787 H   0  0  0  0  0  0  0  0  0  0  0  0  # atno 10718 bound_to 10713
  154.4831  135.2775  155.1555 H   0  0  0  0  0  0  0  0  0  0  0  0  # atno 10763 bound_to 10752
  154.3257  135.6200  153.5532 H   0  0  0  0  0  0  0  0  0  0  0  0  # atno 10764 bound_to 10752
  152.9878  135.5753  154.5236 H   0  0  0  0  0  0  0  0  0  0  0  0  # atno 10765 bound_to 10752
  139.9984  134.9488  157.0017 H   0  0  0  0  0  0  0  0  0  0  0  0  # atno 11005 bound_to 11000
  145.8272  140.9649  143.0868 LP  0  0  0  0  0  0  0  0  0  0  0  0  # atno 17320 bound_to 7965
  144.6782  140.0116  143.7484 LP  0  0  0  0  0  0  0  0  0  0  0  0  # atno 17321 bound_to 7965
  140.7320  143.2701  151.3916 LP  0  0  0  0  0  0  0  0  0  0  0  0  # atno 17342 bound_to 10162
  139.6105  144.1109  152.2293 LP  0  0  0  0  0  0  0  0  0  0  0  0  # atno 17343 bound_to 10162
  156.1347  130.6203  151.0384 LP  0  0  0  0  0  0  0  0  0  0  0  0  # atno 17370 bound_to 10713
  157.6740  131.0855  150.7541 LP  0  0  0  0  0  0  0  0  0  0  0  0  # atno 17371 bound_to 10713
  140.4774  134.1325  155.7212 LP  0  0  0  0  0  0  0  0  0  0  0  0  # atno 17394 bound_to 11000
  141.1623  133.8770  157.1814 LP  0  0  0  0  0  0  0  0  0  0  0  0  # atno 17395 bound_to 11000

$$$$
