AV-unprocessed.smi:34|AV-procd|sdf|224|dock1
  -GOLD-   2262015543D 1   1.00000     0.00000
 Structure written by MMmdl.
 55 59  0  0  0  0  0  0  0  0  1 V2000
  152.9975  140.1865  158.2014 O   0  0  0  0  0  0  0  0  0  0  0  0
  152.1644  141.0408  157.8974 C   0  0  0  0  0  0  0  0  0  0  0  0
  151.1429  140.8023  156.8926 N   0  0  0  0  0  0  0  0  0  0  0  0
  150.9753  139.7092  156.1118 C   0  0  0  0  0  0  0  0  0  0  0  0
  150.9432  139.7794  154.7548 N   0  0  0  0  0  0  0  0  0  0  0  0
  150.7770  138.6708  154.0276 C   0  0  0  0  0  0  0  0  0  0  0  0
  150.6264  137.4131  154.4476 N   0  0  0  0  0  0  0  0  0  0  0  0
  150.6587  137.3333  155.8090 C   0  0  0  0  0  0  0  0  0  0  0  0
  150.8281  138.4272  156.7030 C   0  0  0  0  0  0  0  0  0  0  0  0
  150.8078  137.9699  158.0144 N   0  0  0  0  0  0  0  0  0  0  0  0
  150.6321  136.6810  157.8971 C   0  0  0  0  0  0  0  0  0  0  0  0
  150.5359  136.2131  156.6054 N   0  0  0  0  0  0  0  0  0  0  0  0
  150.3287  134.8036  156.1581 C   0  0  1  0  0  0  0  0  0  0  0  0
  150.1702  134.0132  157.2932 O   0  0  0  0  0  0  0  0  0  0  0  0
  149.2818  132.9542  156.9750 C   0  0  1  0  0  0  0  0  0  0  0  0
  148.7134  132.3152  158.2478 C   0  0  0  0  0  0  0  0  0  0  0  0
  148.2384  133.3386  159.1069 O   0  0  0  0  0  0  0  0  0  0  0  0
  147.8736  133.0449  160.3699 C   0  0  0  0  0  0  0  0  0  0  0  0
  147.7092  131.8952  160.7833 O   0  0  0  0  0  0  0  0  0  0  0  0
  147.6855  134.2587  161.2162 C   0  0  0  0  0  0  0  0  0  0  0  0
  147.7076  135.5365  160.6099 C   0  0  0  0  0  0  0  0  0  0  0  0
  147.5361  136.7007  161.3837 C   0  0  0  0  0  0  0  0  0  0  0  0
  147.3389  136.6015  162.7732 C   0  0  0  0  0  0  0  0  0  0  0  0
  147.3139  135.3362  163.3882 C   0  0  0  0  0  0  0  0  0  0  0  0
  147.4864  134.1708  162.6161 C   0  0  0  0  0  0  0  0  0  0  0  0
  148.2383  133.6348  156.0864 C   0  0  1  0  0  0  0  0  0  0  0  0
  147.3172  134.2570  156.8241 F   0  0  0  0  0  0  0  0  0  0  0  0
  149.0503  134.6661  155.3105 C   0  0  2  0  0  0  0  0  0  0  0  0
  149.3271  134.1757  154.0138 O   0  0  0  0  0  0  0  0  0  0  0  0
  152.0964  142.3636  158.6039 C   0  0  0  0  0  0  0  0  0  0  0  0
  152.5651  142.4807  159.9319 C   0  0  0  0  0  0  0  0  0  0  0  0
  152.5188  143.7210  160.5980 C   0  0  0  0  0  0  0  0  0  0  0  0
  152.0100  144.8561  159.9394 C   0  0  0  0  0  0  0  0  0  0  0  0
  151.5523  144.7514  158.6123 C   0  0  0  0  0  0  0  0  0  0  0  0
  151.5988  143.5119  157.9450 C   0  0  0  0  0  0  0  0  0  0  0  0
  150.4877  141.5557  156.7430 H   0  0  0  0  0  0  0  0  0  0  0  0
  150.7624  138.8115  152.9569 H   0  0  0  0  0  0  0  0  0  0  0  0
  150.5684  136.0310  158.7577 H   0  0  0  0  0  0  0  0  0  0  0  0
  151.2419  134.5327  155.6256 H   0  0  0  0  0  0  0  0  0  0  0  0
  149.8196  132.2093  156.3852 H   0  0  0  0  0  0  0  0  0  0  0  0
  147.9137  131.6163  157.9979 H   0  0  0  0  0  0  0  0  0  0  0  0
  149.4934  131.7554  158.7655 H   0  0  0  0  0  0  0  0  0  0  0  0
  147.8587  135.6378  159.5449 H   0  0  0  0  0  0  0  0  0  0  0  0
  147.5563  137.6710  160.9097 H   0  0  0  0  0  0  0  0  0  0  0  0
  147.2072  137.4944  163.3663 H   0  0  0  0  0  0  0  0  0  0  0  0
  147.1618  135.2585  164.4545 H   0  0  0  0  0  0  0  0  0  0  0  0
  147.4618  133.2157  163.1200 H   0  0  0  0  0  0  0  0  0  0  0  0
  147.7014  132.9295  155.4506 H   0  0  0  0  0  0  0  0  0  0  0  0
  148.5225  135.6179  155.2289 H   0  0  0  0  0  0  0  0  0  0  0  0
  149.0278  134.8113  153.3818 H   0  0  0  0  0  0  0  0  0  0  0  0
  152.9592  141.6190  160.4511 H   0  0  0  0  0  0  0  0  0  0  0  0
  152.8751  143.8011  161.6145 H   0  0  0  0  0  0  0  0  0  0  0  0
  151.9749  145.8071  160.4503 H   0  0  0  0  0  0  0  0  0  0  0  0
  151.1676  145.6233  158.1042 H   0  0  0  0  0  0  0  0  0  0  0  0
  151.2517  143.4569  156.9233 H   0  0  0  0  0  0  0  0  0  0  0  0
  1  2  2  0  0  0  0
  2  3  1  0  0  0  0
  2 30  1  0  0  0  0
  3  4  1  0  0  0  0
  3 36  1  0  0  0  0
  4  9  1  0  0  0  0
  4  5  2  0  0  0  0
  5  6  1  0  0  0  0
  6  7  2  0  0  0  0
  6 37  1  0  0  0  0
  7  8  1  0  0  0  0
  8 12  1  0  0  0  0
  8  9  2  0  0  0  0
  9 10  1  0  0  0  0
 10 11  2  0  0  0  0
 11 12  1  0  0  0  0
 11 38  1  0  0  0  0
 12 13  1  0  0  0  0
 13 28  1  0  0  0  0
 13 14  1  0  0  0  0
 13 39  1  0  0  0  0
 14 15  1  0  0  0  0
 15 16  1  0  0  0  0
 15 26  1  0  0  0  0
 15 40  1  0  0  0  0
 16 17  1  0  0  0  0
 16 41  1  0  0  0  0
 16 42  1  0  0  0  0
 17 18  1  0  0  0  0
 18 19  2  0  0  0  0
 18 20  1  0  0  0  0
 20 25  1  0  0  0  0
 20 21  2  0  0  0  0
 21 22  1  0  0  0  0
 21 43  1  0  0  0  0
 22 23  2  0  0  0  0
 22 44  1  0  0  0  0
 23 24  1  0  0  0  0
 23 45  1  0  0  0  0
 24 25  2  0  0  0  0
 24 46  1  0  0  0  0
 25 47  1  0  0  0  0
 26 27  1  0  0  0  0
 26 28  1  0  0  0  0
 26 48  1  0  0  0  0
 28 29  1  0  0  0  0
 28 49  1  0  0  0  0
 29 50  1  0  0  0  0
 30 35  1  0  0  0  0
 30 31  2  0  0  0  0
 31 32  1  0  0  0  0
 31 51  1  0  0  0  0
 32 33  2  0  0  0  0
 32 52  1  0  0  0  0
 33 34  1  0  0  0  0
 33 53  1  0  0  0  0
 34 35  2  0  0  0  0
 34 54  1  0  0  0  0
 35 55  1  0  0  0  0
M  END
> <s_m_source_file>
AV-unprocessed.smi

> <i_m_source_file_index>
34

> <i_lp_mmshare_version>
43012

> <i_f3d_flags>
0

> <s_epik_input>
W2NIXTFbY0hdW2NIXVtjSF1bY0hdYzFDKD1PKVtOSF1jKG5bY0hdbjIpYyhjMjMpbltjSF1uM1tDQEBIXTRPW0NASF0oW0NAQEhdKEYpW0NASF00W09IXSlbQ0gyXU9DKD1PKWM1W2NIXVtjSF1bY0hdW2NIXVtjSF01

> <s_epik_cmdline>
J2VwaWtfcHl0aG9uJywgJy1waCcsICc3LjAnLCAnLXRuJywgJzgnLCAnLW1hJywgJzIwMCcsICctbWV0YWxfYmluZGluZycsICctaW1hZScsICc8aW5maWxlLm1hZT4nLCAnLW9tYWUnLCAnPG91dGZpbGUubWFlPic=

> <r_lp_tautomer_probability>
1

> <r_epik_Ionization_Penalty>
0.00257489

> <r_epik_Ionization_Penalty_Charging>
0

> <r_epik_Ionization_Penalty_Neutral>
0.00257489

> <r_epik_State_Penalty>
0.00519398

> <r_epik_Charging_Adjusted_Penalty>
0.00519398

> <i_epik_Tot_Q>
0

> <i_epik_Tot_abs_Q>
0

> <r_epik_Metal_State_Penalty>
0.335891

> <b_epik_Metal_Only>
0

> <s_epik_Chemistry_Notes>
This compound has an ester and may undergo hydrolysis at high or low pH. This compound contains an acetal/aminal-like group ( X-CH(R)-Y where X, Y are N, S, or O) that may be acid/base labile, releasing an aldehyde.

> <s_lp_Force_Field>
OPLS_2005

> <r_lp_Energy>
46.9795

> <b_lp_Chiralities_Consistent>
1

> <s_lp_Variant>
AV-unprocessed.smi:34-10

> <Gold.Version>
5.8.1

> <Gold.Id.Protein>
6NUR|6NUR_protein|mol2

> <Gold.PLP.Fitness>
68.6623

> <Gold.PLP.PLP>
-56.4104

> <Gold.PLP.part.hbond>
-4.0000

> <Gold.PLP.part.metal>
0.0000

> <Gold.PLP.part.buried>
-8.3391

> <Gold.PLP.part.nonpolar>
-46.5433

> <Gold.PLP.part.repulsive>
0.3655

> <Gold.PLP.ligand.clash>
0.0000

> <Gold.PLP.ligand.torsion>
1.1269

> <Gold.PLP.Chemscore.Hbond>
3.6785

> <Gold.PLP.Chemscore.CHOScore>
0.9396

> <Gold.PLP.Chemscore.Metal>
0.0000

> <Gold.Chemscore.Hbonds>
donor molecule, donor type, donor heavy atom, donor atom, acceptor molecule, acceptor atom, score
      L1  H    29    50       P1  7948  0.88
      P1  H  6896  6908       L1    14  0.82
      P1  H  7989  7998       L1     5  1.00
      P1  H  7997  8010       L1     1  0.98
      L1  C     6    37       P1  7957  0.96

> <Gold.PLP.Chemscore.Internal.Correction>
0.6513

> <Gold.Rescore>
     Score         DG    S(hbond)    S(metal)    S(lipo)     H(rot)  DE(clash)    DE(int)     intcor
     20.16     -23.25       2.60        0.00     137.12       2.72       0.40       2.70       ----

> <Gold.Chemscore.Fitness>
20.1585

> <Gold.Chemscore.DG>
-23.2511

> <Gold.Chemscore.ZeroCoef>
-5.4800

> <Gold.Chemscore.Hbond>
2.6032

> <Gold.Chemscore.Metal>
0.0000

> <Gold.Chemscore.Lipo>
137.1233

> <Gold.Chemscore.Internal_Hbond>
0.0000

> <Gold.Chemscore.DEClash>
0.3966

> <Gold.Chemscore.DEInternal>
2.6960

> <Gold.Chemscore.Rot>
2.7215

> <Gold.Chemscore.Internal.Correction>
   9.000000E+99

> <Gold.Chemscore.Hbonds>
donor molecule, donor type, donor heavy atom, donor atom, acceptor molecule, acceptor atom, score
      L1  H    29    50       P1  7948  0.16
      P1  H  6896  6908       L1    14  0.57
      P1  H  7989  7998       L1     5  0.26
      P1  H  7997  8010       L1     1  0.81

> <Gold.Chemscore.Hbond.Weighted>
-8.6947

> <Gold.Chemscore.Metal.Weighted>
-0.0000

> <Gold.Chemscore.Lipo.Weighted>
-16.0434

> <Gold.Chemscore.Internal_Hbond.Weighted>
0.0000

> <Gold.Chemscore.DEClash.Weighted>
0.3966

> <Gold.Chemscore.DEInternal.Weighted>
2.6960

> <Gold.Chemscore.Rot.Weighted>
6.9670

> <Gold.Chemscore.Internal.Correction.Weighted>
   9.000000E+99

> <Gold.Protein.RotatedTorsions>
[ 6907 6896 6895 6894 ] final  121.20 input  -60.11 | X-H torsion
[ 7974 7965 7964 7962 ] final -142.91 input  175.53 | X-H torsion
[ 8008 7997 7996 7995 ] final   39.90 input   59.86 | X-H torsion
[ 10167 10162 10161 10158 ] final  159.80 input  -65.29 | X-H torsion
[ 10718 10713 10712 10709 ] final    3.07 input   66.30 | X-H torsion
[ 10763 10752 10751 10750 ] final   51.20 input  -60.55 | X-H torsion
[ 11005 11000 10999 10996 ] final   70.26 input  -57.11 | X-H torsion

> <Gold.Protein.ActiveResidues>
 VAL166  LYS551  ARG553  GLY616  TRP617  ASP618  TYR619  PRO620  LYS621  CYS622 
 ASP623  PHE694  ASN695  SER759  ASP760  ASP761  ALA762  ILE779  LEU786  VAL792 
 PHE793  MET794  SER795  GLU796  ALA797  LYS798  CYS799  TRP800  GLU811  SER814 

> <Gold.Protein.RotatedAtoms>
  152.4340  133.7327  159.6596 H   0  0  0  0  0  0  0  0  0  0  0  0  # atno 6907 bound_to 6896
  150.8221  133.8224  159.3140 H   0  0  0  0  0  0  0  0  0  0  0  0  # atno 6908 bound_to 6896
  151.5903  135.1056  160.0089 H   0  0  0  0  0  0  0  0  0  0  0  0  # atno 6909 bound_to 6896
  144.8408  140.5900  143.5453 H   0  0  0  0  0  0  0  0  0  0  0  0  # atno 7974 bound_to 7965
  155.2442  140.3347  155.4289 H   0  0  0  0  0  0  0  0  0  0  0  0  # atno 8008 bound_to 7997
  156.2243  140.1822  156.7446 H   0  0  0  0  0  0  0  0  0  0  0  0  # atno 8009 bound_to 7997
  154.5874  140.0643  156.9175 H   0  0  0  0  0  0  0  0  0  0  0  0  # atno 8010 bound_to 7997
  139.4835  144.4695  151.8595 H   0  0  0  0  0  0  0  0  0  0  0  0  # atno 10167 bound_to 10162
  156.8723  130.5624  149.5657 H   0  0  0  0  0  0  0  0  0  0  0  0  # atno 10718 bound_to 10713
  152.9785  135.5853  154.4377 H   0  0  0  0  0  0  0  0  0  0  0  0  # atno 10763 bound_to 10752
  154.3982  135.2768  155.2115 H   0  0  0  0  0  0  0  0  0  0  0  0  # atno 10764 bound_to 10752
  154.3957  135.6115  153.5923 H   0  0  0  0  0  0  0  0  0  0  0  0  # atno 10765 bound_to 10752
  139.9608  134.7065  156.0651 H   0  0  0  0  0  0  0  0  0  0  0  0  # atno 11005 bound_to 11000
  145.4698  139.1504  143.3820 LP  0  0  0  0  0  0  0  0  0  0  0  0  # atno 17320 bound_to 7965
  146.2701  140.4831  142.8818 LP  0  0  0  0  0  0  0  0  0  0  0  0  # atno 17321 bound_to 7965
  140.4163  144.2303  150.5887 LP  0  0  0  0  0  0  0  0  0  0  0  0  # atno 17342 bound_to 10162
  140.4917  143.2345  151.8808 LP  0  0  0  0  0  0  0  0  0  0  0  0  # atno 17343 bound_to 10162
  156.0720  130.5750  150.9401 LP  0  0  0  0  0  0  0  0  0  0  0  0  # atno 17370 bound_to 10713
  157.6188  131.0931  150.8660 LP  0  0  0  0  0  0  0  0  0  0  0  0  # atno 17371 bound_to 10713
  141.1284  133.6593  156.3399 LP  0  0  0  0  0  0  0  0  0  0  0  0  # atno 17394 bound_to 11000
  140.5505  134.6032  157.5406 LP  0  0  0  0  0  0  0  0  0  0  0  0  # atno 17395 bound_to 11000

$$$$
