AV-unprocessed.smi:1720|AV-procd|sdf|6931|dock2
  -GOLD-   22720 8143D 1   1.00000     0.00000
 Structure written by MMmdl.
 32 33  0  0  0  0  0  0  0  0  1 V2000
  149.0107  129.9327  154.0427 C   0  0  0  0  0  0  0  0  0  0  0  0
  148.5200  131.3816  153.8988 C   0  0  2  0  0  0  0  0  0  0  0  0
  147.9231  131.5393  152.5741 N   0  0  0  0  0  0  0  0  0  0  0  0
  146.6864  131.9932  152.3235 C   0  0  0  0  0  0  0  0  0  0  0  0
  145.8909  132.3313  153.2002 O   0  0  0  0  0  0  0  0  0  0  0  0
  146.4400  132.0283  151.0038 N   0  0  0  0  0  0  0  0  0  0  0  0
  145.2517  132.4581  150.3606 C   0  0  0  0  0  0  0  0  0  0  0  0
  144.9985  132.3426  148.9668 C   0  0  0  0  0  0  0  0  0  0  0  0
  143.8066  132.8283  148.6498 N   0  0  0  0  0  0  0  0  0  0  0  0
  143.2967  133.2523  149.8283 N   0  0  0  0  0  0  0  0  0  0  0  0
  144.1411  133.0473  150.8970 C   0  0  0  0  0  0  0  0  0  0  0  0
  149.6584  132.4058  154.0881 C   0  0  2  0  0  0  0  0  0  0  0  0
  150.3106  132.3892  155.4713 C   0  0  0  0  0  0  0  0  0  0  0  0
  150.8897  133.7878  155.6114 C   0  0  0  0  0  0  0  0  0  0  0  0
  150.1742  134.5978  154.5271 C   0  0  0  0  0  0  0  0  0  0  0  0
  149.1646  133.7352  154.0223 O   0  0  0  0  0  0  0  0  0  0  0  0
  142.3812  133.6751  149.8864 H   0  0  0  0  0  0  0  0  0  0  0  0
  149.4084  129.7445  155.0400 H   0  0  0  0  0  0  0  0  0  0  0  0
  149.7974  129.7060  153.3223 H   0  0  0  0  0  0  0  0  0  0  0  0
  148.1965  129.2255  153.8810 H   0  0  0  0  0  0  0  0  0  0  0  0
  147.7617  131.5507  154.6654 H   0  0  0  0  0  0  0  0  0  0  0  0
  148.5026  131.2899  151.7865 H   0  0  0  0  0  0  0  0  0  0  0  0
  147.1831  131.7207  150.3940 H   0  0  0  0  0  0  0  0  0  0  0  0
  145.6268  131.9315  148.1904 H   0  0  0  0  0  0  0  0  0  0  0  0
  143.8780  133.3319  151.9051 H   0  0  0  0  0  0  0  0  0  0  0  0
  150.4210  132.2754  153.3176 H   0  0  0  0  0  0  0  0  0  0  0  0
  149.5550  132.2295  156.2417 H   0  0  0  0  0  0  0  0  0  0  0  0
  151.0652  131.6085  155.5733 H   0  0  0  0  0  0  0  0  0  0  0  0
  150.7049  134.1899  156.6079 H   0  0  0  0  0  0  0  0  0  0  0  0
  151.9670  133.7910  155.4418 H   0  0  0  0  0  0  0  0  0  0  0  0
  149.7419  135.5218  154.9114 H   0  0  0  0  0  0  0  0  0  0  0  0
  150.8636  134.8539  153.7214 H   0  0  0  0  0  0  0  0  0  0  0  0
  1  2  1  0  0  0  0
  1 18  1  0  0  0  0
  1 19  1  0  0  0  0
  1 20  1  0  0  0  0
  2  3  1  0  0  0  0
  2 12  1  0  0  0  0
  2 21  1  0  0  0  0
  3  4  1  0  0  0  0
  3 22  1  0  0  0  0
  4  5  2  0  0  0  0
  4  6  1  0  0  0  0
  6  7  1  0  0  0  0
  6 23  1  0  0  0  0
  7 11  2  0  0  0  0
  7  8  1  0  0  0  0
  8  9  2  0  0  0  0
  8 24  1  0  0  0  0
  9 10  1  0  0  0  0
 10 17  1  0  0  0  0
 10 11  1  0  0  0  0
 11 25  1  0  0  0  0
 12 16  1  0  0  0  0
 12 13  1  0  0  0  0
 12 26  1  0  0  0  0
 13 14  1  0  0  0  0
 13 27  1  0  0  0  0
 13 28  1  0  0  0  0
 14 15  1  0  0  0  0
 14 29  1  0  0  0  0
 14 30  1  0  0  0  0
 15 16  1  0  0  0  0
 15 31  1  0  0  0  0
 15 32  1  0  0  0  0
M  END
> <s_m_source_file>
AV-unprocessed.smi

> <i_m_source_file_index>
1720

> <i_lp_mmshare_version>
43012

> <i_f3d_flags>
0

> <s_epik_input>
TzFbQ0gyXVtDSDJdW0NIMl1bQ0BIXTFbQ0BIXShbQ0gzXSlbTkhdQyg9TylbTkhdYzJbY0hdbltuSF1bY0hdMg==

> <s_epik_cmdline>
J2VwaWtfcHl0aG9uJywgJy1waCcsICc3LjAnLCAnLXRuJywgJzgnLCAnLW1hJywgJzIwMCcsICctbWV0YWxfYmluZGluZycsICctaW1hZScsICc8aW5maWxlLm1hZT4nLCAnLW9tYWUnLCAnPG91dGZpbGUubWFlPic=

> <r_lp_tautomer_probability>
1

> <r_epik_Ionization_Penalty>
4.95841e-05

> <r_epik_Ionization_Penalty_Charging>
0

> <r_epik_Ionization_Penalty_Neutral>
4.95841e-05

> <r_epik_State_Penalty>
-0

> <r_epik_Charging_Adjusted_Penalty>
0

> <i_epik_Tot_Q>
0

> <i_epik_Tot_abs_Q>
0

> <r_epik_Metal_State_Penalty>
-0

> <b_epik_Metal_Only>
0

> <s_lp_Force_Field>
OPLS_2005

> <r_lp_Energy>
20.531

> <b_lp_Chiralities_Consistent>
1

> <s_lp_Variant>
AV-unprocessed.smi:1720-1

> <Gold.Version>
5.8.1

> <Gold.Id.Protein>
6NUR|6NUR_protein|mol2

> <Gold.PLP.Fitness>
38.5892

> <Gold.PLP.PLP>
-30.2964

> <Gold.PLP.part.hbond>
-3.7796

> <Gold.PLP.part.metal>
0.0000

> <Gold.PLP.part.buried>
-5.1656

> <Gold.PLP.part.nonpolar>
-21.6074

> <Gold.PLP.part.repulsive>
0.7333

> <Gold.PLP.ligand.clash>
0.0000

> <Gold.PLP.ligand.torsion>
0.0675

> <Gold.PLP.Chemscore.Hbond>
2.8009

> <Gold.PLP.Chemscore.CHOScore>
0.0000

> <Gold.PLP.Chemscore.Metal>
0.0000

> <Gold.Chemscore.Hbonds>
donor molecule, donor type, donor heavy atom, donor atom, acceptor molecule, acceptor atom, score
      L1  H     3    22       P1 10747  1.00
      L1  H     6    23       P1 10747  0.94
      L1  H    10    17       P1 10186  1.00

> <Gold.PLP.Chemscore.Internal.Correction>
0.0250

> <Gold.Rescore>
     Score         DG    S(hbond)    S(metal)    S(lipo)     H(rot)  DE(clash)    DE(int)     intcor
     17.98     -19.19       2.90        0.00      63.10       1.31       0.01       1.19       ----

> <Gold.Chemscore.Fitness>
17.9844

> <Gold.Chemscore.DG>
-19.1875

> <Gold.Chemscore.ZeroCoef>
-5.4800

> <Gold.Chemscore.Hbond>
2.8963

> <Gold.Chemscore.Metal>
0.0000

> <Gold.Chemscore.Lipo>
63.0952

> <Gold.Chemscore.Internal_Hbond>
0.0000

> <Gold.Chemscore.DEClash>
0.0130

> <Gold.Chemscore.DEInternal>
1.1901

> <Gold.Chemscore.Rot>
1.3079

> <Gold.Chemscore.Internal.Correction>
   9.000000E+99

> <Gold.Chemscore.Hbonds>
donor molecule, donor type, donor heavy atom, donor atom, acceptor molecule, acceptor atom, score
      L1  H     3    22       P1 10747  0.99
      L1  H     6    23       P1 10747  0.89
      L1  H    10    17       P1 10186  0.99

> <Gold.Chemscore.Hbond.Weighted>
-9.6736

> <Gold.Chemscore.Metal.Weighted>
-0.0000

> <Gold.Chemscore.Lipo.Weighted>
-7.3821

> <Gold.Chemscore.Internal_Hbond.Weighted>
0.0000

> <Gold.Chemscore.DEClash.Weighted>
0.0130

> <Gold.Chemscore.DEInternal.Weighted>
1.1901

> <Gold.Chemscore.Rot.Weighted>
3.3483

> <Gold.Chemscore.Internal.Correction.Weighted>
   9.000000E+99

> <Gold.Protein.RotatedTorsions>
[ 6907 6896 6895 6894 ] final    0.42 input  -60.11 | X-H torsion
[ 7974 7965 7964 7962 ] final -177.95 input  175.53 | X-H torsion
[ 8008 7997 7996 7995 ] final  -98.17 input   59.86 | X-H torsion
[ 10167 10162 10161 10158 ] final  129.42 input  -65.29 | X-H torsion
[ 10718 10713 10712 10709 ] final  -62.29 input   66.30 | X-H torsion
[ 10763 10752 10751 10750 ] final -139.13 input  -60.55 | X-H torsion
[ 11005 11000 10999 10996 ] final   81.68 input  -57.11 | X-H torsion

> <Gold.Protein.ActiveResidues>
 VAL166  LYS551  ARG553  GLY616  TRP617  ASP618  TYR619  PRO620  LYS621  CYS622 
 ASP623  PHE694  ASN695  SER759  ASP760  ASP761  ALA762  ILE779  LEU786  VAL792 
 PHE793  MET794  SER795  GLU796  ALA797  LYS798  CYS799  TRP800  GLU811  SER814 

> <Gold.Protein.RotatedAtoms>
  151.5761  135.1060  160.0006 H   0  0  0  0  0  0  0  0  0  0  0  0  # atno 6907 bound_to 6896
  152.4377  133.7386  159.6639 H   0  0  0  0  0  0  0  0  0  0  0  0  # atno 6908 bound_to 6896
  150.8277  133.8074  159.3135 H   0  0  0  0  0  0  0  0  0  0  0  0  # atno 6909 bound_to 6896
  144.7129  140.0943  143.6420 H   0  0  0  0  0  0  0  0  0  0  0  0  # atno 7974 bound_to 7965
  154.7975  140.0457  157.1248 H   0  0  0  0  0  0  0  0  0  0  0  0  # atno 8008 bound_to 7997
  154.9517  140.3066  155.5052 H   0  0  0  0  0  0  0  0  0  0  0  0  # atno 8009 bound_to 7997
  156.2957  140.2287  156.4596 H   0  0  0  0  0  0  0  0  0  0  0  0  # atno 8010 bound_to 7997
  139.5479  144.6789  151.4416 H   0  0  0  0  0  0  0  0  0  0  0  0  # atno 10167 bound_to 10162
  156.0865  130.4207  150.1114 H   0  0  0  0  0  0  0  0  0  0  0  0  # atno 10718 bound_to 10713
  154.8618  135.3591  154.5497 H   0  0  0  0  0  0  0  0  0  0  0  0  # atno 10763 bound_to 10752
  153.6116  135.7009  153.5349 H   0  0  0  0  0  0  0  0  0  0  0  0  # atno 10764 bound_to 10752
  153.3205  135.4152  155.1373 H   0  0  0  0  0  0  0  0  0  0  0  0  # atno 10765 bound_to 10752
  139.9089  134.8015  156.2074 H   0  0  0  0  0  0  0  0  0  0  0  0  # atno 11005 bound_to 11000
  145.9593  139.2789  143.1165 LP  0  0  0  0  0  0  0  0  0  0  0  0  # atno 17320 bound_to 7965
  145.9238  140.9097  143.0391 LP  0  0  0  0  0  0  0  0  0  0  0  0  # atno 17321 bound_to 7965
  140.6733  143.8246  150.7026 LP  0  0  0  0  0  0  0  0  0  0  0  0  # atno 17342 bound_to 10162
  140.1677  143.4221  152.2023 LP  0  0  0  0  0  0  0  0  0  0  0  0  # atno 17343 bound_to 10162
  156.9134  130.9659  151.3559 LP  0  0  0  0  0  0  0  0  0  0  0  0  # atno 17370 bound_to 10713
  157.6001  130.8506  149.8789 LP  0  0  0  0  0  0  0  0  0  0  0  0  # atno 17371 bound_to 10713
  141.0487  133.6900  156.1731 LP  0  0  0  0  0  0  0  0  0  0  0  0  # atno 17394 bound_to 11000
  140.6844  134.4732  157.5589 LP  0  0  0  0  0  0  0  0  0  0  0  0  # atno 17395 bound_to 11000

$$$$
