AV-unprocessed.smi:1695|AV-procd|sdf|6791|dock4
  -GOLD-   22720 7553D 1   1.00000     0.00000
 Structure written by MMmdl.
 51 53  0  0  0  0  0  0  0  0  2 V2000
  153.3152  142.6347  160.0090 C   0  0  0  0  0  0  0  0  0  0  0  0
  152.2648  142.0396  159.0877 C   0  0  0  0  0  0  0  0  0  0  0  0
  151.9880  140.6561  159.1650 C   0  0  0  0  0  0  0  0  0  0  0  0
  151.0170  140.0640  158.3283 C   0  0  0  0  0  0  0  0  0  0  0  0
  150.5878  138.7512  158.2390 N   0  0  0  0  0  0  0  0  0  0  0  0
  149.6666  138.8339  157.2841 C   0  0  0  0  0  0  0  0  0  0  0  0
  149.4415  140.0489  156.7482 N   0  0  0  0  0  0  0  0  0  0  0  0
  148.4792  140.3790  155.7129 C   0  0  0  0  0  0  0  0  0  0  0  0
  148.6188  139.4773  154.4706 C   0  0  2  0  0  0  0  0  0  0  0  0
  149.8578  139.7737  153.8589 O   0  0  0  0  0  0  0  0  0  0  0  0
  147.4910  139.6758  153.4334 C   0  0  0  0  0  0  0  0  0  0  0  0
  147.0812  138.4034  152.7861 N   0  3  1  0  0  0  0  0  0  0  0  0
  146.1801  137.5779  153.6337 C   0  0  0  0  0  0  0  0  0  0  0  0
  145.8923  136.2185  152.9761 C   0  0  0  0  0  0  0  0  0  0  0  0
  145.2857  136.3969  151.5711 C   0  0  2  0  0  0  0  0  0  0  0  0
  145.0508  135.0399  150.8940 C   0  0  0  0  0  0  0  0  0  0  0  0
  144.5262  135.0530  149.6662 N   0  0  0  0  0  0  0  0  0  0  0  0
  145.3371  133.9928  151.4716 O   0  0  0  0  0  0  0  0  0  0  0  0
  146.2237  137.2824  150.7290 C   0  0  0  0  0  0  0  0  0  0  0  0
  146.5068  138.6197  151.4333 C   0  0  0  0  0  0  0  0  0  0  0  0
  150.3240  140.9006  157.4050 C   0  0  0  0  0  0  0  0  0  0  0  0
  150.5930  142.2781  157.3166 C   0  0  0  0  0  0  0  0  0  0  0  0
  151.5674  142.8531  158.1592 C   0  0  0  0  0  0  0  0  0  0  0  0
  151.8516  144.3411  158.0559 C   0  0  0  0  0  0  0  0  0  0  0  0
  153.7139  141.8864  160.6945 H   0  0  0  0  0  0  0  0  0  0  0  0
  152.8887  143.4402  160.6069 H   0  0  0  0  0  0  0  0  0  0  0  0
  154.1470  143.0358  159.4295 H   0  0  0  0  0  0  0  0  0  0  0  0
  152.5204  140.0360  159.8712 H   0  0  0  0  0  0  0  0  0  0  0  0
  149.1172  137.9623  156.9595 H   0  0  0  0  0  0  0  0  0  0  0  0
  147.4753  140.3025  156.1327 H   0  0  0  0  0  0  0  0  0  0  0  0
  148.6224  141.4253  155.4388 H   0  0  0  0  0  0  0  0  0  0  0  0
  148.6518  138.4403  154.8032 H   0  0  0  0  0  0  0  0  0  0  0  0
  149.7437  139.7672  152.9205 H   0  0  0  0  0  0  0  0  0  0  0  0
  146.6100  140.1296  153.8886 H   0  0  0  0  0  0  0  0  0  0  0  0
  147.8390  140.3835  152.6792 H   0  0  0  0  0  0  0  0  0  0  0  0
  146.6278  137.4074  154.6120 H   0  0  0  0  0  0  0  0  0  0  0  0
  145.2458  138.1151  153.8056 H   0  0  0  0  0  0  0  0  0  0  0  0
  146.8192  135.6448  152.9202 H   0  0  0  0  0  0  0  0  0  0  0  0
  145.2124  135.6452  153.6081 H   0  0  0  0  0  0  0  0  0  0  0  0
  144.3260  136.9077  151.6717 H   0  0  0  0  0  0  0  0  0  0  0  0
  144.3536  134.1863  149.1778 H   0  0  0  0  0  0  0  0  0  0  0  0
  144.3038  135.9352  149.2276 H   0  0  0  0  0  0  0  0  0  0  0  0
  147.1682  136.7670  150.5455 H   0  0  0  0  0  0  0  0  0  0  0  0
  145.7814  137.4732  149.7503 H   0  0  0  0  0  0  0  0  0  0  0  0
  145.5904  139.2068  151.5147 H   0  0  0  0  0  0  0  0  0  0  0  0
  147.2030  139.1999  150.8260 H   0  0  0  0  0  0  0  0  0  0  0  0
  150.0537  142.8879  156.6069 H   0  0  0  0  0  0  0  0  0  0  0  0
  151.2753  144.8016  157.2532 H   0  0  0  0  0  0  0  0  0  0  0  0
  152.9077  144.5169  157.8504 H   0  0  0  0  0  0  0  0  0  0  0  0
  151.5915  144.8445  158.9870 H   0  0  0  0  0  0  0  0  0  0  0  0
  147.9292  137.8713  152.6495 H   0  0  0  0  0  0  0  0  0  0  0  0
  1  2  1  0  0  0  0
  1 25  1  0  0  0  0
  1 26  1  0  0  0  0
  1 27  1  0  0  0  0
  2 23  1  0  0  0  0
  2  3  2  0  0  0  0
  3  4  1  0  0  0  0
  3 28  1  0  0  0  0
  4 21  2  0  0  0  0
  4  5  1  0  0  0  0
  5  6  2  0  0  0  0
  6  7  1  0  0  0  0
  6 29  1  0  0  0  0
  7  8  1  0  0  0  0
  7 21  1  0  0  0  0
  8  9  1  0  0  0  0
  8 30  1  0  0  0  0
  8 31  1  0  0  0  0
  9 10  1  0  0  0  0
  9 11  1  0  0  0  0
  9 32  1  0  0  0  0
 10 33  1  0  0  0  0
 11 12  1  0  0  0  0
 11 34  1  0  0  0  0
 11 35  1  0  0  0  0
 12 20  1  0  0  0  0
 12 13  1  0  0  0  0
 12 51  1  0  0  0  0
 13 14  1  0  0  0  0
 13 36  1  0  0  0  0
 13 37  1  0  0  0  0
 14 15  1  0  0  0  0
 14 38  1  0  0  0  0
 14 39  1  0  0  0  0
 15 16  1  0  0  0  0
 15 19  1  0  0  0  0
 15 40  1  0  0  0  0
 16 17  1  0  0  0  0
 16 18  2  0  0  0  0
 17 41  1  0  0  0  0
 17 42  1  0  0  0  0
 19 20  1  0  0  0  0
 19 43  1  0  0  0  0
 19 44  1  0  0  0  0
 20 45  1  0  0  0  0
 20 46  1  0  0  0  0
 21 22  1  0  0  0  0
 22 23  2  0  0  0  0
 22 47  1  0  0  0  0
 23 24  1  0  0  0  0
 24 48  1  0  0  0  0
 24 49  1  0  0  0  0
 24 50  1  0  0  0  0
M  CHG  1  12   1
M  END
> <s_m_source_file>
AV-unprocessed.smi

> <i_m_source_file_index>
1695

> <i_lp_mmshare_version>
43012

> <i_f3d_flags>
0

> <s_epik_input>
W0NIM11jKFtjSF0xKWMoW0NIM10pW2NIXWMoYzEyKW4oW2NIXW4yKVtDSDJdW0NASF0oW09IXSlbQ0gyXU4zW0NIMl1bQ0gyXVtDSF0oQyg9TylbTkgyXSlbQ0gyXVtDSDJdMw==

> <s_epik_cmdline>
J2VwaWtfcHl0aG9uJywgJy1waCcsICc3LjAnLCAnLXRuJywgJzgnLCAnLW1hJywgJzIwMCcsICctbWV0YWxfYmluZGluZycsICctaW1hZScsICc8aW5maWxlLm1hZT4nLCAnLW9tYWUnLCAnPG91dGZpbGUubWFlPic=

> <r_epik_Ionization_Penalty>
0.113899

> <r_epik_Ionization_Penalty_Charging>
0.0258844

> <r_epik_Ionization_Penalty_Neutral>
0.0880147

> <r_epik_State_Penalty>
0.0974403

> <r_epik_Charging_Adjusted_Penalty>
0.123325

> <i_epik_Tot_Q>
1

> <i_epik_Tot_abs_Q>
1

> <r_epik_Metal_State_Penalty>
0.0851148

> <b_epik_Metal_Only>
0

> <s_lp_Force_Field>
OPLS_2005

> <r_lp_Energy>
21.0029

> <b_lp_Chiralities_Consistent>
1

> <s_lp_Variant>
AV-unprocessed.smi:1695-3

> <Gold.Version>
5.8.1

> <Gold.Id.Protein>
6NUR|6NUR_protein|mol2

> <Gold.PLP.Fitness>
50.7768

> <Gold.PLP.PLP>
-42.3056

> <Gold.PLP.part.hbond>
-4.0000

> <Gold.PLP.part.metal>
0.0000

> <Gold.PLP.part.buried>
0.0565

> <Gold.PLP.part.nonpolar>
-39.0365

> <Gold.PLP.part.repulsive>
0.2356

> <Gold.PLP.ligand.clash>
0.0000

> <Gold.PLP.ligand.torsion>
0.8350

> <Gold.PLP.Chemscore.Hbond>
3.3473

> <Gold.PLP.Chemscore.CHOScore>
0.0000

> <Gold.PLP.Chemscore.Metal>
0.0000

> <Gold.Chemscore.Hbonds>
donor molecule, donor type, donor heavy atom, donor atom, acceptor molecule, acceptor atom, score
      L1  H    10    33       P1  7957  1.00
      L1  H    12    51       P1  7948  1.79
      P1  H  7989  7998       L1    10  0.18

> <Gold.PLP.Chemscore.Internal.Correction>
0.0995

> <Gold.Rescore>
     Score         DG    S(hbond)    S(metal)    S(lipo)     H(rot)  DE(clash)    DE(int)     intcor
     16.30     -18.19       1.98        0.00     114.23       2.85       0.93       0.95       ----

> <Gold.Chemscore.Fitness>
16.3027

> <Gold.Chemscore.DG>
-18.1855

> <Gold.Chemscore.ZeroCoef>
-5.4800

> <Gold.Chemscore.Hbond>
1.9842

> <Gold.Chemscore.Metal>
0.0000

> <Gold.Chemscore.Lipo>
114.2312

> <Gold.Chemscore.Internal_Hbond>
0.0000

> <Gold.Chemscore.DEClash>
0.9300

> <Gold.Chemscore.DEInternal>
0.9527

> <Gold.Chemscore.Rot>
2.8464

> <Gold.Chemscore.Internal.Correction>
   9.000000E+99

> <Gold.Chemscore.Hbonds>
donor molecule, donor type, donor heavy atom, donor atom, acceptor molecule, acceptor atom, score
      L1  H    10    33       P1  7957  1.00
      L1  H    12    51       P1  7948  0.83

> <Gold.Chemscore.Hbond.Weighted>
-6.6271

> <Gold.Chemscore.Metal.Weighted>
-0.0000

> <Gold.Chemscore.Lipo.Weighted>
-13.3650

> <Gold.Chemscore.Internal_Hbond.Weighted>
0.0000

> <Gold.Chemscore.DEClash.Weighted>
0.9300

> <Gold.Chemscore.DEInternal.Weighted>
0.9527

> <Gold.Chemscore.Rot.Weighted>
7.2867

> <Gold.Chemscore.Internal.Correction.Weighted>
   9.000000E+99

> <Gold.Protein.RotatedTorsions>
[ 6907 6896 6895 6894 ] final -161.60 input  -60.11 | X-H torsion
[ 7974 7965 7964 7962 ] final  171.13 input  175.53 | X-H torsion
[ 8008 7997 7996 7995 ] final -131.84 input   59.86 | X-H torsion
[ 10167 10162 10161 10158 ] final  -66.52 input  -65.29 | X-H torsion
[ 10718 10713 10712 10709 ] final -137.64 input   66.30 | X-H torsion
[ 10763 10752 10751 10750 ] final   12.61 input  -60.55 | X-H torsion
[ 11005 11000 10999 10996 ] final    3.91 input  -57.11 | X-H torsion

> <Gold.Protein.ActiveResidues>
 VAL166  LYS551  ARG553  GLY616  TRP617  ASP618  TYR619  PRO620  LYS621  CYS622 
 ASP623  PHE694  ASN695  SER759  ASP760  ASP761  ALA762  ILE779  LEU786  VAL792 
 PHE793  MET794  SER795  GLU796  ALA797  LYS798  CYS799  TRP800  GLU811  SER814 

> <Gold.Protein.RotatedAtoms>
  151.3671  133.3868  159.2695 H   0  0  0  0  0  0  0  0  0  0  0  0  # atno 6907 bound_to 6896
  150.9680  134.9058  159.7781 H   0  0  0  0  0  0  0  0  0  0  0  0  # atno 6908 bound_to 6896
  152.5174  134.3632  159.9344 H   0  0  0  0  0  0  0  0  0  0  0  0  # atno 6909 bound_to 6896
  144.7303  139.9305  143.6424 H   0  0  0  0  0  0  0  0  0  0  0  0  # atno 7974 bound_to 7965
  155.3189  140.0461  157.3038 H   0  0  0  0  0  0  0  0  0  0  0  0  # atno 8008 bound_to 7997
  154.5391  140.2282  155.8638 H   0  0  0  0  0  0  0  0  0  0  0  0  # atno 8009 bound_to 7997
  156.1863  140.3061  155.9252 H   0  0  0  0  0  0  0  0  0  0  0  0  # atno 8010 bound_to 7997
  140.5651  143.2314  151.6652 H   0  0  0  0  0  0  0  0  0  0  0  0  # atno 10167 bound_to 10162
  156.2904  130.7371  151.1395 H   0  0  0  0  0  0  0  0  0  0  0  0  # atno 10718 bound_to 10713
  153.1804  135.6827  153.8485 H   0  0  0  0  0  0  0  0  0  0  0  0  # atno 10763 bound_to 10752
  153.7819  135.3181  155.3368 H   0  0  0  0  0  0  0  0  0  0  0  0  # atno 10764 bound_to 10752
  154.8056  135.4750  154.0479 H   0  0  0  0  0  0  0  0  0  0  0  0  # atno 10765 bound_to 10752
  140.5878  133.9953  155.8075 H   0  0  0  0  0  0  0  0  0  0  0  0  # atno 11005 bound_to 11000
  146.0861  139.3849  143.0434 LP  0  0  0  0  0  0  0  0  0  0  0  0  # atno 17320 bound_to 7965
  145.7775  140.9870  143.1117 LP  0  0  0  0  0  0  0  0  0  0  0  0  # atno 17321 bound_to 7965
  139.5089  144.3596  152.0574 LP  0  0  0  0  0  0  0  0  0  0  0  0  # atno 17342 bound_to 10162
  140.2727  144.3946  150.6146 LP  0  0  0  0  0  0  0  0  0  0  0  0  # atno 17343 bound_to 10162
  157.7340  131.0585  150.5544 LP  0  0  0  0  0  0  0  0  0  0  0  0  # atno 17370 bound_to 10713
  156.5660  130.4267  149.6041 LP  0  0  0  0  0  0  0  0  0  0  0  0  # atno 17371 bound_to 10713
  141.0955  133.9851  157.3168 LP  0  0  0  0  0  0  0  0  0  0  0  0  # atno 17394 bound_to 11000
  139.9288  135.0201  156.8328 LP  0  0  0  0  0  0  0  0  0  0  0  0  # atno 17395 bound_to 11000

$$$$
