AV-unprocessed.smi:2793|AV-procd|sdf|10775|dock2
  -GOLD-   2272015213D 1   1.00000     0.00000
 Structure written by MMmdl.
 28 29  0  0  0  0  0  0  0  0  1 V2000
  152.9629  140.8164  158.5461 O   0  0  0  0  0  0  0  0  0  0  0  0
  152.0627  141.5332  158.1065 C   0  0  0  0  0  0  0  0  0  0  0  0
  151.4382  141.3277  156.9311 N   0  0  0  0  0  0  0  0  0  0  0  0
  151.6798  140.3068  155.9744 C   0  0  0  0  0  0  0  0  0  0  0  0
  150.5866  139.9744  155.1399 C   0  0  0  0  0  0  0  0  0  0  0  0
  150.6613  139.0216  154.1839 N   0  0  0  0  0  0  0  0  0  0  0  0
  151.8466  138.3884  154.0539 C   0  0  0  0  0  0  0  0  0  0  0  0
  152.9472  138.7077  154.8740 C   0  0  0  0  0  0  0  0  0  0  0  0
  152.8649  139.6601  155.8284 N   0  0  0  0  0  0  0  0  0  0  0  0
  151.5624  142.7350  158.9233 C   0  0  1  0  0  0  0  0  0  0  0  0
  152.4099  143.0010  160.1894 C   0  0  0  0  0  0  0  0  0  0  0  0
  151.9154  144.2554  160.9189 C   0  0  0  0  0  0  0  0  0  0  0  0
  151.8520  145.4333  159.9420 C   0  0  0  0  0  0  0  0  0  0  0  0
  151.0295  145.0519  158.7019 C   0  0  0  0  0  0  0  0  0  0  0  0
  151.5850  143.8932  158.0874 O   0  0  0  0  0  0  0  0  0  0  0  0
  150.7075  141.9837  156.6957 H   0  0  0  0  0  0  0  0  0  0  0  0
  149.6354  140.4771  155.2399 H   0  0  0  0  0  0  0  0  0  0  0  0
  151.9176  137.6245  153.2938 H   0  0  0  0  0  0  0  0  0  0  0  0
  153.8934  138.1987  154.7652 H   0  0  0  0  0  0  0  0  0  0  0  0
  150.5311  142.5246  159.2116 H   0  0  0  0  0  0  0  0  0  0  0  0
  152.3666  142.1468  160.8664 H   0  0  0  0  0  0  0  0  0  0  0  0
  153.4582  143.1315  159.9158 H   0  0  0  0  0  0  0  0  0  0  0  0
  150.9251  144.0706  161.3370 H   0  0  0  0  0  0  0  0  0  0  0  0
  152.5711  144.4912  161.7575 H   0  0  0  0  0  0  0  0  0  0  0  0
  151.4178  146.3063  160.4304 H   0  0  0  0  0  0  0  0  0  0  0  0
  152.8614  145.7134  159.6379 H   0  0  0  0  0  0  0  0  0  0  0  0
  149.9863  144.8714  158.9664 H   0  0  0  0  0  0  0  0  0  0  0  0
  151.0372  145.8697  157.9812 H   0  0  0  0  0  0  0  0  0  0  0  0
  1  2  2  0  0  0  0
  2  3  1  0  0  0  0
  2 10  1  0  0  0  0
  3  4  1  0  0  0  0
  3 16  1  0  0  0  0
  4  9  1  0  0  0  0
  4  5  2  0  0  0  0
  5  6  1  0  0  0  0
  5 17  1  0  0  0  0
  6  7  2  0  0  0  0
  7  8  1  0  0  0  0
  7 18  1  0  0  0  0
  8  9  2  0  0  0  0
  8 19  1  0  0  0  0
 10 15  1  0  0  0  0
 10 11  1  0  0  0  0
 10 20  1  0  0  0  0
 11 12  1  0  0  0  0
 11 21  1  0  0  0  0
 11 22  1  0  0  0  0
 12 13  1  0  0  0  0
 12 23  1  0  0  0  0
 12 24  1  0  0  0  0
 13 14  1  0  0  0  0
 13 25  1  0  0  0  0
 13 26  1  0  0  0  0
 14 15  1  0  0  0  0
 14 27  1  0  0  0  0
 14 28  1  0  0  0  0
M  END
> <s_m_source_file>
AV-unprocessed.smi

> <i_m_source_file_index>
2793

> <i_lp_mmshare_version>
43012

> <i_f3d_flags>
0

> <s_epik_input>
TzFbQ0gyXVtDSDJdW0NIMl1bQ0gyXVtDQEhdMUMoPU8pW05IXWMyW2NIXW5bY0hdW2NIXW4y

> <s_epik_cmdline>
J2VwaWtfcHl0aG9uJywgJy1waCcsICc3LjAnLCAnLXRuJywgJzgnLCAnLW1hJywgJzIwMCcsICctbWV0YWxfYmluZGluZycsICctaW1hZScsICc8aW5maWxlLm1hZT4nLCAnLW9tYWUnLCAnPG91dGZpbGUubWFlPic=

> <r_lp_tautomer_probability>
1

> <r_epik_Ionization_Penalty>
2.82919e-06

> <r_epik_Ionization_Penalty_Charging>
0

> <r_epik_Ionization_Penalty_Neutral>
2.82919e-06

> <r_epik_State_Penalty>
-0

> <r_epik_Charging_Adjusted_Penalty>
0

> <i_epik_Tot_Q>
0

> <i_epik_Tot_abs_Q>
0

> <r_epik_Metal_State_Penalty>
-0

> <b_epik_Metal_Only>
0

> <s_lp_Force_Field>
OPLS_2005

> <r_lp_Energy>
18.1635

> <b_lp_Chiralities_Consistent>
1

> <s_lp_Variant>
AV-unprocessed.smi:2793-2

> <Gold.Version>
5.8.1

> <Gold.Id.Protein>
6NUR|6NUR_protein|mol2

> <Gold.PLP.Fitness>
40.0325

> <Gold.PLP.PLP>
-34.4990

> <Gold.PLP.part.hbond>
-1.0853

> <Gold.PLP.part.metal>
0.0000

> <Gold.PLP.part.buried>
-6.8371

> <Gold.PLP.part.nonpolar>
-27.7184

> <Gold.PLP.part.repulsive>
0.3729

> <Gold.PLP.ligand.clash>
0.0000

> <Gold.PLP.ligand.torsion>
0.2352

> <Gold.PLP.Chemscore.Hbond>
1.0000

> <Gold.PLP.Chemscore.CHOScore>
1.0000

> <Gold.PLP.Chemscore.Metal>
0.0000

> <Gold.Chemscore.Hbonds>
donor molecule, donor type, donor heavy atom, donor atom, acceptor molecule, acceptor atom, score
      P1  H  7997  8010       L1     9  1.00
      L1  C     7    18       P1  7949  0.97

> <Gold.PLP.Chemscore.Internal.Correction>
0.0039

> <Gold.Rescore>
     Score         DG    S(hbond)    S(metal)    S(lipo)     H(rot)  DE(clash)    DE(int)     intcor
     13.86     -15.43       0.90        0.00      81.32       1.00       0.08       1.50       ----

> <Gold.Chemscore.Fitness>
13.8595

> <Gold.Chemscore.DG>
-15.4311

> <Gold.Chemscore.ZeroCoef>
-5.4800

> <Gold.Chemscore.Hbond>
0.8971

> <Gold.Chemscore.Metal>
0.0000

> <Gold.Chemscore.Lipo>
81.3232

> <Gold.Chemscore.Internal_Hbond>
0.0000

> <Gold.Chemscore.DEClash>
0.0765

> <Gold.Chemscore.DEInternal>
1.4951

> <Gold.Chemscore.Rot>
1.0000

> <Gold.Chemscore.Internal.Correction>
   9.000000E+99

> <Gold.Chemscore.Hbonds>
donor molecule, donor type, donor heavy atom, donor atom, acceptor molecule, acceptor atom, score
      P1  H  7997  8010       L1     9  0.78

> <Gold.Chemscore.Hbond.Weighted>
-2.9963

> <Gold.Chemscore.Metal.Weighted>
-0.0000

> <Gold.Chemscore.Lipo.Weighted>
-9.5148

> <Gold.Chemscore.Internal_Hbond.Weighted>
0.0000

> <Gold.Chemscore.DEClash.Weighted>
0.0765

> <Gold.Chemscore.DEInternal.Weighted>
1.4951

> <Gold.Chemscore.Rot.Weighted>
2.5600

> <Gold.Chemscore.Internal.Correction.Weighted>
   9.000000E+99

> <Gold.Protein.RotatedTorsions>
[ 6907 6896 6895 6894 ] final  -22.74 input  -60.11 | X-H torsion
[ 7974 7965 7964 7962 ] final  179.49 input  175.53 | X-H torsion
[ 8008 7997 7996 7995 ] final   76.56 input   59.86 | X-H torsion
[ 10167 10162 10161 10158 ] final  -79.90 input  -65.29 | X-H torsion
[ 10718 10713 10712 10709 ] final  -51.27 input   66.30 | X-H torsion
[ 10763 10752 10751 10750 ] final   88.78 input  -60.55 | X-H torsion
[ 11005 11000 10999 10996 ] final  113.86 input  -57.11 | X-H torsion

> <Gold.Protein.ActiveResidues>
 VAL166  LYS551  ARG553  GLY616  TRP617  ASP618  TYR619  PRO620  LYS621  CYS622 
 ASP623  PHE694  ASN695  SER759  ASP760  ASP761  ALA762  ILE779  LEU786  VAL792 
 PHE793  MET794  SER795  GLU796  ALA797  LYS798  CYS799  TRP800  GLU811  SER814 

> <Gold.Protein.RotatedAtoms>
  151.2141  135.0493  159.8923 H   0  0  0  0  0  0  0  0  0  0  0  0  # atno 6907 bound_to 6896
  152.5422  134.0712  159.8205 H   0  0  0  0  0  0  0  0  0  0  0  0  # atno 6908 bound_to 6896
  151.0869  133.5298  159.2649 H   0  0  0  0  0  0  0  0  0  0  0  0  # atno 6909 bound_to 6896
  144.7145  140.0557  143.6434 H   0  0  0  0  0  0  0  0  0  0  0  0  # atno 7974 bound_to 7965
  155.8290  140.3467  155.5560 H   0  0  0  0  0  0  0  0  0  0  0  0  # atno 8008 bound_to 7997
  155.8262  140.0920  157.1840 H   0  0  0  0  0  0  0  0  0  0  0  0  # atno 8009 bound_to 7997
  154.4004  140.1421  156.3546 H   0  0  0  0  0  0  0  0  0  0  0  0  # atno 8010 bound_to 7997
  140.4552  143.2470  151.8431 H   0  0  0  0  0  0  0  0  0  0  0  0  # atno 10167 bound_to 10162
  156.1725  130.4149  149.9625 H   0  0  0  0  0  0  0  0  0  0  0  0  # atno 10718 bound_to 10713
  153.1803  135.4494  155.0020 H   0  0  0  0  0  0  0  0  0  0  0  0  # atno 10763 bound_to 10752
  154.8026  135.3261  154.7515 H   0  0  0  0  0  0  0  0  0  0  0  0  # atno 10764 bound_to 10752
  153.7980  135.6965  153.4915 H   0  0  0  0  0  0  0  0  0  0  0  0  # atno 10765 bound_to 10752
  139.8964  134.9557  156.6804 H   0  0  0  0  0  0  0  0  0  0  0  0  # atno 11005 bound_to 11000
  145.9907  139.3012  143.0987 LP  0  0  0  0  0  0  0  0  0  0  0  0  # atno 17320 bound_to 7965
  145.8906  140.9306  143.0554 LP  0  0  0  0  0  0  0  0  0  0  0  0  # atno 17321 bound_to 7965
  139.4800  144.5074  151.8979 LP  0  0  0  0  0  0  0  0  0  0  0  0  # atno 17342 bound_to 10162
  140.4160  144.2306  150.5888 LP  0  0  0  0  0  0  0  0  0  0  0  0  # atno 17343 bound_to 10162
  156.7421  130.9083  151.3633 LP  0  0  0  0  0  0  0  0  0  0  0  0  # atno 17370 bound_to 10713
  157.6813  130.9142  150.0274 LP  0  0  0  0  0  0  0  0  0  0  0  0  # atno 17371 bound_to 10713
  140.7304  133.9064  155.8207 LP  0  0  0  0  0  0  0  0  0  0  0  0  # atno 17394 bound_to 11000
  141.0158  134.0958  157.4174 LP  0  0  0  0  0  0  0  0  0  0  0  0  # atno 17395 bound_to 11000

$$$$
