AV-unprocessed.smi:1417|AV-procd|sdf|5770|dock1
  -GOLD-   22720 5413D 1   1.00000     0.00000
 Structure written by MMmdl.
 39 40  0  0  0  0  0  0  0  0  3 V2000
  152.4672  139.3650  159.3038 C   0  0  0  0  0  0  0  0  0  0  0  0
  152.2337  139.5397  157.8421 C   0  0  0  0  0  0  0  0  0  0  0  0
  151.1583  139.9725  157.1195 C   0  0  0  0  0  0  0  0  0  0  0  0
  151.6136  139.8848  155.7757 C   0  0  0  0  0  0  0  0  0  0  0  0
  150.9106  140.2157  154.6815 N   0  5  0  0  0  0  0  0  0  0  0  0
  149.7149  140.8362  154.8027 C   0  0  0  0  0  0  0  0  0  0  0  0
  149.3354  141.5172  155.7579 O   0  0  0  0  0  0  0  0  0  0  0  0
  148.9068  140.6509  153.7492 N   0  0  0  0  0  0  0  0  0  0  0  0
  147.5546  141.1848  153.5901 C   0  0  2  0  0  0  0  0  0  0  0  0
  146.5888  140.6153  154.6481 C   0  0  0  0  0  0  0  0  0  0  0  0
  146.2992  139.1221  154.4151 C   0  0  0  0  0  0  0  0  0  0  0  0
  145.7716  138.8877  153.0444 N   0  3  2  0  0  0  0  0  0  0  0  0
  145.3441  137.4833  152.8164 C   0  0  0  0  0  0  0  0  0  0  0  0
  144.0426  137.1278  153.5430 C   0  0  0  0  0  0  0  0  0  0  0  0
  142.9983  137.9338  153.3366 N   0  0  0  0  0  0  0  0  0  0  0  0
  143.9811  136.1548  154.2925 O   0  0  0  0  0  0  0  0  0  0  0  0
  146.7164  139.3699  152.0049 C   0  0  0  0  0  0  0  0  0  0  0  0
  147.0218  140.8689  152.1819 C   0  0  0  0  0  0  0  0  0  0  0  0
  152.8609  139.4535  155.6910 N   0  0  0  0  0  0  0  0  0  0  0  0
  153.2642  139.2244  157.0118 O   0  0  0  0  0  0  0  0  0  0  0  0
  152.6079  140.3307  159.7893 H   0  0  0  0  0  0  0  0  0  0  0  0
  153.3546  138.7599  159.4907 H   0  0  0  0  0  0  0  0  0  0  0  0
  151.6173  138.8700  159.7736 H   0  0  0  0  0  0  0  0  0  0  0  0
  150.1978  140.2969  157.4913 H   0  0  0  0  0  0  0  0  0  0  0  0
  149.2694  140.0930  152.9904 H   0  0  0  0  0  0  0  0  0  0  0  0
  147.6031  142.2696  153.6998 H   0  0  0  0  0  0  0  0  0  0  0  0
  146.9855  140.7665  155.6526 H   0  0  0  0  0  0  0  0  0  0  0  0
  145.6501  141.1696  154.6099 H   0  0  0  0  0  0  0  0  0  0  0  0
  147.2059  138.5336  154.5656 H   0  0  0  0  0  0  0  0  0  0  0  0
  145.5780  138.7800  155.1578 H   0  0  0  0  0  0  0  0  0  0  0  0
  145.1585  137.3232  151.7534 H   0  0  0  0  0  0  0  0  0  0  0  0
  146.1436  136.7971  153.1008 H   0  0  0  0  0  0  0  0  0  0  0  0
  142.1146  137.7452  153.7874 H   0  0  0  0  0  0  0  0  0  0  0  0
  143.0945  138.7318  152.7246 H   0  0  0  0  0  0  0  0  0  0  0  0
  147.6364  138.7847  152.0474 H   0  0  0  0  0  0  0  0  0  0  0  0
  146.2869  139.2111  151.0151 H   0  0  0  0  0  0  0  0  0  0  0  0
  146.1097  141.4415  152.0074 H   0  0  0  0  0  0  0  0  0  0  0  0
  147.7351  141.1985  151.4255 H   0  0  0  0  0  0  0  0  0  0  0  0
  144.9382  139.4512  152.9511 H   0  0  0  0  0  0  0  0  0  0  0  0
  1  2  1  0  0  0  0
  1 21  1  0  0  0  0
  1 22  1  0  0  0  0
  1 23  1  0  0  0  0
  2 20  1  0  0  0  0
  2  3  2  0  0  0  0
  3  4  1  0  0  0  0
  3 24  1  0  0  0  0
  4  5  1  0  0  0  0
  4 19  2  0  0  0  0
  5  6  1  0  0  0  0
  6  7  2  0  0  0  0
  6  8  1  0  0  0  0
  8  9  1  0  0  0  0
  8 25  1  0  0  0  0
  9 18  1  0  0  0  0
  9 10  1  0  0  0  0
  9 26  1  0  0  0  0
 10 11  1  0  0  0  0
 10 27  1  0  0  0  0
 10 28  1  0  0  0  0
 11 12  1  0  0  0  0
 11 29  1  0  0  0  0
 11 30  1  0  0  0  0
 12 13  1  0  0  0  0
 12 17  1  0  0  0  0
 12 39  1  0  0  0  0
 13 14  1  0  0  0  0
 13 31  1  0  0  0  0
 13 32  1  0  0  0  0
 14 15  1  0  0  0  0
 14 16  2  0  0  0  0
 15 33  1  0  0  0  0
 15 34  1  0  0  0  0
 17 18  1  0  0  0  0
 17 35  1  0  0  0  0
 17 36  1  0  0  0  0
 18 37  1  0  0  0  0
 18 38  1  0  0  0  0
 19 20  1  0  0  0  0
M  CHG  1   5  -1
M  CHG  1  12   1
M  END
> <s_m_source_file>
AV-unprocessed.smi

> <i_m_source_file_index>
1417

> <i_lp_mmshare_version>
43012

> <i_f3d_flags>
0

> <s_epik_input>
W0NIM11jMVtjSF1jKG5vMSlbTkhdQyg9TylbTkhdW0NIXTJbQ0gyXVtDSDJdTihbQ0gyXVtDSDJdMilbQ0gyXUMoPU8pW05IMl0=

> <s_epik_cmdline>
J2VwaWtfcHl0aG9uJywgJy1waCcsICc3LjAnLCAnLXRuJywgJzgnLCAnLW1hJywgJzIwMCcsICctbWV0YWxfYmluZGluZycsICctaW1hZScsICc8aW5maWxlLm1hZT4nLCAnLW9tYWUnLCAnPG91dGZpbGUubWFlPic=

> <r_epik_Ionization_Penalty>
7.07562

> <r_epik_Ionization_Penalty_Charging>
7.07548

> <r_epik_Ionization_Penalty_Neutral>
0.00013758

> <r_epik_State_Penalty>
7.16607

> <r_epik_Charging_Adjusted_Penalty>
14.2416

> <i_epik_Tot_Q>
0

> <i_epik_Tot_abs_Q>
2

> <r_epik_Metal_State_Penalty>
3.11438

> <b_epik_Metal_Only>
1

> <s_lp_Force_Field>
OPLS_2005

> <r_lp_Energy>
2.10932

> <b_lp_Chiralities_Consistent>
1

> <s_lp_Variant>
AV-unprocessed.smi:1417-6

> <Gold.Version>
5.8.1

> <Gold.Id.Protein>
6NUR|6NUR_protein|mol2

> <Gold.PLP.Fitness>
44.2593

> <Gold.PLP.PLP>
-27.3025

> <Gold.PLP.part.hbond>
-5.7112

> <Gold.PLP.part.metal>
0.0000

> <Gold.PLP.part.buried>
-1.1749

> <Gold.PLP.part.nonpolar>
-20.2133

> <Gold.PLP.part.repulsive>
0.4014

> <Gold.PLP.ligand.clash>
0.0000

> <Gold.PLP.ligand.torsion>
0.3530

> <Gold.PLP.Chemscore.Hbond>
5.7784

> <Gold.PLP.Chemscore.CHOScore>
0.0000

> <Gold.PLP.Chemscore.Metal>
0.0000

> <Gold.Chemscore.Hbonds>
donor molecule, donor type, donor heavy atom, donor atom, acceptor molecule, acceptor atom, score
      L1  H     8    25       P1  7957  0.90
      L1  H    12    39       P1 10175  2.00
      L1  H    15    34       P1 10175  1.00
      P1  H  7989  7998       L1     5  1.00
      P1  H  7997  8010       L1    20  0.87

> <Gold.PLP.Chemscore.Internal.Correction>
0.3277

> <Gold.Rescore>
     Score         DG    S(hbond)    S(metal)    S(lipo)     H(rot)  DE(clash)    DE(int)     intcor
     16.59     -20.23       4.09        0.00      53.59       2.02       1.81       1.83       ----

> <Gold.Chemscore.Fitness>
16.5918

> <Gold.Chemscore.DG>
-20.2273

> <Gold.Chemscore.ZeroCoef>
-5.4800

> <Gold.Chemscore.Hbond>
4.0881

> <Gold.Chemscore.Metal>
0.0000

> <Gold.Chemscore.Lipo>
53.5883

> <Gold.Chemscore.Internal_Hbond>
0.0000

> <Gold.Chemscore.DEClash>
1.8081

> <Gold.Chemscore.DEInternal>
1.8274

> <Gold.Chemscore.Rot>
2.0222

> <Gold.Chemscore.Internal.Correction>
   9.000000E+99

> <Gold.Chemscore.Hbonds>
donor molecule, donor type, donor heavy atom, donor atom, acceptor molecule, acceptor atom, score
      L1  H     8    25       P1  7957  0.88
      L1  H    12    39       P1 10175  1.00
      L1  H    15    34       P1 10175  0.94
      P1  H  7989  7998       L1     5  0.55
      P1  H  7997  8010       L1    20  0.18

> <Gold.Chemscore.Hbond.Weighted>
-13.6544

> <Gold.Chemscore.Metal.Weighted>
-0.0000

> <Gold.Chemscore.Lipo.Weighted>
-6.2698

> <Gold.Chemscore.Internal_Hbond.Weighted>
0.0000

> <Gold.Chemscore.DEClash.Weighted>
1.8081

> <Gold.Chemscore.DEInternal.Weighted>
1.8274

> <Gold.Chemscore.Rot.Weighted>
5.1769

> <Gold.Chemscore.Internal.Correction.Weighted>
   9.000000E+99

> <Gold.Protein.RotatedTorsions>
[ 6907 6896 6895 6894 ] final   14.17 input  -60.11 | X-H torsion
[ 7974 7965 7964 7962 ] final   69.32 input  175.53 | X-H torsion
[ 8008 7997 7996 7995 ] final   33.79 input   59.86 | X-H torsion
[ 10167 10162 10161 10158 ] final  -29.61 input  -65.29 | X-H torsion
[ 10718 10713 10712 10709 ] final -110.63 input   66.30 | X-H torsion
[ 10763 10752 10751 10750 ] final  -70.27 input  -60.55 | X-H torsion
[ 11005 11000 10999 10996 ] final  178.18 input  -57.11 | X-H torsion

> <Gold.Protein.ActiveResidues>
 VAL166  LYS551  ARG553  GLY616  TRP617  ASP618  TYR619  PRO620  LYS621  CYS622 
 ASP623  PHE694  ASN695  SER759  ASP760  ASP761  ALA762  ILE779  LEU786  VAL792 
 PHE793  MET794  SER795  GLU796  ALA797  LYS798  CYS799  TRP800  GLU811  SER814 

> <Gold.Protein.RotatedAtoms>
  151.7979  135.0717  160.0396 H   0  0  0  0  0  0  0  0  0  0  0  0  # atno 6907 bound_to 6896
  152.3110  133.5748  159.5689 H   0  0  0  0  0  0  0  0  0  0  0  0  # atno 6908 bound_to 6896
  150.7320  134.0069  159.3698 H   0  0  0  0  0  0  0  0  0  0  0  0  # atno 6909 bound_to 6896
  145.7918  139.2938  143.1206 H   0  0  0  0  0  0  0  0  0  0  0  0  # atno 7974 bound_to 7965
  155.1443  140.3269  155.4445 H   0  0  0  0  0  0  0  0  0  0  0  0  # atno 8008 bound_to 7997
  156.2595  140.1988  156.6507 H   0  0  0  0  0  0  0  0  0  0  0  0  # atno 8009 bound_to 7997
  154.6519  140.0557  156.9952 H   0  0  0  0  0  0  0  0  0  0  0  0  # atno 8010 bound_to 7997
  140.7258  143.3914  151.1422 H   0  0  0  0  0  0  0  0  0  0  0  0  # atno 10167 bound_to 10162
  156.0601  130.5825  150.8263 H   0  0  0  0  0  0  0  0  0  0  0  0  # atno 10718 bound_to 10713
  154.4152  135.5999  153.5977 H   0  0  0  0  0  0  0  0  0  0  0  0  # atno 10763 bound_to 10752
  152.9791  135.5939  154.4021 H   0  0  0  0  0  0  0  0  0  0  0  0  # atno 10764 bound_to 10752
  154.3839  135.2841  155.2173 H   0  0  0  0  0  0  0  0  0  0  0  0  # atno 10765 bound_to 10752
  140.3922  134.6852  157.4514 H   0  0  0  0  0  0  0  0  0  0  0  0  # atno 11005 bound_to 11000
  145.9969  140.8554  143.0038 LP  0  0  0  0  0  0  0  0  0  0  0  0  # atno 17320 bound_to 7965
  144.6781  140.2296  143.7357 LP  0  0  0  0  0  0  0  0  0  0  0  0  # atno 17321 bound_to 7965
  139.7520  143.8764  152.3079 LP  0  0  0  0  0  0  0  0  0  0  0  0  # atno 17342 bound_to 10162
  139.8621  144.7112  150.9087 LP  0  0  0  0  0  0  0  0  0  0  0  0  # atno 17343 bound_to 10162
  157.5604  131.0946  150.9568 LP  0  0  0  0  0  0  0  0  0  0  0  0  # atno 17370 bound_to 10713
  156.9807  130.5526  149.5296 LP  0  0  0  0  0  0  0  0  0  0  0  0  # atno 17371 bound_to 10713
  140.0398  134.6284  155.8996 LP  0  0  0  0  0  0  0  0  0  0  0  0  # atno 17394 bound_to 11000
  141.1886  133.6563  156.5334 LP  0  0  0  0  0  0  0  0  0  0  0  0  # atno 17395 bound_to 11000

$$$$
