AV-unprocessed.smi:652|AV-procd|sdf|3199|dock5
  -GOLD-   22720 0133D 1   1.00000     0.00000
 Structure written by MMmdl.
 49 50  0  0  0  0  0  0  0  0  3 V2000
  152.5470  143.2986  160.7796 C   0  0  0  0  0  0  0  0  0  0  0  0
  152.5968  144.0910  159.4663 C   0  0  0  0  0  0  0  0  0  0  0  0
  151.6820  145.3252  159.5155 C   0  0  0  0  0  0  0  0  0  0  0  0
  152.2187  143.2178  158.3584 N   0  0  0  0  0  0  0  0  0  0  0  0
  151.0838  142.5051  158.2815 C   0  0  0  0  0  0  0  0  0  0  0  0
  150.2189  142.5173  159.1576 O   0  0  0  0  0  0  0  0  0  0  0  0
  150.9074  141.6511  157.0210 C   0  0  0  0  0  0  0  0  0  0  0  0
  149.4719  141.6968  156.4567 C   0  0  0  0  0  0  0  0  0  0  0  0
  148.6552  140.5296  156.8854 N   0  3  2  0  0  0  0  0  0  0  0  0
  148.7605  139.3661  155.9708 C   0  0  0  0  0  0  0  0  0  0  0  0
  147.9200  139.5802  154.6990 C   0  0  0  0  0  0  0  0  0  0  0  0
  146.5635  139.8125  155.0597 O   0  0  0  0  0  0  0  0  0  0  0  0
  146.4023  140.9732  155.8693 C   0  0  1  0  0  0  0  0  0  0  0  0
  144.8998  141.1999  156.1125 C   0  0  0  0  0  0  0  0  0  0  0  0
  144.2659  141.9513  155.0376 N   0  0  0  0  0  0  0  0  0  0  0  0
  144.0966  143.3382  155.1441 C   0  0  0  0  0  0  0  0  0  0  0  0
  144.5104  144.1052  156.2580 C   0  0  0  0  0  0  0  0  0  0  0  0
  144.2820  145.4917  156.2338 C   0  0  0  0  0  0  0  0  0  0  0  0
  143.6526  146.0287  155.0968 C   0  0  0  0  0  0  0  0  0  0  0  0
  143.2640  145.2781  154.0420 N   0  0  0  0  0  0  0  0  0  0  0  0
  143.4964  143.9548  154.0950 N   0  3  0  0  0  0  0  0  0  0  0  0
  147.2286  140.8334  157.1708 C   0  0  0  0  0  0  0  0  0  0  0  0
  152.8537  143.9191  161.6222 H   0  0  0  0  0  0  0  0  0  0  0  0
  153.2155  142.4374  160.7459 H   0  0  0  0  0  0  0  0  0  0  0  0
  151.5404  142.9327  160.9859 H   0  0  0  0  0  0  0  0  0  0  0  0
  153.6255  144.4258  159.3197 H   0  0  0  0  0  0  0  0  0  0  0  0
  151.9594  145.9846  160.3384 H   0  0  0  0  0  0  0  0  0  0  0  0
  150.6386  145.0406  159.6557 H   0  0  0  0  0  0  0  0  0  0  0  0
  151.7488  145.9066  158.5954 H   0  0  0  0  0  0  0  0  0  0  0  0
  152.8732  143.1521  157.5921 H   0  0  0  0  0  0  0  0  0  0  0  0
  151.6131  142.0073  156.2693 H   0  0  0  0  0  0  0  0  0  0  0  0
  151.1924  140.6262  157.2583 H   0  0  0  0  0  0  0  0  0  0  0  0
  148.9816  142.6326  156.7256 H   0  0  0  0  0  0  0  0  0  0  0  0
  149.5332  141.6882  155.3672 H   0  0  0  0  0  0  0  0  0  0  0  0
  149.8025  139.1656  155.7179 H   0  0  0  0  0  0  0  0  0  0  0  0
  148.3997  138.4808  156.4961 H   0  0  0  0  0  0  0  0  0  0  0  0
  148.3023  140.4117  154.1052 H   0  0  0  0  0  0  0  0  0  0  0  0
  147.9668  138.6934  154.0668 H   0  0  0  0  0  0  0  0  0  0  0  0
  146.7644  141.8339  155.3054 H   0  0  0  0  0  0  0  0  0  0  0  0
  144.3983  140.2370  156.2174 H   0  0  0  0  0  0  0  0  0  0  0  0
  144.7621  141.7373  157.0517 H   0  0  0  0  0  0  0  0  0  0  0  0
  144.1504  141.5049  154.1389 H   0  0  0  0  0  0  0  0  0  0  0  0
  144.9900  143.6566  157.1153 H   0  0  0  0  0  0  0  0  0  0  0  0
  144.5781  146.1232  157.0586 H   0  0  0  0  0  0  0  0  0  0  0  0
  143.4542  147.0885  155.0301 H   0  0  0  0  0  0  0  0  0  0  0  0
  146.8355  140.0118  157.7706 H   0  0  0  0  0  0  0  0  0  0  0  0
  147.1312  141.7270  157.7859 H   0  0  0  0  0  0  0  0  0  0  0  0
  149.0680  140.2293  157.7574 H   0  0  0  0  0  0  0  0  0  0  0  0
  143.2066  143.3830  153.3012 H   0  0  0  0  0  0  0  0  0  0  0  0
  1  2  1  0  0  0  0
  1 23  1  0  0  0  0
  1 24  1  0  0  0  0
  1 25  1  0  0  0  0
  2  3  1  0  0  0  0
  2  4  1  0  0  0  0
  2 26  1  0  0  0  0
  3 27  1  0  0  0  0
  3 28  1  0  0  0  0
  3 29  1  0  0  0  0
  4  5  1  0  0  0  0
  4 30  1  0  0  0  0
  5  6  2  0  0  0  0
  5  7  1  0  0  0  0
  7  8  1  0  0  0  0
  7 31  1  0  0  0  0
  7 32  1  0  0  0  0
  8  9  1  0  0  0  0
  8 33  1  0  0  0  0
  8 34  1  0  0  0  0
  9 22  1  0  0  0  0
  9 10  1  0  0  0  0
  9 48  1  0  0  0  0
 10 11  1  0  0  0  0
 10 35  1  0  0  0  0
 10 36  1  0  0  0  0
 11 12  1  0  0  0  0
 11 37  1  0  0  0  0
 11 38  1  0  0  0  0
 12 13  1  0  0  0  0
 13 14  1  0  0  0  0
 13 22  1  0  0  0  0
 13 39  1  0  0  0  0
 14 15  1  0  0  0  0
 14 40  1  0  0  0  0
 14 41  1  0  0  0  0
 15 16  1  0  0  0  0
 15 42  1  0  0  0  0
 16 21  1  0  0  0  0
 16 17  2  0  0  0  0
 17 18  1  0  0  0  0
 17 43  1  0  0  0  0
 18 19  2  0  0  0  0
 18 44  1  0  0  0  0
 19 20  1  0  0  0  0
 19 45  1  0  0  0  0
 20 21  2  0  0  0  0
 21 49  1  0  0  0  0
 22 46  1  0  0  0  0
 22 47  1  0  0  0  0
M  CHG  1   9   1
M  CHG  1  21   1
M  END
> <s_m_source_file>
AV-unprocessed.smi

> <i_m_source_file_index>
652

> <i_lp_mmshare_version>
43012

> <i_f3d_flags>
0

> <s_epik_input>
W0NIM11bQ0hdKFtDSDNdKVtOSF1DKD1PKVtDSDJdW0NIMl1OMVtDSDJdW0NIMl1PW0NASF0oW0NIMl0xKVtDSDJdW05IXWMyW2NIXVtjSF1bY0hdbm4y

> <s_epik_cmdline>
J2VwaWtfcHl0aG9uJywgJy1waCcsICc3LjAnLCAnLXRuJywgJzgnLCAnLW1hJywgJzIwMCcsICctbWV0YWxfYmluZGluZycsICctaW1hZScsICc8aW5maWxlLm1hZT4nLCAnLW9tYWUnLCAnPG91dGZpbGUubWFlPic=

> <r_lp_tautomer_probability>
0.966961

> <r_epik_Ionization_Penalty>
2.79885

> <r_epik_Ionization_Penalty_Charging>
2.79884

> <r_epik_Ionization_Penalty_Neutral>
3.2567e-06

> <r_epik_State_Penalty>
2.43203

> <r_epik_Charging_Adjusted_Penalty>
5.23087

> <i_epik_Tot_Q>
2

> <i_epik_Tot_abs_Q>
2

> <r_epik_Metal_State_Penalty>
2.43963

> <b_epik_Metal_Only>
0

> <s_lp_Force_Field>
OPLS_2005

> <r_lp_Energy>
35.8493

> <b_lp_Chiralities_Consistent>
1

> <s_lp_Variant>
AV-unprocessed.smi:652-8

> <Gold.Version>
5.8.1

> <Gold.Id.Protein>
6NUR|6NUR_protein|mol2

> <Gold.PLP.Fitness>
40.0336

> <Gold.PLP.PLP>
-30.8966

> <Gold.PLP.part.hbond>
-3.0859

> <Gold.PLP.part.metal>
0.0000

> <Gold.PLP.part.buried>
-5.9959

> <Gold.PLP.part.nonpolar>
-23.2426

> <Gold.PLP.part.repulsive>
0.3156

> <Gold.PLP.ligand.clash>
0.0000

> <Gold.PLP.ligand.torsion>
1.4788

> <Gold.PLP.Chemscore.Hbond>
4.0000

> <Gold.PLP.Chemscore.CHOScore>
0.0000

> <Gold.PLP.Chemscore.Metal>
0.0000

> <Gold.Chemscore.Hbonds>
donor molecule, donor type, donor heavy atom, donor atom, acceptor molecule, acceptor atom, score
      L1  H    15    42       P1 10175  1.90
      L1  H    21    49       P1 10174  2.00

> <Gold.PLP.Chemscore.Internal.Correction>
0.0945

> <Gold.Rescore>
     Score         DG    S(hbond)    S(metal)    S(lipo)     H(rot)  DE(clash)    DE(int)     intcor
     10.60     -13.22       1.55        0.00      72.85       2.33       0.17       2.45       ----

> <Gold.Chemscore.Fitness>
10.6030

> <Gold.Chemscore.DG>
-13.2227

> <Gold.Chemscore.ZeroCoef>
-5.4800

> <Gold.Chemscore.Hbond>
1.5539

> <Gold.Chemscore.Metal>
0.0000

> <Gold.Chemscore.Lipo>
72.8546

> <Gold.Chemscore.Internal_Hbond>
0.0000

> <Gold.Chemscore.DEClash>
0.1739

> <Gold.Chemscore.DEInternal>
2.4458

> <Gold.Chemscore.Rot>
2.3326

> <Gold.Chemscore.Internal.Correction>
   9.000000E+99

> <Gold.Chemscore.Hbonds>
donor molecule, donor type, donor heavy atom, donor atom, acceptor molecule, acceptor atom, score
      L1  H    15    42       P1 10175  0.21
      L1  H    21    49       P1 10174  0.92

> <Gold.Chemscore.Hbond.Weighted>
-5.1901

> <Gold.Chemscore.Metal.Weighted>
-0.0000

> <Gold.Chemscore.Lipo.Weighted>
-8.5240

> <Gold.Chemscore.Internal_Hbond.Weighted>
0.0000

> <Gold.Chemscore.DEClash.Weighted>
0.1739

> <Gold.Chemscore.DEInternal.Weighted>
2.4458

> <Gold.Chemscore.Rot.Weighted>
5.9714

> <Gold.Chemscore.Internal.Correction.Weighted>
   9.000000E+99

> <Gold.Protein.RotatedTorsions>
[ 6907 6896 6895 6894 ] final -148.53 input  -60.11 | X-H torsion
[ 7974 7965 7964 7962 ] final   93.11 input  175.53 | X-H torsion
[ 8008 7997 7996 7995 ] final  105.14 input   59.86 | X-H torsion
[ 10167 10162 10161 10158 ] final  104.83 input  -65.29 | X-H torsion
[ 10718 10713 10712 10709 ] final  -38.09 input   66.30 | X-H torsion
[ 10763 10752 10751 10750 ] final -168.22 input  -60.55 | X-H torsion
[ 11005 11000 10999 10996 ] final  136.00 input  -57.11 | X-H torsion

> <Gold.Protein.ActiveResidues>
 VAL166  LYS551  ARG553  GLY616  TRP617  ASP618  TYR619  PRO620  LYS621  CYS622 
 ASP623  PHE694  ASN695  SER759  ASP760  ASP761  ALA762  ILE779  LEU786  VAL792 
 PHE793  MET794  SER795  GLU796  ALA797  LYS798  CYS799  TRP800  GLU811  SER814 

> <Gold.Protein.RotatedAtoms>
  151.1712  133.4783  159.2593 H   0  0  0  0  0  0  0  0  0  0  0  0  # atno 6907 bound_to 6896
  151.1354  135.0152  159.8612 H   0  0  0  0  0  0  0  0  0  0  0  0  # atno 6908 bound_to 6896
  152.5461  134.1610  159.8611 H   0  0  0  0  0  0  0  0  0  0  0  0  # atno 6909 bound_to 6896
  145.4833  139.2278  143.2870 H   0  0  0  0  0  0  0  0  0  0  0  0  # atno 7974 bound_to 7965
  156.1633  140.3135  155.8845 H   0  0  0  0  0  0  0  0  0  0  0  0  # atno 8008 bound_to 7997
  155.3737  140.0483  157.3062 H   0  0  0  0  0  0  0  0  0  0  0  0  # atno 8009 bound_to 7997
  154.5168  140.2184  155.9062 H   0  0  0  0  0  0  0  0  0  0  0  0  # atno 8010 bound_to 7997
  139.7144  144.7071  151.0974 H   0  0  0  0  0  0  0  0  0  0  0  0  # atno 10167 bound_to 10162
  156.3077  130.4248  149.8081 H   0  0  0  0  0  0  0  0  0  0  0  0  # atno 10718 bound_to 10713
  154.6651  135.2931  154.9815 H   0  0  0  0  0  0  0  0  0  0  0  0  # atno 10763 bound_to 10752
  154.0861  135.6597  153.4849 H   0  0  0  0  0  0  0  0  0  0  0  0  # atno 10764 bound_to 10752
  153.0453  135.5209  154.7621 H   0  0  0  0  0  0  0  0  0  0  0  0  # atno 10765 bound_to 10752
  140.0017  134.9476  157.0086 H   0  0  0  0  0  0  0  0  0  0  0  0  # atno 11005 bound_to 11000
  146.2328  140.5622  142.8968 LP  0  0  0  0  0  0  0  0  0  0  0  0  # atno 17320 bound_to 7965
  144.7876  140.5967  143.6563 LP  0  0  0  0  0  0  0  0  0  0  0  0  # atno 17321 bound_to 7965
  140.7740  143.5250  150.9491 LP  0  0  0  0  0  0  0  0  0  0  0  0  # atno 17342 bound_to 10162
  139.8935  143.6923  152.3142 LP  0  0  0  0  0  0  0  0  0  0  0  0  # atno 17343 bound_to 10162
  156.5436  130.8310  151.3277 LP  0  0  0  0  0  0  0  0  0  0  0  0  # atno 17370 bound_to 10713
  157.7383  130.9812  150.2247 LP  0  0  0  0  0  0  0  0  0  0  0  0  # atno 17371 bound_to 10713
  140.4716  134.1381  155.7204 LP  0  0  0  0  0  0  0  0  0  0  0  0  # atno 17394 bound_to 11000
  141.1647  133.8726  157.1749 LP  0  0  0  0  0  0  0  0  0  0  0  0  # atno 17395 bound_to 11000

$$$$
