AV-unprocessed.smi:926|AV-procd|sdf|4183|dock10
  -GOLD-   22720 2 83D 1   1.00000     0.00000
 Structure written by MMmdl.
 37 39  0  0  0  0  0  0  0  0  1 V2000
  147.8001  140.3700  155.0343 O   0  0  0  0  0  0  0  0  0  0  0  0
  149.0203  140.2087  155.0138 C   0  0  0  0  0  0  0  0  0  0  0  0
  149.6349  139.1559  154.0922 C   0  0  0  0  0  0  0  0  0  0  0  0
  150.9911  138.8428  154.5013 N   0  0  0  0  0  0  0  0  0  0  0  0
  151.5823  137.6742  154.7599 C   0  0  0  0  0  0  0  0  0  0  0  0
  152.8473  137.8352  155.1173 N   0  0  0  0  0  0  0  0  0  0  0  0
  153.0169  139.2088  155.0647 N   0  0  0  0  0  0  0  0  0  0  0  0
  151.9189  139.8119  154.6996 N   0  0  0  0  0  0  0  0  0  0  0  0
  149.8734  140.9086  155.7781 N   0  0  0  0  0  0  0  0  0  0  0  0
  149.4813  141.9176  156.7538 C   0  0  0  0  0  0  0  0  0  0  0  0
  150.2717  141.7635  158.0649 C   0  0  0  0  0  0  0  0  0  0  0  0
  151.6321  142.4877  158.0473 C   0  0  2  0  0  0  0  0  0  0  0  0
  152.4267  142.3601  159.3650 C   0  0  0  0  0  0  0  0  0  0  0  0
  152.8000  143.8194  159.6865 C   0  0  2  0  0  0  0  0  0  0  0  0
  151.5449  144.5671  160.1737 C   0  0  0  0  0  0  0  0  0  0  0  0
  150.7275  144.7342  158.8797 C   0  0  0  0  0  0  0  0  0  0  0  0
  151.6029  144.0209  157.8286 C   0  0  1  0  0  0  0  0  0  0  0  0
  153.0011  144.4120  158.2966 C   0  0  0  0  0  0  0  0  0  0  0  0
  149.0416  138.2410  154.1201 H   0  0  0  0  0  0  0  0  0  0  0  0
  149.6352  139.5112  153.0603 H   0  0  0  0  0  0  0  0  0  0  0  0
  151.0891  136.7156  154.6918 H   0  0  0  0  0  0  0  0  0  0  0  0
  150.8603  140.7110  155.6950 H   0  0  0  0  0  0  0  0  0  0  0  0
  149.6637  142.9019  156.3219 H   0  0  0  0  0  0  0  0  0  0  0  0
  148.4077  141.8523  156.9367 H   0  0  0  0  0  0  0  0  0  0  0  0
  149.6728  142.1095  158.9070 H   0  0  0  0  0  0  0  0  0  0  0  0
  150.4447  140.7027  158.2497 H   0  0  0  0  0  0  0  0  0  0  0  0
  152.2302  142.0481  157.2473 H   0  0  0  0  0  0  0  0  0  0  0  0
  151.8488  141.9029  160.1694 H   0  0  0  0  0  0  0  0  0  0  0  0
  153.3200  141.7524  159.2149 H   0  0  0  0  0  0  0  0  0  0  0  0
  153.6536  143.9144  160.3583 H   0  0  0  0  0  0  0  0  0  0  0  0
  151.0028  144.0106  160.9389 H   0  0  0  0  0  0  0  0  0  0  0  0
  151.8067  145.5409  160.5896 H   0  0  0  0  0  0  0  0  0  0  0  0
  149.7204  144.3265  158.9572 H   0  0  0  0  0  0  0  0  0  0  0  0
  150.6264  145.7919  158.6333 H   0  0  0  0  0  0  0  0  0  0  0  0
  151.3751  144.3120  156.8027 H   0  0  0  0  0  0  0  0  0  0  0  0
  153.1712  145.4901  158.3057 H   0  0  0  0  0  0  0  0  0  0  0  0
  153.8005  143.9293  157.7313 H   0  0  0  0  0  0  0  0  0  0  0  0
  1  2  2  0  0  0  0
  2  3  1  0  0  0  0
  2  9  1  0  0  0  0
  3  4  1  0  0  0  0
  3 19  1  0  0  0  0
  3 20  1  0  0  0  0
  4  8  1  0  0  0  0
  4  5  1  0  0  0  0
  5  6  2  0  0  0  0
  5 21  1  0  0  0  0
  6  7  1  0  0  0  0
  7  8  2  0  0  0  0
  9 10  1  0  0  0  0
  9 22  1  0  0  0  0
 10 11  1  0  0  0  0
 10 23  1  0  0  0  0
 10 24  1  0  0  0  0
 11 12  1  0  0  0  0
 11 25  1  0  0  0  0
 11 26  1  0  0  0  0
 12 17  1  0  0  0  0
 12 13  1  0  0  0  0
 12 27  1  0  0  0  0
 13 14  1  0  0  0  0
 13 28  1  0  0  0  0
 13 29  1  0  0  0  0
 14 18  1  0  0  0  0
 14 15  1  0  0  0  0
 14 30  1  0  0  0  0
 15 16  1  0  0  0  0
 15 31  1  0  0  0  0
 15 32  1  0  0  0  0
 16 17  1  0  0  0  0
 16 33  1  0  0  0  0
 16 34  1  0  0  0  0
 17 18  1  0  0  0  0
 17 35  1  0  0  0  0
 18 36  1  0  0  0  0
 18 37  1  0  0  0  0
M  END
> <s_m_source_file>
AV-unprocessed.smi

> <i_m_source_file_index>
926

> <i_lp_mmshare_version>
43012

> <i_f3d_flags>
0

> <s_epik_input>
bjFubltjSF1uMVtDSDJdQyg9TylbTkhdW0NIMl1bQ0gyXVtDQEhdKFtDSDJdW0NASF0yMylbQ0BIXShbQ0gyXTMpW0NIMl1bQ0gyXTI=

> <s_epik_cmdline>
J2VwaWtfcHl0aG9uJywgJy1waCcsICc3LjAnLCAnLXRuJywgJzgnLCAnLW1hJywgJzIwMCcsICctbWV0YWxfYmluZGluZycsICctaW1hZScsICc8aW5maWxlLm1hZT4nLCAnLW9tYWUnLCAnPG91dGZpbGUubWFlPic=

> <r_lp_tautomer_probability>
1

> <r_epik_Ionization_Penalty>
4.22645e-07

> <r_epik_Ionization_Penalty_Charging>
0

> <r_epik_Ionization_Penalty_Neutral>
4.22645e-07

> <r_epik_State_Penalty>
-0

> <r_epik_Charging_Adjusted_Penalty>
0

> <i_epik_Tot_Q>
0

> <i_epik_Tot_abs_Q>
0

> <r_epik_Metal_State_Penalty>
-0

> <b_epik_Metal_Only>
0

> <s_lp_Force_Field>
OPLS_2005

> <r_lp_Energy>
51.1932

> <b_lp_Chiralities_Consistent>
1

> <s_lp_Variant>
AV-unprocessed.smi:926-1

> <Gold.Version>
5.8.1

> <Gold.Id.Protein>
6NUR|6NUR_protein|mol2

> <Gold.PLP.Fitness>
45.1697

> <Gold.PLP.PLP>
-40.3289

> <Gold.PLP.part.hbond>
-3.0000

> <Gold.PLP.part.metal>
0.0000

> <Gold.PLP.part.buried>
-4.4309

> <Gold.PLP.part.nonpolar>
-33.3720

> <Gold.PLP.part.repulsive>
0.2517

> <Gold.PLP.ligand.clash>
0.0000

> <Gold.PLP.ligand.torsion>
0.5412

> <Gold.PLP.Chemscore.Hbond>
1.9694

> <Gold.PLP.Chemscore.CHOScore>
0.0000

> <Gold.PLP.Chemscore.Metal>
0.0000

> <Gold.Chemscore.Hbonds>
donor molecule, donor type, donor heavy atom, donor atom, acceptor molecule, acceptor atom, score
      P1  H  7989  7998       L1     8  0.94
      P1  H  7997  8009       L1     7  1.00
      P1  H 10752 10765       L1     6  0.02

> <Gold.PLP.Chemscore.Internal.Correction>
0.0151

> <Gold.Rescore>
     Score         DG    S(hbond)    S(metal)    S(lipo)     H(rot)  DE(clash)    DE(int)     intcor
     16.61     -17.17       1.87        0.00     102.16       2.54       0.06       0.50       ----

> <Gold.Chemscore.Fitness>
16.6131

> <Gold.Chemscore.DG>
-17.1658

> <Gold.Chemscore.ZeroCoef>
-5.4800

> <Gold.Chemscore.Hbond>
1.8697

> <Gold.Chemscore.Metal>
0.0000

> <Gold.Chemscore.Lipo>
102.1609

> <Gold.Chemscore.Internal_Hbond>
0.0000

> <Gold.Chemscore.DEClash>
0.0565

> <Gold.Chemscore.DEInternal>
0.4962

> <Gold.Chemscore.Rot>
2.5436

> <Gold.Chemscore.Internal.Correction>
   9.000000E+99

> <Gold.Chemscore.Hbonds>
donor molecule, donor type, donor heavy atom, donor atom, acceptor molecule, acceptor atom, score
      P1  H  7989  7998       L1     8  0.45
      P1  H  7997  8009       L1     7  0.97

> <Gold.Chemscore.Hbond.Weighted>
-6.2447

> <Gold.Chemscore.Metal.Weighted>
-0.0000

> <Gold.Chemscore.Lipo.Weighted>
-11.9528

> <Gold.Chemscore.Internal_Hbond.Weighted>
0.0000

> <Gold.Chemscore.DEClash.Weighted>
0.0565

> <Gold.Chemscore.DEInternal.Weighted>
0.4962

> <Gold.Chemscore.Rot.Weighted>
6.5117

> <Gold.Chemscore.Internal.Correction.Weighted>
   9.000000E+99

> <Gold.Protein.RotatedTorsions>
[ 6907 6896 6895 6894 ] final  127.60 input  -60.11 | X-H torsion
[ 7974 7965 7964 7962 ] final -150.39 input  175.53 | X-H torsion
[ 8008 7997 7996 7995 ] final -141.22 input   59.86 | X-H torsion
[ 10167 10162 10161 10158 ] final   33.65 input  -65.29 | X-H torsion
[ 10718 10713 10712 10709 ] final   23.79 input   66.30 | X-H torsion
[ 10763 10752 10751 10750 ] final  178.12 input  -60.55 | X-H torsion
[ 11005 11000 10999 10996 ] final   -1.04 input  -57.11 | X-H torsion

> <Gold.Protein.ActiveResidues>
 VAL166  LYS551  ARG553  GLY616  TRP617  ASP618  TYR619  PRO620  LYS621  CYS622 
 ASP623  PHE694  ASN695  SER759  ASP760  ASP761  ALA762  ILE779  LEU786  VAL792 
 PHE793  MET794  SER795  GLU796  ALA797  LYS798  CYS799  TRP800  GLU811  SER814 

> <Gold.Protein.RotatedAtoms>
  152.3797  133.6529  159.6151 H   0  0  0  0  0  0  0  0  0  0  0  0  # atno 6907 bound_to 6896
  150.7731  133.9134  159.3385 H   0  0  0  0  0  0  0  0  0  0  0  0  # atno 6908 bound_to 6896
  151.6942  135.0942  160.0290 H   0  0  0  0  0  0  0  0  0  0  0  0  # atno 6909 bound_to 6896
  144.7910  140.4938  143.5772 H   0  0  0  0  0  0  0  0  0  0  0  0  # atno 7974 bound_to 7965
  155.4742  140.0555  157.2975 H   0  0  0  0  0  0  0  0  0  0  0  0  # atno 8008 bound_to 7997
  154.4686  140.2030  156.0006 H   0  0  0  0  0  0  0  0  0  0  0  0  # atno 8009 bound_to 7997
  156.1017  140.3218  155.7956 H   0  0  0  0  0  0  0  0  0  0  0  0  # atno 8010 bound_to 7997
  140.4388  144.1218  150.6170 H   0  0  0  0  0  0  0  0  0  0  0  0  # atno 10167 bound_to 10162
  157.1710  130.6759  149.6078 H   0  0  0  0  0  0  0  0  0  0  0  0  # atno 10718 bound_to 10713
  154.5035  135.2785  155.1402 H   0  0  0  0  0  0  0  0  0  0  0  0  # atno 10763 bound_to 10752
  154.3026  135.6245  153.5435 H   0  0  0  0  0  0  0  0  0  0  0  0  # atno 10764 bound_to 10752
  152.9906  135.5700  154.5483 H   0  0  0  0  0  0  0  0  0  0  0  0  # atno 10765 bound_to 10752
  140.6430  133.9473  155.8336 H   0  0  0  0  0  0  0  0  0  0  0  0  # atno 11005 bound_to 11000
  145.5794  139.1488  143.3244 LP  0  0  0  0  0  0  0  0  0  0  0  0  # atno 17320 bound_to 7965
  146.2162  140.5925  142.9037 LP  0  0  0  0  0  0  0  0  0  0  0  0  # atno 17321 bound_to 7965
  140.4343  143.2554  151.9556 LP  0  0  0  0  0  0  0  0  0  0  0  0  # atno 17342 bound_to 10162
  139.4788  144.5715  151.8081 LP  0  0  0  0  0  0  0  0  0  0  0  0  # atno 17343 bound_to 10162
  155.9738  130.4679  150.6341 LP  0  0  0  0  0  0  0  0  0  0  0  0  # atno 17370 bound_to 10713
  157.4043  131.0814  151.1279 LP  0  0  0  0  0  0  0  0  0  0  0  0  # atno 17371 bound_to 10713
  141.0593  134.0370  157.3680 LP  0  0  0  0  0  0  0  0  0  0  0  0  # atno 17394 bound_to 11000
  139.9073  135.0182  156.7542 LP  0  0  0  0  0  0  0  0  0  0  0  0  # atno 17395 bound_to 11000

$$$$
