AV-unprocessed.smi:1740|AV-procd|sdf|7008|dock10
  -GOLD-   22720 8223D 1   1.00000     0.00000
 Structure written by MMmdl.
 52 54  0  0  0  0  0  0  0  0  2 V2000
  145.3647  136.2954  150.0198 N   0  0  0  0  0  0  0  0  0  0  0  0
  145.2442  135.9988  151.3156 C   0  0  0  0  0  0  0  0  0  0  0  0
  144.6875  136.7528  152.1116 O   0  0  0  0  0  0  0  0  0  0  0  0
  145.8174  134.6534  151.7732 C   0  0  0  0  0  0  0  0  0  0  0  0
  146.9101  134.7955  152.7698 N   0  3  2  0  0  0  0  0  0  0  0  0
  147.3806  133.4918  153.3105 C   0  0  0  0  0  0  0  0  0  0  0  0
  148.6031  133.6789  154.2268 C   0  0  0  0  0  0  0  0  0  0  0  0
  148.3209  134.6735  155.3693 C   0  0  2  0  0  0  0  0  0  0  0  0
  147.3972  134.1135  156.3553 N   0  0  0  0  0  0  0  0  0  0  0  0
  147.5149  134.2345  157.6853 C   0  0  0  0  0  0  0  0  0  0  0  0
  148.4373  134.8369  158.2335 O   0  0  0  0  0  0  0  0  0  0  0  0
  146.4958  133.6281  158.3166 N   0  0  0  0  0  0  0  0  0  0  0  0
  146.2087  133.6004  159.7111 C   0  0  0  0  0  0  0  0  0  0  0  0
  147.1283  134.0868  160.6730 C   0  0  0  0  0  0  0  0  0  0  0  0
  146.8212  133.9749  162.0398 C   0  0  0  0  0  0  0  0  0  0  0  0
  145.6092  133.3638  162.4010 C   0  0  0  0  0  0  0  0  0  0  0  0
  144.7302  132.8827  161.4995 N   0  0  0  0  0  0  0  0  0  0  0  0
  145.0053  132.9964  160.1768 C   0  0  0  0  0  0  0  0  0  0  0  0
  144.0404  132.4868  159.2774 N   0  0  0  0  0  0  0  0  0  0  0  0
  142.7378  133.1446  159.2268 C   0  0  0  0  0  0  0  0  0  0  0  0
  141.7013  132.0391  158.9980 C   0  0  0  0  0  0  0  0  0  0  0  0
  142.5187  130.8926  158.4106 C   0  0  0  0  0  0  0  0  0  0  0  0
  143.8562  131.0469  159.1283 C   0  0  0  0  0  0  0  0  0  0  0  0
  147.7628  135.9858  154.7923 C   0  0  0  0  0  0  0  0  0  0  0  0
  146.5629  135.7446  153.8582 C   0  0  0  0  0  0  0  0  0  0  0  0
  144.9959  137.1685  149.6697 H   0  0  0  0  0  0  0  0  0  0  0  0
  145.8161  135.6484  149.3894 H   0  0  0  0  0  0  0  0  0  0  0  0
  144.9890  134.0975  152.2140 H   0  0  0  0  0  0  0  0  0  0  0  0
  146.1644  134.0720  150.9171 H   0  0  0  0  0  0  0  0  0  0  0  0
  146.5699  133.0080  153.8574 H   0  0  0  0  0  0  0  0  0  0  0  0
  147.6493  132.8215  152.4935 H   0  0  0  0  0  0  0  0  0  0  0  0
  148.9222  132.7159  154.6272 H   0  0  0  0  0  0  0  0  0  0  0  0
  149.4388  134.0478  153.6308 H   0  0  0  0  0  0  0  0  0  0  0  0
  149.2608  134.9031  155.8750 H   0  0  0  0  0  0  0  0  0  0  0  0
  146.6003  133.6070  155.9983 H   0  0  0  0  0  0  0  0  0  0  0  0
  145.7757  133.2398  157.7254 H   0  0  0  0  0  0  0  0  0  0  0  0
  148.0737  134.5220  160.3889 H   0  0  0  0  0  0  0  0  0  0  0  0
  147.5048  134.3370  162.7933 H   0  0  0  0  0  0  0  0  0  0  0  0
  145.3405  133.2515  163.4410 H   0  0  0  0  0  0  0  0  0  0  0  0
  142.5251  133.7074  160.1369 H   0  0  0  0  0  0  0  0  0  0  0  0
  142.7271  133.8408  158.3880 H   0  0  0  0  0  0  0  0  0  0  0  0
  141.2765  131.7315  159.9544 H   0  0  0  0  0  0  0  0  0  0  0  0
  140.8816  132.3538  158.3517 H   0  0  0  0  0  0  0  0  0  0  0  0
  142.0614  129.9155  158.5682 H   0  0  0  0  0  0  0  0  0  0  0  0
  142.6505  131.0389  157.3375 H   0  0  0  0  0  0  0  0  0  0  0  0
  144.6738  130.5974  158.5642 H   0  0  0  0  0  0  0  0  0  0  0  0
  143.8018  130.5594  160.1024 H   0  0  0  0  0  0  0  0  0  0  0  0
  147.4811  136.6644  155.5985 H   0  0  0  0  0  0  0  0  0  0  0  0
  148.5507  136.4925  154.2332 H   0  0  0  0  0  0  0  0  0  0  0  0
  146.2512  136.6976  153.4294 H   0  0  0  0  0  0  0  0  0  0  0  0
  145.7120  135.3586  154.4217 H   0  0  0  0  0  0  0  0  0  0  0  0
  147.6883  135.2056  152.2725 H   0  0  0  0  0  0  0  0  0  0  0  0
  1  2  1  0  0  0  0
  1 26  1  0  0  0  0
  1 27  1  0  0  0  0
  2  3  2  0  0  0  0
  2  4  1  0  0  0  0
  4  5  1  0  0  0  0
  4 28  1  0  0  0  0
  4 29  1  0  0  0  0
  5 25  1  0  0  0  0
  5  6  1  0  0  0  0
  5 52  1  0  0  0  0
  6  7  1  0  0  0  0
  6 30  1  0  0  0  0
  6 31  1  0  0  0  0
  7  8  1  0  0  0  0
  7 32  1  0  0  0  0
  7 33  1  0  0  0  0
  8  9  1  0  0  0  0
  8 24  1  0  0  0  0
  8 34  1  0  0  0  0
  9 10  1  0  0  0  0
  9 35  1  0  0  0  0
 10 11  2  0  0  0  0
 10 12  1  0  0  0  0
 12 13  1  0  0  0  0
 12 36  1  0  0  0  0
 13 18  1  0  0  0  0
 13 14  2  0  0  0  0
 14 15  1  0  0  0  0
 14 37  1  0  0  0  0
 15 16  2  0  0  0  0
 15 38  1  0  0  0  0
 16 17  1  0  0  0  0
 16 39  1  0  0  0  0
 17 18  2  0  0  0  0
 18 19  1  0  0  0  0
 19 23  1  0  0  0  0
 19 20  1  0  0  0  0
 20 21  1  0  0  0  0
 20 40  1  0  0  0  0
 20 41  1  0  0  0  0
 21 22  1  0  0  0  0
 21 42  1  0  0  0  0
 21 43  1  0  0  0  0
 22 23  1  0  0  0  0
 22 44  1  0  0  0  0
 22 45  1  0  0  0  0
 23 46  1  0  0  0  0
 23 47  1  0  0  0  0
 24 25  1  0  0  0  0
 24 48  1  0  0  0  0
 24 49  1  0  0  0  0
 25 50  1  0  0  0  0
 25 51  1  0  0  0  0
M  CHG  1   5   1
M  END
> <s_m_source_file>
AV-unprocessed.smi

> <i_m_source_file_index>
1740

> <i_lp_mmshare_version>
43012

> <i_f3d_flags>
0

> <s_epik_input>
W05IMl1DKD1PKVtDSDJdTjFbQ0gyXVtDSDJdW0NIXShbQ0gyXVtDSDJdMSlbTkhdQyg9TylbTkhdYzJbY0hdW2NIXVtjSF1uYzJOM1tDSDJdW0NIMl1bQ0gyXVtDSDJdMw==

> <s_epik_cmdline>
J2VwaWtfcHl0aG9uJywgJy1waCcsICc3LjAnLCAnLXRuJywgJzgnLCAnLW1hJywgJzIwMCcsICctbWV0YWxfYmluZGluZycsICctaW1hZScsICc8aW5maWxlLm1hZT4nLCAnLW9tYWUnLCAnPG91dGZpbGUubWFlPic=

> <r_lp_tautomer_probability>
1

> <r_epik_Ionization_Penalty>
0.91661

> <r_epik_Ionization_Penalty_Charging>
0.838844

> <r_epik_Ionization_Penalty_Neutral>
0.0777664

> <r_epik_State_Penalty>
0.927046

> <r_epik_Charging_Adjusted_Penalty>
1.76589

> <i_epik_Tot_Q>
1

> <i_epik_Tot_abs_Q>
1

> <r_epik_Metal_State_Penalty>
0.950555

> <b_epik_Metal_Only>
0

> <s_lp_Force_Field>
OPLS_2005

> <r_lp_Energy>
41.6121

> <b_lp_Chiralities_Consistent>
1

> <s_lp_Variant>
AV-unprocessed.smi:1740-3

> <Gold.Version>
5.8.1

> <Gold.Id.Protein>
6NUR|6NUR_protein|mol2

> <Gold.PLP.Fitness>
39.4418

> <Gold.PLP.PLP>
-28.1696

> <Gold.PLP.part.hbond>
-3.0000

> <Gold.PLP.part.metal>
0.0000

> <Gold.PLP.part.buried>
-4.1571

> <Gold.PLP.part.nonpolar>
-21.2541

> <Gold.PLP.part.repulsive>
0.3922

> <Gold.PLP.ligand.clash>
0.0000

> <Gold.PLP.ligand.torsion>
0.5033

> <Gold.PLP.Chemscore.Hbond>
3.9760

> <Gold.PLP.Chemscore.CHOScore>
0.0000

> <Gold.PLP.Chemscore.Metal>
0.0000

> <Gold.Chemscore.Hbonds>
donor molecule, donor type, donor heavy atom, donor atom, acceptor molecule, acceptor atom, score
      L1  H     1    26       P1 10171  1.00
      L1  H     1    27       P1  7921  1.00
      L1  H     5    52       P1  7948  2.00

> <Gold.PLP.Chemscore.Internal.Correction>
0.3509

> <Gold.Rescore>
     Score         DG    S(hbond)    S(metal)    S(lipo)     H(rot)  DE(clash)    DE(int)     intcor
     13.44     -16.90       2.99        0.00      60.15       2.19       0.17       3.28       ----

> <Gold.Chemscore.Fitness>
13.4400

> <Gold.Chemscore.DG>
-16.8978

> <Gold.Chemscore.ZeroCoef>
-5.4800

> <Gold.Chemscore.Hbond>
2.9929

> <Gold.Chemscore.Metal>
0.0000

> <Gold.Chemscore.Lipo>
60.1515

> <Gold.Chemscore.Internal_Hbond>
0.0000

> <Gold.Chemscore.DEClash>
0.1739

> <Gold.Chemscore.DEInternal>
3.2839

> <Gold.Chemscore.Rot>
2.1939

> <Gold.Chemscore.Internal.Correction>
   9.000000E+99

> <Gold.Chemscore.Hbonds>
donor molecule, donor type, donor heavy atom, donor atom, acceptor molecule, acceptor atom, score
      L1  H     1    26       P1 10171  0.96
      L1  H     1    27       P1  7921  0.96
      L1  H     5    52       P1  7948  0.98

> <Gold.Chemscore.Hbond.Weighted>
-9.9964

> <Gold.Chemscore.Metal.Weighted>
-0.0000

> <Gold.Chemscore.Lipo.Weighted>
-7.0377

> <Gold.Chemscore.Internal_Hbond.Weighted>
0.0000

> <Gold.Chemscore.DEClash.Weighted>
0.1739

> <Gold.Chemscore.DEInternal.Weighted>
3.2839

> <Gold.Chemscore.Rot.Weighted>
5.6163

> <Gold.Chemscore.Internal.Correction.Weighted>
   9.000000E+99

> <Gold.Protein.RotatedTorsions>
[ 6907 6896 6895 6894 ] final   25.34 input  -60.11 | X-H torsion
[ 7974 7965 7964 7962 ] final  154.54 input  175.53 | X-H torsion
[ 8008 7997 7996 7995 ] final    4.14 input   59.86 | X-H torsion
[ 10167 10162 10161 10158 ] final  -61.78 input  -65.29 | X-H torsion
[ 10718 10713 10712 10709 ] final -105.52 input   66.30 | X-H torsion
[ 10763 10752 10751 10750 ] final   66.09 input  -60.55 | X-H torsion
[ 11005 11000 10999 10996 ] final   60.90 input  -57.11 | X-H torsion

> <Gold.Protein.ActiveResidues>
 VAL166  LYS551  ARG553  GLY616  TRP617  ASP618  TYR619  PRO620  LYS621  CYS622 
 ASP623  PHE694  ASN695  SER759  ASP760  ASP761  ALA762  ILE779  LEU786  VAL792 
 PHE793  MET794  SER795  GLU796  ALA797  LYS798  CYS799  TRP800  GLU811  SER814 

> <Gold.Protein.RotatedAtoms>
  151.9711  135.0076  160.0552 H   0  0  0  0  0  0  0  0  0  0  0  0  # atno 6907 bound_to 6896
  152.1782  133.4684  159.4952 H   0  0  0  0  0  0  0  0  0  0  0  0  # atno 6908 bound_to 6896
  150.6913  134.1784  159.4282 H   0  0  0  0  0  0  0  0  0  0  0  0  # atno 6909 bound_to 6896
  144.8082  139.6947  143.6153 H   0  0  0  0  0  0  0  0  0  0  0  0  # atno 7974 bound_to 7965
  154.7122  140.2695  155.6618 H   0  0  0  0  0  0  0  0  0  0  0  0  # atno 8008 bound_to 7997
  156.2799  140.2751  156.1692 H   0  0  0  0  0  0  0  0  0  0  0  0  # atno 8009 bound_to 7997
  155.0619  140.0371  157.2569 H   0  0  0  0  0  0  0  0  0  0  0  0  # atno 8010 bound_to 7997
  140.5983  143.2355  151.5986 H   0  0  0  0  0  0  0  0  0  0  0  0  # atno 10167 bound_to 10162
  156.0350  130.5568  150.7551 H   0  0  0  0  0  0  0  0  0  0  0  0  # atno 10718 bound_to 10713
  153.0125  135.5333  154.6770 H   0  0  0  0  0  0  0  0  0  0  0  0  # atno 10763 bound_to 10752
  154.5940  135.2861  155.0608 H   0  0  0  0  0  0  0  0  0  0  0  0  # atno 10764 bound_to 10752
  154.1690  135.6535  153.5057 H   0  0  0  0  0  0  0  0  0  0  0  0  # atno 10765 bound_to 10752
  140.0199  134.6169  155.9655 H   0  0  0  0  0  0  0  0  0  0  0  0  # atno 11005 bound_to 11000
  146.2377  139.5938  142.9513 LP  0  0  0  0  0  0  0  0  0  0  0  0  # atno 17320 bound_to 7965
  145.5387  141.0422  143.2343 LP  0  0  0  0  0  0  0  0  0  0  0  0  # atno 17321 bound_to 7965
  139.5273  144.3020  152.1065 LP  0  0  0  0  0  0  0  0  0  0  0  0  # atno 17342 bound_to 10162
  140.2196  144.4479  150.6348 LP  0  0  0  0  0  0  0  0  0  0  0  0  # atno 17343 bound_to 10162
  157.5085  131.0924  151.0227 LP  0  0  0  0  0  0  0  0  0  0  0  0  # atno 17370 bound_to 10713
  157.0589  130.5817  149.5382 LP  0  0  0  0  0  0  0  0  0  0  0  0  # atno 17371 bound_to 10713
  141.1767  133.6541  156.4856 LP  0  0  0  0  0  0  0  0  0  0  0  0  # atno 17394 bound_to 11000
  140.4405  134.7019  157.4989 LP  0  0  0  0  0  0  0  0  0  0  0  0  # atno 17395 bound_to 11000

$$$$
