AV-unprocessed.smi:1643|AV-procd|sdf|6572|dock9
  -GOLD-   22720 7253D 1   1.00000     0.00000
 Structure written by MMmdl.
 54 56  0  0  0  0  0  0  0  0  2 V2000
  146.8991  133.6264  153.0935 C   0  0  0  0  0  0  0  0  0  0  0  0
  147.0945  134.7697  154.0929 C   0  0  0  0  0  0  0  0  0  0  0  0
  148.1315  134.7866  154.7562 O   0  0  0  0  0  0  0  0  0  0  0  0
  146.1366  135.7227  154.2073 N   0  0  0  0  0  0  0  0  0  0  0  0
  144.8662  135.6199  153.4740 C   0  0  0  0  0  0  0  0  0  0  0  0
  144.8412  136.5139  152.2139 C   0  0  0  0  0  0  0  0  0  0  0  0
  145.9465  137.5909  152.1287 C   0  0  0  0  0  0  0  0  0  0  0  0
  145.8965  138.6386  153.1902 N   0  3  2  0  0  0  0  0  0  0  0  0
  147.1154  139.4931  153.2159 C   0  0  0  0  0  0  0  0  0  0  0  0
  147.0875  140.5765  154.3143 C   0  0  2  0  0  0  0  0  0  0  0  0
  145.9669  141.4023  154.0702 O   0  0  0  0  0  0  0  0  0  0  0  0
  148.3644  141.4418  154.3383 C   0  0  0  0  0  0  0  0  0  0  0  0
  149.5082  140.7275  154.8765 N   0  0  0  0  0  0  0  0  0  0  0  0
  150.0606  139.5996  154.3898 C   0  0  0  0  0  0  0  0  0  0  0  0
  151.1085  139.1044  155.0410 N   0  0  0  0  0  0  0  0  0  0  0  0
  151.2556  140.0187  156.0700 C   0  0  0  0  0  0  0  0  0  0  0  0
  152.1923  140.0683  157.1253 C   0  0  0  0  0  0  0  0  0  0  0  0
  152.1534  141.1091  158.0802 C   0  0  0  0  0  0  0  0  0  0  0  0
  153.1791  141.1227  159.2002 C   0  0  0  0  0  0  0  0  0  0  0  0
  151.1659  142.1225  157.9870 C   0  0  0  0  0  0  0  0  0  0  0  0
  151.1049  143.2505  159.0018 C   0  0  0  0  0  0  0  0  0  0  0  0
  150.2226  142.0882  156.9387 C   0  0  0  0  0  0  0  0  0  0  0  0
  150.2712  141.0470  155.9950 C   0  0  0  0  0  0  0  0  0  0  0  0
  145.5105  138.1697  154.5533 C   0  0  0  0  0  0  0  0  0  0  0  0
  146.2738  136.9180  155.0611 C   0  0  0  0  0  0  0  0  0  0  0  0
  146.6198  134.0072  152.1108 H   0  0  0  0  0  0  0  0  0  0  0  0
  146.1277  132.9386  153.4406 H   0  0  0  0  0  0  0  0  0  0  0  0
  147.8228  133.0585  152.9768 H   0  0  0  0  0  0  0  0  0  0  0  0
  144.6370  134.5906  153.1932 H   0  0  0  0  0  0  0  0  0  0  0  0
  144.0484  135.8864  154.1439 H   0  0  0  0  0  0  0  0  0  0  0  0
  144.9463  135.8678  151.3415 H   0  0  0  0  0  0  0  0  0  0  0  0
  143.8590  136.9775  152.1147 H   0  0  0  0  0  0  0  0  0  0  0  0
  146.9283  137.1148  152.1219 H   0  0  0  0  0  0  0  0  0  0  0  0
  145.8534  138.0830  151.1610 H   0  0  0  0  0  0  0  0  0  0  0  0
  147.9969  138.8712  153.3788 H   0  0  0  0  0  0  0  0  0  0  0  0
  147.2458  139.9530  152.2347 H   0  0  0  0  0  0  0  0  0  0  0  0
  146.9316  140.1222  155.2923 H   0  0  0  0  0  0  0  0  0  0  0  0
  145.3888  140.9570  153.4687 H   0  0  0  0  0  0  0  0  0  0  0  0
  148.6191  141.7722  153.3308 H   0  0  0  0  0  0  0  0  0  0  0  0
  148.2060  142.3447  154.9296 H   0  0  0  0  0  0  0  0  0  0  0  0
  149.6692  139.1127  153.5084 H   0  0  0  0  0  0  0  0  0  0  0  0
  152.9437  139.2957  157.1962 H   0  0  0  0  0  0  0  0  0  0  0  0
  153.7738  142.0357  159.1632 H   0  0  0  0  0  0  0  0  0  0  0  0
  153.8614  140.2754  159.1257 H   0  0  0  0  0  0  0  0  0  0  0  0
  152.6854  141.0694  160.1708 H   0  0  0  0  0  0  0  0  0  0  0  0
  150.2776  143.9293  158.7926 H   0  0  0  0  0  0  0  0  0  0  0  0
  152.0272  143.8314  158.9831 H   0  0  0  0  0  0  0  0  0  0  0  0
  150.9649  142.8535  160.0074 H   0  0  0  0  0  0  0  0  0  0  0  0
  149.4643  142.8527  156.8577 H   0  0  0  0  0  0  0  0  0  0  0  0
  145.6468  138.9803  155.2701 H   0  0  0  0  0  0  0  0  0  0  0  0
  144.4344  138.0001  154.5636 H   0  0  0  0  0  0  0  0  0  0  0  0
  145.9213  136.6613  156.0608 H   0  0  0  0  0  0  0  0  0  0  0  0
  147.3193  137.2047  155.1711 H   0  0  0  0  0  0  0  0  0  0  0  0
  145.1462  139.2598  152.9234 H   0  0  0  0  0  0  0  0  0  0  0  0
  1  2  1  0  0  0  0
  1 26  1  0  0  0  0
  1 27  1  0  0  0  0
  1 28  1  0  0  0  0
  2  3  2  0  0  0  0
  2  4  1  0  0  0  0
  4 25  1  0  0  0  0
  4  5  1  0  0  0  0
  5  6  1  0  0  0  0
  5 29  1  0  0  0  0
  5 30  1  0  0  0  0
  6  7  1  0  0  0  0
  6 31  1  0  0  0  0
  6 32  1  0  0  0  0
  7  8  1  0  0  0  0
  7 33  1  0  0  0  0
  7 34  1  0  0  0  0
  8  9  1  0  0  0  0
  8 24  1  0  0  0  0
  8 54  1  0  0  0  0
  9 10  1  0  0  0  0
  9 35  1  0  0  0  0
  9 36  1  0  0  0  0
 10 11  1  0  0  0  0
 10 12  1  0  0  0  0
 10 37  1  0  0  0  0
 11 38  1  0  0  0  0
 12 13  1  0  0  0  0
 12 39  1  0  0  0  0
 12 40  1  0  0  0  0
 13 23  1  0  0  0  0
 13 14  1  0  0  0  0
 14 15  2  0  0  0  0
 14 41  1  0  0  0  0
 15 16  1  0  0  0  0
 16 23  2  0  0  0  0
 16 17  1  0  0  0  0
 17 18  2  0  0  0  0
 17 42  1  0  0  0  0
 18 19  1  0  0  0  0
 18 20  1  0  0  0  0
 19 43  1  0  0  0  0
 19 44  1  0  0  0  0
 19 45  1  0  0  0  0
 20 21  1  0  0  0  0
 20 22  2  0  0  0  0
 21 46  1  0  0  0  0
 21 47  1  0  0  0  0
 21 48  1  0  0  0  0
 22 23  1  0  0  0  0
 22 49  1  0  0  0  0
 24 25  1  0  0  0  0
 24 50  1  0  0  0  0
 24 51  1  0  0  0  0
 25 52  1  0  0  0  0
 25 53  1  0  0  0  0
M  CHG  1   8   1
M  END
> <s_m_source_file>
AV-unprocessed.smi

> <i_m_source_file_index>
1643

> <i_lp_mmshare_version>
43012

> <i_f3d_flags>
0

> <s_epik_input>
W0NIM11DKD1PKU4xW0NIMl1bQ0gyXVtDSDJdTihbQ0gyXVtDSDJdMSlbQ0gyXVtDQEhdKFtPSF0pW0NIMl1uKFtjSF1uMiljKGMyMylbY0hdYyhbQ0gzXSljKFtjSF0zKVtDSDNd

> <s_epik_cmdline>
J2VwaWtfcHl0aG9uJywgJy1waCcsICc3LjAnLCAnLXRuJywgJzgnLCAnLW1hJywgJzIwMCcsICctbWV0YWxfYmluZGluZycsICctaW1hZScsICc8aW5maWxlLm1hZT4nLCAnLW9tYWUnLCAnPG91dGZpbGUubWFlPic=

> <r_epik_Ionization_Penalty>
0.189467

> <r_epik_Ionization_Penalty_Charging>
0.101761

> <r_epik_Ionization_Penalty_Neutral>
0.0877056

> <r_epik_State_Penalty>
0.170758

> <r_epik_Charging_Adjusted_Penalty>
0.272519

> <i_epik_Tot_Q>
1

> <i_epik_Tot_abs_Q>
1

> <r_epik_Metal_State_Penalty>
0.0948013

> <b_epik_Metal_Only>
0

> <s_lp_Force_Field>
OPLS_2005

> <r_lp_Energy>
49.989

> <b_lp_Chiralities_Consistent>
1

> <s_lp_Variant>
AV-unprocessed.smi:1643-1

> <Gold.Version>
5.8.1

> <Gold.Id.Protein>
6NUR|6NUR_protein|mol2

> <Gold.PLP.Fitness>
49.2843

> <Gold.PLP.PLP>
-37.6089

> <Gold.PLP.part.hbond>
-2.0000

> <Gold.PLP.part.metal>
0.0000

> <Gold.PLP.part.buried>
-2.8325

> <Gold.PLP.part.nonpolar>
-33.0404

> <Gold.PLP.part.repulsive>
0.1664

> <Gold.PLP.ligand.clash>
0.0000

> <Gold.PLP.ligand.torsion>
0.1423

> <Gold.PLP.Chemscore.Hbond>
3.0000

> <Gold.PLP.Chemscore.CHOScore>
0.9526

> <Gold.PLP.Chemscore.Metal>
0.0000

> <Gold.Chemscore.Hbonds>
donor molecule, donor type, donor heavy atom, donor atom, acceptor molecule, acceptor atom, score
      L1  H     8    54       P1 10175  2.00
      L1  H    11    38       P1 10175  1.00
      L1  C    14    41       P1  7957  0.95

> <Gold.PLP.Chemscore.Internal.Correction>
0.1023

> <Gold.Rescore>
     Score         DG    S(hbond)    S(metal)    S(lipo)     H(rot)  DE(clash)    DE(int)     intcor
     17.43     -17.64       1.83        0.00      98.11       2.12       0.06       0.15       ----

> <Gold.Chemscore.Fitness>
17.4278

> <Gold.Chemscore.DG>
-17.6363

> <Gold.Chemscore.ZeroCoef>
-5.4800

> <Gold.Chemscore.Hbond>
1.8260

> <Gold.Chemscore.Metal>
0.0000

> <Gold.Chemscore.Lipo>
98.1105

> <Gold.Chemscore.Internal_Hbond>
0.0000

> <Gold.Chemscore.DEClash>
0.0609

> <Gold.Chemscore.DEInternal>
0.1476

> <Gold.Chemscore.Rot>
2.1178

> <Gold.Chemscore.Internal.Correction>
   9.000000E+99

> <Gold.Chemscore.Hbonds>
donor molecule, donor type, donor heavy atom, donor atom, acceptor molecule, acceptor atom, score
      L1  H     8    54       P1 10175  0.99
      L1  H    11    38       P1 10175  0.61

> <Gold.Chemscore.Hbond.Weighted>
-6.0989

> <Gold.Chemscore.Metal.Weighted>
-0.0000

> <Gold.Chemscore.Lipo.Weighted>
-11.4789

> <Gold.Chemscore.Internal_Hbond.Weighted>
0.0000

> <Gold.Chemscore.DEClash.Weighted>
0.0609

> <Gold.Chemscore.DEInternal.Weighted>
0.1476

> <Gold.Chemscore.Rot.Weighted>
5.4215

> <Gold.Chemscore.Internal.Correction.Weighted>
   9.000000E+99

> <Gold.Protein.RotatedTorsions>
[ 6907 6896 6895 6894 ] final -146.46 input  -60.11 | X-H torsion
[ 7974 7965 7964 7962 ] final   16.76 input  175.53 | X-H torsion
[ 8008 7997 7996 7995 ] final  162.69 input   59.86 | X-H torsion
[ 10167 10162 10161 10158 ] final  -88.36 input  -65.29 | X-H torsion
[ 10718 10713 10712 10709 ] final -146.99 input   66.30 | X-H torsion
[ 10763 10752 10751 10750 ] final  -86.80 input  -60.55 | X-H torsion
[ 11005 11000 10999 10996 ] final  -25.22 input  -57.11 | X-H torsion

> <Gold.Protein.ActiveResidues>
 VAL166  LYS551  ARG553  GLY616  TRP617  ASP618  TYR619  PRO620  LYS621  CYS622 
 ASP623  PHE694  ASN695  SER759  ASP760  ASP761  ALA762  ILE779  LEU786  VAL792 
 PHE793  MET794  SER795  GLU796  ALA797  LYS798  CYS799  TRP800  GLU811  SER814 

> <Gold.Protein.RotatedAtoms>
  151.1420  133.4965  159.2596 H   0  0  0  0  0  0  0  0  0  0  0  0  # atno 6907 bound_to 6896
  151.1645  135.0288  159.8734 H   0  0  0  0  0  0  0  0  0  0  0  0  # atno 6908 bound_to 6896
  152.5462  134.1290  159.8484 H   0  0  0  0  0  0  0  0  0  0  0  0  # atno 6909 bound_to 6896
  146.2239  139.8700  142.8589 H   0  0  0  0  0  0  0  0  0  0  0  0  # atno 7974 bound_to 7965
  156.2013  140.1743  156.7894 H   0  0  0  0  0  0  0  0  0  0  0  0  # atno 8008 bound_to 7997
  154.5595  140.0702  156.8827 H   0  0  0  0  0  0  0  0  0  0  0  0  # atno 8009 bound_to 7997
  155.2875  140.3353  155.4257 H   0  0  0  0  0  0  0  0  0  0  0  0  # atno 8010 bound_to 7997
  140.3755  143.2774  151.9448 H   0  0  0  0  0  0  0  0  0  0  0  0  # atno 10167 bound_to 10162
  156.4018  130.7938  151.2149 H   0  0  0  0  0  0  0  0  0  0  0  0  # atno 10718 bound_to 10713
  154.6265  135.5436  153.7633 H   0  0  0  0  0  0  0  0  0  0  0  0  # atno 10763 bound_to 10752
  153.0263  135.6425  154.1364 H   0  0  0  0  0  0  0  0  0  0  0  0  # atno 10764 bound_to 10752
  154.1296  135.2915  155.3168 H   0  0  0  0  0  0  0  0  0  0  0  0  # atno 10765 bound_to 10752
  140.8917  133.7584  156.0430 H   0  0  0  0  0  0  0  0  0  0  0  0  # atno 11005 bound_to 11000
  145.2617  141.0079  143.3822 LP  0  0  0  0  0  0  0  0  0  0  0  0  # atno 17320 bound_to 7965
  144.9293  139.4318  143.6503 LP  0  0  0  0  0  0  0  0  0  0  0  0  # atno 17321 bound_to 7965
  139.4800  144.5867  151.7841 LP  0  0  0  0  0  0  0  0  0  0  0  0  # atno 17342 bound_to 10162
  140.4990  144.1197  150.5967 LP  0  0  0  0  0  0  0  0  0  0  0  0  # atno 17343 bound_to 10162
  157.7504  131.0284  150.4048 LP  0  0  0  0  0  0  0  0  0  0  0  0  # atno 17370 bound_to 10713
  156.4330  130.3976  149.6748 LP  0  0  0  0  0  0  0  0  0  0  0  0  # atno 17371 bound_to 10713
  140.8338  134.3147  157.5339 LP  0  0  0  0  0  0  0  0  0  0  0  0  # atno 17394 bound_to 11000
  139.8730  134.9378  156.3697 LP  0  0  0  0  0  0  0  0  0  0  0  0  # atno 17395 bound_to 11000

$$$$
