AV-unprocessed.smi:709|AV-procd|sdf|3460|dock1
  -GOLD-   22720 0443D 1   1.00000     0.00000
 Structure written by MMmdl.
 48 50  0  0  0  0  0  0  0  0  1 V2000
  143.7605  132.4261  149.8252 C   0  0  0  0  0  0  0  0  0  0  0  0
  144.5650  131.3689  150.5842 C   0  0  0  0  0  0  0  0  0  0  0  0
  145.6875  131.9920  151.1845 O   0  0  0  0  0  0  0  0  0  0  0  0
  145.3242  132.9718  152.1443 C   0  0  2  0  0  0  0  0  0  0  0  0
  145.3306  134.4138  151.6256 C   0  0  0  0  0  0  0  0  0  0  0  0
  145.8661  134.7879  153.0094 C   0  0  2  0  0  0  0  0  0  0  0  0
  146.8371  135.8759  152.9659 N   0  0  0  0  0  0  0  0  0  0  0  0
  146.6813  137.0506  153.5915 C   0  0  0  0  0  0  0  0  0  0  0  0
  145.6914  137.3231  154.2699 O   0  0  0  0  0  0  0  0  0  0  0  0
  147.7422  137.8523  153.3821 N   0  0  0  0  0  0  0  0  0  0  0  0
  147.9758  139.1670  153.8252 C   0  0  0  0  0  0  0  0  0  0  0  0
  147.1223  140.2081  153.6517 C   0  0  0  0  0  0  0  0  0  0  0  0
  147.4537  141.5282  154.1316 C   0  0  0  0  0  0  0  0  0  0  0  0
  148.6310  141.7062  154.7461 C   0  0  0  0  0  0  0  0  0  0  0  0
  149.5340  140.6456  154.9297 N   0  0  0  0  0  0  0  0  0  0  0  0
  150.7972  140.9416  155.6102 C   0  0  0  0  0  0  0  0  0  0  0  0
  149.2718  139.3749  154.5011 C   0  0  0  0  0  0  0  0  0  0  0  0
  150.0840  138.4632  154.6766 O   0  0  0  0  0  0  0  0  0  0  0  0
  146.4787  133.3662  153.0992 C   0  0  0  0  0  0  0  0  0  0  0  0
  147.9121  133.1299  152.6042 C   0  0  0  0  0  0  0  0  0  0  0  0
  148.3244  131.7437  153.1030 C   0  0  0  0  0  0  0  0  0  0  0  0
  147.4630  131.4809  154.3426 C   0  0  0  0  0  0  0  0  0  0  0  0
  146.5137  132.6786  154.4599 C   0  0  0  0  0  0  0  0  0  0  0  0
  142.8850  131.9829  149.3504 H   0  0  0  0  0  0  0  0  0  0  0  0
  144.3643  132.8921  149.0462 H   0  0  0  0  0  0  0  0  0  0  0  0
  143.4152  133.2117  150.4977 H   0  0  0  0  0  0  0  0  0  0  0  0
  143.9395  130.8996  151.3448 H   0  0  0  0  0  0  0  0  0  0  0  0
  144.8916  130.5876  149.8964 H   0  0  0  0  0  0  0  0  0  0  0  0
  144.4078  132.7223  152.6850 H   0  0  0  0  0  0  0  0  0  0  0  0
  146.0433  134.5760  150.8146 H   0  0  0  0  0  0  0  0  0  0  0  0
  144.3462  134.8185  151.3896 H   0  0  0  0  0  0  0  0  0  0  0  0
  145.0556  134.9412  153.7266 H   0  0  0  0  0  0  0  0  0  0  0  0
  147.6796  135.7211  152.4314 H   0  0  0  0  0  0  0  0  0  0  0  0
  148.4984  137.4561  152.8428 H   0  0  0  0  0  0  0  0  0  0  0  0
  146.1795  140.0982  153.1419 H   0  0  0  0  0  0  0  0  0  0  0  0
  146.7693  142.3529  153.9976 H   0  0  0  0  0  0  0  0  0  0  0  0
  148.9520  142.6631  155.1314 H   0  0  0  0  0  0  0  0  0  0  0  0
  150.8894  140.3489  156.5213 H   0  0  0  0  0  0  0  0  0  0  0  0
  150.8876  141.9907  155.8938 H   0  0  0  0  0  0  0  0  0  0  0  0
  151.6446  140.7065  154.9644 H   0  0  0  0  0  0  0  0  0  0  0  0
  148.0086  133.2094  151.5209 H   0  0  0  0  0  0  0  0  0  0  0  0
  148.5909  133.8670  153.0340 H   0  0  0  0  0  0  0  0  0  0  0  0
  148.1095  130.9941  152.3406 H   0  0  0  0  0  0  0  0  0  0  0  0
  149.3914  131.6935  153.3224 H   0  0  0  0  0  0  0  0  0  0  0  0
  146.8984  130.5567  154.2140 H   0  0  0  0  0  0  0  0  0  0  0  0
  148.0700  131.3719  155.2419 H   0  0  0  0  0  0  0  0  0  0  0  0
  146.8959  133.3685  155.2129 H   0  0  0  0  0  0  0  0  0  0  0  0
  145.5236  132.3680  154.7948 H   0  0  0  0  0  0  0  0  0  0  0  0
  1  2  1  0  0  0  0
  1 24  1  0  0  0  0
  1 25  1  0  0  0  0
  1 26  1  0  0  0  0
  2  3  1  0  0  0  0
  2 27  1  0  0  0  0
  2 28  1  0  0  0  0
  3  4  1  0  0  0  0
  4 19  1  0  0  0  0
  4  5  1  0  0  0  0
  4 29  1  0  0  0  0
  5  6  1  0  0  0  0
  5 30  1  0  0  0  0
  5 31  1  0  0  0  0
  6  7  1  0  0  0  0
  6 19  1  0  0  0  0
  6 32  1  0  0  0  0
  7  8  1  0  0  0  0
  7 33  1  0  0  0  0
  8  9  2  0  0  0  0
  8 10  1  0  0  0  0
 10 11  1  0  0  0  0
 10 34  1  0  0  0  0
 11 17  1  0  0  0  0
 11 12  2  0  0  0  0
 12 13  1  0  0  0  0
 12 35  1  0  0  0  0
 13 14  2  0  0  0  0
 13 36  1  0  0  0  0
 14 15  1  0  0  0  0
 14 37  1  0  0  0  0
 15 16  1  0  0  0  0
 15 17  1  0  0  0  0
 16 38  1  0  0  0  0
 16 39  1  0  0  0  0
 16 40  1  0  0  0  0
 17 18  2  0  0  0  0
 19 23  1  0  0  0  0
 19 20  1  0  0  0  0
 20 21  1  0  0  0  0
 20 41  1  0  0  0  0
 20 42  1  0  0  0  0
 21 22  1  0  0  0  0
 21 43  1  0  0  0  0
 21 44  1  0  0  0  0
 22 23  1  0  0  0  0
 22 45  1  0  0  0  0
 22 46  1  0  0  0  0
 23 47  1  0  0  0  0
 23 48  1  0  0  0  0
M  END
> <s_m_source_file>
AV-unprocessed.smi

> <i_m_source_file_index>
709

> <i_lp_mmshare_version>
43012

> <i_f3d_flags>
0

> <s_epik_input>
W0NIMl0xW0NIMl1bQ0gyXVtDSDJdQzEyW0NASF0oT1tDSDJdW0NIM10pW0NIMl1bQ0BIXTJbTkhdQyg9TylbTkhdYzNbY0hdW2NIXVtjSF1uKFtDSDNdKWMzPU8=

> <s_epik_cmdline>
J2VwaWtfcHl0aG9uJywgJy1waCcsICc3LjAnLCAnLXRuJywgJzgnLCAnLW1hJywgJzIwMCcsICctbWV0YWxfYmluZGluZycsICctaW1hZScsICc8aW5maWxlLm1hZT4nLCAnLW9tYWUnLCAnPG91dGZpbGUubWFlPic=

> <r_lp_tautomer_probability>
1

> <r_epik_Ionization_Penalty>
2.50859e-05

> <r_epik_Ionization_Penalty_Charging>
5.10493e-06

> <r_epik_Ionization_Penalty_Neutral>
1.9981e-05

> <r_epik_State_Penalty>
-0

> <r_epik_Charging_Adjusted_Penalty>
5.10493e-06

> <i_epik_Tot_Q>
0

> <i_epik_Tot_abs_Q>
0

> <r_epik_Metal_State_Penalty>
-0

> <b_epik_Metal_Only>
0

> <s_lp_Force_Field>
OPLS_2005

> <r_lp_Energy>
49.811

> <b_lp_Chiralities_Consistent>
1

> <s_lp_Variant>
AV-unprocessed.smi:709-3

> <Gold.Version>
5.8.1

> <Gold.Id.Protein>
6NUR|6NUR_protein|mol2

> <Gold.PLP.Fitness>
44.2163

> <Gold.PLP.PLP>
-36.9596

> <Gold.PLP.part.hbond>
-1.8173

> <Gold.PLP.part.metal>
0.0000

> <Gold.PLP.part.buried>
-1.8328

> <Gold.PLP.part.nonpolar>
-33.1145

> <Gold.PLP.part.repulsive>
0.4152

> <Gold.PLP.ligand.clash>
0.0000

> <Gold.PLP.ligand.torsion>
0.9478

> <Gold.PLP.Chemscore.Hbond>
1.9440

> <Gold.PLP.Chemscore.CHOScore>
1.0000

> <Gold.PLP.Chemscore.Metal>
0.0000

> <Gold.Chemscore.Hbonds>
donor molecule, donor type, donor heavy atom, donor atom, acceptor molecule, acceptor atom, score
      L1  H     7    33       P1  7948  0.84
      L1  H    10    34       P1  7948  0.93
      L1  C    14    37       P1  8028  1.00

> <Gold.PLP.Chemscore.Internal.Correction>
0.3202

> <Gold.Rescore>
     Score         DG    S(hbond)    S(metal)    S(lipo)     H(rot)  DE(clash)    DE(int)     intcor
     16.88     -17.89       1.92        0.00      80.99       1.36       0.06       0.95       ----

> <Gold.Chemscore.Fitness>
16.8781

> <Gold.Chemscore.DG>
-17.8912

> <Gold.Chemscore.ZeroCoef>
-5.4800

> <Gold.Chemscore.Hbond>
1.9213

> <Gold.Chemscore.Metal>
0.0000

> <Gold.Chemscore.Lipo>
80.9872

> <Gold.Chemscore.Internal_Hbond>
0.0000

> <Gold.Chemscore.DEClash>
0.0604

> <Gold.Chemscore.DEInternal>
0.9527

> <Gold.Chemscore.Rot>
1.3599

> <Gold.Chemscore.Internal.Correction>
   9.000000E+99

> <Gold.Chemscore.Hbonds>
donor molecule, donor type, donor heavy atom, donor atom, acceptor molecule, acceptor atom, score
      L1  H     7    33       P1  7948  0.79
      L1  H    10    34       P1  7948  0.90

> <Gold.Chemscore.Hbond.Weighted>
-6.4170

> <Gold.Chemscore.Metal.Weighted>
-0.0000

> <Gold.Chemscore.Lipo.Weighted>
-9.4755

> <Gold.Chemscore.Internal_Hbond.Weighted>
0.0000

> <Gold.Chemscore.DEClash.Weighted>
0.0604

> <Gold.Chemscore.DEInternal.Weighted>
0.9527

> <Gold.Chemscore.Rot.Weighted>
3.4813

> <Gold.Chemscore.Internal.Correction.Weighted>
   9.000000E+99

> <Gold.Protein.RotatedTorsions>
[ 6907 6896 6895 6894 ] final  -59.68 input  -60.11 | X-H torsion
[ 7974 7965 7964 7962 ] final   21.62 input  175.53 | X-H torsion
[ 8008 7997 7996 7995 ] final   59.95 input   59.86 | X-H torsion
[ 10167 10162 10161 10158 ] final  -90.40 input  -65.29 | X-H torsion
[ 10718 10713 10712 10709 ] final  141.89 input   66.30 | X-H torsion
[ 10763 10752 10751 10750 ] final  -23.38 input  -60.55 | X-H torsion
[ 11005 11000 10999 10996 ] final   61.81 input  -57.11 | X-H torsion

> <Gold.Protein.ActiveResidues>
 VAL166  LYS551  ARG553  GLY616  TRP617  ASP618  TYR619  PRO620  LYS621  CYS622 
 ASP623  PHE694  ASN695  SER759  ASP760  ASP761  ALA762  ILE779  LEU786  VAL792 
 PHE793  MET794  SER795  GLU796  ALA797  LYS798  CYS799  TRP800  GLU811  SER814 

> <Gold.Protein.RotatedAtoms>
  150.7912  134.6937  159.6510 H   0  0  0  0  0  0  0  0  0  0  0  0  # atno 6907 bound_to 6896
  152.4018  134.6271  160.0075 H   0  0  0  0  0  0  0  0  0  0  0  0  # atno 6908 bound_to 6896
  151.6540  133.3283  159.3194 H   0  0  0  0  0  0  0  0  0  0  0  0  # atno 6909 bound_to 6896
  146.2064  139.8001  142.8723 H   0  0  0  0  0  0  0  0  0  0  0  0  # atno 7974 bound_to 7965
  155.5744  140.3490  155.4523 H   0  0  0  0  0  0  0  0  0  0  0  0  # atno 8008 bound_to 7997
  156.0420  140.1298  157.0170 H   0  0  0  0  0  0  0  0  0  0  0  0  # atno 8009 bound_to 7997
  154.4396  140.1022  156.6236 H   0  0  0  0  0  0  0  0  0  0  0  0  # atno 8010 bound_to 7997
  140.3552  143.2870  151.9679 H   0  0  0  0  0  0  0  0  0  0  0  0  # atno 10167 bound_to 10162
  157.3868  131.0999  151.0685 H   0  0  0  0  0  0  0  0  0  0  0  0  # atno 10718 bound_to 10713
  153.6669  135.6973  153.5159 H   0  0  0  0  0  0  0  0  0  0  0  0  # atno 10763 bound_to 10752
  153.2588  135.4251  155.0872 H   0  0  0  0  0  0  0  0  0  0  0  0  # atno 10764 bound_to 10752
  154.8437  135.3549  154.6214 H   0  0  0  0  0  0  0  0  0  0  0  0  # atno 10765 bound_to 10752
  140.0136  134.6259  155.9744 H   0  0  0  0  0  0  0  0  0  0  0  0  # atno 11005 bound_to 11000
  145.3305  141.0265  143.3449 LP  0  0  0  0  0  0  0  0  0  0  0  0  # atno 17320 bound_to 7965
  144.8802  139.4914  143.6726 LP  0  0  0  0  0  0  0  0  0  0  0  0  # atno 17321 bound_to 7965
  139.4821  144.6041  151.7553 LP  0  0  0  0  0  0  0  0  0  0  0  0  # atno 17342 bound_to 10162
  140.5180  144.0923  150.6014 LP  0  0  0  0  0  0  0  0  0  0  0  0  # atno 17343 bound_to 10162
  157.1733  130.6277  149.5648 LP  0  0  0  0  0  0  0  0  0  0  0  0  # atno 17370 bound_to 10713
  155.9789  130.4778  150.6681 LP  0  0  0  0  0  0  0  0  0  0  0  0  # atno 17371 bound_to 10713
  141.1727  133.6538  156.4713 LP  0  0  0  0  0  0  0  0  0  0  0  0  # atno 17394 bound_to 11000
  140.4511  134.6928  157.5040 LP  0  0  0  0  0  0  0  0  0  0  0  0  # atno 17395 bound_to 11000

$$$$
