AV-unprocessed.smi:2063|AV-procd|sdf|8409|dock8
  -GOLD-   2272011103D 1   1.00000     0.00000
 Structure written by MMmdl.
 39 40  0  0  0  0  0  0  0  0  1 V2000
  152.3016  138.4319  154.2967 C   0  0  0  0  0  0  0  0  0  0  0  0
  152.4531  139.0967  155.6726 C   0  0  0  0  0  0  0  0  0  0  0  0
  152.4866  138.0740  156.8174 C   0  0  0  0  0  0  0  0  0  0  0  0
  151.4173  140.1545  155.9000 C   0  0  0  0  0  0  0  0  0  0  0  0
  150.5574  140.5367  154.9471 N   0  0  0  0  0  0  0  0  0  0  0  0
  149.6938  141.5322  155.3817 N   0  0  0  0  0  0  0  0  0  0  0  0
  149.9268  141.8755  156.6557 C   0  0  0  0  0  0  0  0  0  0  0  0
  149.1891  142.8680  157.3537 N   0  0  0  0  0  0  0  0  0  0  0  0
  148.6245  142.7856  158.5713 C   0  0  0  0  0  0  0  0  0  0  0  0
  148.6485  141.7942  159.3009 O   0  0  0  0  0  0  0  0  0  0  0  0
  148.0173  143.9354  158.9002 N   0  0  0  0  0  0  0  0  0  0  0  0
  147.2909  144.1911  160.1423 C   0  0  1  0  0  0  0  0  0  0  0  0
  147.2724  145.7069  160.3929 C   0  0  0  0  0  0  0  0  0  0  0  0
  145.8708  143.5959  160.0495 C   0  0  2  0  0  0  0  0  0  0  0  0
  144.9954  143.8312  161.2805 C   0  0  0  0  0  0  0  0  0  0  0  0
  143.9718  142.7103  161.2063 C   0  0  0  0  0  0  0  0  0  0  0  0
  144.6056  141.6909  160.2554 C   0  0  0  0  0  0  0  0  0  0  0  0
  145.9160  142.1778  160.0000 O   0  0  0  0  0  0  0  0  0  0  0  0
  151.2318  140.9994  157.4359 S   0  0  0  0  0  0  0  0  0  0  0  0
  152.3498  139.1715  153.4969 H   0  0  0  0  0  0  0  0  0  0  0  0
  151.3497  137.9075  154.2091 H   0  0  0  0  0  0  0  0  0  0  0  0
  153.0963  137.7063  154.1223 H   0  0  0  0  0  0  0  0  0  0  0  0
  153.4233  139.5962  155.6725 H   0  0  0  0  0  0  0  0  0  0  0  0
  152.6621  138.5643  157.7755 H   0  0  0  0  0  0  0  0  0  0  0  0
  153.2843  137.3455  156.6693 H   0  0  0  0  0  0  0  0  0  0  0  0
  151.5469  137.5258  156.8907 H   0  0  0  0  0  0  0  0  0  0  0  0
  149.0776  143.7454  156.8677 H   0  0  0  0  0  0  0  0  0  0  0  0
  148.0486  144.6929  158.2341 H   0  0  0  0  0  0  0  0  0  0  0  0
  147.8137  143.7247  160.9792 H   0  0  0  0  0  0  0  0  0  0  0  0
  146.7929  145.9476  161.3418 H   0  0  0  0  0  0  0  0  0  0  0  0
  146.7335  146.2336  159.6045 H   0  0  0  0  0  0  0  0  0  0  0  0
  148.2850  146.1098  160.4313 H   0  0  0  0  0  0  0  0  0  0  0  0
  145.3604  143.9628  159.1566 H   0  0  0  0  0  0  0  0  0  0  0  0
  145.5884  143.7237  162.1899 H   0  0  0  0  0  0  0  0  0  0  0  0
  144.5368  144.8202  161.2915 H   0  0  0  0  0  0  0  0  0  0  0  0
  143.7795  142.2860  162.1922 H   0  0  0  0  0  0  0  0  0  0  0  0
  143.0238  143.0676  160.8029 H   0  0  0  0  0  0  0  0  0  0  0  0
  144.6404  140.6878  160.6808 H   0  0  0  0  0  0  0  0  0  0  0  0
  144.0498  141.6443  159.3179 H   0  0  0  0  0  0  0  0  0  0  0  0
  1  2  1  0  0  0  0
  1 20  1  0  0  0  0
  1 21  1  0  0  0  0
  1 22  1  0  0  0  0
  2  3  1  0  0  0  0
  2  4  1  0  0  0  0
  2 23  1  0  0  0  0
  3 24  1  0  0  0  0
  3 25  1  0  0  0  0
  3 26  1  0  0  0  0
  4 19  1  0  0  0  0
  4  5  2  0  0  0  0
  5  6  1  0  0  0  0
  6  7  2  0  0  0  0
  7  8  1  0  0  0  0
  7 19  1  0  0  0  0
  8  9  1  0  0  0  0
  8 27  1  0  0  0  0
  9 10  2  0  0  0  0
  9 11  1  0  0  0  0
 11 12  1  0  0  0  0
 11 28  1  0  0  0  0
 12 13  1  0  0  0  0
 12 14  1  0  0  0  0
 12 29  1  0  0  0  0
 13 30  1  0  0  0  0
 13 31  1  0  0  0  0
 13 32  1  0  0  0  0
 14 18  1  0  0  0  0
 14 15  1  0  0  0  0
 14 33  1  0  0  0  0
 15 16  1  0  0  0  0
 15 34  1  0  0  0  0
 15 35  1  0  0  0  0
 16 17  1  0  0  0  0
 16 36  1  0  0  0  0
 16 37  1  0  0  0  0
 17 18  1  0  0  0  0
 17 38  1  0  0  0  0
 17 39  1  0  0  0  0
M  END
> <s_m_source_file>
AV-unprocessed.smi

> <i_m_source_file_index>
2063

> <i_lp_mmshare_version>
43012

> <i_f3d_flags>
0

> <s_epik_input>
W0NIM11bQ0hdKFtDSDNdKWMxbm5jKHMxKVtOSF1DKD1PKVtOSF1bQ0BIXShbQ0gzXSlbQ0BASF0yW0NIMl1bQ0gyXVtDSDJdTzI=

> <s_epik_cmdline>
J2VwaWtfcHl0aG9uJywgJy1waCcsICc3LjAnLCAnLXRuJywgJzgnLCAnLW1hJywgJzIwMCcsICctbWV0YWxfYmluZGluZycsICctaW1hZScsICc8aW5maWxlLm1hZT4nLCAnLW9tYWUnLCAnPG91dGZpbGUubWFlPic=

> <r_lp_tautomer_probability>
1

> <r_epik_Ionization_Penalty>
0.00050567

> <r_epik_Ionization_Penalty_Charging>
0

> <r_epik_Ionization_Penalty_Neutral>
0.00050567

> <r_epik_State_Penalty>
-0

> <r_epik_Charging_Adjusted_Penalty>
0

> <i_epik_Tot_Q>
0

> <i_epik_Tot_abs_Q>
0

> <r_epik_Metal_State_Penalty>
0.219912

> <b_epik_Metal_Only>
0

> <s_lp_Force_Field>
OPLS_2005

> <r_lp_Energy>
10.6095

> <b_lp_Chiralities_Consistent>
1

> <s_lp_Variant>
AV-unprocessed.smi:2063-2

> <Gold.Version>
5.8.1

> <Gold.Id.Protein>
6NUR|6NUR_protein|mol2

> <Gold.PLP.Fitness>
37.6668

> <Gold.PLP.PLP>
-27.4813

> <Gold.PLP.part.hbond>
-5.6984

> <Gold.PLP.part.metal>
0.0000

> <Gold.PLP.part.buried>
-1.0940

> <Gold.PLP.part.nonpolar>
-21.1901

> <Gold.PLP.part.repulsive>
0.3405

> <Gold.PLP.ligand.clash>
0.0000

> <Gold.PLP.ligand.torsion>
0.9473

> <Gold.PLP.Chemscore.Hbond>
4.0000

> <Gold.PLP.Chemscore.CHOScore>
0.0000

> <Gold.PLP.Chemscore.Metal>
0.0000

> <Gold.Chemscore.Hbonds>
donor molecule, donor type, donor heavy atom, donor atom, acceptor molecule, acceptor atom, score
      L1  H     8    27       P1  8028  1.00
      L1  H    11    28       P1  8029  1.00
      P1  H  6934  6946       L1    18  1.00
      P1  H  7989  7998       L1     5  0.99

> <Gold.PLP.Chemscore.Internal.Correction>
0.0803

> <Gold.Rescore>
     Score         DG    S(hbond)    S(metal)    S(lipo)     H(rot)  DE(clash)    DE(int)     intcor
     16.38     -19.18       3.25        0.00      55.44       1.42       1.47       1.34       ----

> <Gold.Chemscore.Fitness>
16.3776

> <Gold.Chemscore.DG>
-19.1822

> <Gold.Chemscore.ZeroCoef>
-5.4800

> <Gold.Chemscore.Hbond>
3.2450

> <Gold.Chemscore.Metal>
0.0000

> <Gold.Chemscore.Lipo>
55.4427

> <Gold.Chemscore.Internal_Hbond>
0.0000

> <Gold.Chemscore.DEClash>
1.4690

> <Gold.Chemscore.DEInternal>
1.3356

> <Gold.Chemscore.Rot>
1.4152

> <Gold.Chemscore.Internal.Correction>
   9.000000E+99

> <Gold.Chemscore.Hbonds>
donor molecule, donor type, donor heavy atom, donor atom, acceptor molecule, acceptor atom, score
      L1  H     8    27       P1  8028  0.57
      L1  H    11    28       P1  8029  0.77
      P1  H  6933  6944       L1    10  0.01
      P1  H  6934  6946       L1    18  0.26
      P1  H  7989  7998       L1     5  0.41

> <Gold.Chemscore.Hbond.Weighted>
-10.8384

> <Gold.Chemscore.Metal.Weighted>
-0.0000

> <Gold.Chemscore.Lipo.Weighted>
-6.4868

> <Gold.Chemscore.Internal_Hbond.Weighted>
0.0000

> <Gold.Chemscore.DEClash.Weighted>
1.4690

> <Gold.Chemscore.DEInternal.Weighted>
1.3356

> <Gold.Chemscore.Rot.Weighted>
3.6229

> <Gold.Chemscore.Internal.Correction.Weighted>
   9.000000E+99

> <Gold.Protein.RotatedTorsions>
[ 6907 6896 6895 6894 ] final  123.60 input  -60.11 | X-H torsion
[ 7974 7965 7964 7962 ] final   -5.77 input  175.53 | X-H torsion
[ 8008 7997 7996 7995 ] final   12.16 input   59.86 | X-H torsion
[ 10167 10162 10161 10158 ] final   35.82 input  -65.29 | X-H torsion
[ 10718 10713 10712 10709 ] final   43.97 input   66.30 | X-H torsion
[ 10763 10752 10751 10750 ] final  -53.36 input  -60.55 | X-H torsion
[ 11005 11000 10999 10996 ] final  -29.99 input  -57.11 | X-H torsion

> <Gold.Protein.ActiveResidues>
 VAL166  LYS551  ARG553  GLY616  TRP617  ASP618  TYR619  PRO620  LYS621  CYS622 
 ASP623  PHE694  ASN695  SER759  ASP760  ASP761  ALA762  ILE779  LEU786  VAL792 
 PHE793  MET794  SER795  GLU796  ALA797  LYS798  CYS799  TRP800  GLU811  SER814 

> <Gold.Protein.RotatedAtoms>
  152.4148  133.7021  159.6429 H   0  0  0  0  0  0  0  0  0  0  0  0  # atno 6907 bound_to 6896
  150.8026  133.8559  159.3227 H   0  0  0  0  0  0  0  0  0  0  0  0  # atno 6908 bound_to 6896
  151.6292  135.1026  160.0169 H   0  0  0  0  0  0  0  0  0  0  0  0  # atno 6909 bound_to 6896
  146.2346  140.2070  142.8334 H   0  0  0  0  0  0  0  0  0  0  0  0  # atno 7974 bound_to 7965
  154.8167  140.2877  155.5815 H   0  0  0  0  0  0  0  0  0  0  0  0  # atno 8008 bound_to 7997
  156.2994  140.2558  156.2997 H   0  0  0  0  0  0  0  0  0  0  0  0  # atno 8009 bound_to 7997
  154.9385  140.0382  157.2074 H   0  0  0  0  0  0  0  0  0  0  0  0  # atno 8010 bound_to 7997
  140.4186  144.1492  150.6145 H   0  0  0  0  0  0  0  0  0  0  0  0  # atno 10167 bound_to 10162
  157.4218  130.7973  149.7522 H   0  0  0  0  0  0  0  0  0  0  0  0  # atno 10718 bound_to 10713
  154.1575  135.6480  153.4978 H   0  0  0  0  0  0  0  0  0  0  0  0  # atno 10763 bound_to 10752
  153.0120  135.5353  154.6745 H   0  0  0  0  0  0  0  0  0  0  0  0  # atno 10764 bound_to 10752
  154.6049  135.2947  155.0467 H   0  0  0  0  0  0  0  0  0  0  0  0  # atno 10765 bound_to 10752
  140.9344  133.7318  156.0983 H   0  0  0  0  0  0  0  0  0  0  0  0  # atno 11005 bound_to 11000
  144.9737  140.8393  143.5440 LP  0  0  0  0  0  0  0  0  0  0  0  0  # atno 17320 bound_to 7965
  145.2055  139.2231  143.5171 LP  0  0  0  0  0  0  0  0  0  0  0  0  # atno 17321 bound_to 7965
  140.4559  143.2468  151.9285 LP  0  0  0  0  0  0  0  0  0  0  0  0  # atno 17342 bound_to 10162
  139.4782  144.5516  151.8377 LP  0  0  0  0  0  0  0  0  0  0  0  0  # atno 17343 bound_to 10162
  155.9883  130.3960  150.3125 LP  0  0  0  0  0  0  0  0  0  0  0  0  # atno 17370 bound_to 10713
  157.1273  131.0262  151.2984 LP  0  0  0  0  0  0  0  0  0  0  0  0  # atno 17371 bound_to 10713
  140.7819  134.3716  157.5485 LP  0  0  0  0  0  0  0  0  0  0  0  0  # atno 17394 bound_to 11000
  139.8804  134.9087  156.2973 LP  0  0  0  0  0  0  0  0  0  0  0  0  # atno 17395 bound_to 11000

$$$$
