AV-unprocessed.smi:203|AV-procd|sdf|1584|dock2
  -GOLD-   2262019473D 1   1.00000     0.00000
 Structure written by MMmdl.
 57 61  0  0  0  0  0  0  0  0  1 V2000
  151.9810  136.5470  160.3559 O   0  0  0  0  0  0  0  0  0  0  0  0
  151.7324  137.3387  159.4498 C   0  0  0  0  0  0  0  0  0  0  0  0
  150.5140  138.2450  159.4405 C   0  0  0  0  0  0  0  0  0  0  0  0
  150.7639  139.1800  158.2411 C   0  0  1  0  0  0  0  0  0  0  0  0
  151.0091  140.6705  158.6386 C   0  0  1  0  0  0  0  0  0  0  0  0
  152.1806  140.8420  159.6410 C   0  0  0  0  0  0  0  0  0  0  0  0
  152.3892  142.3139  160.0218 C   0  0  0  0  0  0  0  0  0  0  0  0
  152.6008  143.1560  158.7590 C   0  0  0  0  0  0  0  0  0  0  0  0
  151.4278  142.9683  157.7879 C   0  0  0  0  0  0  0  0  0  0  0  0
  151.2161  141.5552  157.4771 N   0  0  0  0  0  0  0  0  0  0  0  0
  150.3410  141.4227  156.4558 C   0  0  0  0  0  0  0  0  0  0  0  0
  150.7399  140.6848  155.3912 N   0  0  0  0  0  0  0  0  0  0  0  0
  149.9042  140.4866  154.3675 C   0  0  0  0  0  0  0  0  0  0  0  0
  148.6513  140.9222  154.2156 N   0  0  0  0  0  0  0  0  0  0  0  0
  148.2532  141.6721  155.2831 C   0  0  0  0  0  0  0  0  0  0  0  0
  149.0334  141.9832  156.4310 C   0  0  0  0  0  0  0  0  0  0  0  0
  148.3018  142.7815  157.3017 N   0  0  0  0  0  0  0  0  0  0  0  0
  147.1458  142.9161  156.7121 C   0  0  0  0  0  0  0  0  0  0  0  0
  147.0202  142.2575  155.5097 N   0  0  0  0  0  0  0  0  0  0  0  0
  145.8396  142.2069  154.6663 C   0  0  0  0  0  0  0  0  0  0  0  0
  144.8343  143.3492  154.9460 C   0  0  2  0  0  0  0  0  0  0  0  0
  143.6419  143.0809  154.2376 O   0  0  0  0  0  0  0  0  0  0  0  0
  145.2925  144.7919  154.6211 C   0  0  2  0  0  0  0  0  0  0  0  0
  144.3733  145.9270  155.0777 C   0  0  0  0  0  0  0  0  0  0  0  0
  144.8215  147.0522  154.1721 C   0  0  0  0  0  0  0  0  0  0  0  0
  145.0940  146.3183  152.8616 C   0  0  0  0  0  0  0  0  0  0  0  0
  145.4843  144.9957  153.2230 O   0  0  0  0  0  0  0  0  0  0  0  0
  151.9325  138.5341  157.4635 C   0  0  0  0  0  0  0  0  0  0  0  0
  152.4664  137.5232  158.3548 N   0  0  0  0  0  0  0  0  0  0  0  0
  149.6221  137.6372  159.2852 H   0  0  0  0  0  0  0  0  0  0  0  0
  150.3975  138.7735  160.3865 H   0  0  0  0  0  0  0  0  0  0  0  0
  149.8713  139.1201  157.6188 H   0  0  0  0  0  0  0  0  0  0  0  0
  150.1096  141.0203  159.1459 H   0  0  0  0  0  0  0  0  0  0  0  0
  152.0032  140.2669  160.5491 H   0  0  0  0  0  0  0  0  0  0  0  0
  153.1061  140.4564  159.2133 H   0  0  0  0  0  0  0  0  0  0  0  0
  151.5208  142.6806  160.5705 H   0  0  0  0  0  0  0  0  0  0  0  0
  153.2466  142.4125  160.6880 H   0  0  0  0  0  0  0  0  0  0  0  0
  152.7039  144.2091  159.0217 H   0  0  0  0  0  0  0  0  0  0  0  0
  153.5315  142.8626  158.2719 H   0  0  0  0  0  0  0  0  0  0  0  0
  150.5178  143.3820  158.2253 H   0  0  0  0  0  0  0  0  0  0  0  0
  151.6223  143.5274  156.8712 H   0  0  0  0  0  0  0  0  0  0  0  0
  150.2916  139.8859  153.5580 H   0  0  0  0  0  0  0  0  0  0  0  0
  146.3411  143.4858  157.1533 H   0  0  0  0  0  0  0  0  0  0  0  0
  146.1616  142.2316  153.6243 H   0  0  0  0  0  0  0  0  0  0  0  0
  145.3585  141.2396  154.8146 H   0  0  0  0  0  0  0  0  0  0  0  0
  144.5696  143.3206  156.0032 H   0  0  0  0  0  0  0  0  0  0  0  0
  143.7953  142.3507  153.6579 H   0  0  0  0  0  0  0  0  0  0  0  0
  146.2743  144.9523  155.0707 H   0  0  0  0  0  0  0  0  0  0  0  0
  143.3257  145.7001  154.8854 H   0  0  0  0  0  0  0  0  0  0  0  0
  144.4823  146.1618  156.1367 H   0  0  0  0  0  0  0  0  0  0  0  0
  144.0800  147.8446  154.0697 H   0  0  0  0  0  0  0  0  0  0  0  0
  145.7434  147.4934  154.5535 H   0  0  0  0  0  0  0  0  0  0  0  0
  144.1852  146.2604  152.2623 H   0  0  0  0  0  0  0  0  0  0  0  0
  145.8605  146.8091  152.2618 H   0  0  0  0  0  0  0  0  0  0  0  0
  151.5727  138.0523  156.5535 H   0  0  0  0  0  0  0  0  0  0  0  0
  152.7051  139.2463  157.1740 H   0  0  0  0  0  0  0  0  0  0  0  0
  153.3196  137.0210  158.1562 H   0  0  0  0  0  0  0  0  0  0  0  0
  1  2  2  0  0  0  0
  2 29  1  0  0  0  0
  2  3  1  0  0  0  0
  3  4  1  0  0  0  0
  3 30  1  0  0  0  0
  3 31  1  0  0  0  0
  4  5  1  0  0  0  0
  4 28  1  0  0  0  0
  4 32  1  0  0  0  0
  5 10  1  0  0  0  0
  5  6  1  0  0  0  0
  5 33  1  0  0  0  0
  6  7  1  0  0  0  0
  6 34  1  0  0  0  0
  6 35  1  0  0  0  0
  7  8  1  0  0  0  0
  7 36  1  0  0  0  0
  7 37  1  0  0  0  0
  8  9  1  0  0  0  0
  8 38  1  0  0  0  0
  8 39  1  0  0  0  0
  9 10  1  0  0  0  0
  9 40  1  0  0  0  0
  9 41  1  0  0  0  0
 10 11  1  0  0  0  0
 11 16  1  0  0  0  0
 11 12  2  0  0  0  0
 12 13  1  0  0  0  0
 13 14  2  0  0  0  0
 13 42  1  0  0  0  0
 14 15  1  0  0  0  0
 15 19  1  0  0  0  0
 15 16  2  0  0  0  0
 16 17  1  0  0  0  0
 17 18  2  0  0  0  0
 18 19  1  0  0  0  0
 18 43  1  0  0  0  0
 19 20  1  0  0  0  0
 20 21  1  0  0  0  0
 20 44  1  0  0  0  0
 20 45  1  0  0  0  0
 21 22  1  0  0  0  0
 21 23  1  0  0  0  0
 21 46  1  0  0  0  0
 22 47  1  0  0  0  0
 23 27  1  0  0  0  0
 23 24  1  0  0  0  0
 23 48  1  0  0  0  0
 24 25  1  0  0  0  0
 24 49  1  0  0  0  0
 24 50  1  0  0  0  0
 25 26  1  0  0  0  0
 25 51  1  0  0  0  0
 25 52  1  0  0  0  0
 26 27  1  0  0  0  0
 26 53  1  0  0  0  0
 26 54  1  0  0  0  0
 28 29  1  0  0  0  0
 28 55  1  0  0  0  0
 28 56  1  0  0  0  0
 29 57  1  0  0  0  0
M  END
> <s_m_source_file>
AV-unprocessed.smi

> <i_m_source_file_index>
203

> <i_lp_mmshare_version>
43012

> <i_f3d_flags>
0

> <s_epik_input>
Tz1DMVtDSDJdW0NASF0oW0NIMl1bTkhdMSlbQ0BASF0yW0NIMl1bQ0gyXVtDSDJdW0NIMl1OMmMobltjSF1uMyljKGMzNCluW2NIXW40W0NIMl1bQ0BIXShbT0hdKVtDQEBIXTVbQ0gyXVtDSDJdW0NIMl1PNQ==

> <s_epik_cmdline>
J2VwaWtfcHl0aG9uJywgJy1waCcsICc3LjAnLCAnLXRuJywgJzgnLCAnLW1hJywgJzIwMCcsICctbWV0YWxfYmluZGluZycsICctaW1hZScsICc8aW5maWxlLm1hZT4nLCAnLW9tYWUnLCAnPG91dGZpbGUubWFlPic=

> <r_lp_tautomer_probability>
1

> <r_epik_Ionization_Penalty>
0.00175146

> <r_epik_Ionization_Penalty_Charging>
0

> <r_epik_Ionization_Penalty_Neutral>
0.00175146

> <r_epik_State_Penalty>
0.00109045

> <r_epik_Charging_Adjusted_Penalty>
0.00109045

> <i_epik_Tot_Q>
0

> <i_epik_Tot_abs_Q>
0

> <r_epik_Metal_State_Penalty>
-0

> <b_epik_Metal_Only>
0

> <s_lp_Force_Field>
OPLS_2005

> <r_lp_Energy>
54.964

> <b_lp_Chiralities_Consistent>
1

> <s_lp_Variant>
AV-unprocessed.smi:203-3

> <Gold.Version>
5.8.1

> <Gold.Id.Protein>
6NUR|6NUR_protein|mol2

> <Gold.PLP.Fitness>
52.1970

> <Gold.PLP.PLP>
-44.2244

> <Gold.PLP.part.hbond>
-4.0000

> <Gold.PLP.part.metal>
0.0000

> <Gold.PLP.part.buried>
-3.9961

> <Gold.PLP.part.nonpolar>
-36.7710

> <Gold.PLP.part.repulsive>
0.6838

> <Gold.PLP.ligand.clash>
0.0000

> <Gold.PLP.ligand.torsion>
0.6796

> <Gold.PLP.Chemscore.Hbond>
2.0000

> <Gold.PLP.Chemscore.CHOScore>
1.0000

> <Gold.PLP.Chemscore.Metal>
0.0000

> <Gold.Chemscore.Hbonds>
donor molecule, donor type, donor heavy atom, donor atom, acceptor molecule, acceptor atom, score
      L1  H    22    47       P1 10174  0.02
      P1  H  6896  6907       L1     1  0.83
      L1  C    13    42       P1  7957  0.93

> <Gold.PLP.Chemscore.Internal.Correction>
0.3317

> <Gold.Rescore>
     Score         DG    S(hbond)    S(metal)    S(lipo)     H(rot)  DE(clash)    DE(int)     intcor
     11.87     -13.28       1.11        0.00      94.43       2.72       0.25       1.16       ----

> <Gold.Chemscore.Fitness>
11.8728

> <Gold.Chemscore.DG>
-13.2831

> <Gold.Chemscore.ZeroCoef>
-5.4800

> <Gold.Chemscore.Hbond>
1.1109

> <Gold.Chemscore.Metal>
0.0000

> <Gold.Chemscore.Lipo>
94.4308

> <Gold.Chemscore.Internal_Hbond>
0.0000

> <Gold.Chemscore.DEClash>
0.2507

> <Gold.Chemscore.DEInternal>
1.1596

> <Gold.Chemscore.Rot>
2.7171

> <Gold.Chemscore.Internal.Correction>
   9.000000E+99

> <Gold.Chemscore.Hbonds>
donor molecule, donor type, donor heavy atom, donor atom, acceptor molecule, acceptor atom, score
      P1  H  6896  6907       L1     1  0.79

> <Gold.Chemscore.Hbond.Weighted>
-3.7104

> <Gold.Chemscore.Metal.Weighted>
-0.0000

> <Gold.Chemscore.Lipo.Weighted>
-11.0484

> <Gold.Chemscore.Internal_Hbond.Weighted>
0.0000

> <Gold.Chemscore.DEClash.Weighted>
0.2507

> <Gold.Chemscore.DEInternal.Weighted>
1.1596

> <Gold.Chemscore.Rot.Weighted>
6.9557

> <Gold.Chemscore.Internal.Correction.Weighted>
   9.000000E+99

> <Gold.Protein.RotatedTorsions>
[ 6907 6896 6895 6894 ] final   18.35 input  -60.11 | X-H torsion
[ 7974 7965 7964 7962 ] final   58.79 input  175.53 | X-H torsion
[ 8008 7997 7996 7995 ] final   88.81 input   59.86 | X-H torsion
[ 10167 10162 10161 10158 ] final  -34.00 input  -65.29 | X-H torsion
[ 10718 10713 10712 10709 ] final  -55.64 input   66.30 | X-H torsion
[ 10763 10752 10751 10750 ] final    3.67 input  -60.55 | X-H torsion
[ 11005 11000 10999 10996 ] final -114.24 input  -57.11 | X-H torsion

> <Gold.Protein.ActiveResidues>
 VAL166  LYS551  ARG553  GLY616  TRP617  ASP618  TYR619  PRO620  LYS621  CYS622 
 ASP623  PHE694  ASN695  SER759  ASP760  ASP761  ALA762  ILE779  LEU786  VAL792 
 PHE793  MET794  SER795  GLU796  ALA797  LYS798  CYS799  TRP800  GLU811  SER814 

> <Gold.Protein.RotatedAtoms>
  151.8638  135.0514  160.0471 H   0  0  0  0  0  0  0  0  0  0  0  0  # atno 6907 bound_to 6896
  152.2642  133.5319  159.5408 H   0  0  0  0  0  0  0  0  0  0  0  0  # atno 6908 bound_to 6896
  150.7127  134.0704  159.3905 H   0  0  0  0  0  0  0  0  0  0  0  0  # atno 6909 bound_to 6896
  145.9143  139.3678  143.0517 H   0  0  0  0  0  0  0  0  0  0  0  0  # atno 7974 bound_to 7965
  155.9923  140.3367  155.6765 H   0  0  0  0  0  0  0  0  0  0  0  0  # atno 8008 bound_to 7997
  155.6403  140.0694  157.2638 H   0  0  0  0  0  0  0  0  0  0  0  0  # atno 8009 bound_to 7997
  154.4223  140.1744  156.1554 H   0  0  0  0  0  0  0  0  0  0  0  0  # atno 8010 bound_to 7997
  140.7194  143.3580  151.2021 H   0  0  0  0  0  0  0  0  0  0  0  0  # atno 10167 bound_to 10162
  156.1352  130.4157  150.0198 H   0  0  0  0  0  0  0  0  0  0  0  0  # atno 10718 bound_to 10713
  153.2806  135.6940  153.7390 H   0  0  0  0  0  0  0  0  0  0  0  0  # atno 10763 bound_to 10752
  153.6378  135.3398  155.3063 H   0  0  0  0  0  0  0  0  0  0  0  0  # atno 10764 bound_to 10752
  154.8494  135.4424  154.1857 H   0  0  0  0  0  0  0  0  0  0  0  0  # atno 10765 bound_to 10752
  141.0564  133.9605  157.2746 H   0  0  0  0  0  0  0  0  0  0  0  0  # atno 11005 bound_to 11000
  145.8632  140.9463  143.0689 LP  0  0  0  0  0  0  0  0  0  0  0  0  # atno 17320 bound_to 7965
  144.6746  140.0557  143.7477 LP  0  0  0  0  0  0  0  0  0  0  0  0  # atno 17321 bound_to 7965
  139.7125  143.9353  152.2953 LP  0  0  0  0  0  0  0  0  0  0  0  0  # atno 17342 bound_to 10162
  139.9083  144.6871  150.8590 LP  0  0  0  0  0  0  0  0  0  0  0  0  # atno 17343 bound_to 10162
  156.8099  130.9321  151.3644 LP  0  0  0  0  0  0  0  0  0  0  0  0  # atno 17370 bound_to 10713
  157.6525  130.8897  149.9662 LP  0  0  0  0  0  0  0  0  0  0  0  0  # atno 17371 bound_to 10713
  139.9394  135.0193  156.8660 LP  0  0  0  0  0  0  0  0  0  0  0  0  # atno 17394 bound_to 11000
  140.5955  134.0221  155.7516 LP  0  0  0  0  0  0  0  0  0  0  0  0  # atno 17395 bound_to 11000

$$$$
