AV-unprocessed.smi:2726|AV-procd|sdf|10519|dock7
  -GOLD-   2272014563D 1   1.00000     0.00000
 Structure written by MMmdl.
 41 42  0  0  0  0  0  0  0  0  1 V2000
  147.8210  132.7920  152.8431 C   0  0  0  0  0  0  0  0  0  0  0  0
  148.4154  133.2059  154.2011 C   0  0  0  0  0  0  0  0  0  0  0  0
  147.3303  133.0587  155.2884 C   0  0  0  0  0  0  0  0  0  0  0  0
  149.6245  132.2996  154.5145 C   0  0  0  0  0  0  0  0  0  0  0  0
  148.8349  134.6072  154.0747 N   0  0  0  0  0  0  0  0  0  0  0  0
  149.3369  135.4175  155.0220 C   0  0  0  0  0  0  0  0  0  0  0  0
  149.5290  135.0778  156.1891 O   0  0  0  0  0  0  0  0  0  0  0  0
  149.5758  136.6432  154.5254 N   0  0  0  0  0  0  0  0  0  0  0  0
  150.1022  137.7791  155.1965 C   0  0  0  0  0  0  0  0  0  0  0  0
  150.3707  137.8286  156.5849 C   0  0  0  0  0  0  0  0  0  0  0  0
  150.9121  139.0079  157.1314 C   0  0  0  0  0  0  0  0  0  0  0  0
  151.1755  140.0978  156.2766 C   0  0  0  0  0  0  0  0  0  0  0  0
  151.7113  141.2726  156.8259 N   0  0  0  0  0  0  0  0  0  0  0  0
  150.8386  142.4342  156.7787 C   0  0  0  0  0  0  0  0  0  0  0  0
  151.4515  143.4443  157.7518 C   0  0  0  0  0  0  0  0  0  0  0  0
  152.3145  142.6034  158.7006 C   0  0  0  0  0  0  0  0  0  0  0  0
  152.1558  141.1633  158.2056 C   0  0  0  0  0  0  0  0  0  0  0  0
  150.9337  140.0514  154.9447 N   0  0  0  0  0  0  0  0  0  0  0  0
  150.4161  138.9177  154.4265 C   0  0  0  0  0  0  0  0  0  0  0  0
  147.4794  131.7564  152.8584 H   0  0  0  0  0  0  0  0  0  0  0  0
  148.5561  132.8821  152.0423 H   0  0  0  0  0  0  0  0  0  0  0  0
  146.9660  133.4145  152.5757 H   0  0  0  0  0  0  0  0  0  0  0  0
  146.4828  133.7177  155.0960 H   0  0  0  0  0  0  0  0  0  0  0  0
  147.7107  133.2926  156.2827 H   0  0  0  0  0  0  0  0  0  0  0  0
  146.9491  132.0377  155.3258 H   0  0  0  0  0  0  0  0  0  0  0  0
  149.3351  131.2483  154.5172 H   0  0  0  0  0  0  0  0  0  0  0  0
  150.0555  132.5129  155.4926 H   0  0  0  0  0  0  0  0  0  0  0  0
  150.4144  132.4197  153.7723 H   0  0  0  0  0  0  0  0  0  0  0  0
  148.7227  135.0078  153.1550 H   0  0  0  0  0  0  0  0  0  0  0  0
  149.2870  136.7995  153.5707 H   0  0  0  0  0  0  0  0  0  0  0  0
  150.1874  136.9875  157.2351 H   0  0  0  0  0  0  0  0  0  0  0  0
  151.1247  139.0699  158.1888 H   0  0  0  0  0  0  0  0  0  0  0  0
  150.7758  142.8376  155.7677 H   0  0  0  0  0  0  0  0  0  0  0  0
  149.8298  142.1707  157.0996 H   0  0  0  0  0  0  0  0  0  0  0  0
  152.0785  144.1557  157.2131 H   0  0  0  0  0  0  0  0  0  0  0  0
  150.6836  144.0104  158.2798 H   0  0  0  0  0  0  0  0  0  0  0  0
  153.3570  142.9161  158.6301 H   0  0  0  0  0  0  0  0  0  0  0  0
  152.0062  142.7049  159.7417 H   0  0  0  0  0  0  0  0  0  0  0  0
  151.4123  140.6406  158.8091 H   0  0  0  0  0  0  0  0  0  0  0  0
  153.0931  140.6103  158.2730 H   0  0  0  0  0  0  0  0  0  0  0  0
  150.2416  138.9234  153.3603 H   0  0  0  0  0  0  0  0  0  0  0  0
  1  2  1  0  0  0  0
  1 20  1  0  0  0  0
  1 21  1  0  0  0  0
  1 22  1  0  0  0  0
  2  3  1  0  0  0  0
  2  4  1  0  0  0  0
  2  5  1  0  0  0  0
  3 23  1  0  0  0  0
  3 24  1  0  0  0  0
  3 25  1  0  0  0  0
  4 26  1  0  0  0  0
  4 27  1  0  0  0  0
  4 28  1  0  0  0  0
  5  6  1  0  0  0  0
  5 29  1  0  0  0  0
  6  7  2  0  0  0  0
  6  8  1  0  0  0  0
  8  9  1  0  0  0  0
  8 30  1  0  0  0  0
  9 19  1  0  0  0  0
  9 10  2  0  0  0  0
 10 11  1  0  0  0  0
 10 31  1  0  0  0  0
 11 12  2  0  0  0  0
 11 32  1  0  0  0  0
 12 13  1  0  0  0  0
 12 18  1  0  0  0  0
 13 17  1  0  0  0  0
 13 14  1  0  0  0  0
 14 15  1  0  0  0  0
 14 33  1  0  0  0  0
 14 34  1  0  0  0  0
 15 16  1  0  0  0  0
 15 35  1  0  0  0  0
 15 36  1  0  0  0  0
 16 17  1  0  0  0  0
 16 37  1  0  0  0  0
 16 38  1  0  0  0  0
 17 39  1  0  0  0  0
 17 40  1  0  0  0  0
 18 19  2  0  0  0  0
 19 41  1  0  0  0  0
M  END
> <s_m_source_file>
AV-unprocessed.smi

> <i_m_source_file_index>
2726

> <i_lp_mmshare_version>
43012

> <i_f3d_flags>
0

> <s_epik_input>
W0NIM11DKFtDSDNdKShbQ0gzXSlbTkhdQyg9TylbTkhdYzFbY0hdW2NIXWMobltjSF0xKU4yW0NIMl1bQ0gyXVtDSDJdW0NIMl0y

> <s_epik_cmdline>
J2VwaWtfcHl0aG9uJywgJy1waCcsICc3LjAnLCAnLXRuJywgJzgnLCAnLW1hJywgJzIwMCcsICctbWV0YWxfYmluZGluZycsICctaW1hZScsICc8aW5maWxlLm1hZT4nLCAnLW9tYWUnLCAnPG91dGZpbGUubWFlPic=

> <r_lp_tautomer_probability>
1

> <r_epik_Ionization_Penalty>
0.105331

> <r_epik_Ionization_Penalty_Charging>
0

> <r_epik_Ionization_Penalty_Neutral>
0.105331

> <r_epik_State_Penalty>
0.0946433

> <r_epik_Charging_Adjusted_Penalty>
0.0946433

> <i_epik_Tot_Q>
0

> <i_epik_Tot_abs_Q>
0

> <r_epik_Metal_State_Penalty>
0.0802816

> <b_epik_Metal_Only>
0

> <s_lp_Force_Field>
OPLS_2005

> <r_lp_Energy>
34.5725

> <b_lp_Chiralities_Consistent>
1

> <s_lp_Variant>
AV-unprocessed.smi:2726-1

> <Gold.Version>
5.8.1

> <Gold.Id.Protein>
6NUR|6NUR_protein|mol2

> <Gold.PLP.Fitness>
39.3457

> <Gold.PLP.PLP>
-29.1138

> <Gold.PLP.part.hbond>
-3.0000

> <Gold.PLP.part.metal>
0.0000

> <Gold.PLP.part.buried>
-1.9813

> <Gold.PLP.part.nonpolar>
-24.0322

> <Gold.PLP.part.repulsive>
0.1223

> <Gold.PLP.ligand.clash>
1.4293

> <Gold.PLP.ligand.torsion>
0.1712

> <Gold.PLP.Chemscore.Hbond>
3.0000

> <Gold.PLP.Chemscore.CHOScore>
0.9942

> <Gold.PLP.Chemscore.Metal>
0.0000

> <Gold.Chemscore.Hbonds>
donor molecule, donor type, donor heavy atom, donor atom, acceptor molecule, acceptor atom, score
      L1  H     5    29       P1  7948  1.00
      L1  H     8    30       P1  7948  1.00
      P1  H  7989  7998       L1    18  1.00
      L1  C    19    41       P1  7957  0.99

> <Gold.PLP.Chemscore.Internal.Correction>
0.0209

> <Gold.Rescore>
     Score         DG    S(hbond)    S(metal)    S(lipo)     H(rot)  DE(clash)    DE(int)     intcor
     18.03     -19.44       2.59        0.00      70.97       1.17       0.02       1.38       ----

> <Gold.Chemscore.Fitness>
18.0348

> <Gold.Chemscore.DG>
-19.4365

> <Gold.Chemscore.ZeroCoef>
-5.4800

> <Gold.Chemscore.Hbond>
2.5902

> <Gold.Chemscore.Metal>
0.0000

> <Gold.Chemscore.Lipo>
70.9658

> <Gold.Chemscore.Internal_Hbond>
0.0000

> <Gold.Chemscore.DEClash>
0.0212

> <Gold.Chemscore.DEInternal>
1.3805

> <Gold.Chemscore.Rot>
1.1710

> <Gold.Chemscore.Internal.Correction>
   9.000000E+99

> <Gold.Chemscore.Hbonds>
donor molecule, donor type, donor heavy atom, donor atom, acceptor molecule, acceptor atom, score
      L1  H     5    29       P1  7948  0.49
      L1  H     8    30       P1  7948  0.93
      P1  H  7989  7998       L1    18  0.40

> <Gold.Chemscore.Hbond.Weighted>
-8.6513

> <Gold.Chemscore.Metal.Weighted>
-0.0000

> <Gold.Chemscore.Lipo.Weighted>
-8.3030

> <Gold.Chemscore.Internal_Hbond.Weighted>
0.0000

> <Gold.Chemscore.DEClash.Weighted>
0.0212

> <Gold.Chemscore.DEInternal.Weighted>
1.3805

> <Gold.Chemscore.Rot.Weighted>
2.9978

> <Gold.Chemscore.Internal.Correction.Weighted>
   9.000000E+99

> <Gold.Protein.RotatedTorsions>
[ 6907 6896 6895 6894 ] final   92.87 input  -60.11 | X-H torsion
[ 7974 7965 7964 7962 ] final  179.28 input  175.53 | X-H torsion
[ 8008 7997 7996 7995 ] final  -62.09 input   59.86 | X-H torsion
[ 10167 10162 10161 10158 ] final  126.01 input  -65.29 | X-H torsion
[ 10718 10713 10712 10709 ] final -107.40 input   66.30 | X-H torsion
[ 10763 10752 10751 10750 ] final  165.92 input  -60.55 | X-H torsion
[ 11005 11000 10999 10996 ] final   48.49 input  -57.11 | X-H torsion

> <Gold.Protein.ActiveResidues>
 VAL166  LYS551  ARG553  GLY616  TRP617  ASP618  TYR619  PRO620  LYS621  CYS622 
 ASP623  PHE694  ASN695  SER759  ASP760  ASP761  ALA762  ILE779  LEU786  VAL792 
 PHE793  MET794  SER795  GLU796  ALA797  LYS798  CYS799  TRP800  GLU811  SER814 

> <Gold.Protein.RotatedAtoms>
  152.5453  134.1436  159.8488 H   0  0  0  0  0  0  0  0  0  0  0  0  # atno 6907 bound_to 6896
  151.1469  133.4926  159.2603 H   0  0  0  0  0  0  0  0  0  0  0  0  # atno 6908 bound_to 6896
  151.1513  135.0239  159.8724 H   0  0  0  0  0  0  0  0  0  0  0  0  # atno 6909 bound_to 6896
  144.7147  140.0524  143.6435 H   0  0  0  0  0  0  0  0  0  0  0  0  # atno 7974 bound_to 7965
  154.4481  140.1003  156.6532 H   0  0  0  0  0  0  0  0  0  0  0  0  # atno 8008 bound_to 7997
  155.5374  140.3483  155.4421 H   0  0  0  0  0  0  0  0  0  0  0  0  # atno 8009 bound_to 7997
  156.0621  140.1329  156.9918 H   0  0  0  0  0  0  0  0  0  0  0  0  # atno 8010 bound_to 7997
  139.5654  144.6908  151.3925 H   0  0  0  0  0  0  0  0  0  0  0  0  # atno 10167 bound_to 10162
  156.0435  130.5661  150.7816 H   0  0  0  0  0  0  0  0  0  0  0  0  # atno 10718 bound_to 10713
  154.3313  135.2755  155.2470 H   0  0  0  0  0  0  0  0  0  0  0  0  # atno 10763 bound_to 10752
  154.4781  135.5865  153.6373 H   0  0  0  0  0  0  0  0  0  0  0  0  # atno 10764 bound_to 10752
  152.9866  135.6104  154.3506 H   0  0  0  0  0  0  0  0  0  0  0  0  # atno 10765 bound_to 10752
  140.1186  134.4859  155.8616 H   0  0  0  0  0  0  0  0  0  0  0  0  # atno 11005 bound_to 11000
  145.9933  139.3032  143.0972 LP  0  0  0  0  0  0  0  0  0  0  0  0  # atno 17320 bound_to 7965
  145.8878  140.9323  143.0568 LP  0  0  0  0  0  0  0  0  0  0  0  0  # atno 17321 bound_to 7965
  140.6937  143.7800  150.7294 LP  0  0  0  0  0  0  0  0  0  0  0  0  # atno 17342 bound_to 10162
  140.1290  143.4543  152.2266 LP  0  0  0  0  0  0  0  0  0  0  0  0  # atno 17343 bound_to 10162
  157.5282  131.0935  150.9990 LP  0  0  0  0  0  0  0  0  0  0  0  0  # atno 17370 bound_to 10713
  157.0303  130.5709  149.5342 LP  0  0  0  0  0  0  0  0  0  0  0  0  # atno 17371 bound_to 10713
  141.2147  133.6752  156.6844 LP  0  0  0  0  0  0  0  0  0  0  0  0  # atno 17394 bound_to 11000
  140.2995  134.8175  157.4086 LP  0  0  0  0  0  0  0  0  0  0  0  0  # atno 17395 bound_to 11000

$$$$
