AV-unprocessed.smi:2213|AV-procd|sdf|8957|dock10
  -GOLD-   2272012173D 1   1.00000     0.00000
 Structure written by MMmdl.
 38 39  0  0  0  0  0  0  0  0  1 V2000
  145.5717  139.8962  156.3134 C   0  0  0  0  0  0  0  0  0  0  0  0
  146.9857  139.7784  155.7732 C   0  0  0  0  0  0  0  0  0  0  0  0
  147.6738  138.6149  156.1299 N   0  0  0  0  0  0  0  0  0  0  0  0
  148.8845  138.4291  155.7157 C   0  0  0  0  0  0  0  0  0  0  0  0
  149.5388  139.3698  154.9038 N   0  0  0  0  0  0  0  0  0  0  0  0
  150.9152  139.0377  154.5006 C   0  0  0  0  0  0  0  0  0  0  0  0
  151.8892  139.0353  155.7004 C   0  0  1  0  0  0  0  0  0  0  0  0
  153.2165  138.8373  155.2571 O   0  0  0  0  0  0  0  0  0  0  0  0
  151.8571  140.3449  156.5059 C   0  0  0  0  0  0  0  0  0  0  0  0
  152.5192  140.1578  157.7507 O   0  0  0  0  0  0  0  0  0  0  0  0
  152.6237  141.2309  158.6105 C   0  0  0  0  0  0  0  0  0  0  0  0
  152.1391  142.5309  158.3157 C   0  0  0  0  0  0  0  0  0  0  0  0
  152.2845  143.5766  159.2482 C   0  0  0  0  0  0  0  0  0  0  0  0
  151.6898  145.1526  158.8751 Cl  0  0  0  0  0  0  0  0  0  0  0  0
  152.9135  143.3380  160.4840 C   0  0  0  0  0  0  0  0  0  0  0  0
  153.3972  142.0522  160.7862 C   0  0  0  0  0  0  0  0  0  0  0  0
  153.2533  141.0051  159.8550 C   0  0  0  0  0  0  0  0  0  0  0  0
  153.8578  139.4358  160.2495 Cl  0  0  0  0  0  0  0  0  0  0  0  0
  148.9453  140.5369  154.5200 C   0  0  0  0  0  0  0  0  0  0  0  0
  149.5370  141.3650  153.8247 O   0  0  0  0  0  0  0  0  0  0  0  0
  147.5660  140.7324  154.9949 C   0  0  0  0  0  0  0  0  0  0  0  0
  146.8666  142.0197  154.5761 C   0  0  0  0  0  0  0  0  0  0  0  0
  144.8542  139.9702  155.4958 H   0  0  0  0  0  0  0  0  0  0  0  0
  145.4767  140.7816  156.9427 H   0  0  0  0  0  0  0  0  0  0  0  0
  145.3029  139.0280  156.9166 H   0  0  0  0  0  0  0  0  0  0  0  0
  149.4674  137.5425  155.9714 H   0  0  0  0  0  0  0  0  0  0  0  0
  150.9684  138.0890  153.9620 H   0  0  0  0  0  0  0  0  0  0  0  0
  151.2466  139.7776  153.7694 H   0  0  0  0  0  0  0  0  0  0  0  0
  151.6485  138.2191  156.3828 H   0  0  0  0  0  0  0  0  0  0  0  0
  153.2174  138.8271  154.3121 H   0  0  0  0  0  0  0  0  0  0  0  0
  152.3795  141.1159  155.9374 H   0  0  0  0  0  0  0  0  0  0  0  0
  150.8284  140.6797  156.6519 H   0  0  0  0  0  0  0  0  0  0  0  0
  151.6506  142.7514  157.3789 H   0  0  0  0  0  0  0  0  0  0  0  0
  153.0253  144.1388  161.2001 H   0  0  0  0  0  0  0  0  0  0  0  0
  153.8802  141.8694  161.7349 H   0  0  0  0  0  0  0  0  0  0  0  0
  147.4129  142.8843  154.9544 H   0  0  0  0  0  0  0  0  0  0  0  0
  145.8437  142.0917  154.9418 H   0  0  0  0  0  0  0  0  0  0  0  0
  146.8302  142.0917  153.4885 H   0  0  0  0  0  0  0  0  0  0  0  0
  1  2  1  0  0  0  0
  1 23  1  0  0  0  0
  1 24  1  0  0  0  0
  1 25  1  0  0  0  0
  2 21  2  0  0  0  0
  2  3  1  0  0  0  0
  3  4  2  0  0  0  0
  4  5  1  0  0  0  0
  4 26  1  0  0  0  0
  5  6  1  0  0  0  0
  5 19  1  0  0  0  0
  6  7  1  0  0  0  0
  6 27  1  0  0  0  0
  6 28  1  0  0  0  0
  7  8  1  0  0  0  0
  7  9  1  0  0  0  0
  7 29  1  0  0  0  0
  8 30  1  0  0  0  0
  9 10  1  0  0  0  0
  9 31  1  0  0  0  0
  9 32  1  0  0  0  0
 10 11  1  0  0  0  0
 11 17  1  0  0  0  0
 11 12  2  0  0  0  0
 12 13  1  0  0  0  0
 12 33  1  0  0  0  0
 13 14  1  0  0  0  0
 13 15  2  0  0  0  0
 15 16  1  0  0  0  0
 15 34  1  0  0  0  0
 16 17  2  0  0  0  0
 16 35  1  0  0  0  0
 17 18  1  0  0  0  0
 19 20  2  0  0  0  0
 19 21  1  0  0  0  0
 21 22  1  0  0  0  0
 22 36  1  0  0  0  0
 22 37  1  0  0  0  0
 22 38  1  0  0  0  0
M  END
> <s_m_source_file>
AV-unprocessed.smi

> <i_m_source_file_index>
2213

> <i_lp_mmshare_version>
43012

> <i_f3d_flags>
0

> <s_epik_input>
W0NIM11jMW5bY0hdbihjKD1PKWMxW0NIM10pW0NIMl1bQ0BIXShbT0hdKVtDSDJdT2MyW2NIXWMoQ2wpW2NIXVtjSF1jMkNs

> <s_epik_cmdline>
J2VwaWtfcHl0aG9uJywgJy1waCcsICc3LjAnLCAnLXRuJywgJzgnLCAnLW1hJywgJzIwMCcsICctbWV0YWxfYmluZGluZycsICctaW1hZScsICc8aW5maWxlLm1hZT4nLCAnLW9tYWUnLCAnPG91dGZpbGUubWFlPic=

> <r_lp_tautomer_probability>
1

> <r_epik_Ionization_Penalty>
3.50205e-05

> <r_epik_Ionization_Penalty_Charging>
7.87908e-08

> <r_epik_Ionization_Penalty_Neutral>
3.49418e-05

> <r_epik_State_Penalty>
-0

> <r_epik_Charging_Adjusted_Penalty>
7.87908e-08

> <i_epik_Tot_Q>
0

> <i_epik_Tot_abs_Q>
0

> <r_epik_Metal_State_Penalty>
-0

> <b_epik_Metal_Only>
0

> <s_lp_Force_Field>
OPLS_2005

> <r_lp_Energy>
23.8454

> <b_lp_Chiralities_Consistent>
1

> <s_lp_Variant>
AV-unprocessed.smi:2213-2

> <Gold.Version>
5.8.1

> <Gold.Id.Protein>
6NUR|6NUR_protein|mol2

> <Gold.PLP.Fitness>
49.2197

> <Gold.PLP.PLP>
-43.6134

> <Gold.PLP.part.hbond>
-3.7689

> <Gold.PLP.part.metal>
0.0000

> <Gold.PLP.part.buried>
-4.0299

> <Gold.PLP.part.nonpolar>
-36.4206

> <Gold.PLP.part.repulsive>
1.3722

> <Gold.PLP.ligand.clash>
0.0000

> <Gold.PLP.ligand.torsion>
0.1584

> <Gold.PLP.Chemscore.Hbond>
1.9622

> <Gold.PLP.Chemscore.CHOScore>
0.0000

> <Gold.PLP.Chemscore.Metal>
0.0000

> <Gold.Chemscore.Hbonds>
donor molecule, donor type, donor heavy atom, donor atom, acceptor molecule, acceptor atom, score
      P1  H  7989  7998       L1    20  0.16
      P1  H  7997  8010       L1     8  1.00
      P1  H  8011  8017       L1    20  0.78

> <Gold.PLP.Chemscore.Internal.Correction>
0.0364

> <Gold.Rescore>
     Score         DG    S(hbond)    S(metal)    S(lipo)     H(rot)  DE(clash)    DE(int)     intcor
     18.92     -19.47       1.89        0.00     117.62       2.38       0.34       0.21       ----

> <Gold.Chemscore.Fitness>
18.9198

> <Gold.Chemscore.DG>
-19.4686

> <Gold.Chemscore.ZeroCoef>
-5.4800

> <Gold.Chemscore.Hbond>
1.8941

> <Gold.Chemscore.Metal>
0.0000

> <Gold.Chemscore.Lipo>
117.6242

> <Gold.Chemscore.Internal_Hbond>
0.0000

> <Gold.Chemscore.DEClash>
0.3355

> <Gold.Chemscore.DEInternal>
0.2133

> <Gold.Chemscore.Rot>
2.3826

> <Gold.Chemscore.Internal.Correction>
   9.000000E+99

> <Gold.Chemscore.Hbonds>
donor molecule, donor type, donor heavy atom, donor atom, acceptor molecule, acceptor atom, score
      P1  H  7989  7998       L1    20  0.15
      P1  H  7997  8010       L1     8  0.60
      P1  H  8011  8017       L1    20  0.80

> <Gold.Chemscore.Hbond.Weighted>
-6.3261

> <Gold.Chemscore.Metal.Weighted>
-0.0000

> <Gold.Chemscore.Lipo.Weighted>
-13.7620

> <Gold.Chemscore.Internal_Hbond.Weighted>
0.0000

> <Gold.Chemscore.DEClash.Weighted>
0.3355

> <Gold.Chemscore.DEInternal.Weighted>
0.2133

> <Gold.Chemscore.Rot.Weighted>
6.0996

> <Gold.Chemscore.Internal.Correction.Weighted>
   9.000000E+99

> <Gold.Protein.RotatedTorsions>
[ 6907 6896 6895 6894 ] final   97.24 input  -60.11 | X-H torsion
[ 7974 7965 7964 7962 ] final  134.66 input  175.53 | X-H torsion
[ 8008 7997 7996 7995 ] final  105.22 input   59.86 | X-H torsion
[ 10167 10162 10161 10158 ] final -138.38 input  -65.29 | X-H torsion
[ 10718 10713 10712 10709 ] final  116.13 input   66.30 | X-H torsion
[ 10763 10752 10751 10750 ] final -177.88 input  -60.55 | X-H torsion
[ 11005 11000 10999 10996 ] final   49.12 input  -57.11 | X-H torsion

> <Gold.Protein.ActiveResidues>
 VAL166  LYS551  ARG553  GLY616  TRP617  ASP618  TYR619  PRO620  LYS621  CYS622 
 ASP623  PHE694  ASN695  SER759  ASP760  ASP761  ALA762  ILE779  LEU786  VAL792 
 PHE793  MET794  SER795  GLU796  ALA797  LYS798  CYS799  TRP800  GLU811  SER814 

> <Gold.Protein.RotatedAtoms>
  152.5426  134.0763  159.8215 H   0  0  0  0  0  0  0  0  0  0  0  0  # atno 6907 bound_to 6896
  151.0871  133.5337  159.2624 H   0  0  0  0  0  0  0  0  0  0  0  0  # atno 6908 bound_to 6896
  151.2143  135.0502  159.8978 H   0  0  0  0  0  0  0  0  0  0  0  0  # atno 6909 bound_to 6896
  144.9741  139.4574  143.5418 H   0  0  0  0  0  0  0  0  0  0  0  0  # atno 7974 bound_to 7965
  156.1640  140.3134  155.8857 H   0  0  0  0  0  0  0  0  0  0  0  0  # atno 8008 bound_to 7997
  155.3724  140.0483  157.3062 H   0  0  0  0  0  0  0  0  0  0  0  0  # atno 8009 bound_to 7997
  154.5174  140.2186  155.9050 H   0  0  0  0  0  0  0  0  0  0  0  0  # atno 8010 bound_to 7997
  139.8484  143.7230  152.2659 H   0  0  0  0  0  0  0  0  0  0  0  0  # atno 10167 bound_to 10162
  157.6179  131.1021  150.7429 H   0  0  0  0  0  0  0  0  0  0  0  0  # atno 10718 bound_to 10713
  154.5546  135.2815  155.0976 H   0  0  0  0  0  0  0  0  0  0  0  0  # atno 10763 bound_to 10752
  154.2409  135.6357  153.5210 H   0  0  0  0  0  0  0  0  0  0  0  0  # atno 10764 bound_to 10752
  153.0012  135.5559  154.6122 H   0  0  0  0  0  0  0  0  0  0  0  0  # atno 10765 bound_to 10752
  140.1131  134.4929  155.8661 H   0  0  0  0  0  0  0  0  0  0  0  0  # atno 11005 bound_to 11000
  146.3390  139.8972  142.8800 LP  0  0  0  0  0  0  0  0  0  0  0  0  # atno 17320 bound_to 7965
  145.2516  141.0046  143.3878 LP  0  0  0  0  0  0  0  0  0  0  0  0  # atno 17321 bound_to 7965
  139.7489  144.7539  151.0537 LP  0  0  0  0  0  0  0  0  0  0  0  0  # atno 17342 bound_to 10162
  140.7790  143.4883  150.9926 LP  0  0  0  0  0  0  0  0  0  0  0  0  # atno 17343 bound_to 10162
  156.7792  130.4854  149.5404 LP  0  0  0  0  0  0  0  0  0  0  0  0  # atno 17370 bound_to 10713
  156.1310  130.6178  151.0333 LP  0  0  0  0  0  0  0  0  0  0  0  0  # atno 17371 bound_to 10713
  141.2135  133.6734  156.6743 LP  0  0  0  0  0  0  0  0  0  0  0  0  # atno 17394 bound_to 11000
  140.3065  134.8121  157.4141 LP  0  0  0  0  0  0  0  0  0  0  0  0  # atno 17395 bound_to 11000

$$$$
