AV-unprocessed.smi:234|AV-procd|sdf|1794|dock4
  -GOLD-   2262020353D 1   1.00000     0.00000
 Structure written by MMmdl.
 59 62  0  0  0  0  0  0  0  0  1 V2000
  157.4595  132.5469  161.5623 C   0  0  0  0  0  0  0  0  0  0  0  0
  156.3902  132.4748  162.6543 C   0  0  0  0  0  0  0  0  0  0  0  0
  156.7650  133.3344  163.7174 O   0  0  0  0  0  0  0  0  0  0  0  0
  157.0253  134.6642  163.2949 C   0  0  1  0  0  0  0  0  0  0  0  0
  155.8719  135.2391  162.4752 C   0  0  0  0  0  0  0  0  0  0  0  0
  156.1954  136.5725  163.1610 C   0  0  1  0  0  0  0  0  0  0  0  0
  155.0218  137.3920  163.4737 N   0  0  0  0  0  0  0  0  0  0  0  0
  155.1246  138.2878  164.6180 C   0  0  0  0  0  0  0  0  0  0  0  0
  154.4196  138.0042  162.4281 C   0  0  0  0  0  0  0  0  0  0  0  0
  153.4334  137.3193  161.7968 N   0  0  0  0  0  0  0  0  0  0  0  0
  152.8062  137.8616  160.7489 C   0  0  0  0  0  0  0  0  0  0  0  0
  153.0039  139.0539  160.1828 N   0  0  0  0  0  0  0  0  0  0  0  0
  153.9855  139.7510  160.8239 C   0  0  0  0  0  0  0  0  0  0  0  0
  154.7347  139.3092  161.9507 C   0  0  0  0  0  0  0  0  0  0  0  0
  155.6317  140.2981  162.3376 N   0  0  0  0  0  0  0  0  0  0  0  0
  155.4368  141.2607  161.4787 C   0  0  0  0  0  0  0  0  0  0  0  0
  154.4731  141.0118  160.5281 N   0  0  0  0  0  0  0  0  0  0  0  0
  154.0664  141.8991  159.4501 C   0  0  0  0  0  0  0  0  0  0  0  0
  152.7756  142.6904  159.7679 C   0  0  1  0  0  0  0  0  0  0  0  0
  151.8162  141.7907  160.3009 O   0  0  0  0  0  0  0  0  0  0  0  0
  152.9731  143.8299  160.7567 C   0  0  0  0  0  0  0  0  0  0  0  0
  151.8013  144.7500  160.4388 C   0  0  0  0  0  0  0  0  0  0  0  0
  151.6324  144.6519  159.0303 O   0  0  0  0  0  0  0  0  0  0  0  0
  152.2027  143.4372  158.5438 C   0  0  2  0  0  0  0  0  0  0  0  0
  151.1943  142.6659  157.6772 C   0  0  0  0  0  0  0  0  0  0  0  0
  156.7699  135.7654  164.3590 C   0  0  0  0  0  0  0  0  0  0  0  0
  155.7940  135.3860  165.4876 C   0  0  0  0  0  0  0  0  0  0  0  0
  158.0220  136.3491  165.0157 C   0  0  0  0  0  0  0  0  0  0  0  0
  157.2076  131.8933  160.7269 H   0  0  0  0  0  0  0  0  0  0  0  0
  158.4327  132.2405  161.9466 H   0  0  0  0  0  0  0  0  0  0  0  0
  157.5551  133.5621  161.1766 H   0  0  0  0  0  0  0  0  0  0  0  0
  155.4247  132.7711  162.2444 H   0  0  0  0  0  0  0  0  0  0  0  0
  156.2948  131.4501  163.0166 H   0  0  0  0  0  0  0  0  0  0  0  0
  157.9775  134.7756  162.7702 H   0  0  0  0  0  0  0  0  0  0  0  0
  156.0308  135.2296  161.3966 H   0  0  0  0  0  0  0  0  0  0  0  0
  154.8992  134.8238  162.7451 H   0  0  0  0  0  0  0  0  0  0  0  0
  156.9820  137.1168  162.6349 H   0  0  0  0  0  0  0  0  0  0  0  0
  154.1556  138.7245  164.8638 H   0  0  0  0  0  0  0  0  0  0  0  0
  155.8238  139.0982  164.4080 H   0  0  0  0  0  0  0  0  0  0  0  0
  155.4778  137.7562  165.5002 H   0  0  0  0  0  0  0  0  0  0  0  0
  152.0383  137.2513  160.2969 H   0  0  0  0  0  0  0  0  0  0  0  0
  156.0000  142.1822  161.5094 H   0  0  0  0  0  0  0  0  0  0  0  0
  154.8903  142.5841  159.2455 H   0  0  0  0  0  0  0  0  0  0  0  0
  153.9325  141.3039  158.5458 H   0  0  0  0  0  0  0  0  0  0  0  0
  151.0810  142.2929  160.6177 H   0  0  0  0  0  0  0  0  0  0  0  0
  152.9992  143.5103  161.7995 H   0  0  0  0  0  0  0  0  0  0  0  0
  153.9051  144.3547  160.5436 H   0  0  0  0  0  0  0  0  0  0  0  0
  150.8933  144.3976  160.9297 H   0  0  0  0  0  0  0  0  0  0  0  0
  151.9781  145.7794  160.7507 H   0  0  0  0  0  0  0  0  0  0  0  0
  153.0331  143.7442  157.9060 H   0  0  0  0  0  0  0  0  0  0  0  0
  151.6226  141.7308  157.3152 H   0  0  0  0  0  0  0  0  0  0  0  0
  150.9037  143.2559  156.8078 H   0  0  0  0  0  0  0  0  0  0  0  0
  150.2846  142.4298  158.2299 H   0  0  0  0  0  0  0  0  0  0  0  0
  155.5451  136.2431  166.1131 H   0  0  0  0  0  0  0  0  0  0  0  0
  156.2179  134.6248  166.1427 H   0  0  0  0  0  0  0  0  0  0  0  0
  154.8555  134.9868  165.1030 H   0  0  0  0  0  0  0  0  0  0  0  0
  157.7943  137.2435  165.5951 H   0  0  0  0  0  0  0  0  0  0  0  0
  158.7685  136.6296  164.2721 H   0  0  0  0  0  0  0  0  0  0  0  0
  158.4932  135.6354  165.6914 H   0  0  0  0  0  0  0  0  0  0  0  0
  1  2  1  0  0  0  0
  1 29  1  0  0  0  0
  1 30  1  0  0  0  0
  1 31  1  0  0  0  0
  2  3  1  0  0  0  0
  2 32  1  0  0  0  0
  2 33  1  0  0  0  0
  3  4  1  0  0  0  0
  4 26  1  0  0  0  0
  4  5  1  0  0  0  0
  4 34  1  0  0  0  0
  5  6  1  0  0  0  0
  5 35  1  0  0  0  0
  5 36  1  0  0  0  0
  6  7  1  0  0  0  0
  6 26  1  0  0  0  0
  6 37  1  0  0  0  0
  7  8  1  0  0  0  0
  7  9  1  0  0  0  0
  8 38  1  0  0  0  0
  8 39  1  0  0  0  0
  8 40  1  0  0  0  0
  9 14  1  0  0  0  0
  9 10  2  0  0  0  0
 10 11  1  0  0  0  0
 11 12  2  0  0  0  0
 11 41  1  0  0  0  0
 12 13  1  0  0  0  0
 13 17  1  0  0  0  0
 13 14  2  0  0  0  0
 14 15  1  0  0  0  0
 15 16  2  0  0  0  0
 16 17  1  0  0  0  0
 16 42  1  0  0  0  0
 17 18  1  0  0  0  0
 18 19  1  0  0  0  0
 18 43  1  0  0  0  0
 18 44  1  0  0  0  0
 19 24  1  0  0  0  0
 19 20  1  0  0  0  0
 19 21  1  0  0  0  0
 20 45  1  0  0  0  0
 21 22  1  0  0  0  0
 21 46  1  0  0  0  0
 21 47  1  0  0  0  0
 22 23  1  0  0  0  0
 22 48  1  0  0  0  0
 22 49  1  0  0  0  0
 23 24  1  0  0  0  0
 24 25  1  0  0  0  0
 24 50  1  0  0  0  0
 25 51  1  0  0  0  0
 25 52  1  0  0  0  0
 25 53  1  0  0  0  0
 26 27  1  0  0  0  0
 26 28  1  0  0  0  0
 27 54  1  0  0  0  0
 27 55  1  0  0  0  0
 27 56  1  0  0  0  0
 28 57  1  0  0  0  0
 28 58  1  0  0  0  0
 28 59  1  0  0  0  0
M  END
> <s_m_source_file>
AV-unprocessed.smi

> <i_m_source_file_index>
234

> <i_lp_mmshare_version>
43012

> <i_f3d_flags>
0

> <s_epik_input>
W0NIM11bQ0gyXU9bQ0BASF0oQzEoW0NIM10pW0NIM10pW0NIMl1bQ0BIXTFOKFtDSDNdKWMobltjSF1uMiljKGMyMyluW2NIXW4zW0NIMl1bQ0BAXTQoW09IXSlbQ0gyXVtDSDJdT1tDQEhdNFtDSDNd

> <s_epik_cmdline>
J2VwaWtfcHl0aG9uJywgJy1waCcsICc3LjAnLCAnLXRuJywgJzgnLCAnLW1hJywgJzIwMCcsICctbWV0YWxfYmluZGluZycsICctaW1hZScsICc8aW5maWxlLm1hZT4nLCAnLW9tYWUnLCAnPG91dGZpbGUubWFlPic=

> <r_lp_tautomer_probability>
1

> <r_epik_Ionization_Penalty>
0.00349132

> <r_epik_Ionization_Penalty_Charging>
0

> <r_epik_Ionization_Penalty_Neutral>
0.00349132

> <r_epik_State_Penalty>
0.00242418

> <r_epik_Charging_Adjusted_Penalty>
0.00242418

> <i_epik_Tot_Q>
0

> <i_epik_Tot_abs_Q>
0

> <r_epik_Metal_State_Penalty>
-0

> <b_epik_Metal_Only>
0

> <s_lp_Force_Field>
OPLS_2005

> <r_lp_Energy>
47.8711

> <b_lp_Chiralities_Consistent>
1

> <s_lp_Variant>
AV-unprocessed.smi:234-10

> <Gold.Version>
5.8.1

> <Gold.Id.Protein>
6NUR|6NUR_protein|mol2

> <Gold.PLP.Fitness>
46.8798

> <Gold.PLP.PLP>
-45.8317

> <Gold.PLP.part.hbond>
-1.7144

> <Gold.PLP.part.metal>
0.0000

> <Gold.PLP.part.buried>
-6.5075

> <Gold.PLP.part.nonpolar>
-37.5238

> <Gold.PLP.part.repulsive>
0.0821

> <Gold.PLP.ligand.clash>
0.0000

> <Gold.PLP.ligand.torsion>
1.3809

> <Gold.PLP.Chemscore.Hbond>
1.0000

> <Gold.PLP.Chemscore.CHOScore>
0.0000

> <Gold.PLP.Chemscore.Metal>
0.0000

> <Gold.PLP.Chemscore.Internal.Correction>
0.8100

> <Gold.Rescore>
     Score         DG    S(hbond)    S(metal)    S(lipo)     H(rot)  DE(clash)    DE(int)     intcor
     11.46     -13.26       0.93        0.00      97.22       2.62       0.20       1.59       ----

> <Gold.Chemscore.Fitness>
11.4604

> <Gold.Chemscore.DG>
-13.2561

> <Gold.Chemscore.ZeroCoef>
-5.4800

> <Gold.Chemscore.Hbond>
0.9323

> <Gold.Chemscore.Metal>
0.0000

> <Gold.Chemscore.Lipo>
97.2167

> <Gold.Chemscore.Internal_Hbond>
0.0000

> <Gold.Chemscore.DEClash>
0.2047

> <Gold.Chemscore.DEInternal>
1.5910

> <Gold.Chemscore.Rot>
2.6219

> <Gold.Chemscore.Internal.Correction>
   9.000000E+99

> <Gold.Chemscore.Hbond.Weighted>
-3.1139

> <Gold.Chemscore.Metal.Weighted>
-0.0000

> <Gold.Chemscore.Lipo.Weighted>
-11.3744

> <Gold.Chemscore.Internal_Hbond.Weighted>
0.0000

> <Gold.Chemscore.DEClash.Weighted>
0.2047

> <Gold.Chemscore.DEInternal.Weighted>
1.5910

> <Gold.Chemscore.Rot.Weighted>
6.7121

> <Gold.Chemscore.Internal.Correction.Weighted>
   9.000000E+99

> <Gold.Protein.RotatedTorsions>
[ 6907 6896 6895 6894 ] final   25.37 input  -60.11 | X-H torsion
[ 7974 7965 7964 7962 ] final -137.53 input  175.53 | X-H torsion
[ 8008 7997 7996 7995 ] final   72.46 input   59.86 | X-H torsion
[ 10167 10162 10161 10158 ] final   72.52 input  -65.29 | X-H torsion
[ 10718 10713 10712 10709 ] final  177.28 input   66.30 | X-H torsion
[ 10763 10752 10751 10750 ] final   27.60 input  -60.55 | X-H torsion
[ 11005 11000 10999 10996 ] final  146.53 input  -57.11 | X-H torsion

> <Gold.Protein.ActiveResidues>
 VAL166  LYS551  ARG553  GLY616  TRP617  ASP618  TYR619  PRO620  LYS621  CYS622 
 ASP623  PHE694  ASN695  SER759  ASP760  ASP761  ALA762  ILE779  LEU786  VAL792 
 PHE793  MET794  SER795  GLU796  ALA797  LYS798  CYS799  TRP800  GLU811  SER814 

> <Gold.Protein.RotatedAtoms>
  151.9715  135.0074  160.0552 H   0  0  0  0  0  0  0  0  0  0  0  0  # atno 6907 bound_to 6896
  152.1779  133.4682  159.4951 H   0  0  0  0  0  0  0  0  0  0  0  0  # atno 6908 bound_to 6896
  150.6912  134.1788  159.4283 H   0  0  0  0  0  0  0  0  0  0  0  0  # atno 6909 bound_to 6896
  144.8834  140.6540  143.5191 H   0  0  0  0  0  0  0  0  0  0  0  0  # atno 7974 bound_to 7965
  155.7691  140.3485  155.5238 H   0  0  0  0  0  0  0  0  0  0  0  0  # atno 8008 bound_to 7997
  155.8839  140.1006  157.1487 H   0  0  0  0  0  0  0  0  0  0  0  0  # atno 8009 bound_to 7997
  154.4027  140.1317  156.4218 H   0  0  0  0  0  0  0  0  0  0  0  0  # atno 8010 bound_to 7997
  140.0344  144.5439  150.7482 H   0  0  0  0  0  0  0  0  0  0  0  0  # atno 10167 bound_to 10162
  156.9076  130.9899  151.3026 H   0  0  0  0  0  0  0  0  0  0  0  0  # atno 10718 bound_to 10713
  153.0545  135.6533  154.0611 H   0  0  0  0  0  0  0  0  0  0  0  0  # atno 10763 bound_to 10752
  154.0292  135.2913  155.3372 H   0  0  0  0  0  0  0  0  0  0  0  0  # atno 10764 bound_to 10752
  154.6852  135.5304  153.8384 H   0  0  0  0  0  0  0  0  0  0  0  0  # atno 10765 bound_to 10752
  140.0801  134.9102  157.1487 H   0  0  0  0  0  0  0  0  0  0  0  0  # atno 11005 bound_to 11000
  145.3913  139.1616  143.4227 LP  0  0  0  0  0  0  0  0  0  0  0  0  # atno 17320 bound_to 7965
  146.3009  140.4002  142.8704 LP  0  0  0  0  0  0  0  0  0  0  0  0  # atno 17321 bound_to 7965
  140.7288  143.2665  151.4027 LP  0  0  0  0  0  0  0  0  0  0  0  0  # atno 17342 bound_to 10162
  139.6054  144.1207  152.2244 LP  0  0  0  0  0  0  0  0  0  0  0  0  # atno 17343 bound_to 10162
  157.5987  130.8497  149.8769 LP  0  0  0  0  0  0  0  0  0  0  0  0  # atno 17370 bound_to 10713
  156.0551  130.3710  150.1109 LP  0  0  0  0  0  0  0  0  0  0  0  0  # atno 17371 bound_to 10713
  140.3500  134.2609  155.7200 LP  0  0  0  0  0  0  0  0  0  0  0  0  # atno 17394 bound_to 11000
  141.2043  133.7888  157.0291 LP  0  0  0  0  0  0  0  0  0  0  0  0  # atno 17395 bound_to 11000

$$$$
