AV-unprocessed.smi:2973|AV-procd|sdf|11351|dock5
  -GOLD-   2272016263D 1   1.00000     0.00000
 Structure written by MMmdl.
 49 51  0  0  0  0  0  0  0  0  3 V2000
  154.1330  138.7234  160.1196 C   0  0  0  0  0  0  0  0  0  0  0  0
  153.4718  139.9003  159.3694 C   0  0  2  0  0  0  0  0  0  0  0  0
  153.1519  141.0574  160.3404 C   0  0  0  0  0  0  0  0  0  0  0  0
  152.5938  142.2839  159.6036 C   0  0  0  0  0  0  0  0  0  0  0  0
  151.3466  141.9191  158.7889 C   0  0  0  0  0  0  0  0  0  0  0  0
  151.6401  140.7732  157.8059 C   0  0  0  0  0  0  0  0  0  0  0  0
  152.2268  139.5183  158.5032 C   0  0  2  0  0  0  0  0  0  0  0  0
  151.1985  138.8579  159.2907 N   0  5  0  0  0  0  0  0  0  0  0  0
  150.9710  137.6264  158.7777 C   0  0  0  0  0  0  0  0  0  0  0  0
  150.1568  136.7990  159.1855 O   0  0  0  0  0  0  0  0  0  0  0  0
  151.7661  137.3917  157.7165 N   0  0  0  0  0  0  0  0  0  0  0  0
  151.7598  136.1696  156.9017 C   0  0  0  0  0  0  0  0  0  0  0  0
  150.4128  135.9452  156.2040 C   0  0  0  0  0  0  0  0  0  0  0  0
  149.4450  136.6608  156.4659 O   0  0  0  0  0  0  0  0  0  0  0  0
  150.3628  134.9414  155.3143 N   0  0  0  0  0  0  0  0  0  0  0  0
  149.1973  134.5842  154.5083 C   0  0  0  0  0  0  0  0  0  0  0  0
  148.9662  133.0605  154.4420 C   0  0  0  0  0  0  0  0  0  0  0  0
  147.9710  132.6304  153.3772 C   0  0  0  0  0  0  0  0  0  0  0  0
  147.3467  131.3641  153.3991 C   0  0  0  0  0  0  0  0  0  0  0  0
  146.4544  131.0175  152.3637 C   0  0  0  0  0  0  0  0  0  0  0  0
  146.2043  131.9421  151.3294 C   0  0  0  0  0  0  0  0  0  0  0  0
  146.8519  133.1936  151.3583 C   0  0  0  0  0  0  0  0  0  0  0  0
  147.6971  133.4907  152.3696 N   0  3  0  0  0  0  0  0  0  0  0  0
  152.5440  138.4506  157.4666 C   0  0  0  0  0  0  0  0  0  0  0  0
  153.3735  138.5747  156.5639 O   0  0  0  0  0  0  0  0  0  0  0  0
  153.4547  138.2810  160.8496 H   0  0  0  0  0  0  0  0  0  0  0  0
  155.0193  139.0570  160.6593 H   0  0  0  0  0  0  0  0  0  0  0  0
  154.4522  137.9338  159.4398 H   0  0  0  0  0  0  0  0  0  0  0  0
  154.2297  140.2807  158.6823 H   0  0  0  0  0  0  0  0  0  0  0  0
  152.4340  140.7243  161.0910 H   0  0  0  0  0  0  0  0  0  0  0  0
  154.0514  141.3448  160.8854 H   0  0  0  0  0  0  0  0  0  0  0  0
  152.3517  143.0689  160.3204 H   0  0  0  0  0  0  0  0  0  0  0  0
  153.3580  142.6929  158.9416 H   0  0  0  0  0  0  0  0  0  0  0  0
  150.5398  141.6299  159.4636 H   0  0  0  0  0  0  0  0  0  0  0  0
  150.9912  142.7931  158.2427 H   0  0  0  0  0  0  0  0  0  0  0  0
  150.7289  140.5199  157.2613 H   0  0  0  0  0  0  0  0  0  0  0  0
  152.3459  141.1375  157.0580 H   0  0  0  0  0  0  0  0  0  0  0  0
  152.5597  136.2205  156.1603 H   0  0  0  0  0  0  0  0  0  0  0  0
  151.9822  135.2964  157.5166 H   0  0  0  0  0  0  0  0  0  0  0  0
  151.2014  134.3971  155.1706 H   0  0  0  0  0  0  0  0  0  0  0  0
  148.3220  135.0666  154.9437 H   0  0  0  0  0  0  0  0  0  0  0  0
  149.2937  134.9917  153.5005 H   0  0  0  0  0  0  0  0  0  0  0  0
  149.9165  132.5584  154.2559 H   0  0  0  0  0  0  0  0  0  0  0  0
  148.6205  132.6999  155.4114 H   0  0  0  0  0  0  0  0  0  0  0  0
  147.5590  130.6581  154.1885 H   0  0  0  0  0  0  0  0  0  0  0  0
  145.9770  130.0486  152.3575 H   0  0  0  0  0  0  0  0  0  0  0  0
  145.5327  131.6906  150.5216 H   0  0  0  0  0  0  0  0  0  0  0  0
  146.7256  133.9576  150.6054 H   0  0  0  0  0  0  0  0  0  0  0  0
  148.1634  134.3980  152.3630 H   0  0  0  0  0  0  0  0  0  0  0  0
  1  2  1  0  0  0  0
  1 26  1  0  0  0  0
  1 27  1  0  0  0  0
  1 28  1  0  0  0  0
  2  7  1  0  0  0  0
  2  3  1  0  0  0  0
  2 29  1  0  0  0  0
  3  4  1  0  0  0  0
  3 30  1  0  0  0  0
  3 31  1  0  0  0  0
  4  5  1  0  0  0  0
  4 32  1  0  0  0  0
  4 33  1  0  0  0  0
  5  6  1  0  0  0  0
  5 34  1  0  0  0  0
  5 35  1  0  0  0  0
  6  7  1  0  0  0  0
  6 36  1  0  0  0  0
  6 37  1  0  0  0  0
  7 24  1  0  0  0  0
  7  8  1  0  0  0  0
  8  9  1  0  0  0  0
  9 10  2  0  0  0  0
  9 11  1  0  0  0  0
 11 12  1  0  0  0  0
 11 24  1  0  0  0  0
 12 13  1  0  0  0  0
 12 38  1  0  0  0  0
 12 39  1  0  0  0  0
 13 14  2  0  0  0  0
 13 15  1  0  0  0  0
 15 16  1  0  0  0  0
 15 40  1  0  0  0  0
 16 17  1  0  0  0  0
 16 41  1  0  0  0  0
 16 42  1  0  0  0  0
 17 18  1  0  0  0  0
 17 43  1  0  0  0  0
 17 44  1  0  0  0  0
 18 23  1  0  0  0  0
 18 19  2  0  0  0  0
 19 20  1  0  0  0  0
 19 45  1  0  0  0  0
 20 21  2  0  0  0  0
 20 46  1  0  0  0  0
 21 22  1  0  0  0  0
 21 47  1  0  0  0  0
 22 23  2  0  0  0  0
 22 48  1  0  0  0  0
 23 49  1  0  0  0  0
 24 25  2  0  0  0  0
M  CHG  1   8  -1
M  CHG  1  23   1
M  END
> <s_m_source_file>
AV-unprocessed.smi

> <i_m_source_file_index>
2973

> <i_lp_mmshare_version>
43012

> <i_f3d_flags>
0

> <s_epik_input>
W0NIMl0xW0NIMl1bQ0gyXVtDSDJdW0NAQEhdKFtDSDNdKVtDQF0xMltOSF1DKD1PKU4oQzI9TylbQ0gyXUMoPU8pW05IXVtDSDJdW0NIMl1jM1tjSF1bY0hdW2NIXVtjSF1uMw==

> <s_epik_cmdline>
J2VwaWtfcHl0aG9uJywgJy1waCcsICc3LjAnLCAnLXRuJywgJzgnLCAnLW1hJywgJzIwMCcsICctbWV0YWxfYmluZGluZycsICctaW1hZScsICc8aW5maWxlLm1hZT4nLCAnLW9tYWUnLCAnPG91dGZpbGUubWFlPic=

> <r_lp_tautomer_probability>
1

> <r_epik_Ionization_Penalty>
7.89073

> <r_epik_Ionization_Penalty_Charging>
7.89073

> <r_epik_Ionization_Penalty_Neutral>
1.56557e-07

> <r_epik_State_Penalty>
8.01193

> <r_epik_Charging_Adjusted_Penalty>
15.9027

> <i_epik_Tot_Q>
0

> <i_epik_Tot_abs_Q>
2

> <r_epik_Metal_State_Penalty>
3.98737

> <b_epik_Metal_Only>
1

> <s_lp_Force_Field>
OPLS_2005

> <r_lp_Energy>
16.8567

> <b_lp_Chiralities_Consistent>
1

> <s_lp_Variant>
AV-unprocessed.smi:2973-15

> <Gold.Version>
5.8.1

> <Gold.Id.Protein>
6NUR|6NUR_protein|mol2

> <Gold.PLP.Fitness>
50.2243

> <Gold.PLP.PLP>
-39.1470

> <Gold.PLP.part.hbond>
-3.1553

> <Gold.PLP.part.metal>
0.0000

> <Gold.PLP.part.buried>
-3.2364

> <Gold.PLP.part.nonpolar>
-32.2315

> <Gold.PLP.part.repulsive>
0.1156

> <Gold.PLP.ligand.clash>
0.0000

> <Gold.PLP.ligand.torsion>
0.4801

> <Gold.PLP.Chemscore.Hbond>
3.9920

> <Gold.PLP.Chemscore.CHOScore>
0.0000

> <Gold.PLP.Chemscore.Metal>
0.0000

> <Gold.Chemscore.Hbonds>
donor molecule, donor type, donor heavy atom, donor atom, acceptor molecule, acceptor atom, score
      L1  H    23    49       P1  7948  1.70
      P1  H  6896  6908       L1    10  0.89
      P1  H  7997  8008       L1    25  0.94

> <Gold.PLP.Chemscore.Internal.Correction>
0.0616

> <Gold.Rescore>
     Score         DG    S(hbond)    S(metal)    S(lipo)     H(rot)  DE(clash)    DE(int)     intcor
     19.51     -20.66       2.69        0.00      94.94       1.92       0.65       0.49       ----

> <Gold.Chemscore.Fitness>
19.5140

> <Gold.Chemscore.DG>
-20.6595

> <Gold.Chemscore.ZeroCoef>
-5.4800

> <Gold.Chemscore.Hbond>
2.6886

> <Gold.Chemscore.Metal>
0.0000

> <Gold.Chemscore.Lipo>
94.9432

> <Gold.Chemscore.Internal_Hbond>
0.0000

> <Gold.Chemscore.DEClash>
0.6509

> <Gold.Chemscore.DEInternal>
0.4946

> <Gold.Chemscore.Rot>
1.9175

> <Gold.Chemscore.Internal.Correction>
   9.000000E+99

> <Gold.Chemscore.Hbonds>
donor molecule, donor type, donor heavy atom, donor atom, acceptor molecule, acceptor atom, score
      L1  H    23    49       P1  7948  0.14
      P1  H  6896  6908       L1    10  0.72
      P1  H  7997  8008       L1    25  0.89

> <Gold.Chemscore.Hbond.Weighted>
-8.9799

> <Gold.Chemscore.Metal.Weighted>
-0.0000

> <Gold.Chemscore.Lipo.Weighted>
-11.1084

> <Gold.Chemscore.Internal_Hbond.Weighted>
0.0000

> <Gold.Chemscore.DEClash.Weighted>
0.6509

> <Gold.Chemscore.DEInternal.Weighted>
0.4946

> <Gold.Chemscore.Rot.Weighted>
4.9087

> <Gold.Chemscore.Internal.Correction.Weighted>
   9.000000E+99

> <Gold.Protein.RotatedTorsions>
[ 6907 6896 6895 6894 ] final -149.72 input  -60.11 | X-H torsion
[ 7974 7965 7964 7962 ] final -125.65 input  175.53 | X-H torsion
[ 8008 7997 7996 7995 ] final  -53.25 input   59.86 | X-H torsion
[ 10167 10162 10161 10158 ] final  -15.03 input  -65.29 | X-H torsion
[ 10718 10713 10712 10709 ] final  169.88 input   66.30 | X-H torsion
[ 10763 10752 10751 10750 ] final  -25.47 input  -60.55 | X-H torsion
[ 11005 11000 10999 10996 ] final   82.81 input  -57.11 | X-H torsion

> <Gold.Protein.ActiveResidues>
 VAL166  LYS551  ARG553  GLY616  TRP617  ASP618  TYR619  PRO620  LYS621  CYS622 
 ASP623  PHE694  ASN695  SER759  ASP760  ASP761  ALA762  ILE779  LEU786  VAL792 
 PHE793  MET794  SER795  GLU796  ALA797  LYS798  CYS799  TRP800  GLU811  SER814 

> <Gold.Protein.RotatedAtoms>
  151.1882  133.4683  159.2594 H   0  0  0  0  0  0  0  0  0  0  0  0  # atno 6907 bound_to 6896
  151.1190  135.0069  159.8540 H   0  0  0  0  0  0  0  0  0  0  0  0  # atno 6908 bound_to 6896
  152.5455  134.1795  159.8682 H   0  0  0  0  0  0  0  0  0  0  0  0  # atno 6909 bound_to 6896
  144.9953  140.7771  143.4529 H   0  0  0  0  0  0  0  0  0  0  0  0  # atno 7974 bound_to 7965
  154.4128  140.1204  156.5123 H   0  0  0  0  0  0  0  0  0  0  0  0  # atno 8008 bound_to 7997
  155.6786  140.3496  155.4827 H   0  0  0  0  0  0  0  0  0  0  0  0  # atno 8009 bound_to 7997
  155.9571  140.1116  157.0917 H   0  0  0  0  0  0  0  0  0  0  0  0  # atno 8010 bound_to 7997
  140.7211  143.5260  150.9576 H   0  0  0  0  0  0  0  0  0  0  0  0  # atno 10167 bound_to 10162
  157.0163  131.0219  151.2788 H   0  0  0  0  0  0  0  0  0  0  0  0  # atno 10718 bound_to 10713
  153.7004  135.6956  153.5065 H   0  0  0  0  0  0  0  0  0  0  0  0  # atno 10763 bound_to 10752
  153.2347  135.4326  155.0632 H   0  0  0  0  0  0  0  0  0  0  0  0  # atno 10764 bound_to 10752
  154.8346  135.3493  154.6543 H   0  0  0  0  0  0  0  0  0  0  0  0  # atno 10765 bound_to 10752
  139.9051  134.8099  156.2225 H   0  0  0  0  0  0  0  0  0  0  0  0  # atno 11005 bound_to 11000
  145.2228  139.2151  143.5084 LP  0  0  0  0  0  0  0  0  0  0  0  0  # atno 17320 bound_to 7965
  146.3440  140.2089  142.8590 LP  0  0  0  0  0  0  0  0  0  0  0  0  # atno 17321 bound_to 7965
  139.8979  143.6872  152.3136 LP  0  0  0  0  0  0  0  0  0  0  0  0  # atno 17342 bound_to 10162
  139.7211  144.7602  151.0954 LP  0  0  0  0  0  0  0  0  0  0  0  0  # atno 17343 bound_to 10162
  157.5283  130.8042  149.7887 LP  0  0  0  0  0  0  0  0  0  0  0  0  # atno 17370 bound_to 10713
  156.0118  130.3830  150.2240 LP  0  0  0  0  0  0  0  0  0  0  0  0  # atno 17371 bound_to 10713
  141.0397  133.6944  156.1575 LP  0  0  0  0  0  0  0  0  0  0  0  0  # atno 17394 bound_to 11000
  140.6974  134.4600  157.5587 LP  0  0  0  0  0  0  0  0  0  0  0  0  # atno 17395 bound_to 11000

$$$$
