AV-unprocessed.smi:158|AV-procd|sdf|1338|dock9
  -GOLD-   2262019 33D 1   1.00000     0.00000
 Structure written by MMmdl.
 31 33  0  0  0  0  0  0  0  0  1 V2000
  151.8805  134.9674  156.8019 N   0  0  0  0  0  0  0  0  0  0  0  0
  151.0043  135.9734  156.6682 C   0  0  0  0  0  0  0  0  0  0  0  0
  149.9781  136.0550  157.5469 N   0  0  0  0  0  0  0  0  0  0  0  0
  149.0808  137.0434  157.4475 C   0  0  0  0  0  0  0  0  0  0  0  0
  147.8124  137.0524  158.6155 Cl  0  0  0  0  0  0  0  0  0  0  0  0
  149.0553  138.0265  156.5423 N   0  0  0  0  0  0  0  0  0  0  0  0
  150.0882  137.9499  155.6545 C   0  0  0  0  0  0  0  0  0  0  0  0
  151.1015  136.9540  155.6506 C   0  0  0  0  0  0  0  0  0  0  0  0
  151.9872  137.1832  154.6066 N   0  0  0  0  0  0  0  0  0  0  0  0
  151.5186  138.2568  154.0284 C   0  0  0  0  0  0  0  0  0  0  0  0
  150.3793  138.7863  154.5948 N   0  0  0  0  0  0  0  0  0  0  0  0
  149.6233  140.0020  154.1526 C   0  0  1  0  0  0  0  0  0  0  0  0
  148.3037  139.6206  153.9067 O   0  0  0  0  0  0  0  0  0  0  0  0
  147.4049  140.5215  154.5447 C   0  0  1  0  0  0  0  0  0  0  0  0
  146.0908  139.7920  154.8671 C   0  0  0  0  0  0  0  0  0  0  0  0
  145.0438  140.7195  155.0595 O   0  0  0  0  0  0  0  0  0  0  0  0
  148.1805  141.0251  155.7664 C   0  0  2  0  0  0  0  0  0  0  0  0
  147.7379  142.3015  156.1833 O   0  0  0  0  0  0  0  0  0  0  0  0
  149.6006  141.0968  155.2339 C   0  0  1  0  0  0  0  0  0  0  0  0
  150.5136  140.8828  156.1844 F   0  0  0  0  0  0  0  0  0  0  0  0
  150.1190  140.3167  153.2336 H   0  0  0  0  0  0  0  0  0  0  0  0
  147.2267  141.3398  153.8440 H   0  0  0  0  0  0  0  0  0  0  0  0
  148.1154  140.3157  156.5915 H   0  0  0  0  0  0  0  0  0  0  0  0
  149.8109  142.0564  154.7596 H   0  0  0  0  0  0  0  0  0  0  0  0
  152.6539  134.8861  156.1574 H   0  0  0  0  0  0  0  0  0  0  0  0
  151.7673  134.2942  157.5460 H   0  0  0  0  0  0  0  0  0  0  0  0
  151.9979  138.6975  153.1663 H   0  0  0  0  0  0  0  0  0  0  0  0
  145.8136  139.1397  154.0387 H   0  0  0  0  0  0  0  0  0  0  0  0
  146.1946  139.1620  155.7510 H   0  0  0  0  0  0  0  0  0  0  0  0
  144.4016  140.5932  154.3778 H   0  0  0  0  0  0  0  0  0  0  0  0
  148.3399  142.9520  155.8562 H   0  0  0  0  0  0  0  0  0  0  0  0
  1  2  1  0  0  0  0
  1 25  1  0  0  0  0
  1 26  1  0  0  0  0
  2  8  1  0  0  0  0
  2  3  2  0  0  0  0
  3  4  1  0  0  0  0
  4  5  1  0  0  0  0
  4  6  2  0  0  0  0
  6  7  1  0  0  0  0
  7 11  1  0  0  0  0
  7  8  2  0  0  0  0
  8  9  1  0  0  0  0
  9 10  2  0  0  0  0
 10 11  1  0  0  0  0
 10 27  1  0  0  0  0
 11 12  1  0  0  0  0
 12 21  1  0  0  0  0
 12 19  1  0  0  0  0
 12 13  1  0  0  0  0
 13 14  1  0  0  0  0
 14 22  1  0  0  0  0
 14 15  1  0  0  0  0
 14 17  1  0  0  0  0
 15 16  1  0  0  0  0
 15 28  1  0  0  0  0
 15 29  1  0  0  0  0
 16 30  1  0  0  0  0
 17 23  1  0  0  0  0
 17 18  1  0  0  0  0
 17 19  1  0  0  0  0
 18 31  1  0  0  0  0
 19 24  1  0  0  0  0
 19 20  1  0  0  0  0
M  END
> <s_m_source_file>
AV-unprocessed.smi

> <i_m_source_file_index>
158

> <i_lp_mmshare_version>
43012

> <i_f3d_flags>
0

> <s_epik_input>
Q2xjKG4xKW5jKFtOSDJdKWMoYzEyKW5bY0hdbjJbQ0BASF0zT1tDQEhdKFtDSDJdW09IXSlbQ0BASF0oW09IXSlbQ0BASF0zRg==

> <s_epik_cmdline>
J2VwaWtfcHl0aG9uJywgJy1waCcsICc3LjAnLCAnLXRuJywgJzgnLCAnLW1hJywgJzIwMCcsICctbWV0YWxfYmluZGluZycsICctaW1hZScsICc8aW5maWxlLm1hZT4nLCAnLW9tYWUnLCAnPG91dGZpbGUubWFlPic=

> <r_lp_tautomer_probability>
1

> <r_epik_Ionization_Penalty>
6.51543e-05

> <r_epik_Ionization_Penalty_Charging>
0

> <r_epik_Ionization_Penalty_Neutral>
6.51543e-05

> <r_epik_State_Penalty>
-0

> <r_epik_Charging_Adjusted_Penalty>
0

> <i_epik_Tot_Q>
0

> <i_epik_Tot_abs_Q>
0

> <r_epik_Metal_State_Penalty>
-0

> <b_epik_Metal_Only>
0

> <s_epik_Chemistry_Notes>
This compound contains an acetal/aminal-like group ( X-CH(R)-Y where X, Y are N, S, or O) that may be acid/base labile, releasing an aldehyde.

> <s_lp_Force_Field>
OPLS_2005

> <r_lp_Energy>
35.9184

> <b_lp_Chiralities_Consistent>
1

> <s_lp_Variant>
AV-unprocessed.smi:158-16

> <Gold.Version>
5.8.1

> <Gold.Id.Protein>
6NUR|6NUR_protein|mol2

> <Gold.PLP.Fitness>
29.7303

> <Gold.PLP.PLP>
-21.2940

> <Gold.PLP.part.hbond>
-3.0000

> <Gold.PLP.part.metal>
0.0000

> <Gold.PLP.part.buried>
-2.9202

> <Gold.PLP.part.nonpolar>
-16.2570

> <Gold.PLP.part.repulsive>
0.9791

> <Gold.PLP.ligand.clash>
0.0000

> <Gold.PLP.ligand.torsion>
0.2384

> <Gold.PLP.Chemscore.Hbond>
2.9600

> <Gold.PLP.Chemscore.CHOScore>
0.0000

> <Gold.PLP.Chemscore.Metal>
0.0000

> <Gold.Chemscore.Hbonds>
donor molecule, donor type, donor heavy atom, donor atom, acceptor molecule, acceptor atom, score
      L1  H    16    30       P1 10175  1.00
      L1  H    18    31       P1  8028  1.00
      P1  H 10752 10765       L1     9  0.96

> <Gold.PLP.Chemscore.Internal.Correction>
0.0331

> <Gold.Rescore>
     Score         DG    S(hbond)    S(metal)    S(lipo)     H(rot)  DE(clash)    DE(int)     intcor
      7.66      -9.14       2.65        0.00      23.82       3.12       0.14       1.34       ----

> <Gold.Chemscore.Fitness>
7.6560

> <Gold.Chemscore.DG>
-9.1389

> <Gold.Chemscore.ZeroCoef>
-5.4800

> <Gold.Chemscore.Hbond>
2.6549

> <Gold.Chemscore.Metal>
0.0000

> <Gold.Chemscore.Lipo>
23.8155

> <Gold.Chemscore.Internal_Hbond>
0.0000

> <Gold.Chemscore.DEClash>
0.1395

> <Gold.Chemscore.DEInternal>
1.3433

> <Gold.Chemscore.Rot>
3.1230

> <Gold.Chemscore.Internal.Correction>
   9.000000E+99

> <Gold.Chemscore.Hbonds>
donor molecule, donor type, donor heavy atom, donor atom, acceptor molecule, acceptor atom, score
      L1  H    16    30       P1 10175  0.93
      L1  H    18    31       P1  8028  0.89
      P1  H 10752 10765       L1     9  0.65

> <Gold.Chemscore.Hbond.Weighted>
-8.8674

> <Gold.Chemscore.Metal.Weighted>
-0.0000

> <Gold.Chemscore.Lipo.Weighted>
-2.7864

> <Gold.Chemscore.Internal_Hbond.Weighted>
0.0000

> <Gold.Chemscore.DEClash.Weighted>
0.1395

> <Gold.Chemscore.DEInternal.Weighted>
1.3433

> <Gold.Chemscore.Rot.Weighted>
7.9950

> <Gold.Chemscore.Internal.Correction.Weighted>
   9.000000E+99

> <Gold.Protein.RotatedTorsions>
[ 6907 6896 6895 6894 ] final -161.74 input  -60.11 | X-H torsion
[ 7974 7965 7964 7962 ] final   -6.41 input  175.53 | X-H torsion
[ 8008 7997 7996 7995 ] final  152.96 input   59.86 | X-H torsion
[ 10167 10162 10161 10158 ] final -158.64 input  -65.29 | X-H torsion
[ 10718 10713 10712 10709 ] final  -70.72 input   66.30 | X-H torsion
[ 10763 10752 10751 10750 ] final  163.83 input  -60.55 | X-H torsion
[ 11005 11000 10999 10996 ] final  -51.95 input  -57.11 | X-H torsion

> <Gold.Protein.ActiveResidues>
 VAL166  LYS551  ARG553  GLY616  TRP617  ASP618  TYR619  PRO620  LYS621  CYS622 
 ASP623  PHE694  ASN695  SER759  ASP760  ASP761  ALA762  ILE779  LEU786  VAL792 
 PHE793  MET794  SER795  GLU796  ALA797  LYS798  CYS799  TRP800  GLU811  SER814 

> <Gold.Protein.RotatedAtoms>
  151.3694  133.3860  159.2697 H   0  0  0  0  0  0  0  0  0  0  0  0  # atno 6907 bound_to 6896
  150.9663  134.9044  159.7771 H   0  0  0  0  0  0  0  0  0  0  0  0  # atno 6908 bound_to 6896
  152.5168  134.3654  159.9352 H   0  0  0  0  0  0  0  0  0  0  0  0  # atno 6909 bound_to 6896
  146.2331  140.2167  142.8336 H   0  0  0  0  0  0  0  0  0  0  0  0  # atno 7974 bound_to 7965
  156.2604  140.2007  156.6415 H   0  0  0  0  0  0  0  0  0  0  0  0  # atno 8008 bound_to 7997
  154.6606  140.0561  157.0082 H   0  0  0  0  0  0  0  0  0  0  0  0  # atno 8009 bound_to 7997
  155.1282  140.3231  155.4483 H   0  0  0  0  0  0  0  0  0  0  0  0  # atno 8010 bound_to 7997
  139.6676  143.9801  152.2264 H   0  0  0  0  0  0  0  0  0  0  0  0  # atno 10167 bound_to 10162
  156.0395  130.4337  150.2337 H   0  0  0  0  0  0  0  0  0  0  0  0  # atno 10718 bound_to 10713
  154.2997  135.2759  155.2617 H   0  0  0  0  0  0  0  0  0  0  0  0  # atno 10763 bound_to 10752
  154.5059  135.5795  153.6570 H   0  0  0  0  0  0  0  0  0  0  0  0  # atno 10764 bound_to 10752
  152.9902  135.6169  154.3167 H   0  0  0  0  0  0  0  0  0  0  0  0  # atno 10765 bound_to 10752
  141.0898  133.6635  156.3952 H   0  0  0  0  0  0  0  0  0  0  0  0  # atno 11005 bound_to 11000
  144.9664  140.8326  143.5482 LP  0  0  0  0  0  0  0  0  0  0  0  0  # atno 17320 bound_to 7965
  145.2143  139.2189  143.5126 LP  0  0  0  0  0  0  0  0  0  0  0  0  # atno 17321 bound_to 7965
  139.9557  144.6591  150.8128 LP  0  0  0  0  0  0  0  0  0  0  0  0  # atno 17342 bound_to 10162
  140.7605  143.3154  151.2746 LP  0  0  0  0  0  0  0  0  0  0  0  0  # atno 17343 bound_to 10162
  157.0434  131.0042  151.3276 LP  0  0  0  0  0  0  0  0  0  0  0  0  # atno 17370 bound_to 10713
  157.5193  130.7988  149.7791 LP  0  0  0  0  0  0  0  0  0  0  0  0  # atno 17371 bound_to 10713
  140.5278  134.6242  157.5340 LP  0  0  0  0  0  0  0  0  0  0  0  0  # atno 17394 bound_to 11000
  139.9722  134.7273  156.0018 LP  0  0  0  0  0  0  0  0  0  0  0  0  # atno 17395 bound_to 11000

$$$$
