AV-unprocessed.smi:1525|AV-procd|sdf|6143|dock6
  -GOLD-   22720 6283D 1   1.00000     0.00000
 Structure written by MMmdl.
 49 51  0  0  0  0  0  0  0  0  2 V2000
  150.7707  134.3115  155.5920 O   0  0  0  0  0  0  0  0  0  0  0  0
  150.1039  134.9322  154.7641 C   0  0  0  0  0  0  0  0  0  0  0  0
  150.1644  136.2621  154.6092 N   0  0  0  0  0  0  0  0  0  0  0  0
  151.0033  137.1569  155.3970 C   0  0  0  0  0  0  0  0  0  0  0  0
  151.6295  138.2511  154.5125 C   0  0  0  0  0  0  0  0  0  0  0  0
  151.1188  139.6003  154.7461 N   0  0  0  0  0  0  0  0  0  0  0  0
  149.6656  139.6363  154.6172 C   0  0  0  0  0  0  0  0  0  0  0  0
  149.0992  141.0458  154.8615 C   0  0  0  0  0  0  0  0  0  0  0  0
  149.5003  141.5026  156.1488 O   0  0  0  0  0  0  0  0  0  0  0  0
  150.9152  141.5278  156.3046 C   0  0  0  0  0  0  0  0  0  0  0  0
  151.4899  140.1211  156.0605 C   0  0  0  0  0  0  0  0  0  0  0  0
  149.2122  134.3829  153.9225 N   0  0  0  0  0  0  0  0  0  0  0  0
  148.8566  133.0096  153.7979 C   0  0  0  0  0  0  0  0  0  0  0  0
  149.6455  131.9762  154.3651 C   0  0  0  0  0  0  0  0  0  0  0  0
  149.2566  130.6319  154.2085 C   0  0  0  0  0  0  0  0  0  0  0  0
  148.0904  130.3396  153.4792 C   0  0  0  0  0  0  0  0  0  0  0  0
  147.3710  131.3443  152.9378 N   0  3  0  0  0  0  0  0  0  0  0  0
  147.6956  132.6556  153.0570 C   0  0  0  0  0  0  0  0  0  0  0  0
  146.8816  133.6198  152.4251 N   0  0  0  0  0  0  0  0  0  0  0  0
  146.6729  133.3799  150.9993 C   0  0  0  0  0  0  0  0  0  0  0  0
  145.2210  133.7617  150.6999 C   0  0  0  0  0  0  0  0  0  0  0  0
  144.5266  133.5735  152.0431 C   0  0  0  0  0  0  0  0  0  0  0  0
  145.6076  134.0003  153.0333 C   0  0  0  0  0  0  0  0  0  0  0  0
  149.5811  136.6904  153.9055 H   0  0  0  0  0  0  0  0  0  0  0  0
  150.4143  137.5865  156.2082 H   0  0  0  0  0  0  0  0  0  0  0  0
  151.7886  136.5617  155.8632 H   0  0  0  0  0  0  0  0  0  0  0  0
  152.7048  138.2485  154.6971 H   0  0  0  0  0  0  0  0  0  0  0  0
  151.5066  137.9906  153.4600 H   0  0  0  0  0  0  0  0  0  0  0  0
  149.3736  139.2998  153.6218 H   0  0  0  0  0  0  0  0  0  0  0  0
  149.2144  138.9403  155.3263 H   0  0  0  0  0  0  0  0  0  0  0  0
  149.4466  141.7408  154.0956 H   0  0  0  0  0  0  0  0  0  0  0  0
  148.0104  141.0313  154.8116 H   0  0  0  0  0  0  0  0  0  0  0  0
  151.3509  142.2482  155.6105 H   0  0  0  0  0  0  0  0  0  0  0  0
  151.1573  141.8669  157.3118 H   0  0  0  0  0  0  0  0  0  0  0  0
  151.1338  139.4458  156.8401 H   0  0  0  0  0  0  0  0  0  0  0  0
  152.5738  140.1682  156.1583 H   0  0  0  0  0  0  0  0  0  0  0  0
  148.6630  135.0281  153.3741 H   0  0  0  0  0  0  0  0  0  0  0  0
  150.5524  132.1926  154.9090 H   0  0  0  0  0  0  0  0  0  0  0  0
  149.8484  129.8367  154.6380 H   0  0  0  0  0  0  0  0  0  0  0  0
  147.7183  129.3403  153.3056 H   0  0  0  0  0  0  0  0  0  0  0  0
  147.3664  133.9667  150.3966 H   0  0  0  0  0  0  0  0  0  0  0  0
  146.8357  132.3263  150.7661 H   0  0  0  0  0  0  0  0  0  0  0  0
  145.1672  134.8098  150.4021 H   0  0  0  0  0  0  0  0  0  0  0  0
  144.7808  133.1618  149.9029 H   0  0  0  0  0  0  0  0  0  0  0  0
  143.6096  134.1563  152.1371 H   0  0  0  0  0  0  0  0  0  0  0  0
  144.2785  132.5216  152.1904 H   0  0  0  0  0  0  0  0  0  0  0  0
  145.4344  133.5850  154.0261 H   0  0  0  0  0  0  0  0  0  0  0  0
  145.6034  135.0853  153.1417 H   0  0  0  0  0  0  0  0  0  0  0  0
  146.5365  131.1017  152.4035 H   0  0  0  0  0  0  0  0  0  0  0  0
  1  2  2  0  0  0  0
  2  3  1  0  0  0  0
  2 12  1  0  0  0  0
  3  4  1  0  0  0  0
  3 24  1  0  0  0  0
  4  5  1  0  0  0  0
  4 25  1  0  0  0  0
  4 26  1  0  0  0  0
  5  6  1  0  0  0  0
  5 27  1  0  0  0  0
  5 28  1  0  0  0  0
  6 11  1  0  0  0  0
  6  7  1  0  0  0  0
  7  8  1  0  0  0  0
  7 29  1  0  0  0  0
  7 30  1  0  0  0  0
  8  9  1  0  0  0  0
  8 31  1  0  0  0  0
  8 32  1  0  0  0  0
  9 10  1  0  0  0  0
 10 11  1  0  0  0  0
 10 33  1  0  0  0  0
 10 34  1  0  0  0  0
 11 35  1  0  0  0  0
 11 36  1  0  0  0  0
 12 13  1  0  0  0  0
 12 37  1  0  0  0  0
 13 18  1  0  0  0  0
 13 14  2  0  0  0  0
 14 15  1  0  0  0  0
 14 38  1  0  0  0  0
 15 16  2  0  0  0  0
 15 39  1  0  0  0  0
 16 17  1  0  0  0  0
 16 40  1  0  0  0  0
 17 18  2  0  0  0  0
 17 49  1  0  0  0  0
 18 19  1  0  0  0  0
 19 23  1  0  0  0  0
 19 20  1  0  0  0  0
 20 21  1  0  0  0  0
 20 41  1  0  0  0  0
 20 42  1  0  0  0  0
 21 22  1  0  0  0  0
 21 43  1  0  0  0  0
 21 44  1  0  0  0  0
 22 23  1  0  0  0  0
 22 45  1  0  0  0  0
 22 46  1  0  0  0  0
 23 47  1  0  0  0  0
 23 48  1  0  0  0  0
M  CHG  1  17   1
M  END
> <s_m_source_file>
AV-unprocessed.smi

> <i_m_source_file_index>
1525

> <i_lp_mmshare_version>
43012

> <i_f3d_flags>
0

> <s_epik_input>
W0NIMl0xW0NIMl1PW0NIMl1bQ0gyXU4xW0NIMl1bQ0gyXVtOSF1DKD1PKVtOSF1jMltjSF1bY0hdW2NIXW5jMk4zW0NIMl1bQ0gyXVtDSDJdW0NIMl0z

> <s_epik_cmdline>
J2VwaWtfcHl0aG9uJywgJy1waCcsICc3LjAnLCAnLXRuJywgJzgnLCAnLW1hJywgJzIwMCcsICctbWV0YWxfYmluZGluZycsICctaW1hZScsICc8aW5maWxlLm1hZT4nLCAnLW9tYWUnLCAnPG91dGZpbGUubWFlPic=

> <r_epik_Ionization_Penalty>
1.38385

> <r_epik_Ionization_Penalty_Charging>
1.11784

> <r_epik_Ionization_Penalty_Neutral>
0.26601

> <r_epik_State_Penalty>
1.46794

> <r_epik_Charging_Adjusted_Penalty>
2.58578

> <i_epik_Tot_Q>
1

> <i_epik_Tot_abs_Q>
1

> <r_epik_Metal_State_Penalty>
1.54909

> <b_epik_Metal_Only>
0

> <s_lp_Force_Field>
OPLS_2005

> <r_lp_Energy>
56.1891

> <b_lp_Chiralities_Consistent>
1

> <s_lp_Variant>
AV-unprocessed.smi:1525-3

> <Gold.Version>
5.8.1

> <Gold.Id.Protein>
6NUR|6NUR_protein|mol2

> <Gold.PLP.Fitness>
49.3825

> <Gold.PLP.PLP>
-43.1389

> <Gold.PLP.part.hbond>
-4.3813

> <Gold.PLP.part.metal>
0.0000

> <Gold.PLP.part.buried>
-4.8725

> <Gold.PLP.part.nonpolar>
-33.9811

> <Gold.PLP.part.repulsive>
0.4748

> <Gold.PLP.ligand.clash>
0.0000

> <Gold.PLP.ligand.torsion>
0.8249

> <Gold.PLP.Chemscore.Hbond>
2.5771

> <Gold.PLP.Chemscore.CHOScore>
0.0000

> <Gold.PLP.Chemscore.Metal>
0.0000

> <Gold.Chemscore.Hbonds>
donor molecule, donor type, donor heavy atom, donor atom, acceptor molecule, acceptor atom, score
      L1  H     3    24       P1  7948  0.49
      L1  H    12    37       P1  7948  0.72
      P1  H  7989  7998       L1     6  1.00

> <Gold.PLP.Chemscore.Internal.Correction>
0.1620

> <Gold.Rescore>
     Score         DG    S(hbond)    S(metal)    S(lipo)     H(rot)  DE(clash)    DE(int)     intcor
     13.63     -15.66       1.31        0.00      85.36       1.63       0.07       1.95       ----

> <Gold.Chemscore.Fitness>
13.6344

> <Gold.Chemscore.DG>
-15.6560

> <Gold.Chemscore.ZeroCoef>
-5.4800

> <Gold.Chemscore.Hbond>
1.3076

> <Gold.Chemscore.Metal>
0.0000

> <Gold.Chemscore.Lipo>
85.3625

> <Gold.Chemscore.Internal_Hbond>
0.0000

> <Gold.Chemscore.DEClash>
0.0716

> <Gold.Chemscore.DEInternal>
1.9501

> <Gold.Chemscore.Rot>
1.6323

> <Gold.Chemscore.Internal.Correction>
   9.000000E+99

> <Gold.Chemscore.Hbonds>
donor molecule, donor type, donor heavy atom, donor atom, acceptor molecule, acceptor atom, score
      L1  H     3    24       P1  7948  0.39
      L1  H    12    37       P1  7948  0.50
      P1  H  7989  7998       L1     6  0.19

> <Gold.Chemscore.Hbond.Weighted>
-4.3672

> <Gold.Chemscore.Metal.Weighted>
-0.0000

> <Gold.Chemscore.Lipo.Weighted>
-9.9874

> <Gold.Chemscore.Internal_Hbond.Weighted>
0.0000

> <Gold.Chemscore.DEClash.Weighted>
0.0716

> <Gold.Chemscore.DEInternal.Weighted>
1.9501

> <Gold.Chemscore.Rot.Weighted>
4.1786

> <Gold.Chemscore.Internal.Correction.Weighted>
   9.000000E+99

> <Gold.Protein.RotatedTorsions>
[ 6907 6896 6895 6894 ] final  -91.86 input  -60.11 | X-H torsion
[ 7974 7965 7964 7962 ] final   55.74 input  175.53 | X-H torsion
[ 8008 7997 7996 7995 ] final  -36.64 input   59.86 | X-H torsion
[ 10167 10162 10161 10158 ] final -142.14 input  -65.29 | X-H torsion
[ 10718 10713 10712 10709 ] final -122.79 input   66.30 | X-H torsion
[ 10763 10752 10751 10750 ] final -134.44 input  -60.55 | X-H torsion
[ 11005 11000 10999 10996 ] final  -17.84 input  -57.11 | X-H torsion

> <Gold.Protein.ActiveResidues>
 VAL166  LYS551  ARG553  GLY616  TRP617  ASP618  TYR619  PRO620  LYS621  CYS622 
 ASP623  PHE694  ASN695  SER759  ASP760  ASP761  ALA762  ILE779  LEU786  VAL792 
 PHE793  MET794  SER795  GLU796  ALA797  LYS798  CYS799  TRP800  GLU811  SER814 

> <Gold.Protein.RotatedAtoms>
  150.6898  134.2211  159.4396 H   0  0  0  0  0  0  0  0  0  0  0  0  # atno 6907 bound_to 6896
  152.0167  134.9843  160.0579 H   0  0  0  0  0  0  0  0  0  0  0  0  # atno 6908 bound_to 6896
  152.1436  133.4444  159.4816 H   0  0  0  0  0  0  0  0  0  0  0  0  # atno 6909 bound_to 6896
  145.9472  139.3940  143.0328 H   0  0  0  0  0  0  0  0  0  0  0  0  # atno 7974 bound_to 7965
  154.4069  140.1625  156.2406 H   0  0  0  0  0  0  0  0  0  0  0  0  # atno 8008 bound_to 7997
  155.9204  140.3421  155.6146 H   0  0  0  0  0  0  0  0  0  0  0  0  # atno 8009 bound_to 7997
  155.7229  140.0770  157.2313 H   0  0  0  0  0  0  0  0  0  0  0  0  # atno 8010 bound_to 7997
  139.8117  143.7693  152.2663 H   0  0  0  0  0  0  0  0  0  0  0  0  # atno 10167 bound_to 10162
  156.1448  130.6492  150.9825 H   0  0  0  0  0  0  0  0  0  0  0  0  # atno 10718 bound_to 10713
  154.8719  135.3734  154.4735 H   0  0  0  0  0  0  0  0  0  0  0  0  # atno 10763 bound_to 10752
  153.5394  135.7026  153.5649 H   0  0  0  0  0  0  0  0  0  0  0  0  # atno 10764 bound_to 10752
  153.3818  135.3995  155.1826 H   0  0  0  0  0  0  0  0  0  0  0  0  # atno 10765 bound_to 10752
  140.8208  133.8070  155.9657 H   0  0  0  0  0  0  0  0  0  0  0  0  # atno 11005 bound_to 11000
  145.8220  140.9674  143.0894 LP  0  0  0  0  0  0  0  0  0  0  0  0  # atno 17320 bound_to 7965
  144.6789  140.0053  143.7484 LP  0  0  0  0  0  0  0  0  0  0  0  0  # atno 17321 bound_to 7965
  139.7844  144.7433  151.0042 LP  0  0  0  0  0  0  0  0  0  0  0  0  # atno 17342 bound_to 10162
  140.7817  143.4508  151.0416 LP  0  0  0  0  0  0  0  0  0  0  0  0  # atno 17343 bound_to 10162
  157.6607  131.0881  150.7845 LP  0  0  0  0  0  0  0  0  0  0  0  0  # atno 17370 bound_to 10713
  156.7917  130.4892  149.5383 LP  0  0  0  0  0  0  0  0  0  0  0  0  # atno 17371 bound_to 10713
  140.9101  134.2271  157.4991 LP  0  0  0  0  0  0  0  0  0  0  0  0  # atno 17394 bound_to 11000
  139.8708  134.9746  156.4852 LP  0  0  0  0  0  0  0  0  0  0  0  0  # atno 17395 bound_to 11000

$$$$
