AV-unprocessed.smi:3163|AV-procd|sdf|12075|dock2
  -GOLD-   2272017503D 1   1.00000     0.00000
 Structure written by MMmdl.
 37 38  0  0  0  0  0  0  0  0  3 V2000
  146.2089  130.5543  151.9160 C   0  0  0  0  0  0  0  0  0  0  0  0
  146.3732  131.8575  151.2393 N   0  3  1  0  0  0  0  0  0  0  0  0
  145.3754  132.1304  150.1785 C   0  0  0  0  0  0  0  0  0  0  0  0
  144.8484  133.5491  150.4251 C   0  0  0  0  0  0  0  0  0  0  0  0
  145.9126  134.2015  151.3092 C   0  0  1  0  0  0  0  0  0  0  0  0
  145.4287  135.4028  152.1443 C   0  0  0  0  0  0  0  0  0  0  0  0
  146.5156  136.3257  152.4603 N   0  0  0  0  0  0  0  0  0  0  0  0
  146.3676  137.5464  152.9959 C   0  0  0  0  0  0  0  0  0  0  0  0
  145.2731  138.0409  153.2642 O   0  0  0  0  0  0  0  0  0  0  0  0
  147.5562  138.1497  153.1723 N   0  0  0  0  0  0  0  0  0  0  0  0
  147.8264  139.4325  153.7234 C   0  0  0  0  0  0  0  0  0  0  0  0
  146.8424  140.4334  153.5625 C   0  0  0  0  0  0  0  0  0  0  0  0
  147.0725  141.7255  154.0778 C   0  0  0  0  0  0  0  0  0  0  0  0
  148.2325  141.9999  154.7118 N   0  3  0  0  0  0  0  0  0  0  0  0
  149.2082  141.0812  154.8777 C   0  0  0  0  0  0  0  0  0  0  0  0
  149.0351  139.7721  154.3836 C   0  0  0  0  0  0  0  0  0  0  0  0
  146.3882  133.0184  152.1533 C   0  0  0  0  0  0  0  0  0  0  0  0
  145.2486  130.4965  152.4303 H   0  0  0  0  0  0  0  0  0  0  0  0
  147.0017  130.4037  152.6494 H   0  0  0  0  0  0  0  0  0  0  0  0
  146.2600  129.7404  151.1923 H   0  0  0  0  0  0  0  0  0  0  0  0
  145.8751  132.0657  149.2114 H   0  0  0  0  0  0  0  0  0  0  0  0
  144.5586  131.4067  150.1768 H   0  0  0  0  0  0  0  0  0  0  0  0
  144.6728  134.0975  149.4989 H   0  0  0  0  0  0  0  0  0  0  0  0
  143.9010  133.4937  150.9636 H   0  0  0  0  0  0  0  0  0  0  0  0
  146.7406  134.5202  150.6733 H   0  0  0  0  0  0  0  0  0  0  0  0
  144.6136  135.9218  151.6368 H   0  0  0  0  0  0  0  0  0  0  0  0
  145.0166  135.0452  153.0883 H   0  0  0  0  0  0  0  0  0  0  0  0
  147.4527  136.0022  152.2679 H   0  0  0  0  0  0  0  0  0  0  0  0
  148.3617  137.6498  152.8248 H   0  0  0  0  0  0  0  0  0  0  0  0
  145.9144  140.2157  153.0535 H   0  0  0  0  0  0  0  0  0  0  0  0
  146.3696  142.5422  154.0004 H   0  0  0  0  0  0  0  0  0  0  0  0
  150.0959  141.4194  155.3921 H   0  0  0  0  0  0  0  0  0  0  0  0
  149.8373  139.0615  154.5102 H   0  0  0  0  0  0  0  0  0  0  0  0
  145.6923  132.8468  152.9768 H   0  0  0  0  0  0  0  0  0  0  0  0
  147.3793  133.1779  152.5793 H   0  0  0  0  0  0  0  0  0  0  0  0
  147.2724  131.8446  150.7792 H   0  0  0  0  0  0  0  0  0  0  0  0
  148.3800  142.9415  155.0763 H   0  0  0  0  0  0  0  0  0  0  0  0
  1  2  1  0  0  0  0
  1 18  1  0  0  0  0
  1 19  1  0  0  0  0
  1 20  1  0  0  0  0
  2 17  1  0  0  0  0
  2  3  1  0  0  0  0
  2 36  1  0  0  0  0
  3  4  1  0  0  0  0
  3 21  1  0  0  0  0
  3 22  1  0  0  0  0
  4  5  1  0  0  0  0
  4 23  1  0  0  0  0
  4 24  1  0  0  0  0
  5  6  1  0  0  0  0
  5 17  1  0  0  0  0
  5 25  1  0  0  0  0
  6  7  1  0  0  0  0
  6 26  1  0  0  0  0
  6 27  1  0  0  0  0
  7  8  1  0  0  0  0
  7 28  1  0  0  0  0
  8  9  2  0  0  0  0
  8 10  1  0  0  0  0
 10 11  1  0  0  0  0
 10 29  1  0  0  0  0
 11 16  1  0  0  0  0
 11 12  2  0  0  0  0
 12 13  1  0  0  0  0
 12 30  1  0  0  0  0
 13 14  2  0  0  0  0
 13 31  1  0  0  0  0
 14 15  1  0  0  0  0
 14 37  1  0  0  0  0
 15 16  2  0  0  0  0
 15 32  1  0  0  0  0
 16 33  1  0  0  0  0
 17 34  1  0  0  0  0
 17 35  1  0  0  0  0
M  CHG  1   2   1
M  CHG  1  14   1
M  END
> <s_m_source_file>
AV-unprocessed.smi

> <i_m_source_file_index>
3163

> <i_lp_mmshare_version>
43012

> <i_f3d_flags>
0

> <s_epik_input>
W0NIM11OMVtDSDJdW0NIMl1bQ0BIXShbQ0gyXTEpW0NIMl1bTkhdQyg9TylbTkhdYzJbY0hdW2NIXW5bY0hdW2NIXTI=

> <s_epik_cmdline>
J2VwaWtfcHl0aG9uJywgJy1waCcsICc3LjAnLCAnLXRuJywgJzgnLCAnLW1hJywgJzIwMCcsICctbWV0YWxfYmluZGluZycsICctaW1hZScsICc8aW5maWxlLm1hZT4nLCAnLW9tYWUnLCAnPG91dGZpbGUubWFlPic=

> <r_epik_Ionization_Penalty>
1.09034

> <r_epik_Ionization_Penalty_Charging>
1.09032

> <r_epik_Ionization_Penalty_Neutral>
1.86664e-05

> <r_epik_State_Penalty>
1.14521

> <r_epik_Charging_Adjusted_Penalty>
2.23553

> <i_epik_Tot_Q>
2

> <i_epik_Tot_abs_Q>
2

> <r_epik_Metal_State_Penalty>
1.23399

> <b_epik_Metal_Only>
0

> <s_lp_Force_Field>
OPLS_2005

> <r_lp_Energy>
38.8173

> <b_lp_Chiralities_Consistent>
1

> <s_lp_Variant>
AV-unprocessed.smi:3163-5

> <Gold.Version>
5.8.1

> <Gold.Id.Protein>
6NUR|6NUR_protein|mol2

> <Gold.PLP.Fitness>
43.2587

> <Gold.PLP.PLP>
-29.5337

> <Gold.PLP.part.hbond>
-3.8905

> <Gold.PLP.part.metal>
0.0000

> <Gold.PLP.part.buried>
-4.4632

> <Gold.PLP.part.nonpolar>
-23.6033

> <Gold.PLP.part.repulsive>
1.2226

> <Gold.PLP.ligand.clash>
0.0000

> <Gold.PLP.ligand.torsion>
0.5571

> <Gold.PLP.Chemscore.Hbond>
4.9440

> <Gold.PLP.Chemscore.CHOScore>
0.0000

> <Gold.PLP.Chemscore.Metal>
0.0000

> <Gold.Chemscore.Hbonds>
donor molecule, donor type, donor heavy atom, donor atom, acceptor molecule, acceptor atom, score
      L1  H     2    36       P1 10747  0.99
      L1  H     7    28       P1  7948  1.00
      L1  H    10    29       P1  7948  0.94
      L1  H    14    37       P1  8028  2.00

> <Gold.PLP.Chemscore.Internal.Correction>
0.0071

> <Gold.Rescore>
     Score         DG    S(hbond)    S(metal)    S(lipo)     H(rot)  DE(clash)    DE(int)     intcor
     21.12     -23.14       3.72        0.00      72.61       1.27       0.20       1.82       ----

> <Gold.Chemscore.Fitness>
21.1236

> <Gold.Chemscore.DG>
-23.1448

> <Gold.Chemscore.ZeroCoef>
-5.4800

> <Gold.Chemscore.Hbond>
3.7205

> <Gold.Chemscore.Metal>
0.0000

> <Gold.Chemscore.Lipo>
72.6054

> <Gold.Chemscore.Internal_Hbond>
0.0000

> <Gold.Chemscore.DEClash>
0.1976

> <Gold.Chemscore.DEInternal>
1.8235

> <Gold.Chemscore.Rot>
1.2721

> <Gold.Chemscore.Internal.Correction>
   9.000000E+99

> <Gold.Chemscore.Hbonds>
donor molecule, donor type, donor heavy atom, donor atom, acceptor molecule, acceptor atom, score
      L1  H     2    36       P1 10747  0.87
      L1  H     7    28       P1  7948  0.92
      L1  H    10    29       P1  7948  0.91
      L1  H    14    37       P1  8028  1.00

> <Gold.Chemscore.Hbond.Weighted>
-12.4264

> <Gold.Chemscore.Metal.Weighted>
-0.0000

> <Gold.Chemscore.Lipo.Weighted>
-8.4948

> <Gold.Chemscore.Internal_Hbond.Weighted>
0.0000

> <Gold.Chemscore.DEClash.Weighted>
0.1976

> <Gold.Chemscore.DEInternal.Weighted>
1.8235

> <Gold.Chemscore.Rot.Weighted>
3.2565

> <Gold.Chemscore.Internal.Correction.Weighted>
   9.000000E+99

> <Gold.Protein.RotatedTorsions>
[ 6907 6896 6895 6894 ] final  -45.70 input  -60.11 | X-H torsion
[ 7974 7965 7964 7962 ] final  136.66 input  175.53 | X-H torsion
[ 8008 7997 7996 7995 ] final -153.38 input   59.86 | X-H torsion
[ 10167 10162 10161 10158 ] final -118.22 input  -65.29 | X-H torsion
[ 10718 10713 10712 10709 ] final -173.67 input   66.30 | X-H torsion
[ 10763 10752 10751 10750 ] final  108.70 input  -60.55 | X-H torsion
[ 11005 11000 10999 10996 ] final -155.04 input  -57.11 | X-H torsion

> <Gold.Protein.ActiveResidues>
 VAL166  LYS551  ARG553  GLY616  TRP617  ASP618  TYR619  PRO620  LYS621  CYS622 
 ASP623  PHE694  ASN695  SER759  ASP760  ASP761  ALA762  ILE779  LEU786  VAL792 
 PHE793  MET794  SER795  GLU796  ALA797  LYS798  CYS799  TRP800  GLU811  SER814 

> <Gold.Protein.RotatedAtoms>
  150.9191  134.8609  159.7476 H   0  0  0  0  0  0  0  0  0  0  0  0  # atno 6907 bound_to 6896
  152.4983  134.4245  159.9501 H   0  0  0  0  0  0  0  0  0  0  0  0  # atno 6908 bound_to 6896
  151.4280  133.3639  159.2800 H   0  0  0  0  0  0  0  0  0  0  0  0  # atno 6909 bound_to 6896
  144.9543  139.4782  143.5510 H   0  0  0  0  0  0  0  0  0  0  0  0  # atno 7974 bound_to 7965
  155.6700  140.0732  157.2523 H   0  0  0  0  0  0  0  0  0  0  0  0  # atno 8008 bound_to 7997
  154.4125  140.1701  156.1920 H   0  0  0  0  0  0  0  0  0  0  0  0  # atno 8009 bound_to 7997
  155.9625  140.3368  155.6506 H   0  0  0  0  0  0  0  0  0  0  0  0  # atno 8010 bound_to 7997
  140.0598  143.4979  152.2038 H   0  0  0  0  0  0  0  0  0  0  0  0  # atno 10167 bound_to 10162
  156.7737  130.9458  151.3120 H   0  0  0  0  0  0  0  0  0  0  0  0  # atno 10718 bound_to 10713
  153.4244  135.3803  155.2131 H   0  0  0  0  0  0  0  0  0  0  0  0  # atno 10763 bound_to 10752
  154.8746  135.3825  154.4345 H   0  0  0  0  0  0  0  0  0  0  0  0  # atno 10764 bound_to 10752
  153.4869  135.7088  153.5969 H   0  0  0  0  0  0  0  0  0  0  0  0  # atno 10765 bound_to 10752
  140.6908  134.4043  157.5219 H   0  0  0  0  0  0  0  0  0  0  0  0  # atno 11005 bound_to 11000
  146.3332  139.8650  142.8849 LP  0  0  0  0  0  0  0  0  0  0  0  0  # atno 17320 bound_to 7965
  145.2796  141.0134  143.3725 LP  0  0  0  0  0  0  0  0  0  0  0  0  # atno 17321 bound_to 7965
  139.5901  144.7546  151.3423 LP  0  0  0  0  0  0  0  0  0  0  0  0  # atno 17342 bound_to 10162
  140.7177  143.7221  150.7688 LP  0  0  0  0  0  0  0  0  0  0  0  0  # atno 17343 bound_to 10162
  157.6679  130.9024  149.9973 LP  0  0  0  0  0  0  0  0  0  0  0  0  # atno 17370 bound_to 10713
  156.1262  130.3644  149.9806 LP  0  0  0  0  0  0  0  0  0  0  0  0  # atno 17371 bound_to 10713
  139.8924  134.8756  156.2273 LP  0  0  0  0  0  0  0  0  0  0  0  0  # atno 17394 bound_to 11000
  141.0243  133.7024  156.1321 LP  0  0  0  0  0  0  0  0  0  0  0  0  # atno 17395 bound_to 11000

$$$$
