AV-unprocessed.smi:290|AV-procd|sdf|2245|dock5
  -GOLD-   2262022123D 1   1.00000     0.00000
 Structure written by MMmdl.
 59 62  0  0  0  0  0  0  0  0  2 V2000
  153.1382  138.8609  154.8483 C   0  0  0  0  0  0  0  0  0  0  0  0
  151.7621  138.7574  155.5243 C   0  0  2  0  0  0  0  0  0  0  0  0
  151.0891  140.0159  155.5202 O   0  0  0  0  0  0  0  0  0  0  0  0
  150.5521  140.2963  156.8074 C   0  0  0  0  0  0  0  0  0  0  0  0
  150.5051  138.9496  157.5207 C   0  0  0  0  0  0  0  0  0  0  0  0
  151.7469  138.2502  156.9848 C   0  0  2  0  0  0  0  0  0  0  0  0
  152.8769  138.7391  157.6882 O   0  0  0  0  0  0  0  0  0  0  0  0
  151.7704  136.7089  157.1572 C   0  0  0  0  0  0  0  0  0  0  0  0
  150.7584  135.9882  156.4000 N   0  0  0  0  0  0  0  0  0  0  0  0
  150.5600  136.0312  155.0399 C   0  0  0  0  0  0  0  0  0  0  0  0
  149.5840  135.2870  154.5985 N   0  0  0  0  0  0  0  0  0  0  0  0
  149.0802  134.6609  155.7341 C   0  0  0  0  0  0  0  0  0  0  0  0
  148.0304  133.7256  155.9852 C   0  0  0  0  0  0  0  0  0  0  0  0
  147.2101  133.1978  155.0361 N   0  0  0  0  0  0  0  0  0  0  0  0
  146.6381  131.8617  155.1595 C   0  0  0  0  0  0  0  0  0  0  0  0
  145.9720  131.5685  153.8088 C   0  0  0  0  0  0  0  0  0  0  0  0
  145.8691  132.9486  153.1354 C   0  0  2  0  0  0  0  0  0  0  0  0
  145.7174  132.9434  151.6492 N   0  3  2  0  0  0  0  0  0  0  0  0
  145.9648  134.2881  151.0664 C   0  0  0  0  0  0  0  0  0  0  0  0
  144.4256  132.3648  151.1810 C   0  0  0  0  0  0  0  0  0  0  0  0
  144.0538  132.7897  149.7487 C   0  0  0  0  0  0  0  0  0  0  0  0
  142.7139  132.4403  149.4714 O   0  0  0  0  0  0  0  0  0  0  0  0
  147.1402  133.6541  153.6552 C   0  0  2  0  0  0  0  0  0  0  0  0
  148.4257  133.2769  152.8818 C   0  0  0  0  0  0  0  0  0  0  0  0
  147.8335  133.3513  157.2773 N   0  0  0  0  0  0  0  0  0  0  0  0
  148.6061  133.8337  158.2540 C   0  0  0  0  0  0  0  0  0  0  0  0
  149.6176  134.6969  158.1653 N   0  0  0  0  0  0  0  0  0  0  0  0
  149.8171  135.0920  156.8760 C   0  0  0  0  0  0  0  0  0  0  0  0
  144.9988  133.4558  153.5578 H   0  0  0  0  0  0  0  0  0  0  0  0
  146.9838  134.7311  153.6222 H   0  0  0  0  0  0  0  0  0  0  0  0
  153.6516  137.8990  154.8558 H   0  0  0  0  0  0  0  0  0  0  0  0
  153.7779  139.5903  155.3454 H   0  0  0  0  0  0  0  0  0  0  0  0
  153.0343  139.1725  153.8090 H   0  0  0  0  0  0  0  0  0  0  0  0
  151.1341  138.1110  154.9133 H   0  0  0  0  0  0  0  0  0  0  0  0
  151.2228  140.9821  157.3265 H   0  0  0  0  0  0  0  0  0  0  0  0
  149.5723  140.7688  156.7380 H   0  0  0  0  0  0  0  0  0  0  0  0
  150.4844  139.0382  158.6076 H   0  0  0  0  0  0  0  0  0  0  0  0
  149.5986  138.4304  157.2111 H   0  0  0  0  0  0  0  0  0  0  0  0
  153.3265  138.0063  158.0803 H   0  0  0  0  0  0  0  0  0  0  0  0
  152.7471  136.3184  156.8681 H   0  0  0  0  0  0  0  0  0  0  0  0
  151.6439  136.4519  158.2100 H   0  0  0  0  0  0  0  0  0  0  0  0
  151.1610  136.6425  154.3820 H   0  0  0  0  0  0  0  0  0  0  0  0
  147.3983  131.1152  155.3945 H   0  0  0  0  0  0  0  0  0  0  0  0
  145.8987  131.8620  155.9613 H   0  0  0  0  0  0  0  0  0  0  0  0
  146.6070  130.9030  153.2223 H   0  0  0  0  0  0  0  0  0  0  0  0
  145.0046  131.0822  153.9373 H   0  0  0  0  0  0  0  0  0  0  0  0
  145.1898  134.9923  151.3714 H   0  0  0  0  0  0  0  0  0  0  0  0
  145.9879  134.2591  149.9784 H   0  0  0  0  0  0  0  0  0  0  0  0
  146.9255  134.6954  151.3780 H   0  0  0  0  0  0  0  0  0  0  0  0
  144.4580  131.2769  151.1870 H   0  0  0  0  0  0  0  0  0  0  0  0
  143.6323  132.6465  151.8749 H   0  0  0  0  0  0  0  0  0  0  0  0
  144.1469  133.8720  149.6549 H   0  0  0  0  0  0  0  0  0  0  0  0
  144.7140  132.3590  148.9975 H   0  0  0  0  0  0  0  0  0  0  0  0
  142.1579  133.1704  149.6996 H   0  0  0  0  0  0  0  0  0  0  0  0
  148.3824  133.6038  151.8434 H   0  0  0  0  0  0  0  0  0  0  0  0
  148.6015  132.2011  152.8815 H   0  0  0  0  0  0  0  0  0  0  0  0
  149.3048  133.7458  153.3231 H   0  0  0  0  0  0  0  0  0  0  0  0
  148.3802  133.4781  159.2486 H   0  0  0  0  0  0  0  0  0  0  0  0
  146.4399  132.3303  151.2982 H   0  0  0  0  0  0  0  0  0  0  0  0
  1  2  1  0  0  0  0
  1 31  1  0  0  0  0
  1 32  1  0  0  0  0
  1 33  1  0  0  0  0
  2  6  1  0  0  0  0
  2  3  1  0  0  0  0
  2 34  1  0  0  0  0
  3  4  1  0  0  0  0
  4  5  1  0  0  0  0
  4 35  1  0  0  0  0
  4 36  1  0  0  0  0
  5  6  1  0  0  0  0
  5 37  1  0  0  0  0
  5 38  1  0  0  0  0
  6  7  1  0  0  0  0
  6  8  1  0  0  0  0
  7 39  1  0  0  0  0
  8  9  1  0  0  0  0
  8 40  1  0  0  0  0
  8 41  1  0  0  0  0
  9 28  1  0  0  0  0
  9 10  1  0  0  0  0
 10 11  2  0  0  0  0
 10 42  1  0  0  0  0
 11 12  1  0  0  0  0
 12 28  2  0  0  0  0
 12 13  1  0  0  0  0
 13 14  1  0  0  0  0
 13 25  2  0  0  0  0
 14 23  1  0  0  0  0
 14 15  1  0  0  0  0
 15 16  1  0  0  0  0
 15 43  1  0  0  0  0
 15 44  1  0  0  0  0
 16 17  1  0  0  0  0
 16 45  1  0  0  0  0
 16 46  1  0  0  0  0
 17 29  1  0  0  0  0
 17 18  1  0  0  0  0
 17 23  1  0  0  0  0
 18 19  1  0  0  0  0
 18 20  1  0  0  0  0
 18 59  1  0  0  0  0
 19 47  1  0  0  0  0
 19 48  1  0  0  0  0
 19 49  1  0  0  0  0
 20 21  1  0  0  0  0
 20 50  1  0  0  0  0
 20 51  1  0  0  0  0
 21 22  1  0  0  0  0
 21 52  1  0  0  0  0
 21 53  1  0  0  0  0
 22 54  1  0  0  0  0
 23 30  1  0  0  0  0
 23 24  1  0  0  0  0
 24 55  1  0  0  0  0
 24 56  1  0  0  0  0
 24 57  1  0  0  0  0
 25 26  1  0  0  0  0
 26 27  2  0  0  0  0
 26 58  1  0  0  0  0
 27 28  1  0  0  0  0
M  CHG  1  18   1
M  END
> <s_m_source_file>
AV-unprocessed.smi

> <i_m_source_file_index>
290

> <i_lp_mmshare_version>
43012

> <i_f3d_flags>
0

> <s_epik_input>
W0NIMl0xW0NIMl1PW0NAQEhdKFtDSDNdKVtDQEBdMShbT0hdKVtDSDJdbihbY0hdbjIpYyhjMjMpbltjSF1uYzNONFtDSDJdW0NIMl1bQ0BIXShbQ0BIXTRbQ0gzXSlOKFtDSDNdKVtDSDJdW0NIMl1bT0hd

> <s_epik_cmdline>
J2VwaWtfcHl0aG9uJywgJy1waCcsICc3LjAnLCAnLXRuJywgJzgnLCAnLW1hJywgJzIwMCcsICctbWV0YWxfYmluZGluZycsICctaW1hZScsICc8aW5maWxlLm1hZT4nLCAnLW9tYWUnLCAnPG91dGZpbGUubWFlPic=

> <r_lp_tautomer_probability>
1

> <r_epik_Ionization_Penalty>
0.0036983

> <r_epik_Ionization_Penalty_Charging>
0.0032725

> <r_epik_Ionization_Penalty_Neutral>
0.000425798

> <r_epik_State_Penalty>
-0

> <r_epik_Charging_Adjusted_Penalty>
0.0032725

> <i_epik_Tot_Q>
1

> <i_epik_Tot_abs_Q>
1

> <r_epik_Metal_State_Penalty>
-0

> <b_epik_Metal_Only>
0

> <s_lp_Force_Field>
OPLS_2005

> <r_lp_Energy>
66.7181

> <b_lp_Chiralities_Consistent>
1

> <s_lp_Variant>
AV-unprocessed.smi:290-31

> <Gold.Version>
5.8.1

> <Gold.Id.Protein>
6NUR|6NUR_protein|mol2

> <Gold.PLP.Fitness>
52.3079

> <Gold.PLP.PLP>
-37.2571

> <Gold.PLP.part.hbond>
-6.0000

> <Gold.PLP.part.metal>
0.0000

> <Gold.PLP.part.buried>
-6.9625

> <Gold.PLP.part.nonpolar>
-26.7876

> <Gold.PLP.part.repulsive>
2.3733

> <Gold.PLP.ligand.clash>
0.0000

> <Gold.PLP.ligand.torsion>
0.6774

> <Gold.PLP.Chemscore.Hbond>
4.7237

> <Gold.PLP.Chemscore.CHOScore>
0.6660

> <Gold.PLP.Chemscore.Metal>
0.0000

> <Gold.Chemscore.Hbonds>
donor molecule, donor type, donor heavy atom, donor atom, acceptor molecule, acceptor atom, score
      L1  H    22    54       P1 10186  1.00
      P1  H  6896  6908       L1    27  1.00
      P1  H  7989  7998       L1     3  0.44
      P1  H  7997  8010       L1     7  0.52

> <Gold.PLP.Chemscore.Internal.Correction>
0.2365

> <Gold.Rescore>
     Score         DG    S(hbond)    S(metal)    S(lipo)     H(rot)  DE(clash)    DE(int)     intcor
     12.79     -17.22       3.04        0.00      86.91       3.35       1.27       3.15       ----

> <Gold.Chemscore.Fitness>
12.7868

> <Gold.Chemscore.DG>
-17.2151

> <Gold.Chemscore.ZeroCoef>
-5.4800

> <Gold.Chemscore.Hbond>
3.0379

> <Gold.Chemscore.Metal>
0.0000

> <Gold.Chemscore.Lipo>
86.9143

> <Gold.Chemscore.Internal_Hbond>
0.0000

> <Gold.Chemscore.DEClash>
1.2741

> <Gold.Chemscore.DEInternal>
3.1542

> <Gold.Chemscore.Rot>
3.3518

> <Gold.Chemscore.Internal.Correction>
   9.000000E+99

> <Gold.Chemscore.Hbonds>
donor molecule, donor type, donor heavy atom, donor atom, acceptor molecule, acceptor atom, score
      L1  H    22    54       P1 10186  1.00
      P1  H  6896  6908       L1    27  0.34
      P1  H  7989  7998       L1     3  0.17
      P1  H  7997  8010       L1     7  0.26

> <Gold.Chemscore.Hbond.Weighted>
-10.1467

> <Gold.Chemscore.Metal.Weighted>
-0.0000

> <Gold.Chemscore.Lipo.Weighted>
-10.1690

> <Gold.Chemscore.Internal_Hbond.Weighted>
0.0000

> <Gold.Chemscore.DEClash.Weighted>
1.2741

> <Gold.Chemscore.DEInternal.Weighted>
3.1542

> <Gold.Chemscore.Rot.Weighted>
8.5806

> <Gold.Chemscore.Internal.Correction.Weighted>
   9.000000E+99

> <Gold.Protein.RotatedTorsions>
[ 6907 6896 6895 6894 ] final  141.85 input  -60.11 | X-H torsion
[ 7974 7965 7964 7962 ] final   52.13 input  175.53 | X-H torsion
[ 8008 7997 7996 7995 ] final   45.15 input   59.86 | X-H torsion
[ 10167 10162 10161 10158 ] final   61.70 input  -65.29 | X-H torsion
[ 10718 10713 10712 10709 ] final -146.30 input   66.30 | X-H torsion
[ 10763 10752 10751 10750 ] final   14.88 input  -60.55 | X-H torsion
[ 11005 11000 10999 10996 ] final -153.58 input  -57.11 | X-H torsion

> <Gold.Protein.ActiveResidues>
 VAL166  LYS551  ARG553  GLY616  TRP617  ASP618  TYR619  PRO620  LYS621  CYS622 
 ASP623  PHE694  ASN695  SER759  ASP760  ASP761  ALA762  ILE779  LEU786  VAL792 
 PHE793  MET794  SER795  GLU796  ALA797  LYS798  CYS799  TRP800  GLU811  SER814 

> <Gold.Protein.RotatedAtoms>
  152.2259  133.5020  159.5188 H   0  0  0  0  0  0  0  0  0  0  0  0  # atno 6907 bound_to 6896
  150.7025  134.1280  159.4068 H   0  0  0  0  0  0  0  0  0  0  0  0  # atno 6908 bound_to 6896
  151.9201  135.0302  160.0572 H   0  0  0  0  0  0  0  0  0  0  0  0  # atno 6909 bound_to 6896
  145.9844  139.4275  143.0112 H   0  0  0  0  0  0  0  0  0  0  0  0  # atno 7974 bound_to 7965
  155.3310  140.3402  155.4239 H   0  0  0  0  0  0  0  0  0  0  0  0  # atno 8008 bound_to 7997
  156.1861  140.1681  156.8218 H   0  0  0  0  0  0  0  0  0  0  0  0  # atno 8009 bound_to 7997
  154.5388  140.0729  156.8457 H   0  0  0  0  0  0  0  0  0  0  0  0  # atno 8010 bound_to 7997
  140.1520  144.4454  150.6754 H   0  0  0  0  0  0  0  0  0  0  0  0  # atno 10167 bound_to 10162
  156.3932  130.7896  151.2100 H   0  0  0  0  0  0  0  0  0  0  0  0  # atno 10718 bound_to 10713
  153.1579  135.6790  153.8785 H   0  0  0  0  0  0  0  0  0  0  0  0  # atno 10763 bound_to 10752
  153.8190  135.3133  155.3409 H   0  0  0  0  0  0  0  0  0  0  0  0  # atno 10764 bound_to 10752
  154.7911  135.4834  154.0143 H   0  0  0  0  0  0  0  0  0  0  0  0  # atno 10765 bound_to 10752
  140.7066  134.3879  157.5203 H   0  0  0  0  0  0  0  0  0  0  0  0  # atno 11005 bound_to 11000
  145.7722  140.9892  143.1143 LP  0  0  0  0  0  0  0  0  0  0  0  0  # atno 17320 bound_to 7965
  144.6870  139.9461  143.7476 LP  0  0  0  0  0  0  0  0  0  0  0  0  # atno 17321 bound_to 7965
  140.6697  143.2281  151.5656 LP  0  0  0  0  0  0  0  0  0  0  0  0  # atno 17342 bound_to 10162
  139.5421  144.2618  152.1372 LP  0  0  0  0  0  0  0  0  0  0  0  0  # atno 17343 bound_to 10162
  157.7500  131.0309  150.4159 LP  0  0  0  0  0  0  0  0  0  0  0  0  # atno 17370 bound_to 10713
  156.4424  130.3994  149.6688 LP  0  0  0  0  0  0  0  0  0  0  0  0  # atno 17371 bound_to 10713
  139.8882  134.8861  156.2484 LP  0  0  0  0  0  0  0  0  0  0  0  0  # atno 17394 bound_to 11000
  141.0119  133.7090  156.1126 LP  0  0  0  0  0  0  0  0  0  0  0  0  # atno 17395 bound_to 11000

$$$$
