AV-unprocessed.smi:1767|AV-procd|sdf|7139|dock3
  -GOLD-   22720 8373D 1   1.00000     0.00000
 Structure written by MMmdl.
 32 34  0  0  0  0  0  0  0  0  1 V2000
  150.8302  144.0537  157.6916 O   0  0  0  0  0  0  0  0  0  0  0  0
  151.4045  142.8191  158.0686 C   0  0  2  0  0  0  0  0  0  0  0  0
  150.3281  141.7241  157.9336 C   0  0  0  0  0  0  0  0  0  0  0  0
  150.1708  141.2769  156.5612 N   0  0  0  0  0  0  0  0  0  0  0  0
  151.0818  140.6259  155.8130 C   0  0  0  0  0  0  0  0  0  0  0  0
  150.7278  140.2908  154.5758 N   0  0  0  0  0  0  0  0  0  0  0  0
  149.4356  140.7832  154.5121 C   0  0  0  0  0  0  0  0  0  0  0  0
  148.4925  140.7495  153.4601 C   0  0  0  0  0  0  0  0  0  0  0  0
  147.2144  141.3220  153.6277 C   0  0  0  0  0  0  0  0  0  0  0  0
  146.8601  141.9365  154.8464 C   0  0  0  0  0  0  0  0  0  0  0  0
  147.7835  141.9834  155.9083 C   0  0  0  0  0  0  0  0  0  0  0  0
  149.0573  141.4099  155.7378 C   0  0  0  0  0  0  0  0  0  0  0  0
  152.0087  142.8676  159.4657 C   0  0  0  0  0  0  0  0  0  0  0  0
  152.7988  141.7933  159.9291 C   0  0  0  0  0  0  0  0  0  0  0  0
  153.3357  141.8163  161.2309 C   0  0  0  0  0  0  0  0  0  0  0  0
  153.0869  142.9141  162.0766 C   0  0  0  0  0  0  0  0  0  0  0  0
  153.6016  142.9351  163.3288 F   0  0  0  0  0  0  0  0  0  0  0  0
  152.3012  143.9893  161.6199 C   0  0  0  0  0  0  0  0  0  0  0  0
  151.7630  143.9664  160.3186 C   0  0  0  0  0  0  0  0  0  0  0  0
  150.2618  143.9047  156.9515 H   0  0  0  0  0  0  0  0  0  0  0  0
  152.2020  142.6209  157.3508 H   0  0  0  0  0  0  0  0  0  0  0  0
  150.5644  140.8647  158.5625 H   0  0  0  0  0  0  0  0  0  0  0  0
  149.3629  142.1022  158.2739 H   0  0  0  0  0  0  0  0  0  0  0  0
  152.0591  140.3789  156.2015 H   0  0  0  0  0  0  0  0  0  0  0  0
  148.7527  140.2811  152.5225 H   0  0  0  0  0  0  0  0  0  0  0  0
  146.5018  141.2891  152.8167 H   0  0  0  0  0  0  0  0  0  0  0  0
  145.8787  142.3715  154.9659 H   0  0  0  0  0  0  0  0  0  0  0  0
  147.5133  142.4502  156.8438 H   0  0  0  0  0  0  0  0  0  0  0  0
  152.9873  140.9423  159.2911 H   0  0  0  0  0  0  0  0  0  0  0  0
  153.9361  140.9899  161.5817 H   0  0  0  0  0  0  0  0  0  0  0  0
  152.1080  144.8304  162.2691 H   0  0  0  0  0  0  0  0  0  0  0  0
  151.1530  144.7914  159.9809 H   0  0  0  0  0  0  0  0  0  0  0  0
  1  2  1  0  0  0  0
  1 20  1  0  0  0  0
  2  3  1  0  0  0  0
  2 13  1  0  0  0  0
  2 21  1  0  0  0  0
  3  4  1  0  0  0  0
  3 22  1  0  0  0  0
  3 23  1  0  0  0  0
  4 12  1  0  0  0  0
  4  5  1  0  0  0  0
  5  6  2  0  0  0  0
  5 24  1  0  0  0  0
  6  7  1  0  0  0  0
  7 12  2  0  0  0  0
  7  8  1  0  0  0  0
  8  9  2  0  0  0  0
  8 25  1  0  0  0  0
  9 10  1  0  0  0  0
  9 26  1  0  0  0  0
 10 11  2  0  0  0  0
 10 27  1  0  0  0  0
 11 12  1  0  0  0  0
 11 28  1  0  0  0  0
 13 19  1  0  0  0  0
 13 14  2  0  0  0  0
 14 15  1  0  0  0  0
 14 29  1  0  0  0  0
 15 16  2  0  0  0  0
 15 30  1  0  0  0  0
 16 17  1  0  0  0  0
 16 18  1  0  0  0  0
 18 19  2  0  0  0  0
 18 31  1  0  0  0  0
 19 32  1  0  0  0  0
M  END
> <s_m_source_file>
AV-unprocessed.smi

> <i_m_source_file_index>
1767

> <i_lp_mmshare_version>
43012

> <i_f3d_flags>
0

> <s_epik_input>
W2NIXTFbY0hdYyhGKVtjSF1bY0hdYzFbQ0BIXShbT0hdKVtDSDJdbihbY0hdbjIpYyhjMjMpW2NIXVtjSF1bY0hdW2NIXTM=

> <s_epik_cmdline>
J2VwaWtfcHl0aG9uJywgJy1waCcsICc3LjAnLCAnLXRuJywgJzgnLCAnLW1hJywgJzIwMCcsICctbWV0YWxfYmluZGluZycsICctaW1hZScsICc8aW5maWxlLm1hZT4nLCAnLW9tYWUnLCAnPG91dGZpbGUubWFlPic=

> <r_epik_Ionization_Penalty>
0.0696514

> <r_epik_Ionization_Penalty_Charging>
0

> <r_epik_Ionization_Penalty_Neutral>
0.0696514

> <r_epik_State_Penalty>
0.0610247

> <r_epik_Charging_Adjusted_Penalty>
0.0610247

> <i_epik_Tot_Q>
0

> <i_epik_Tot_abs_Q>
0

> <r_epik_Metal_State_Penalty>
6.42746e-05

> <b_epik_Metal_Only>
0

> <s_lp_Force_Field>
OPLS_2005

> <r_lp_Energy>
11.9132

> <b_lp_Chiralities_Consistent>
1

> <s_lp_Variant>
AV-unprocessed.smi:1767-1

> <Gold.Version>
5.8.1

> <Gold.Id.Protein>
6NUR|6NUR_protein|mol2

> <Gold.PLP.Fitness>
53.5235

> <Gold.PLP.PLP>
-48.7323

> <Gold.PLP.part.hbond>
-2.0000

> <Gold.PLP.part.metal>
0.0000

> <Gold.PLP.part.buried>
-0.7039

> <Gold.PLP.part.nonpolar>
-45.5241

> <Gold.PLP.part.repulsive>
0.0822

> <Gold.PLP.ligand.clash>
0.0000

> <Gold.PLP.ligand.torsion>
0.4192

> <Gold.PLP.Chemscore.Hbond>
1.8640

> <Gold.PLP.Chemscore.CHOScore>
0.0000

> <Gold.PLP.Chemscore.Metal>
0.0000

> <Gold.Chemscore.Hbonds>
donor molecule, donor type, donor heavy atom, donor atom, acceptor molecule, acceptor atom, score
      L1  H     1    20       P1  8028  0.87
      P1  H  7989  7998       L1     6  0.98

> <Gold.PLP.Chemscore.Internal.Correction>
0.0377

> <Gold.Rescore>
     Score         DG    S(hbond)    S(metal)    S(lipo)     H(rot)  DE(clash)    DE(int)     intcor
     18.41     -20.26       1.77        0.00     117.72       1.91       1.38       0.46       ----

> <Gold.Chemscore.Fitness>
18.4125

> <Gold.Chemscore.DG>
-20.2598

> <Gold.Chemscore.ZeroCoef>
-5.4800

> <Gold.Chemscore.Hbond>
1.7665

> <Gold.Chemscore.Metal>
0.0000

> <Gold.Chemscore.Lipo>
117.7210

> <Gold.Chemscore.Internal_Hbond>
0.0000

> <Gold.Chemscore.DEClash>
1.3848

> <Gold.Chemscore.DEInternal>
0.4625

> <Gold.Chemscore.Rot>
1.9116

> <Gold.Chemscore.Internal.Correction>
   9.000000E+99

> <Gold.Chemscore.Hbonds>
donor molecule, donor type, donor heavy atom, donor atom, acceptor molecule, acceptor atom, score
      L1  H     1    20       P1  8028  0.80
      P1  H  7989  7998       L1     6  0.66

> <Gold.Chemscore.Hbond.Weighted>
-5.9002

> <Gold.Chemscore.Metal.Weighted>
-0.0000

> <Gold.Chemscore.Lipo.Weighted>
-13.7734

> <Gold.Chemscore.Internal_Hbond.Weighted>
0.0000

> <Gold.Chemscore.DEClash.Weighted>
1.3848

> <Gold.Chemscore.DEInternal.Weighted>
0.4625

> <Gold.Chemscore.Rot.Weighted>
4.8937

> <Gold.Chemscore.Internal.Correction.Weighted>
   9.000000E+99

> <Gold.Protein.RotatedTorsions>
[ 6907 6896 6895 6894 ] final  133.39 input  -60.11 | X-H torsion
[ 7974 7965 7964 7962 ] final   53.38 input  175.53 | X-H torsion
[ 8008 7997 7996 7995 ] final  124.58 input   59.86 | X-H torsion
[ 10167 10162 10161 10158 ] final   36.03 input  -65.29 | X-H torsion
[ 10718 10713 10712 10709 ] final  -76.77 input   66.30 | X-H torsion
[ 10763 10752 10751 10750 ] final   69.32 input  -60.55 | X-H torsion
[ 11005 11000 10999 10996 ] final -164.27 input  -57.11 | X-H torsion

> <Gold.Protein.ActiveResidues>
 VAL166  LYS551  ARG553  GLY616  TRP617  ASP618  TYR619  PRO620  LYS621  CYS622 
 ASP623  PHE694  ASN695  SER759  ASP760  ASP761  ALA762  ILE779  LEU786  VAL792 
 PHE793  MET794  SER795  GLU796  ALA797  LYS798  CYS799  TRP800  GLU811  SER814 

> <Gold.Protein.RotatedAtoms>
  152.3225  133.5869  159.5753 H   0  0  0  0  0  0  0  0  0  0  0  0  # atno 6907 bound_to 6896
  150.7379  133.9990  159.3641 H   0  0  0  0  0  0  0  0  0  0  0  0  # atno 6908 bound_to 6896
  151.7873  135.0746  160.0433 H   0  0  0  0  0  0  0  0  0  0  0  0  # atno 6909 bound_to 6896
  145.9718  139.4156  143.0185 H   0  0  0  0  0  0  0  0  0  0  0  0  # atno 7974 bound_to 7965
  156.2806  140.2736  156.1810 H   0  0  0  0  0  0  0  0  0  0  0  0  # atno 8008 bound_to 7997
  155.0556  140.0386  157.2577 H   0  0  0  0  0  0  0  0  0  0  0  0  # atno 8009 bound_to 7997
  154.7159  140.2678  155.6591 H   0  0  0  0  0  0  0  0  0  0  0  0  # atno 8010 bound_to 7997
  140.4166  144.1518  150.6144 H   0  0  0  0  0  0  0  0  0  0  0  0  # atno 10167 bound_to 10162
  156.0165  130.4474  150.3245 H   0  0  0  0  0  0  0  0  0  0  0  0  # atno 10718 bound_to 10713
  153.0281  135.5215  154.7270 H   0  0  0  0  0  0  0  0  0  0  0  0  # atno 10763 bound_to 10752
  154.6309  135.2900  155.0220 H   0  0  0  0  0  0  0  0  0  0  0  0  # atno 10764 bound_to 10752
  154.1172  135.6613  153.4948 H   0  0  0  0  0  0  0  0  0  0  0  0  # atno 10765 bound_to 10752
  140.5888  134.5066  157.5190 H   0  0  0  0  0  0  0  0  0  0  0  0  # atno 11005 bound_to 11000
  145.7895  140.9820  143.1056 LP  0  0  0  0  0  0  0  0  0  0  0  0  # atno 17320 bound_to 7965
  144.6839  139.9665  143.7481 LP  0  0  0  0  0  0  0  0  0  0  0  0  # atno 17321 bound_to 7965
  140.4579  143.2460  151.9259 LP  0  0  0  0  0  0  0  0  0  0  0  0  # atno 17342 bound_to 10162
  139.4782  144.5497  151.8405 LP  0  0  0  0  0  0  0  0  0  0  0  0  # atno 17343 bound_to 10162
  157.1344  131.0280  151.2955 LP  0  0  0  0  0  0  0  0  0  0  0  0  # atno 17370 bound_to 10713
  157.4524  130.7606  149.7163 LP  0  0  0  0  0  0  0  0  0  0  0  0  # atno 17371 bound_to 10713
  139.9283  134.8012  156.1003 LP  0  0  0  0  0  0  0  0  0  0  0  0  # atno 17394 bound_to 11000
  141.0948  133.6700  156.2621 LP  0  0  0  0  0  0  0  0  0  0  0  0  # atno 17395 bound_to 11000

$$$$
