AV-unprocessed.smi:322|AV-procd|sdf|2336|dock7
  -GOLD-   2262022243D 1   1.00000     0.00000
 Structure written by MMmdl.
 43 45  0  0  0  0  0  0  0  0  1 V2000
  152.4252  139.5056  154.6495 O   0  0  0  0  0  0  0  0  0  0  0  0
  152.1173  138.9417  155.9085 C   0  0  0  0  0  0  0  0  0  0  0  0
  152.2589  139.9023  157.0554 C   0  0  0  0  0  0  0  0  0  0  0  0
  153.0341  139.6582  158.1147 N   0  0  0  0  0  0  0  0  0  0  0  0
  152.8696  140.7932  158.8840 C   0  0  0  0  0  0  0  0  0  0  0  0
  153.4270  141.1448  160.1341 C   0  0  0  0  0  0  0  0  0  0  0  0
  153.1071  142.3794  160.7363 C   0  0  0  0  0  0  0  0  0  0  0  0
  152.2278  143.2781  160.0986 C   0  0  0  0  0  0  0  0  0  0  0  0
  151.6619  142.9474  158.8525 C   0  0  0  0  0  0  0  0  0  0  0  0
  151.9843  141.7136  158.2557 C   0  0  0  0  0  0  0  0  0  0  0  0
  151.6100  141.0939  157.0673 N   0  0  0  0  0  0  0  0  0  0  0  0
  150.7103  141.6375  156.0591 C   0  0  0  0  0  0  0  0  0  0  0  0
  149.2970  141.0225  156.1303 C   0  0  1  0  0  0  0  0  0  0  0  0
  148.5326  141.5904  157.1752 O   0  0  0  0  0  0  0  0  0  0  0  0
  148.5123  141.1356  154.8132 C   0  0  0  0  0  0  0  0  0  0  0  0
  147.6321  142.2469  154.8675 O   0  0  0  0  0  0  0  0  0  0  0  0
  146.4972  142.0992  154.0303 C   0  0  0  0  0  0  0  0  0  0  0  0
  145.5306  143.2600  154.1713 C   0  0  0  0  0  0  0  0  0  0  0  0
  144.7823  143.4295  155.3564 C   0  0  0  0  0  0  0  0  0  0  0  0
  143.8978  144.5179  155.4865 C   0  0  0  0  0  0  0  0  0  0  0  0
  143.7622  145.4455  154.4353 C   0  0  0  0  0  0  0  0  0  0  0  0
  142.6780  146.7782  154.5942 Cl  0  0  0  0  0  0  0  0  0  0  0  0
  144.5146  145.2858  153.2554 C   0  0  0  0  0  0  0  0  0  0  0  0
  145.3994  144.1976  153.1252 C   0  0  0  0  0  0  0  0  0  0  0  0
  153.0988  138.9831  154.2419 H   0  0  0  0  0  0  0  0  0  0  0  0
  151.0931  138.5686  155.8866 H   0  0  0  0  0  0  0  0  0  0  0  0
  152.7730  138.0851  156.0610 H   0  0  0  0  0  0  0  0  0  0  0  0
  154.1017  140.4633  160.6304 H   0  0  0  0  0  0  0  0  0  0  0  0
  153.5382  142.6378  161.6924 H   0  0  0  0  0  0  0  0  0  0  0  0
  151.9874  144.2215  160.5666 H   0  0  0  0  0  0  0  0  0  0  0  0
  150.9859  143.6326  158.3625 H   0  0  0  0  0  0  0  0  0  0  0  0
  150.6636  142.7192  156.1923 H   0  0  0  0  0  0  0  0  0  0  0  0
  151.1451  141.4763  155.0723 H   0  0  0  0  0  0  0  0  0  0  0  0
  149.3867  139.9629  156.3701 H   0  0  0  0  0  0  0  0  0  0  0  0
  148.5923  141.0262  157.9312 H   0  0  0  0  0  0  0  0  0  0  0  0
  149.2146  141.2817  153.9910 H   0  0  0  0  0  0  0  0  0  0  0  0
  147.9645  140.2143  154.6080 H   0  0  0  0  0  0  0  0  0  0  0  0
  146.8090  142.0367  152.9868 H   0  0  0  0  0  0  0  0  0  0  0  0
  145.9817  141.1688  154.2745 H   0  0  0  0  0  0  0  0  0  0  0  0
  144.8828  142.7265  156.1705 H   0  0  0  0  0  0  0  0  0  0  0  0
  143.3256  144.6408  156.3942 H   0  0  0  0  0  0  0  0  0  0  0  0
  144.4155  145.9980  152.4495 H   0  0  0  0  0  0  0  0  0  0  0  0
  145.9758  144.0844  152.2187 H   0  0  0  0  0  0  0  0  0  0  0  0
  1  2  1  0  0  0  0
  1 25  1  0  0  0  0
  2  3  1  0  0  0  0
  2 26  1  0  0  0  0
  2 27  1  0  0  0  0
  3 11  1  0  0  0  0
  3  4  2  0  0  0  0
  4  5  1  0  0  0  0
  5 10  2  0  0  0  0
  5  6  1  0  0  0  0
  6  7  2  0  0  0  0
  6 28  1  0  0  0  0
  7  8  1  0  0  0  0
  7 29  1  0  0  0  0
  8  9  2  0  0  0  0
  8 30  1  0  0  0  0
  9 10  1  0  0  0  0
  9 31  1  0  0  0  0
 10 11  1  0  0  0  0
 11 12  1  0  0  0  0
 12 13  1  0  0  0  0
 12 32  1  0  0  0  0
 12 33  1  0  0  0  0
 13 14  1  0  0  0  0
 13 15  1  0  0  0  0
 13 34  1  0  0  0  0
 14 35  1  0  0  0  0
 15 16  1  0  0  0  0
 15 36  1  0  0  0  0
 15 37  1  0  0  0  0
 16 17  1  0  0  0  0
 17 18  1  0  0  0  0
 17 38  1  0  0  0  0
 17 39  1  0  0  0  0
 18 24  1  0  0  0  0
 18 19  2  0  0  0  0
 19 20  1  0  0  0  0
 19 40  1  0  0  0  0
 20 21  2  0  0  0  0
 20 41  1  0  0  0  0
 21 22  1  0  0  0  0
 21 23  1  0  0  0  0
 23 24  2  0  0  0  0
 23 42  1  0  0  0  0
 24 43  1  0  0  0  0
M  END
> <s_m_source_file>
AV-unprocessed.smi

> <i_m_source_file_index>
322

> <i_lp_mmshare_version>
43012

> <i_f3d_flags>
0

> <s_epik_input>
W2NIXTFbY0hdW2NIXVtjSF1jKGMxMiluKGMobjIpW0NIMl1bT0hdKVtDSDJdW0NASF0oW09IXSlbQ0gyXU9bQ0gyXWMzW2NIXVtjSF1jKENsKVtjSF1bY0hdMw==

> <s_epik_cmdline>
J2VwaWtfcHl0aG9uJywgJy1waCcsICc3LjAnLCAnLXRuJywgJzgnLCAnLW1hJywgJzIwMCcsICctbWV0YWxfYmluZGluZycsICctaW1hZScsICc8aW5maWxlLm1hZT4nLCAnLW9tYWUnLCAnPG91dGZpbGUubWFlPic=

> <r_epik_Ionization_Penalty>
0.0649918

> <r_epik_Ionization_Penalty_Charging>
0

> <r_epik_Ionization_Penalty_Neutral>
0.0649918

> <r_epik_State_Penalty>
0.0565791

> <r_epik_Charging_Adjusted_Penalty>
0.0565791

> <i_epik_Tot_Q>
0

> <i_epik_Tot_abs_Q>
0

> <r_epik_Metal_State_Penalty>
5.93658e-05

> <b_epik_Metal_Only>
0

> <s_lp_Force_Field>
OPLS_2005

> <r_lp_Energy>
15.9671

> <b_lp_Chiralities_Consistent>
1

> <s_lp_Variant>
AV-unprocessed.smi:322-2

> <Gold.Version>
5.8.1

> <Gold.Id.Protein>
6NUR|6NUR_protein|mol2

> <Gold.PLP.Fitness>
54.9235

> <Gold.PLP.PLP>
-52.8702

> <Gold.PLP.part.hbond>
-2.0000

> <Gold.PLP.part.metal>
0.0000

> <Gold.PLP.part.buried>
-6.1894

> <Gold.PLP.part.nonpolar>
-47.1075

> <Gold.PLP.part.repulsive>
1.8538

> <Gold.PLP.ligand.clash>
0.0000

> <Gold.PLP.ligand.torsion>
1.2109

> <Gold.PLP.Chemscore.Hbond>
1.4493

> <Gold.PLP.Chemscore.CHOScore>
0.0000

> <Gold.PLP.Chemscore.Metal>
0.0000

> <Gold.Chemscore.Hbonds>
donor molecule, donor type, donor heavy atom, donor atom, acceptor molecule, acceptor atom, score
      P1  H  7989  7998       L1     1  0.67
      P1  H  7997  8009       L1     4  0.77

> <Gold.PLP.Chemscore.Internal.Correction>
0.1272

> <Gold.Rescore>
     Score         DG    S(hbond)    S(metal)    S(lipo)     H(rot)  DE(clash)    DE(int)     intcor
     15.01     -17.11       0.77        0.00     146.07       3.13       1.07       1.03       ----

> <Gold.Chemscore.Fitness>
15.0140

> <Gold.Chemscore.DG>
-17.1143

> <Gold.Chemscore.ZeroCoef>
-5.4800

> <Gold.Chemscore.Hbond>
0.7685

> <Gold.Chemscore.Metal>
0.0000

> <Gold.Chemscore.Lipo>
146.0673

> <Gold.Chemscore.Internal_Hbond>
0.0000

> <Gold.Chemscore.DEClash>
1.0691

> <Gold.Chemscore.DEInternal>
1.0312

> <Gold.Chemscore.Rot>
3.1337

> <Gold.Chemscore.Internal.Correction>
   9.000000E+99

> <Gold.Chemscore.Hbonds>
donor molecule, donor type, donor heavy atom, donor atom, acceptor molecule, acceptor atom, score
      P1  H  7989  7998       L1     1  0.58
      P1  H  7997  8009       L1     4  0.04

> <Gold.Chemscore.Hbond.Weighted>
-2.5668

> <Gold.Chemscore.Metal.Weighted>
-0.0000

> <Gold.Chemscore.Lipo.Weighted>
-17.0899

> <Gold.Chemscore.Internal_Hbond.Weighted>
0.0000

> <Gold.Chemscore.DEClash.Weighted>
1.0691

> <Gold.Chemscore.DEInternal.Weighted>
1.0312

> <Gold.Chemscore.Rot.Weighted>
8.0224

> <Gold.Chemscore.Internal.Correction.Weighted>
   9.000000E+99

> <Gold.Protein.RotatedTorsions>
[ 6907 6896 6895 6894 ] final  -75.04 input  -60.11 | X-H torsion
[ 7974 7965 7964 7962 ] final  -73.30 input  175.53 | X-H torsion
[ 8008 7997 7996 7995 ] final  138.67 input   59.86 | X-H torsion
[ 10167 10162 10161 10158 ] final   21.63 input  -65.29 | X-H torsion
[ 10718 10713 10712 10709 ] final   55.98 input   66.30 | X-H torsion
[ 10763 10752 10751 10750 ] final  -33.40 input  -60.55 | X-H torsion
[ 11005 11000 10999 10996 ] final   85.33 input  -57.11 | X-H torsion

> <Gold.Protein.ActiveResidues>
 VAL166  LYS551  ARG553  GLY616  TRP617  ASP618  TYR619  PRO620  LYS621  CYS622 
 ASP623  PHE694  ASN695  SER759  ASP760  ASP761  ALA762  ILE779  LEU786  VAL792 
 PHE793  MET794  SER795  GLU796  ALA797  LYS798  CYS799  TRP800  GLU811  SER814 

> <Gold.Protein.RotatedAtoms>
  150.7072  134.4779  159.5456 H   0  0  0  0  0  0  0  0  0  0  0  0  # atno 6907 bound_to 6896
  152.2422  134.8214  160.0467 H   0  0  0  0  0  0  0  0  0  0  0  0  # atno 6908 bound_to 6896
  151.8991  133.3499  159.3861 H   0  0  0  0  0  0  0  0  0  0  0  0  # atno 6909 bound_to 6896
  145.6539  140.9274  143.0970 H   0  0  0  0  0  0  0  0  0  0  0  0  # atno 7974 bound_to 7965
  156.2996  140.2387  156.4111 H   0  0  0  0  0  0  0  0  0  0  0  0  # atno 8008 bound_to 7997
  154.8440  140.0427  157.1580 H   0  0  0  0  0  0  0  0  0  0  0  0  # atno 8009 bound_to 7997
  154.9072  140.2985  155.5289 H   0  0  0  0  0  0  0  0  0  0  0  0  # atno 8010 bound_to 7997
  140.5412  143.9674  150.6520 H   0  0  0  0  0  0  0  0  0  0  0  0  # atno 10167 bound_to 10162
  157.5391  130.8685  149.8796 H   0  0  0  0  0  0  0  0  0  0  0  0  # atno 10718 bound_to 10713
  153.8296  135.6867  153.4816 H   0  0  0  0  0  0  0  0  0  0  0  0  # atno 10763 bound_to 10752
  153.1519  135.4614  154.9647 H   0  0  0  0  0  0  0  0  0  0  0  0  # atno 10764 bound_to 10752
  154.7892  135.3296  154.7760 H   0  0  0  0  0  0  0  0  0  0  0  0  # atno 10765 bound_to 10752
  139.8974  134.8279  156.2568 H   0  0  0  0  0  0  0  0  0  0  0  0  # atno 11005 bound_to 11000
  144.7113  139.8362  143.7414 LP  0  0  0  0  0  0  0  0  0  0  0  0  # atno 17320 bound_to 7965
  146.1181  139.4194  143.0246 LP  0  0  0  0  0  0  0  0  0  0  0  0  # atno 17321 bound_to 7965
  140.3075  143.3220  152.0912 LP  0  0  0  0  0  0  0  0  0  0  0  0  # atno 17342 bound_to 10162
  139.4989  144.6658  151.6360 LP  0  0  0  0  0  0  0  0  0  0  0  0  # atno 17343 bound_to 10162
  156.0482  130.3723  150.1264 LP  0  0  0  0  0  0  0  0  0  0  0  0  # atno 17370 bound_to 10713
  156.9445  130.9755  151.3510 LP  0  0  0  0  0  0  0  0  0  0  0  0  # atno 17371 bound_to 10713
  141.0188  133.7053  156.1234 LP  0  0  0  0  0  0  0  0  0  0  0  0  # atno 17394 bound_to 11000
  140.7263  134.4304  157.5570 LP  0  0  0  0  0  0  0  0  0  0  0  0  # atno 17395 bound_to 11000

$$$$
