AV-unprocessed.smi:3057|AV-procd|sdf|11662|dock5
  -GOLD-   2272017 63D 1   1.00000     0.00000
 Structure written by MMmdl.
 40 42  0  0  0  0  0  0  0  0  1 V2000
  156.3657  135.8626  163.0742 C   0  0  0  0  0  0  0  0  0  0  0  0
  155.5836  137.1532  162.7534 C   0  0  2  0  0  0  0  0  0  0  0  0
  154.2317  137.1824  163.4842 C   0  0  0  0  0  0  0  0  0  0  0  0
  153.2557  136.5418  162.4850 C   0  0  0  0  0  0  0  0  0  0  0  0
  153.9463  136.7817  161.1501 C   0  0  0  0  0  0  0  0  0  0  0  0
  153.3779  136.6603  160.0660 O   0  0  0  0  0  0  0  0  0  0  0  0
  155.2072  137.1961  161.3527 N   0  0  0  0  0  0  0  0  0  0  0  0
  156.1338  137.8782  160.4361 C   0  0  1  0  0  0  0  0  0  0  0  0
  155.4751  138.9993  159.6099 C   0  0  0  0  0  0  0  0  0  0  0  0
  155.3282  138.8746  158.3934 O   0  0  0  0  0  0  0  0  0  0  0  0
  155.0593  140.0765  160.2910 N   0  0  0  0  0  0  0  0  0  0  0  0
  154.4034  141.2276  159.6868 C   0  0  0  0  0  0  0  0  0  0  0  0
  152.9748  141.3814  160.2268 C   0  0  0  0  0  0  0  0  0  0  0  0
  152.3812  142.7397  159.9038 C   0  0  0  0  0  0  0  0  0  0  0  0
  152.3689  143.7684  160.8702 C   0  0  0  0  0  0  0  0  0  0  0  0
  151.7989  145.0085  160.5224 C   0  0  0  0  0  0  0  0  0  0  0  0
  151.2647  145.1709  159.2296 C   0  0  0  0  0  0  0  0  0  0  0  0
  151.3243  144.0811  158.3381 C   0  0  0  0  0  0  0  0  0  0  0  0
  151.8686  142.8880  158.6614 N   0  0  0  0  0  0  0  0  0  0  0  0
  157.2963  138.4120  161.3017 C   0  0  0  0  0  0  0  0  0  0  0  0
  156.6158  138.6175  162.9703 S   0  0  0  0  0  0  0  0  0  0  0  0
  155.7635  134.9726  162.8892 H   0  0  0  0  0  0  0  0  0  0  0  0
  156.6673  135.8415  164.1217 H   0  0  0  0  0  0  0  0  0  0  0  0
  157.2693  135.7724  162.4718 H   0  0  0  0  0  0  0  0  0  0  0  0
  154.2564  136.6563  164.4392 H   0  0  0  0  0  0  0  0  0  0  0  0
  153.9253  138.2106  163.6835 H   0  0  0  0  0  0  0  0  0  0  0  0
  153.1569  135.4690  162.6534 H   0  0  0  0  0  0  0  0  0  0  0  0
  152.2667  136.9992  162.5205 H   0  0  0  0  0  0  0  0  0  0  0  0
  156.5245  137.1293  159.7450 H   0  0  0  0  0  0  0  0  0  0  0  0
  155.2113  140.1024  161.2890 H   0  0  0  0  0  0  0  0  0  0  0  0
  154.9850  142.1269  159.8974 H   0  0  0  0  0  0  0  0  0  0  0  0
  154.3812  141.1024  158.6029 H   0  0  0  0  0  0  0  0  0  0  0  0
  152.3326  140.6030  159.8116 H   0  0  0  0  0  0  0  0  0  0  0  0
  152.9668  141.2403  161.3088 H   0  0  0  0  0  0  0  0  0  0  0  0
  152.7835  143.6122  161.8553 H   0  0  0  0  0  0  0  0  0  0  0  0
  151.7710  145.8195  161.2350 H   0  0  0  0  0  0  0  0  0  0  0  0
  150.8194  146.1076  158.9284 H   0  0  0  0  0  0  0  0  0  0  0  0
  150.9236  144.1698  157.3391 H   0  0  0  0  0  0  0  0  0  0  0  0
  158.1045  137.6815  161.3415 H   0  0  0  0  0  0  0  0  0  0  0  0
  157.7206  139.3476  160.9349 H   0  0  0  0  0  0  0  0  0  0  0  0
  1  2  1  0  0  0  0
  1 22  1  0  0  0  0
  1 23  1  0  0  0  0
  1 24  1  0  0  0  0
  2  7  1  0  0  0  0
  2 21  1  0  0  0  0
  2  3  1  0  0  0  0
  3  4  1  0  0  0  0
  3 25  1  0  0  0  0
  3 26  1  0  0  0  0
  4  5  1  0  0  0  0
  4 27  1  0  0  0  0
  4 28  1  0  0  0  0
  5  6  2  0  0  0  0
  5  7  1  0  0  0  0
  7  8  1  0  0  0  0
  8  9  1  0  0  0  0
  8 20  1  0  0  0  0
  8 29  1  0  0  0  0
  9 10  2  0  0  0  0
  9 11  1  0  0  0  0
 11 12  1  0  0  0  0
 11 30  1  0  0  0  0
 12 13  1  0  0  0  0
 12 31  1  0  0  0  0
 12 32  1  0  0  0  0
 13 14  1  0  0  0  0
 13 33  1  0  0  0  0
 13 34  1  0  0  0  0
 14 19  1  0  0  0  0
 14 15  2  0  0  0  0
 15 16  1  0  0  0  0
 15 35  1  0  0  0  0
 16 17  2  0  0  0  0
 16 36  1  0  0  0  0
 17 18  1  0  0  0  0
 17 37  1  0  0  0  0
 18 19  2  0  0  0  0
 18 38  1  0  0  0  0
 20 21  1  0  0  0  0
 20 39  1  0  0  0  0
 20 40  1  0  0  0  0
M  END
> <s_m_source_file>
AV-unprocessed.smi

> <i_m_source_file_index>
3057

> <i_lp_mmshare_version>
43012

> <i_f3d_flags>
0

> <s_epik_input>
W0NIMl0xW0NIMl1DKD1PKU4oW0NAQF0xMltDSDNdKVtDQEhdKFtDSDJdUzIpQyg9TylbTkhdW0NIMl1bQ0gyXWMzW2NIXVtjSF1bY0hdW2NIXW4z

> <s_epik_cmdline>
J2VwaWtfcHl0aG9uJywgJy1waCcsICc3LjAnLCAnLXRuJywgJzgnLCAnLW1hJywgJzIwMCcsICctbWV0YWxfYmluZGluZycsICctaW1hZScsICc8aW5maWxlLm1hZT4nLCAnLW9tYWUnLCAnPG91dGZpbGUubWFlPic=

> <r_epik_Ionization_Penalty>
0.0249631

> <r_epik_Ionization_Penalty_Charging>
0

> <r_epik_Ionization_Penalty_Neutral>
0.0249631

> <r_epik_State_Penalty>
0.0202943

> <r_epik_Charging_Adjusted_Penalty>
0.0202943

> <i_epik_Tot_Q>
0

> <i_epik_Tot_abs_Q>
0

> <r_epik_Metal_State_Penalty>
0.0194661

> <b_epik_Metal_Only>
0

> <s_lp_Force_Field>
OPLS_2005

> <r_lp_Energy>
25.2027

> <b_lp_Chiralities_Consistent>
1

> <s_lp_Variant>
AV-unprocessed.smi:3057-2

> <Gold.Version>
5.8.1

> <Gold.Id.Protein>
6NUR|6NUR_protein|mol2

> <Gold.PLP.Fitness>
43.1590

> <Gold.PLP.PLP>
-36.2368

> <Gold.PLP.part.hbond>
-1.6028

> <Gold.PLP.part.metal>
0.0000

> <Gold.PLP.part.buried>
-5.7704

> <Gold.PLP.part.nonpolar>
-29.4987

> <Gold.PLP.part.repulsive>
0.0801

> <Gold.PLP.ligand.clash>
0.0000

> <Gold.PLP.ligand.torsion>
0.4633

> <Gold.PLP.Chemscore.Hbond>
1.7150

> <Gold.PLP.Chemscore.CHOScore>
0.8988

> <Gold.PLP.Chemscore.Metal>
0.0000

> <Gold.Chemscore.Hbonds>
donor molecule, donor type, donor heavy atom, donor atom, acceptor molecule, acceptor atom, score
      P1  H  6896  6907       L1     6  0.88
      P1  H  7997  8010       L1    10  1.00
      L1  C    18    38       P1  8028  0.65

> <Gold.PLP.Chemscore.Internal.Correction>
0.0074

> <Gold.Rescore>
     Score         DG    S(hbond)    S(metal)    S(lipo)     H(rot)  DE(clash)    DE(int)     intcor
     19.76     -20.42       1.78        0.00     110.37       1.53       0.21       0.45       ----

> <Gold.Chemscore.Fitness>
19.7636

> <Gold.Chemscore.DG>
-20.4223

> <Gold.Chemscore.ZeroCoef>
-5.4800

> <Gold.Chemscore.Hbond>
1.7832

> <Gold.Chemscore.Metal>
0.0000

> <Gold.Chemscore.Lipo>
110.3685

> <Gold.Chemscore.Internal_Hbond>
0.0000

> <Gold.Chemscore.DEClash>
0.2135

> <Gold.Chemscore.DEInternal>
0.4452

> <Gold.Chemscore.Rot>
1.5339

> <Gold.Chemscore.Internal.Correction>
   9.000000E+99

> <Gold.Chemscore.Hbonds>
donor molecule, donor type, donor heavy atom, donor atom, acceptor molecule, acceptor atom, score
      P1  H  6896  6907       L1     6  0.67
      P1  H  7997  8010       L1    10  0.93

> <Gold.Chemscore.Hbond.Weighted>
-5.9559

> <Gold.Chemscore.Metal.Weighted>
-0.0000

> <Gold.Chemscore.Lipo.Weighted>
-12.9131

> <Gold.Chemscore.Internal_Hbond.Weighted>
0.0000

> <Gold.Chemscore.DEClash.Weighted>
0.2135

> <Gold.Chemscore.DEInternal.Weighted>
0.4452

> <Gold.Chemscore.Rot.Weighted>
3.9267

> <Gold.Chemscore.Internal.Correction.Weighted>
   9.000000E+99

> <Gold.Protein.RotatedTorsions>
[ 6907 6896 6895 6894 ] final   33.08 input  -60.11 | X-H torsion
[ 7974 7965 7964 7962 ] final  -82.69 input  175.53 | X-H torsion
[ 8008 7997 7996 7995 ] final    4.24 input   59.86 | X-H torsion
[ 10167 10162 10161 10158 ] final  121.12 input  -65.29 | X-H torsion
[ 10718 10713 10712 10709 ] final  -30.57 input   66.30 | X-H torsion
[ 10763 10752 10751 10750 ] final  -48.80 input  -60.55 | X-H torsion
[ 11005 11000 10999 10996 ] final  110.79 input  -57.11 | X-H torsion

> <Gold.Protein.ActiveResidues>
 VAL166  LYS551  ARG553  GLY616  TRP617  ASP618  TYR619  PRO620  LYS621  CYS622 
 ASP623  PHE694  ASN695  SER759  ASP760  ASP761  ALA762  ILE779  LEU786  VAL792 
 PHE793  MET794  SER795  GLU796  ALA797  LYS798  CYS799  TRP800  GLU811  SER814 

> <Gold.Protein.RotatedAtoms>
  152.0835  134.9455  160.0572 H   0  0  0  0  0  0  0  0  0  0  0  0  # atno 6907 bound_to 6896
  152.0734  133.4113  159.4477 H   0  0  0  0  0  0  0  0  0  0  0  0  # atno 6908 bound_to 6896
  150.6836  134.2985  159.4740 H   0  0  0  0  0  0  0  0  0  0  0  0  # atno 6909 bound_to 6896
  145.5300  140.9522  143.1608 H   0  0  0  0  0  0  0  0  0  0  0  0  # atno 7974 bound_to 7965
  154.7134  140.2697  155.6607 H   0  0  0  0  0  0  0  0  0  0  0  0  # atno 8008 bound_to 7997
  156.2802  140.2748  156.1708 H   0  0  0  0  0  0  0  0  0  0  0  0  # atno 8009 bound_to 7997
  155.0603  140.0371  157.2564 H   0  0  0  0  0  0  0  0  0  0  0  0  # atno 8010 bound_to 7997
  139.5939  144.7035  151.3223 H   0  0  0  0  0  0  0  0  0  0  0  0  # atno 10167 bound_to 10162
  156.3981  130.4385  149.7343 H   0  0  0  0  0  0  0  0  0  0  0  0  # atno 10718 bound_to 10713
  154.0837  135.6587  153.4842 H   0  0  0  0  0  0  0  0  0  0  0  0  # atno 10763 bound_to 10752
  153.0346  135.5186  154.7448 H   0  0  0  0  0  0  0  0  0  0  0  0  # atno 10764 bound_to 10752
  154.6551  135.3007  154.9906 H   0  0  0  0  0  0  0  0  0  0  0  0  # atno 10765 bound_to 10752
  139.8889  134.9492  156.6333 H   0  0  0  0  0  0  0  0  0  0  0  0  # atno 11005 bound_to 11000
  144.7631  139.6910  143.7226 LP  0  0  0  0  0  0  0  0  0  0  0  0  # atno 17320 bound_to 7965
  146.2050  139.5369  142.9718 LP  0  0  0  0  0  0  0  0  0  0  0  0  # atno 17321 bound_to 7965
  140.7196  143.7173  150.7723 LP  0  0  0  0  0  0  0  0  0  0  0  0  # atno 17342 bound_to 10162
  140.0735  143.5038  152.2568 LP  0  0  0  0  0  0  0  0  0  0  0  0  # atno 17343 bound_to 10162
  156.4370  130.7842  151.2863 LP  0  0  0  0  0  0  0  0  0  0  0  0  # atno 17370 bound_to 10713
  157.7502  131.0136  150.3433 LP  0  0  0  0  0  0  0  0  0  0  0  0  # atno 17371 bound_to 10713
  140.7650  133.8786  155.8447 LP  0  0  0  0  0  0  0  0  0  0  0  0  # atno 17394 bound_to 11000
  140.9890  134.1304  157.4425 LP  0  0  0  0  0  0  0  0  0  0  0  0  # atno 17395 bound_to 11000

$$$$
