AV-unprocessed.smi:2451|AV-procd|sdf|9670|dock9
  -GOLD-   2272013313D 1   1.00000     0.00000
 Structure written by MMmdl.
 38 39  0  0  0  0  0  0  0  0  1 V2000
  152.9342  142.6774  162.5110 C   0  0  0  0  0  0  0  0  0  0  0  0
  152.1024  143.2163  161.3355 C   0  0  1  0  0  0  0  0  0  0  0  0
  152.2181  144.7504  161.2075 C   0  0  0  0  0  0  0  0  0  0  0  0
  151.3082  145.2993  160.0953 C   0  0  0  0  0  0  0  0  0  0  0  0
  151.5640  144.5979  158.7522 C   0  0  0  0  0  0  0  0  0  0  0  0
  151.4462  143.0709  158.9032 C   0  0  1  0  0  0  0  0  0  0  0  0
  151.6543  142.4092  157.6122 N   0  0  0  0  0  0  0  0  0  0  0  0
  151.1943  140.7564  157.4454 S   0  0  0  0  0  0  0  0  0  0  0  0
  152.0621  139.9626  158.3292 O   0  0  0  0  0  0  0  0  0  0  0  0
  149.7329  140.6886  157.5983 O   0  0  0  0  0  0  0  0  0  0  0  0
  151.6410  140.3904  155.6964 C   0  0  0  0  0  0  0  0  0  0  0  0
  151.3373  138.9517  155.3895 C   0  0  0  0  0  0  0  0  0  0  0  0
  150.3241  138.4219  154.5432 C   0  0  0  0  0  0  0  0  0  0  0  0
  150.5061  137.0720  154.6345 C   0  0  0  0  0  0  0  0  0  0  0  0
  151.5383  136.7872  155.4680 O   0  0  0  0  0  0  0  0  0  0  0  0
  152.0616  137.9938  155.9462 N   0  0  0  0  0  0  0  0  0  0  0  0
  152.3996  142.5075  159.9866 C   0  0  1  0  0  0  0  0  0  0  0  0
  153.8900  142.5738  159.5779 C   0  0  0  0  0  0  0  0  0  0  0  0
  153.9894  142.9331  162.4140 H   0  0  0  0  0  0  0  0  0  0  0  0
  152.8549  141.5926  162.5854 H   0  0  0  0  0  0  0  0  0  0  0  0
  152.5855  143.0964  163.4554 H   0  0  0  0  0  0  0  0  0  0  0  0
  151.0621  142.9973  161.5817 H   0  0  0  0  0  0  0  0  0  0  0  0
  151.9509  145.2217  162.1539 H   0  0  0  0  0  0  0  0  0  0  0  0
  153.2520  145.0355  161.0104 H   0  0  0  0  0  0  0  0  0  0  0  0
  150.2648  145.1606  160.3811 H   0  0  0  0  0  0  0  0  0  0  0  0
  151.4579  146.3739  159.9885 H   0  0  0  0  0  0  0  0  0  0  0  0
  150.8469  144.9560  158.0126 H   0  0  0  0  0  0  0  0  0  0  0  0
  152.5514  144.8678  158.3768 H   0  0  0  0  0  0  0  0  0  0  0  0
  150.4244  142.8586  159.2227 H   0  0  0  0  0  0  0  0  0  0  0  0
  151.2933  142.9749  156.8443 H   0  0  0  0  0  0  0  0  0  0  0  0
  151.0762  141.0631  155.0504 H   0  0  0  0  0  0  0  0  0  0  0  0
  152.7000  140.6071  155.5583 H   0  0  0  0  0  0  0  0  0  0  0  0
  149.5855  138.9496  153.9582 H   0  0  0  0  0  0  0  0  0  0  0  0
  150.0074  136.2239  154.1894 H   0  0  0  0  0  0  0  0  0  0  0  0
  152.1570  141.4511  160.1126 H   0  0  0  0  0  0  0  0  0  0  0  0
  154.2377  143.5977  159.4465 H   0  0  0  0  0  0  0  0  0  0  0  0
  154.0712  142.0451  158.6420 H   0  0  0  0  0  0  0  0  0  0  0  0
  154.5293  142.1018  160.3232 H   0  0  0  0  0  0  0  0  0  0  0  0
  1  2  1  0  0  0  0
  1 19  1  0  0  0  0
  1 20  1  0  0  0  0
  1 21  1  0  0  0  0
  2 17  1  0  0  0  0
  2  3  1  0  0  0  0
  2 22  1  0  0  0  0
  3  4  1  0  0  0  0
  3 23  1  0  0  0  0
  3 24  1  0  0  0  0
  4  5  1  0  0  0  0
  4 25  1  0  0  0  0
  4 26  1  0  0  0  0
  5  6  1  0  0  0  0
  5 27  1  0  0  0  0
  5 28  1  0  0  0  0
  6  7  1  0  0  0  0
  6 17  1  0  0  0  0
  6 29  1  0  0  0  0
  7  8  1  0  0  0  0
  7 30  1  0  0  0  0
  8  9  2  0  0  0  0
  8 10  2  0  0  0  0
  8 11  1  0  0  0  0
 11 12  1  0  0  0  0
 11 31  1  0  0  0  0
 11 32  1  0  0  0  0
 12 16  2  0  0  0  0
 12 13  1  0  0  0  0
 13 14  2  0  0  0  0
 13 33  1  0  0  0  0
 14 15  1  0  0  0  0
 14 34  1  0  0  0  0
 15 16  1  0  0  0  0
 17 18  1  0  0  0  0
 17 35  1  0  0  0  0
 18 36  1  0  0  0  0
 18 37  1  0  0  0  0
 18 38  1  0  0  0  0
M  END
> <s_m_source_file>
AV-unprocessed.smi

> <i_m_source_file_index>
2451

> <i_lp_mmshare_version>
43012

> <i_f3d_flags>
0

> <s_epik_input>
W0NIM11bQ0BASF0xW0NIMl1bQ0gyXVtDSDJdW0NASF0oW0NASF0xW0NIM10pW05IXVMoPU8pKD1PKVtDSDJdYzJbY0hdW2NIXW9uMg==

> <s_epik_cmdline>
J2VwaWtfcHl0aG9uJywgJy1waCcsICc3LjAnLCAnLXRuJywgJzgnLCAnLW1hJywgJzIwMCcsICctbWV0YWxfYmluZGluZycsICctaW1hZScsICc8aW5maWxlLm1hZT4nLCAnLW9tYWUnLCAnPG91dGZpbGUubWFlPic=

> <r_lp_tautomer_probability>
1

> <r_epik_Ionization_Penalty>
8.73668e-05

> <r_epik_Ionization_Penalty_Charging>
0

> <r_epik_Ionization_Penalty_Neutral>
8.73668e-05

> <r_epik_State_Penalty>
-0

> <r_epik_Charging_Adjusted_Penalty>
0

> <i_epik_Tot_Q>
0

> <i_epik_Tot_abs_Q>
0

> <r_epik_Metal_State_Penalty>
0.0716439

> <b_epik_Metal_Only>
0

> <s_lp_Force_Field>
OPLS_2005

> <r_lp_Energy>
8.89421

> <b_lp_Chiralities_Consistent>
1

> <s_lp_Variant>
AV-unprocessed.smi:2451-2

> <Gold.Version>
5.8.1

> <Gold.Id.Protein>
6NUR|6NUR_protein|mol2

> <Gold.PLP.Fitness>
44.2940

> <Gold.PLP.PLP>
-38.9564

> <Gold.PLP.part.hbond>
-1.0000

> <Gold.PLP.part.metal>
0.0000

> <Gold.PLP.part.buried>
-2.7094

> <Gold.PLP.part.nonpolar>
-35.4962

> <Gold.PLP.part.repulsive>
0.0971

> <Gold.PLP.ligand.clash>
0.0000

> <Gold.PLP.ligand.torsion>
0.2294

> <Gold.PLP.Chemscore.Hbond>
1.0000

> <Gold.PLP.Chemscore.CHOScore>
0.8843

> <Gold.PLP.Chemscore.Metal>
0.0000

> <Gold.Chemscore.Hbonds>
donor molecule, donor type, donor heavy atom, donor atom, acceptor molecule, acceptor atom, score
      P1  H 10752 10763       L1    15  1.00
      L1  C    14    34       P1  7948  0.88

> <Gold.PLP.Chemscore.Internal.Correction>
0.1434

> <Gold.Rescore>
     Score         DG    S(hbond)    S(metal)    S(lipo)     H(rot)  DE(clash)    DE(int)     intcor
     16.94     -17.41       0.77        0.00     116.19       1.66       0.06       0.41       ----

> <Gold.Chemscore.Fitness>
16.9382

> <Gold.Chemscore.DG>
-17.4097

> <Gold.Chemscore.ZeroCoef>
-5.4800

> <Gold.Chemscore.Hbond>
0.7730

> <Gold.Chemscore.Metal>
0.0000

> <Gold.Chemscore.Lipo>
116.1907

> <Gold.Chemscore.Internal_Hbond>
0.0000

> <Gold.Chemscore.DEClash>
0.0571

> <Gold.Chemscore.DEInternal>
0.4144

> <Gold.Chemscore.Rot>
1.6588

> <Gold.Chemscore.Internal.Correction>
   9.000000E+99

> <Gold.Chemscore.Hbonds>
donor molecule, donor type, donor heavy atom, donor atom, acceptor molecule, acceptor atom, score
      P1  H 10752 10763       L1    15  0.74

> <Gold.Chemscore.Hbond.Weighted>
-2.5820

> <Gold.Chemscore.Metal.Weighted>
-0.0000

> <Gold.Chemscore.Lipo.Weighted>
-13.5943

> <Gold.Chemscore.Internal_Hbond.Weighted>
0.0000

> <Gold.Chemscore.DEClash.Weighted>
0.0571

> <Gold.Chemscore.DEInternal.Weighted>
0.4144

> <Gold.Chemscore.Rot.Weighted>
4.2466

> <Gold.Chemscore.Internal.Correction.Weighted>
   9.000000E+99

> <Gold.Protein.RotatedTorsions>
[ 6907 6896 6895 6894 ] final  136.11 input  -60.11 | X-H torsion
[ 7974 7965 7964 7962 ] final   36.86 input  175.53 | X-H torsion
[ 8008 7997 7996 7995 ] final  -85.64 input   59.86 | X-H torsion
[ 10167 10162 10161 10158 ] final -129.38 input  -65.29 | X-H torsion
[ 10718 10713 10712 10709 ] final -141.11 input   66.30 | X-H torsion
[ 10763 10752 10751 10750 ] final   73.61 input  -60.55 | X-H torsion
[ 11005 11000 10999 10996 ] final  119.64 input  -57.11 | X-H torsion

> <Gold.Protein.ActiveResidues>
 VAL166  LYS551  ARG553  GLY616  TRP617  ASP618  TYR619  PRO620  LYS621  CYS622 
 ASP623  PHE694  ASN695  SER759  ASP760  ASP761  ALA762  ILE779  LEU786  VAL792 
 PHE793  MET794  SER795  GLU796  ALA797  LYS798  CYS799  TRP800  GLU811  SER814 

> <Gold.Protein.RotatedAtoms>
  152.2930  133.5580  159.5569 H   0  0  0  0  0  0  0  0  0  0  0  0  # atno 6907 bound_to 6896
  150.7243  134.0401  159.3772 H   0  0  0  0  0  0  0  0  0  0  0  0  # atno 6908 bound_to 6896
  151.8306  135.0623  160.0487 H   0  0  0  0  0  0  0  0  0  0  0  0  # atno 6909 bound_to 6896
  146.1180  139.5965  142.9308 H   0  0  0  0  0  0  0  0  0  0  0  0  # atno 7974 bound_to 7965
  154.6430  140.0589  156.9868 H   0  0  0  0  0  0  0  0  0  0  0  0  # atno 8008 bound_to 7997
  155.1487  140.3272  155.4417 H   0  0  0  0  0  0  0  0  0  0  0  0  # atno 8009 bound_to 7997
  156.2540  140.1951  156.6600 H   0  0  0  0  0  0  0  0  0  0  0  0  # atno 8010 bound_to 7997
  139.9403  143.6170  152.2505 H   0  0  0  0  0  0  0  0  0  0  0  0  # atno 10167 bound_to 10162
  156.3302  130.7582  151.1698 H   0  0  0  0  0  0  0  0  0  0  0  0  # atno 10718 bound_to 10713
  153.0533  135.5056  154.7920 H   0  0  0  0  0  0  0  0  0  0  0  0  # atno 10763 bound_to 10752
  154.6765  135.2961  154.9673 H   0  0  0  0  0  0  0  0  0  0  0  0  # atno 10764 bound_to 10752
  154.0474  135.6708  153.4849 H   0  0  0  0  0  0  0  0  0  0  0  0  # atno 10765 bound_to 10752
  139.9154  134.9630  156.7686 H   0  0  0  0  0  0  0  0  0  0  0  0  # atno 11005 bound_to 11000
  145.5525  141.0412  143.2270 LP  0  0  0  0  0  0  0  0  0  0  0  0  # atno 17320 bound_to 7965
  144.7571  139.7048  143.7249 LP  0  0  0  0  0  0  0  0  0  0  0  0  # atno 17321 bound_to 7965
  139.6710  144.7661  151.1784 LP  0  0  0  0  0  0  0  0  0  0  0  0  # atno 17342 bound_to 10162
  140.7613  143.5866  150.8840 LP  0  0  0  0  0  0  0  0  0  0  0  0  # atno 17343 bound_to 10162
  157.7429  131.0483  150.4990 LP  0  0  0  0  0  0  0  0  0  0  0  0  # atno 17370 bound_to 10713
  156.5155  130.4149  149.6278 LP  0  0  0  0  0  0  0  0  0  0  0  0  # atno 17371 bound_to 10713
  140.6639  133.9620  155.7820 LP  0  0  0  0  0  0  0  0  0  0  0  0  # atno 17394 bound_to 11000
  141.0624  134.0326  157.3640 LP  0  0  0  0  0  0  0  0  0  0  0  0  # atno 17395 bound_to 11000

$$$$
