AV-unprocessed.smi:104|AV-procd|sdf|998|dock9
  -GOLD-   2262017583D 1   1.00000     0.00000
 Structure written by MMmdl.
 47 49  0  0  0  0  0  0  0  0  1 V2000
  151.0036  141.9876  157.4671 C   0  0  0  0  0  0  0  0  0  0  0  0
  151.4136  140.5213  157.4989 C   0  0  0  0  0  0  0  0  0  0  0  0
  152.4742  140.1432  157.0027 O   0  0  0  0  0  0  0  0  0  0  0  0
  150.5002  139.7474  158.1117 O   0  0  0  0  0  0  0  0  0  0  0  0
  150.6387  138.3327  158.1327 C   0  0  0  0  0  0  0  0  0  0  0  0
  149.3806  137.6712  158.7235 C   0  0  1  0  0  0  0  0  0  0  0  0
  148.2008  138.1736  158.1206 O   0  0  0  0  0  0  0  0  0  0  0  0
  147.1596  137.3270  158.4843 C   0  0  1  0  0  0  0  0  0  0  0  0
  146.1262  137.3589  157.4083 N   0  0  0  0  0  0  0  0  0  0  0  0
  144.7912  137.6841  157.4880 C   0  0  0  0  0  0  0  0  0  0  0  0
  143.9569  138.1826  159.1259 Br  0  0  0  0  0  0  0  0  0  0  0  0
  144.0986  137.6255  156.3847 N   0  0  0  0  0  0  0  0  0  0  0  0
  145.0437  137.2178  155.4511 C   0  0  0  0  0  0  0  0  0  0  0  0
  145.0023  136.9449  154.0606 C   0  0  0  0  0  0  0  0  0  0  0  0
  143.8867  137.0561  153.3268 N   0  0  0  0  0  0  0  0  0  0  0  0
  146.1417  136.5522  153.4437 N   0  0  0  0  0  0  0  0  0  0  0  0
  147.2688  136.4330  154.1531 C   0  0  0  0  0  0  0  0  0  0  0  0
  147.4631  136.6543  155.4557 N   0  0  0  0  0  0  0  0  0  0  0  0
  146.3132  137.0496  156.0769 C   0  0  0  0  0  0  0  0  0  0  0  0
  147.7444  135.9125  158.6281 C   0  0  2  0  0  0  0  0  0  0  0  0
  147.3891  135.3381  159.8783 O   0  0  0  0  0  0  0  0  0  0  0  0
  147.4866  136.0653  161.0051 C   0  0  0  0  0  0  0  0  0  0  0  0
  146.9087  135.3425  162.2142 C   0  0  0  0  0  0  0  0  0  0  0  0
  147.9851  137.1866  161.1036 O   0  0  0  0  0  0  0  0  0  0  0  0
  149.2524  136.1501  158.5695 C   0  0  1  0  0  0  0  0  0  0  0  0
  149.7608  135.7102  157.3153 O   0  0  0  0  0  0  0  0  0  0  0  0
  150.1085  134.4249  157.1328 C   0  0  0  0  0  0  0  0  0  0  0  0
  150.6295  134.1621  155.7267 C   0  0  0  0  0  0  0  0  0  0  0  0
  150.0295  133.5268  157.9709 O   0  0  0  0  0  0  0  0  0  0  0  0
  151.2928  142.4795  158.3955 H   0  0  0  0  0  0  0  0  0  0  0  0
  149.9243  142.0818  157.3455 H   0  0  0  0  0  0  0  0  0  0  0  0
  151.4890  142.5012  156.6368 H   0  0  0  0  0  0  0  0  0  0  0  0
  150.7415  138.0170  157.0945 H   0  0  0  0  0  0  0  0  0  0  0  0
  151.5491  138.0053  158.6365 H   0  0  0  0  0  0  0  0  0  0  0  0
  149.3144  137.9250  159.7835 H   0  0  0  0  0  0  0  0  0  0  0  0
  146.6744  137.6963  159.3877 H   0  0  0  0  0  0  0  0  0  0  0  0
  143.0240  137.3463  153.7644 H   0  0  0  0  0  0  0  0  0  0  0  0
  143.9099  136.8480  152.3390 H   0  0  0  0  0  0  0  0  0  0  0  0
  148.1393  136.1149  153.5986 H   0  0  0  0  0  0  0  0  0  0  0  0
  147.4228  135.2784  157.7998 H   0  0  0  0  0  0  0  0  0  0  0  0
  147.5046  134.4598  162.4464 H   0  0  0  0  0  0  0  0  0  0  0  0
  145.8841  135.0283  162.0151 H   0  0  0  0  0  0  0  0  0  0  0  0
  146.9061  135.9968  163.0861 H   0  0  0  0  0  0  0  0  0  0  0  0
  149.7834  135.6449  159.3783 H   0  0  0  0  0  0  0  0  0  0  0  0
  151.5529  134.7160  155.5572 H   0  0  0  0  0  0  0  0  0  0  0  0
  149.8942  134.4774  154.9862 H   0  0  0  0  0  0  0  0  0  0  0  0
  150.8312  133.1002  155.5841 H   0  0  0  0  0  0  0  0  0  0  0  0
  1  2  1  0  0  0  0
  1 30  1  0  0  0  0
  1 31  1  0  0  0  0
  1 32  1  0  0  0  0
  2  3  2  0  0  0  0
  2  4  1  0  0  0  0
  4  5  1  0  0  0  0
  5  6  1  0  0  0  0
  5 33  1  0  0  0  0
  5 34  1  0  0  0  0
  6 25  1  0  0  0  0
  6  7  1  0  0  0  0
  6 35  1  0  0  0  0
  7  8  1  0  0  0  0
  8  9  1  0  0  0  0
  8 20  1  0  0  0  0
  8 36  1  0  0  0  0
  9 19  1  0  0  0  0
  9 10  1  0  0  0  0
 10 11  1  0  0  0  0
 10 12  2  0  0  0  0
 12 13  1  0  0  0  0
 13 19  2  0  0  0  0
 13 14  1  0  0  0  0
 14 15  1  0  0  0  0
 14 16  2  0  0  0  0
 15 37  1  0  0  0  0
 15 38  1  0  0  0  0
 16 17  1  0  0  0  0
 17 18  2  0  0  0  0
 17 39  1  0  0  0  0
 18 19  1  0  0  0  0
 20 21  1  0  0  0  0
 20 25  1  0  0  0  0
 20 40  1  0  0  0  0
 21 22  1  0  0  0  0
 22 23  1  0  0  0  0
 22 24  2  0  0  0  0
 23 41  1  0  0  0  0
 23 42  1  0  0  0  0
 23 43  1  0  0  0  0
 25 26  1  0  0  0  0
 25 44  1  0  0  0  0
 26 27  1  0  0  0  0
 27 28  1  0  0  0  0
 27 29  2  0  0  0  0
 28 45  1  0  0  0  0
 28 46  1  0  0  0  0
 28 47  1  0  0  0  0
M  END
> <s_m_source_file>
AV-unprocessed.smi

> <i_m_source_file_index>
104

> <i_lp_mmshare_version>
43012

> <i_f3d_flags>
0

> <s_epik_input>
W0NIM11DKD1PKU9bQ0gyXVtDQEBIXTFPW0NASF0oW0NAQEhdKE9DKD1PKVtDSDNdKVtDQEhdMU9DKD1PKVtDSDNdKW4oYyhCciluMiljKGMyMyluW2NIXW5jM1tOSDJd

> <s_epik_cmdline>
J2VwaWtfcHl0aG9uJywgJy1waCcsICc3LjAnLCAnLXRuJywgJzgnLCAnLW1hJywgJzIwMCcsICctbWV0YWxfYmluZGluZycsICctaW1hZScsICc8aW5maWxlLm1hZT4nLCAnLW9tYWUnLCAnPG91dGZpbGUubWFlPic=

> <r_lp_tautomer_probability>
1

> <r_epik_Ionization_Penalty>
7.36622e-05

> <r_epik_Ionization_Penalty_Charging>
0

> <r_epik_Ionization_Penalty_Neutral>
7.36622e-05

> <r_epik_State_Penalty>
-0

> <r_epik_Charging_Adjusted_Penalty>
0

> <i_epik_Tot_Q>
0

> <i_epik_Tot_abs_Q>
0

> <r_epik_Metal_State_Penalty>
-0

> <b_epik_Metal_Only>
0

> <s_epik_Chemistry_Notes>
This compound has an ester and may undergo hydrolysis at high or low pH. This compound contains an acetal/aminal-like group ( X-CH(R)-Y where X, Y are N, S, or O) that may be acid/base labile, releasing an aldehyde.

> <s_lp_Force_Field>
OPLS_2005

> <r_lp_Energy>
14.1863

> <b_lp_Chiralities_Consistent>
1

> <s_lp_Variant>
AV-unprocessed.smi:104-6

> <Gold.Version>
5.8.1

> <Gold.Id.Protein>
6NUR|6NUR_protein|mol2

> <Gold.PLP.Fitness>
38.9533

> <Gold.PLP.PLP>
-25.8062

> <Gold.PLP.part.hbond>
-5.6736

> <Gold.PLP.part.metal>
0.0000

> <Gold.PLP.part.buried>
-4.0622

> <Gold.PLP.part.nonpolar>
-15.9665

> <Gold.PLP.part.repulsive>
0.1631

> <Gold.PLP.ligand.clash>
0.0037

> <Gold.PLP.ligand.torsion>
0.4818

> <Gold.PLP.Chemscore.Hbond>
3.6552

> <Gold.PLP.Chemscore.CHOScore>
1.0000

> <Gold.PLP.Chemscore.Metal>
0.0000

> <Gold.Chemscore.Hbonds>
donor molecule, donor type, donor heavy atom, donor atom, acceptor molecule, acceptor atom, score
      P1  H  6896  6909       L1    29  0.99
      P1  H  6931  6943       L1    24  0.99
      P1  H  6934  6947       L1    24  0.72
      P1  H  7997  8008       L1     3  1.00
      L1  C    17    39       P1  7948  0.72

> <Gold.PLP.Chemscore.Internal.Correction>
0.1488

> <Gold.Rescore>
     Score         DG    S(hbond)    S(metal)    S(lipo)     H(rot)  DE(clash)    DE(int)     intcor
     10.01     -12.93       4.21        0.00      37.77       4.31       0.06       2.86       ----

> <Gold.Chemscore.Fitness>
10.0102

> <Gold.Chemscore.DG>
-12.9308

> <Gold.Chemscore.ZeroCoef>
-5.4800

> <Gold.Chemscore.Hbond>
4.2088

> <Gold.Chemscore.Metal>
0.0000

> <Gold.Chemscore.Lipo>
37.7720

> <Gold.Chemscore.Internal_Hbond>
0.0000

> <Gold.Chemscore.DEClash>
0.0589

> <Gold.Chemscore.DEInternal>
2.8618

> <Gold.Chemscore.Rot>
4.3070

> <Gold.Chemscore.Internal.Correction>
   9.000000E+99

> <Gold.Chemscore.Hbonds>
donor molecule, donor type, donor heavy atom, donor atom, acceptor molecule, acceptor atom, score
      P1  H  6896  6909       L1    29  0.87
      P1  H  6931  6943       L1    24  0.93
      P1  H  6934  6947       L1    24  0.69
      P1  H  7997  8008       L1     3  0.97

> <Gold.Chemscore.Hbond.Weighted>
-14.0573

> <Gold.Chemscore.Metal.Weighted>
-0.0000

> <Gold.Chemscore.Lipo.Weighted>
-4.4193

> <Gold.Chemscore.Internal_Hbond.Weighted>
0.0000

> <Gold.Chemscore.DEClash.Weighted>
0.0589

> <Gold.Chemscore.DEInternal.Weighted>
2.8618

> <Gold.Chemscore.Rot.Weighted>
11.0259

> <Gold.Chemscore.Internal.Correction.Weighted>
   9.000000E+99

> <Gold.Protein.RotatedTorsions>
[ 6907 6896 6895 6894 ] final   -9.43 input  -60.11 | X-H torsion
[ 7974 7965 7964 7962 ] final  143.19 input  175.53 | X-H torsion
[ 8008 7997 7996 7995 ] final  -53.14 input   59.86 | X-H torsion
[ 10167 10162 10161 10158 ] final  144.37 input  -65.29 | X-H torsion
[ 10718 10713 10712 10709 ] final   80.61 input   66.30 | X-H torsion
[ 10763 10752 10751 10750 ] final  143.12 input  -60.55 | X-H torsion
[ 11005 11000 10999 10996 ] final   14.79 input  -57.11 | X-H torsion

> <Gold.Protein.ActiveResidues>
 VAL166  LYS551  ARG553  GLY616  TRP617  ASP618  TYR619  PRO620  LYS621  CYS622 
 ASP623  PHE694  ASN695  SER759  ASP760  ASP761  ALA762  ILE779  LEU786  VAL792 
 PHE793  MET794  SER795  GLU796  ALA797  LYS798  CYS799  TRP800  GLU811  SER814 

> <Gold.Protein.RotatedAtoms>
  151.4179  135.0994  159.9604 H   0  0  0  0  0  0  0  0  0  0  0  0  # atno 6907 bound_to 6896
  152.4998  133.8735  159.7321 H   0  0  0  0  0  0  0  0  0  0  0  0  # atno 6908 bound_to 6896
  150.9244  133.6783  159.2852 H   0  0  0  0  0  0  0  0  0  0  0  0  # atno 6909 bound_to 6896
  144.8942  139.5514  143.5784 H   0  0  0  0  0  0  0  0  0  0  0  0  # atno 7974 bound_to 7965
  154.4125  140.1207  156.5105 H   0  0  0  0  0  0  0  0  0  0  0  0  # atno 8008 bound_to 7997
  155.6803  140.3496  155.4833 H   0  0  0  0  0  0  0  0  0  0  0  0  # atno 8009 bound_to 7997
  155.9557  140.1113  157.0929 H   0  0  0  0  0  0  0  0  0  0  0  0  # atno 8010 bound_to 7997
  139.4948  144.5977  151.6548 H   0  0  0  0  0  0  0  0  0  0  0  0  # atno 10167 bound_to 10162
  157.6811  130.9967  150.2105 H   0  0  0  0  0  0  0  0  0  0  0  0  # atno 10718 bound_to 10713
  153.9670  135.2954  155.3430 H   0  0  0  0  0  0  0  0  0  0  0  0  # atno 10763 bound_to 10752
  154.7343  135.5053  153.9019 H   0  0  0  0  0  0  0  0  0  0  0  0  # atno 10764 bound_to 10752
  153.0918  135.6710  153.9950 H   0  0  0  0  0  0  0  0  0  0  0  0  # atno 10765 bound_to 10752
  140.4656  134.1083  155.7723 H   0  0  0  0  0  0  0  0  0  0  0  0  # atno 11005 bound_to 11000
  146.3072  139.7619  142.9047 LP  0  0  0  0  0  0  0  0  0  0  0  0  # atno 17320 bound_to 7965
  145.3729  141.0345  143.3221 LP  0  0  0  0  0  0  0  0  0  0  0  0  # atno 17321 bound_to 7965
  140.5619  144.0255  150.6173 LP  0  0  0  0  0  0  0  0  0  0  0  0  # atno 17342 bound_to 10162
  140.3343  143.3058  152.0654 LP  0  0  0  0  0  0  0  0  0  0  0  0  # atno 17343 bound_to 10162
  156.2777  130.3729  149.7967 LP  0  0  0  0  0  0  0  0  0  0  0  0  # atno 17370 bound_to 10713
  156.5665  130.8406  151.3344 LP  0  0  0  0  0  0  0  0  0  0  0  0  # atno 17371 bound_to 10713
  141.1601  133.8809  157.1871 LP  0  0  0  0  0  0  0  0  0  0  0  0  # atno 17394 bound_to 11000
  139.9918  135.0062  156.9991 LP  0  0  0  0  0  0  0  0  0  0  0  0  # atno 17395 bound_to 11000

$$$$
