AV-unprocessed.smi:297|AV-procd|sdf|2259|dock3
  -GOLD-   2262022143D 1   1.00000     0.00000
 Structure written by MMmdl.
 29 30  0  0  0  0  0  0  0  0  1 V2000
  155.1254  138.6602  160.7340 N   0  0  0  0  0  0  0  0  0  0  0  0
  154.4067  139.4303  160.2547 C   0  0  0  0  0  0  0  0  0  0  0  0
  153.5030  140.3986  159.6526 C   0  0  0  0  0  0  0  0  0  0  0  0
  153.0596  140.1181  158.4070 N   0  0  0  0  0  0  0  0  0  0  0  0
  152.2127  140.9844  157.8021 C   0  0  0  0  0  0  0  0  0  0  0  0
  151.7556  140.6787  156.5126 N   0  0  0  0  0  0  0  0  0  0  0  0
  152.0016  139.2975  156.1196 C   0  0  0  0  0  0  0  0  0  0  0  0
  151.5828  139.0886  154.6556 C   0  0  0  0  0  0  0  0  0  0  0  0
  150.2168  139.4587  154.4948 O   0  0  0  0  0  0  0  0  0  0  0  0
  149.9810  140.8334  154.8069 C   0  0  1  0  0  0  0  0  0  0  0  0
  148.5053  141.1625  154.5361 C   0  0  0  0  0  0  0  0  0  0  0  0
  148.0601  141.0075  153.2858 N   0  0  0  0  0  0  0  0  0  0  0  0
  147.7739  141.5694  155.4371 O   0  0  0  0  0  0  0  0  0  0  0  0
  150.3767  141.0907  156.2787 C   0  0  0  0  0  0  0  0  0  0  0  0
  151.7740  142.1720  158.4210 C   0  0  0  0  0  0  0  0  0  0  0  0
  152.2362  142.4670  159.7169 C   0  0  0  0  0  0  0  0  0  0  0  0
  153.1168  141.5692  160.3512 C   0  0  0  0  0  0  0  0  0  0  0  0
  153.6878  141.9257  161.9458 Cl  0  0  0  0  0  0  0  0  0  0  0  0
  153.0588  139.0603  156.2449 H   0  0  0  0  0  0  0  0  0  0  0  0
  151.4388  138.6215  156.7650 H   0  0  0  0  0  0  0  0  0  0  0  0
  152.2117  139.6732  153.9821 H   0  0  0  0  0  0  0  0  0  0  0  0
  151.7026  138.0420  154.3762 H   0  0  0  0  0  0  0  0  0  0  0  0
  150.5843  141.4587  154.1464 H   0  0  0  0  0  0  0  0  0  0  0  0
  147.0972  141.2190  153.0671 H   0  0  0  0  0  0  0  0  0  0  0  0
  148.6890  140.6851  152.5648 H   0  0  0  0  0  0  0  0  0  0  0  0
  149.7112  140.5418  156.9474 H   0  0  0  0  0  0  0  0  0  0  0  0
  150.2736  142.1501  156.5190 H   0  0  0  0  0  0  0  0  0  0  0  0
  151.0966  142.8445  157.9150 H   0  0  0  0  0  0  0  0  0  0  0  0
  151.9183  143.3701  160.2169 H   0  0  0  0  0  0  0  0  0  0  0  0
  1  2  3  0  0  0  0
  2  3  1  0  0  0  0
  3 17  1  0  0  0  0
  3  4  2  0  0  0  0
  4  5  1  0  0  0  0
  5  6  1  0  0  0  0
  5 15  2  0  0  0  0
  6 14  1  0  0  0  0
  6  7  1  0  0  0  0
  7  8  1  0  0  0  0
  7 19  1  0  0  0  0
  7 20  1  0  0  0  0
  8  9  1  0  0  0  0
  8 21  1  0  0  0  0
  8 22  1  0  0  0  0
  9 10  1  0  0  0  0
 10 11  1  0  0  0  0
 10 14  1  0  0  0  0
 10 23  1  0  0  0  0
 11 12  1  0  0  0  0
 11 13  2  0  0  0  0
 12 24  1  0  0  0  0
 12 25  1  0  0  0  0
 14 26  1  0  0  0  0
 14 27  1  0  0  0  0
 15 16  1  0  0  0  0
 15 28  1  0  0  0  0
 16 17  2  0  0  0  0
 16 29  1  0  0  0  0
 17 18  1  0  0  0  0
M  END
> <s_m_source_file>
AV-unprocessed.smi

> <i_m_source_file_index>
297

> <i_lp_mmshare_version>
43012

> <i_f3d_flags>
0

> <s_epik_input>
TiNDYzFuYyhbY0hdW2NIXWMxQ2wpTjJbQ0gyXVtDSDJdT1tDQEhdKFtDSDJdMilDKD1PKVtOSDJd

> <s_epik_cmdline>
J2VwaWtfcHl0aG9uJywgJy1waCcsICc3LjAnLCAnLXRuJywgJzgnLCAnLW1hJywgJzIwMCcsICctbWV0YWxfYmluZGluZycsICctaW1hZScsICc8aW5maWxlLm1hZT4nLCAnLW9tYWUnLCAnPG91dGZpbGUubWFlPic=

> <r_lp_tautomer_probability>
1

> <r_epik_Ionization_Penalty>
8.82403e-08

> <r_epik_Ionization_Penalty_Charging>
0

> <r_epik_Ionization_Penalty_Neutral>
8.82403e-08

> <r_epik_State_Penalty>
-0

> <r_epik_Charging_Adjusted_Penalty>
0

> <i_epik_Tot_Q>
0

> <i_epik_Tot_abs_Q>
0

> <r_epik_Metal_State_Penalty>
-0

> <b_epik_Metal_Only>
0

> <s_lp_Force_Field>
OPLS_2005

> <r_lp_Energy>
18.8034

> <b_lp_Chiralities_Consistent>
1

> <s_lp_Variant>
AV-unprocessed.smi:297-1

> <Gold.Version>
5.8.1

> <Gold.Id.Protein>
6NUR|6NUR_protein|mol2

> <Gold.PLP.Fitness>
38.4362

> <Gold.PLP.PLP>
-33.4243

> <Gold.PLP.part.hbond>
-2.0229

> <Gold.PLP.part.metal>
0.0000

> <Gold.PLP.part.buried>
-1.8557

> <Gold.PLP.part.nonpolar>
-27.4607

> <Gold.PLP.part.repulsive>
0.3471

> <Gold.PLP.ligand.clash>
0.0000

> <Gold.PLP.ligand.torsion>
0.5208

> <Gold.PLP.Chemscore.Hbond>
1.9833

> <Gold.PLP.Chemscore.CHOScore>
0.0000

> <Gold.PLP.Chemscore.Metal>
0.0000

> <Gold.Chemscore.Hbonds>
donor molecule, donor type, donor heavy atom, donor atom, acceptor molecule, acceptor atom, score
      L1  H    12    25       P1  7957  1.00
      P1  H  7997  8010       L1     4  0.93

> <Gold.PLP.Chemscore.Internal.Correction>
0.1034

> <Gold.Rescore>
     Score         DG    S(hbond)    S(metal)    S(lipo)     H(rot)  DE(clash)    DE(int)     intcor
     15.11     -15.64       1.52        0.00      76.18       1.50       0.03       0.50       ----

> <Gold.Chemscore.Fitness>
15.1074

> <Gold.Chemscore.DG>
-15.6424

> <Gold.Chemscore.ZeroCoef>
-5.4800

> <Gold.Chemscore.Hbond>
1.5242

> <Gold.Chemscore.Metal>
0.0000

> <Gold.Chemscore.Lipo>
76.1813

> <Gold.Chemscore.Internal_Hbond>
0.0000

> <Gold.Chemscore.DEClash>
0.0321

> <Gold.Chemscore.DEInternal>
0.5029

> <Gold.Chemscore.Rot>
1.5006

> <Gold.Chemscore.Internal.Correction>
   9.000000E+99

> <Gold.Chemscore.Hbonds>
donor molecule, donor type, donor heavy atom, donor atom, acceptor molecule, acceptor atom, score
      L1  H    12    25       P1  7957  1.00
      P1  H  7997  8010       L1     4  0.20

> <Gold.Chemscore.Hbond.Weighted>
-5.0908

> <Gold.Chemscore.Metal.Weighted>
-0.0000

> <Gold.Chemscore.Lipo.Weighted>
-8.9132

> <Gold.Chemscore.Internal_Hbond.Weighted>
0.0000

> <Gold.Chemscore.DEClash.Weighted>
0.0321

> <Gold.Chemscore.DEInternal.Weighted>
0.5029

> <Gold.Chemscore.Rot.Weighted>
3.8416

> <Gold.Chemscore.Internal.Correction.Weighted>
   9.000000E+99

> <Gold.Protein.RotatedTorsions>
[ 6907 6896 6895 6894 ] final -152.47 input  -60.11 | X-H torsion
[ 7974 7965 7964 7962 ] final   70.15 input  175.53 | X-H torsion
[ 8008 7997 7996 7995 ] final   33.01 input   59.86 | X-H torsion
[ 10167 10162 10161 10158 ] final  -44.04 input  -65.29 | X-H torsion
[ 10718 10713 10712 10709 ] final   56.23 input   66.30 | X-H torsion
[ 10763 10752 10751 10750 ] final -169.81 input  -60.55 | X-H torsion
[ 11005 11000 10999 10996 ] final -100.37 input  -57.11 | X-H torsion

> <Gold.Protein.ActiveResidues>
 VAL166  LYS551  ARG553  GLY616  TRP617  ASP618  TYR619  PRO620  LYS621  CYS622 
 ASP623  PHE694  ASN695  SER759  ASP760  ASP761  ALA762  ILE779  LEU786  VAL792 
 PHE793  MET794  SER795  GLU796  ALA797  LYS798  CYS799  TRP800  GLU811  SER814 

> <Gold.Protein.RotatedAtoms>
  151.2282  133.4464  159.2602 H   0  0  0  0  0  0  0  0  0  0  0  0  # atno 6907 bound_to 6896
  151.0819  134.9864  159.8370 H   0  0  0  0  0  0  0  0  0  0  0  0  # atno 6908 bound_to 6896
  152.5425  134.2221  159.8844 H   0  0  0  0  0  0  0  0  0  0  0  0  # atno 6909 bound_to 6896
  145.7817  139.2891  143.1262 H   0  0  0  0  0  0  0  0  0  0  0  0  # atno 7974 bound_to 7965
  155.1317  140.3258  155.4472 H   0  0  0  0  0  0  0  0  0  0  0  0  # atno 8008 bound_to 7997
  156.2632  140.2009  156.6385 H   0  0  0  0  0  0  0  0  0  0  0  0  # atno 8009 bound_to 7997
  154.6607  140.0547  157.0046 H   0  0  0  0  0  0  0  0  0  0  0  0  # atno 8010 bound_to 7997
  140.6911  143.2951  151.3439 H   0  0  0  0  0  0  0  0  0  0  0  0  # atno 10167 bound_to 10162
  157.5413  130.8699  149.8826 H   0  0  0  0  0  0  0  0  0  0  0  0  # atno 10718 bound_to 10713
  154.6483  135.2908  155.0019 H   0  0  0  0  0  0  0  0  0  0  0  0  # atno 10763 bound_to 10752
  154.1121  135.6561  153.4891 H   0  0  0  0  0  0  0  0  0  0  0  0  # atno 10764 bound_to 10752
  153.0362  135.5267  154.7379 H   0  0  0  0  0  0  0  0  0  0  0  0  # atno 10765 bound_to 10752
  141.1273  133.8394  157.1094 H   0  0  0  0  0  0  0  0  0  0  0  0  # atno 11005 bound_to 11000
  146.0067  140.8472  142.9991 LP  0  0  0  0  0  0  0  0  0  0  0  0  # atno 17320 bound_to 7965
  144.6795  140.2431  143.7341 LP  0  0  0  0  0  0  0  0  0  0  0  0  # atno 17321 bound_to 7965
  139.6316  144.0710  152.2481 LP  0  0  0  0  0  0  0  0  0  0  0  0  # atno 17342 bound_to 10162
  140.0186  144.6170  150.7585 LP  0  0  0  0  0  0  0  0  0  0  0  0  # atno 17343 bound_to 10162
  156.0499  130.3720  150.1227 LP  0  0  0  0  0  0  0  0  0  0  0  0  # atno 17370 bound_to 10713
  156.9406  130.9743  151.3517 LP  0  0  0  0  0  0  0  0  0  0  0  0  # atno 17371 bound_to 10713
  140.0284  134.9913  157.0732 LP  0  0  0  0  0  0  0  0  0  0  0  0  # atno 17394 bound_to 11000
  140.4325  134.1766  155.7169 LP  0  0  0  0  0  0  0  0  0  0  0  0  # atno 17395 bound_to 11000

$$$$
