AV-unprocessed.smi:3240|AV-procd|sdf|12381|dock4
  -GOLD-   2272018243D 1   1.00000     0.00000
 Structure written by MMmdl.
 44 45  0  0  0  0  0  0  0  0  2 V2000
  144.2509  132.3565  148.7932 C   0  0  0  0  0  0  0  0  0  0  0  0
  144.7442  133.0682  150.0198 C   0  0  0  0  0  0  0  0  0  0  0  0
  145.9893  132.8992  150.6897 C   0  0  0  0  0  0  0  0  0  0  0  0
  146.1131  133.6833  151.7481 N   0  0  0  0  0  0  0  0  0  0  0  0
  144.9594  134.3830  151.7882 N   0  0  0  0  0  0  0  0  0  0  0  0
  144.7341  135.3504  152.8485 C   0  0  0  0  0  0  0  0  0  0  0  0
  145.8316  135.3217  153.9320 C   0  0  2  0  0  0  0  0  0  0  0  0
  145.2115  135.4392  155.3343 C   0  0  0  0  0  0  0  0  0  0  0  0
  146.8139  136.4028  153.6885 N   0  3  0  0  0  0  0  0  0  0  0  0
  146.2574  137.7736  153.6528 C   0  0  0  0  0  0  0  0  0  0  0  0
  147.3469  138.8400  153.4036 C   0  0  0  0  0  0  0  0  0  0  0  0
  147.7446  138.7229  152.0487 O   0  0  0  0  0  0  0  0  0  0  0  0
  146.8259  140.2754  153.6657 C   0  0  0  0  0  0  0  0  0  0  0  0
  147.9301  141.3433  153.5640 C   0  0  0  0  0  0  0  0  0  0  0  0
  149.1112  141.0179  154.4885 C   0  0  0  0  0  0  0  0  0  0  0  0
  149.6733  139.6222  154.1865 C   0  0  0  0  0  0  0  0  0  0  0  0
  148.5791  138.5448  154.2921 C   0  0  0  0  0  0  0  0  0  0  0  0
  144.1112  134.0246  150.7620 C   0  0  0  0  0  0  0  0  0  0  0  0
  144.9787  131.6341  148.4227 H   0  0  0  0  0  0  0  0  0  0  0  0
  144.0468  133.0528  147.9796 H   0  0  0  0  0  0  0  0  0  0  0  0
  143.3277  131.8107  148.9886 H   0  0  0  0  0  0  0  0  0  0  0  0
  146.8013  132.2320  150.4402 H   0  0  0  0  0  0  0  0  0  0  0  0
  144.6652  136.3442  152.4035 H   0  0  0  0  0  0  0  0  0  0  0  0
  143.7597  135.1399  153.2915 H   0  0  0  0  0  0  0  0  0  0  0  0
  146.3512  134.3644  153.8672 H   0  0  0  0  0  0  0  0  0  0  0  0
  144.4685  134.6579  155.4973 H   0  0  0  0  0  0  0  0  0  0  0  0
  144.7150  136.4007  155.4702 H   0  0  0  0  0  0  0  0  0  0  0  0
  145.9595  135.3352  156.1200 H   0  0  0  0  0  0  0  0  0  0  0  0
  147.4822  136.3816  154.4461 H   0  0  0  0  0  0  0  0  0  0  0  0
  145.5008  137.8355  152.8706 H   0  0  0  0  0  0  0  0  0  0  0  0
  145.7511  137.9751  154.5984 H   0  0  0  0  0  0  0  0  0  0  0  0
  148.3585  138.0072  151.9768 H   0  0  0  0  0  0  0  0  0  0  0  0
  146.0228  140.5259  152.9717 H   0  0  0  0  0  0  0  0  0  0  0  0
  146.3879  140.3212  154.6638 H   0  0  0  0  0  0  0  0  0  0  0  0
  148.2817  141.4164  152.5341 H   0  0  0  0  0  0  0  0  0  0  0  0
  147.5217  142.3220  153.8176 H   0  0  0  0  0  0  0  0  0  0  0  0
  149.8942  141.7679  154.3714 H   0  0  0  0  0  0  0  0  0  0  0  0
  148.7882  141.0673  155.5291 H   0  0  0  0  0  0  0  0  0  0  0  0
  150.1111  139.6108  153.1877 H   0  0  0  0  0  0  0  0  0  0  0  0
  150.4845  139.3931  154.8783 H   0  0  0  0  0  0  0  0  0  0  0  0
  148.2618  138.4776  155.3338 H   0  0  0  0  0  0  0  0  0  0  0  0
  149.0005  137.5697  154.0438 H   0  0  0  0  0  0  0  0  0  0  0  0
  143.1368  134.4756  150.6435 H   0  0  0  0  0  0  0  0  0  0  0  0
  147.3039  136.2187  152.8251 H   0  0  0  0  0  0  0  0  0  0  0  0
  1  2  1  0  0  0  0
  1 19  1  0  0  0  0
  1 20  1  0  0  0  0
  1 21  1  0  0  0  0
  2 18  2  0  0  0  0
  2  3  1  0  0  0  0
  3  4  2  0  0  0  0
  3 22  1  0  0  0  0
  4  5  1  0  0  0  0
  5  6  1  0  0  0  0
  5 18  1  0  0  0  0
  6  7  1  0  0  0  0
  6 23  1  0  0  0  0
  6 24  1  0  0  0  0
  7  8  1  0  0  0  0
  7  9  1  0  0  0  0
  7 25  1  0  0  0  0
  8 26  1  0  0  0  0
  8 27  1  0  0  0  0
  8 28  1  0  0  0  0
  9 10  1  0  0  0  0
  9 29  1  0  0  0  0
  9 44  1  0  0  0  0
 10 11  1  0  0  0  0
 10 30  1  0  0  0  0
 10 31  1  0  0  0  0
 11 17  1  0  0  0  0
 11 12  1  0  0  0  0
 11 13  1  0  0  0  0
 12 32  1  0  0  0  0
 13 14  1  0  0  0  0
 13 33  1  0  0  0  0
 13 34  1  0  0  0  0
 14 15  1  0  0  0  0
 14 35  1  0  0  0  0
 14 36  1  0  0  0  0
 15 16  1  0  0  0  0
 15 37  1  0  0  0  0
 15 38  1  0  0  0  0
 16 17  1  0  0  0  0
 16 39  1  0  0  0  0
 16 40  1  0  0  0  0
 17 41  1  0  0  0  0
 17 42  1  0  0  0  0
 18 43  1  0  0  0  0
M  CHG  1   9   1
M  END
> <s_m_source_file>
AV-unprocessed.smi

> <i_m_source_file_index>
3240

> <i_lp_mmshare_version>
43012

> <i_f3d_flags>
0

> <s_epik_input>
W0NIM11jMVtjSF1ubihbY0hdMSlbQ0gyXVtDQEhdKFtDSDNdKVtOSF1bQ0gyXUMyKFtPSF0pW0NIMl1bQ0gyXVtDSDJdW0NIMl1bQ0gyXTI=

> <s_epik_cmdline>
J2VwaWtfcHl0aG9uJywgJy1waCcsICc3LjAnLCAnLXRuJywgJzgnLCAnLW1hJywgJzIwMCcsICctbWV0YWxfYmluZGluZycsICctaW1hZScsICc8aW5maWxlLm1hZT4nLCAnLW9tYWUnLCAnPG91dGZpbGUubWFlPic=

> <r_lp_tautomer_probability>
1

> <r_epik_Ionization_Penalty>
0.0111573

> <r_epik_Ionization_Penalty_Charging>
0.0111472

> <r_epik_Ionization_Penalty_Neutral>
1.01652e-05

> <r_epik_State_Penalty>
0.00856328

> <r_epik_Charging_Adjusted_Penalty>
0.0197104

> <i_epik_Tot_Q>
1

> <i_epik_Tot_abs_Q>
1

> <r_epik_Metal_State_Penalty>
0.00856448

> <b_epik_Metal_Only>
0

> <s_lp_Force_Field>
OPLS_2005

> <r_lp_Energy>
16.744

> <b_lp_Chiralities_Consistent>
1

> <s_lp_Variant>
AV-unprocessed.smi:3240-1

> <Gold.Version>
5.8.1

> <Gold.Id.Protein>
6NUR|6NUR_protein|mol2

> <Gold.PLP.Fitness>
43.7417

> <Gold.PLP.PLP>
-30.2067

> <Gold.PLP.part.hbond>
-2.8168

> <Gold.PLP.part.metal>
0.0000

> <Gold.PLP.part.buried>
-4.1762

> <Gold.PLP.part.nonpolar>
-23.6437

> <Gold.PLP.part.repulsive>
0.1443

> <Gold.PLP.ligand.clash>
0.0000

> <Gold.PLP.ligand.torsion>
0.7652

> <Gold.PLP.Chemscore.Hbond>
3.0000

> <Gold.PLP.Chemscore.CHOScore>
2.0000

> <Gold.PLP.Chemscore.Metal>
0.0000

> <Gold.Chemscore.Hbonds>
donor molecule, donor type, donor heavy atom, donor atom, acceptor molecule, acceptor atom, score
      L1  H     9    44       P1  7948  1.95
      L1  H    12    32       P1  7948  1.00
      L1  C     3    22       P1 10747  0.90
      L1  C    18    43       P1 10186  1.00

> <Gold.PLP.Chemscore.Internal.Correction>
0.0653

> <Gold.Rescore>
     Score         DG    S(hbond)    S(metal)    S(lipo)     H(rot)  DE(clash)    DE(int)     intcor
     15.77     -16.48       1.95        0.00      84.78       2.12       0.02       0.69       ----

> <Gold.Chemscore.Fitness>
15.7738

> <Gold.Chemscore.DG>
-16.4823

> <Gold.Chemscore.ZeroCoef>
-5.4800

> <Gold.Chemscore.Hbond>
1.9487

> <Gold.Chemscore.Metal>
0.0000

> <Gold.Chemscore.Lipo>
84.7766

> <Gold.Chemscore.Internal_Hbond>
0.0000

> <Gold.Chemscore.DEClash>
0.0217

> <Gold.Chemscore.DEInternal>
0.6868

> <Gold.Chemscore.Rot>
2.1193

> <Gold.Chemscore.Internal.Correction>
   9.000000E+99

> <Gold.Chemscore.Hbonds>
donor molecule, donor type, donor heavy atom, donor atom, acceptor molecule, acceptor atom, score
      L1  H     9    44       P1  7948  0.93
      L1  H    12    32       P1  7948  0.99

> <Gold.Chemscore.Hbond.Weighted>
-6.5088

> <Gold.Chemscore.Metal.Weighted>
-0.0000

> <Gold.Chemscore.Lipo.Weighted>
-9.9189

> <Gold.Chemscore.Internal_Hbond.Weighted>
0.0000

> <Gold.Chemscore.DEClash.Weighted>
0.0217

> <Gold.Chemscore.DEInternal.Weighted>
0.6868

> <Gold.Chemscore.Rot.Weighted>
5.4254

> <Gold.Chemscore.Internal.Correction.Weighted>
   9.000000E+99

> <Gold.Protein.RotatedTorsions>
[ 6907 6896 6895 6894 ] final  -84.70 input  -60.11 | X-H torsion
[ 7974 7965 7964 7962 ] final -129.15 input  175.53 | X-H torsion
[ 8008 7997 7996 7995 ] final -145.05 input   59.86 | X-H torsion
[ 10167 10162 10161 10158 ] final  -92.85 input  -65.29 | X-H torsion
[ 10718 10713 10712 10709 ] final -103.24 input   66.30 | X-H torsion
[ 10763 10752 10751 10750 ] final   17.07 input  -60.55 | X-H torsion
[ 11005 11000 10999 10996 ] final   70.47 input  -57.11 | X-H torsion

> <Gold.Protein.ActiveResidues>
 VAL166  LYS551  ARG553  GLY616  TRP617  ASP618  TYR619  PRO620  LYS621  CYS622 
 ASP623  PHE694  ASN695  SER759  ASP760  ASP761  ALA762  ILE779  LEU786  VAL792 
 PHE793  MET794  SER795  GLU796  ALA797  LYS798  CYS799  TRP800  GLU811  SER814 

> <Gold.Protein.RotatedAtoms>
  150.6874  134.3318  159.4830 H   0  0  0  0  0  0  0  0  0  0  0  0  # atno 6907 bound_to 6896
  152.1182  134.9222  160.0573 H   0  0  0  0  0  0  0  0  0  0  0  0  # atno 6908 bound_to 6896
  152.0439  133.3954  159.4385 H   0  0  0  0  0  0  0  0  0  0  0  0  # atno 6909 bound_to 6896
  144.9600  140.7437  143.4735 H   0  0  0  0  0  0  0  0  0  0  0  0  # atno 7974 bound_to 7965
  155.5369  140.0604  157.2878 H   0  0  0  0  0  0  0  0  0  0  0  0  # atno 8008 bound_to 7997
  154.4465  140.1926  156.0595 H   0  0  0  0  0  0  0  0  0  0  0  0  # atno 8009 bound_to 7997
  156.0613  140.3272  155.7468 H   0  0  0  0  0  0  0  0  0  0  0  0  # atno 8010 bound_to 7997
  140.3306  143.2997  151.9946 H   0  0  0  0  0  0  0  0  0  0  0  0  # atno 10167 bound_to 10162
  156.0258  130.5458  150.7224 H   0  0  0  0  0  0  0  0  0  0  0  0  # atno 10718 bound_to 10713
  153.1373  135.6752  153.9083 H   0  0  0  0  0  0  0  0  0  0  0  0  # atno 10763 bound_to 10752
  153.8551  135.3088  155.3436 H   0  0  0  0  0  0  0  0  0  0  0  0  # atno 10764 bound_to 10752
  154.7758  135.4915  153.9824 H   0  0  0  0  0  0  0  0  0  0  0  0  # atno 10765 bound_to 10752
  139.9596  134.7084  156.0676 H   0  0  0  0  0  0  0  0  0  0  0  0  # atno 11005 bound_to 11000
  145.2714  139.1953  143.4839 LP  0  0  0  0  0  0  0  0  0  0  0  0  # atno 17320 bound_to 7965
  146.3350  140.2661  142.8604 LP  0  0  0  0  0  0  0  0  0  0  0  0  # atno 17321 bound_to 7965
  139.4857  144.6238  151.7205 LP  0  0  0  0  0  0  0  0  0  0  0  0  # atno 17342 bound_to 10162
  140.5400  144.0594  150.6085 LP  0  0  0  0  0  0  0  0  0  0  0  0  # atno 17343 bound_to 10162
  157.4836  131.0904  151.0508 LP  0  0  0  0  0  0  0  0  0  0  0  0  # atno 17370 bound_to 10713
  157.0934  130.5952  149.5444 LP  0  0  0  0  0  0  0  0  0  0  0  0  # atno 17371 bound_to 10713
  141.1271  133.6596  156.3366 LP  0  0  0  0  0  0  0  0  0  0  0  0  # atno 17394 bound_to 11000
  140.5531  134.6008  157.5413 LP  0  0  0  0  0  0  0  0  0  0  0  0  # atno 17395 bound_to 11000

$$$$
