AV-unprocessed.smi:3340|AV-procd|sdf|12879|dock1
  -GOLD-   2272019283D 1   1.00000     0.00000
 Structure written by MMmdl.
 42 43  0  0  0  0  0  0  0  0  2 V2000
  152.3816  130.1676  156.7829 C   0  0  0  0  0  0  0  0  0  0  0  0
  151.9144  131.5910  157.0953 C   0  0  0  0  0  0  0  0  0  0  0  0
  152.6470  132.3002  157.7853 O   0  0  0  0  0  0  0  0  0  0  0  0
  150.7260  132.0218  156.6080 N   0  0  0  0  0  0  0  0  0  0  0  0
  150.2345  133.3931  156.8067 C   0  0  0  0  0  0  0  0  0  0  0  0
  150.1586  134.1000  155.4383 C   0  0  0  0  0  0  0  0  0  0  0  0
  149.2653  133.3308  154.5500 N   0  0  0  0  0  0  0  0  0  0  0  0
  148.0452  133.7258  154.1078 C   0  0  0  0  0  0  0  0  0  0  0  0
  147.3977  134.6348  154.6292 O   0  0  0  0  0  0  0  0  0  0  0  0
  147.5618  133.0050  153.0813 N   0  0  0  0  0  0  0  0  0  0  0  0
  146.2609  133.1943  152.4468 C   0  0  2  0  0  0  0  0  0  0  0  0
  145.1769  133.2690  153.5345 C   0  0  0  0  0  0  0  0  0  0  0  0
  146.0089  132.0766  151.4119 C   0  0  0  0  0  0  0  0  0  0  0  0
  144.8907  132.3739  150.5122 N   0  0  0  0  0  0  0  0  0  0  0  0
  144.9329  132.4746  149.1455 C   0  0  0  0  0  0  0  0  0  0  0  0
  143.6568  132.7632  148.7352 C   0  0  0  0  0  0  0  0  0  0  0  0
  142.8897  132.8237  149.8680 N   0  3  0  0  0  0  0  0  0  0  0  0
  143.6413  132.5832  150.9473 C   0  0  0  0  0  0  0  0  0  0  0  0
  149.7563  131.9570  154.3600 C   0  0  0  0  0  0  0  0  0  0  0  0
  149.8339  131.2515  155.7284 C   0  0  0  0  0  0  0  0  0  0  0  0
  152.4847  130.0221  155.7072 H   0  0  0  0  0  0  0  0  0  0  0  0
  151.6771  129.4341  157.1759 H   0  0  0  0  0  0  0  0  0  0  0  0
  153.3532  129.9733  157.2385 H   0  0  0  0  0  0  0  0  0  0  0  0
  149.2475  133.3588  157.2707 H   0  0  0  0  0  0  0  0  0  0  0  0
  150.8629  133.9736  157.4831 H   0  0  0  0  0  0  0  0  0  0  0  0
  149.8514  135.1343  155.5906 H   0  0  0  0  0  0  0  0  0  0  0  0
  151.1507  134.1515  154.9872 H   0  0  0  0  0  0  0  0  0  0  0  0
  148.1399  132.2601  152.7200 H   0  0  0  0  0  0  0  0  0  0  0  0
  146.2652  134.1548  151.9281 H   0  0  0  0  0  0  0  0  0  0  0  0
  144.2011  133.5077  153.1116 H   0  0  0  0  0  0  0  0  0  0  0  0
  145.4089  134.0450  154.2648 H   0  0  0  0  0  0  0  0  0  0  0  0
  145.0869  132.3239  154.0709 H   0  0  0  0  0  0  0  0  0  0  0  0
  146.8914  131.9217  150.7894 H   0  0  0  0  0  0  0  0  0  0  0  0
  145.8057  131.1282  151.9123 H   0  0  0  0  0  0  0  0  0  0  0  0
  145.8450  132.3381  148.5822 H   0  0  0  0  0  0  0  0  0  0  0  0
  143.2480  132.9255  147.7484 H   0  0  0  0  0  0  0  0  0  0  0  0
  143.3051  132.5673  151.9688 H   0  0  0  0  0  0  0  0  0  0  0  0
  149.1309  131.3761  153.6809 H   0  0  0  0  0  0  0  0  0  0  0  0
  150.7436  131.9906  153.8967 H   0  0  0  0  0  0  0  0  0  0  0  0
  150.1449  130.2179  155.5857 H   0  0  0  0  0  0  0  0  0  0  0  0
  148.8427  131.2005  156.1812 H   0  0  0  0  0  0  0  0  0  0  0  0
  141.8971  133.0214  149.8886 H   0  0  0  0  0  0  0  0  0  0  0  0
  1  2  1  0  0  0  0
  1 21  1  0  0  0  0
  1 22  1  0  0  0  0
  1 23  1  0  0  0  0
  2  3  2  0  0  0  0
  2  4  1  0  0  0  0
  4 20  1  0  0  0  0
  4  5  1  0  0  0  0
  5  6  1  0  0  0  0
  5 24  1  0  0  0  0
  5 25  1  0  0  0  0
  6  7  1  0  0  0  0
  6 26  1  0  0  0  0
  6 27  1  0  0  0  0
  7  8  1  0  0  0  0
  7 19  1  0  0  0  0
  8  9  2  0  0  0  0
  8 10  1  0  0  0  0
 10 11  1  0  0  0  0
 10 28  1  0  0  0  0
 11 12  1  0  0  0  0
 11 13  1  0  0  0  0
 11 29  1  0  0  0  0
 12 30  1  0  0  0  0
 12 31  1  0  0  0  0
 12 32  1  0  0  0  0
 13 14  1  0  0  0  0
 13 33  1  0  0  0  0
 13 34  1  0  0  0  0
 14 18  1  0  0  0  0
 14 15  1  0  0  0  0
 15 16  2  0  0  0  0
 15 35  1  0  0  0  0
 16 17  1  0  0  0  0
 16 36  1  0  0  0  0
 17 18  2  0  0  0  0
 17 42  1  0  0  0  0
 18 37  1  0  0  0  0
 19 20  1  0  0  0  0
 19 38  1  0  0  0  0
 19 39  1  0  0  0  0
 20 40  1  0  0  0  0
 20 41  1  0  0  0  0
M  CHG  1  17   1
M  END
> <s_m_source_file>
AV-unprocessed.smi

> <i_m_source_file_index>
3340

> <i_lp_mmshare_version>
43012

> <i_f3d_flags>
0

> <s_epik_input>
W0NIM11DKD1PKU4xW0NIMl1bQ0gyXU4oW0NIMl1bQ0gyXTEpQyg9TylbTkhdW0NASF0oW0NIM10pW0NIMl1uMltjSF1bY0hdbltjSF0y

> <s_epik_cmdline>
J2VwaWtfcHl0aG9uJywgJy1waCcsICc3LjAnLCAnLXRuJywgJzgnLCAnLW1hJywgJzIwMCcsICctbWV0YWxfYmluZGluZycsICctaW1hZScsICc8aW5maWxlLm1hZT4nLCAnLW9tYWUnLCAnPG91dGZpbGUubWFlPic=

> <r_lp_tautomer_probability>
1

> <r_epik_Ionization_Penalty>
0.254791

> <r_epik_Ionization_Penalty_Charging>
0

> <r_epik_Ionization_Penalty_Neutral>
0.254791

> <r_epik_State_Penalty>
0.246235

> <r_epik_Charging_Adjusted_Penalty>
0.246235

> <i_epik_Tot_Q>
1

> <i_epik_Tot_abs_Q>
1

> <r_epik_Metal_State_Penalty>
0.536161

> <b_epik_Metal_Only>
0

> <s_lp_Force_Field>
OPLS_2005

> <r_lp_Energy>
50.8971

> <b_lp_Chiralities_Consistent>
1

> <s_lp_Variant>
AV-unprocessed.smi:3340-1

> <Gold.Version>
5.8.1

> <Gold.Id.Protein>
6NUR|6NUR_protein|mol2

> <Gold.PLP.Fitness>
44.6412

> <Gold.PLP.PLP>
-36.3693

> <Gold.PLP.part.hbond>
-1.9321

> <Gold.PLP.part.metal>
0.0000

> <Gold.PLP.part.buried>
-4.4638

> <Gold.PLP.part.nonpolar>
-29.6436

> <Gold.PLP.part.repulsive>
0.5434

> <Gold.PLP.ligand.clash>
0.0868

> <Gold.PLP.ligand.torsion>
0.3612

> <Gold.PLP.Chemscore.Hbond>
3.0000

> <Gold.PLP.Chemscore.CHOScore>
0.0000

> <Gold.PLP.Chemscore.Metal>
0.0000

> <Gold.Chemscore.Hbonds>
donor molecule, donor type, donor heavy atom, donor atom, acceptor molecule, acceptor atom, score
      L1  H    17    42       P1 10186  1.34
      P1  H  6896  6907       L1     3  0.98

> <Gold.PLP.Chemscore.Internal.Correction>
0.0810

> <Gold.Rescore>
     Score         DG    S(hbond)    S(metal)    S(lipo)     H(rot)  DE(clash)    DE(int)     intcor
     13.71     -15.46       1.97        0.00      66.12       1.70       0.04       1.71       ----

> <Gold.Chemscore.Fitness>
13.7146

> <Gold.Chemscore.DG>
-15.4634

> <Gold.Chemscore.ZeroCoef>
-5.4800

> <Gold.Chemscore.Hbond>
1.9738

> <Gold.Chemscore.Metal>
0.0000

> <Gold.Chemscore.Lipo>
66.1231

> <Gold.Chemscore.Internal_Hbond>
0.0000

> <Gold.Chemscore.DEClash>
0.0421

> <Gold.Chemscore.DEInternal>
1.7067

> <Gold.Chemscore.Rot>
1.6975

> <Gold.Chemscore.Internal.Correction>
   9.000000E+99

> <Gold.Chemscore.Hbonds>
donor molecule, donor type, donor heavy atom, donor atom, acceptor molecule, acceptor atom, score
      L1  H    17    42       P1 10186  0.66
      P1  H  6896  6907       L1     3  0.87

> <Gold.Chemscore.Hbond.Weighted>
-6.5926

> <Gold.Chemscore.Metal.Weighted>
-0.0000

> <Gold.Chemscore.Lipo.Weighted>
-7.7364

> <Gold.Chemscore.Internal_Hbond.Weighted>
0.0000

> <Gold.Chemscore.DEClash.Weighted>
0.0421

> <Gold.Chemscore.DEInternal.Weighted>
1.7067

> <Gold.Chemscore.Rot.Weighted>
4.3455

> <Gold.Chemscore.Internal.Correction.Weighted>
   9.000000E+99

> <Gold.Protein.RotatedTorsions>
[ 6907 6896 6895 6894 ] final  147.15 input  -60.11 | X-H torsion
[ 7974 7965 7964 7962 ] final  -85.86 input  175.53 | X-H torsion
[ 8008 7997 7996 7995 ] final   57.32 input   59.86 | X-H torsion
[ 10167 10162 10161 10158 ] final  179.44 input  -65.29 | X-H torsion
[ 10718 10713 10712 10709 ] final  106.09 input   66.30 | X-H torsion
[ 10763 10752 10751 10750 ] final  120.34 input  -60.55 | X-H torsion
[ 11005 11000 10999 10996 ] final -126.40 input  -57.11 | X-H torsion

> <Gold.Protein.ActiveResidues>
 VAL166  LYS551  ARG553  GLY616  TRP617  ASP618  TYR619  PRO620  LYS621  CYS622 
 ASP623  PHE694  ASN695  SER759  ASP760  ASP761  ALA762  ILE779  LEU786  VAL792 
 PHE793  MET794  SER795  GLU796  ALA797  LYS798  CYS799  TRP800  GLU811  SER814 

> <Gold.Protein.RotatedAtoms>
  152.1586  133.4567  159.4849 H   0  0  0  0  0  0  0  0  0  0  0  0  # atno 6907 bound_to 6896
  150.6904  134.2100  159.4364 H   0  0  0  0  0  0  0  0  0  0  0  0  # atno 6908 bound_to 6896
  152.0001  134.9933  160.0615 H   0  0  0  0  0  0  0  0  0  0  0  0  # atno 6909 bound_to 6896
  145.4877  140.9554  143.1829 H   0  0  0  0  0  0  0  0  0  0  0  0  # atno 7974 bound_to 7965
  155.5318  140.3482  155.4428 H   0  0  0  0  0  0  0  0  0  0  0  0  # atno 8008 bound_to 7997
  156.0713  140.1363  156.9852 H   0  0  0  0  0  0  0  0  0  0  0  0  # atno 8009 bound_to 7997
  154.4529  140.0965  156.6648 H   0  0  0  0  0  0  0  0  0  0  0  0  # atno 8010 bound_to 7997
  139.5337  144.2560  152.0746 H   0  0  0  0  0  0  0  0  0  0  0  0  # atno 10167 bound_to 10162
  157.6681  131.0843  150.5954 H   0  0  0  0  0  0  0  0  0  0  0  0  # atno 10718 bound_to 10713
  153.5971  135.3455  155.2932 H   0  0  0  0  0  0  0  0  0  0  0  0  # atno 10763 bound_to 10752
  154.8642  135.4218  154.2453 H   0  0  0  0  0  0  0  0  0  0  0  0  # atno 10764 bound_to 10752
  153.3273  135.7042  153.7049 H   0  0  0  0  0  0  0  0  0  0  0  0  # atno 10765 bound_to 10752
  140.9684  134.0839  157.3895 H   0  0  0  0  0  0  0  0  0  0  0  0  # atno 11005 bound_to 11000
  144.7852  139.6442  143.7137 LP  0  0  0  0  0  0  0  0  0  0  0  0  # atno 17320 bound_to 7965
  146.2303  139.5801  142.9559 LP  0  0  0  0  0  0  0  0  0  0  0  0  # atno 17321 bound_to 7965
  140.2027  144.4641  150.6423 LP  0  0  0  0  0  0  0  0  0  0  0  0  # atno 17342 bound_to 10162
  140.6530  143.2230  151.6033 LP  0  0  0  0  0  0  0  0  0  0  0  0  # atno 17343 bound_to 10162
  156.6255  130.4417  149.5806 LP  0  0  0  0  0  0  0  0  0  0  0  0  # atno 17370 bound_to 10713
  156.2322  130.6801  151.1475 LP  0  0  0  0  0  0  0  0  0  0  0  0  # atno 17371 bound_to 10713
  139.8903  135.0111  156.6729 LP  0  0  0  0  0  0  0  0  0  0  0  0  # atno 17394 bound_to 11000
  140.7365  133.9014  155.8247 LP  0  0  0  0  0  0  0  0  0  0  0  0  # atno 17395 bound_to 11000

$$$$
