AV-unprocessed.smi:653|AV-procd|sdf|3211|dock7
  -GOLD-   22720 0153D 1   1.00000     0.00000
 Structure written by MMmdl.
 45 46  0  0  0  0  0  0  0  0  2 V2000
  143.8539  131.8040  150.5539 C   0  0  0  0  0  0  0  0  0  0  0  0
  144.4980  133.1449  150.8360 C   0  0  0  0  0  0  0  0  0  0  0  0
  145.7414  133.2599  151.4941 C   0  0  0  0  0  0  0  0  0  0  0  0
  146.2860  134.5414  151.7182 C   0  0  0  0  0  0  0  0  0  0  0  0
  145.5784  135.6823  151.2790 C   0  0  0  0  0  0  0  0  0  0  0  0
  146.1408  137.0754  151.4994 C   0  0  0  0  0  0  0  0  0  0  0  0
  146.1000  137.4374  152.9843 C   0  0  0  0  0  0  0  0  0  0  0  0
  145.0196  137.6401  153.5371 O   0  0  0  0  0  0  0  0  0  0  0  0
  147.2819  137.5189  153.6147 N   0  0  0  0  0  0  0  0  0  0  0  0
  147.4575  137.8471  155.0252 C   0  0  0  0  0  0  0  0  0  0  0  0
  148.8953  138.3086  155.3333 C   0  0  1  0  0  0  0  0  0  0  0  0
  149.9531  137.2436  155.1149 C   0  0  0  0  0  0  0  0  0  0  0  0
  151.2201  138.0843  155.0186 C   0  0  0  0  0  0  0  0  0  0  0  0
  150.8253  139.2883  154.3701 O   0  0  0  0  0  0  0  0  0  0  0  0
  149.4053  139.4271  154.4109 C   0  0  2  0  0  0  0  0  0  0  0  0
  148.9951  140.8669  154.7973 C   0  0  0  0  0  0  0  0  0  0  0  0
  149.3894  141.1750  156.2502 C   0  0  0  0  0  0  0  0  0  0  0  0
  147.5006  141.1599  154.5693 C   0  0  0  0  0  0  0  0  0  0  0  0
  144.3379  135.5055  150.6283 C   0  0  0  0  0  0  0  0  0  0  0  0
  143.8505  134.2609  150.4319 N   0  3  0  0  0  0  0  0  0  0  0  0
  144.3286  131.0123  151.1343 H   0  0  0  0  0  0  0  0  0  0  0  0
  143.9475  131.5555  149.4964 H   0  0  0  0  0  0  0  0  0  0  0  0
  142.7945  131.8238  150.8115 H   0  0  0  0  0  0  0  0  0  0  0  0
  146.2738  132.3791  151.8227 H   0  0  0  0  0  0  0  0  0  0  0  0
  147.2381  134.6444  152.2185 H   0  0  0  0  0  0  0  0  0  0  0  0
  147.1695  137.1156  151.1382 H   0  0  0  0  0  0  0  0  0  0  0  0
  145.5756  137.8088  150.9222 H   0  0  0  0  0  0  0  0  0  0  0  0
  148.1200  137.3337  153.0832 H   0  0  0  0  0  0  0  0  0  0  0  0
  146.7471  138.6343  155.2789 H   0  0  0  0  0  0  0  0  0  0  0  0
  147.1946  136.9867  155.6427 H   0  0  0  0  0  0  0  0  0  0  0  0
  148.9564  138.6285  156.3732 H   0  0  0  0  0  0  0  0  0  0  0  0
  149.9953  136.5067  155.9176 H   0  0  0  0  0  0  0  0  0  0  0  0
  149.7808  136.7178  154.1746 H   0  0  0  0  0  0  0  0  0  0  0  0
  151.5882  138.3308  156.0153 H   0  0  0  0  0  0  0  0  0  0  0  0
  152.0192  137.5794  154.4755 H   0  0  0  0  0  0  0  0  0  0  0  0
  149.0503  139.2164  153.4007 H   0  0  0  0  0  0  0  0  0  0  0  0
  149.5620  141.5521  154.1661 H   0  0  0  0  0  0  0  0  0  0  0  0
  148.8583  140.5293  156.9504 H   0  0  0  0  0  0  0  0  0  0  0  0
  149.1581  142.2083  156.5102 H   0  0  0  0  0  0  0  0  0  0  0  0
  150.4582  141.0293  156.4089 H   0  0  0  0  0  0  0  0  0  0  0  0
  146.8695  140.4867  155.1505 H   0  0  0  0  0  0  0  0  0  0  0  0
  147.2181  141.0605  153.5221 H   0  0  0  0  0  0  0  0  0  0  0  0
  147.2546  142.1792  154.8682 H   0  0  0  0  0  0  0  0  0  0  0  0
  143.7279  136.3161  150.2560 H   0  0  0  0  0  0  0  0  0  0  0  0
  142.9537  134.1589  149.9560 H   0  0  0  0  0  0  0  0  0  0  0  0
  1  2  1  0  0  0  0
  1 21  1  0  0  0  0
  1 22  1  0  0  0  0
  1 23  1  0  0  0  0
  2 20  1  0  0  0  0
  2  3  2  0  0  0  0
  3  4  1  0  0  0  0
  3 24  1  0  0  0  0
  4  5  2  0  0  0  0
  4 25  1  0  0  0  0
  5  6  1  0  0  0  0
  5 19  1  0  0  0  0
  6  7  1  0  0  0  0
  6 26  1  0  0  0  0
  6 27  1  0  0  0  0
  7  8  2  0  0  0  0
  7  9  1  0  0  0  0
  9 10  1  0  0  0  0
  9 28  1  0  0  0  0
 10 11  1  0  0  0  0
 10 29  1  0  0  0  0
 10 30  1  0  0  0  0
 11 15  1  0  0  0  0
 11 12  1  0  0  0  0
 11 31  1  0  0  0  0
 12 13  1  0  0  0  0
 12 32  1  0  0  0  0
 12 33  1  0  0  0  0
 13 14  1  0  0  0  0
 13 34  1  0  0  0  0
 13 35  1  0  0  0  0
 14 15  1  0  0  0  0
 15 16  1  0  0  0  0
 15 36  1  0  0  0  0
 16 17  1  0  0  0  0
 16 18  1  0  0  0  0
 16 37  1  0  0  0  0
 17 38  1  0  0  0  0
 17 39  1  0  0  0  0
 17 40  1  0  0  0  0
 18 41  1  0  0  0  0
 18 42  1  0  0  0  0
 18 43  1  0  0  0  0
 19 20  2  0  0  0  0
 19 44  1  0  0  0  0
 20 45  1  0  0  0  0
M  CHG  1  20   1
M  END
> <s_m_source_file>
AV-unprocessed.smi

> <i_m_source_file_index>
653

> <i_lp_mmshare_version>
43012

> <i_f3d_flags>
0

> <s_epik_input>
W0NIM11jMVtjSF1bY0hdYyhbY0hdbjEpW0NIMl1DKD1PKVtOSF1bQ0gyXVtDQEBIXTJbQ0gyXVtDSDJdT1tDQEhdMltDSF0oW0NIM10pW0NIM10=

> <s_epik_cmdline>
J2VwaWtfcHl0aG9uJywgJy1waCcsICc3LjAnLCAnLXRuJywgJzgnLCAnLW1hJywgJzIwMCcsICctbWV0YWxfYmluZGluZycsICctaW1hZScsICc8aW5maWxlLm1hZT4nLCAnLW9tYWUnLCAnPG91dGZpbGUubWFlPic=

> <r_epik_Ionization_Penalty>
2.12486

> <r_epik_Ionization_Penalty_Charging>
2.12486

> <r_epik_Ionization_Penalty_Neutral>
9.0873e-08

> <r_epik_State_Penalty>
2.26279

> <r_epik_Charging_Adjusted_Penalty>
4.38765

> <i_epik_Tot_Q>
1

> <i_epik_Tot_abs_Q>
1

> <r_epik_Metal_State_Penalty>
2.27914

> <b_epik_Metal_Only>
0

> <s_lp_Force_Field>
OPLS_2005

> <r_lp_Energy>
26.1393

> <b_lp_Chiralities_Consistent>
1

> <s_lp_Variant>
AV-unprocessed.smi:653-8

> <Gold.Version>
5.8.1

> <Gold.Id.Protein>
6NUR|6NUR_protein|mol2

> <Gold.PLP.Fitness>
45.9030

> <Gold.PLP.PLP>
-34.7828

> <Gold.PLP.part.hbond>
-3.0000

> <Gold.PLP.part.metal>
0.0000

> <Gold.PLP.part.buried>
0.8049

> <Gold.PLP.part.nonpolar>
-33.1849

> <Gold.PLP.part.repulsive>
0.9977

> <Gold.PLP.ligand.clash>
0.0000

> <Gold.PLP.ligand.torsion>
0.4209

> <Gold.PLP.Chemscore.Hbond>
3.9760

> <Gold.PLP.Chemscore.CHOScore>
0.0000

> <Gold.PLP.Chemscore.Metal>
0.0000

> <Gold.Chemscore.Hbonds>
donor molecule, donor type, donor heavy atom, donor atom, acceptor molecule, acceptor atom, score
      L1  H     9    28       P1  7948  0.94
      L1  H    20    45       P1 10186  2.00
      P1  H  7989  7998       L1    14  1.00

> <Gold.PLP.Chemscore.Internal.Correction>
0.0339

> <Gold.Rescore>
     Score         DG    S(hbond)    S(metal)    S(lipo)     H(rot)  DE(clash)    DE(int)     intcor
     20.06     -21.67       2.87        0.00      90.89       1.57       1.25       0.36       ----

> <Gold.Chemscore.Fitness>
20.0601

> <Gold.Chemscore.DG>
-21.6653

> <Gold.Chemscore.ZeroCoef>
-5.4800

> <Gold.Chemscore.Hbond>
2.8655

> <Gold.Chemscore.Metal>
0.0000

> <Gold.Chemscore.Lipo>
90.8891

> <Gold.Chemscore.Internal_Hbond>
0.0000

> <Gold.Chemscore.DEClash>
1.2461

> <Gold.Chemscore.DEInternal>
0.3591

> <Gold.Chemscore.Rot>
1.5701

> <Gold.Chemscore.Internal.Correction>
   9.000000E+99

> <Gold.Chemscore.Hbonds>
donor molecule, donor type, donor heavy atom, donor atom, acceptor molecule, acceptor atom, score
      L1  H     9    28       P1  7948  0.91
      L1  H    20    45       P1 10186  0.94
      P1  H  7989  7998       L1    14  0.73

> <Gold.Chemscore.Hbond.Weighted>
-9.5709

> <Gold.Chemscore.Metal.Weighted>
-0.0000

> <Gold.Chemscore.Lipo.Weighted>
-10.6340

> <Gold.Chemscore.Internal_Hbond.Weighted>
0.0000

> <Gold.Chemscore.DEClash.Weighted>
1.2461

> <Gold.Chemscore.DEInternal.Weighted>
0.3591

> <Gold.Chemscore.Rot.Weighted>
4.0196

> <Gold.Chemscore.Internal.Correction.Weighted>
   9.000000E+99

> <Gold.Protein.RotatedTorsions>
[ 6907 6896 6895 6894 ] final  124.38 input  -60.11 | X-H torsion
[ 7974 7965 7964 7962 ] final  167.71 input  175.53 | X-H torsion
[ 8008 7997 7996 7995 ] final   13.68 input   59.86 | X-H torsion
[ 10167 10162 10161 10158 ] final -107.01 input  -65.29 | X-H torsion
[ 10718 10713 10712 10709 ] final -136.37 input   66.30 | X-H torsion
[ 10763 10752 10751 10750 ] final  142.72 input  -60.55 | X-H torsion
[ 11005 11000 10999 10996 ] final   93.72 input  -57.11 | X-H torsion

> <Gold.Protein.ActiveResidues>
 VAL166  LYS551  ARG553  GLY616  TRP617  ASP618  TYR619  PRO620  LYS621  CYS622 
 ASP623  PHE694  ASN695  SER759  ASP760  ASP761  ALA762  ILE779  LEU786  VAL792 
 PHE793  MET794  SER795  GLU796  ALA797  LYS798  CYS799  TRP800  GLU811  SER814 

> <Gold.Protein.RotatedAtoms>
  152.4083  133.6923  159.6375 H   0  0  0  0  0  0  0  0  0  0  0  0  # atno 6907 bound_to 6896
  150.7965  133.8670  159.3256 H   0  0  0  0  0  0  0  0  0  0  0  0  # atno 6908 bound_to 6896
  151.6419  135.1013  160.0194 H   0  0  0  0  0  0  0  0  0  0  0  0  # atno 6909 bound_to 6896
  144.7414  139.8800  143.6395 H   0  0  0  0  0  0  0  0  0  0  0  0  # atno 7974 bound_to 7965
  154.8379  140.2910  155.5679 H   0  0  0  0  0  0  0  0  0  0  0  0  # atno 8008 bound_to 7997
  156.3010  140.2519  156.3247 H   0  0  0  0  0  0  0  0  0  0  0  0  # atno 8009 bound_to 7997
  154.9158  140.0387  157.1960 H   0  0  0  0  0  0  0  0  0  0  0  0  # atno 8010 bound_to 7997
  140.1816  143.3962  152.1277 H   0  0  0  0  0  0  0  0  0  0  0  0  # atno 10167 bound_to 10162
  156.2763  130.7295  151.1278 H   0  0  0  0  0  0  0  0  0  0  0  0  # atno 10718 bound_to 10713
  153.9605  135.2960  155.3434 H   0  0  0  0  0  0  0  0  0  0  0  0  # atno 10763 bound_to 10752
  154.7377  135.5039  153.9072 H   0  0  0  0  0  0  0  0  0  0  0  0  # atno 10764 bound_to 10752
  153.0949  135.6718  153.9893 H   0  0  0  0  0  0  0  0  0  0  0  0  # atno 10765 bound_to 10752
  139.8806  134.8805  156.3759 H   0  0  0  0  0  0  0  0  0  0  0  0  # atno 11005 bound_to 11000
  146.1218  139.4237  143.0223 LP  0  0  0  0  0  0  0  0  0  0  0  0  # atno 17320 bound_to 7965
  145.7293  141.0048  143.1360 LP  0  0  0  0  0  0  0  0  0  0  0  0  # atno 17321 bound_to 7965
  139.5294  144.7141  151.5111 LP  0  0  0  0  0  0  0  0  0  0  0  0  # atno 17342 bound_to 10162
  140.6516  143.8685  150.6791 LP  0  0  0  0  0  0  0  0  0  0  0  0  # atno 17343 bound_to 10162
  157.7300  131.0619  150.5746 LP  0  0  0  0  0  0  0  0  0  0  0  0  # atno 17370 bound_to 10713
  156.5847  130.4313  149.5962 LP  0  0  0  0  0  0  0  0  0  0  0  0  # atno 17371 bound_to 10713
  140.9432  133.7500  156.0174 LP  0  0  0  0  0  0  0  0  0  0  0  0  # atno 17394 bound_to 11000
  140.8194  134.3307  157.5386 LP  0  0  0  0  0  0  0  0  0  0  0  0  # atno 17395 bound_to 11000

$$$$
