AV-unprocessed.smi:244|AV-procd|sdf|1874|dock10
  -GOLD-   2262020513D 1   1.00000     0.00000
 Structure written by MMmdl.
 56 60  0  0  0  0  0  0  0  0  1 V2000
  148.4450  141.2503  157.0557 C   0  0  0  0  0  0  0  0  0  0  0  0
  149.3842  141.3610  155.9451 N   0  0  0  0  0  0  0  0  0  0  0  0
  150.6747  141.9297  156.3399 C   0  0  0  0  0  0  0  0  0  0  0  0
  151.5108  140.9615  157.2009 C   0  0  0  0  0  0  0  0  0  0  0  0
  151.7053  139.6059  156.5073 C   0  0  2  0  0  0  0  0  0  0  0  0
  152.5793  139.7620  155.3915 O   0  0  0  0  0  0  0  0  0  0  0  0
  152.8567  138.5207  154.7528 C   0  0  0  0  0  0  0  0  0  0  0  0
  151.5529  137.9138  154.2113 C   0  0  0  0  0  0  0  0  0  0  0  0
  150.5619  137.8076  155.2823 N   0  0  0  0  0  0  0  0  0  0  0  0
  149.4572  137.0484  155.0553 C   0  0  0  0  0  0  0  0  0  0  0  0
  148.2425  137.6477  154.9291 N   0  0  0  0  0  0  0  0  0  0  0  0
  147.1433  136.9159  154.7273 C   0  0  0  0  0  0  0  0  0  0  0  0
  147.0318  135.5915  154.6170 N   0  0  0  0  0  0  0  0  0  0  0  0
  148.2466  134.9825  154.7280 C   0  0  0  0  0  0  0  0  0  0  0  0
  149.4970  135.6281  154.9478 C   0  0  0  0  0  0  0  0  0  0  0  0
  150.5122  134.6792  154.9971 N   0  0  0  0  0  0  0  0  0  0  0  0
  149.8970  133.5410  154.8312 C   0  0  0  0  0  0  0  0  0  0  0  0
  148.5358  133.6312  154.6510 N   0  0  0  0  0  0  0  0  0  0  0  0
  147.6113  132.5284  154.4358 C   0  0  0  0  0  0  0  0  0  0  0  0
  147.0962  132.4124  152.9793 C   0  0  0  0  0  0  0  0  0  0  0  0
  148.2114  132.5381  152.1142 O   0  0  0  0  0  0  0  0  0  0  0  0
  146.4112  131.0576  152.6945 C   0  0  0  0  0  0  0  0  0  0  0  0
  145.7214  131.0356  151.3188 C   0  0  0  0  0  0  0  0  0  0  0  0
  144.8047  132.1179  151.2120 O   0  0  0  0  0  0  0  0  0  0  0  0
  145.4413  133.3875  151.2919 C   0  0  0  0  0  0  0  0  0  0  0  0
  146.1081  133.5546  152.6686 C   0  0  0  0  0  0  0  0  0  0  0  0
  150.3467  139.0439  156.0378 C   0  0  2  0  0  0  0  0  0  0  0  0
  149.5579  140.1010  155.2215 C   0  0  0  0  0  0  0  0  0  0  0  0
  148.2877  142.2262  157.5157 H   0  0  0  0  0  0  0  0  0  0  0  0
  148.7908  140.5652  157.8289 H   0  0  0  0  0  0  0  0  0  0  0  0
  147.4785  140.8941  156.6983 H   0  0  0  0  0  0  0  0  0  0  0  0
  151.2299  142.1786  155.4347 H   0  0  0  0  0  0  0  0  0  0  0  0
  150.5152  142.8690  156.8705 H   0  0  0  0  0  0  0  0  0  0  0  0
  152.4816  141.4062  157.4209 H   0  0  0  0  0  0  0  0  0  0  0  0
  151.0265  140.8107  158.1657 H   0  0  0  0  0  0  0  0  0  0  0  0
  152.1671  138.9163  157.2162 H   0  0  0  0  0  0  0  0  0  0  0  0
  153.5600  138.6893  153.9373 H   0  0  0  0  0  0  0  0  0  0  0  0
  153.3406  137.8388  155.4536 H   0  0  0  0  0  0  0  0  0  0  0  0
  151.1607  138.5310  153.4021 H   0  0  0  0  0  0  0  0  0  0  0  0
  151.7605  136.9283  153.7922 H   0  0  0  0  0  0  0  0  0  0  0  0
  146.2207  137.4711  154.6437 H   0  0  0  0  0  0  0  0  0  0  0  0
  150.4243  132.5981  154.8250 H   0  0  0  0  0  0  0  0  0  0  0  0
  148.1181  131.6074  154.7262 H   0  0  0  0  0  0  0  0  0  0  0  0
  146.7743  132.6429  155.1259 H   0  0  0  0  0  0  0  0  0  0  0  0
  148.2385  131.7836  151.5460 H   0  0  0  0  0  0  0  0  0  0  0  0
  147.1280  130.2379  152.7540 H   0  0  0  0  0  0  0  0  0  0  0  0
  145.6608  130.8661  153.4627 H   0  0  0  0  0  0  0  0  0  0  0  0
  146.4541  131.0837  150.5118 H   0  0  0  0  0  0  0  0  0  0  0  0
  145.1756  130.1005  151.1919 H   0  0  0  0  0  0  0  0  0  0  0  0
  146.1683  133.4955  150.4853 H   0  0  0  0  0  0  0  0  0  0  0  0
  144.6916  134.1653  151.1455 H   0  0  0  0  0  0  0  0  0  0  0  0
  145.3257  133.5714  153.4286 H   0  0  0  0  0  0  0  0  0  0  0  0
  146.6097  134.5215  152.7269 H   0  0  0  0  0  0  0  0  0  0  0  0
  149.7772  138.8107  156.9346 H   0  0  0  0  0  0  0  0  0  0  0  0
  148.5788  139.7137  154.9367 H   0  0  0  0  0  0  0  0  0  0  0  0
  150.0821  140.3219  154.2914 H   0  0  0  0  0  0  0  0  0  0  0  0
  1  2  1  0  0  0  0
  1 29  1  0  0  0  0
  1 30  1  0  0  0  0
  1 31  1  0  0  0  0
  2 28  1  0  0  0  0
  2  3  1  0  0  0  0
  3  4  1  0  0  0  0
  3 32  1  0  0  0  0
  3 33  1  0  0  0  0
  4  5  1  0  0  0  0
  4 34  1  0  0  0  0
  4 35  1  0  0  0  0
  5 27  1  0  0  0  0
  5  6  1  0  0  0  0
  5 36  1  0  0  0  0
  6  7  1  0  0  0  0
  7  8  1  0  0  0  0
  7 37  1  0  0  0  0
  7 38  1  0  0  0  0
  8  9  1  0  0  0  0
  8 39  1  0  0  0  0
  8 40  1  0  0  0  0
  9 10  1  0  0  0  0
  9 27  1  0  0  0  0
 10 15  1  0  0  0  0
 10 11  2  0  0  0  0
 11 12  1  0  0  0  0
 12 13  2  0  0  0  0
 12 41  1  0  0  0  0
 13 14  1  0  0  0  0
 14 18  1  0  0  0  0
 14 15  2  0  0  0  0
 15 16  1  0  0  0  0
 16 17  2  0  0  0  0
 17 18  1  0  0  0  0
 17 42  1  0  0  0  0
 18 19  1  0  0  0  0
 19 20  1  0  0  0  0
 19 43  1  0  0  0  0
 19 44  1  0  0  0  0
 20 26  1  0  0  0  0
 20 21  1  0  0  0  0
 20 22  1  0  0  0  0
 21 45  1  0  0  0  0
 22 23  1  0  0  0  0
 22 46  1  0  0  0  0
 22 47  1  0  0  0  0
 23 24  1  0  0  0  0
 23 48  1  0  0  0  0
 23 49  1  0  0  0  0
 24 25  1  0  0  0  0
 25 26  1  0  0  0  0
 25 50  1  0  0  0  0
 25 51  1  0  0  0  0
 26 52  1  0  0  0  0
 26 53  1  0  0  0  0
 27 28  1  0  0  0  0
 27 54  1  0  0  0  0
 28 55  1  0  0  0  0
 28 56  1  0  0  0  0
M  END
> <s_m_source_file>
AV-unprocessed.smi

> <i_m_source_file_index>
244

> <i_lp_mmshare_version>
43012

> <i_f3d_flags>
0

> <s_epik_input>
W0NIMl0xW0NIMl1OKFtDSDNdKVtDSDJdW0NAQEhdKFtDQEhdMTIpTihbQ0gyXVtDSDJdTzIpYyhuW2NIXW4zKWMoYzM0KW5bY0hdbjRbQ0gyXUM1KFtPSF0pW0NIMl1bQ0gyXU9bQ0gyXVtDSDJdNQ==

> <s_epik_cmdline>
J2VwaWtfcHl0aG9uJywgJy1waCcsICc3LjAnLCAnLXRuJywgJzgnLCAnLW1hJywgJzIwMCcsICctbWV0YWxfYmluZGluZycsICctaW1hZScsICc8aW5maWxlLm1hZT4nLCAnLW9tYWUnLCAnPG91dGZpbGUubWFlPic=

> <r_lp_tautomer_probability>
1

> <r_epik_Ionization_Penalty>
2.27765

> <r_epik_Ionization_Penalty_Charging>
0

> <r_epik_Ionization_Penalty_Neutral>
2.27765

> <r_epik_State_Penalty>
2.4114

> <r_epik_Charging_Adjusted_Penalty>
2.4114

> <i_epik_Tot_Q>
0

> <i_epik_Tot_abs_Q>
0

> <r_epik_Metal_State_Penalty>
2.39769

> <b_epik_Metal_Only>
0

> <s_lp_Force_Field>
OPLS_2005

> <r_lp_Energy>
43.9701

> <b_lp_Chiralities_Consistent>
1

> <s_lp_Variant>
AV-unprocessed.smi:244-11

> <Gold.Version>
5.8.1

> <Gold.Id.Protein>
6NUR|6NUR_protein|mol2

> <Gold.PLP.Fitness>
42.3248

> <Gold.PLP.PLP>
-37.1761

> <Gold.PLP.part.hbond>
-2.9575

> <Gold.PLP.part.metal>
0.0000

> <Gold.PLP.part.buried>
-5.5266

> <Gold.PLP.part.nonpolar>
-29.6923

> <Gold.PLP.part.repulsive>
0.6675

> <Gold.PLP.ligand.clash>
0.0000

> <Gold.PLP.ligand.torsion>
0.7586

> <Gold.PLP.Chemscore.Hbond>
2.0774

> <Gold.PLP.Chemscore.CHOScore>
0.0000

> <Gold.PLP.Chemscore.Metal>
0.0000

> <Gold.Chemscore.Hbonds>
donor molecule, donor type, donor heavy atom, donor atom, acceptor molecule, acceptor atom, score
      L1  H    21    45       P1 10747  1.00
      P1  H  7989  7998       L1     6  0.09
      P1  H  7997  8008       L1     6  0.85

> <Gold.PLP.Chemscore.Internal.Correction>
0.4339

> <Gold.Rescore>
     Score         DG    S(hbond)    S(metal)    S(lipo)     H(rot)  DE(clash)    DE(int)     intcor
     13.96     -16.56       1.64        0.00      93.11       2.06       0.31       2.29       ----

> <Gold.Chemscore.Fitness>
13.9577

> <Gold.Chemscore.DG>
-16.5639

> <Gold.Chemscore.ZeroCoef>
-5.4800

> <Gold.Chemscore.Hbond>
1.6369

> <Gold.Chemscore.Metal>
0.0000

> <Gold.Chemscore.Lipo>
93.1058

> <Gold.Chemscore.Internal_Hbond>
0.0000

> <Gold.Chemscore.DEClash>
0.3134

> <Gold.Chemscore.DEInternal>
2.2929

> <Gold.Chemscore.Rot>
2.0611

> <Gold.Chemscore.Internal.Correction>
   9.000000E+99

> <Gold.Chemscore.Hbonds>
donor molecule, donor type, donor heavy atom, donor atom, acceptor molecule, acceptor atom, score
      L1  H    21    45       P1 10747  0.95
      P1  H  7989  7998       L1     6  0.01
      P1  H  7997  8008       L1     6  0.13

> <Gold.Chemscore.Hbond.Weighted>
-5.4671

> <Gold.Chemscore.Metal.Weighted>
-0.0000

> <Gold.Chemscore.Lipo.Weighted>
-10.8934

> <Gold.Chemscore.Internal_Hbond.Weighted>
0.0000

> <Gold.Chemscore.DEClash.Weighted>
0.3134

> <Gold.Chemscore.DEInternal.Weighted>
2.2929

> <Gold.Chemscore.Rot.Weighted>
5.2765

> <Gold.Chemscore.Internal.Correction.Weighted>
   9.000000E+99

> <Gold.Protein.RotatedTorsions>
[ 6907 6896 6895 6894 ] final   48.16 input  -60.11 | X-H torsion
[ 7974 7965 7964 7962 ] final -179.59 input  175.53 | X-H torsion
[ 8008 7997 7996 7995 ] final  -12.31 input   59.86 | X-H torsion
[ 10167 10162 10161 10158 ] final  159.14 input  -65.29 | X-H torsion
[ 10718 10713 10712 10709 ] final  136.71 input   66.30 | X-H torsion
[ 10763 10752 10751 10750 ] final  -53.68 input  -60.55 | X-H torsion
[ 11005 11000 10999 10996 ] final   13.60 input  -57.11 | X-H torsion

> <Gold.Protein.ActiveResidues>
 VAL166  LYS551  ARG553  GLY616  TRP617  ASP618  TYR619  PRO620  LYS621  CYS622 
 ASP623  PHE694  ASN695  SER759  ASP760  ASP761  ALA762  ILE779  LEU786  VAL792 
 PHE793  MET794  SER795  GLU796  ALA797  LYS798  CYS799  TRP800  GLU811  SER814 

> <Gold.Protein.RotatedAtoms>
  152.2764  134.7877  160.0404 H   0  0  0  0  0  0  0  0  0  0  0  0  # atno 6907 bound_to 6896
  151.8472  133.3428  159.3670 H   0  0  0  0  0  0  0  0  0  0  0  0  # atno 6908 bound_to 6896
  150.7172  134.5263  159.5722 H   0  0  0  0  0  0  0  0  0  0  0  0  # atno 6909 bound_to 6896
  144.7138  140.0694  143.6430 H   0  0  0  0  0  0  0  0  0  0  0  0  # atno 7974 bound_to 7965
  154.5388  140.2279  155.8676 H   0  0  0  0  0  0  0  0  0  0  0  0  # atno 8008 bound_to 7997
  156.1838  140.3094  155.9162 H   0  0  0  0  0  0  0  0  0  0  0  0  # atno 8009 bound_to 7997
  155.3299  140.0445  157.3033 H   0  0  0  0  0  0  0  0  0  0  0  0  # atno 8010 bound_to 7997
  139.4830  144.4758  151.8513 H   0  0  0  0  0  0  0  0  0  0  0  0  # atno 10167 bound_to 10162
  157.4438  131.1060  151.0113 H   0  0  0  0  0  0  0  0  0  0  0  0  # atno 10718 bound_to 10713
  154.1627  135.6472  153.4990 H   0  0  0  0  0  0  0  0  0  0  0  0  # atno 10763 bound_to 10752
  153.0106  135.5364  154.6694 H   0  0  0  0  0  0  0  0  0  0  0  0  # atno 10764 bound_to 10752
  154.6012  135.2944  155.0505 H   0  0  0  0  0  0  0  0  0  0  0  0  # atno 10765 bound_to 10752
  140.4789  134.0956  155.7747 H   0  0  0  0  0  0  0  0  0  0  0  0  # atno 11005 bound_to 11000
  145.9796  139.2931  143.1050 LP  0  0  0  0  0  0  0  0  0  0  0  0  # atno 17320 bound_to 7965
  145.9026  140.9233  143.0495 LP  0  0  0  0  0  0  0  0  0  0  0  0  # atno 17321 bound_to 7965
  140.4230  144.2218  150.5887 LP  0  0  0  0  0  0  0  0  0  0  0  0  # atno 17342 bound_to 10162
  140.4855  143.2364  151.8894 LP  0  0  0  0  0  0  0  0  0  0  0  0  # atno 17343 bound_to 10162
  157.0967  130.5964  149.5451 LP  0  0  0  0  0  0  0  0  0  0  0  0  # atno 17370 bound_to 10713
  155.9959  130.5027  150.7477 LP  0  0  0  0  0  0  0  0  0  0  0  0  # atno 17371 bound_to 10713
  141.1541  133.8915  157.2023 LP  0  0  0  0  0  0  0  0  0  0  0  0  # atno 17394 bound_to 11000
  139.9839  135.0089  156.9815 LP  0  0  0  0  0  0  0  0  0  0  0  0  # atno 17395 bound_to 11000

$$$$
