AV-unprocessed.smi:2061|AV-procd|sdf|8389|dock7
  -GOLD-   2272011 73D 1   1.00000     0.00000
 Structure written by MMmdl.
 45 46  0  0  0  0  0  0  0  0  3 V2000
  153.1931  142.6959  160.3897 C   0  0  0  0  0  0  0  0  0  0  0  0
  152.3339  142.8142  159.1781 C   0  0  0  0  0  0  0  0  0  0  0  0
  151.3934  141.9942  158.6210 C   0  0  0  0  0  0  0  0  0  0  0  0
  150.9716  142.7206  157.4756 C   0  0  0  0  0  0  0  0  0  0  0  0
  149.9818  142.1906  156.6062 N   0  0  0  0  0  0  0  0  0  0  0  0
  149.6260  140.9065  156.4190 C   0  0  0  0  0  0  0  0  0  0  0  0
  150.1984  140.0021  157.0392 O   0  0  0  0  0  0  0  0  0  0  0  0
  148.6121  140.7778  155.5191 N   0  5  0  0  0  0  0  0  0  0  0  0
  148.4084  141.6481  154.3596 C   0  0  0  0  0  0  0  0  0  0  0  0
  147.1768  141.1915  153.5277 C   0  0  1  0  0  0  0  0  0  0  0  0
  147.1456  139.6716  153.2263 C   0  0  0  0  0  0  0  0  0  0  0  0
  145.9081  141.6880  154.1463 N   0  3  1  0  0  0  0  0  0  0  0  0
  145.6268  141.0965  155.4781 C   0  0  0  0  0  0  0  0  0  0  0  0
  144.2211  141.5040  155.9600 C   0  0  1  0  0  0  0  0  0  0  0  0
  143.9219  140.9879  157.3719 C   0  0  0  0  0  0  0  0  0  0  0  0
  144.1213  142.9243  155.9784 O   0  0  0  0  0  0  0  0  0  0  0  0
  144.3081  143.5051  154.6921 C   0  0  1  0  0  0  0  0  0  0  0  0
  144.0861  145.0167  154.8132 C   0  0  0  0  0  0  0  0  0  0  0  0
  145.7241  143.1650  154.1945 C   0  0  0  0  0  0  0  0  0  0  0  0
  151.5968  143.8818  157.3485 N   0  0  0  0  0  0  0  0  0  0  0  0
  152.4721  143.9480  158.4390 O   0  0  0  0  0  0  0  0  0  0  0  0
  153.1112  141.7020  160.8299 H   0  0  0  0  0  0  0  0  0  0  0  0
  152.8985  143.4258  161.1438 H   0  0  0  0  0  0  0  0  0  0  0  0
  154.2399  142.8691  160.1399 H   0  0  0  0  0  0  0  0  0  0  0  0
  151.0637  141.0287  158.9752 H   0  0  0  0  0  0  0  0  0  0  0  0
  149.4650  142.8704  156.0681 H   0  0  0  0  0  0  0  0  0  0  0  0
  148.2654  142.6851  154.6640 H   0  0  0  0  0  0  0  0  0  0  0  0
  149.2864  141.6635  153.7119 H   0  0  0  0  0  0  0  0  0  0  0  0
  147.2633  141.6975  152.5648 H   0  0  0  0  0  0  0  0  0  0  0  0
  148.0035  139.3598  152.6281 H   0  0  0  0  0  0  0  0  0  0  0  0
  146.2576  139.4065  152.6524 H   0  0  0  0  0  0  0  0  0  0  0  0
  147.1434  139.0619  154.1315 H   0  0  0  0  0  0  0  0  0  0  0  0
  145.6857  140.0086  155.4229 H   0  0  0  0  0  0  0  0  0  0  0  0
  146.3842  141.4240  156.1919 H   0  0  0  0  0  0  0  0  0  0  0  0
  143.4697  141.1019  155.2779 H   0  0  0  0  0  0  0  0  0  0  0  0
  143.9768  139.8998  157.4124 H   0  0  0  0  0  0  0  0  0  0  0  0
  142.9212  141.2820  157.6896 H   0  0  0  0  0  0  0  0  0  0  0  0
  144.6319  141.3863  158.0973 H   0  0  0  0  0  0  0  0  0  0  0  0
  143.5669  143.0993  154.0011 H   0  0  0  0  0  0  0  0  0  0  0  0
  144.2096  145.5104  153.8489 H   0  0  0  0  0  0  0  0  0  0  0  0
  144.7932  145.4654  155.5116 H   0  0  0  0  0  0  0  0  0  0  0  0
  143.0798  145.2352  155.1714 H   0  0  0  0  0  0  0  0  0  0  0  0
  146.4602  143.6128  154.8636 H   0  0  0  0  0  0  0  0  0  0  0  0
  145.8784  143.6029  153.2079 H   0  0  0  0  0  0  0  0  0  0  0  0
  145.1792  141.3347  153.5425 H   0  0  0  0  0  0  0  0  0  0  0  0
  1  2  1  0  0  0  0
  1 22  1  0  0  0  0
  1 23  1  0  0  0  0
  1 24  1  0  0  0  0
  2 21  1  0  0  0  0
  2  3  2  0  0  0  0
  3  4  1  0  0  0  0
  3 25  1  0  0  0  0
  4  5  1  0  0  0  0
  4 20  2  0  0  0  0
  5  6  1  0  0  0  0
  5 26  1  0  0  0  0
  6  7  2  0  0  0  0
  6  8  1  0  0  0  0
  8  9  1  0  0  0  0
  9 10  1  0  0  0  0
  9 27  1  0  0  0  0
  9 28  1  0  0  0  0
 10 11  1  0  0  0  0
 10 12  1  0  0  0  0
 10 29  1  0  0  0  0
 11 30  1  0  0  0  0
 11 31  1  0  0  0  0
 11 32  1  0  0  0  0
 12 19  1  0  0  0  0
 12 13  1  0  0  0  0
 12 45  1  0  0  0  0
 13 14  1  0  0  0  0
 13 33  1  0  0  0  0
 13 34  1  0  0  0  0
 14 15  1  0  0  0  0
 14 16  1  0  0  0  0
 14 35  1  0  0  0  0
 15 36  1  0  0  0  0
 15 37  1  0  0  0  0
 15 38  1  0  0  0  0
 16 17  1  0  0  0  0
 17 18  1  0  0  0  0
 17 19  1  0  0  0  0
 17 39  1  0  0  0  0
 18 40  1  0  0  0  0
 18 41  1  0  0  0  0
 18 42  1  0  0  0  0
 19 43  1  0  0  0  0
 19 44  1  0  0  0  0
 20 21  1  0  0  0  0
M  CHG  1   8  -1
M  CHG  1  12   1
M  END
> <s_m_source_file>
AV-unprocessed.smi

> <i_m_source_file_index>
2061

> <i_lp_mmshare_version>
43012

> <i_f3d_flags>
0

> <s_epik_input>
W0NIM11jMVtjSF1jKG5vMSlbTkhdQyg9TylbTkhdW0NIMl1bQ0BIXShbQ0gzXSlOMltDSDJdW0NAQEhdKFtDSDNdKU9bQ0BASF0oW0NIM10pW0NIMl0y

> <s_epik_cmdline>
J2VwaWtfcHl0aG9uJywgJy1waCcsICc3LjAnLCAnLXRuJywgJzgnLCAnLW1hJywgJzIwMCcsICctbWV0YWxfYmluZGluZycsICctaW1hZScsICc8aW5maWxlLm1hZT4nLCAnLW9tYWUnLCAnPG91dGZpbGUubWFlPic=

> <r_epik_Ionization_Penalty>
6.8073

> <r_epik_Ionization_Penalty_Charging>
6.80729

> <r_epik_Ionization_Penalty_Neutral>
5.65391e-06

> <r_epik_State_Penalty>
7.47323

> <r_epik_Charging_Adjusted_Penalty>
14.2805

> <i_epik_Tot_Q>
0

> <i_epik_Tot_abs_Q>
2

> <r_epik_Metal_State_Penalty>
3.40035

> <b_epik_Metal_Only>
1

> <s_lp_Force_Field>
OPLS_2005

> <r_lp_Energy>
16.6672

> <b_lp_Chiralities_Consistent>
1

> <s_lp_Variant>
AV-unprocessed.smi:2061-30

> <Gold.Version>
5.8.1

> <Gold.Id.Protein>
6NUR|6NUR_protein|mol2

> <Gold.PLP.Fitness>
42.2214

> <Gold.PLP.PLP>
-34.1355

> <Gold.PLP.part.hbond>
-1.9838

> <Gold.PLP.part.metal>
0.0000

> <Gold.PLP.part.buried>
-5.8327

> <Gold.PLP.part.nonpolar>
-26.7807

> <Gold.PLP.part.repulsive>
0.3932

> <Gold.PLP.ligand.clash>
0.0000

> <Gold.PLP.ligand.torsion>
0.5357

> <Gold.PLP.Chemscore.Hbond>
3.0000

> <Gold.PLP.Chemscore.CHOScore>
0.0000

> <Gold.PLP.Chemscore.Metal>
0.0000

> <Gold.Chemscore.Hbonds>
donor molecule, donor type, donor heavy atom, donor atom, acceptor molecule, acceptor atom, score
      L1  H     5    26       P1  8028  1.00
      L1  H    12    45       P1 10175  2.00

> <Gold.PLP.Chemscore.Internal.Correction>
0.1574

> <Gold.Rescore>
     Score         DG    S(hbond)    S(metal)    S(lipo)     H(rot)  DE(clash)    DE(int)     intcor
     13.59     -15.73       1.69        0.00      73.26       1.56       0.07       2.07       ----

> <Gold.Chemscore.Fitness>
13.5889

> <Gold.Chemscore.DG>
-15.7292

> <Gold.Chemscore.ZeroCoef>
-5.4800

> <Gold.Chemscore.Hbond>
1.6943

> <Gold.Chemscore.Metal>
0.0000

> <Gold.Chemscore.Lipo>
73.2568

> <Gold.Chemscore.Internal_Hbond>
0.0000

> <Gold.Chemscore.DEClash>
0.0714

> <Gold.Chemscore.DEInternal>
2.0689

> <Gold.Chemscore.Rot>
1.5550

> <Gold.Chemscore.Internal.Correction>
   9.000000E+99

> <Gold.Chemscore.Hbonds>
donor molecule, donor type, donor heavy atom, donor atom, acceptor molecule, acceptor atom, score
      L1  H     5    26       P1  8028  0.94
      L1  H    12    45       P1 10175  0.24

> <Gold.Chemscore.Hbond.Weighted>
-5.6590

> <Gold.Chemscore.Metal.Weighted>
-0.0000

> <Gold.Chemscore.Lipo.Weighted>
-8.5710

> <Gold.Chemscore.Internal_Hbond.Weighted>
0.0000

> <Gold.Chemscore.DEClash.Weighted>
0.0714

> <Gold.Chemscore.DEInternal.Weighted>
2.0689

> <Gold.Chemscore.Rot.Weighted>
3.9809

> <Gold.Chemscore.Internal.Correction.Weighted>
   9.000000E+99

> <Gold.Protein.RotatedTorsions>
[ 6907 6896 6895 6894 ] final -132.63 input  -60.11 | X-H torsion
[ 7974 7965 7964 7962 ] final   73.65 input  175.53 | X-H torsion
[ 8008 7997 7996 7995 ] final   26.41 input   59.86 | X-H torsion
[ 10167 10162 10161 10158 ] final -167.62 input  -65.29 | X-H torsion
[ 10718 10713 10712 10709 ] final  -78.24 input   66.30 | X-H torsion
[ 10763 10752 10751 10750 ] final  -79.76 input  -60.55 | X-H torsion
[ 11005 11000 10999 10996 ] final   -6.52 input  -57.11 | X-H torsion

> <Gold.Protein.ActiveResidues>
 VAL166  LYS551  ARG553  GLY616  TRP617  ASP618  TYR619  PRO620  LYS621  CYS622 
 ASP623  PHE694  ASN695  SER759  ASP760  ASP761  ALA762  ILE779  LEU786  VAL792 
 PHE793  MET794  SER795  GLU796  ALA797  LYS798  CYS799  TRP800  GLU811  SER814 

> <Gold.Protein.RotatedAtoms>
  150.9646  133.6408  159.2748 H   0  0  0  0  0  0  0  0  0  0  0  0  # atno 6907 bound_to 6896
  151.3718  135.0923  159.9478 H   0  0  0  0  0  0  0  0  0  0  0  0  # atno 6908 bound_to 6896
  152.5161  133.9199  159.7584 H   0  0  0  0  0  0  0  0  0  0  0  0  # atno 6909 bound_to 6896
  145.7381  139.2710  143.1502 H   0  0  0  0  0  0  0  0  0  0  0  0  # atno 7974 bound_to 7965
  155.0269  140.3154  155.4773 H   0  0  0  0  0  0  0  0  0  0  0  0  # atno 8008 bound_to 7997
  156.2881  140.2187  156.5331 H   0  0  0  0  0  0  0  0  0  0  0  0  # atno 8009 bound_to 7997
  154.7404  140.0474  157.0794 H   0  0  0  0  0  0  0  0  0  0  0  0  # atno 8010 bound_to 7997
  139.6038  144.0956  152.1771 H   0  0  0  0  0  0  0  0  0  0  0  0  # atno 10167 bound_to 10162
  156.0123  130.4513  150.3466 H   0  0  0  0  0  0  0  0  0  0  0  0  # atno 10718 bound_to 10713
  154.5427  135.5684  153.6853 H   0  0  0  0  0  0  0  0  0  0  0  0  # atno 10763 bound_to 10752
  152.9968  135.6231  154.2480 H   0  0  0  0  0  0  0  0  0  0  0  0  # atno 10764 bound_to 10752
  154.2412  135.2862  155.2833 H   0  0  0  0  0  0  0  0  0  0  0  0  # atno 10765 bound_to 10752
  140.7029  133.8974  155.8696 H   0  0  0  0  0  0  0  0  0  0  0  0  # atno 11005 bound_to 11000
  146.0474  140.8104  142.9799 LP  0  0  0  0  0  0  0  0  0  0  0  0  # atno 17320 bound_to 7965
  144.6877  140.3000  143.7264 LP  0  0  0  0  0  0  0  0  0  0  0  0  # atno 17321 bound_to 7965
  140.0558  144.5896  150.7300 LP  0  0  0  0  0  0  0  0  0  0  0  0  # atno 17342 bound_to 10162
  140.7269  143.2646  151.4088 LP  0  0  0  0  0  0  0  0  0  0  0  0  # atno 17343 bound_to 10162
  157.1560  131.0333  151.2863 LP  0  0  0  0  0  0  0  0  0  0  0  0  # atno 17370 bound_to 10713
  157.4352  130.7513  149.7023 LP  0  0  0  0  0  0  0  0  0  0  0  0  # atno 17371 bound_to 10713
  141.0149  134.0970  157.4183 LP  0  0  0  0  0  0  0  0  0  0  0  0  # atno 17394 bound_to 11000
  139.8892  135.0103  156.6665 LP  0  0  0  0  0  0  0  0  0  0  0  0  # atno 17395 bound_to 11000

$$$$
