AV-unprocessed.smi:2057|AV-procd|sdf|8342|dock7
  -GOLD-   2272011 13D 1   1.00000     0.00000
 Structure written by MMmdl.
 45 47  0  0  0  0  0  0  0  0  2 V2000
  149.4828  133.0649  154.4782 C   0  0  0  0  0  0  0  0  0  0  0  0
  149.4993  134.4827  154.3964 O   0  0  0  0  0  0  0  0  0  0  0  0
  150.4023  135.1690  155.1799 C   0  0  0  0  0  0  0  0  0  0  0  0
  151.1382  134.4188  156.1153 C   0  0  0  0  0  0  0  0  0  0  0  0
  152.0890  135.0360  156.9478 C   0  0  0  0  0  0  0  0  0  0  0  0
  152.3227  136.4311  156.8673 C   0  0  0  0  0  0  0  0  0  0  0  0
  153.2552  137.0902  157.6435 O   0  0  0  0  0  0  0  0  0  0  0  0
  154.2249  136.3192  158.3376 C   0  0  0  0  0  0  0  0  0  0  0  0
  151.5733  137.1966  155.9408 C   0  0  0  0  0  0  0  0  0  0  0  0
  151.8063  138.7005  155.8297 C   0  0  2  0  0  0  0  0  0  0  0  0
  153.1306  139.0293  155.4532 O   0  0  0  0  0  0  0  0  0  0  0  0
  151.4382  139.4132  157.1456 C   0  0  0  0  0  0  0  0  0  0  0  0
  151.0193  140.8081  156.9415 N   0  0  0  0  0  0  0  0  0  0  0  0
  150.1445  141.3311  156.0357 C   0  0  0  0  0  0  0  0  0  0  0  0
  149.3788  140.5686  155.0009 C   0  0  0  0  0  0  0  0  0  0  0  0
  149.7248  140.9201  153.6775 O   0  0  0  0  0  0  0  0  0  0  0  0
  150.0959  142.6763  156.2554 N   0  3  0  0  0  0  0  0  0  0  0  0
  150.9477  143.0160  157.3070 C   0  0  0  0  0  0  0  0  0  0  0  0
  151.2333  144.2484  157.8865 C   0  0  0  0  0  0  0  0  0  0  0  0
  152.1601  144.2482  158.9497 C   0  0  0  0  0  0  0  0  0  0  0  0
  152.7641  143.0552  159.3968 C   0  0  0  0  0  0  0  0  0  0  0  0
  152.4656  141.8117  158.8021 C   0  0  0  0  0  0  0  0  0  0  0  0
  151.5467  141.8199  157.7527 C   0  0  0  0  0  0  0  0  0  0  0  0
  150.6306  136.5636  155.0984 C   0  0  0  0  0  0  0  0  0  0  0  0
  148.7194  132.6745  153.8052 H   0  0  0  0  0  0  0  0  0  0  0  0
  149.2376  132.7270  155.4860 H   0  0  0  0  0  0  0  0  0  0  0  0
  150.4389  132.6358  154.1753 H   0  0  0  0  0  0  0  0  0  0  0  0
  150.9765  133.3536  156.1923 H   0  0  0  0  0  0  0  0  0  0  0  0
  152.6306  134.4105  157.6407 H   0  0  0  0  0  0  0  0  0  0  0  0
  154.8913  136.9876  158.8825 H   0  0  0  0  0  0  0  0  0  0  0  0
  154.8366  135.7338  157.6498 H   0  0  0  0  0  0  0  0  0  0  0  0
  153.7584  135.6533  159.0649 H   0  0  0  0  0  0  0  0  0  0  0  0
  151.1766  139.0893  155.0293 H   0  0  0  0  0  0  0  0  0  0  0  0
  153.5768  138.2332  155.2074 H   0  0  0  0  0  0  0  0  0  0  0  0
  150.6031  138.8990  157.6232 H   0  0  0  0  0  0  0  0  0  0  0  0
  152.2604  139.3790  157.8606 H   0  0  0  0  0  0  0  0  0  0  0  0
  149.5533  139.5010  155.1376 H   0  0  0  0  0  0  0  0  0  0  0  0
  148.3126  140.7436  155.1466 H   0  0  0  0  0  0  0  0  0  0  0  0
  149.5923  140.1661  153.1229 H   0  0  0  0  0  0  0  0  0  0  0  0
  150.7732  145.1638  157.5443 H   0  0  0  0  0  0  0  0  0  0  0  0
  152.4142  145.1819  159.4306 H   0  0  0  0  0  0  0  0  0  0  0  0
  153.4721  143.0940  160.2120 H   0  0  0  0  0  0  0  0  0  0  0  0
  152.9394  140.9053  159.1486 H   0  0  0  0  0  0  0  0  0  0  0  0
  150.0892  137.1665  154.3858 H   0  0  0  0  0  0  0  0  0  0  0  0
  149.5195  143.3110  155.7180 H   0  0  0  0  0  0  0  0  0  0  0  0
  1  2  1  0  0  0  0
  1 25  1  0  0  0  0
  1 26  1  0  0  0  0
  1 27  1  0  0  0  0
  2  3  1  0  0  0  0
  3 24  1  0  0  0  0
  3  4  2  0  0  0  0
  4  5  1  0  0  0  0
  4 28  1  0  0  0  0
  5  6  2  0  0  0  0
  5 29  1  0  0  0  0
  6  7  1  0  0  0  0
  6  9  1  0  0  0  0
  7  8  1  0  0  0  0
  8 30  1  0  0  0  0
  8 31  1  0  0  0  0
  8 32  1  0  0  0  0
  9 10  1  0  0  0  0
  9 24  2  0  0  0  0
 10 11  1  0  0  0  0
 10 12  1  0  0  0  0
 10 33  1  0  0  0  0
 11 34  1  0  0  0  0
 12 13  1  0  0  0  0
 12 35  1  0  0  0  0
 12 36  1  0  0  0  0
 13 23  1  0  0  0  0
 13 14  1  0  0  0  0
 14 15  1  0  0  0  0
 14 17  2  0  0  0  0
 15 16  1  0  0  0  0
 15 37  1  0  0  0  0
 15 38  1  0  0  0  0
 16 39  1  0  0  0  0
 17 18  1  0  0  0  0
 17 45  1  0  0  0  0
 18 23  2  0  0  0  0
 18 19  1  0  0  0  0
 19 20  2  0  0  0  0
 19 40  1  0  0  0  0
 20 21  1  0  0  0  0
 20 41  1  0  0  0  0
 21 22  2  0  0  0  0
 21 42  1  0  0  0  0
 22 23  1  0  0  0  0
 22 43  1  0  0  0  0
 24 44  1  0  0  0  0
M  CHG  1  17   1
M  END
> <s_m_source_file>
AV-unprocessed.smi

> <i_m_source_file_index>
2057

> <i_lp_mmshare_version>
43012

> <i_f3d_flags>
0

> <s_epik_input>
W0NIM11PYzFbY0hdW2NIXWMoT1tDSDNdKWMoW2NIXTEpW0NASF0oW09IXSlbQ0gyXW4oYyhuMilbQ0gyXVtPSF0pYyhjMjMpW2NIXVtjSF1bY0hdW2NIXTM=

> <s_epik_cmdline>
J2VwaWtfcHl0aG9uJywgJy1waCcsICc3LjAnLCAnLXRuJywgJzgnLCAnLW1hJywgJzIwMCcsICctbWV0YWxfYmluZGluZycsICctaW1hZScsICc8aW5maWxlLm1hZT4nLCAnLW9tYWUnLCAnPG91dGZpbGUubWFlPic=

> <r_lp_tautomer_probability>
1

> <r_epik_Ionization_Penalty>
1.35643

> <r_epik_Ionization_Penalty_Charging>
1.35557

> <r_epik_Ionization_Penalty_Neutral>
0.000857128

> <r_epik_State_Penalty>
1.43401

> <r_epik_Charging_Adjusted_Penalty>
2.78958

> <i_epik_Tot_Q>
1

> <i_epik_Tot_abs_Q>
1

> <r_epik_Metal_State_Penalty>
5.47166

> <b_epik_Metal_Only>
0

> <s_lp_Force_Field>
OPLS_2005

> <r_lp_Energy>
20.8096

> <b_lp_Chiralities_Consistent>
1

> <s_lp_Variant>
AV-unprocessed.smi:2057-3

> <Gold.Version>
5.8.1

> <Gold.Id.Protein>
6NUR|6NUR_protein|mol2

> <Gold.PLP.Fitness>
54.1562

> <Gold.PLP.PLP>
-42.9634

> <Gold.PLP.part.hbond>
-4.6083

> <Gold.PLP.part.metal>
0.0000

> <Gold.PLP.part.buried>
-2.8152

> <Gold.PLP.part.nonpolar>
-36.9420

> <Gold.PLP.part.repulsive>
0.9377

> <Gold.PLP.ligand.clash>
2.0420

> <Gold.PLP.ligand.torsion>
0.6715

> <Gold.PLP.Chemscore.Hbond>
4.8304

> <Gold.PLP.Chemscore.CHOScore>
0.0000

> <Gold.PLP.Chemscore.Metal>
0.0000

> <Gold.Chemscore.Hbonds>
donor molecule, donor type, donor heavy atom, donor atom, acceptor molecule, acceptor atom, score
      L1  H    16    39       P1  7957  0.59
      L1  H    17    45       P1  8028  1.82
      P1  H  7989  7998       L1    16  0.26
      P1  H  7997  8009       L1    11  1.00
      P1  H  8011  8017       L1    16  1.00

> <Gold.PLP.Chemscore.Internal.Correction>
0.0866

> <Gold.Rescore>
     Score         DG    S(hbond)    S(metal)    S(lipo)     H(rot)  DE(clash)    DE(int)     intcor
     18.83     -20.29       2.68        0.00     121.14       3.25       0.72       0.74       ----

> <Gold.Chemscore.Fitness>
18.8265

> <Gold.Chemscore.DG>
-20.2863

> <Gold.Chemscore.ZeroCoef>
-5.4800

> <Gold.Chemscore.Hbond>
2.6834

> <Gold.Chemscore.Metal>
0.0000

> <Gold.Chemscore.Lipo>
121.1387

> <Gold.Chemscore.Internal_Hbond>
0.0000

> <Gold.Chemscore.DEClash>
0.7184

> <Gold.Chemscore.DEInternal>
0.7414

> <Gold.Chemscore.Rot>
3.2537

> <Gold.Chemscore.Internal.Correction>
   9.000000E+99

> <Gold.Chemscore.Hbonds>
donor molecule, donor type, donor heavy atom, donor atom, acceptor molecule, acceptor atom, score
      L1  H    16    39       P1  7957  0.57
      L1  H    17    45       P1  8028  0.85
      P1  H  7989  7998       L1    16  0.02
      P1  H  7997  8009       L1    11  0.38
      P1  H  8011  8017       L1    16  0.31

> <Gold.Chemscore.Hbond.Weighted>
-8.9626

> <Gold.Chemscore.Metal.Weighted>
-0.0000

> <Gold.Chemscore.Lipo.Weighted>
-14.1732

> <Gold.Chemscore.Internal_Hbond.Weighted>
0.0000

> <Gold.Chemscore.DEClash.Weighted>
0.7184

> <Gold.Chemscore.DEInternal.Weighted>
0.7414

> <Gold.Chemscore.Rot.Weighted>
8.3295

> <Gold.Chemscore.Internal.Correction.Weighted>
   9.000000E+99

> <Gold.Protein.RotatedTorsions>
[ 6907 6896 6895 6894 ] final  -34.86 input  -60.11 | X-H torsion
[ 7974 7965 7964 7962 ] final   91.71 input  175.53 | X-H torsion
[ 8008 7997 7996 7995 ] final -129.82 input   59.86 | X-H torsion
[ 10167 10162 10161 10158 ] final  -10.98 input  -65.29 | X-H torsion
[ 10718 10713 10712 10709 ] final   36.53 input   66.30 | X-H torsion
[ 10763 10752 10751 10750 ] final   56.03 input  -60.55 | X-H torsion
[ 11005 11000 10999 10996 ] final   68.16 input  -57.11 | X-H torsion

> <Gold.Protein.ActiveResidues>
 VAL166  LYS551  ARG553  GLY616  TRP617  ASP618  TYR619  PRO620  LYS621  CYS622 
 ASP623  PHE694  ASN695  SER759  ASP760  ASP761  ALA762  ILE779  LEU786  VAL792 
 PHE793  MET794  SER795  GLU796  ALA797  LYS798  CYS799  TRP800  GLU811  SER814 

> <Gold.Protein.RotatedAtoms>
  151.0472  134.9648  159.8192 H   0  0  0  0  0  0  0  0  0  0  0  0  # atno 6907 bound_to 6896
  152.5374  134.2583  159.8935 H   0  0  0  0  0  0  0  0  0  0  0  0  # atno 6908 bound_to 6896
  151.2597  133.4265  159.2649 H   0  0  0  0  0  0  0  0  0  0  0  0  # atno 6909 bound_to 6896
  145.5021  139.2276  143.2771 H   0  0  0  0  0  0  0  0  0  0  0  0  # atno 7974 bound_to 7965
  155.2856  140.0446  157.3019 H   0  0  0  0  0  0  0  0  0  0  0  0  # atno 8008 bound_to 7997
  154.5571  140.2335  155.8361 H   0  0  0  0  0  0  0  0  0  0  0  0  # atno 8009 bound_to 7997
  156.2016  140.3024  155.9547 H   0  0  0  0  0  0  0  0  0  0  0  0  # atno 8010 bound_to 7997
  140.7127  143.5689  150.9114 H   0  0  0  0  0  0  0  0  0  0  0  0  # atno 10167 bound_to 10162
  157.3360  130.7522  149.6879 H   0  0  0  0  0  0  0  0  0  0  0  0  # atno 10718 bound_to 10713
  152.9825  135.5690  154.5163 H   0  0  0  0  0  0  0  0  0  0  0  0  # atno 10763 bound_to 10752
  154.4659  135.2783  155.1681 H   0  0  0  0  0  0  0  0  0  0  0  0  # atno 10764 bound_to 10752
  154.3249  135.6261  153.5578 H   0  0  0  0  0  0  0  0  0  0  0  0  # atno 10765 bound_to 10752
  139.9728  134.6872  156.0413 H   0  0  0  0  0  0  0  0  0  0  0  0  # atno 11005 bound_to 11000
  146.2220  140.5822  142.9013 LP  0  0  0  0  0  0  0  0  0  0  0  0  # atno 17320 bound_to 7965
  144.7774  140.5769  143.6628 LP  0  0  0  0  0  0  0  0  0  0  0  0  # atno 17321 bound_to 7965
  139.9415  143.6377  152.3052 LP  0  0  0  0  0  0  0  0  0  0  0  0  # atno 17342 bound_to 10162
  139.6863  144.7651  151.1518 LP  0  0  0  0  0  0  0  0  0  0  0  0  # atno 17343 bound_to 10162
  155.9701  130.4181  150.4313 LP  0  0  0  0  0  0  0  0  0  0  0  0  # atno 17370 bound_to 10713
  157.2353  131.0513  151.2468 LP  0  0  0  0  0  0  0  0  0  0  0  0  # atno 17371 bound_to 10713
  141.1407  133.6565  156.3721 LP  0  0  0  0  0  0  0  0  0  0  0  0  # atno 17394 bound_to 11000
  140.5258  134.6261  157.5333 LP  0  0  0  0  0  0  0  0  0  0  0  0  # atno 17395 bound_to 11000

$$$$
