AV-unprocessed.smi:2478|AV-procd|sdf|9763|dock6
  -GOLD-   2272013403D 1   1.00000     0.00000
 Structure written by MMmdl.
 42 43  0  0  0  0  0  0  0  0  1 V2000
  146.8386  137.3235  162.9542 C   0  0  0  0  0  0  0  0  0  0  0  0
  146.8052  136.1238  161.9932 C   0  0  2  0  0  0  0  0  0  0  0  0
  146.8562  134.7971  162.7782 C   0  0  0  0  0  0  0  0  0  0  0  0
  146.8321  133.5790  161.8428 C   0  0  0  0  0  0  0  0  0  0  0  0
  147.9770  133.6461  160.8231 C   0  0  0  0  0  0  0  0  0  0  0  0
  147.9285  134.9577  160.0261 C   0  0  0  0  0  0  0  0  0  0  0  0
  147.9490  136.1902  160.9554 C   0  0  1  0  0  0  0  0  0  0  0  0
  147.7687  137.3683  160.1787 O   0  0  0  0  0  0  0  0  0  0  0  0
  148.6784  137.5014  159.0963 C   0  0  0  0  0  0  0  0  0  0  0  0
  148.0021  138.3036  157.9863 C   0  0  0  0  0  0  0  0  0  0  0  0
  146.8714  137.9879  157.6158 O   0  0  0  0  0  0  0  0  0  0  0  0
  148.7162  139.3285  157.4850 N   0  0  0  0  0  0  0  0  0  0  0  0
  148.3643  140.2261  156.4396 C   0  0  0  0  0  0  0  0  0  0  0  0
  147.0892  140.6263  156.2061 N   0  0  0  0  0  0  0  0  0  0  0  0
  146.8362  141.4714  155.1867 C   0  0  0  0  0  0  0  0  0  0  0  0
  147.8377  141.9658  154.3342 C   0  0  0  0  0  0  0  0  0  0  0  0
  149.1636  141.5606  154.5646 C   0  0  0  0  0  0  0  0  0  0  0  0
  149.4426  140.6831  155.6402 C   0  0  0  0  0  0  0  0  0  0  0  0
  150.7174  140.2347  155.9122 O   0  0  0  0  0  0  0  0  0  0  0  0
  151.3872  139.5253  154.9653 C   0  0  0  0  0  0  0  0  0  0  0  0
  152.5977  139.1515  155.4451 F   0  0  0  0  0  0  0  0  0  0  0  0
  150.7051  138.3975  154.6484 F   0  0  0  0  0  0  0  0  0  0  0  0
  147.7712  137.3535  163.5186 H   0  0  0  0  0  0  0  0  0  0  0  0
  146.0182  137.2753  163.6704 H   0  0  0  0  0  0  0  0  0  0  0  0
  146.7455  138.2672  162.4160 H   0  0  0  0  0  0  0  0  0  0  0  0
  145.8568  136.1567  161.4545 H   0  0  0  0  0  0  0  0  0  0  0  0
  147.7589  134.7651  163.3900 H   0  0  0  0  0  0  0  0  0  0  0  0
  146.0147  134.7405  163.4695 H   0  0  0  0  0  0  0  0  0  0  0  0
  146.9070  132.6603  162.4250 H   0  0  0  0  0  0  0  0  0  0  0  0
  145.8760  133.5369  161.3192 H   0  0  0  0  0  0  0  0  0  0  0  0
  148.9343  133.5660  161.3399 H   0  0  0  0  0  0  0  0  0  0  0  0
  147.9195  132.7960  160.1427 H   0  0  0  0  0  0  0  0  0  0  0  0
  148.7677  134.9851  159.3314 H   0  0  0  0  0  0  0  0  0  0  0  0
  147.0245  134.9769  159.4159 H   0  0  0  0  0  0  0  0  0  0  0  0
  148.8995  136.2312  161.4914 H   0  0  0  0  0  0  0  0  0  0  0  0
  149.5884  138.0028  159.4312 H   0  0  0  0  0  0  0  0  0  0  0  0
  148.9626  136.5283  158.6959 H   0  0  0  0  0  0  0  0  0  0  0  0
  149.6245  139.4826  157.8977 H   0  0  0  0  0  0  0  0  0  0  0  0
  145.8046  141.7572  155.0440 H   0  0  0  0  0  0  0  0  0  0  0  0
  147.5950  142.6354  153.5225 H   0  0  0  0  0  0  0  0  0  0  0  0
  149.9481  141.9198  153.9155 H   0  0  0  0  0  0  0  0  0  0  0  0
  151.5537  140.1136  154.0626 H   0  0  0  0  0  0  0  0  0  0  0  0
  1  2  1  0  0  0  0
  1 23  1  0  0  0  0
  1 24  1  0  0  0  0
  1 25  1  0  0  0  0
  2  7  1  0  0  0  0
  2  3  1  0  0  0  0
  2 26  1  0  0  0  0
  3  4  1  0  0  0  0
  3 27  1  0  0  0  0
  3 28  1  0  0  0  0
  4  5  1  0  0  0  0
  4 29  1  0  0  0  0
  4 30  1  0  0  0  0
  5  6  1  0  0  0  0
  5 31  1  0  0  0  0
  5 32  1  0  0  0  0
  6  7  1  0  0  0  0
  6 33  1  0  0  0  0
  6 34  1  0  0  0  0
  7  8  1  0  0  0  0
  7 35  1  0  0  0  0
  8  9  1  0  0  0  0
  9 10  1  0  0  0  0
  9 36  1  0  0  0  0
  9 37  1  0  0  0  0
 10 11  2  0  0  0  0
 10 12  1  0  0  0  0
 12 13  1  0  0  0  0
 12 38  1  0  0  0  0
 13 18  1  0  0  0  0
 13 14  2  0  0  0  0
 14 15  1  0  0  0  0
 15 16  2  0  0  0  0
 15 39  1  0  0  0  0
 16 17  1  0  0  0  0
 16 40  1  0  0  0  0
 17 18  2  0  0  0  0
 17 41  1  0  0  0  0
 18 19  1  0  0  0  0
 19 20  1  0  0  0  0
 20 21  1  0  0  0  0
 20 22  1  0  0  0  0
 20 42  1  0  0  0  0
M  END
> <s_m_source_file>
AV-unprocessed.smi

> <i_m_source_file_index>
2478

> <i_lp_mmshare_version>
43012

> <i_f3d_flags>
0

> <s_epik_input>
W0NIM11bQ0BASF0xW0NIMl1bQ0gyXVtDSDJdW0NIMl1bQ0BIXTFPW0NIMl1DKD1PKVtOSF1jMm5bY0hdW2NIXVtjSF1jMk9bQ0hdKEYpRg==

> <s_epik_cmdline>
J2VwaWtfcHl0aG9uJywgJy1waCcsICc3LjAnLCAnLXRuJywgJzgnLCAnLW1hJywgJzIwMCcsICctbWV0YWxfYmluZGluZycsICctaW1hZScsICc8aW5maWxlLm1hZT4nLCAnLW9tYWUnLCAnPG91dGZpbGUubWFlPic=

> <r_lp_tautomer_probability>
1

> <r_epik_Ionization_Penalty>
6.06012e-05

> <r_epik_Ionization_Penalty_Charging>
0

> <r_epik_Ionization_Penalty_Neutral>
6.06012e-05

> <r_epik_State_Penalty>
-0

> <r_epik_Charging_Adjusted_Penalty>
0

> <i_epik_Tot_Q>
0

> <i_epik_Tot_abs_Q>
0

> <r_epik_Metal_State_Penalty>
-0

> <b_epik_Metal_Only>
0

> <s_lp_Force_Field>
OPLS_2005

> <r_lp_Energy>
14.0723

> <b_lp_Chiralities_Consistent>
1

> <s_lp_Variant>
AV-unprocessed.smi:2478-1

> <Gold.Version>
5.8.1

> <Gold.Id.Protein>
6NUR|6NUR_protein|mol2

> <Gold.PLP.Fitness>
43.3126

> <Gold.PLP.PLP>
-41.8153

> <Gold.PLP.part.hbond>
-1.8598

> <Gold.PLP.part.metal>
0.0000

> <Gold.PLP.part.buried>
-2.2429

> <Gold.PLP.part.nonpolar>
-37.6316

> <Gold.PLP.part.repulsive>
0.1087

> <Gold.PLP.ligand.clash>
0.0000

> <Gold.PLP.ligand.torsion>
0.5242

> <Gold.PLP.Chemscore.Hbond>
0.8205

> <Gold.PLP.Chemscore.CHOScore>
0.0000

> <Gold.PLP.Chemscore.Metal>
0.0000

> <Gold.Chemscore.Hbonds>
donor molecule, donor type, donor heavy atom, donor atom, acceptor molecule, acceptor atom, score
      P1  H  6931  6943       L1     8  0.02
      P1  H  6934  6947       L1     8  0.82

> <Gold.PLP.Chemscore.Internal.Correction>
0.0843

> <Gold.Rescore>
     Score         DG    S(hbond)    S(metal)    S(lipo)     H(rot)  DE(clash)    DE(int)     intcor
     12.74     -14.13       0.81        0.00      91.31       1.85       0.19       1.19       ----

> <Gold.Chemscore.Fitness>
12.7415

> <Gold.Chemscore.DG>
-14.1270

> <Gold.Chemscore.ZeroCoef>
-5.4800

> <Gold.Chemscore.Hbond>
0.8068

> <Gold.Chemscore.Metal>
0.0000

> <Gold.Chemscore.Lipo>
91.3110

> <Gold.Chemscore.Internal_Hbond>
0.0000

> <Gold.Chemscore.DEClash>
0.1923

> <Gold.Chemscore.DEInternal>
1.1933

> <Gold.Chemscore.Rot>
1.8481

> <Gold.Chemscore.Internal.Correction>
   9.000000E+99

> <Gold.Chemscore.Hbonds>
donor molecule, donor type, donor heavy atom, donor atom, acceptor molecule, acceptor atom, score
      P1  H  6934  6947       L1     8  0.71

> <Gold.Chemscore.Hbond.Weighted>
-2.6947

> <Gold.Chemscore.Metal.Weighted>
-0.0000

> <Gold.Chemscore.Lipo.Weighted>
-10.6834

> <Gold.Chemscore.Internal_Hbond.Weighted>
0.0000

> <Gold.Chemscore.DEClash.Weighted>
0.1923

> <Gold.Chemscore.DEInternal.Weighted>
1.1933

> <Gold.Chemscore.Rot.Weighted>
4.7311

> <Gold.Chemscore.Internal.Correction.Weighted>
   9.000000E+99

> <Gold.Protein.RotatedTorsions>
[ 6907 6896 6895 6894 ] final -153.72 input  -60.11 | X-H torsion
[ 7974 7965 7964 7962 ] final  121.45 input  175.53 | X-H torsion
[ 8008 7997 7996 7995 ] final  139.47 input   59.86 | X-H torsion
[ 10167 10162 10161 10158 ] final -164.74 input  -65.29 | X-H torsion
[ 10718 10713 10712 10709 ] final -175.07 input   66.30 | X-H torsion
[ 10763 10752 10751 10750 ] final   15.36 input  -60.55 | X-H torsion
[ 11005 11000 10999 10996 ] final  -80.25 input  -57.11 | X-H torsion

> <Gold.Protein.ActiveResidues>
 VAL166  LYS551  ARG553  GLY616  TRP617  ASP618  TYR619  PRO620  LYS621  CYS622 
 ASP623  PHE694  ASN695  SER759  ASP760  ASP761  ALA762  ILE779  LEU786  VAL792 
 PHE793  MET794  SER795  GLU796  ALA797  LYS798  CYS799  TRP800  GLU811  SER814 

> <Gold.Protein.RotatedAtoms>
  151.2468  133.4370  159.2609 H   0  0  0  0  0  0  0  0  0  0  0  0  # atno 6907 bound_to 6896
  151.0654  134.9764  159.8292 H   0  0  0  0  0  0  0  0  0  0  0  0  # atno 6908 bound_to 6896
  152.5404  134.2416  159.8917 H   0  0  0  0  0  0  0  0  0  0  0  0  # atno 6909 bound_to 6896
  145.1192  139.3400  143.4723 H   0  0  0  0  0  0  0  0  0  0  0  0  # atno 7974 bound_to 7965
  156.2989  140.2366  156.4243 H   0  0  0  0  0  0  0  0  0  0  0  0  # atno 8008 bound_to 7997
  154.8327  140.0432  157.1508 H   0  0  0  0  0  0  0  0  0  0  0  0  # atno 8009 bound_to 7997
  154.9189  140.3001  155.5230 H   0  0  0  0  0  0  0  0  0  0  0  0  # atno 8010 bound_to 7997
  139.6230  144.0587  152.1950 H   0  0  0  0  0  0  0  0  0  0  0  0  # atno 10167 bound_to 10162
  156.7944  130.9530  151.3120 H   0  0  0  0  0  0  0  0  0  0  0  0  # atno 10718 bound_to 10713
  153.1533  135.6782  153.8850 H   0  0  0  0  0  0  0  0  0  0  0  0  # atno 10763 bound_to 10752
  153.8269  135.3123  155.3416 H   0  0  0  0  0  0  0  0  0  0  0  0  # atno 10764 bound_to 10752
  154.7878  135.4852  154.0072 H   0  0  0  0  0  0  0  0  0  0  0  0  # atno 10765 bound_to 10752
  141.1668  133.7142  156.8244 H   0  0  0  0  0  0  0  0  0  0  0  0  # atno 11005 bound_to 11000
  146.3522  140.1144  142.8602 LP  0  0  0  0  0  0  0  0  0  0  0  0  # atno 17320 bound_to 7965
  145.0759  140.9188  143.4854 LP  0  0  0  0  0  0  0  0  0  0  0  0  # atno 17321 bound_to 7965
  140.0234  144.6136  150.7548 LP  0  0  0  0  0  0  0  0  0  0  0  0  # atno 17342 bound_to 10162
  140.7394  143.2790  151.3654 LP  0  0  0  0  0  0  0  0  0  0  0  0  # atno 17343 bound_to 10162
  157.6584  130.8945  149.9778 LP  0  0  0  0  0  0  0  0  0  0  0  0  # atno 17370 bound_to 10713
  156.1139  130.3648  150.0002 LP  0  0  0  0  0  0  0  0  0  0  0  0  # atno 17371 bound_to 10713
  140.2096  134.8837  157.3259 LP  0  0  0  0  0  0  0  0  0  0  0  0  # atno 17394 bound_to 11000
  140.2101  134.4149  155.7617 LP  0  0  0  0  0  0  0  0  0  0  0  0  # atno 17395 bound_to 11000

$$$$
