AV-unprocessed.smi:221|AV-procd|sdf|1688|dock6
  -GOLD-   2262020133D 1   1.00000     0.00000
 Structure written by MMmdl.
 50 53  0  0  0  0  0  0  0  0  1 V2000
  150.1558  144.0717  158.2829 N   0  0  0  0  0  0  0  0  0  0  0  0
  151.3740  144.0040  158.8249 C   0  0  0  0  0  0  0  0  0  0  0  0
  152.1759  144.9335  158.7497 O   0  0  0  0  0  0  0  0  0  0  0  0
  151.7305  142.7107  159.5712 C   0  0  2  0  0  0  0  0  0  0  0  0
  152.0618  142.9765  161.0524 C   0  0  0  0  0  0  0  0  0  0  0  0
  153.1062  141.9182  161.3795 C   0  0  2  0  0  0  0  0  0  0  0  0
  153.8545  142.2441  162.4331 F   0  0  0  0  0  0  0  0  0  0  0  0
  153.9067  141.8519  160.0854 C   0  0  0  0  0  0  0  0  0  0  0  0
  152.9333  142.0736  159.0177 N   0  0  0  0  0  0  0  0  0  0  0  0
  152.6719  141.0472  158.1712 C   0  0  0  0  0  0  0  0  0  0  0  0
  153.3465  139.8730  158.2927 N   0  0  0  0  0  0  0  0  0  0  0  0
  153.0645  138.8502  157.4803 C   0  0  0  0  0  0  0  0  0  0  0  0
  152.1608  138.7875  156.5002 N   0  0  0  0  0  0  0  0  0  0  0  0
  151.4788  139.9625  156.3780 C   0  0  0  0  0  0  0  0  0  0  0  0
  151.6660  141.1293  157.1708 C   0  0  0  0  0  0  0  0  0  0  0  0
  150.7841  142.1230  156.7679 N   0  0  0  0  0  0  0  0  0  0  0  0
  150.1113  141.5747  155.7936 C   0  0  0  0  0  0  0  0  0  0  0  0
  150.4833  140.2875  155.4717 N   0  0  0  0  0  0  0  0  0  0  0  0
  149.8978  139.4378  154.4442 C   0  0  0  0  0  0  0  0  0  0  0  0
  148.5314  138.8091  154.8399 C   0  0  2  0  0  0  0  0  0  0  0  0
  147.5935  138.8182  153.6096 C   0  0  0  0  0  0  0  0  0  0  0  0
  147.4254  140.1300  153.1120 O   0  0  0  0  0  0  0  0  0  0  0  0
  147.8366  139.5104  156.0483 C   0  0  2  0  0  0  0  0  0  0  0  0
  148.5406  139.4118  157.3950 C   0  0  0  0  0  0  0  0  0  0  0  0
  148.1432  138.0279  157.8971 C   0  0  0  0  0  0  0  0  0  0  0  0
  146.8636  137.7759  157.3268 O   0  0  0  0  0  0  0  0  0  0  0  0
  146.5136  138.8352  156.4413 C   0  0  0  0  0  0  0  0  0  0  0  0
  150.8877  142.0167  159.5208 H   0  0  0  0  0  0  0  0  0  0  0  0
  152.6299  140.9591  161.5876 H   0  0  0  0  0  0  0  0  0  0  0  0
  149.8802  144.8996  157.7747 H   0  0  0  0  0  0  0  0  0  0  0  0
  149.5181  143.2943  158.3742 H   0  0  0  0  0  0  0  0  0  0  0  0
  152.4965  143.9690  161.1872 H   0  0  0  0  0  0  0  0  0  0  0  0
  151.1853  142.9082  161.6971 H   0  0  0  0  0  0  0  0  0  0  0  0
  154.6288  142.6684  160.0454 H   0  0  0  0  0  0  0  0  0  0  0  0
  154.4747  140.9243  160.0006 H   0  0  0  0  0  0  0  0  0  0  0  0
  153.6452  137.9535  157.6388 H   0  0  0  0  0  0  0  0  0  0  0  0
  149.3237  142.1035  155.2771 H   0  0  0  0  0  0  0  0  0  0  0  0
  149.7984  140.0015  153.5160 H   0  0  0  0  0  0  0  0  0  0  0  0
  150.6363  138.6624  154.2402 H   0  0  0  0  0  0  0  0  0  0  0  0
  148.6860  137.7640  155.1097 H   0  0  0  0  0  0  0  0  0  0  0  0
  147.9871  138.2158  152.7931 H   0  0  0  0  0  0  0  0  0  0  0  0
  146.6192  138.3996  153.8638 H   0  0  0  0  0  0  0  0  0  0  0  0
  148.0899  140.2913  152.4596 H   0  0  0  0  0  0  0  0  0  0  0  0
  147.6750  140.5592  155.7959 H   0  0  0  0  0  0  0  0  0  0  0  0
  149.6127  139.5808  157.3767 H   0  0  0  0  0  0  0  0  0  0  0  0
  148.1260  140.1642  158.0677 H   0  0  0  0  0  0  0  0  0  0  0  0
  148.8424  137.2709  157.5408 H   0  0  0  0  0  0  0  0  0  0  0  0
  148.1119  137.9762  158.9856 H   0  0  0  0  0  0  0  0  0  0  0  0
  145.8833  139.5399  156.9860 H   0  0  0  0  0  0  0  0  0  0  0  0
  145.9281  138.4593  155.6038 H   0  0  0  0  0  0  0  0  0  0  0  0
  1  2  1  0  0  0  0
  1 30  1  0  0  0  0
  1 31  1  0  0  0  0
  2  3  2  0  0  0  0
  2  4  1  0  0  0  0
  4 28  1  0  0  0  0
  4  9  1  0  0  0  0
  4  5  1  0  0  0  0
  5  6  1  0  0  0  0
  5 32  1  0  0  0  0
  5 33  1  0  0  0  0
  6 29  1  0  0  0  0
  6  7  1  0  0  0  0
  6  8  1  0  0  0  0
  8  9  1  0  0  0  0
  8 34  1  0  0  0  0
  8 35  1  0  0  0  0
  9 10  1  0  0  0  0
 10 15  1  0  0  0  0
 10 11  2  0  0  0  0
 11 12  1  0  0  0  0
 12 13  2  0  0  0  0
 12 36  1  0  0  0  0
 13 14  1  0  0  0  0
 14 18  1  0  0  0  0
 14 15  2  0  0  0  0
 15 16  1  0  0  0  0
 16 17  2  0  0  0  0
 17 18  1  0  0  0  0
 17 37  1  0  0  0  0
 18 19  1  0  0  0  0
 19 20  1  0  0  0  0
 19 38  1  0  0  0  0
 19 39  1  0  0  0  0
 20 21  1  0  0  0  0
 20 23  1  0  0  0  0
 20 40  1  0  0  0  0
 21 22  1  0  0  0  0
 21 41  1  0  0  0  0
 21 42  1  0  0  0  0
 22 43  1  0  0  0  0
 23 27  1  0  0  0  0
 23 24  1  0  0  0  0
 23 44  1  0  0  0  0
 24 25  1  0  0  0  0
 24 45  1  0  0  0  0
 24 46  1  0  0  0  0
 25 26  1  0  0  0  0
 25 47  1  0  0  0  0
 25 48  1  0  0  0  0
 26 27  1  0  0  0  0
 27 49  1  0  0  0  0
 27 50  1  0  0  0  0
M  END
> <s_m_source_file>
AV-unprocessed.smi

> <i_m_source_file_index>
221

> <i_lp_mmshare_version>
43012

> <i_f3d_flags>
0

> <s_epik_input>
W05IMl1DKD1PKVtDQEBIXTFbQ0gyXVtDQEBIXShGKVtDSDJdTjFjKG5bY0hdbjIpYyhjMjMpbltjSF1uM1tDSDJdW0NASF0oW0NIMl1bT0hdKVtDQEBIXTRbQ0gyXVtDSDJdT1tDSDJdNA==

> <s_epik_cmdline>
J2VwaWtfcHl0aG9uJywgJy1waCcsICc3LjAnLCAnLXRuJywgJzgnLCAnLW1hJywgJzIwMCcsICctbWV0YWxfYmluZGluZycsICctaW1hZScsICc8aW5maWxlLm1hZT4nLCAnLW9tYWUnLCAnPG91dGZpbGUubWFlPic=

> <r_lp_tautomer_probability>
1

> <r_epik_Ionization_Penalty>
0.000818822

> <r_epik_Ionization_Penalty_Charging>
0

> <r_epik_Ionization_Penalty_Neutral>
0.000818822

> <r_epik_State_Penalty>
0.000440551

> <r_epik_Charging_Adjusted_Penalty>
0.000440551

> <i_epik_Tot_Q>
0

> <i_epik_Tot_abs_Q>
0

> <r_epik_Metal_State_Penalty>
-0

> <b_epik_Metal_Only>
0

> <s_lp_Force_Field>
OPLS_2005

> <r_lp_Energy>
54.2939

> <b_lp_Chiralities_Consistent>
1

> <s_lp_Variant>
AV-unprocessed.smi:221-3

> <Gold.Version>
5.8.1

> <Gold.Id.Protein>
6NUR|6NUR_protein|mol2

> <Gold.PLP.Fitness>
48.7249

> <Gold.PLP.PLP>
-44.1582

> <Gold.PLP.part.hbond>
-3.8135

> <Gold.PLP.part.metal>
0.0000

> <Gold.PLP.part.buried>
-6.2647

> <Gold.PLP.part.nonpolar>
-33.8183

> <Gold.PLP.part.repulsive>
0.2047

> <Gold.PLP.ligand.clash>
0.0000

> <Gold.PLP.ligand.torsion>
1.0877

> <Gold.PLP.Chemscore.Hbond>
1.2978

> <Gold.PLP.Chemscore.CHOScore>
0.8772

> <Gold.PLP.Chemscore.Metal>
0.0000

> <Gold.Chemscore.Hbonds>
donor molecule, donor type, donor heavy atom, donor atom, acceptor molecule, acceptor atom, score
      L1  H     1    30       P1  8029  0.12
      L1  H    22    43       P1  7957  1.00
      P1  H  7997  8010       L1    11  0.14
      L1  C    17    37       P1  8028  0.54

> <Gold.PLP.Chemscore.Internal.Correction>
0.2171

> <Gold.Rescore>
     Score         DG    S(hbond)    S(metal)    S(lipo)     H(rot)  DE(clash)    DE(int)     intcor
      2.11      -7.21       1.00        0.00      67.46       3.72       0.08       5.01       ----

> <Gold.Chemscore.Fitness>
2.1061

> <Gold.Chemscore.DG>
-7.2051

> <Gold.Chemscore.ZeroCoef>
-5.4800

> <Gold.Chemscore.Hbond>
1.0048

> <Gold.Chemscore.Metal>
0.0000

> <Gold.Chemscore.Lipo>
67.4601

> <Gold.Chemscore.Internal_Hbond>
0.0000

> <Gold.Chemscore.DEClash>
0.0846

> <Gold.Chemscore.DEInternal>
5.0144

> <Gold.Chemscore.Rot>
3.7202

> <Gold.Chemscore.Internal.Correction>
   9.000000E+99

> <Gold.Chemscore.Hbonds>
donor molecule, donor type, donor heavy atom, donor atom, acceptor molecule, acceptor atom, score
      L1  H    22    43       P1  7957  0.96

> <Gold.Chemscore.Hbond.Weighted>
-3.3560

> <Gold.Chemscore.Metal.Weighted>
-0.0000

> <Gold.Chemscore.Lipo.Weighted>
-7.8928

> <Gold.Chemscore.Internal_Hbond.Weighted>
0.0000

> <Gold.Chemscore.DEClash.Weighted>
0.0846

> <Gold.Chemscore.DEInternal.Weighted>
5.0144

> <Gold.Chemscore.Rot.Weighted>
9.5237

> <Gold.Chemscore.Internal.Correction.Weighted>
   9.000000E+99

> <Gold.Protein.RotatedTorsions>
[ 6907 6896 6895 6894 ] final -143.42 input  -60.11 | X-H torsion
[ 7974 7965 7964 7962 ] final  175.81 input  175.53 | X-H torsion
[ 8008 7997 7996 7995 ] final   16.04 input   59.86 | X-H torsion
[ 10167 10162 10161 10158 ] final -125.78 input  -65.29 | X-H torsion
[ 10718 10713 10712 10709 ] final -130.29 input   66.30 | X-H torsion
[ 10763 10752 10751 10750 ] final -120.29 input  -60.55 | X-H torsion
[ 11005 11000 10999 10996 ] final  -83.91 input  -57.11 | X-H torsion

> <Gold.Protein.ActiveResidues>
 VAL166  LYS551  ARG553  GLY616  TRP617  ASP618  TYR619  PRO620  LYS621  CYS622 
 ASP623  PHE694  ASN695  SER759  ASP760  ASP761  ALA762  ILE779  LEU786  VAL792 
 PHE793  MET794  SER795  GLU796  ALA797  LYS798  CYS799  TRP800  GLU811  SER814 

> <Gold.Protein.RotatedAtoms>
  151.1002  133.5249  159.2610 H   0  0  0  0  0  0  0  0  0  0  0  0  # atno 6907 bound_to 6896
  151.2083  135.0470  159.8910 H   0  0  0  0  0  0  0  0  0  0  0  0  # atno 6908 bound_to 6896
  152.5442  134.0821  159.8294 H   0  0  0  0  0  0  0  0  0  0  0  0  # atno 6909 bound_to 6896
  144.7195  140.0002  143.6440 H   0  0  0  0  0  0  0  0  0  0  0  0  # atno 7974 bound_to 7965
  154.8713  140.2959  155.5480 H   0  0  0  0  0  0  0  0  0  0  0  0  # atno 8008 bound_to 7997
  156.3021  140.2459  156.3635 H   0  0  0  0  0  0  0  0  0  0  0  0  # atno 8009 bound_to 7997
  154.8814  140.0397  157.1774 H   0  0  0  0  0  0  0  0  0  0  0  0  # atno 8010 bound_to 7997
  139.9785  143.5768  152.2387 H   0  0  0  0  0  0  0  0  0  0  0  0  # atno 10167 bound_to 10162
  156.2130  130.6930  151.0671 H   0  0  0  0  0  0  0  0  0  0  0  0  # atno 10718 bound_to 10713
  154.8640  135.4208  154.2435 H   0  0  0  0  0  0  0  0  0  0  0  0  # atno 10763 bound_to 10752
  153.3396  135.6993  153.6884 H   0  0  0  0  0  0  0  0  0  0  0  0  # atno 10764 bound_to 10752
  153.5868  135.3562  155.2869 H   0  0  0  0  0  0  0  0  0  0  0  0  # atno 10765 bound_to 10752
  141.1654  133.7318  156.8790 H   0  0  0  0  0  0  0  0  0  0  0  0  # atno 11005 bound_to 11000
  146.0341  139.3361  143.0737 LP  0  0  0  0  0  0  0  0  0  0  0  0  # atno 17320 bound_to 7965
  145.8416  140.9577  143.0796 LP  0  0  0  0  0  0  0  0  0  0  0  0  # atno 17321 bound_to 7965
  139.6427  144.7656  151.2305 LP  0  0  0  0  0  0  0  0  0  0  0  0  # atno 17342 bound_to 10162
  140.7497  143.6290  150.8441 LP  0  0  0  0  0  0  0  0  0  0  0  0  # atno 17343 bound_to 10162
  157.7048  131.0761  150.6702 LP  0  0  0  0  0  0  0  0  0  0  0  0  # atno 17370 bound_to 10713
  156.6762  130.4554  149.5641 LP  0  0  0  0  0  0  0  0  0  0  0  0  # atno 17371 bound_to 10713
  140.1728  134.9088  157.2854 LP  0  0  0  0  0  0  0  0  0  0  0  0  # atno 17394 bound_to 11000
  140.2482  134.3714  155.7452 LP  0  0  0  0  0  0  0  0  0  0  0  0  # atno 17395 bound_to 11000

$$$$
