AV-unprocessed.smi:3249|AV-procd|sdf|12418|dock4
  -GOLD-   2272018303D 1   1.00000     0.00000
 Structure written by MMmdl.
 44 45  0  0  0  0  0  0  0  0  2 V2000
  145.9321  137.2493  152.0119 C   0  0  0  0  0  0  0  0  0  0  0  0
  146.4308  138.0195  153.2003 C   0  0  0  0  0  0  0  0  0  0  0  0
  145.7084  138.3878  154.3702 C   0  0  0  0  0  0  0  0  0  0  0  0
  146.4403  139.0776  155.2294 N   0  0  0  0  0  0  0  0  0  0  0  0
  147.6583  139.1602  154.6518 N   0  0  0  0  0  0  0  0  0  0  0  0
  148.7255  139.8967  155.3210 C   0  0  1  0  0  0  0  0  0  0  0  0
  150.0628  139.6469  154.5987 C   0  0  0  0  0  0  0  0  0  0  0  0
  148.3584  141.3985  155.4451 C   0  0  2  0  0  0  0  0  0  0  0  0
  147.8203  141.9892  154.1282 C   0  0  0  0  0  0  0  0  0  0  0  0
  149.5431  142.1677  155.8939 N   0  3  0  0  0  0  0  0  0  0  0  0
  150.1704  141.6962  157.1457 C   0  0  0  0  0  0  0  0  0  0  0  0
  151.1720  142.7310  157.6763 C   0  0  2  0  0  0  0  0  0  0  0  0
  151.9782  142.1906  158.8733 C   0  0  0  0  0  0  0  0  0  0  0  0
  152.9038  143.2764  159.4336 C   0  0  0  0  0  0  0  0  0  0  0  0
  152.0920  144.5386  159.7428 C   0  0  0  0  0  0  0  0  0  0  0  0
  151.2702  144.9598  158.5144 C   0  0  0  0  0  0  0  0  0  0  0  0
  150.4396  143.8819  158.0926 O   0  0  0  0  0  0  0  0  0  0  0  0
  147.6758  138.5367  153.4199 C   0  0  0  0  0  0  0  0  0  0  0  0
  144.9435  136.8253  152.1891 H   0  0  0  0  0  0  0  0  0  0  0  0
  146.5954  136.4213  151.7613 H   0  0  0  0  0  0  0  0  0  0  0  0
  145.8564  137.8812  151.1268 H   0  0  0  0  0  0  0  0  0  0  0  0
  144.6769  138.1813  154.6159 H   0  0  0  0  0  0  0  0  0  0  0  0
  148.8253  139.4870  156.3284 H   0  0  0  0  0  0  0  0  0  0  0  0
  150.9071  140.0328  155.1691 H   0  0  0  0  0  0  0  0  0  0  0  0
  150.0819  140.1164  153.6148 H   0  0  0  0  0  0  0  0  0  0  0  0
  150.2371  138.5792  154.4605 H   0  0  0  0  0  0  0  0  0  0  0  0
  147.5832  141.4904  156.2081 H   0  0  0  0  0  0  0  0  0  0  0  0
  146.8955  141.5040  153.8176 H   0  0  0  0  0  0  0  0  0  0  0  0
  148.5433  141.8778  153.3195 H   0  0  0  0  0  0  0  0  0  0  0  0
  147.5946  143.0507  154.2260 H   0  0  0  0  0  0  0  0  0  0  0  0
  150.2406  142.0946  155.1662 H   0  0  0  0  0  0  0  0  0  0  0  0
  149.4094  141.4869  157.8979 H   0  0  0  0  0  0  0  0  0  0  0  0
  150.6903  140.7588  156.9432 H   0  0  0  0  0  0  0  0  0  0  0  0
  151.8581  143.0069  156.8730 H   0  0  0  0  0  0  0  0  0  0  0  0
  151.2958  141.8541  159.6552 H   0  0  0  0  0  0  0  0  0  0  0  0
  152.5643  141.3206  158.5748 H   0  0  0  0  0  0  0  0  0  0  0  0
  153.4105  142.9200  160.3310 H   0  0  0  0  0  0  0  0  0  0  0  0
  153.6817  143.5086  158.7052 H   0  0  0  0  0  0  0  0  0  0  0  0
  151.4206  144.3467  160.5807 H   0  0  0  0  0  0  0  0  0  0  0  0
  152.7542  145.3482  160.0511 H   0  0  0  0  0  0  0  0  0  0  0  0
  150.6396  145.8140  158.7614 H   0  0  0  0  0  0  0  0  0  0  0  0
  151.9225  145.2719  157.6973 H   0  0  0  0  0  0  0  0  0  0  0  0
  148.5630  138.5154  152.8041 H   0  0  0  0  0  0  0  0  0  0  0  0
  149.2891  143.1406  155.9906 H   0  0  0  0  0  0  0  0  0  0  0  0
  1  2  1  0  0  0  0
  1 19  1  0  0  0  0
  1 20  1  0  0  0  0
  1 21  1  0  0  0  0
  2 18  2  0  0  0  0
  2  3  1  0  0  0  0
  3  4  2  0  0  0  0
  3 22  1  0  0  0  0
  4  5  1  0  0  0  0
  5  6  1  0  0  0  0
  5 18  1  0  0  0  0
  6  7  1  0  0  0  0
  6  8  1  0  0  0  0
  6 23  1  0  0  0  0
  7 24  1  0  0  0  0
  7 25  1  0  0  0  0
  7 26  1  0  0  0  0
  8  9  1  0  0  0  0
  8 10  1  0  0  0  0
  8 27  1  0  0  0  0
  9 28  1  0  0  0  0
  9 29  1  0  0  0  0
  9 30  1  0  0  0  0
 10 11  1  0  0  0  0
 10 31  1  0  0  0  0
 10 44  1  0  0  0  0
 11 12  1  0  0  0  0
 11 32  1  0  0  0  0
 11 33  1  0  0  0  0
 12 17  1  0  0  0  0
 12 13  1  0  0  0  0
 12 34  1  0  0  0  0
 13 14  1  0  0  0  0
 13 35  1  0  0  0  0
 13 36  1  0  0  0  0
 14 15  1  0  0  0  0
 14 37  1  0  0  0  0
 14 38  1  0  0  0  0
 15 16  1  0  0  0  0
 15 39  1  0  0  0  0
 15 40  1  0  0  0  0
 16 17  1  0  0  0  0
 16 41  1  0  0  0  0
 16 42  1  0  0  0  0
 18 43  1  0  0  0  0
M  CHG  1  10   1
M  END
> <s_m_source_file>
AV-unprocessed.smi

> <i_m_source_file_index>
3249

> <i_lp_mmshare_version>
43012

> <i_f3d_flags>
0

> <s_epik_input>
W0NIM11jMVtjSF1ubihbY0hdMSlbQ0BIXShbQ0gzXSlbQ0BIXShbQ0gzXSlbTkhdW0NIMl1bQ0BASF0yW0NIMl1bQ0gyXVtDSDJdW0NIMl1PMg==

> <s_epik_cmdline>
J2VwaWtfcHl0aG9uJywgJy1waCcsICc3LjAnLCAnLXRuJywgJzgnLCAnLW1hJywgJzIwMCcsICctbWV0YWxfYmluZGluZycsICctaW1hZScsICc8aW5maWxlLm1hZT4nLCAnLW9tYWUnLCAnPG91dGZpbGUubWFlPic=

> <r_lp_tautomer_probability>
1

> <r_epik_Ionization_Penalty>
0.00659207

> <r_epik_Ionization_Penalty_Charging>
0.00656881

> <r_epik_Ionization_Penalty_Neutral>
2.32662e-05

> <r_epik_State_Penalty>
0.0048654

> <r_epik_Charging_Adjusted_Penalty>
0.0114342

> <i_epik_Tot_Q>
1

> <i_epik_Tot_abs_Q>
1

> <r_epik_Metal_State_Penalty>
-0

> <b_epik_Metal_Only>
0

> <s_lp_Force_Field>
OPLS_2005

> <r_lp_Energy>
17.4327

> <b_lp_Chiralities_Consistent>
1

> <s_lp_Variant>
AV-unprocessed.smi:3249-2

> <Gold.Version>
5.8.1

> <Gold.Id.Protein>
6NUR|6NUR_protein|mol2

> <Gold.PLP.Fitness>
43.0223

> <Gold.PLP.PLP>
-32.4586

> <Gold.PLP.part.hbond>
-1.0000

> <Gold.PLP.part.metal>
0.0000

> <Gold.PLP.part.buried>
-2.9015

> <Gold.PLP.part.nonpolar>
-29.5481

> <Gold.PLP.part.repulsive>
0.7485

> <Gold.PLP.ligand.clash>
0.0000

> <Gold.PLP.ligand.torsion>
0.4030

> <Gold.PLP.Chemscore.Hbond>
2.0000

> <Gold.PLP.Chemscore.CHOScore>
1.7541

> <Gold.PLP.Chemscore.Metal>
0.0000

> <Gold.Chemscore.Hbonds>
donor molecule, donor type, donor heavy atom, donor atom, acceptor molecule, acceptor atom, score
      L1  H    10    44       P1  8028  2.00
      L1  C    18    43       P1  7948  0.65
      L1  C    18    43       P1  7957  1.00

> <Gold.PLP.Chemscore.Internal.Correction>
0.1075

> <Gold.Rescore>
     Score         DG    S(hbond)    S(metal)    S(lipo)     H(rot)  DE(clash)    DE(int)     intcor
     16.93     -17.41       1.00        0.00     107.00       1.53       0.05       0.42       ----

> <Gold.Chemscore.Fitness>
16.9350

> <Gold.Chemscore.DG>
-17.4068

> <Gold.Chemscore.ZeroCoef>
-5.4800

> <Gold.Chemscore.Hbond>
0.9978

> <Gold.Chemscore.Metal>
0.0000

> <Gold.Chemscore.Lipo>
107.0037

> <Gold.Chemscore.Internal_Hbond>
0.0000

> <Gold.Chemscore.DEClash>
0.0482

> <Gold.Chemscore.DEInternal>
0.4237

> <Gold.Chemscore.Rot>
1.5333

> <Gold.Chemscore.Internal.Correction>
   9.000000E+99

> <Gold.Chemscore.Hbonds>
donor molecule, donor type, donor heavy atom, donor atom, acceptor molecule, acceptor atom, score
      L1  H    10    44       P1  8028  1.00

> <Gold.Chemscore.Hbond.Weighted>
-3.3325

> <Gold.Chemscore.Metal.Weighted>
-0.0000

> <Gold.Chemscore.Lipo.Weighted>
-12.5194

> <Gold.Chemscore.Internal_Hbond.Weighted>
0.0000

> <Gold.Chemscore.DEClash.Weighted>
0.0482

> <Gold.Chemscore.DEInternal.Weighted>
0.4237

> <Gold.Chemscore.Rot.Weighted>
3.9252

> <Gold.Chemscore.Internal.Correction.Weighted>
   9.000000E+99

> <Gold.Protein.RotatedTorsions>
[ 6907 6896 6895 6894 ] final   77.57 input  -60.11 | X-H torsion
[ 7974 7965 7964 7962 ] final  133.58 input  175.53 | X-H torsion
[ 8008 7997 7996 7995 ] final  105.55 input   59.86 | X-H torsion
[ 10167 10162 10161 10158 ] final -149.57 input  -65.29 | X-H torsion
[ 10718 10713 10712 10709 ] final -114.81 input   66.30 | X-H torsion
[ 10763 10752 10751 10750 ] final   -4.26 input  -60.55 | X-H torsion
[ 11005 11000 10999 10996 ] final   21.81 input  -57.11 | X-H torsion

> <Gold.Protein.ActiveResidues>
 VAL166  LYS551  ARG553  GLY616  TRP617  ASP618  TYR619  PRO620  LYS621  CYS622 
 ASP623  PHE694  ASN695  SER759  ASP760  ASP761  ALA762  ILE779  LEU786  VAL792 
 PHE793  MET794  SER795  GLU796  ALA797  LYS798  CYS799  TRP800  GLU811  SER814 

> <Gold.Protein.RotatedAtoms>
  152.5123  134.3796  159.9346 H   0  0  0  0  0  0  0  0  0  0  0  0  # atno 6907 bound_to 6896
  151.3752  133.3834  159.2712 H   0  0  0  0  0  0  0  0  0  0  0  0  # atno 6908 bound_to 6896
  150.9547  134.8962  159.7752 H   0  0  0  0  0  0  0  0  0  0  0  0  # atno 6909 bound_to 6896
  144.9851  139.4464  143.5367 H   0  0  0  0  0  0  0  0  0  0  0  0  # atno 7974 bound_to 7965
  156.1669  140.3128  155.8904 H   0  0  0  0  0  0  0  0  0  0  0  0  # atno 8008 bound_to 7997
  155.3668  140.0479  157.3063 H   0  0  0  0  0  0  0  0  0  0  0  0  # atno 8009 bound_to 7997
  154.5201  140.2195  155.9002 H   0  0  0  0  0  0  0  0  0  0  0  0  # atno 8010 bound_to 7997
  139.7430  143.8633  152.2567 H   0  0  0  0  0  0  0  0  0  0  0  0  # atno 10167 bound_to 10162
  156.0854  130.6047  150.8824 H   0  0  0  0  0  0  0  0  0  0  0  0  # atno 10718 bound_to 10713
  153.3824  135.6999  153.6555 H   0  0  0  0  0  0  0  0  0  0  0  0  # atno 10763 bound_to 10752
  153.5161  135.3621  155.2610 H   0  0  0  0  0  0  0  0  0  0  0  0  # atno 10764 bound_to 10752
  154.8694  135.4146  154.3125 H   0  0  0  0  0  0  0  0  0  0  0  0  # atno 10765 bound_to 10752
  140.3875  134.1855  155.7663 H   0  0  0  0  0  0  0  0  0  0  0  0  # atno 11005 bound_to 11000
  146.3418  139.9148  142.8775 LP  0  0  0  0  0  0  0  0  0  0  0  0  # atno 17320 bound_to 7965
  145.2365  140.9993  143.3960 LP  0  0  0  0  0  0  0  0  0  0  0  0  # atno 17321 bound_to 7965
  139.8589  144.7127  150.9124 LP  0  0  0  0  0  0  0  0  0  0  0  0  # atno 17342 bound_to 10162
  140.7788  143.3835  151.1435 LP  0  0  0  0  0  0  0  0  0  0  0  0  # atno 17343 bound_to 10162
  157.5987  131.0942  150.8998 LP  0  0  0  0  0  0  0  0  0  0  0  0  # atno 17370 bound_to 10713
  156.9159  130.5297  149.5279 LP  0  0  0  0  0  0  0  0  0  0  0  0  # atno 17371 bound_to 10713
  141.1902  133.8221  157.0926 LP  0  0  0  0  0  0  0  0  0  0  0  0  # atno 17394 bound_to 11000
  140.0432  134.9844  157.1000 LP  0  0  0  0  0  0  0  0  0  0  0  0  # atno 17395 bound_to 11000

$$$$
