AV-unprocessed.smi:527|AV-procd|sdf|2818|dock10
  -GOLD-   2262023303D 1   1.00000     0.00000
 Structure written by MMmdl.
 42 43  0  0  0  0  0  0  0  0  1 V2000
  146.6441  141.9960  154.3771 C   0  0  0  0  0  0  0  0  0  0  0  0
  147.9154  141.4032  153.7351 C   0  0  1  0  0  0  0  0  0  0  0  0
  149.0970  141.3890  154.7262 C   0  0  0  0  0  0  0  0  0  0  0  0
  148.9323  140.3135  155.8116 C   0  0  0  0  0  0  0  0  0  0  0  0
  148.7319  138.9244  155.1904 C   0  0  0  0  0  0  0  0  0  0  0  0
  147.5516  138.9025  154.1968 C   0  0  2  0  0  0  0  0  0  0  0  0
  147.4562  137.5798  153.5815 N   0  0  0  0  0  0  0  0  0  0  0  0
  146.4018  136.7555  153.6719 C   0  0  0  0  0  0  0  0  0  0  0  0
  145.3769  137.0333  154.2985 O   0  0  0  0  0  0  0  0  0  0  0  0
  146.6234  135.6118  152.9951 N   0  0  0  0  0  0  0  0  0  0  0  0
  145.8953  134.4772  153.0369 C   0  0  0  0  0  0  0  0  0  0  0  0
  144.8838  134.3138  153.7246 O   0  0  0  0  0  0  0  0  0  0  0  0
  146.4154  133.3485  152.1366 C   0  0  0  0  0  0  0  0  0  0  0  0
  145.3935  132.8018  151.2596 N   0  0  0  0  0  0  0  0  0  0  0  0
  144.0405  133.1163  151.2499 C   0  0  0  0  0  0  0  0  0  0  0  0
  143.4682  132.3601  150.2521 C   0  0  0  0  0  0  0  0  0  0  0  0
  144.4433  131.5767  149.6393 N   0  0  0  0  0  0  0  0  0  0  0  0
  145.5569  131.8929  150.2876 C   0  0  0  0  0  0  0  0  0  0  0  0
  147.7160  139.9964  153.1099 C   0  0  1  0  0  0  0  0  0  0  0  0
  146.5881  139.9752  152.0591 C   0  0  0  0  0  0  0  0  0  0  0  0
  146.2476  141.3618  155.1692 H   0  0  0  0  0  0  0  0  0  0  0  0
  145.8531  142.1394  153.6413 H   0  0  0  0  0  0  0  0  0  0  0  0
  146.8502  142.9734  154.8138 H   0  0  0  0  0  0  0  0  0  0  0  0
  148.1925  142.0820  152.9273 H   0  0  0  0  0  0  0  0  0  0  0  0
  150.0218  141.2013  154.1791 H   0  0  0  0  0  0  0  0  0  0  0  0
  149.2151  142.3698  155.1884 H   0  0  0  0  0  0  0  0  0  0  0  0
  149.8100  140.3043  156.4585 H   0  0  0  0  0  0  0  0  0  0  0  0
  148.0846  140.5553  156.4530 H   0  0  0  0  0  0  0  0  0  0  0  0
  149.6485  138.6260  154.6792 H   0  0  0  0  0  0  0  0  0  0  0  0
  148.5703  138.1927  155.9828 H   0  0  0  0  0  0  0  0  0  0  0  0
  146.6288  139.1012  154.7443 H   0  0  0  0  0  0  0  0  0  0  0  0
  148.2530  137.2764  153.0410 H   0  0  0  0  0  0  0  0  0  0  0  0
  147.4270  135.6024  152.3847 H   0  0  0  0  0  0  0  0  0  0  0  0
  147.2381  133.7220  151.5255 H   0  0  0  0  0  0  0  0  0  0  0  0
  146.8116  132.5418  152.7548 H   0  0  0  0  0  0  0  0  0  0  0  0
  143.6088  133.8333  151.9327 H   0  0  0  0  0  0  0  0  0  0  0  0
  142.4380  132.3204  149.9301 H   0  0  0  0  0  0  0  0  0  0  0  0
  146.5148  131.4547  150.0484 H   0  0  0  0  0  0  0  0  0  0  0  0
  148.6362  139.7699  152.5685 H   0  0  0  0  0  0  0  0  0  0  0  0
  145.6056  140.0668  152.5222 H   0  0  0  0  0  0  0  0  0  0  0  0
  146.5927  139.0480  151.4860 H   0  0  0  0  0  0  0  0  0  0  0  0
  146.7002  140.7924  151.3461 H   0  0  0  0  0  0  0  0  0  0  0  0
  1  2  1  0  0  0  0
  1 21  1  0  0  0  0
  1 22  1  0  0  0  0
  1 23  1  0  0  0  0
  2 19  1  0  0  0  0
  2  3  1  0  0  0  0
  2 24  1  0  0  0  0
  3  4  1  0  0  0  0
  3 25  1  0  0  0  0
  3 26  1  0  0  0  0
  4  5  1  0  0  0  0
  4 27  1  0  0  0  0
  4 28  1  0  0  0  0
  5  6  1  0  0  0  0
  5 29  1  0  0  0  0
  5 30  1  0  0  0  0
  6  7  1  0  0  0  0
  6 19  1  0  0  0  0
  6 31  1  0  0  0  0
  7  8  1  0  0  0  0
  7 32  1  0  0  0  0
  8  9  2  0  0  0  0
  8 10  1  0  0  0  0
 10 11  1  0  0  0  0
 10 33  1  0  0  0  0
 11 12  2  0  0  0  0
 11 13  1  0  0  0  0
 13 14  1  0  0  0  0
 13 34  1  0  0  0  0
 13 35  1  0  0  0  0
 14 18  1  0  0  0  0
 14 15  1  0  0  0  0
 15 16  2  0  0  0  0
 15 36  1  0  0  0  0
 16 17  1  0  0  0  0
 16 37  1  0  0  0  0
 17 18  2  0  0  0  0
 18 38  1  0  0  0  0
 19 20  1  0  0  0  0
 19 39  1  0  0  0  0
 20 40  1  0  0  0  0
 20 41  1  0  0  0  0
 20 42  1  0  0  0  0
M  END
> <s_m_source_file>
AV-unprocessed.smi

> <i_m_source_file_index>
527

> <i_lp_mmshare_version>
43012

> <i_f3d_flags>
0

> <s_epik_input>
W0NIM11bQ0BASF0xW0NIMl1bQ0gyXVtDSDJdW0NASF0oW0NASF0xW0NIM10pW05IXUMoPU8pW05IXUMoPU8pW0NIMl1uMltjSF1bY0hdbltjSF0y

> <s_epik_cmdline>
J2VwaWtfcHl0aG9uJywgJy1waCcsICc3LjAnLCAnLXRuJywgJzgnLCAnLW1hJywgJzIwMCcsICctbWV0YWxfYmluZGluZycsICctaW1hZScsICc8aW5maWxlLm1hZT4nLCAnLW9tYWUnLCAnPG91dGZpbGUubWFlPic=

> <r_lp_tautomer_probability>
1

> <r_epik_Ionization_Penalty>
0.172132

> <r_epik_Ionization_Penalty_Charging>
0.172105

> <r_epik_Ionization_Penalty_Neutral>
2.71747e-05

> <r_epik_State_Penalty>
0.161503

> <r_epik_Charging_Adjusted_Penalty>
0.333607

> <i_epik_Tot_Q>
0

> <i_epik_Tot_abs_Q>
0

> <r_epik_Metal_State_Penalty>
0.124763

> <b_epik_Metal_Only>
0

> <s_lp_Force_Field>
OPLS_2005

> <r_lp_Energy>
17.6389

> <b_lp_Chiralities_Consistent>
1

> <s_lp_Variant>
AV-unprocessed.smi:527-4

> <Gold.Version>
5.8.1

> <Gold.Id.Protein>
6NUR|6NUR_protein|mol2

> <Gold.PLP.Fitness>
44.4047

> <Gold.PLP.PLP>
-29.2667

> <Gold.PLP.part.hbond>
-3.0000

> <Gold.PLP.part.metal>
0.0000

> <Gold.PLP.part.buried>
2.5987

> <Gold.PLP.part.nonpolar>
-30.2616

> <Gold.PLP.part.repulsive>
0.3151

> <Gold.PLP.ligand.clash>
0.0000

> <Gold.PLP.ligand.torsion>
0.1303

> <Gold.PLP.Chemscore.Hbond>
2.4056

> <Gold.PLP.Chemscore.CHOScore>
2.7225

> <Gold.PLP.Chemscore.Metal>
0.0000

> <Gold.Chemscore.Hbonds>
donor molecule, donor type, donor heavy atom, donor atom, acceptor molecule, acceptor atom, score
      L1  H     7    32       P1  7948  1.00
      L1  H    10    33       P1  7948  1.00
      P1  H 10785 10796       L1    17  0.41
      L1  C    16    37       P1 10186  0.81
      L1  C    16    37       P1 10952  0.91
      L1  C    18    38       P1 10747  1.00

> <Gold.PLP.Chemscore.Internal.Correction>
0.0142

> <Gold.Rescore>
     Score         DG    S(hbond)    S(metal)    S(lipo)     H(rot)  DE(clash)    DE(int)     intcor
     13.01     -18.42       2.45        0.00      76.95       1.66       2.77       2.64       ----

> <Gold.Chemscore.Fitness>
13.0128

> <Gold.Chemscore.DG>
-18.4238

> <Gold.Chemscore.ZeroCoef>
-5.4800

> <Gold.Chemscore.Hbond>
2.4544

> <Gold.Chemscore.Metal>
0.0000

> <Gold.Chemscore.Lipo>
76.9475

> <Gold.Chemscore.Internal_Hbond>
0.0000

> <Gold.Chemscore.DEClash>
2.7736

> <Gold.Chemscore.DEInternal>
2.6374

> <Gold.Chemscore.Rot>
1.6629

> <Gold.Chemscore.Internal.Correction>
   9.000000E+99

> <Gold.Chemscore.Hbonds>
donor molecule, donor type, donor heavy atom, donor atom, acceptor molecule, acceptor atom, score
      L1  H     7    32       P1  7948  0.95
      L1  H    10    33       P1  7948  0.97
      P1  H 10785 10796       L1    17  0.10

> <Gold.Chemscore.Hbond.Weighted>
-8.1978

> <Gold.Chemscore.Metal.Weighted>
-0.0000

> <Gold.Chemscore.Lipo.Weighted>
-9.0029

> <Gold.Chemscore.Internal_Hbond.Weighted>
0.0000

> <Gold.Chemscore.DEClash.Weighted>
2.7736

> <Gold.Chemscore.DEInternal.Weighted>
2.6374

> <Gold.Chemscore.Rot.Weighted>
4.2569

> <Gold.Chemscore.Internal.Correction.Weighted>
   9.000000E+99

> <Gold.Protein.RotatedTorsions>
[ 6907 6896 6895 6894 ] final    2.10 input  -60.11 | X-H torsion
[ 7974 7965 7964 7962 ] final  160.35 input  175.53 | X-H torsion
[ 8008 7997 7996 7995 ] final  102.14 input   59.86 | X-H torsion
[ 10167 10162 10161 10158 ] final  141.60 input  -65.29 | X-H torsion
[ 10718 10713 10712 10709 ] final   80.70 input   66.30 | X-H torsion
[ 10763 10752 10751 10750 ] final  -26.40 input  -60.55 | X-H torsion
[ 11005 11000 10999 10996 ] final  -41.23 input  -57.11 | X-H torsion

> <Gold.Protein.ActiveResidues>
 VAL166  LYS551  ARG553  GLY616  TRP617  ASP618  TYR619  PRO620  LYS621  CYS622 
 ASP623  PHE694  ASN695  SER759  ASP760  ASP761  ALA762  ILE779  LEU786  VAL792 
 PHE793  MET794  SER795  GLU796  ALA797  LYS798  CYS799  TRP800  GLU811  SER814 

> <Gold.Protein.RotatedAtoms>
  151.6034  135.1045  160.0065 H   0  0  0  0  0  0  0  0  0  0  0  0  # atno 6907 bound_to 6896
  152.4246  133.7169  159.6521 H   0  0  0  0  0  0  0  0  0  0  0  0  # atno 6908 bound_to 6896
  150.8134  133.8308  159.3194 H   0  0  0  0  0  0  0  0  0  0  0  0  # atno 6909 bound_to 6896
  144.7742  139.7744  143.6285 H   0  0  0  0  0  0  0  0  0  0  0  0  # atno 7974 bound_to 7965
  156.1365  140.3186  155.8428 H   0  0  0  0  0  0  0  0  0  0  0  0  # atno 8008 bound_to 7997
  155.4235  140.0514  157.3041 H   0  0  0  0  0  0  0  0  0  0  0  0  # atno 8009 bound_to 7997
  154.4941  140.2104  155.9498 H   0  0  0  0  0  0  0  0  0  0  0  0  # atno 8010 bound_to 7997
  139.5016  144.6161  151.6160 H   0  0  0  0  0  0  0  0  0  0  0  0  # atno 10167 bound_to 10162
  157.6813  130.9971  150.2118 H   0  0  0  0  0  0  0  0  0  0  0  0  # atno 10718 bound_to 10713
  153.7154  135.6948  153.5026 H   0  0  0  0  0  0  0  0  0  0  0  0  # atno 10763 bound_to 10752
  153.2242  135.4359  155.0523 H   0  0  0  0  0  0  0  0  0  0  0  0  # atno 10764 bound_to 10752
  154.8301  135.3468  154.6689 H   0  0  0  0  0  0  0  0  0  0  0  0  # atno 10765 bound_to 10752
  141.0231  133.6853  156.2429 H   0  0  0  0  0  0  0  0  0  0  0  0  # atno 11005 bound_to 11000
  146.1909  139.5150  142.9805 LP  0  0  0  0  0  0  0  0  0  0  0  0  # atno 17320 bound_to 7965
  145.6235  141.0318  143.1902 LP  0  0  0  0  0  0  0  0  0  0  0  0  # atno 17321 bound_to 7965
  140.5850  143.9880  150.6290 LP  0  0  0  0  0  0  0  0  0  0  0  0  # atno 17342 bound_to 10162
  140.3042  143.3240  152.0942 LP  0  0  0  0  0  0  0  0  0  0  0  0  # atno 17343 bound_to 10162
  156.2787  130.3730  149.7957 LP  0  0  0  0  0  0  0  0  0  0  0  0  # atno 17370 bound_to 10713
  156.5652  130.8401  151.3340 LP  0  0  0  0  0  0  0  0  0  0  0  0  # atno 17371 bound_to 10713
  140.6538  134.5039  157.5579 LP  0  0  0  0  0  0  0  0  0  0  0  0  # atno 17394 bound_to 11000
  139.9159  134.8248  156.1369 LP  0  0  0  0  0  0  0  0  0  0  0  0  # atno 17395 bound_to 11000

$$$$
