AV-unprocessed.smi:1047|AV-procd|sdf|4566|dock6
  -GOLD-   22720 3 13D 1   1.00000     0.00000
 Structure written by MMmdl.
 57 59  0  0  0  0  0  0  0  0  3 V2000
  143.3540  145.2611  158.1105 C   0  0  0  0  0  0  0  0  0  0  0  0
  144.4796  144.4165  157.4971 C   0  0  0  0  0  0  0  0  0  0  0  0
  143.9812  143.4651  156.4684 N   0  3  1  0  0  0  0  0  0  0  0  0
  143.1491  144.1080  155.4225 C   0  0  0  0  0  0  0  0  0  0  0  0
  144.0228  144.8465  154.3934 C   0  0  0  0  0  0  0  0  0  0  0  0
  144.9577  143.9360  153.8271 O   0  0  0  0  0  0  0  0  0  0  0  0
  145.8506  143.3881  154.7916 C   0  0  2  0  0  0  0  0  0  0  0  0
  146.8438  142.4921  154.0324 C   0  0  0  0  0  0  0  0  0  0  0  0
  148.0018  142.1126  154.8684 N   0  3  0  0  0  0  0  0  0  0  0  0
  148.8217  141.0246  154.2974 C   0  0  0  0  0  0  0  0  0  0  0  0
  149.8965  140.5500  155.2893 C   0  0  1  0  0  0  0  0  0  0  0  0
  150.8247  139.7391  154.5939 O   0  0  0  0  0  0  0  0  0  0  0  0
  150.6373  141.7345  155.9399 C   0  0  0  0  0  0  0  0  0  0  0  0
  151.2552  141.3796  157.2057 N   0  0  0  0  0  0  0  0  0  0  0  0
  151.6950  140.1623  157.5782 C   0  0  0  0  0  0  0  0  0  0  0  0
  152.2320  140.0529  158.7895 N   0  0  0  0  0  0  0  0  0  0  0  0
  152.1219  141.3495  159.2618 C   0  0  0  0  0  0  0  0  0  0  0  0
  152.5070  141.9095  160.4993 C   0  0  0  0  0  0  0  0  0  0  0  0
  152.2951  143.2796  160.7723 C   0  0  0  0  0  0  0  0  0  0  0  0
  152.7212  143.8386  162.1187 C   0  0  0  0  0  0  0  0  0  0  0  0
  151.6891  144.1126  159.7977 C   0  0  0  0  0  0  0  0  0  0  0  0
  151.4494  145.5873  160.0697 C   0  0  0  0  0  0  0  0  0  0  0  0
  151.3004  143.5698  158.5550 C   0  0  0  0  0  0  0  0  0  0  0  0
  151.5148  142.2044  158.2957 C   0  0  0  0  0  0  0  0  0  0  0  0
  145.0266  142.6111  155.8461 C   0  0  0  0  0  0  0  0  0  0  0  0
  143.7647  146.0127  158.7852 H   0  0  0  0  0  0  0  0  0  0  0  0
  142.6549  144.6583  158.6889 H   0  0  0  0  0  0  0  0  0  0  0  0
  142.7900  145.7859  157.3389 H   0  0  0  0  0  0  0  0  0  0  0  0
  145.1870  145.1029  157.0301 H   0  0  0  0  0  0  0  0  0  0  0  0
  145.0328  143.8953  158.2782 H   0  0  0  0  0  0  0  0  0  0  0  0
  142.5748  143.3317  154.9152 H   0  0  0  0  0  0  0  0  0  0  0  0
  142.4191  144.7840  155.8692 H   0  0  0  0  0  0  0  0  0  0  0  0
  143.3989  145.2490  153.5953 H   0  0  0  0  0  0  0  0  0  0  0  0
  144.5428  145.6925  154.8453 H   0  0  0  0  0  0  0  0  0  0  0  0
  146.4047  144.2032  155.2600 H   0  0  0  0  0  0  0  0  0  0  0  0
  146.3422  141.5944  153.6682 H   0  0  0  0  0  0  0  0  0  0  0  0
  147.2146  143.0260  153.1563 H   0  0  0  0  0  0  0  0  0  0  0  0
  148.5924  142.9215  154.9993 H   0  0  0  0  0  0  0  0  0  0  0  0
  148.1811  140.1909  154.0054 H   0  0  0  0  0  0  0  0  0  0  0  0
  149.2966  141.3948  153.3877 H   0  0  0  0  0  0  0  0  0  0  0  0
  149.4323  139.9481  156.0720 H   0  0  0  0  0  0  0  0  0  0  0  0
  150.9466  138.9369  155.0802 H   0  0  0  0  0  0  0  0  0  0  0  0
  151.4072  142.1187  155.2696 H   0  0  0  0  0  0  0  0  0  0  0  0
  149.9452  142.5581  156.1203 H   0  0  0  0  0  0  0  0  0  0  0  0
  151.6196  139.3082  156.9210 H   0  0  0  0  0  0  0  0  0  0  0  0
  152.9674  141.2745  161.2420 H   0  0  0  0  0  0  0  0  0  0  0  0
  151.8504  144.1664  162.6864 H   0  0  0  0  0  0  0  0  0  0  0  0
  153.3901  144.6892  161.9882 H   0  0  0  0  0  0  0  0  0  0  0  0
  153.2466  143.0901  162.7123 H   0  0  0  0  0  0  0  0  0  0  0  0
  150.9241  146.0646  159.2422 H   0  0  0  0  0  0  0  0  0  0  0  0
  152.3970  146.1075  160.2098 H   0  0  0  0  0  0  0  0  0  0  0  0
  150.8458  145.7183  160.9677 H   0  0  0  0  0  0  0  0  0  0  0  0
  150.8389  144.1951  157.8050 H   0  0  0  0  0  0  0  0  0  0  0  0
  145.6752  142.1766  156.6054 H   0  0  0  0  0  0  0  0  0  0  0  0
  144.5255  141.7707  155.3636 H   0  0  0  0  0  0  0  0  0  0  0  0
  147.6654  141.8071  155.7710 H   0  0  0  0  0  0  0  0  0  0  0  0
  143.3597  142.8441  156.9677 H   0  0  0  0  0  0  0  0  0  0  0  0
  1  2  1  0  0  0  0
  1 26  1  0  0  0  0
  1 27  1  0  0  0  0
  1 28  1  0  0  0  0
  2  3  1  0  0  0  0
  2 29  1  0  0  0  0
  2 30  1  0  0  0  0
  3 25  1  0  0  0  0
  3  4  1  0  0  0  0
  3 57  1  0  0  0  0
  4  5  1  0  0  0  0
  4 31  1  0  0  0  0
  4 32  1  0  0  0  0
  5  6  1  0  0  0  0
  5 33  1  0  0  0  0
  5 34  1  0  0  0  0
  6  7  1  0  0  0  0
  7  8  1  0  0  0  0
  7 25  1  0  0  0  0
  7 35  1  0  0  0  0
  8  9  1  0  0  0  0
  8 36  1  0  0  0  0
  8 37  1  0  0  0  0
  9 10  1  0  0  0  0
  9 38  1  0  0  0  0
  9 56  1  0  0  0  0
 10 11  1  0  0  0  0
 10 39  1  0  0  0  0
 10 40  1  0  0  0  0
 11 12  1  0  0  0  0
 11 13  1  0  0  0  0
 11 41  1  0  0  0  0
 12 42  1  0  0  0  0
 13 14  1  0  0  0  0
 13 43  1  0  0  0  0
 13 44  1  0  0  0  0
 14 24  1  0  0  0  0
 14 15  1  0  0  0  0
 15 16  2  0  0  0  0
 15 45  1  0  0  0  0
 16 17  1  0  0  0  0
 17 24  2  0  0  0  0
 17 18  1  0  0  0  0
 18 19  2  0  0  0  0
 18 46  1  0  0  0  0
 19 20  1  0  0  0  0
 19 21  1  0  0  0  0
 20 47  1  0  0  0  0
 20 48  1  0  0  0  0
 20 49  1  0  0  0  0
 21 22  1  0  0  0  0
 21 23  2  0  0  0  0
 22 50  1  0  0  0  0
 22 51  1  0  0  0  0
 22 52  1  0  0  0  0
 23 24  1  0  0  0  0
 23 53  1  0  0  0  0
 25 54  1  0  0  0  0
 25 55  1  0  0  0  0
M  CHG  1   3   1
M  CHG  1   9   1
M  END
> <s_m_source_file>
AV-unprocessed.smi

> <i_m_source_file_index>
1047

> <i_lp_mmshare_version>
43012

> <i_f3d_flags>
0

> <s_epik_input>
W0NIM11bQ0gyXU4xW0NIMl1bQ0gyXU9bQ0BIXShbQ0gyXTEpW0NIMl1bTkhdW0NIMl1bQ0BIXShbT0hdKVtDSDJdbihbY0hdbjIpYyhjMjMpW2NIXWMoW0NIM10pYyhbY0hdMylbQ0gzXQ==

> <s_epik_cmdline>
J2VwaWtfcHl0aG9uJywgJy1waCcsICc3LjAnLCAnLXRuJywgJzgnLCAnLW1hJywgJzIwMCcsICctbWV0YWxfYmluZGluZycsICctaW1hZScsICc8aW5maWxlLm1hZT4nLCAnLW9tYWUnLCAnPG91dGZpbGUubWFlPic=

> <r_epik_Ionization_Penalty>
0.528991

> <r_epik_Ionization_Penalty_Charging>
0.438567

> <r_epik_Ionization_Penalty_Neutral>
0.0904237

> <r_epik_State_Penalty>
0.533036

> <r_epik_Charging_Adjusted_Penalty>
0.971603

> <i_epik_Tot_Q>
2

> <i_epik_Tot_abs_Q>
2

> <r_epik_Metal_State_Penalty>
0.448985

> <b_epik_Metal_Only>
0

> <s_lp_Force_Field>
OPLS_2005

> <r_lp_Energy>
33.3507

> <b_lp_Chiralities_Consistent>
1

> <s_lp_Variant>
AV-unprocessed.smi:1047-7

> <Gold.Version>
5.8.1

> <Gold.Id.Protein>
6NUR|6NUR_protein|mol2

> <Gold.PLP.Fitness>
60.7823

> <Gold.PLP.PLP>
-53.1964

> <Gold.PLP.part.hbond>
-2.0000

> <Gold.PLP.part.metal>
0.0000

> <Gold.PLP.part.buried>
-10.5844

> <Gold.PLP.part.nonpolar>
-40.7478

> <Gold.PLP.part.repulsive>
0.3462

> <Gold.PLP.ligand.clash>
0.0000

> <Gold.PLP.ligand.torsion>
0.8454

> <Gold.PLP.Chemscore.Hbond>
2.9840

> <Gold.PLP.Chemscore.CHOScore>
0.0000

> <Gold.PLP.Chemscore.Metal>
0.0000

> <Gold.Chemscore.Hbonds>
donor molecule, donor type, donor heavy atom, donor atom, acceptor molecule, acceptor atom, score
      L1  H     9    38       P1  8028  2.00
      P1  H  7989  7998       L1    12  1.00

> <Gold.PLP.Chemscore.Internal.Correction>
0.3246

> <Gold.Rescore>
     Score         DG    S(hbond)    S(metal)    S(lipo)     H(rot)  DE(clash)    DE(int)     intcor
     19.17     -20.15       1.81        0.00     132.80       2.70       0.10       0.88       ----

> <Gold.Chemscore.Fitness>
19.1728

> <Gold.Chemscore.DG>
-20.1533

> <Gold.Chemscore.ZeroCoef>
-5.4800

> <Gold.Chemscore.Hbond>
1.8097

> <Gold.Chemscore.Metal>
0.0000

> <Gold.Chemscore.Lipo>
132.7966

> <Gold.Chemscore.Internal_Hbond>
0.0000

> <Gold.Chemscore.DEClash>
0.0996

> <Gold.Chemscore.DEInternal>
0.8810

> <Gold.Chemscore.Rot>
2.6985

> <Gold.Chemscore.Internal.Correction>
   9.000000E+99

> <Gold.Chemscore.Hbonds>
donor molecule, donor type, donor heavy atom, donor atom, acceptor molecule, acceptor atom, score
      L1  H     9    38       P1  8028  0.95
      P1  H  7989  7998       L1    12  0.45

> <Gold.Chemscore.Hbond.Weighted>
-6.0443

> <Gold.Chemscore.Metal.Weighted>
-0.0000

> <Gold.Chemscore.Lipo.Weighted>
-15.5372

> <Gold.Chemscore.Internal_Hbond.Weighted>
0.0000

> <Gold.Chemscore.DEClash.Weighted>
0.0996

> <Gold.Chemscore.DEInternal.Weighted>
0.8810

> <Gold.Chemscore.Rot.Weighted>
6.9081

> <Gold.Chemscore.Internal.Correction.Weighted>
   9.000000E+99

> <Gold.Protein.RotatedTorsions>
[ 6907 6896 6895 6894 ] final -126.91 input  -60.11 | X-H torsion
[ 7974 7965 7964 7962 ] final   92.83 input  175.53 | X-H torsion
[ 8008 7997 7996 7995 ] final  120.03 input   59.86 | X-H torsion
[ 10167 10162 10161 10158 ] final   63.36 input  -65.29 | X-H torsion
[ 10718 10713 10712 10709 ] final  -91.00 input   66.30 | X-H torsion
[ 10763 10752 10751 10750 ] final   50.66 input  -60.55 | X-H torsion
[ 11005 11000 10999 10996 ] final -163.32 input  -57.11 | X-H torsion

> <Gold.Protein.ActiveResidues>
 VAL166  LYS551  ARG553  GLY616  TRP617  ASP618  TYR619  PRO620  LYS621  CYS622 
 ASP623  PHE694  ASN695  SER759  ASP760  ASP761  ALA762  ILE779  LEU786  VAL792 
 PHE793  MET794  SER795  GLU796  ALA797  LYS798  CYS799  TRP800  GLU811  SER814 

> <Gold.Protein.RotatedAtoms>
  150.9018  133.7108  159.2876 H   0  0  0  0  0  0  0  0  0  0  0  0  # atno 6907 bound_to 6896
  151.4624  135.1038  159.9738 H   0  0  0  0  0  0  0  0  0  0  0  0  # atno 6908 bound_to 6896
  152.4881  133.8378  159.7192 H   0  0  0  0  0  0  0  0  0  0  0  0  # atno 6909 bound_to 6896
  145.4870  139.2277  143.2851 H   0  0  0  0  0  0  0  0  0  0  0  0  # atno 7974 bound_to 7965
  156.2623  140.2840  156.1084 H   0  0  0  0  0  0  0  0  0  0  0  0  # atno 8008 bound_to 7997
  155.1284  140.0393  157.2786 H   0  0  0  0  0  0  0  0  0  0  0  0  # atno 8009 bound_to 7997
  154.6618  140.2568  155.7107 H   0  0  0  0  0  0  0  0  0  0  0  0  # atno 8010 bound_to 7997
  140.1339  144.4617  150.6849 H   0  0  0  0  0  0  0  0  0  0  0  0  # atno 10167 bound_to 10162
  155.9991  130.4931  150.5409 H   0  0  0  0  0  0  0  0  0  0  0  0  # atno 10718 bound_to 10713
  152.9784  135.5871  154.4289 H   0  0  0  0  0  0  0  0  0  0  0  0  # atno 10763 bound_to 10752
  154.3904  135.2768  155.2160 H   0  0  0  0  0  0  0  0  0  0  0  0  # atno 10764 bound_to 10752
  154.4034  135.6098  153.5965 H   0  0  0  0  0  0  0  0  0  0  0  0  # atno 10765 bound_to 10752
  140.5994  134.4963  157.5203 H   0  0  0  0  0  0  0  0  0  0  0  0  # atno 11005 bound_to 11000
  146.2307  140.5661  142.8977 LP  0  0  0  0  0  0  0  0  0  0  0  0  # atno 17320 bound_to 7965
  144.7856  140.5929  143.6576 LP  0  0  0  0  0  0  0  0  0  0  0  0  # atno 17321 bound_to 7965
  140.6801  143.2323  151.5406 LP  0  0  0  0  0  0  0  0  0  0  0  0  # atno 17342 bound_to 10162
  139.5506  144.2406  152.1523 LP  0  0  0  0  0  0  0  0  0  0  0  0  # atno 17343 bound_to 10162
  157.3345  131.0705  151.1835 LP  0  0  0  0  0  0  0  0  0  0  0  0  # atno 17370 bound_to 10713
  157.2705  130.6702  149.6017 LP  0  0  0  0  0  0  0  0  0  0  0  0  # atno 17371 bound_to 10713
  139.9239  134.8094  156.1127 LP  0  0  0  0  0  0  0  0  0  0  0  0  # atno 17394 bound_to 11000
  141.0882  133.6725  156.2483 LP  0  0  0  0  0  0  0  0  0  0  0  0  # atno 17395 bound_to 11000

$$$$
