AV-unprocessed.smi:1208|AV-procd|sdf|5063|dock7
  -GOLD-   22720 4103D 1   1.00000     0.00000
 Structure written by MMmdl.
 35 36  0  0  0  0  0  0  0  0  2 V2000
  150.9984  137.0652  155.1692 C   0  0  0  0  0  0  0  0  0  0  0  0
  151.1579  137.7803  156.5189 C   0  0  2  0  0  0  0  0  0  0  0  0
  149.8865  137.7283  157.2382 N   0  0  0  0  0  0  0  0  0  0  0  0
  149.6755  137.1548  158.4334 C   0  0  0  0  0  0  0  0  0  0  0  0
  150.5600  136.5940  159.0821 O   0  0  0  0  0  0  0  0  0  0  0  0
  148.2418  137.2602  158.9759 C   0  0  0  0  0  0  0  0  0  0  0  0
  147.9751  136.3958  160.1349 N   0  0  0  0  0  0  0  0  0  0  0  0
  147.7239  137.1276  161.3733 N   0  5  0  0  0  0  0  0  0  0  0  0
  147.4726  136.4325  162.5144 C   0  0  0  0  0  0  0  0  0  0  0  0
  147.2684  136.9785  163.5960 O   0  0  0  0  0  0  0  0  0  0  0  0
  147.4429  134.9812  162.4390 C   0  0  0  0  0  0  0  0  0  0  0  0
  147.6562  134.3327  161.2772 C   0  0  0  0  0  0  0  0  0  0  0  0
  147.9331  135.0366  160.0310 C   0  0  0  0  0  0  0  0  0  0  0  0
  148.1160  134.4506  158.9636 O   0  0  0  0  0  0  0  0  0  0  0  0
  151.6070  139.2453  156.3498 C   0  0  1  0  0  0  0  0  0  0  0  0
  150.5980  140.1426  155.6279 C   0  0  0  0  0  0  0  0  0  0  0  0
  150.9695  141.5093  156.1536 C   0  0  0  0  0  0  0  0  0  0  0  0
  151.2989  141.1979  157.6095 C   0  0  0  0  0  0  0  0  0  0  0  0
  151.7995  139.8634  157.6213 O   0  0  0  0  0  0  0  0  0  0  0  0
  151.9389  137.0499  154.6180 H   0  0  0  0  0  0  0  0  0  0  0  0
  150.2540  137.5579  154.5430 H   0  0  0  0  0  0  0  0  0  0  0  0
  150.6845  136.0301  155.3092 H   0  0  0  0  0  0  0  0  0  0  0  0
  151.9309  137.2550  157.0827 H   0  0  0  0  0  0  0  0  0  0  0  0
  149.0972  138.1695  156.7894 H   0  0  0  0  0  0  0  0  0  0  0  0
  148.0563  138.3058  159.2280 H   0  0  0  0  0  0  0  0  0  0  0  0
  147.5349  137.0215  158.1792 H   0  0  0  0  0  0  0  0  0  0  0  0
  147.2426  134.4107  163.3337 H   0  0  0  0  0  0  0  0  0  0  0  0
  147.6220  133.2536  161.2673 H   0  0  0  0  0  0  0  0  0  0  0  0
  152.5585  139.2870  155.8169 H   0  0  0  0  0  0  0  0  0  0  0  0
  150.6635  140.0701  154.5417 H   0  0  0  0  0  0  0  0  0  0  0  0
  149.5784  139.8931  155.9261 H   0  0  0  0  0  0  0  0  0  0  0  0
  151.8548  141.8818  155.6365 H   0  0  0  0  0  0  0  0  0  0  0  0
  150.1716  142.2444  156.0444 H   0  0  0  0  0  0  0  0  0  0  0  0
  152.0193  141.8984  158.0321 H   0  0  0  0  0  0  0  0  0  0  0  0
  150.3952  141.2319  158.2192 H   0  0  0  0  0  0  0  0  0  0  0  0
  1  2  1  0  0  0  0
  1 20  1  0  0  0  0
  1 21  1  0  0  0  0
  1 22  1  0  0  0  0
  2  3  1  0  0  0  0
  2 15  1  0  0  0  0
  2 23  1  0  0  0  0
  3  4  1  0  0  0  0
  3 24  1  0  0  0  0
  4  5  2  0  0  0  0
  4  6  1  0  0  0  0
  6 25  1  0  0  0  0
  6 26  1  0  0  0  0
  6  7  1  0  0  0  0
  7  8  1  0  0  0  0
  7 13  1  0  0  0  0
  8  9  1  0  0  0  0
  9 10  2  0  0  0  0
  9 11  1  0  0  0  0
 11 27  1  0  0  0  0
 11 12  2  0  0  0  0
 12 28  1  0  0  0  0
 12 13  1  0  0  0  0
 13 14  2  0  0  0  0
 15 19  1  0  0  0  0
 15 16  1  0  0  0  0
 15 29  1  0  0  0  0
 16 17  1  0  0  0  0
 16 30  1  0  0  0  0
 16 31  1  0  0  0  0
 17 18  1  0  0  0  0
 17 32  1  0  0  0  0
 17 33  1  0  0  0  0
 18 19  1  0  0  0  0
 18 34  1  0  0  0  0
 18 35  1  0  0  0  0
M  CHG  1   8  -1
M  END
> <s_m_source_file>
AV-unprocessed.smi

> <i_m_source_file_index>
1208

> <i_lp_mmshare_version>
43012

> <i_f3d_flags>
0

> <s_epik_input>
TzFbQ0gyXVtDSDJdW0NIMl1bQ0BIXTFbQ0BIXShbQ0gzXSlbTkhdQyg9TylbQ0gyXW4yW25IXWMoPU8pW2NIXVtjSF1jMj1P

> <s_epik_cmdline>
J2VwaWtfcHl0aG9uJywgJy1waCcsICc3LjAnLCAnLXRuJywgJzgnLCAnLW1hJywgJzIwMCcsICctbWV0YWxfYmluZGluZycsICctaW1hZScsICc8aW5maWxlLm1hZT4nLCAnLW9tYWUnLCAnPG91dGZpbGUubWFlPic=

> <r_lp_tautomer_probability>
1

> <r_epik_Ionization_Penalty>
0.0975494

> <r_epik_Ionization_Penalty_Charging>
0.0975494

> <r_epik_Ionization_Penalty_Neutral>
2.30132e-08

> <r_epik_State_Penalty>
0.034345

> <r_epik_Charging_Adjusted_Penalty>
0.131894

> <i_epik_Tot_Q>
-1

> <i_epik_Tot_abs_Q>
1

> <r_epik_Metal_State_Penalty>
0.034345

> <b_epik_Metal_Only>
0

> <s_lp_Force_Field>
OPLS_2005

> <r_lp_Energy>
33.2444

> <b_lp_Chiralities_Consistent>
1

> <s_lp_Variant>
AV-unprocessed.smi:1208-3

> <Gold.Version>
5.8.1

> <Gold.Id.Protein>
6NUR|6NUR_protein|mol2

> <Gold.PLP.Fitness>
43.6093

> <Gold.PLP.PLP>
-30.3050

> <Gold.PLP.part.hbond>
-3.0000

> <Gold.PLP.part.metal>
0.0000

> <Gold.PLP.part.buried>
-2.8829

> <Gold.PLP.part.nonpolar>
-24.1393

> <Gold.PLP.part.repulsive>
0.0433

> <Gold.PLP.ligand.clash>
0.0000

> <Gold.PLP.ligand.torsion>
0.2121

> <Gold.PLP.Chemscore.Hbond>
4.5680

> <Gold.PLP.Chemscore.CHOScore>
0.0000

> <Gold.PLP.Chemscore.Metal>
0.0000

> <Gold.Chemscore.Hbonds>
donor molecule, donor type, donor heavy atom, donor atom, acceptor molecule, acceptor atom, score
      P1  H  6896  6908       L1     5  1.00
      P1  H  6931  6943       L1     8  2.00
      P1  H  6934  6947       L1     8  1.60

> <Gold.PLP.Chemscore.Internal.Correction>
0.0245

> <Gold.Rescore>
     Score         DG    S(hbond)    S(metal)    S(lipo)     H(rot)  DE(clash)    DE(int)     intcor
     12.64     -12.95       1.96        0.00      51.44       1.99       0.08       0.23       ----

> <Gold.Chemscore.Fitness>
12.6407

> <Gold.Chemscore.DG>
-12.9529

> <Gold.Chemscore.ZeroCoef>
-5.4800

> <Gold.Chemscore.Hbond>
1.9640

> <Gold.Chemscore.Metal>
0.0000

> <Gold.Chemscore.Lipo>
51.4352

> <Gold.Chemscore.Internal_Hbond>
0.0000

> <Gold.Chemscore.DEClash>
0.0785

> <Gold.Chemscore.DEInternal>
0.2337

> <Gold.Chemscore.Rot>
1.9940

> <Gold.Chemscore.Internal.Correction>
   9.000000E+99

> <Gold.Chemscore.Hbonds>
donor molecule, donor type, donor heavy atom, donor atom, acceptor molecule, acceptor atom, score
      P1  H  6896  6908       L1     5  0.99
      P1  H  6931  6943       L1     8  0.31
      P1  H  6934  6947       L1     8  0.56

> <Gold.Chemscore.Hbond.Weighted>
-6.5597

> <Gold.Chemscore.Metal.Weighted>
-0.0000

> <Gold.Chemscore.Lipo.Weighted>
-6.0179

> <Gold.Chemscore.Internal_Hbond.Weighted>
0.0000

> <Gold.Chemscore.DEClash.Weighted>
0.0785

> <Gold.Chemscore.DEInternal.Weighted>
0.2337

> <Gold.Chemscore.Rot.Weighted>
5.1047

> <Gold.Chemscore.Internal.Correction.Weighted>
   9.000000E+99

> <Gold.Protein.RotatedTorsions>
[ 6907 6896 6895 6894 ] final -159.21 input  -60.11 | X-H torsion
[ 7974 7965 7964 7962 ] final  113.56 input  175.53 | X-H torsion
[ 8008 7997 7996 7995 ] final -173.50 input   59.86 | X-H torsion
[ 10167 10162 10161 10158 ] final  -18.49 input  -65.29 | X-H torsion
[ 10718 10713 10712 10709 ] final   62.38 input   66.30 | X-H torsion
[ 10763 10752 10751 10750 ] final  -42.96 input  -60.55 | X-H torsion
[ 11005 11000 10999 10996 ] final   63.14 input  -57.11 | X-H torsion

> <Gold.Protein.ActiveResidues>
 VAL166  LYS551  ARG553  GLY616  TRP617  ASP618  TYR619  PRO620  LYS621  CYS622 
 ASP623  PHE694  ASN695  SER759  ASP760  ASP761  ALA762  ILE779  LEU786  VAL792 
 PHE793  MET794  SER795  GLU796  ALA797  LYS798  CYS799  TRP800  GLU811  SER814 

> <Gold.Protein.RotatedAtoms>
  151.3301  133.4004  159.2661 H   0  0  0  0  0  0  0  0  0  0  0  0  # atno 6907 bound_to 6896
  150.9963  134.9286  159.7938 H   0  0  0  0  0  0  0  0  0  0  0  0  # atno 6908 bound_to 6896
  152.5262  134.3266  159.9220 H   0  0  0  0  0  0  0  0  0  0  0  0  # atno 6909 bound_to 6896
  145.2154  139.2886  143.4246 H   0  0  0  0  0  0  0  0  0  0  0  0  # atno 7974 bound_to 7965
  155.9582  140.1139  157.0919 H   0  0  0  0  0  0  0  0  0  0  0  0  # atno 8008 bound_to 7997
  154.4125  140.1187  156.5209 H   0  0  0  0  0  0  0  0  0  0  0  0  # atno 8009 bound_to 7997
  155.6755  140.3473  155.4837 H   0  0  0  0  0  0  0  0  0  0  0  0  # atno 8010 bound_to 7997
  140.7259  143.4911  150.9991 H   0  0  0  0  0  0  0  0  0  0  0  0  # atno 10167 bound_to 10162
  157.5896  130.9047  149.9580 H   0  0  0  0  0  0  0  0  0  0  0  0  # atno 10718 bound_to 10713
  153.9878  135.6709  153.4752 H   0  0  0  0  0  0  0  0  0  0  0  0  # atno 10763 bound_to 10752
  153.0719  135.4969  154.8319 H   0  0  0  0  0  0  0  0  0  0  0  0  # atno 10764 bound_to 10752
  154.7127  135.3100  154.9134 H   0  0  0  0  0  0  0  0  0  0  0  0  # atno 10765 bound_to 10752
  140.0045  134.6391  155.9878 H   0  0  0  0  0  0  0  0  0  0  0  0  # atno 11005 bound_to 11000
  146.3388  140.2443  142.8596 LP  0  0  0  0  0  0  0  0  0  0  0  0  # atno 17320 bound_to 7965
  144.9816  140.8464  143.5394 LP  0  0  0  0  0  0  0  0  0  0  0  0  # atno 17321 bound_to 7965
  139.8615  143.7308  152.3173 LP  0  0  0  0  0  0  0  0  0  0  0  0  # atno 17342 bound_to 10162
  139.7525  144.7530  151.0484 LP  0  0  0  0  0  0  0  0  0  0  0  0  # atno 17343 bound_to 10162
  156.0949  130.3660  150.0324 LP  0  0  0  0  0  0  0  0  0  0  0  0  # atno 17370 bound_to 10713
  156.8449  130.9439  151.3629 LP  0  0  0  0  0  0  0  0  0  0  0  0  # atno 17371 bound_to 10713
  141.1666  133.6537  156.4503 LP  0  0  0  0  0  0  0  0  0  0  0  0  # atno 17394 bound_to 11000
  140.4667  134.6791  157.5110 LP  0  0  0  0  0  0  0  0  0  0  0  0  # atno 17395 bound_to 11000

$$$$
