AV-unprocessed.smi:1078|AV-procd|sdf|4702|dock5
  -GOLD-   22720 3223D 1   1.00000     0.00000
 Structure written by MMmdl.
 40 41  0  0  0  0  0  0  0  0  2 V2000
  147.7257  142.0865  154.1658 C   0  0  0  0  0  0  0  0  0  0  0  0
  148.9880  141.3934  154.7070 C   0  0  2  0  0  0  0  0  0  0  0  0
  148.8174  139.8606  154.8314 C   0  0  0  0  0  0  0  0  0  0  0  0
  150.0794  139.1422  154.8240 N   0  0  0  0  0  0  0  0  0  0  0  0
  150.6393  138.3999  153.8049 C   0  0  0  0  0  0  0  0  0  0  0  0
  151.8258  137.9067  154.2667 C   0  0  0  0  0  0  0  0  0  0  0  0
  151.9023  138.4009  155.5989 C   0  0  0  0  0  0  0  0  0  0  0  0
  150.8531  139.1360  155.9311 N   0  0  0  0  0  0  0  0  0  0  0  0
  149.3544  141.9998  156.0066 N   0  3  0  0  0  0  0  0  0  0  0  0
  150.7748  141.8667  156.3962 C   0  0  0  0  0  0  0  0  0  0  0  0
  151.0152  142.3782  157.8287 C   0  0  0  0  0  0  0  0  0  0  0  0
  151.7106  143.7579  157.8427 C   0  0  0  0  0  0  0  0  0  0  0  0
  151.9625  144.2543  159.2759 C   0  0  0  0  0  0  0  0  0  0  0  0
  152.7756  143.2324  160.0847 C   0  0  0  0  0  0  0  0  0  0  0  0
  152.0934  141.8565  160.0795 C   0  0  0  0  0  0  0  0  0  0  0  0
  151.8432  141.3642  158.6447 C   0  0  0  0  0  0  0  0  0  0  0  0
  147.4804  141.7483  153.1587 H   0  0  0  0  0  0  0  0  0  0  0  0
  147.8631  143.1671  154.1148 H   0  0  0  0  0  0  0  0  0  0  0  0
  146.8623  141.8905  154.8025 H   0  0  0  0  0  0  0  0  0  0  0  0
  149.7967  141.6024  154.0048 H   0  0  0  0  0  0  0  0  0  0  0  0
  148.2956  139.5999  155.7525 H   0  0  0  0  0  0  0  0  0  0  0  0
  148.2063  139.4839  154.0098 H   0  0  0  0  0  0  0  0  0  0  0  0
  150.1548  138.2866  152.8462 H   0  0  0  0  0  0  0  0  0  0  0  0
  152.5307  137.2849  153.7348 H   0  0  0  0  0  0  0  0  0  0  0  0
  152.6826  138.2465  156.3296 H   0  0  0  0  0  0  0  0  0  0  0  0
  149.1563  142.9882  155.9441 H   0  0  0  0  0  0  0  0  0  0  0  0
  151.0605  140.8167  156.3341 H   0  0  0  0  0  0  0  0  0  0  0  0
  151.4061  142.4115  155.6926 H   0  0  0  0  0  0  0  0  0  0  0  0
  150.0449  142.4785  158.3185 H   0  0  0  0  0  0  0  0  0  0  0  0
  152.6604  143.6979  157.3093 H   0  0  0  0  0  0  0  0  0  0  0  0
  151.1064  144.4940  157.3117 H   0  0  0  0  0  0  0  0  0  0  0  0
  152.4878  145.2096  159.2514 H   0  0  0  0  0  0  0  0  0  0  0  0
  151.0092  144.4391  159.7724 H   0  0  0  0  0  0  0  0  0  0  0  0
  153.7776  143.1455  159.6626 H   0  0  0  0  0  0  0  0  0  0  0  0
  152.9009  143.5826  161.1098 H   0  0  0  0  0  0  0  0  0  0  0  0
  152.7093  141.1353  160.6179 H   0  0  0  0  0  0  0  0  0  0  0  0
  151.1458  141.9161  160.6166 H   0  0  0  0  0  0  0  0  0  0  0  0
  151.3303  140.4022  158.6775 H   0  0  0  0  0  0  0  0  0  0  0  0
  152.7995  141.1861  158.1510 H   0  0  0  0  0  0  0  0  0  0  0  0
  148.7725  141.6037  156.7308 H   0  0  0  0  0  0  0  0  0  0  0  0
  1  2  1  0  0  0  0
  1 17  1  0  0  0  0
  1 18  1  0  0  0  0
  1 19  1  0  0  0  0
  2  3  1  0  0  0  0
  2  9  1  0  0  0  0
  2 20  1  0  0  0  0
  3  4  1  0  0  0  0
  3 21  1  0  0  0  0
  3 22  1  0  0  0  0
  4  8  1  0  0  0  0
  4  5  1  0  0  0  0
  5  6  2  0  0  0  0
  5 23  1  0  0  0  0
  6  7  1  0  0  0  0
  6 24  1  0  0  0  0
  7  8  2  0  0  0  0
  7 25  1  0  0  0  0
  9 10  1  0  0  0  0
  9 26  1  0  0  0  0
  9 40  1  0  0  0  0
 10 11  1  0  0  0  0
 10 27  1  0  0  0  0
 10 28  1  0  0  0  0
 11 16  1  0  0  0  0
 11 12  1  0  0  0  0
 11 29  1  0  0  0  0
 12 13  1  0  0  0  0
 12 30  1  0  0  0  0
 12 31  1  0  0  0  0
 13 14  1  0  0  0  0
 13 32  1  0  0  0  0
 13 33  1  0  0  0  0
 14 15  1  0  0  0  0
 14 34  1  0  0  0  0
 14 35  1  0  0  0  0
 15 16  1  0  0  0  0
 15 36  1  0  0  0  0
 15 37  1  0  0  0  0
 16 38  1  0  0  0  0
 16 39  1  0  0  0  0
M  CHG  1   9   1
M  END
> <s_m_source_file>
AV-unprocessed.smi

> <i_m_source_file_index>
1078

> <i_lp_mmshare_version>
43012

> <i_f3d_flags>
0

> <s_epik_input>
bjFbY0hdW2NIXVtjSF1uMVtDSDJdW0NAQEhdKFtDSDNdKVtOSF1bQ0gyXVtDSF0yW0NIMl1bQ0gyXVtDSDJdW0NIMl1bQ0gyXTI=

> <s_epik_cmdline>
J2VwaWtfcHl0aG9uJywgJy1waCcsICc3LjAnLCAnLXRuJywgJzgnLCAnLW1hJywgJzIwMCcsICctbWV0YWxfYmluZGluZycsICctaW1hZScsICc8aW5maWxlLm1hZT4nLCAnLW9tYWUnLCAnPG91dGZpbGUubWFlPic=

> <r_lp_tautomer_probability>
1

> <r_epik_Ionization_Penalty>
0.00174474

> <r_epik_Ionization_Penalty_Charging>
0.00174052

> <r_epik_Ionization_Penalty_Neutral>
4.21324e-06

> <r_epik_State_Penalty>
0.00117783

> <r_epik_Charging_Adjusted_Penalty>
0.00291835

> <i_epik_Tot_Q>
1

> <i_epik_Tot_abs_Q>
1

> <r_epik_Metal_State_Penalty>
-0

> <b_epik_Metal_Only>
0

> <s_lp_Force_Field>
OPLS_2005

> <r_lp_Energy>
15.4187

> <b_lp_Chiralities_Consistent>
1

> <s_lp_Variant>
AV-unprocessed.smi:1078-1

> <Gold.Version>
5.8.1

> <Gold.Id.Protein>
6NUR|6NUR_protein|mol2

> <Gold.PLP.Fitness>
51.5888

> <Gold.PLP.PLP>
-42.5566

> <Gold.PLP.part.hbond>
-1.0000

> <Gold.PLP.part.metal>
0.0000

> <Gold.PLP.part.buried>
-5.4258

> <Gold.PLP.part.nonpolar>
-37.1135

> <Gold.PLP.part.repulsive>
0.1166

> <Gold.PLP.ligand.clash>
0.0000

> <Gold.PLP.ligand.torsion>
1.2925

> <Gold.PLP.Chemscore.Hbond>
2.0000

> <Gold.PLP.Chemscore.CHOScore>
1.8654

> <Gold.PLP.Chemscore.Metal>
0.0000

> <Gold.Chemscore.Hbonds>
donor molecule, donor type, donor heavy atom, donor atom, acceptor molecule, acceptor atom, score
      L1  H     9    26       P1  8028  2.00
      L1  C     5    23       P1  7948  0.93
      L1  C     5    23       P1  7949  0.03
      L1  C     5    23       P1  7957  0.95

> <Gold.PLP.Chemscore.Internal.Correction>
0.0209

> <Gold.Rescore>
     Score         DG    S(hbond)    S(metal)    S(lipo)     H(rot)  DE(clash)    DE(int)     intcor
     16.29     -19.10       1.00        0.00     121.54       1.54       0.02       2.79       ----

> <Gold.Chemscore.Fitness>
16.2894

> <Gold.Chemscore.DG>
-19.1010

> <Gold.Chemscore.ZeroCoef>
-5.4800

> <Gold.Chemscore.Hbond>
0.9992

> <Gold.Chemscore.Metal>
0.0000

> <Gold.Chemscore.Lipo>
121.5422

> <Gold.Chemscore.Internal_Hbond>
0.0000

> <Gold.Chemscore.DEClash>
0.0244

> <Gold.Chemscore.DEInternal>
2.7873

> <Gold.Chemscore.Rot>
1.5378

> <Gold.Chemscore.Internal.Correction>
   9.000000E+99

> <Gold.Chemscore.Hbonds>
donor molecule, donor type, donor heavy atom, donor atom, acceptor molecule, acceptor atom, score
      L1  H     9    26       P1  8028  1.00

> <Gold.Chemscore.Hbond.Weighted>
-3.3374

> <Gold.Chemscore.Metal.Weighted>
-0.0000

> <Gold.Chemscore.Lipo.Weighted>
-14.2204

> <Gold.Chemscore.Internal_Hbond.Weighted>
0.0000

> <Gold.Chemscore.DEClash.Weighted>
0.0244

> <Gold.Chemscore.DEInternal.Weighted>
2.7873

> <Gold.Chemscore.Rot.Weighted>
3.9368

> <Gold.Chemscore.Internal.Correction.Weighted>
   9.000000E+99

> <Gold.Protein.RotatedTorsions>
[ 6907 6896 6895 6894 ] final   44.74 input  -60.11 | X-H torsion
[ 7974 7965 7964 7962 ] final   39.03 input  175.53 | X-H torsion
[ 8008 7997 7996 7995 ] final  -53.60 input   59.86 | X-H torsion
[ 10167 10162 10161 10158 ] final  140.67 input  -65.29 | X-H torsion
[ 10718 10713 10712 10709 ] final  -94.15 input   66.30 | X-H torsion
[ 10763 10752 10751 10750 ] final  165.74 input  -60.55 | X-H torsion
[ 11005 11000 10999 10996 ] final -158.02 input  -57.11 | X-H torsion

> <Gold.Protein.ActiveResidues>
 VAL166  LYS551  ARG553  GLY616  TRP617  ASP618  TYR619  PRO620  LYS621  CYS622 
 ASP623  PHE694  ASN695  SER759  ASP760  ASP761  ALA762  ILE779  LEU786  VAL792 
 PHE793  MET794  SER795  GLU796  ALA797  LYS798  CYS799  TRP800  GLU811  SER814 

> <Gold.Protein.RotatedAtoms>
  152.2362  134.8274  160.0466 H   0  0  0  0  0  0  0  0  0  0  0  0  # atno 6907 bound_to 6896
  151.9005  133.3532  159.3837 H   0  0  0  0  0  0  0  0  0  0  0  0  # atno 6908 bound_to 6896
  150.7040  134.4759  159.5491 H   0  0  0  0  0  0  0  0  0  0  0  0  # atno 6909 bound_to 6896
  146.1016  139.5700  142.9411 H   0  0  0  0  0  0  0  0  0  0  0  0  # atno 7974 bound_to 7965
  154.4138  140.1196  156.5180 H   0  0  0  0  0  0  0  0  0  0  0  0  # atno 8008 bound_to 7997
  155.6731  140.3496  155.4807 H   0  0  0  0  0  0  0  0  0  0  0  0  # atno 8009 bound_to 7997
  155.9616  140.1124  157.0881 H   0  0  0  0  0  0  0  0  0  0  0  0  # atno 8010 bound_to 7997
  139.5042  144.6220  151.6029 H   0  0  0  0  0  0  0  0  0  0  0  0  # atno 10167 bound_to 10162
  156.0023  130.5056  150.5884 H   0  0  0  0  0  0  0  0  0  0  0  0  # atno 10718 bound_to 10713
  154.3285  135.2755  155.2484 H   0  0  0  0  0  0  0  0  0  0  0  0  # atno 10763 bound_to 10752
  154.4806  135.5859  153.6390 H   0  0  0  0  0  0  0  0  0  0  0  0  # atno 10764 bound_to 10752
  152.9869  135.6110  154.3475 H   0  0  0  0  0  0  0  0  0  0  0  0  # atno 10765 bound_to 10752
  140.6582  134.4378  157.5234 H   0  0  0  0  0  0  0  0  0  0  0  0  # atno 11005 bound_to 11000
  145.5844  141.0378  143.2105 LP  0  0  0  0  0  0  0  0  0  0  0  0  # atno 17320 bound_to 7965
  144.7437  139.7378  143.7301 LP  0  0  0  0  0  0  0  0  0  0  0  0  # atno 17321 bound_to 7965
  140.5925  143.9755  150.6333 LP  0  0  0  0  0  0  0  0  0  0  0  0  # atno 17342 bound_to 10162
  140.2940  143.3305  152.1035 LP  0  0  0  0  0  0  0  0  0  0  0  0  # atno 17343 bound_to 10162
  157.3752  131.0772  151.1523 LP  0  0  0  0  0  0  0  0  0  0  0  0  # atno 17370 bound_to 10713
  157.2264  130.6505  149.5832 LP  0  0  0  0  0  0  0  0  0  0  0  0  # atno 17371 bound_to 10713
  139.9022  134.8530  156.1849 LP  0  0  0  0  0  0  0  0  0  0  0  0  # atno 17394 bound_to 11000
  141.0485  133.6900  156.1728 LP  0  0  0  0  0  0  0  0  0  0  0  0  # atno 17395 bound_to 11000

$$$$
