AV-unprocessed.smi:1423|AV-procd|sdf|5797|dock9
  -GOLD-   22720 5453D 1   1.00000     0.00000
 Structure written by MMmdl.
 43 44  0  0  0  0  0  0  0  0  3 V2000
  151.8210  140.4521  155.8344 C   0  0  0  0  0  0  0  0  0  0  0  0
  150.7190  141.3359  155.6598 O   0  0  0  0  0  0  0  0  0  0  0  0
  149.5899  140.8578  155.0270 C   0  0  0  0  0  0  0  0  0  0  0  0
  148.4557  141.6901  154.9518 C   0  0  0  0  0  0  0  0  0  0  0  0
  147.2982  141.2098  154.3099 C   0  0  0  0  0  0  0  0  0  0  0  0
  147.3142  139.9079  153.7534 C   0  0  0  0  0  0  0  0  0  0  0  0
  146.2114  139.2959  153.0962 N   0  0  0  0  0  0  0  0  0  0  0  0
  146.0698  138.0227  152.6884 C   0  0  0  0  0  0  0  0  0  0  0  0
  146.8920  137.1224  152.8555 O   0  0  0  0  0  0  0  0  0  0  0  0
  144.8923  137.8398  152.0736 N   0  0  0  0  0  0  0  0  0  0  0  0
  144.4276  136.5771  151.5063 C   0  0  2  0  0  0  0  0  0  0  0  0
  143.8776  135.6528  152.6082 C   0  0  0  0  0  0  0  0  0  0  0  0
  143.4838  134.2804  152.0380 C   0  0  0  0  0  0  0  0  0  0  0  0
  144.6310  133.6417  151.3396 N   0  3  1  0  0  0  0  0  0  0  0  0
  144.3474  132.2541  150.8922 C   0  0  0  0  0  0  0  0  0  0  0  0
  143.7734  132.2473  149.4711 C   0  0  0  0  0  0  0  0  0  0  0  0
  142.4322  132.3870  149.4581 N   0  5  0  0  0  0  0  0  0  0  0  0
  144.5292  132.1233  148.5102 O   0  0  0  0  0  0  0  0  0  0  0  0
  145.1520  134.4975  150.2444 C   0  0  0  0  0  0  0  0  0  0  0  0
  145.5833  135.8751  150.7752 C   0  0  0  0  0  0  0  0  0  0  0  0
  148.4973  139.1522  153.8913 C   0  0  0  0  0  0  0  0  0  0  0  0
  149.6098  139.6063  154.5058 N   0  0  0  0  0  0  0  0  0  0  0  0
  152.6263  140.9773  156.3476 H   0  0  0  0  0  0  0  0  0  0  0  0
  152.2103  140.1052  154.8762 H   0  0  0  0  0  0  0  0  0  0  0  0
  151.5481  139.5895  156.4442 H   0  0  0  0  0  0  0  0  0  0  0  0
  148.4711  142.6799  155.3839 H   0  0  0  0  0  0  0  0  0  0  0  0
  146.4274  141.8446  154.2725 H   0  0  0  0  0  0  0  0  0  0  0  0
  145.4158  139.8985  152.9444 H   0  0  0  0  0  0  0  0  0  0  0  0
  144.2749  138.6337  151.9846 H   0  0  0  0  0  0  0  0  0  0  0  0
  143.6365  136.7779  150.7811 H   0  0  0  0  0  0  0  0  0  0  0  0
  144.6281  135.5172  153.3885 H   0  0  0  0  0  0  0  0  0  0  0  0
  143.0120  136.1107  153.0883 H   0  0  0  0  0  0  0  0  0  0  0  0
  143.1363  133.6435  152.8519 H   0  0  0  0  0  0  0  0  0  0  0  0
  142.6486  134.3885  151.3445 H   0  0  0  0  0  0  0  0  0  0  0  0
  145.2504  131.6439  150.9474 H   0  0  0  0  0  0  0  0  0  0  0  0
  143.6139  131.7840  151.5495 H   0  0  0  0  0  0  0  0  0  0  0  0
  142.0359  133.3169  149.2741 H   0  0  0  0  0  0  0  0  0  0  0  0
  146.0082  134.0124  149.7744 H   0  0  0  0  0  0  0  0  0  0  0  0
  144.3874  134.6104  149.4740 H   0  0  0  0  0  0  0  0  0  0  0  0
  145.9347  136.4939  149.9488 H   0  0  0  0  0  0  0  0  0  0  0  0
  146.4306  135.7509  151.4514 H   0  0  0  0  0  0  0  0  0  0  0  0
  148.5559  138.1491  153.4942 H   0  0  0  0  0  0  0  0  0  0  0  0
  145.3782  133.5536  152.0147 H   0  0  0  0  0  0  0  0  0  0  0  0
  1  2  1  0  0  0  0
  1 23  1  0  0  0  0
  1 24  1  0  0  0  0
  1 25  1  0  0  0  0
  2  3  1  0  0  0  0
  3 22  1  0  0  0  0
  3  4  2  0  0  0  0
  4  5  1  0  0  0  0
  4 26  1  0  0  0  0
  5  6  2  0  0  0  0
  5 27  1  0  0  0  0
  6  7  1  0  0  0  0
  6 21  1  0  0  0  0
  7  8  1  0  0  0  0
  7 28  1  0  0  0  0
  8  9  2  0  0  0  0
  8 10  1  0  0  0  0
 10 11  1  0  0  0  0
 10 29  1  0  0  0  0
 11 20  1  0  0  0  0
 11 12  1  0  0  0  0
 11 30  1  0  0  0  0
 12 13  1  0  0  0  0
 12 31  1  0  0  0  0
 12 32  1  0  0  0  0
 13 14  1  0  0  0  0
 13 33  1  0  0  0  0
 13 34  1  0  0  0  0
 14 15  1  0  0  0  0
 14 19  1  0  0  0  0
 14 43  1  0  0  0  0
 15 16  1  0  0  0  0
 15 35  1  0  0  0  0
 15 36  1  0  0  0  0
 16 17  1  0  0  0  0
 16 18  2  0  0  0  0
 17 37  1  0  0  0  0
 19 20  1  0  0  0  0
 19 38  1  0  0  0  0
 19 39  1  0  0  0  0
 20 40  1  0  0  0  0
 20 41  1  0  0  0  0
 21 22  2  0  0  0  0
 21 42  1  0  0  0  0
M  CHG  1  14   1
M  CHG  1  17  -1
M  END
> <s_m_source_file>
AV-unprocessed.smi

> <i_m_source_file_index>
1423

> <i_lp_mmshare_version>
43012

> <i_f3d_flags>
0

> <s_epik_input>
W0NIM11PYzFbY0hdW2NIXWMoW2NIXW4xKVtOSF1DKD1PKVtOSF1bQ0hdMltDSDJdW0NIMl1OKFtDSDJdW0NIMl0yKVtDSDJdQyg9TylbTkgyXQ==

> <s_epik_cmdline>
J2VwaWtfcHl0aG9uJywgJy1waCcsICc3LjAnLCAnLXRuJywgJzgnLCAnLW1hJywgJzIwMCcsICctbWV0YWxfYmluZGluZycsICctaW1hZScsICc8aW5maWxlLm1hZT4nLCAnLW9tYWUnLCAnPG91dGZpbGUubWFlPic=

> <r_lp_tautomer_probability>
1

> <r_epik_Ionization_Penalty>
5.72888

> <r_epik_Ionization_Penalty_Charging>
5.7288

> <r_epik_Ionization_Penalty_Neutral>
7.8452e-05

> <r_epik_State_Penalty>
6.54882

> <r_epik_Charging_Adjusted_Penalty>
12.2776

> <i_epik_Tot_Q>
0

> <i_epik_Tot_abs_Q>
2

> <r_epik_Metal_State_Penalty>
2.51301

> <b_epik_Metal_Only>
1

> <s_lp_Force_Field>
OPLS_2005

> <r_lp_Energy>
10.9641

> <b_lp_Chiralities_Consistent>
1

> <s_lp_Variant>
AV-unprocessed.smi:1423-4

> <Gold.Version>
5.8.1

> <Gold.Id.Protein>
6NUR|6NUR_protein|mol2

> <Gold.PLP.Fitness>
43.8139

> <Gold.PLP.PLP>
-33.9520

> <Gold.PLP.part.hbond>
-7.2327

> <Gold.PLP.part.metal>
0.0000

> <Gold.PLP.part.buried>
0.5869

> <Gold.PLP.part.nonpolar>
-31.5464

> <Gold.PLP.part.repulsive>
4.7964

> <Gold.PLP.ligand.clash>
0.0025

> <Gold.PLP.ligand.torsion>
0.9867

> <Gold.PLP.Chemscore.Hbond>
2.9920

> <Gold.PLP.Chemscore.CHOScore>
0.9427

> <Gold.PLP.Chemscore.Metal>
0.0000

> <Gold.Chemscore.Hbonds>
donor molecule, donor type, donor heavy atom, donor atom, acceptor molecule, acceptor atom, score
      L1  H     7    28       P1 10175  1.00
      L1  H    10    29       P1 10175  1.00
      L1  H    17    37       P1 10186  0.99
      L1  C    21    42       P1  7948  0.99

> <Gold.PLP.Chemscore.Internal.Correction>
0.0337

> <Gold.Rescore>
     Score         DG    S(hbond)    S(metal)    S(lipo)     H(rot)  DE(clash)    DE(int)     intcor
     11.64     -15.35       2.84        0.00      53.43       2.29       0.16       3.55       ----

> <Gold.Chemscore.Fitness>
11.6410

> <Gold.Chemscore.DG>
-15.3509

> <Gold.Chemscore.ZeroCoef>
-5.4800

> <Gold.Chemscore.Hbond>
2.8384

> <Gold.Chemscore.Metal>
0.0000

> <Gold.Chemscore.Lipo>
53.4313

> <Gold.Chemscore.Internal_Hbond>
0.0000

> <Gold.Chemscore.DEClash>
0.1569

> <Gold.Chemscore.DEInternal>
3.5531

> <Gold.Chemscore.Rot>
2.2894

> <Gold.Chemscore.Internal.Correction>
   9.000000E+99

> <Gold.Chemscore.Hbonds>
donor molecule, donor type, donor heavy atom, donor atom, acceptor molecule, acceptor atom, score
      L1  H     7    28       P1 10175  1.00
      L1  H    10    29       P1 10175  0.96
      L1  H    17    37       P1 10186  0.88

> <Gold.Chemscore.Hbond.Weighted>
-9.4803

> <Gold.Chemscore.Metal.Weighted>
-0.0000

> <Gold.Chemscore.Lipo.Weighted>
-6.2515

> <Gold.Chemscore.Internal_Hbond.Weighted>
0.0000

> <Gold.Chemscore.DEClash.Weighted>
0.1569

> <Gold.Chemscore.DEInternal.Weighted>
3.5531

> <Gold.Chemscore.Rot.Weighted>
5.8608

> <Gold.Chemscore.Internal.Correction.Weighted>
   9.000000E+99

> <Gold.Protein.RotatedTorsions>
[ 6907 6896 6895 6894 ] final -154.96 input  -60.11 | X-H torsion
[ 7974 7965 7964 7962 ] final   88.77 input  175.53 | X-H torsion
[ 8008 7997 7996 7995 ] final  -69.83 input   59.86 | X-H torsion
[ 10167 10162 10161 10158 ] final  -39.45 input  -65.29 | X-H torsion
[ 10718 10713 10712 10709 ] final  -34.55 input   66.30 | X-H torsion
[ 10763 10752 10751 10750 ] final -108.79 input  -60.55 | X-H torsion
[ 11005 11000 10999 10996 ] final  -83.46 input  -57.11 | X-H torsion

> <Gold.Protein.ActiveResidues>
 VAL166  LYS551  ARG553  GLY616  TRP617  ASP618  TYR619  PRO620  LYS621  CYS622 
 ASP623  PHE694  ASN695  SER759  ASP760  ASP761  ALA762  ILE779  LEU786  VAL792 
 PHE793  MET794  SER795  GLU796  ALA797  LYS798  CYS799  TRP800  GLU811  SER814 

> <Gold.Protein.RotatedAtoms>
  151.2653  133.4282  159.2618 H   0  0  0  0  0  0  0  0  0  0  0  0  # atno 6907 bound_to 6896
  151.0494  134.9662  159.8213 H   0  0  0  0  0  0  0  0  0  0  0  0  # atno 6908 bound_to 6896
  152.5380  134.2608  159.8987 H   0  0  0  0  0  0  0  0  0  0  0  0  # atno 6909 bound_to 6896
  145.5412  139.2289  143.2564 H   0  0  0  0  0  0  0  0  0  0  0  0  # atno 7974 bound_to 7965
  154.4967  140.0846  156.7711 H   0  0  0  0  0  0  0  0  0  0  0  0  # atno 8008 bound_to 7997
  155.4100  140.3441  155.4245 H   0  0  0  0  0  0  0  0  0  0  0  0  # atno 8009 bound_to 7997
  156.1403  140.1527  156.8919 H   0  0  0  0  0  0  0  0  0  0  0  0  # atno 8010 bound_to 7997
  140.7063  143.3213  151.2784 H   0  0  0  0  0  0  0  0  0  0  0  0  # atno 10167 bound_to 10162
  156.3492  130.4305  149.7719 H   0  0  0  0  0  0  0  0  0  0  0  0  # atno 10718 bound_to 10713
  154.8156  135.4625  154.0634 H   0  0  0  0  0  0  0  0  0  0  0  0  # atno 10763 bound_to 10752
  153.2029  135.6871  153.8215 H   0  0  0  0  0  0  0  0  0  0  0  0  # atno 10764 bound_to 10752
  153.7693  135.3272  155.3326 H   0  0  0  0  0  0  0  0  0  0  0  0  # atno 10765 bound_to 10752
  141.1657  133.7295  156.8723 H   0  0  0  0  0  0  0  0  0  0  0  0  # atno 11005 bound_to 11000
  146.1980  140.6232  142.9115 LP  0  0  0  0  0  0  0  0  0  0  0  0  # atno 17320 bound_to 7965
  144.7576  140.5345  143.6758 LP  0  0  0  0  0  0  0  0  0  0  0  0  # atno 17321 bound_to 7965
  139.6668  144.0090  152.2728 LP  0  0  0  0  0  0  0  0  0  0  0  0  # atno 17342 bound_to 10162
  139.9676  144.6516  150.8020 LP  0  0  0  0  0  0  0  0  0  0  0  0  # atno 17343 bound_to 10162
  156.4926  130.8092  151.3101 LP  0  0  0  0  0  0  0  0  0  0  0  0  # atno 17370 bound_to 10713
  157.7458  130.9970  150.2801 LP  0  0  0  0  0  0  0  0  0  0  0  0  # atno 17371 bound_to 10713
  140.1773  134.9058  157.2906 LP  0  0  0  0  0  0  0  0  0  0  0  0  # atno 17394 bound_to 11000
  140.2435  134.3767  155.7471 LP  0  0  0  0  0  0  0  0  0  0  0  0  # atno 17395 bound_to 11000

$$$$
