AV-unprocessed.smi:142|AV-procd|sdf|1192|dock5
  -GOLD-   2262018353D 1   1.00000     0.00000
 Structure written by MMmdl.
 52 55  0  0  0  0  0  0  0  0  1 V2000
  153.3125  138.8914  155.0749 C   0  0  0  0  0  0  0  0  0  0  0  0
  151.9045  138.9679  155.6800 C   0  0  1  0  0  0  0  0  0  0  0  0
  151.6068  137.7171  156.3731 N   0  0  0  0  0  0  0  0  0  0  0  0
  151.2221  136.5791  155.7752 C   0  0  0  0  0  0  0  0  0  0  0  0
  151.1720  136.4392  154.5530 O   0  0  0  0  0  0  0  0  0  0  0  0
  150.8178  135.4269  156.7043 C   0  0  0  0  0  0  0  0  0  0  0  0
  150.5102  134.1983  155.9407 N   0  0  0  0  0  0  0  0  0  0  0  0
  149.5154  134.2405  154.9330 C   0  0  0  0  0  0  0  0  0  0  0  0
  148.9327  135.2885  154.6515 O   0  0  0  0  0  0  0  0  0  0  0  0
  149.2310  132.9692  154.2772 C   0  0  0  0  0  0  0  0  0  0  0  0
  148.2930  132.9104  153.3167 F   0  0  0  0  0  0  0  0  0  0  0  0
  149.8890  131.8448  154.6266 C   0  0  0  0  0  0  0  0  0  0  0  0
  150.8702  131.8181  155.5985 N   0  0  0  0  0  0  0  0  0  0  0  0
  151.4966  130.4915  155.9709 C   0  0  1  0  0  0  0  0  0  0  0  0
  150.8376  129.2801  155.2937 C   0  0  0  0  0  0  0  0  0  0  0  0
  152.0354  128.3852  155.0567 C   0  0  0  0  0  0  0  0  0  0  0  0
  153.1396  129.3964  154.7681 C   0  0  0  0  0  0  0  0  0  0  0  0
  152.8487  130.5078  155.6114 O   0  0  0  0  0  0  0  0  0  0  0  0
  151.1890  133.0067  156.2954 C   0  0  0  0  0  0  0  0  0  0  0  0
  152.0278  133.0103  157.1977 O   0  0  0  0  0  0  0  0  0  0  0  0
  151.7634  140.1876  156.5870 C   0  0  0  0  0  0  0  0  0  0  0  0
  150.9263  141.2693  156.2293 C   0  0  0  0  0  0  0  0  0  0  0  0
  150.8140  142.3932  157.0697 C   0  0  0  0  0  0  0  0  0  0  0  0
  151.5328  142.4445  158.2804 C   0  0  0  0  0  0  0  0  0  0  0  0
  151.4261  143.5685  159.1256 C   0  0  0  0  0  0  0  0  0  0  0  0
  152.1465  143.6123  160.3352 C   0  0  0  0  0  0  0  0  0  0  0  0
  152.9746  142.5342  160.7034 C   0  0  0  0  0  0  0  0  0  0  0  0
  153.0849  141.4094  159.8629 C   0  0  0  0  0  0  0  0  0  0  0  0
  152.3662  141.3599  158.6504 C   0  0  0  0  0  0  0  0  0  0  0  0
  152.4754  140.2371  157.8043 C   0  0  0  0  0  0  0  0  0  0  0  0
  153.5390  139.7881  154.4972 H   0  0  0  0  0  0  0  0  0  0  0  0
  153.4072  138.0361  154.4051 H   0  0  0  0  0  0  0  0  0  0  0  0
  154.0740  138.7940  155.8496 H   0  0  0  0  0  0  0  0  0  0  0  0
  151.1954  139.0702  154.8561 H   0  0  0  0  0  0  0  0  0  0  0  0
  151.6258  137.7397  157.3822 H   0  0  0  0  0  0  0  0  0  0  0  0
  151.6200  135.2755  157.4273 H   0  0  0  0  0  0  0  0  0  0  0  0
  149.9596  135.7175  157.3135 H   0  0  0  0  0  0  0  0  0  0  0  0
  149.6325  130.9285  154.1151 H   0  0  0  0  0  0  0  0  0  0  0  0
  151.4389  130.4262  157.0582 H   0  0  0  0  0  0  0  0  0  0  0  0
  150.0829  128.8344  155.9419 H   0  0  0  0  0  0  0  0  0  0  0  0
  150.3678  129.5514  154.3495 H   0  0  0  0  0  0  0  0  0  0  0  0
  152.2693  127.8256  155.9632 H   0  0  0  0  0  0  0  0  0  0  0  0
  151.8853  127.6743  154.2440 H   0  0  0  0  0  0  0  0  0  0  0  0
  154.1345  128.9980  154.9674 H   0  0  0  0  0  0  0  0  0  0  0  0
  153.1086  129.7112  153.7249 H   0  0  0  0  0  0  0  0  0  0  0  0
  150.3664  141.2453  155.3063 H   0  0  0  0  0  0  0  0  0  0  0  0
  150.1745  143.2138  156.7799 H   0  0  0  0  0  0  0  0  0  0  0  0
  150.7931  144.3998  158.8510 H   0  0  0  0  0  0  0  0  0  0  0  0
  152.0641  144.4739  160.9813 H   0  0  0  0  0  0  0  0  0  0  0  0
  153.5258  142.5703  161.6315 H   0  0  0  0  0  0  0  0  0  0  0  0
  153.7233  140.5875  160.1522 H   0  0  0  0  0  0  0  0  0  0  0  0
  153.1134  139.4118  158.0862 H   0  0  0  0  0  0  0  0  0  0  0  0
  1  2  1  0  0  0  0
  1 31  1  0  0  0  0
  1 32  1  0  0  0  0
  1 33  1  0  0  0  0
  2  3  1  0  0  0  0
  2 21  1  0  0  0  0
  2 34  1  0  0  0  0
  3  4  1  0  0  0  0
  3 35  1  0  0  0  0
  4  5  2  0  0  0  0
  4  6  1  0  0  0  0
  6  7  1  0  0  0  0
  6 36  1  0  0  0  0
  6 37  1  0  0  0  0
  7 19  1  0  0  0  0
  7  8  1  0  0  0  0
  8  9  2  0  0  0  0
  8 10  1  0  0  0  0
 10 11  1  0  0  0  0
 10 12  2  0  0  0  0
 12 13  1  0  0  0  0
 12 38  1  0  0  0  0
 13 14  1  0  0  0  0
 13 19  1  0  0  0  0
 14 18  1  0  0  0  0
 14 15  1  0  0  0  0
 14 39  1  0  0  0  0
 15 16  1  0  0  0  0
 15 40  1  0  0  0  0
 15 41  1  0  0  0  0
 16 17  1  0  0  0  0
 16 42  1  0  0  0  0
 16 43  1  0  0  0  0
 17 18  1  0  0  0  0
 17 44  1  0  0  0  0
 17 45  1  0  0  0  0
 19 20  2  0  0  0  0
 21 30  1  0  0  0  0
 21 22  2  0  0  0  0
 22 23  1  0  0  0  0
 22 46  1  0  0  0  0
 23 24  2  0  0  0  0
 23 47  1  0  0  0  0
 24 29  1  0  0  0  0
 24 25  1  0  0  0  0
 25 26  2  0  0  0  0
 25 48  1  0  0  0  0
 26 27  1  0  0  0  0
 26 49  1  0  0  0  0
 27 28  2  0  0  0  0
 27 50  1  0  0  0  0
 28 29  1  0  0  0  0
 28 51  1  0  0  0  0
 29 30  2  0  0  0  0
 30 52  1  0  0  0  0
M  END
> <s_m_source_file>
AV-unprocessed.smi

> <i_m_source_file_index>
142

> <i_lp_mmshare_version>
43012

> <i_f3d_flags>
0

> <s_epik_input>
W2NIXTFbY0hdW2NIXVtjSF1jKGMxMilbY0hdYyhbY0hdW2NIXTIpW0NASF0oW0NIM10pW05IXUMoPU8pW0NIMl1uM2MoPU8pYyhGKVtjSF1uKGMzPU8pW0NAQEhdNFtDSDJdW0NIMl1bQ0gyXU80

> <s_epik_cmdline>
J2VwaWtfcHl0aG9uJywgJy1waCcsICc3LjAnLCAnLXRuJywgJzgnLCAnLW1hJywgJzIwMCcsICctbWV0YWxfYmluZGluZycsICctaW1hZScsICc8aW5maWxlLm1hZT4nLCAnLW9tYWUnLCAnPG91dGZpbGUubWFlPic=

> <r_lp_tautomer_probability>
1

> <r_epik_Ionization_Penalty>
3.35688e-08

> <r_epik_Ionization_Penalty_Charging>
3.59856e-09

> <r_epik_Ionization_Penalty_Neutral>
2.99702e-08

> <r_epik_State_Penalty>
-0

> <r_epik_Charging_Adjusted_Penalty>
3.59856e-09

> <i_epik_Tot_Q>
0

> <i_epik_Tot_abs_Q>
0

> <r_epik_Metal_State_Penalty>
-0

> <b_epik_Metal_Only>
0

> <s_epik_Chemistry_Notes>
This compound contains an acetal/aminal-like group ( X-CH(R)-Y where X, Y are N, S, or O) that may be acid/base labile, releasing an aldehyde.

> <s_lp_Force_Field>
OPLS_2005

> <r_lp_Energy>
24.972

> <b_lp_Chiralities_Consistent>
1

> <s_lp_Variant>
AV-unprocessed.smi:142-4

> <Gold.Version>
5.8.1

> <Gold.Id.Protein>
6NUR|6NUR_protein|mol2

> <Gold.PLP.Fitness>
60.9652

> <Gold.PLP.PLP>
-57.1866

> <Gold.PLP.part.hbond>
-2.0000

> <Gold.PLP.part.metal>
0.0000

> <Gold.PLP.part.buried>
-3.7251

> <Gold.PLP.part.nonpolar>
-53.9968

> <Gold.PLP.part.repulsive>
1.5918

> <Gold.PLP.ligand.clash>
0.0000

> <Gold.PLP.ligand.torsion>
0.5776

> <Gold.PLP.Chemscore.Hbond>
1.6115

> <Gold.PLP.Chemscore.CHOScore>
0.0000

> <Gold.PLP.Chemscore.Metal>
0.0000

> <Gold.Chemscore.Hbonds>
donor molecule, donor type, donor heavy atom, donor atom, acceptor molecule, acceptor atom, score
      P1  H  6896  6907       L1    20  0.64
      P1  H 10752 10765       L1     5  1.00

> <Gold.PLP.Chemscore.Internal.Correction>
0.0993

> <Gold.Rescore>
     Score         DG    S(hbond)    S(metal)    S(lipo)     H(rot)  DE(clash)    DE(int)     intcor
     14.43     -20.51       1.65        0.00     125.55       2.02       0.39       5.68       ----

> <Gold.Chemscore.Fitness>
14.4315

> <Gold.Chemscore.DG>
-20.5057

> <Gold.Chemscore.ZeroCoef>
-5.4800

> <Gold.Chemscore.Hbond>
1.6472

> <Gold.Chemscore.Metal>
0.0000

> <Gold.Chemscore.Lipo>
125.5469

> <Gold.Chemscore.Internal_Hbond>
0.0000

> <Gold.Chemscore.DEClash>
0.3921

> <Gold.Chemscore.DEInternal>
5.6821

> <Gold.Chemscore.Rot>
2.0175

> <Gold.Chemscore.Internal.Correction>
   9.000000E+99

> <Gold.Chemscore.Hbonds>
donor molecule, donor type, donor heavy atom, donor atom, acceptor molecule, acceptor atom, score
      P1  H  6896  6907       L1    20  0.61
      P1  H 10752 10765       L1     5  0.33

> <Gold.Chemscore.Hbond.Weighted>
-5.5015

> <Gold.Chemscore.Metal.Weighted>
-0.0000

> <Gold.Chemscore.Lipo.Weighted>
-14.6890

> <Gold.Chemscore.Internal_Hbond.Weighted>
0.0000

> <Gold.Chemscore.DEClash.Weighted>
0.3921

> <Gold.Chemscore.DEInternal.Weighted>
5.6821

> <Gold.Chemscore.Rot.Weighted>
5.1648

> <Gold.Chemscore.Internal.Correction.Weighted>
   9.000000E+99

> <Gold.Protein.RotatedTorsions>
[ 6907 6896 6895 6894 ] final  177.49 input  -60.11 | X-H torsion
[ 7974 7965 7964 7962 ] final  161.06 input  175.53 | X-H torsion
[ 8008 7997 7996 7995 ] final  174.86 input   59.86 | X-H torsion
[ 10167 10162 10161 10158 ] final   -5.87 input  -65.29 | X-H torsion
[ 10718 10713 10712 10709 ] final   42.47 input   66.30 | X-H torsion
[ 10763 10752 10751 10750 ] final  152.79 input  -60.55 | X-H torsion
[ 11005 11000 10999 10996 ] final   59.64 input  -57.11 | X-H torsion

> <Gold.Protein.ActiveResidues>
 VAL166  LYS551  ARG553  GLY616  TRP617  ASP618  TYR619  PRO620  LYS621  CYS622 
 ASP623  PHE694  ASN695  SER759  ASP760  ASP761  ALA762  ILE779  LEU786  VAL792 
 PHE793  MET794  SER795  GLU796  ALA797  LYS798  CYS799  TRP800  GLU811  SER814 

> <Gold.Protein.RotatedAtoms>
  151.7032  133.3311  159.3271 H   0  0  0  0  0  0  0  0  0  0  0  0  # atno 6907 bound_to 6896
  150.7727  134.6598  159.6342 H   0  0  0  0  0  0  0  0  0  0  0  0  # atno 6908 bound_to 6896
  152.3757  134.6670  160.0212 H   0  0  0  0  0  0  0  0  0  0  0  0  # atno 6909 bound_to 6896
  144.7705  139.7845  143.6299 H   0  0  0  0  0  0  0  0  0  0  0  0  # atno 7974 bound_to 7965
  156.0930  140.1423  156.9567 H   0  0  0  0  0  0  0  0  0  0  0  0  # atno 8008 bound_to 7997
  154.4654  140.0928  156.7052 H   0  0  0  0  0  0  0  0  0  0  0  0  # atno 8009 bound_to 7997
  155.4887  140.3447  155.4353 H   0  0  0  0  0  0  0  0  0  0  0  0  # atno 8010 bound_to 7997
  140.6978  143.6259  150.8568 H   0  0  0  0  0  0  0  0  0  0  0  0  # atno 10167 bound_to 10162
  157.4052  130.7882  149.7382 H   0  0  0  0  0  0  0  0  0  0  0  0  # atno 10718 bound_to 10713
  154.1257  135.2830  155.3197 H   0  0  0  0  0  0  0  0  0  0  0  0  # atno 10763 bound_to 10752
  154.6392  135.5408  153.7772 H   0  0  0  0  0  0  0  0  0  0  0  0  # atno 10764 bound_to 10752
  153.0298  135.6482  154.1409 H   0  0  0  0  0  0  0  0  0  0  0  0  # atno 10765 bound_to 10752
  140.0289  134.6041  155.9534 H   0  0  0  0  0  0  0  0  0  0  0  0  # atno 11005 bound_to 11000
  146.1847  139.5057  142.9844 LP  0  0  0  0  0  0  0  0  0  0  0  0  # atno 17320 bound_to 7965
  145.6339  141.0298  143.1848 LP  0  0  0  0  0  0  0  0  0  0  0  0  # atno 17321 bound_to 7965
  139.9979  143.5776  152.2886 LP  0  0  0  0  0  0  0  0  0  0  0  0  # atno 17342 bound_to 10162
  139.6455  144.7658  151.2253 LP  0  0  0  0  0  0  0  0  0  0  0  0  # atno 17343 bound_to 10162
  155.9834  130.4000  150.3363 LP  0  0  0  0  0  0  0  0  0  0  0  0  # atno 17370 bound_to 10713
  157.1495  131.0317  151.2891 LP  0  0  0  0  0  0  0  0  0  0  0  0  # atno 17371 bound_to 10713
  141.1819  133.6548  156.5057 LP  0  0  0  0  0  0  0  0  0  0  0  0  # atno 17394 bound_to 11000
  140.4259  134.7146  157.4915 LP  0  0  0  0  0  0  0  0  0  0  0  0  # atno 17395 bound_to 11000

$$$$
