AV-unprocessed.smi:728|AV-procd|sdf|3518|dock10
  -GOLD-   22720 0513D 1   1.00000     0.00000
 Structure written by MMmdl.
 39 40  0  0  0  0  0  0  0  0  1 V2000
  150.4013  135.4825  154.8648 C   0  0  0  0  0  0  0  0  0  0  0  0
  150.0053  136.4721  155.9712 C   0  0  0  0  0  0  0  0  0  0  0  0
  148.6540  136.1183  156.6085 C   0  0  0  0  0  0  0  0  0  0  0  0
  150.0266  137.8896  155.4919 C   0  0  0  0  0  0  0  0  0  0  0  0
  149.7682  138.9839  156.2056 N   0  0  0  0  0  0  0  0  0  0  0  0
  150.0677  139.9628  155.3068 C   0  0  0  0  0  0  0  0  0  0  0  0
  149.9372  141.4193  155.6210 C   0  0  0  0  0  0  0  0  0  0  0  0
  150.9170  141.8181  156.7259 C   0  0  0  0  0  0  0  0  0  0  0  0
  151.6463  140.9696  157.2389 O   0  0  0  0  0  0  0  0  0  0  0  0
  150.9181  143.1120  157.0848 N   0  0  0  0  0  0  0  0  0  0  0  0
  151.7323  143.6959  158.1454 C   0  0  0  0  0  0  0  0  0  0  0  0
  151.8225  142.7309  159.3460 C   0  0  0  0  0  0  0  0  0  0  0  0
  152.6015  143.3558  160.5147 C   0  0  0  0  0  0  0  0  0  0  0  0
  151.9950  144.7043  160.9334 C   0  0  0  0  0  0  0  0  0  0  0  0
  151.9127  145.6694  159.7403 C   0  0  0  0  0  0  0  0  0  0  0  0
  151.1285  145.0470  158.5737 C   0  0  0  0  0  0  0  0  0  0  0  0
  150.4979  139.5472  154.1215 N   0  0  0  0  0  0  0  0  0  0  0  0
  150.5001  138.1509  154.2492 O   0  0  0  0  0  0  0  0  0  0  0  0
  151.3881  135.7164  154.4638 H   0  0  0  0  0  0  0  0  0  0  0  0
  149.6911  135.5053  154.0373 H   0  0  0  0  0  0  0  0  0  0  0  0
  150.4340  134.4613  155.2452 H   0  0  0  0  0  0  0  0  0  0  0  0
  150.7616  136.3915  156.7536 H   0  0  0  0  0  0  0  0  0  0  0  0
  148.4253  136.7875  157.4389 H   0  0  0  0  0  0  0  0  0  0  0  0
  148.6563  135.0994  156.9964 H   0  0  0  0  0  0  0  0  0  0  0  0
  147.8421  136.1977  155.8845 H   0  0  0  0  0  0  0  0  0  0  0  0
  150.1281  142.0117  154.7246 H   0  0  0  0  0  0  0  0  0  0  0  0
  148.9154  141.6377  155.9342 H   0  0  0  0  0  0  0  0  0  0  0  0
  150.2822  143.7339  156.6067 H   0  0  0  0  0  0  0  0  0  0  0  0
  152.7385  143.8809  157.7640 H   0  0  0  0  0  0  0  0  0  0  0  0
  150.8190  142.4650  159.6821 H   0  0  0  0  0  0  0  0  0  0  0  0
  152.3032  141.7991  159.0453 H   0  0  0  0  0  0  0  0  0  0  0  0
  152.6095  142.6718  161.3639 H   0  0  0  0  0  0  0  0  0  0  0  0
  153.6428  143.4985  160.2231 H   0  0  0  0  0  0  0  0  0  0  0  0
  150.9973  144.5451  161.3445 H   0  0  0  0  0  0  0  0  0  0  0  0
  152.5912  145.1486  161.7309 H   0  0  0  0  0  0  0  0  0  0  0  0
  151.4414  146.6030  160.0491 H   0  0  0  0  0  0  0  0  0  0  0  0
  152.9193  145.9263  159.4079 H   0  0  0  0  0  0  0  0  0  0  0  0
  151.1186  145.7367  157.7289 H   0  0  0  0  0  0  0  0  0  0  0  0
  150.0881  144.9095  158.8722 H   0  0  0  0  0  0  0  0  0  0  0  0
  1  2  1  0  0  0  0
  1 19  1  0  0  0  0
  1 20  1  0  0  0  0
  1 21  1  0  0  0  0
  2  3  1  0  0  0  0
  2  4  1  0  0  0  0
  2 22  1  0  0  0  0
  3 23  1  0  0  0  0
  3 24  1  0  0  0  0
  3 25  1  0  0  0  0
  4 18  1  0  0  0  0
  4  5  2  0  0  0  0
  5  6  1  0  0  0  0
  6  7  1  0  0  0  0
  6 17  2  0  0  0  0
  7  8  1  0  0  0  0
  7 26  1  0  0  0  0
  7 27  1  0  0  0  0
  8  9  2  0  0  0  0
  8 10  1  0  0  0  0
 10 11  1  0  0  0  0
 10 28  1  0  0  0  0
 11 16  1  0  0  0  0
 11 12  1  0  0  0  0
 11 29  1  0  0  0  0
 12 13  1  0  0  0  0
 12 30  1  0  0  0  0
 12 31  1  0  0  0  0
 13 14  1  0  0  0  0
 13 32  1  0  0  0  0
 13 33  1  0  0  0  0
 14 15  1  0  0  0  0
 14 34  1  0  0  0  0
 14 35  1  0  0  0  0
 15 16  1  0  0  0  0
 15 36  1  0  0  0  0
 15 37  1  0  0  0  0
 16 38  1  0  0  0  0
 16 39  1  0  0  0  0
 17 18  1  0  0  0  0
M  END
> <s_m_source_file>
AV-unprocessed.smi

> <i_m_source_file_index>
728

> <i_lp_mmshare_version>
43012

> <i_f3d_flags>
0

> <s_epik_input>
W0NIM11bQ0hdKFtDSDNdKWMxbmMobm8xKVtDSDJdQyg9TylbTkhdW0NIXTJbQ0gyXVtDSDJdW0NIMl1bQ0gyXVtDSDJdMg==

> <s_epik_cmdline>
J2VwaWtfcHl0aG9uJywgJy1waCcsICc3LjAnLCAnLXRuJywgJzgnLCAnLW1hJywgJzIwMCcsICctbWV0YWxfYmluZGluZycsICctaW1hZScsICc8aW5maWxlLm1hZT4nLCAnLW9tYWUnLCAnPG91dGZpbGUubWFlPic=

> <r_lp_tautomer_probability>
1

> <r_epik_Ionization_Penalty>
6.23623e-08

> <r_epik_Ionization_Penalty_Charging>
0

> <r_epik_Ionization_Penalty_Neutral>
6.23623e-08

> <r_epik_State_Penalty>
-0

> <r_epik_Charging_Adjusted_Penalty>
0

> <i_epik_Tot_Q>
0

> <i_epik_Tot_abs_Q>
0

> <r_epik_Metal_State_Penalty>
-0

> <b_epik_Metal_Only>
0

> <s_lp_Force_Field>
OPLS_2005

> <r_lp_Energy>
7.21718

> <b_lp_Chiralities_Consistent>
1

> <s_lp_Variant>
AV-unprocessed.smi:728-1

> <Gold.Version>
5.8.1

> <Gold.Id.Protein>
6NUR|6NUR_protein|mol2

> <Gold.PLP.Fitness>
41.2461

> <Gold.PLP.PLP>
-35.9688

> <Gold.PLP.part.hbond>
-2.0000

> <Gold.PLP.part.metal>
0.0000

> <Gold.PLP.part.buried>
-5.9148

> <Gold.PLP.part.nonpolar>
-30.0375

> <Gold.PLP.part.repulsive>
0.6192

> <Gold.PLP.ligand.clash>
0.0000

> <Gold.PLP.ligand.torsion>
0.4188

> <Gold.PLP.Chemscore.Hbond>
2.0000

> <Gold.PLP.Chemscore.CHOScore>
0.0000

> <Gold.PLP.Chemscore.Metal>
0.0000

> <Gold.Chemscore.Hbonds>
donor molecule, donor type, donor heavy atom, donor atom, acceptor molecule, acceptor atom, score
      L1  H    10    28       P1  8028  1.00
      P1  H  7989  7998       L1    17  1.00

> <Gold.PLP.Chemscore.Internal.Correction>
0.1148

> <Gold.Rescore>
     Score         DG    S(hbond)    S(metal)    S(lipo)     H(rot)  DE(clash)    DE(int)     intcor
     16.11     -18.03       1.90        0.00      88.71       1.63       0.03       1.89       ----

> <Gold.Chemscore.Fitness>
16.1056

> <Gold.Chemscore.DG>
-18.0294

> <Gold.Chemscore.ZeroCoef>
-5.4800

> <Gold.Chemscore.Hbond>
1.9015

> <Gold.Chemscore.Metal>
0.0000

> <Gold.Chemscore.Lipo>
88.7062

> <Gold.Chemscore.Internal_Hbond>
0.0000

> <Gold.Chemscore.DEClash>
0.0329

> <Gold.Chemscore.DEInternal>
1.8909

> <Gold.Chemscore.Rot>
1.6329

> <Gold.Chemscore.Internal.Correction>
   9.000000E+99

> <Gold.Chemscore.Hbonds>
donor molecule, donor type, donor heavy atom, donor atom, acceptor molecule, acceptor atom, score
      L1  H    10    28       P1  8028  0.99
      P1  H  7989  7998       L1    17  0.60

> <Gold.Chemscore.Hbond.Weighted>
-6.3509

> <Gold.Chemscore.Metal.Weighted>
-0.0000

> <Gold.Chemscore.Lipo.Weighted>
-10.3786

> <Gold.Chemscore.Internal_Hbond.Weighted>
0.0000

> <Gold.Chemscore.DEClash.Weighted>
0.0329

> <Gold.Chemscore.DEInternal.Weighted>
1.8909

> <Gold.Chemscore.Rot.Weighted>
4.1802

> <Gold.Chemscore.Internal.Correction.Weighted>
   9.000000E+99

> <Gold.Protein.RotatedTorsions>
[ 6907 6896 6895 6894 ] final    7.19 input  -60.11 | X-H torsion
[ 7974 7965 7964 7962 ] final  -34.94 input  175.53 | X-H torsion
[ 8008 7997 7996 7995 ] final -169.28 input   59.86 | X-H torsion
[ 10167 10162 10161 10158 ] final    3.59 input  -65.29 | X-H torsion
[ 10718 10713 10712 10709 ] final  150.56 input   66.30 | X-H torsion
[ 10763 10752 10751 10750 ] final   22.54 input  -60.55 | X-H torsion
[ 11005 11000 10999 10996 ] final  131.02 input  -57.11 | X-H torsion

> <Gold.Protein.ActiveResidues>
 VAL166  LYS551  ARG553  GLY616  TRP617  ASP618  TYR619  PRO620  LYS621  CYS622 
 ASP623  PHE694  ASN695  SER759  ASP760  ASP761  ALA762  ILE779  LEU786  VAL792 
 PHE793  MET794  SER795  GLU796  ALA797  LYS798  CYS799  TRP800  GLU811  SER814 

> <Gold.Protein.RotatedAtoms>
  151.6859  135.0954  160.0224 H   0  0  0  0  0  0  0  0  0  0  0  0  # atno 6907 bound_to 6896
  152.3807  133.6538  159.6168 H   0  0  0  0  0  0  0  0  0  0  0  0  # atno 6908 bound_to 6896
  150.7745  133.9034  159.3389 H   0  0  0  0  0  0  0  0  0  0  0  0  # atno 6909 bound_to 6896
  146.0788  140.6100  142.8918 H   0  0  0  0  0  0  0  0  0  0  0  0  # atno 7974 bound_to 7965
  155.9028  140.1044  157.1337 H   0  0  0  0  0  0  0  0  0  0  0  0  # atno 8008 bound_to 7997
  154.4028  140.1289  156.4522 H   0  0  0  0  0  0  0  0  0  0  0  0  # atno 8009 bound_to 7997
  155.7402  140.3467  155.5103 H   0  0  0  0  0  0  0  0  0  0  0  0  # atno 8010 bound_to 7997
  140.6578  143.7382  150.7684 H   0  0  0  0  0  0  0  0  0  0  0  0  # atno 10167 bound_to 10162
  157.2819  131.0837  151.1525 H   0  0  0  0  0  0  0  0  0  0  0  0  # atno 10718 bound_to 10713
  153.0907  135.6646  153.9859 H   0  0  0  0  0  0  0  0  0  0  0  0  # atno 10763 bound_to 10752
  153.9456  135.2989  155.3442 H   0  0  0  0  0  0  0  0  0  0  0  0  # atno 10764 bound_to 10752
  154.7321  135.5118  153.9055 H   0  0  0  0  0  0  0  0  0  0  0  0  # atno 10765 bound_to 10752
  139.9706  134.9578  156.9378 H   0  0  0  0  0  0  0  0  0  0  0  0  # atno 11005 bound_to 11000
  144.7279  140.4582  143.6959 LP  0  0  0  0  0  0  0  0  0  0  0  0  # atno 17320 bound_to 7965
  145.6257  139.1530  143.2997 LP  0  0  0  0  0  0  0  0  0  0  0  0  # atno 17321 bound_to 7965
  140.1045  143.4756  152.2406 LP  0  0  0  0  0  0  0  0  0  0  0  0  # atno 17342 bound_to 10162
  139.5804  144.7508  151.3654 LP  0  0  0  0  0  0  0  0  0  0  0  0  # atno 17343 bound_to 10162
  157.2956  130.6817  149.6137 LP  0  0  0  0  0  0  0  0  0  0  0  0  # atno 17370 bound_to 10713
  155.9664  130.4407  150.5312 LP  0  0  0  0  0  0  0  0  0  0  0  0  # atno 17371 bound_to 10713
  140.5302  134.0821  155.7314 LP  0  0  0  0  0  0  0  0  0  0  0  0  # atno 17394 bound_to 11000
  141.1385  133.9179  157.2379 LP  0  0  0  0  0  0  0  0  0  0  0  0  # atno 17395 bound_to 11000

$$$$
