AV-unprocessed.smi:907|AV-procd|sdf|4107|dock6
  -GOLD-   22720 2 03D 1   1.00000     0.00000
 Structure written by MMmdl.
 53 56  0  0  0  0  0  0  0  0  2 V2000
  147.7140  131.5666  156.5290 O   0  0  0  0  0  0  0  0  0  0  0  0
  147.5708  132.7784  156.3625 C   0  0  0  0  0  0  0  0  0  0  0  0
  146.9841  133.5608  157.2824 N   0  0  0  0  0  0  0  0  0  0  0  0
  146.4704  133.0943  158.5630 C   0  0  0  0  0  0  0  0  0  0  0  0
  147.5108  133.3075  159.6716 C   0  0  0  0  0  0  0  0  0  0  0  0
  147.0827  134.3696  160.6669 C   0  0  0  0  0  0  0  0  0  0  0  0
  146.6976  134.0149  161.9775 C   0  0  0  0  0  0  0  0  0  0  0  0
  146.3143  135.0393  162.8645 C   0  0  0  0  0  0  0  0  0  0  0  0
  146.3322  136.3718  162.4101 C   0  0  0  0  0  0  0  0  0  0  0  0
  146.7343  136.6218  161.0826 C   0  0  0  0  0  0  0  0  0  0  0  0
  147.1027  135.6468  160.2235 N   0  0  0  0  0  0  0  0  0  0  0  0
  147.9570  133.4223  155.2321 N   0  0  0  0  0  0  0  0  0  0  0  0
  148.7186  132.8480  154.1169 C   0  0  0  0  0  0  0  0  0  0  0  0
  147.7756  132.6294  152.9184 C   0  0  0  0  0  0  0  0  0  0  0  0
  147.0560  133.8786  152.5275 N   0  3  0  0  0  0  0  0  0  0  0  0
  146.0754  133.7013  151.4118 C   0  0  1  0  0  0  0  0  0  0  0  0
  146.6767  132.8857  150.2359 C   0  0  0  0  0  0  0  0  0  0  0  0
  145.6596  131.7530  150.0204 C   0  0  2  0  0  0  0  0  0  0  0  0
  144.3594  132.3313  149.4379 C   0  0  0  0  0  0  0  0  0  0  0  0
  143.7605  133.0794  150.6412 C   0  0  0  0  0  0  0  0  0  0  0  0
  144.8121  132.8575  151.7468 C   0  0  1  0  0  0  0  0  0  0  0  0
  145.2591  131.4299  151.4535 C   0  0  0  0  0  0  0  0  0  0  0  0
  146.4344  134.5594  153.7032 C   0  0  0  0  0  0  0  0  0  0  0  0
  147.4289  134.7359  154.8633 C   0  0  0  0  0  0  0  0  0  0  0  0
  146.8819  134.5442  157.0784 H   0  0  0  0  0  0  0  0  0  0  0  0
  145.5534  133.6365  158.7988 H   0  0  0  0  0  0  0  0  0  0  0  0
  146.2122  132.0363  158.4916 H   0  0  0  0  0  0  0  0  0  0  0  0
  147.6845  132.3725  160.2066 H   0  0  0  0  0  0  0  0  0  0  0  0
  148.4688  133.5929  159.2348 H   0  0  0  0  0  0  0  0  0  0  0  0
  146.6969  132.9834  162.2978 H   0  0  0  0  0  0  0  0  0  0  0  0
  146.0123  134.8067  163.8751 H   0  0  0  0  0  0  0  0  0  0  0  0
  146.0452  137.1830  163.0627 H   0  0  0  0  0  0  0  0  0  0  0  0
  146.7610  137.6315  160.7006 H   0  0  0  0  0  0  0  0  0  0  0  0
  149.5155  133.5396  153.8391 H   0  0  0  0  0  0  0  0  0  0  0  0
  149.2242  131.9133  154.3601 H   0  0  0  0  0  0  0  0  0  0  0  0
  148.3868  132.2641  152.0960 H   0  0  0  0  0  0  0  0  0  0  0  0
  147.0480  131.8513  153.1551 H   0  0  0  0  0  0  0  0  0  0  0  0
  145.7698  134.6936  151.0750 H   0  0  0  0  0  0  0  0  0  0  0  0
  146.8196  133.4917  149.3406 H   0  0  0  0  0  0  0  0  0  0  0  0
  147.6413  132.4468  150.4944 H   0  0  0  0  0  0  0  0  0  0  0  0
  146.0572  130.9114  149.4523 H   0  0  0  0  0  0  0  0  0  0  0  0
  144.5436  132.9879  148.5866 H   0  0  0  0  0  0  0  0  0  0  0  0
  143.6900  131.5352  149.1093 H   0  0  0  0  0  0  0  0  0  0  0  0
  143.5881  134.1356  150.4324 H   0  0  0  0  0  0  0  0  0  0  0  0
  142.8037  132.6383  150.9242 H   0  0  0  0  0  0  0  0  0  0  0  0
  144.3757  133.0076  152.7315 H   0  0  0  0  0  0  0  0  0  0  0  0
  144.4504  130.7001  151.5220 H   0  0  0  0  0  0  0  0  0  0  0  0
  146.0932  131.0999  152.0752 H   0  0  0  0  0  0  0  0  0  0  0  0
  146.0463  135.5380  153.4231 H   0  0  0  0  0  0  0  0  0  0  0  0
  145.5798  133.9737  154.0465 H   0  0  0  0  0  0  0  0  0  0  0  0
  146.9428  135.2436  155.6978 H   0  0  0  0  0  0  0  0  0  0  0  0
  148.2497  135.3879  154.5606 H   0  0  0  0  0  0  0  0  0  0  0  0
  147.7683  134.5065  152.1828 H   0  0  0  0  0  0  0  0  0  0  0  0
  1  2  2  0  0  0  0
  2  3  1  0  0  0  0
  2 12  1  0  0  0  0
  3  4  1  0  0  0  0
  3 25  1  0  0  0  0
  4  5  1  0  0  0  0
  4 26  1  0  0  0  0
  4 27  1  0  0  0  0
  5  6  1  0  0  0  0
  5 28  1  0  0  0  0
  5 29  1  0  0  0  0
  6 11  1  0  0  0  0
  6  7  2  0  0  0  0
  7  8  1  0  0  0  0
  7 30  1  0  0  0  0
  8  9  2  0  0  0  0
  8 31  1  0  0  0  0
  9 10  1  0  0  0  0
  9 32  1  0  0  0  0
 10 11  2  0  0  0  0
 10 33  1  0  0  0  0
 12 24  1  0  0  0  0
 12 13  1  0  0  0  0
 13 14  1  0  0  0  0
 13 34  1  0  0  0  0
 13 35  1  0  0  0  0
 14 15  1  0  0  0  0
 14 36  1  0  0  0  0
 14 37  1  0  0  0  0
 15 16  1  0  0  0  0
 15 23  1  0  0  0  0
 15 53  1  0  0  0  0
 16 21  1  0  0  0  0
 16 17  1  0  0  0  0
 16 38  1  0  0  0  0
 17 18  1  0  0  0  0
 17 39  1  0  0  0  0
 17 40  1  0  0  0  0
 18 22  1  0  0  0  0
 18 19  1  0  0  0  0
 18 41  1  0  0  0  0
 19 20  1  0  0  0  0
 19 42  1  0  0  0  0
 19 43  1  0  0  0  0
 20 21  1  0  0  0  0
 20 44  1  0  0  0  0
 20 45  1  0  0  0  0
 21 22  1  0  0  0  0
 21 46  1  0  0  0  0
 22 47  1  0  0  0  0
 22 48  1  0  0  0  0
 23 24  1  0  0  0  0
 23 49  1  0  0  0  0
 23 50  1  0  0  0  0
 24 51  1  0  0  0  0
 24 52  1  0  0  0  0
M  CHG  1  15   1
M  END
> <s_m_source_file>
AV-unprocessed.smi

> <i_m_source_file_index>
907

> <i_lp_mmshare_version>
43012

> <i_f3d_flags>
0

> <s_epik_input>
W0NIMl0xW0NIMl1bQ0BASF0oW0NIMl0yKVtDQEBIXShbQ0gyXVtDQEhdMTIpTihbQ0gyXVtDSDJdMylbQ0gyXVtDSDJdTjNDKD1PKVtOSF1bQ0gyXVtDSDJdYzRbY0hdW2NIXVtjSF1bY0hdbjQ=

> <s_epik_cmdline>
J2VwaWtfcHl0aG9uJywgJy1waCcsICc3LjAnLCAnLXRuJywgJzgnLCAnLW1hJywgJzIwMCcsICctbWV0YWxfYmluZGluZycsICctaW1hZScsICc8aW5maWxlLm1hZT4nLCAnLW9tYWUnLCAnPG91dGZpbGUubWFlPic=

> <r_epik_Ionization_Penalty>
0.0419258

> <r_epik_Ionization_Penalty_Charging>
0.00262064

> <r_epik_Ionization_Penalty_Neutral>
0.0393052

> <r_epik_State_Penalty>
0.0329887

> <r_epik_Charging_Adjusted_Penalty>
0.0356093

> <i_epik_Tot_Q>
1

> <i_epik_Tot_abs_Q>
1

> <r_epik_Metal_State_Penalty>
0.0309172

> <b_epik_Metal_Only>
0

> <s_lp_Force_Field>
OPLS_2005

> <r_lp_Energy>
96.5641

> <b_lp_Chiralities_Consistent>
1

> <s_lp_Variant>
AV-unprocessed.smi:907-2

> <Gold.Version>
5.8.1

> <Gold.Id.Protein>
6NUR|6NUR_protein|mol2

> <Gold.PLP.Fitness>
47.6464

> <Gold.PLP.PLP>
-44.0249

> <Gold.PLP.part.hbond>
-1.0000

> <Gold.PLP.part.metal>
0.0000

> <Gold.PLP.part.buried>
-3.1165

> <Gold.PLP.part.nonpolar>
-38.1183

> <Gold.PLP.part.repulsive>
0.0190

> <Gold.PLP.ligand.clash>
0.8715

> <Gold.PLP.ligand.torsion>
0.8005

> <Gold.PLP.Chemscore.Hbond>
2.0000

> <Gold.PLP.Chemscore.CHOScore>
0.0000

> <Gold.PLP.Chemscore.Metal>
0.0000

> <Gold.Chemscore.Hbonds>
donor molecule, donor type, donor heavy atom, donor atom, acceptor molecule, acceptor atom, score
      L1  H    15    53       P1  7948  1.82

> <Gold.PLP.Chemscore.Internal.Correction>
0.0940

> <Gold.Rescore>
     Score         DG    S(hbond)    S(metal)    S(lipo)     H(rot)  DE(clash)    DE(int)     intcor
     18.06     -18.76       0.94        0.00     116.67       1.37       0.07       0.63       ----

> <Gold.Chemscore.Fitness>
18.0624

> <Gold.Chemscore.DG>
-18.7602

> <Gold.Chemscore.ZeroCoef>
-5.4800

> <Gold.Chemscore.Hbond>
0.9417

> <Gold.Chemscore.Metal>
0.0000

> <Gold.Chemscore.Lipo>
116.6683

> <Gold.Chemscore.Internal_Hbond>
0.0000

> <Gold.Chemscore.DEClash>
0.0710

> <Gold.Chemscore.DEInternal>
0.6268

> <Gold.Chemscore.Rot>
1.3731

> <Gold.Chemscore.Internal.Correction>
   9.000000E+99

> <Gold.Chemscore.Hbonds>
donor molecule, donor type, donor heavy atom, donor atom, acceptor molecule, acceptor atom, score
      L1  H    15    53       P1  7948  0.39

> <Gold.Chemscore.Hbond.Weighted>
-3.1452

> <Gold.Chemscore.Metal.Weighted>
-0.0000

> <Gold.Chemscore.Lipo.Weighted>
-13.6502

> <Gold.Chemscore.Internal_Hbond.Weighted>
0.0000

> <Gold.Chemscore.DEClash.Weighted>
0.0710

> <Gold.Chemscore.DEInternal.Weighted>
0.6268

> <Gold.Chemscore.Rot.Weighted>
3.5152

> <Gold.Chemscore.Internal.Correction.Weighted>
   9.000000E+99

> <Gold.Protein.RotatedTorsions>
[ 6907 6896 6895 6894 ] final    1.91 input  -60.11 | X-H torsion
[ 7974 7965 7964 7962 ] final  158.37 input  175.53 | X-H torsion
[ 8008 7997 7996 7995 ] final  -28.33 input   59.86 | X-H torsion
[ 10167 10162 10161 10158 ] final  110.95 input  -65.29 | X-H torsion
[ 10718 10713 10712 10709 ] final    8.07 input   66.30 | X-H torsion
[ 10763 10752 10751 10750 ] final -154.34 input  -60.55 | X-H torsion
[ 11005 11000 10999 10996 ] final  167.95 input  -57.11 | X-H torsion

> <Gold.Protein.ActiveResidues>
 VAL166  LYS551  ARG553  GLY616  TRP617  ASP618  TYR619  PRO620  LYS621  CYS622 
 ASP623  PHE694  ASN695  SER759  ASP760  ASP761  ALA762  ILE779  LEU786  VAL792 
 PHE793  MET794  SER795  GLU796  ALA797  LYS798  CYS799  TRP800  GLU811  SER814 

> <Gold.Protein.RotatedAtoms>
  151.6003  135.1047  160.0058 H   0  0  0  0  0  0  0  0  0  0  0  0  # atno 6907 bound_to 6896
  152.4261  133.7193  159.6535 H   0  0  0  0  0  0  0  0  0  0  0  0  # atno 6908 bound_to 6896
  150.8150  133.8281  159.3187 H   0  0  0  0  0  0  0  0  0  0  0  0  # atno 6909 bound_to 6896
  144.7850  139.7469  143.6244 H   0  0  0  0  0  0  0  0  0  0  0  0  # atno 7974 bound_to 7965
  154.4337  140.1848  156.1072 H   0  0  0  0  0  0  0  0  0  0  0  0  # atno 8008 bound_to 7997
  156.0246  140.3337  155.7049 H   0  0  0  0  0  0  0  0  0  0  0  0  # atno 8009 bound_to 7997
  155.5927  140.0632  157.2745 H   0  0  0  0  0  0  0  0  0  0  0  0  # atno 8010 bound_to 7997
  139.6648  144.7128  151.1797 H   0  0  0  0  0  0  0  0  0  0  0  0  # atno 10167 bound_to 10162
  156.9463  130.5880  149.5654 H   0  0  0  0  0  0  0  0  0  0  0  0  # atno 10718 bound_to 10713
  154.7865  135.3192  154.7874 H   0  0  0  0  0  0  0  0  0  0  0  0  # atno 10763 bound_to 10752
  153.8573  135.6856  153.4790 H   0  0  0  0  0  0  0  0  0  0  0  0  # atno 10764 bound_to 10752
  153.1519  135.4696  154.9588 H   0  0  0  0  0  0  0  0  0  0  0  0  # atno 10765 bound_to 10752
  140.2822  134.7741  157.3768 H   0  0  0  0  0  0  0  0  0  0  0  0  # atno 11005 bound_to 11000
  146.2077  139.5412  142.9702 LP  0  0  0  0  0  0  0  0  0  0  0  0  # atno 17320 bound_to 7965
  145.5947  141.0364  143.2051 LP  0  0  0  0  0  0  0  0  0  0  0  0  # atno 17321 bound_to 7965
  140.7595  143.5936  150.8771 LP  0  0  0  0  0  0  0  0  0  0  0  0  # atno 17342 bound_to 10162
  139.9597  143.6178  152.3006 LP  0  0  0  0  0  0  0  0  0  0  0  0  # atno 17343 bound_to 10162
  156.0382  130.5467  150.8706 LP  0  0  0  0  0  0  0  0  0  0  0  0  # atno 17370 bound_to 10713
  157.5752  131.0946  150.9357 LP  0  0  0  0  0  0  0  0  0  0  0  0  # atno 17371 bound_to 10713
  140.1273  134.5141  155.8134 LP  0  0  0  0  0  0  0  0  0  0  0  0  # atno 17394 bound_to 11000
  141.2161  133.6777  156.6975 LP  0  0  0  0  0  0  0  0  0  0  0  0  # atno 17395 bound_to 11000

$$$$
