AV-unprocessed.smi:2787|AV-procd|sdf|10758|dock8
  -GOLD-   2272015193D 1   1.00000     0.00000
 Structure written by MMmdl.
 36 37  0  0  0  0  0  0  0  0  2 V2000
  147.9912  139.7382  153.3530 O   0  0  0  0  0  0  0  0  0  0  0  0
  147.9533  141.0941  153.7445 C   0  0  0  0  0  0  0  0  0  0  0  0
  149.2046  141.4526  154.5594 C   0  0  0  0  0  0  0  0  0  0  0  0
  149.1632  140.9060  155.9983 C   0  0  0  0  0  0  0  0  0  0  0  0
  150.0397  141.6624  156.9492 C   0  0  0  0  0  0  0  0  0  0  0  0
  150.1925  143.0164  157.0263 N   0  3  0  0  0  0  0  0  0  0  0  0
  151.1016  143.3355  158.0349 C   0  0  0  0  0  0  0  0  0  0  0  0
  151.5706  144.5670  158.4821 C   0  0  0  0  0  0  0  0  0  0  0  0
  152.5007  144.5429  159.5418 C   0  0  0  0  0  0  0  0  0  0  0  0
  152.9290  143.3278  160.1150 C   0  0  0  0  0  0  0  0  0  0  0  0
  152.4473  142.0856  159.6518 C   0  0  0  0  0  0  0  0  0  0  0  0
  151.5288  142.1176  158.6023 C   0  0  0  0  0  0  0  0  0  0  0  0
  150.8504  141.1139  157.8997 N   0  0  0  0  0  0  0  0  0  0  0  0
  151.0817  139.6999  158.2394 C   0  0  0  0  0  0  0  0  0  0  0  0
  152.5560  139.2758  158.0788 C   0  0  2  0  0  0  0  0  0  0  0  0
  152.9539  139.4295  156.7300 O   0  0  0  0  0  0  0  0  0  0  0  0
  152.8128  137.8229  158.5237 C   0  0  0  0  0  0  0  0  0  0  0  0
  152.1273  136.9788  157.7524 F   0  0  0  0  0  0  0  0  0  0  0  0
  154.1089  137.5411  158.3909 F   0  0  0  0  0  0  0  0  0  0  0  0
  152.4666  137.6459  159.7994 F   0  0  0  0  0  0  0  0  0  0  0  0
  148.5149  139.6648  152.5693 H   0  0  0  0  0  0  0  0  0  0  0  0
  147.8697  141.7268  152.8605 H   0  0  0  0  0  0  0  0  0  0  0  0
  147.0566  141.2558  154.3434 H   0  0  0  0  0  0  0  0  0  0  0  0
  150.0771  141.0443  154.0477 H   0  0  0  0  0  0  0  0  0  0  0  0
  149.3327  142.5360  154.5720 H   0  0  0  0  0  0  0  0  0  0  0  0
  148.1411  140.9354  156.3769 H   0  0  0  0  0  0  0  0  0  0  0  0
  149.4694  139.8595  156.0047 H   0  0  0  0  0  0  0  0  0  0  0  0
  151.2439  145.4993  158.0449 H   0  0  0  0  0  0  0  0  0  0  0  0
  152.8932  145.4746  159.9229 H   0  0  0  0  0  0  0  0  0  0  0  0
  153.6416  143.3482  160.9269 H   0  0  0  0  0  0  0  0  0  0  0  0
  152.7802  141.1623  160.1025 H   0  0  0  0  0  0  0  0  0  0  0  0
  150.7657  139.5621  159.2736 H   0  0  0  0  0  0  0  0  0  0  0  0
  150.4217  139.0732  157.6396 H   0  0  0  0  0  0  0  0  0  0  0  0
  153.1827  139.9382  158.6777 H   0  0  0  0  0  0  0  0  0  0  0  0
  152.3711  140.0467  156.3154 H   0  0  0  0  0  0  0  0  0  0  0  0
  149.7064  143.6728  156.4290 H   0  0  0  0  0  0  0  0  0  0  0  0
  1  2  1  0  0  0  0
  1 21  1  0  0  0  0
  2  3  1  0  0  0  0
  2 22  1  0  0  0  0
  2 23  1  0  0  0  0
  3  4  1  0  0  0  0
  3 24  1  0  0  0  0
  3 25  1  0  0  0  0
  4  5  1  0  0  0  0
  4 26  1  0  0  0  0
  4 27  1  0  0  0  0
  5 13  1  0  0  0  0
  5  6  2  0  0  0  0
  6  7  1  0  0  0  0
  6 36  1  0  0  0  0
  7 12  2  0  0  0  0
  7  8  1  0  0  0  0
  8  9  2  0  0  0  0
  8 28  1  0  0  0  0
  9 10  1  0  0  0  0
  9 29  1  0  0  0  0
 10 11  2  0  0  0  0
 10 30  1  0  0  0  0
 11 12  1  0  0  0  0
 11 31  1  0  0  0  0
 12 13  1  0  0  0  0
 13 14  1  0  0  0  0
 14 15  1  0  0  0  0
 14 32  1  0  0  0  0
 14 33  1  0  0  0  0
 15 16  1  0  0  0  0
 15 17  1  0  0  0  0
 15 34  1  0  0  0  0
 16 35  1  0  0  0  0
 17 18  1  0  0  0  0
 17 19  1  0  0  0  0
 17 20  1  0  0  0  0
M  CHG  1   6   1
M  END
> <s_m_source_file>
AV-unprocessed.smi

> <i_m_source_file_index>
2787

> <i_lp_mmshare_version>
43012

> <i_f3d_flags>
0

> <s_epik_input>
W09IXVtDSDJdW0NIMl1bQ0gyXWMobjEpbihbQ0gyXVtDQEhdKFtPSF0pQyhGKShGKUYpYyhjMTIpW2NIXVtjSF1bY0hdW2NIXTI=

> <s_epik_cmdline>
J2VwaWtfcHl0aG9uJywgJy1waCcsICc3LjAnLCAnLXRuJywgJzgnLCAnLW1hJywgJzIwMCcsICctbWV0YWxfYmluZGluZycsICctaW1hZScsICc8aW5maWxlLm1hZT4nLCAnLW9tYWUnLCAnPG91dGZpbGUubWFlPic=

> <r_epik_Ionization_Penalty>
0.964009

> <r_epik_Ionization_Penalty_Charging>
0.952215

> <r_epik_Ionization_Penalty_Neutral>
0.0117938

> <r_epik_State_Penalty>
1.09527

> <r_epik_Charging_Adjusted_Penalty>
2.04749

> <i_epik_Tot_Q>
1

> <i_epik_Tot_abs_Q>
1

> <r_epik_Metal_State_Penalty>
5.08046

> <b_epik_Metal_Only>
0

> <s_lp_Force_Field>
OPLS_2005

> <r_lp_Energy>
17.2873

> <b_lp_Chiralities_Consistent>
1

> <s_lp_Variant>
AV-unprocessed.smi:2787-3

> <Gold.Version>
5.8.1

> <Gold.Id.Protein>
6NUR|6NUR_protein|mol2

> <Gold.PLP.Fitness>
52.5604

> <Gold.PLP.PLP>
-41.3777

> <Gold.PLP.part.hbond>
-3.0000

> <Gold.PLP.part.metal>
0.0000

> <Gold.PLP.part.buried>
-5.7854

> <Gold.PLP.part.nonpolar>
-33.0614

> <Gold.PLP.part.repulsive>
0.0092

> <Gold.PLP.ligand.clash>
0.0000

> <Gold.PLP.ligand.torsion>
0.4226

> <Gold.PLP.Chemscore.Hbond>
4.0000

> <Gold.PLP.Chemscore.CHOScore>
0.0000

> <Gold.PLP.Chemscore.Metal>
0.0000

> <Gold.Chemscore.Hbonds>
donor molecule, donor type, donor heavy atom, donor atom, acceptor molecule, acceptor atom, score
      L1  H     1    21       P1  7957  1.00
      L1  H     6    36       P1  8028  2.00
      P1  H  7997  8008       L1    16  1.00

> <Gold.PLP.Chemscore.Internal.Correction>
0.0280

> <Gold.Rescore>
     Score         DG    S(hbond)    S(metal)    S(lipo)     H(rot)  DE(clash)    DE(int)     intcor
     17.56     -18.07       2.93        0.00     100.70       3.51       0.02       0.49       ----

> <Gold.Chemscore.Fitness>
17.5569

> <Gold.Chemscore.DG>
-18.0659

> <Gold.Chemscore.ZeroCoef>
-5.4800

> <Gold.Chemscore.Hbond>
2.9345

> <Gold.Chemscore.Metal>
0.0000

> <Gold.Chemscore.Lipo>
100.6962

> <Gold.Chemscore.Internal_Hbond>
0.0000

> <Gold.Chemscore.DEClash>
0.0217

> <Gold.Chemscore.DEInternal>
0.4873

> <Gold.Chemscore.Rot>
3.5143

> <Gold.Chemscore.Internal.Correction>
   9.000000E+99

> <Gold.Chemscore.Hbonds>
donor molecule, donor type, donor heavy atom, donor atom, acceptor molecule, acceptor atom, score
      L1  H     1    21       P1  7957  1.00
      L1  H     6    36       P1  8028  0.93
      P1  H  7997  8008       L1    16  0.39

> <Gold.Chemscore.Hbond.Weighted>
-9.8012

> <Gold.Chemscore.Metal.Weighted>
-0.0000

> <Gold.Chemscore.Lipo.Weighted>
-11.7815

> <Gold.Chemscore.Internal_Hbond.Weighted>
0.0000

> <Gold.Chemscore.DEClash.Weighted>
0.0217

> <Gold.Chemscore.DEInternal.Weighted>
0.4873

> <Gold.Chemscore.Rot.Weighted>
8.9967

> <Gold.Chemscore.Internal.Correction.Weighted>
   9.000000E+99

> <Gold.Protein.RotatedTorsions>
[ 6907 6896 6895 6894 ] final -162.31 input  -60.11 | X-H torsion
[ 7974 7965 7964 7962 ] final -134.26 input  175.53 | X-H torsion
[ 8008 7997 7996 7995 ] final  -67.30 input   59.86 | X-H torsion
[ 10167 10162 10161 10158 ] final -141.46 input  -65.29 | X-H torsion
[ 10718 10713 10712 10709 ] final   91.13 input   66.30 | X-H torsion
[ 10763 10752 10751 10750 ] final  143.68 input  -60.55 | X-H torsion
[ 11005 11000 10999 10996 ] final -124.80 input  -57.11 | X-H torsion

> <Gold.Protein.ActiveResidues>
 VAL166  LYS551  ARG553  GLY616  TRP617  ASP618  TYR619  PRO620  LYS621  CYS622 
 ASP623  PHE694  ASN695  SER759  ASP760  ASP761  ALA762  ILE779  LEU786  VAL792 
 PHE793  MET794  SER795  GLU796  ALA797  LYS798  CYS799  TRP800  GLU811  SER814 

> <Gold.Protein.RotatedAtoms>
  151.3784  133.3830  159.2707 H   0  0  0  0  0  0  0  0  0  0  0  0  # atno 6907 bound_to 6896
  150.9597  134.8987  159.7733 H   0  0  0  0  0  0  0  0  0  0  0  0  # atno 6908 bound_to 6896
  152.5144  134.3742  159.9381 H   0  0  0  0  0  0  0  0  0  0  0  0  # atno 6909 bound_to 6896
  144.9119  140.6906  143.5020 H   0  0  0  0  0  0  0  0  0  0  0  0  # atno 7974 bound_to 7965
  154.4791  140.0895  156.7333 H   0  0  0  0  0  0  0  0  0  0  0  0  # atno 8008 bound_to 7997
  155.4518  140.3457  155.4283 H   0  0  0  0  0  0  0  0  0  0  0  0  # atno 8009 bound_to 7997
  156.1163  140.1461  156.9256 H   0  0  0  0  0  0  0  0  0  0  0  0  # atno 8010 bound_to 7997
  139.8183  143.7609  152.2665 H   0  0  0  0  0  0  0  0  0  0  0  0  # atno 10167 bound_to 10162
  157.6960  131.0396  150.3683 H   0  0  0  0  0  0  0  0  0  0  0  0  # atno 10718 bound_to 10713
  153.9763  135.2945  155.3423 H   0  0  0  0  0  0  0  0  0  0  0  0  # atno 10763 bound_to 10752
  154.7294  135.5074  153.8942 H   0  0  0  0  0  0  0  0  0  0  0  0  # atno 10764 bound_to 10752
  153.0876  135.6698  154.0032 H   0  0  0  0  0  0  0  0  0  0  0  0  # atno 10765 bound_to 10752
  140.9812  134.0670  157.3762 H   0  0  0  0  0  0  0  0  0  0  0  0  # atno 11005 bound_to 11000
  145.3440  139.1724  143.4470 LP  0  0  0  0  0  0  0  0  0  0  0  0  # atno 17320 bound_to 7965
  146.3163  140.3484  142.8654 LP  0  0  0  0  0  0  0  0  0  0  0  0  # atno 17321 bound_to 7965
  139.7779  144.7454  151.0130 LP  0  0  0  0  0  0  0  0  0  0  0  0  # atno 17342 bound_to 10162
  140.7814  143.4574  151.0327 LP  0  0  0  0  0  0  0  0  0  0  0  0  # atno 17343 bound_to 10162
  156.4111  130.3934  149.6891 LP  0  0  0  0  0  0  0  0  0  0  0  0  # atno 17370 bound_to 10713
  156.4175  130.7752  151.2768 LP  0  0  0  0  0  0  0  0  0  0  0  0  # atno 17371 bound_to 10713
  139.8951  135.0139  156.6985 LP  0  0  0  0  0  0  0  0  0  0  0  0  # atno 17394 bound_to 11000
  140.7183  133.9163  155.8130 LP  0  0  0  0  0  0  0  0  0  0  0  0  # atno 17395 bound_to 11000

$$$$
