AV-unprocessed.smi:308|AV-procd|sdf|2285|dock4
  -GOLD-   2262022183D 1   1.00000     0.00000
 Structure written by MMmdl.
 51 52  0  0  0  0  0  0  0  0  3 V2000
  145.8534  131.9609  151.4846 C   0  0  0  0  0  0  0  0  0  0  0  0
  145.4324  133.3964  151.8291 C   0  0  2  0  0  0  0  0  0  0  0  0
  145.4223  134.3013  150.5859 C   0  0  0  0  0  0  0  0  0  0  0  0
  145.0282  135.7432  150.9478 C   0  0  0  0  0  0  0  0  0  0  0  0
  145.9305  136.3045  151.9868 N   0  3  1  0  0  0  0  0  0  0  0  0
  145.6504  137.7375  152.2556 C   0  0  0  0  0  0  0  0  0  0  0  0
  146.7529  138.6657  151.7093 C   0  0  0  0  0  0  0  0  0  0  0  0
  147.8858  138.7523  152.6241 N   0  0  0  0  0  0  0  0  0  0  0  0
  148.1503  139.7989  153.4191 C   0  0  0  0  0  0  0  0  0  0  0  0
  147.4435  140.8052  153.4668 O   0  0  0  0  0  0  0  0  0  0  0  0
  149.2761  139.6029  154.1274 N   0  0  0  0  0  0  0  0  0  0  0  0
  149.8885  140.4649  155.0781 C   0  0  0  0  0  0  0  0  0  0  0  0
  150.8369  139.9040  155.9585 C   0  0  0  0  0  0  0  0  0  0  0  0
  151.4633  140.7150  156.9270 C   0  0  0  0  0  0  0  0  0  0  0  0
  151.1312  142.0891  157.0175 C   0  0  0  0  0  0  0  0  0  0  0  0
  151.7142  142.9655  157.9582 N   0  0  0  0  0  0  0  0  0  0  0  0
  152.6496  142.4485  158.9485 C   0  0  0  0  0  0  0  0  0  0  0  0
  151.3681  144.3826  157.9404 C   0  0  0  0  0  0  0  0  0  0  0  0
  150.2050  142.5796  156.1580 N   0  3  0  0  0  0  0  0  0  0  0  0
  149.5822  141.8400  155.2152 C   0  0  0  0  0  0  0  0  0  0  0  0
  145.9343  135.4647  153.2145 C   0  0  0  0  0  0  0  0  0  0  0  0
  146.3472  134.0175  152.8975 C   0  0  0  0  0  0  0  0  0  0  0  0
  146.8638  131.9296  151.0755 H   0  0  0  0  0  0  0  0  0  0  0  0
  145.1820  131.5215  150.7464 H   0  0  0  0  0  0  0  0  0  0  0  0
  145.8327  131.3230  152.3686 H   0  0  0  0  0  0  0  0  0  0  0  0
  144.4184  133.3576  152.2303 H   0  0  0  0  0  0  0  0  0  0  0  0
  146.4082  134.3003  150.1183 H   0  0  0  0  0  0  0  0  0  0  0  0
  144.7282  133.9077  149.8426 H   0  0  0  0  0  0  0  0  0  0  0  0
  145.0720  136.3587  150.0482 H   0  0  0  0  0  0  0  0  0  0  0  0
  143.9971  135.7746  151.3038 H   0  0  0  0  0  0  0  0  0  0  0  0
  144.7079  138.0072  151.7769 H   0  0  0  0  0  0  0  0  0  0  0  0
  145.5060  137.8930  153.3260 H   0  0  0  0  0  0  0  0  0  0  0  0
  147.1356  138.2976  150.7582 H   0  0  0  0  0  0  0  0  0  0  0  0
  146.3529  139.6631  151.5178 H   0  0  0  0  0  0  0  0  0  0  0  0
  148.5200  137.9665  152.6411 H   0  0  0  0  0  0  0  0  0  0  0  0
  149.7813  138.7518  153.9281 H   0  0  0  0  0  0  0  0  0  0  0  0
  151.0911  138.8560  155.8929 H   0  0  0  0  0  0  0  0  0  0  0  0
  152.1905  140.2660  157.5867 H   0  0  0  0  0  0  0  0  0  0  0  0
  152.1676  141.6985  159.5761 H   0  0  0  0  0  0  0  0  0  0  0  0
  153.0161  143.2418  159.6004 H   0  0  0  0  0  0  0  0  0  0  0  0
  153.5122  141.9939  158.4607 H   0  0  0  0  0  0  0  0  0  0  0  0
  150.2998  144.5182  158.1124 H   0  0  0  0  0  0  0  0  0  0  0  0
  151.6246  144.8283  156.9787 H   0  0  0  0  0  0  0  0  0  0  0  0
  151.9031  144.9319  158.7152 H   0  0  0  0  0  0  0  0  0  0  0  0
  148.8607  142.3817  154.6230 H   0  0  0  0  0  0  0  0  0  0  0  0
  146.6252  135.8712  153.9522 H   0  0  0  0  0  0  0  0  0  0  0  0
  144.9429  135.4794  153.6701 H   0  0  0  0  0  0  0  0  0  0  0  0
  146.3150  133.4199  153.8092 H   0  0  0  0  0  0  0  0  0  0  0  0
  147.3831  134.0010  152.5548 H   0  0  0  0  0  0  0  0  0  0  0  0
  146.8621  136.2646  151.5981 H   0  0  0  0  0  0  0  0  0  0  0  0
  149.9613  143.5677  156.2277 H   0  0  0  0  0  0  0  0  0  0  0  0
  1  2  1  0  0  0  0
  1 23  1  0  0  0  0
  1 24  1  0  0  0  0
  1 25  1  0  0  0  0
  2 22  1  0  0  0  0
  2  3  1  0  0  0  0
  2 26  1  0  0  0  0
  3  4  1  0  0  0  0
  3 27  1  0  0  0  0
  3 28  1  0  0  0  0
  4  5  1  0  0  0  0
  4 29  1  0  0  0  0
  4 30  1  0  0  0  0
  5  6  1  0  0  0  0
  5 21  1  0  0  0  0
  5 50  1  0  0  0  0
  6  7  1  0  0  0  0
  6 31  1  0  0  0  0
  6 32  1  0  0  0  0
  7  8  1  0  0  0  0
  7 33  1  0  0  0  0
  7 34  1  0  0  0  0
  8  9  1  0  0  0  0
  8 35  1  0  0  0  0
  9 10  2  0  0  0  0
  9 11  1  0  0  0  0
 11 12  1  0  0  0  0
 11 36  1  0  0  0  0
 12 20  1  0  0  0  0
 12 13  2  0  0  0  0
 13 14  1  0  0  0  0
 13 37  1  0  0  0  0
 14 15  2  0  0  0  0
 14 38  1  0  0  0  0
 15 16  1  0  0  0  0
 15 19  1  0  0  0  0
 16 17  1  0  0  0  0
 16 18  1  0  0  0  0
 17 39  1  0  0  0  0
 17 40  1  0  0  0  0
 17 41  1  0  0  0  0
 18 42  1  0  0  0  0
 18 43  1  0  0  0  0
 18 44  1  0  0  0  0
 19 20  2  0  0  0  0
 19 51  1  0  0  0  0
 20 45  1  0  0  0  0
 21 22  1  0  0  0  0
 21 46  1  0  0  0  0
 21 47  1  0  0  0  0
 22 48  1  0  0  0  0
 22 49  1  0  0  0  0
M  CHG  1   5   1
M  CHG  1  19   1
M  END
> <s_m_source_file>
AV-unprocessed.smi

> <i_m_source_file_index>
308

> <i_lp_mmshare_version>
43012

> <i_f3d_flags>
0

> <s_epik_input>
W0NIM11bQ0hdMVtDSDJdW0NIMl1OKFtDSDJdW0NIMl0xKVtDSDJdW0NIMl1bTkhdQyg9TylbTkhdYzJbY0hdW2NIXWMoTihbQ0gzXSlbQ0gzXSluW2NIXTI=

> <s_epik_cmdline>
J2VwaWtfcHl0aG9uJywgJy1waCcsICc3LjAnLCAnLXRuJywgJzgnLCAnLW1hJywgJzIwMCcsICctbWV0YWxfYmluZGluZycsICctaW1hZScsICc8aW5maWxlLm1hZT4nLCAnLW9tYWUnLCAnPG91dGZpbGUubWFlPic=

> <r_lp_tautomer_probability>
0.999994

> <r_epik_Ionization_Penalty>
0.309846

> <r_epik_Ionization_Penalty_Charging>
0.309826

> <r_epik_Ionization_Penalty_Neutral>
1.97883e-05

> <r_epik_State_Penalty>
0.302329

> <r_epik_Charging_Adjusted_Penalty>
0.612155

> <i_epik_Tot_Q>
2

> <i_epik_Tot_abs_Q>
2

> <r_epik_Metal_State_Penalty>
0.577265

> <b_epik_Metal_Only>
0

> <s_lp_Force_Field>
OPLS_2005

> <r_lp_Energy>
27.4115

> <b_lp_Chiralities_Consistent>
1

> <s_lp_Variant>
AV-unprocessed.smi:308-1

> <Gold.Version>
5.8.1

> <Gold.Id.Protein>
6NUR|6NUR_protein|mol2

> <Gold.PLP.Fitness>
54.8865

> <Gold.PLP.PLP>
-42.9528

> <Gold.PLP.part.hbond>
-5.0000

> <Gold.PLP.part.metal>
0.0000

> <Gold.PLP.part.buried>
1.3358

> <Gold.PLP.part.nonpolar>
-39.8238

> <Gold.PLP.part.repulsive>
0.4835

> <Gold.PLP.ligand.clash>
0.0000

> <Gold.PLP.ligand.torsion>
0.9921

> <Gold.PLP.Chemscore.Hbond>
4.6240

> <Gold.PLP.Chemscore.CHOScore>
0.0000

> <Gold.PLP.Chemscore.Metal>
0.0000

> <Gold.Chemscore.Hbonds>
donor molecule, donor type, donor heavy atom, donor atom, acceptor molecule, acceptor atom, score
      L1  H     5    50       P1  7948  1.79
      L1  H     8    35       P1  7948  0.91
      L1  H    19    51       P1  8028  1.76

> <Gold.PLP.Chemscore.Internal.Correction>
0.0458

> <Gold.Rescore>
     Score         DG    S(hbond)    S(metal)    S(lipo)     H(rot)  DE(clash)    DE(int)     intcor
     18.05     -21.74       2.59        0.00      96.63       1.45       1.51       2.19       ----

> <Gold.Chemscore.Fitness>
18.0473

> <Gold.Chemscore.DG>
-21.7402

> <Gold.Chemscore.ZeroCoef>
-5.4800

> <Gold.Chemscore.Hbond>
2.5932

> <Gold.Chemscore.Metal>
0.0000

> <Gold.Chemscore.Lipo>
96.6290

> <Gold.Chemscore.Internal_Hbond>
0.0000

> <Gold.Chemscore.DEClash>
1.5067

> <Gold.Chemscore.DEInternal>
2.1863

> <Gold.Chemscore.Rot>
1.4479

> <Gold.Chemscore.Internal.Correction>
   9.000000E+99

> <Gold.Chemscore.Hbonds>
donor molecule, donor type, donor heavy atom, donor atom, acceptor molecule, acceptor atom, score
      L1  H     5    50       P1  7948  0.82
      L1  H     8    35       P1  7948  0.89
      L1  H    19    51       P1  8028  0.86

> <Gold.Chemscore.Hbond.Weighted>
-8.6612

> <Gold.Chemscore.Metal.Weighted>
-0.0000

> <Gold.Chemscore.Lipo.Weighted>
-11.3056

> <Gold.Chemscore.Internal_Hbond.Weighted>
0.0000

> <Gold.Chemscore.DEClash.Weighted>
1.5067

> <Gold.Chemscore.DEInternal.Weighted>
2.1863

> <Gold.Chemscore.Rot.Weighted>
3.7065

> <Gold.Chemscore.Internal.Correction.Weighted>
   9.000000E+99

> <Gold.Protein.RotatedTorsions>
[ 6907 6896 6895 6894 ] final -143.27 input  -60.11 | X-H torsion
[ 7974 7965 7964 7962 ] final  -29.94 input  175.53 | X-H torsion
[ 8008 7997 7996 7995 ] final   74.14 input   59.86 | X-H torsion
[ 10167 10162 10161 10158 ] final   23.39 input  -65.29 | X-H torsion
[ 10718 10713 10712 10709 ] final  -99.72 input   66.30 | X-H torsion
[ 10763 10752 10751 10750 ] final   73.24 input  -60.55 | X-H torsion
[ 11005 11000 10999 10996 ] final   67.05 input  -57.11 | X-H torsion

> <Gold.Protein.ActiveResidues>
 VAL166  LYS551  ARG553  GLY616  TRP617  ASP618  TYR619  PRO620  LYS621  CYS622 
 ASP623  PHE694  ASN695  SER759  ASP760  ASP761  ALA762  ILE779  LEU786  VAL792 
 PHE793  MET794  SER795  GLU796  ALA797  LYS798  CYS799  TRP800  GLU811  SER814 

> <Gold.Protein.RotatedAtoms>
  151.0982  133.5264  159.2611 H   0  0  0  0  0  0  0  0  0  0  0  0  # atno 6907 bound_to 6896
  151.2105  135.0479  159.8919 H   0  0  0  0  0  0  0  0  0  0  0  0  # atno 6908 bound_to 6896
  152.5440  134.0798  159.8284 H   0  0  0  0  0  0  0  0  0  0  0  0  # atno 6909 bound_to 6896
  146.1180  140.5476  142.8748 H   0  0  0  0  0  0  0  0  0  0  0  0  # atno 7974 bound_to 7965
  155.7939  140.3478  155.5365 H   0  0  0  0  0  0  0  0  0  0  0  0  # atno 8008 bound_to 7997
  155.8606  140.0970  157.1636 H   0  0  0  0  0  0  0  0  0  0  0  0  # atno 8009 bound_to 7997
  154.4012  140.1359  156.3943 H   0  0  0  0  0  0  0  0  0  0  0  0  # atno 8010 bound_to 7997
  140.5272  143.9902  150.6447 H   0  0  0  0  0  0  0  0  0  0  0  0  # atno 10167 bound_to 10162
  156.0142  130.5295  150.6711 H   0  0  0  0  0  0  0  0  0  0  0  0  # atno 10718 bound_to 10713
  153.0509  135.5070  154.7864 H   0  0  0  0  0  0  0  0  0  0  0  0  # atno 10763 bound_to 10752
  154.6727  135.2955  154.9722 H   0  0  0  0  0  0  0  0  0  0  0  0  # atno 10764 bound_to 10752
  154.0535  135.6700  153.4856 H   0  0  0  0  0  0  0  0  0  0  0  0  # atno 10765 bound_to 10752
  139.9794  134.6768  156.0291 H   0  0  0  0  0  0  0  0  0  0  0  0  # atno 11005 bound_to 11000
  144.7571  140.5332  143.6761 LP  0  0  0  0  0  0  0  0  0  0  0  0  # atno 17320 bound_to 7965
  145.5526  139.1477  143.3385 LP  0  0  0  0  0  0  0  0  0  0  0  0  # atno 17321 bound_to 7965
  140.3267  143.3103  152.0729 LP  0  0  0  0  0  0  0  0  0  0  0  0  # atno 17342 bound_to 10162
  139.4942  144.6537  151.6620 LP  0  0  0  0  0  0  0  0  0  0  0  0  # atno 17343 bound_to 10162
  157.4434  131.0864  151.0921 LP  0  0  0  0  0  0  0  0  0  0  0  0  # atno 17370 bound_to 10713
  157.1458  130.6162  149.5568 LP  0  0  0  0  0  0  0  0  0  0  0  0  # atno 17371 bound_to 10713
  141.1468  133.6554  156.3892 LP  0  0  0  0  0  0  0  0  0  0  0  0  # atno 17394 bound_to 11000
  140.5127  134.6380  157.5290 LP  0  0  0  0  0  0  0  0  0  0  0  0  # atno 17395 bound_to 11000

$$$$
