AV-unprocessed.smi:2321|AV-procd|sdf|9283|dock1
  -GOLD-   2272012503D 1   1.00000     0.00000
 Structure written by MMmdl.
 36 37  0  0  0  0  0  0  0  0  1 V2000
  145.8981  138.7363  153.7608 O   0  0  0  0  0  0  0  0  0  0  0  0
  146.8107  138.1415  153.1919 C   0  0  0  0  0  0  0  0  0  0  0  0
  148.1191  138.4372  153.3193 N   0  0  0  0  0  0  0  0  0  0  0  0
  148.7371  139.4528  154.0978 C   0  0  0  0  0  0  0  0  0  0  0  0
  148.1365  140.6979  154.4046 C   0  0  0  0  0  0  0  0  0  0  0  0
  148.8660  141.6268  155.1737 C   0  0  0  0  0  0  0  0  0  0  0  0
  150.1159  141.3975  155.6294 N   0  0  0  0  0  0  0  0  0  0  0  0
  150.6906  140.2152  155.3225 C   0  0  0  0  0  0  0  0  0  0  0  0
  150.0491  139.2178  154.5610 C   0  0  0  0  0  0  0  0  0  0  0  0
  150.6844  138.0530  154.2847 F   0  0  0  0  0  0  0  0  0  0  0  0
  146.5589  137.0922  152.3873 N   0  0  0  0  0  0  0  0  0  0  0  0
  145.2643  136.5066  152.0309 C   0  0  2  0  0  0  0  0  0  0  0  0
  144.3480  136.5033  153.2674 C   0  0  0  0  0  0  0  0  0  0  0  0
  142.9935  135.8497  152.9558 C   0  0  0  0  0  0  0  0  0  0  0  0
  143.1752  134.4264  152.4059 C   0  0  0  0  0  0  0  0  0  0  0  0
  144.0850  134.4101  151.1594 C   0  0  2  0  0  0  0  0  0  0  0  0
  144.2591  132.9873  150.5889 C   0  0  0  0  0  0  0  0  0  0  0  0
  145.1281  132.2864  151.3179 F   0  0  0  0  0  0  0  0  0  0  0  0
  143.0879  132.3506  150.5852 F   0  0  0  0  0  0  0  0  0  0  0  0
  144.7014  133.0501  149.3329 F   0  0  0  0  0  0  0  0  0  0  0  0
  145.4407  135.0740  151.4832 C   0  0  0  0  0  0  0  0  0  0  0  0
  148.7570  137.8107  152.8505 H   0  0  0  0  0  0  0  0  0  0  0  0
  147.1490  140.9629  154.0602 H   0  0  0  0  0  0  0  0  0  0  0  0
  148.4346  142.5845  155.4243 H   0  0  0  0  0  0  0  0  0  0  0  0
  151.6930  140.0598  155.6933 H   0  0  0  0  0  0  0  0  0  0  0  0
  147.3661  136.6351  151.9881 H   0  0  0  0  0  0  0  0  0  0  0  0
  144.7850  137.1240  151.2688 H   0  0  0  0  0  0  0  0  0  0  0  0
  144.8292  135.9651  154.0855 H   0  0  0  0  0  0  0  0  0  0  0  0
  144.1894  137.5234  153.6194 H   0  0  0  0  0  0  0  0  0  0  0  0
  142.3787  135.8241  153.8560 H   0  0  0  0  0  0  0  0  0  0  0  0
  142.4519  136.4568  152.2295 H   0  0  0  0  0  0  0  0  0  0  0  0
  143.6007  133.7899  153.1827 H   0  0  0  0  0  0  0  0  0  0  0  0
  142.1988  134.0058  152.1638 H   0  0  0  0  0  0  0  0  0  0  0  0
  143.5995  135.0107  150.3885 H   0  0  0  0  0  0  0  0  0  0  0  0
  146.0602  135.0935  150.5862 H   0  0  0  0  0  0  0  0  0  0  0  0
  145.9798  134.4678  152.2127 H   0  0  0  0  0  0  0  0  0  0  0  0
  1  2  2  0  0  0  0
  2  3  1  0  0  0  0
  2 11  1  0  0  0  0
  3  4  1  0  0  0  0
  3 22  1  0  0  0  0
  4  9  1  0  0  0  0
  4  5  2  0  0  0  0
  5  6  1  0  0  0  0
  5 23  1  0  0  0  0
  6  7  2  0  0  0  0
  6 24  1  0  0  0  0
  7  8  1  0  0  0  0
  8  9  2  0  0  0  0
  8 25  1  0  0  0  0
  9 10  1  0  0  0  0
 11 12  1  0  0  0  0
 11 26  1  0  0  0  0
 12 21  1  0  0  0  0
 12 13  1  0  0  0  0
 12 27  1  0  0  0  0
 13 14  1  0  0  0  0
 13 28  1  0  0  0  0
 13 29  1  0  0  0  0
 14 15  1  0  0  0  0
 14 30  1  0  0  0  0
 14 31  1  0  0  0  0
 15 16  1  0  0  0  0
 15 32  1  0  0  0  0
 15 33  1  0  0  0  0
 16 17  1  0  0  0  0
 16 21  1  0  0  0  0
 16 34  1  0  0  0  0
 17 18  1  0  0  0  0
 17 19  1  0  0  0  0
 17 20  1  0  0  0  0
 21 35  1  0  0  0  0
 21 36  1  0  0  0  0
M  END
> <s_m_source_file>
AV-unprocessed.smi

> <i_m_source_file_index>
2321

> <i_lp_mmshare_version>
43012

> <i_f3d_flags>
0

> <s_epik_input>
RkMoRikoRilbQ0BASF0oW0NIMl0xKVtDSDJdW0NIMl1bQ0gyXVtDQEhdMVtOSF1DKD1PKVtOSF1jMltjSF1bY0hdbltjSF1jMkY=

> <s_epik_cmdline>
J2VwaWtfcHl0aG9uJywgJy1waCcsICc3LjAnLCAnLXRuJywgJzgnLCAnLW1hJywgJzIwMCcsICctbWV0YWxfYmluZGluZycsICctaW1hZScsICc8aW5maWxlLm1hZT4nLCAnLW9tYWUnLCAnPG91dGZpbGUubWFlPic=

> <r_epik_Ionization_Penalty>
0.00319438

> <r_epik_Ionization_Penalty_Charging>
0

> <r_epik_Ionization_Penalty_Neutral>
0.00319438

> <r_epik_State_Penalty>
0.00222511

> <r_epik_Charging_Adjusted_Penalty>
0.00222511

> <i_epik_Tot_Q>
0

> <i_epik_Tot_abs_Q>
0

> <r_epik_Metal_State_Penalty>
-0

> <b_epik_Metal_Only>
0

> <s_lp_Force_Field>
OPLS_2005

> <r_lp_Energy>
26.7556

> <b_lp_Chiralities_Consistent>
1

> <s_lp_Variant>
AV-unprocessed.smi:2321-3

> <Gold.Version>
5.8.1

> <Gold.Id.Protein>
6NUR|6NUR_protein|mol2

> <Gold.PLP.Fitness>
44.0395

> <Gold.PLP.PLP>
-36.7715

> <Gold.PLP.part.hbond>
-3.2335

> <Gold.PLP.part.metal>
0.0000

> <Gold.PLP.part.buried>
1.5773

> <Gold.PLP.part.nonpolar>
-36.7318

> <Gold.PLP.part.repulsive>
0.9661

> <Gold.PLP.ligand.clash>
0.0000

> <Gold.PLP.ligand.torsion>
0.8185

> <Gold.PLP.Chemscore.Hbond>
1.9600

> <Gold.PLP.Chemscore.CHOScore>
1.0000

> <Gold.PLP.Chemscore.Metal>
0.0000

> <Gold.Chemscore.Hbonds>
donor molecule, donor type, donor heavy atom, donor atom, acceptor molecule, acceptor atom, score
      L1  H     3    22       P1  7948  0.96
      L1  H    11    26       P1  7948  1.00
      L1  C     6    24       P1  8028  1.00

> <Gold.PLP.Chemscore.Internal.Correction>
0.0251

> <Gold.Rescore>
     Score         DG    S(hbond)    S(metal)    S(lipo)     H(rot)  DE(clash)    DE(int)     intcor
     13.18     -17.12       1.89        0.00      67.39       1.00       0.79       3.14       ----

> <Gold.Chemscore.Fitness>
13.1802

> <Gold.Chemscore.DG>
-17.1185

> <Gold.Chemscore.ZeroCoef>
-5.4800

> <Gold.Chemscore.Hbond>
1.8902

> <Gold.Chemscore.Metal>
0.0000

> <Gold.Chemscore.Lipo>
67.3943

> <Gold.Chemscore.Internal_Hbond>
0.0000

> <Gold.Chemscore.DEClash>
0.7941

> <Gold.Chemscore.DEInternal>
3.1442

> <Gold.Chemscore.Rot>
1.0000

> <Gold.Chemscore.Internal.Correction>
   9.000000E+99

> <Gold.Chemscore.Hbonds>
donor molecule, donor type, donor heavy atom, donor atom, acceptor molecule, acceptor atom, score
      L1  H     3    22       P1  7948  0.92
      L1  H    11    26       P1  7948  0.98

> <Gold.Chemscore.Hbond.Weighted>
-6.3134

> <Gold.Chemscore.Metal.Weighted>
-0.0000

> <Gold.Chemscore.Lipo.Weighted>
-7.8851

> <Gold.Chemscore.Internal_Hbond.Weighted>
0.0000

> <Gold.Chemscore.DEClash.Weighted>
0.7941

> <Gold.Chemscore.DEInternal.Weighted>
3.1442

> <Gold.Chemscore.Rot.Weighted>
2.5600

> <Gold.Chemscore.Internal.Correction.Weighted>
   9.000000E+99

> <Gold.Protein.RotatedTorsions>
[ 6907 6896 6895 6894 ] final  -52.48 input  -60.11 | X-H torsion
[ 7974 7965 7964 7962 ] final  150.12 input  175.53 | X-H torsion
[ 8008 7997 7996 7995 ] final   79.59 input   59.86 | X-H torsion
[ 10167 10162 10161 10158 ] final   24.97 input  -65.29 | X-H torsion
[ 10718 10713 10712 10709 ] final   -0.18 input   66.30 | X-H torsion
[ 10763 10752 10751 10750 ] final  155.02 input  -60.55 | X-H torsion
[ 11005 11000 10999 10996 ] final   77.39 input  -57.11 | X-H torsion

> <Gold.Protein.ActiveResidues>
 VAL166  LYS551  ARG553  GLY616  TRP617  ASP618  TYR619  PRO620  LYS621  CYS622 
 ASP623  PHE694  ASN695  SER759  ASP760  ASP761  ALA762  ILE779  LEU786  VAL792 
 PHE793  MET794  SER795  GLU796  ALA797  LYS798  CYS799  TRP800  GLU811  SER814 

> <Gold.Protein.RotatedAtoms>
  150.8514  134.7840  159.7011 H   0  0  0  0  0  0  0  0  0  0  0  0  # atno 6907 bound_to 6896
  152.4578  134.5250  159.9804 H   0  0  0  0  0  0  0  0  0  0  0  0  # atno 6908 bound_to 6896
  151.5370  133.3401  159.2964 H   0  0  0  0  0  0  0  0  0  0  0  0  # atno 6909 bound_to 6896
  144.8388  139.6367  143.6026 H   0  0  0  0  0  0  0  0  0  0  0  0  # atno 7974 bound_to 7965
  155.8718  140.3448  155.5827 H   0  0  0  0  0  0  0  0  0  0  0  0  # atno 8008 bound_to 7997
  155.7818  140.0859  157.2074 H   0  0  0  0  0  0  0  0  0  0  0  0  # atno 8009 bound_to 7997
  154.4018  140.1499  156.3048 H   0  0  0  0  0  0  0  0  0  0  0  0  # atno 8010 bound_to 7997
  140.5145  144.0106  150.6387 H   0  0  0  0  0  0  0  0  0  0  0  0  # atno 10167 bound_to 10162
  156.8243  130.5467  149.5693 H   0  0  0  0  0  0  0  0  0  0  0  0  # atno 10718 bound_to 10713
  154.1617  135.2809  155.3106 H   0  0  0  0  0  0  0  0  0  0  0  0  # atno 10763 bound_to 10752
  154.6141  135.5489  153.7508 H   0  0  0  0  0  0  0  0  0  0  0  0  # atno 10764 bound_to 10752
  153.0190  135.6423  154.1759 H   0  0  0  0  0  0  0  0  0  0  0  0  # atno 10765 bound_to 10752
  139.9256  134.7679  156.1516 H   0  0  0  0  0  0  0  0  0  0  0  0  # atno 11005 bound_to 11000
  146.2683  139.6573  142.9314 LP  0  0  0  0  0  0  0  0  0  0  0  0  # atno 17320 bound_to 7965
  145.4739  141.0436  143.2683 LP  0  0  0  0  0  0  0  0  0  0  0  0  # atno 17321 bound_to 7965
  140.3437  143.3004  152.0560 LP  0  0  0  0  0  0  0  0  0  0  0  0  # atno 17342 bound_to 10162
  139.4905  144.6424  151.6850 LP  0  0  0  0  0  0  0  0  0  0  0  0  # atno 17343 bound_to 10162
  156.0971  130.5940  150.9831 LP  0  0  0  0  0  0  0  0  0  0  0  0  # atno 17370 bound_to 10713
  157.6440  131.0906  150.8191 LP  0  0  0  0  0  0  0  0  0  0  0  0  # atno 17371 bound_to 10713
  141.0812  133.6753  156.2339 LP  0  0  0  0  0  0  0  0  0  0  0  0  # atno 17394 bound_to 11000
  140.6345  134.5230  157.5563 LP  0  0  0  0  0  0  0  0  0  0  0  0  # atno 17395 bound_to 11000

$$$$
