AV-unprocessed.smi:1439|AV-procd|sdf|5871|dock10
  -GOLD-   22720 5543D 1   1.00000     0.00000
 Structure written by MMmdl.
 35 36  0  0  0  0  0  0  0  0  2 V2000
  144.5331  137.8646  152.3689 N   0  0  0  0  0  0  0  0  0  0  0  0
  145.7740  137.8418  152.8661 C   0  0  0  0  0  0  0  0  0  0  0  0
  146.0888  137.1008  153.7949 O   0  0  0  0  0  0  0  0  0  0  0  0
  146.8223  138.7542  152.2177 C   0  0  0  0  0  0  0  0  0  0  0  0
  147.4167  139.7131  153.2111 C   0  0  0  0  0  0  0  0  0  0  0  0
  146.7554  140.6973  153.9001 C   0  0  0  0  0  0  0  0  0  0  0  0
  147.8253  141.5769  154.9535 S   0  0  0  0  0  0  0  0  0  0  0  0
  149.1672  140.5634  154.4181 C   0  0  0  0  0  0  0  0  0  0  0  0
  150.4339  140.6754  154.8471 N   0  5  0  0  0  0  0  0  0  0  0  0
  150.7959  140.0969  156.0168 C   0  0  0  0  0  0  0  0  0  0  0  0
  150.7603  138.9044  156.3282 O   0  0  0  0  0  0  0  0  0  0  0  0
  151.3010  141.1449  157.0185 C   0  0  0  0  0  0  0  0  0  0  0  0
  150.1946  142.0708  157.5591 C   0  0  0  0  0  0  0  0  0  0  0  0
  150.7459  143.1861  158.4591 C   0  0  2  0  0  0  0  0  0  0  0  0
  151.6190  144.2003  157.7260 C   0  0  0  0  0  0  0  0  0  0  0  0
  152.4608  144.7974  158.8410 C   0  0  0  0  0  0  0  0  0  0  0  0
  152.3855  143.7559  159.9625 C   0  0  0  0  0  0  0  0  0  0  0  0
  151.6445  142.6671  159.4265 O   0  0  0  0  0  0  0  0  0  0  0  0
  148.7821  139.6625  153.5075 N   0  0  0  0  0  0  0  0  0  0  0  0
  143.8134  137.2964  152.7911 H   0  0  0  0  0  0  0  0  0  0  0  0
  144.3138  138.4701  151.5912 H   0  0  0  0  0  0  0  0  0  0  0  0
  147.6052  138.1401  151.7705 H   0  0  0  0  0  0  0  0  0  0  0  0
  146.3504  139.2946  151.3965 H   0  0  0  0  0  0  0  0  0  0  0  0
  145.7083  140.9561  153.8551 H   0  0  0  0  0  0  0  0  0  0  0  0
  151.7802  140.6290  157.8521 H   0  0  0  0  0  0  0  0  0  0  0  0
  152.0736  141.7458  156.5359 H   0  0  0  0  0  0  0  0  0  0  0  0
  149.6405  142.5132  156.7298 H   0  0  0  0  0  0  0  0  0  0  0  0
  149.4780  141.4801  158.1320 H   0  0  0  0  0  0  0  0  0  0  0  0
  149.9305  143.7022  158.9695 H   0  0  0  0  0  0  0  0  0  0  0  0
  152.2670  143.6919  157.0104 H   0  0  0  0  0  0  0  0  0  0  0  0
  151.0376  144.9468  157.1842 H   0  0  0  0  0  0  0  0  0  0  0  0
  153.4853  144.9783  158.5142 H   0  0  0  0  0  0  0  0  0  0  0  0
  152.0430  145.7463  159.1789 H   0  0  0  0  0  0  0  0  0  0  0  0
  153.3712  143.4247  160.2905 H   0  0  0  0  0  0  0  0  0  0  0  0
  151.8580  144.1609  160.8272 H   0  0  0  0  0  0  0  0  0  0  0  0
  1  2  1  0  0  0  0
  1 20  1  0  0  0  0
  1 21  1  0  0  0  0
  2  3  2  0  0  0  0
  2  4  1  0  0  0  0
  4  5  1  0  0  0  0
  4 22  1  0  0  0  0
  4 23  1  0  0  0  0
  5 19  1  0  0  0  0
  5  6  2  0  0  0  0
  6  7  1  0  0  0  0
  6 24  1  0  0  0  0
  7  8  1  0  0  0  0
  8  9  1  0  0  0  0
  8 19  2  0  0  0  0
  9 10  1  0  0  0  0
 10 11  2  0  0  0  0
 10 12  1  0  0  0  0
 12 13  1  0  0  0  0
 12 25  1  0  0  0  0
 12 26  1  0  0  0  0
 13 14  1  0  0  0  0
 13 27  1  0  0  0  0
 13 28  1  0  0  0  0
 14 18  1  0  0  0  0
 14 15  1  0  0  0  0
 14 29  1  0  0  0  0
 15 16  1  0  0  0  0
 15 30  1  0  0  0  0
 15 31  1  0  0  0  0
 16 17  1  0  0  0  0
 16 32  1  0  0  0  0
 16 33  1  0  0  0  0
 17 18  1  0  0  0  0
 17 34  1  0  0  0  0
 17 35  1  0  0  0  0
M  CHG  1   9  -1
M  END
> <s_m_source_file>
AV-unprocessed.smi

> <i_m_source_file_index>
1439

> <i_lp_mmshare_version>
43012

> <i_f3d_flags>
0

> <s_epik_input>
W05IMl1DKD1PKVtDSDJdYzFbY0hdc2MobjEpW05IXUMoPU8pW0NIMl1bQ0gyXVtDQEBIXTJbQ0gyXVtDSDJdW0NIMl1PMg==

> <s_epik_cmdline>
J2VwaWtfcHl0aG9uJywgJy1waCcsICc3LjAnLCAnLXRuJywgJzgnLCAnLW1hJywgJzIwMCcsICctbWV0YWxfYmluZGluZycsICctaW1hZScsICc8aW5maWxlLm1hZT4nLCAnLW9tYWUnLCAnPG91dGZpbGUubWFlPic=

> <r_lp_tautomer_probability>
1

> <r_epik_Ionization_Penalty>
4.85214

> <r_epik_Ionization_Penalty_Charging>
4.5239

> <r_epik_Ionization_Penalty_Neutral>
0.32824

> <r_epik_State_Penalty>
4.52362

> <r_epik_Charging_Adjusted_Penalty>
9.04752

> <i_epik_Tot_Q>
-1

> <i_epik_Tot_abs_Q>
1

> <r_epik_Metal_State_Penalty>
0.831335

> <b_epik_Metal_Only>
1

> <s_lp_Force_Field>
OPLS_2005

> <r_lp_Energy>
14.205

> <b_lp_Chiralities_Consistent>
1

> <s_lp_Variant>
AV-unprocessed.smi:1439-3

> <Gold.Version>
5.8.1

> <Gold.Id.Protein>
6NUR|6NUR_protein|mol2

> <Gold.PLP.Fitness>
42.3821

> <Gold.PLP.PLP>
-36.3972

> <Gold.PLP.part.hbond>
-3.0000

> <Gold.PLP.part.metal>
0.0000

> <Gold.PLP.part.buried>
-4.2787

> <Gold.PLP.part.nonpolar>
-33.3132

> <Gold.PLP.part.repulsive>
4.0680

> <Gold.PLP.ligand.clash>
0.0000

> <Gold.PLP.ligand.torsion>
1.4600

> <Gold.PLP.Chemscore.Hbond>
1.9120

> <Gold.PLP.Chemscore.CHOScore>
1.0000

> <Gold.PLP.Chemscore.Metal>
0.0000

> <Gold.Chemscore.Hbonds>
donor molecule, donor type, donor heavy atom, donor atom, acceptor molecule, acceptor atom, score
      L1  H     1    21       P1 10171  0.96
      P1  H  7989  7998       L1     9  0.90
      L1  C     6    24       P1 10175  1.00

> <Gold.PLP.Chemscore.Internal.Correction>
0.1689

> <Gold.Rescore>
     Score         DG    S(hbond)    S(metal)    S(lipo)     H(rot)  DE(clash)    DE(int)     intcor
     12.71     -15.73       1.86        0.00      89.42       2.51       1.42       1.60       ----

> <Gold.Chemscore.Fitness>
12.7144

> <Gold.Chemscore.DG>
-15.7322

> <Gold.Chemscore.ZeroCoef>
-5.4800

> <Gold.Chemscore.Hbond>
1.8613

> <Gold.Chemscore.Metal>
0.0000

> <Gold.Chemscore.Lipo>
89.4169

> <Gold.Chemscore.Internal_Hbond>
0.0000

> <Gold.Chemscore.DEClash>
1.4175

> <Gold.Chemscore.DEInternal>
1.6003

> <Gold.Chemscore.Rot>
2.5103

> <Gold.Chemscore.Internal.Correction>
   9.000000E+99

> <Gold.Chemscore.Hbonds>
donor molecule, donor type, donor heavy atom, donor atom, acceptor molecule, acceptor atom, score
      L1  H     1    21       P1 10171  0.92
      P1  H  7989  7998       L1     9  0.74

> <Gold.Chemscore.Hbond.Weighted>
-6.2169

> <Gold.Chemscore.Metal.Weighted>
-0.0000

> <Gold.Chemscore.Lipo.Weighted>
-10.4618

> <Gold.Chemscore.Internal_Hbond.Weighted>
0.0000

> <Gold.Chemscore.DEClash.Weighted>
1.4175

> <Gold.Chemscore.DEInternal.Weighted>
1.6003

> <Gold.Chemscore.Rot.Weighted>
6.4264

> <Gold.Chemscore.Internal.Correction.Weighted>
   9.000000E+99

> <Gold.Protein.RotatedTorsions>
[ 6907 6896 6895 6894 ] final -174.61 input  -60.11 | X-H torsion
[ 7974 7965 7964 7962 ] final  -23.19 input  175.53 | X-H torsion
[ 8008 7997 7996 7995 ] final  165.35 input   59.86 | X-H torsion
[ 10167 10162 10161 10158 ] final -118.94 input  -65.29 | X-H torsion
[ 10718 10713 10712 10709 ] final  -87.55 input   66.30 | X-H torsion
[ 10763 10752 10751 10750 ] final   68.00 input  -60.55 | X-H torsion
[ 11005 11000 10999 10996 ] final -107.42 input  -57.11 | X-H torsion

> <Gold.Protein.ActiveResidues>
 VAL166  LYS551  ARG553  GLY616  TRP617  ASP618  TYR619  PRO620  LYS621  CYS622 
 ASP623  PHE694  ASN695  SER759  ASP760  ASP761  ALA762  ILE779  LEU786  VAL792 
 PHE793  MET794  SER795  GLU796  ALA797  LYS798  CYS799  TRP800  GLU811  SER814 

> <Gold.Protein.RotatedAtoms>
  151.5752  133.3385  159.2997 H   0  0  0  0  0  0  0  0  0  0  0  0  # atno 6907 bound_to 6896
  150.8345  134.7615  159.6892 H   0  0  0  0  0  0  0  0  0  0  0  0  # atno 6908 bound_to 6896
  152.4423  134.5572  159.9935 H   0  0  0  0  0  0  0  0  0  0  0  0  # atno 6909 bound_to 6896
  146.1631  140.4582  142.8563 H   0  0  0  0  0  0  0  0  0  0  0  0  # atno 7974 bound_to 7965
  156.1807  140.1672  156.8279 H   0  0  0  0  0  0  0  0  0  0  0  0  # atno 8008 bound_to 7997
  154.5357  140.0747  156.8456 H   0  0  0  0  0  0  0  0  0  0  0  0  # atno 8009 bound_to 7997
  155.3316  140.3379  155.4242 H   0  0  0  0  0  0  0  0  0  0  0  0  # atno 8010 bound_to 7997
  140.0520  143.5050  152.2077 H   0  0  0  0  0  0  0  0  0  0  0  0  # atno 10167 bound_to 10162
  155.9985  130.4804  150.4884 H   0  0  0  0  0  0  0  0  0  0  0  0  # atno 10718 bound_to 10713
  153.0213  135.5263  154.7066 H   0  0  0  0  0  0  0  0  0  0  0  0  # atno 10763 bound_to 10752
  154.6160  135.2883  155.0381 H   0  0  0  0  0  0  0  0  0  0  0  0  # atno 10764 bound_to 10752
  154.1385  135.6582  153.4989 H   0  0  0  0  0  0  0  0  0  0  0  0  # atno 10765 bound_to 10752
  141.0955  133.8979  157.1973 H   0  0  0  0  0  0  0  0  0  0  0  0  # atno 11005 bound_to 11000
  144.8054  140.6290  143.6450 LP  0  0  0  0  0  0  0  0  0  0  0  0  # atno 17320 bound_to 7965
  145.4537  139.1520  143.3904 LP  0  0  0  0  0  0  0  0  0  0  0  0  # atno 17321 bound_to 7965
  139.5947  144.7562  151.3315 LP  0  0  0  0  0  0  0  0  0  0  0  0  # atno 17342 bound_to 10162
  140.7212  143.7130  150.7754 LP  0  0  0  0  0  0  0  0  0  0  0  0  # atno 17343 bound_to 10162
  157.2882  131.0621  151.2152 LP  0  0  0  0  0  0  0  0  0  0  0  0  # atno 17370 bound_to 10713
  157.3174  130.6920  149.6249 LP  0  0  0  0  0  0  0  0  0  0  0  0  # atno 17371 bound_to 10713
  139.9791  135.0104  156.9704 LP  0  0  0  0  0  0  0  0  0  0  0  0  # atno 17394 bound_to 11000
  140.5150  134.0964  155.7279 LP  0  0  0  0  0  0  0  0  0  0  0  0  # atno 17395 bound_to 11000

$$$$
