AV-unprocessed.smi:3025|AV-procd|sdf|11508|dock10
  -GOLD-   2272016443D 1   1.00000     0.00000
 Structure written by MMmdl.
 42 43  0  0  0  0  0  0  0  0  2 V2000
  153.8459  141.8823  162.0686 C   0  0  0  0  0  0  0  0  0  0  0  0
  152.4866  142.5767  162.2069 C   0  0  0  0  0  0  0  0  0  0  0  0
  152.3763  143.8319  161.3249 C   0  0  0  0  0  0  0  0  0  0  0  0
  152.4962  143.5559  159.8117 C   0  0  2  0  0  0  0  0  0  0  0  0
  151.7904  144.6285  158.9543 C   0  0  0  0  0  0  0  0  0  0  0  0
  151.8959  144.3200  157.4506 C   0  0  0  0  0  0  0  0  0  0  0  0
  151.3523  142.9189  157.0991 C   0  0  2  0  0  0  0  0  0  0  0  0
  149.8809  142.8302  157.2485 N   0  3  0  0  0  0  0  0  0  0  0  0
  149.2660  141.5771  156.7638 C   0  0  0  0  0  0  0  0  0  0  0  0
  149.1954  141.5599  155.2312 C   0  0  0  0  0  0  0  0  0  0  0  0
  149.6803  140.2679  154.6621 C   0  0  0  0  0  0  0  0  0  0  0  0
  148.8578  139.4555  153.9964 N   0  0  0  0  0  0  0  0  0  0  0  0
  149.6863  138.4534  153.6304 N   0  0  0  0  0  0  0  0  0  0  0  0
  150.9129  138.7283  154.0718 C   0  0  0  0  0  0  0  0  0  0  0  0
  150.9894  139.8767  154.7316 N   0  0  0  0  0  0  0  0  0  0  0  0
  152.0433  141.8491  157.9648 C   0  0  0  0  0  0  0  0  0  0  0  0
  151.9406  142.1590  159.4688 C   0  0  0  0  0  0  0  0  0  0  0  0
  153.8977  140.9989  162.7055 H   0  0  0  0  0  0  0  0  0  0  0  0
  154.6599  142.5476  162.3575 H   0  0  0  0  0  0  0  0  0  0  0  0
  154.0221  141.5624  161.0413 H   0  0  0  0  0  0  0  0  0  0  0  0
  151.7035  141.8643  161.9489 H   0  0  0  0  0  0  0  0  0  0  0  0
  152.3286  142.8472  163.2514 H   0  0  0  0  0  0  0  0  0  0  0  0
  151.4101  144.2993  161.5199 H   0  0  0  0  0  0  0  0  0  0  0  0
  153.1287  144.5614  161.6278 H   0  0  0  0  0  0  0  0  0  0  0  0
  153.5567  143.5595  159.5544 H   0  0  0  0  0  0  0  0  0  0  0  0
  150.7410  144.7028  159.2423 H   0  0  0  0  0  0  0  0  0  0  0  0
  152.2276  145.6095  159.1386 H   0  0  0  0  0  0  0  0  0  0  0  0
  151.3935  145.0957  156.8733 H   0  0  0  0  0  0  0  0  0  0  0  0
  152.9453  144.3728  157.1575 H   0  0  0  0  0  0  0  0  0  0  0  0
  151.5875  142.7019  156.0562 H   0  0  0  0  0  0  0  0  0  0  0  0
  149.6711  142.9036  158.2337 H   0  0  0  0  0  0  0  0  0  0  0  0
  149.8432  140.7209  157.1119 H   0  0  0  0  0  0  0  0  0  0  0  0
  148.2623  141.4828  157.1809 H   0  0  0  0  0  0  0  0  0  0  0  0
  148.1687  141.7267  154.9020 H   0  0  0  0  0  0  0  0  0  0  0  0
  149.7895  142.3767  154.8182 H   0  0  0  0  0  0  0  0  0  0  0  0
  151.7623  138.0823  153.9045 H   0  0  0  0  0  0  0  0  0  0  0  0
  151.6230  140.8645  157.7564 H   0  0  0  0  0  0  0  0  0  0  0  0
  153.0968  141.7912  157.6877 H   0  0  0  0  0  0  0  0  0  0  0  0
  152.4832  141.3964  160.0287 H   0  0  0  0  0  0  0  0  0  0  0  0
  150.9004  142.0872  159.7888 H   0  0  0  0  0  0  0  0  0  0  0  0
  149.4584  143.6149  156.7732 H   0  0  0  0  0  0  0  0  0  0  0  0
  149.3840  137.6468  153.1022 H   0  0  0  0  0  0  0  0  0  0  0  0
  1  2  1  0  0  0  0
  1 18  1  0  0  0  0
  1 19  1  0  0  0  0
  1 20  1  0  0  0  0
  2  3  1  0  0  0  0
  2 21  1  0  0  0  0
  2 22  1  0  0  0  0
  3  4  1  0  0  0  0
  3 23  1  0  0  0  0
  3 24  1  0  0  0  0
  4 17  1  0  0  0  0
  4  5  1  0  0  0  0
  4 25  1  0  0  0  0
  5  6  1  0  0  0  0
  5 26  1  0  0  0  0
  5 27  1  0  0  0  0
  6  7  1  0  0  0  0
  6 28  1  0  0  0  0
  6 29  1  0  0  0  0
  7  8  1  0  0  0  0
  7 16  1  0  0  0  0
  7 30  1  0  0  0  0
  8  9  1  0  0  0  0
  8 31  1  0  0  0  0
  8 41  1  0  0  0  0
  9 10  1  0  0  0  0
  9 32  1  0  0  0  0
  9 33  1  0  0  0  0
 10 34  1  0  0  0  0
 10 35  1  0  0  0  0
 10 11  1  0  0  0  0
 11 15  1  0  0  0  0
 11 12  2  0  0  0  0
 12 13  1  0  0  0  0
 13 14  1  0  0  0  0
 13 42  1  0  0  0  0
 14 15  2  0  0  0  0
 14 36  1  0  0  0  0
 16 17  1  0  0  0  0
 16 37  1  0  0  0  0
 16 38  1  0  0  0  0
 17 39  1  0  0  0  0
 17 40  1  0  0  0  0
M  CHG  1   8   1
M  END
> <s_m_source_file>
AV-unprocessed.smi

> <i_m_source_file_index>
3025

> <i_lp_mmshare_version>
43012

> <i_f3d_flags>
0

> <s_epik_input>
W0NIM11bQ0gyXVtDSDJdW0NAQEhdMVtDSDJdW0NIMl1bQ0BIXShbQ0gyXVtDSDJdMSlbTkhdW0NIMl1bQ0gyXWMybm5bY0hdW25IXTI=

> <s_epik_cmdline>
J2VwaWtfcHl0aG9uJywgJy1waCcsICc3LjAnLCAnLXRuJywgJzgnLCAnLW1hJywgJzIwMCcsICctbWV0YWxfYmluZGluZycsICctaW1hZScsICc8aW5maWxlLm1hZT4nLCAnLW9tYWUnLCAnPG91dGZpbGUubWFlPic=

> <r_epik_Ionization_Penalty>
0.00995411

> <r_epik_Ionization_Penalty_Charging>
0.000442289

> <r_epik_Ionization_Penalty_Neutral>
0.00951182

> <r_epik_State_Penalty>
0.448541

> <r_epik_Charging_Adjusted_Penalty>
0.448983

> <i_epik_Tot_Q>
1

> <i_epik_Tot_abs_Q>
1

> <r_epik_Metal_State_Penalty>
0.682245

> <b_epik_Metal_Only>
0

> <s_lp_Force_Field>
OPLS_2005

> <r_lp_Energy>
14.0161

> <b_lp_Chiralities_Consistent>
1

> <s_lp_Variant>
AV-unprocessed.smi:3025-4

> <Gold.Version>
5.8.1

> <Gold.Id.Protein>
6NUR|6NUR_protein|mol2

> <Gold.PLP.Fitness>
53.9800

> <Gold.PLP.PLP>
-43.4803

> <Gold.PLP.part.hbond>
-4.0000

> <Gold.PLP.part.metal>
0.0000

> <Gold.PLP.part.buried>
-5.5140

> <Gold.PLP.part.nonpolar>
-34.0594

> <Gold.PLP.part.repulsive>
0.5121

> <Gold.PLP.ligand.clash>
0.0000

> <Gold.PLP.ligand.torsion>
0.7754

> <Gold.PLP.Chemscore.Hbond>
4.0000

> <Gold.PLP.Chemscore.CHOScore>
0.0000

> <Gold.PLP.Chemscore.Metal>
0.0000

> <Gold.Chemscore.Hbonds>
donor molecule, donor type, donor heavy atom, donor atom, acceptor molecule, acceptor atom, score
      L1  H     8    41       P1  8028  2.00
      L1  H    13    42       P1  7948  1.00
      P1  H  7989  7998       L1    15  0.90

> <Gold.PLP.Chemscore.Internal.Correction>
0.0504

> <Gold.Rescore>
     Score         DG    S(hbond)    S(metal)    S(lipo)     H(rot)  DE(clash)    DE(int)     intcor
     18.89     -20.14       2.44        0.00     111.77       2.56       0.46       0.79       ----

> <Gold.Chemscore.Fitness>
18.8870

> <Gold.Chemscore.DG>
-20.1411

> <Gold.Chemscore.ZeroCoef>
-5.4800

> <Gold.Chemscore.Hbond>
2.4365

> <Gold.Chemscore.Metal>
0.0000

> <Gold.Chemscore.Lipo>
111.7732

> <Gold.Chemscore.Internal_Hbond>
0.0000

> <Gold.Chemscore.DEClash>
0.4600

> <Gold.Chemscore.DEInternal>
0.7942

> <Gold.Chemscore.Rot>
2.5602

> <Gold.Chemscore.Internal.Correction>
   9.000000E+99

> <Gold.Chemscore.Hbonds>
donor molecule, donor type, donor heavy atom, donor atom, acceptor molecule, acceptor atom, score
      L1  H     8    41       P1  8028  0.97
      L1  H    13    42       P1  7948  0.94
      P1  H  7989  7998       L1    15  0.05

> <Gold.Chemscore.Hbond.Weighted>
-8.1379

> <Gold.Chemscore.Metal.Weighted>
-0.0000

> <Gold.Chemscore.Lipo.Weighted>
-13.0775

> <Gold.Chemscore.Internal_Hbond.Weighted>
0.0000

> <Gold.Chemscore.DEClash.Weighted>
0.4600

> <Gold.Chemscore.DEInternal.Weighted>
0.7942

> <Gold.Chemscore.Rot.Weighted>
6.5542

> <Gold.Chemscore.Internal.Correction.Weighted>
   9.000000E+99

> <Gold.Protein.RotatedTorsions>
[ 6907 6896 6895 6894 ] final    0.59 input  -60.11 | X-H torsion
[ 7974 7965 7964 7962 ] final   22.86 input  175.53 | X-H torsion
[ 8008 7997 7996 7995 ] final -109.72 input   59.86 | X-H torsion
[ 10167 10162 10161 10158 ] final   78.32 input  -65.29 | X-H torsion
[ 10718 10713 10712 10709 ] final -114.96 input   66.30 | X-H torsion
[ 10763 10752 10751 10750 ] final  112.78 input  -60.55 | X-H torsion
[ 11005 11000 10999 10996 ] final  138.69 input  -57.11 | X-H torsion

> <Gold.Protein.ActiveResidues>
 VAL166  LYS551  ARG553  GLY616  TRP617  ASP618  TYR619  PRO620  LYS621  CYS622 
 ASP623  PHE694  ASN695  SER759  ASP760  ASP761  ALA762  ILE779  LEU786  VAL792 
 PHE793  MET794  SER795  GLU796  ALA797  LYS798  CYS799  TRP800  GLU811  SER814 

> <Gold.Protein.RotatedAtoms>
  151.5789  135.1059  160.0012 H   0  0  0  0  0  0  0  0  0  0  0  0  # atno 6907 bound_to 6896
  152.4364  133.7364  159.6627 H   0  0  0  0  0  0  0  0  0  0  0  0  # atno 6908 bound_to 6896
  150.8262  133.8098  159.3141 H   0  0  0  0  0  0  0  0  0  0  0  0  # atno 6909 bound_to 6896
  146.2010  139.7825  142.8761 H   0  0  0  0  0  0  0  0  0  0  0  0  # atno 7974 bound_to 7965
  154.9636  140.0398  157.2201 H   0  0  0  0  0  0  0  0  0  0  0  0  # atno 8008 bound_to 7997
  154.7866  140.2828  155.6001 H   0  0  0  0  0  0  0  0  0  0  0  0  # atno 8009 bound_to 7997
  156.2944  140.2581  156.2704 H   0  0  0  0  0  0  0  0  0  0  0  0  # atno 8010 bound_to 7997
  139.9722  144.5886  150.7975 H   0  0  0  0  0  0  0  0  0  0  0  0  # atno 10167 bound_to 10162
  156.0864  130.6055  150.8843 H   0  0  0  0  0  0  0  0  0  0  0  0  # atno 10718 bound_to 10713
  153.4829  135.3675  155.2451 H   0  0  0  0  0  0  0  0  0  0  0  0  # atno 10763 bound_to 10752
  154.8754  135.3958  154.3679 H   0  0  0  0  0  0  0  0  0  0  0  0  # atno 10764 bound_to 10752
  153.4286  135.7082  153.6311 H   0  0  0  0  0  0  0  0  0  0  0  0  # atno 10765 bound_to 10752
  140.0201  134.9400  157.0457 H   0  0  0  0  0  0  0  0  0  0  0  0  # atno 11005 bound_to 11000
  145.3484  141.0302  143.3352 LP  0  0  0  0  0  0  0  0  0  0  0  0  # atno 17320 bound_to 7965
  144.8683  139.5075  143.6779 LP  0  0  0  0  0  0  0  0  0  0  0  0  # atno 17321 bound_to 7965
  140.7518  143.2979  151.3157 LP  0  0  0  0  0  0  0  0  0  0  0  0  # atno 17342 bound_to 10162
  139.6473  144.0428  152.2600 LP  0  0  0  0  0  0  0  0  0  0  0  0  # atno 17343 bound_to 10162
  157.6000  131.0941  150.8977 LP  0  0  0  0  0  0  0  0  0  0  0  0  # atno 17370 bound_to 10713
  156.9136  130.5289  149.5280 LP  0  0  0  0  0  0  0  0  0  0  0  0  # atno 17371 bound_to 10713
  140.4402  134.1689  155.7173 LP  0  0  0  0  0  0  0  0  0  0  0  0  # atno 17394 bound_to 11000
  141.1768  133.8497  157.1393 LP  0  0  0  0  0  0  0  0  0  0  0  0  # atno 17395 bound_to 11000

$$$$
