AV-unprocessed.smi:438|AV-procd|sdf|2575|dock3
  -GOLD-   2262022553D 1   1.00000     0.00000
 Structure written by MMmdl.
 48 49  0  0  0  0  0  0  0  0  1 V2000
  153.6681  136.5056  164.0522 C   0  0  0  0  0  0  0  0  0  0  0  0
  153.8961  135.9489  162.6589 C   0  0  0  0  0  0  0  0  0  0  0  0
  153.4943  136.7410  161.6407 N   0  0  0  0  0  0  0  0  0  0  0  0
  153.7070  136.2838  160.4078 C   0  0  0  0  0  0  0  0  0  0  0  0
  153.1985  137.3684  159.0888 S   0  0  0  0  0  0  0  0  0  0  0  0
  153.9898  138.9359  159.5683 C   0  0  0  0  0  0  0  0  0  0  0  0
  153.2007  140.1692  159.1291 C   0  0  0  0  0  0  0  0  0  0  0  0
  152.8946  140.3077  157.9453 O   0  0  0  0  0  0  0  0  0  0  0  0
  152.8884  141.0529  160.0927 N   0  0  0  0  0  0  0  0  0  0  0  0
  152.1727  142.3233  159.9391 C   0  0  2  0  0  0  0  0  0  0  0  0
  152.4248  142.9600  158.5538 C   0  0  0  0  0  0  0  0  0  0  0  0
  151.5998  144.2421  158.3722 C   0  0  0  0  0  0  0  0  0  0  0  0
  151.8881  145.2433  159.5003 C   0  0  0  0  0  0  0  0  0  0  0  0
  151.6255  144.6175  160.8793 C   0  0  0  0  0  0  0  0  0  0  0  0
  152.4435  143.3272  161.0932 C   0  0  1  0  0  0  0  0  0  0  0  0
  152.1494  142.7300  162.4808 C   0  0  0  0  0  0  0  0  0  0  0  0
  154.2553  135.1179  160.0619 N   0  0  0  0  0  0  0  0  0  0  0  0
  154.6614  134.3140  161.0673 C   0  0  0  0  0  0  0  0  0  0  0  0
  155.2360  133.1210  160.7367 O   0  0  0  0  0  0  0  0  0  0  0  0
  154.5035  134.6878  162.4255 C   0  0  0  0  0  0  0  0  0  0  0  0
  154.9645  133.7752  163.5576 C   0  0  0  0  0  0  0  0  0  0  0  0
  153.8157  133.3381  164.4808 C   0  0  0  0  0  0  0  0  0  0  0  0
  154.3159  132.8927  165.7233 O   0  0  0  0  0  0  0  0  0  0  0  0
  153.0755  135.8153  164.6515 H   0  0  0  0  0  0  0  0  0  0  0  0
  153.1379  137.4580  164.0182 H   0  0  0  0  0  0  0  0  0  0  0  0
  154.6215  136.6718  164.5538 H   0  0  0  0  0  0  0  0  0  0  0  0
  154.1379  138.9536  160.6486 H   0  0  0  0  0  0  0  0  0  0  0  0
  154.9825  138.9731  159.1193 H   0  0  0  0  0  0  0  0  0  0  0  0
  153.1948  140.8322  161.0294 H   0  0  0  0  0  0  0  0  0  0  0  0
  151.1158  142.0565  159.9819 H   0  0  0  0  0  0  0  0  0  0  0  0
  153.4805  143.2016  158.4294 H   0  0  0  0  0  0  0  0  0  0  0  0
  152.1760  142.2498  157.7643 H   0  0  0  0  0  0  0  0  0  0  0  0
  151.8246  144.6951  157.4063 H   0  0  0  0  0  0  0  0  0  0  0  0
  150.5370  143.9972  158.3603 H   0  0  0  0  0  0  0  0  0  0  0  0
  152.9256  145.5744  159.4404 H   0  0  0  0  0  0  0  0  0  0  0  0
  151.2715  146.1337  159.3728 H   0  0  0  0  0  0  0  0  0  0  0  0
  151.8654  145.3429  161.6575 H   0  0  0  0  0  0  0  0  0  0  0  0
  150.5612  144.4002  160.9804 H   0  0  0  0  0  0  0  0  0  0  0  0
  153.4977  143.6058  161.0737 H   0  0  0  0  0  0  0  0  0  0  0  0
  151.1066  142.4236  162.5677 H   0  0  0  0  0  0  0  0  0  0  0  0
  152.3515  143.4540  163.2704 H   0  0  0  0  0  0  0  0  0  0  0  0
  152.7683  141.8568  162.6803 H   0  0  0  0  0  0  0  0  0  0  0  0
  154.7061  132.6181  160.1375 H   0  0  0  0  0  0  0  0  0  0  0  0
  155.4186  132.8895  163.1123 H   0  0  0  0  0  0  0  0  0  0  0  0
  155.7603  134.2399  164.1389 H   0  0  0  0  0  0  0  0  0  0  0  0
  153.1003  134.1461  164.6367 H   0  0  0  0  0  0  0  0  0  0  0  0
  153.2704  132.5115  164.0248 H   0  0  0  0  0  0  0  0  0  0  0  0
  154.2570  133.6035  166.3435 H   0  0  0  0  0  0  0  0  0  0  0  0
  1  2  1  0  0  0  0
  1 24  1  0  0  0  0
  1 25  1  0  0  0  0
  1 26  1  0  0  0  0
  2 20  1  0  0  0  0
  2  3  2  0  0  0  0
  3  4  1  0  0  0  0
  4  5  1  0  0  0  0
  4 17  2  0  0  0  0
  5  6  1  0  0  0  0
  6  7  1  0  0  0  0
  6 27  1  0  0  0  0
  6 28  1  0  0  0  0
  7  8  2  0  0  0  0
  7  9  1  0  0  0  0
  9 10  1  0  0  0  0
  9 29  1  0  0  0  0
 10 15  1  0  0  0  0
 10 11  1  0  0  0  0
 10 30  1  0  0  0  0
 11 12  1  0  0  0  0
 11 31  1  0  0  0  0
 11 32  1  0  0  0  0
 12 13  1  0  0  0  0
 12 33  1  0  0  0  0
 12 34  1  0  0  0  0
 13 14  1  0  0  0  0
 13 35  1  0  0  0  0
 13 36  1  0  0  0  0
 14 15  1  0  0  0  0
 14 37  1  0  0  0  0
 14 38  1  0  0  0  0
 15 16  1  0  0  0  0
 15 39  1  0  0  0  0
 16 40  1  0  0  0  0
 16 41  1  0  0  0  0
 16 42  1  0  0  0  0
 17 18  1  0  0  0  0
 18 19  1  0  0  0  0
 18 20  2  0  0  0  0
 19 43  1  0  0  0  0
 20 21  1  0  0  0  0
 21 22  1  0  0  0  0
 21 44  1  0  0  0  0
 21 45  1  0  0  0  0
 22 23  1  0  0  0  0
 22 46  1  0  0  0  0
 22 47  1  0  0  0  0
 23 48  1  0  0  0  0
M  END
> <s_m_source_file>
AV-unprocessed.smi

> <i_m_source_file_index>
438

> <i_lp_mmshare_version>
43012

> <i_f3d_flags>
0

> <s_epik_input>
W09IXVtDSDJdW0NIMl1jMWMoW09IXSluYyhuYzFbQ0gzXSlTW0NIMl1DKD1PKVtOSF1bQ0BASF0yW0NIMl1bQ0gyXVtDSDJdW0NIMl1bQ0BIXTJbQ0gzXQ==

> <s_epik_cmdline>
J2VwaWtfcHl0aG9uJywgJy1waCcsICc3LjAnLCAnLXRuJywgJzgnLCAnLW1hJywgJzIwMCcsICctbWV0YWxfYmluZGluZycsICctaW1hZScsICc8aW5maWxlLm1hZT4nLCAnLW9tYWUnLCAnPG91dGZpbGUubWFlPic=

> <r_lp_tautomer_probability>
0.0660145

> <r_epik_Ionization_Penalty>
2.91405

> <r_epik_Ionization_Penalty_Charging>
0

> <r_epik_Ionization_Penalty_Neutral>
2.91405

> <r_epik_State_Penalty>
2.44767

> <r_epik_Charging_Adjusted_Penalty>
2.44767

> <i_epik_Tot_Q>
0

> <i_epik_Tot_abs_Q>
0

> <r_epik_Metal_State_Penalty>
3.04288

> <b_epik_Metal_Only>
0

> <s_lp_Force_Field>
OPLS_2005

> <r_lp_Energy>
1.00415

> <b_lp_Chiralities_Consistent>
1

> <s_lp_Variant>
AV-unprocessed.smi:438-13

> <Gold.Version>
5.8.1

> <Gold.Id.Protein>
6NUR|6NUR_protein|mol2

> <Gold.PLP.Fitness>
53.5077

> <Gold.PLP.PLP>
-48.9474

> <Gold.PLP.part.hbond>
-3.0000

> <Gold.PLP.part.metal>
0.0000

> <Gold.PLP.part.buried>
-5.7077

> <Gold.PLP.part.nonpolar>
-40.6654

> <Gold.PLP.part.repulsive>
0.0992

> <Gold.PLP.ligand.clash>
0.0000

> <Gold.PLP.ligand.torsion>
0.7398

> <Gold.PLP.Chemscore.Hbond>
1.9760

> <Gold.PLP.Chemscore.CHOScore>
0.0000

> <Gold.PLP.Chemscore.Metal>
0.0000

> <Gold.Chemscore.Hbonds>
donor molecule, donor type, donor heavy atom, donor atom, acceptor molecule, acceptor atom, score
      P1  H  6896  6909       L1    17  0.49
      P1  H  7997  8009       L1     8  0.93

> <Gold.PLP.Chemscore.Internal.Correction>
0.1117

> <Gold.Rescore>
     Score         DG    S(hbond)    S(metal)    S(lipo)     H(rot)  DE(clash)    DE(int)     intcor
     13.10     -15.42       1.14        0.00     127.62       3.44       0.18       2.14       ----

> <Gold.Chemscore.Fitness>
13.1041

> <Gold.Chemscore.DG>
-15.4197

> <Gold.Chemscore.ZeroCoef>
-5.4800

> <Gold.Chemscore.Hbond>
1.1391

> <Gold.Chemscore.Metal>
0.0000

> <Gold.Chemscore.Lipo>
127.6177

> <Gold.Chemscore.Internal_Hbond>
0.0000

> <Gold.Chemscore.DEClash>
0.1795

> <Gold.Chemscore.DEInternal>
2.1361

> <Gold.Chemscore.Rot>
3.4359

> <Gold.Chemscore.Internal.Correction>
   9.000000E+99

> <Gold.Chemscore.Hbonds>
donor molecule, donor type, donor heavy atom, donor atom, acceptor molecule, acceptor atom, score
      P1  H  6896  6909       L1    17  0.01
      P1  H  7997  8009       L1     8  0.62

> <Gold.Chemscore.Hbond.Weighted>
-3.8045

> <Gold.Chemscore.Metal.Weighted>
-0.0000

> <Gold.Chemscore.Lipo.Weighted>
-14.9313

> <Gold.Chemscore.Internal_Hbond.Weighted>
0.0000

> <Gold.Chemscore.DEClash.Weighted>
0.1795

> <Gold.Chemscore.DEInternal.Weighted>
2.1361

> <Gold.Chemscore.Rot.Weighted>
8.7960

> <Gold.Chemscore.Internal.Correction.Weighted>
   9.000000E+99

> <Gold.Protein.RotatedTorsions>
[ 6907 6896 6895 6894 ] final -150.38 input  -60.11 | X-H torsion
[ 7974 7965 7964 7962 ] final  -19.17 input  175.53 | X-H torsion
[ 8008 7997 7996 7995 ] final  166.09 input   59.86 | X-H torsion
[ 10167 10162 10161 10158 ] final   27.33 input  -65.29 | X-H torsion
[ 10718 10713 10712 10709 ] final  140.91 input   66.30 | X-H torsion
[ 10763 10752 10751 10750 ] final -103.88 input  -60.55 | X-H torsion
[ 11005 11000 10999 10996 ] final   43.99 input  -57.11 | X-H torsion

> <Gold.Protein.ActiveResidues>
 VAL166  LYS551  ARG553  GLY616  TRP617  ASP618  TYR619  PRO620  LYS621  CYS622 
 ASP623  PHE694  ASN695  SER759  ASP760  ASP761  ALA762  ILE779  LEU786  VAL792 
 PHE793  MET794  SER795  GLU796  ALA797  LYS798  CYS799  TRP800  GLU811  SER814 

> <Gold.Protein.RotatedAtoms>
  151.1978  133.4629  159.2595 H   0  0  0  0  0  0  0  0  0  0  0  0  # atno 6907 bound_to 6896
  151.1100  135.0021  159.8499 H   0  0  0  0  0  0  0  0  0  0  0  0  # atno 6908 bound_to 6896
  152.5450  134.1898  159.8722 H   0  0  0  0  0  0  0  0  0  0  0  0  # atno 6909 bound_to 6896
  146.1855  140.4024  142.8478 H   0  0  0  0  0  0  0  0  0  0  0  0  # atno 7974 bound_to 7965
  156.1747  140.1652  156.8384 H   0  0  0  0  0  0  0  0  0  0  0  0  # atno 8008 bound_to 7997
  154.5294  140.0760  156.8351 H   0  0  0  0  0  0  0  0  0  0  0  0  # atno 8009 bound_to 7997
  155.3438  140.3386  155.4241 H   0  0  0  0  0  0  0  0  0  0  0  0  # atno 8010 bound_to 7997
  140.4948  144.0410  150.6310 H   0  0  0  0  0  0  0  0  0  0  0  0  # atno 10167 bound_to 10162
  157.3980  131.1013  151.0580 H   0  0  0  0  0  0  0  0  0  0  0  0  # atno 10718 bound_to 10713
  154.7839  135.4807  153.9903 H   0  0  0  0  0  0  0  0  0  0  0  0  # atno 10763 bound_to 10752
  153.1532  135.6795  153.8858 H   0  0  0  0  0  0  0  0  0  0  0  0  # atno 10764 bound_to 10752
  153.8495  135.3169  155.3410 H   0  0  0  0  0  0  0  0  0  0  0  0  # atno 10765 bound_to 10752
  140.1593  134.4361  155.8328 H   0  0  0  0  0  0  0  0  0  0  0  0  # atno 11005 bound_to 11000
  144.8390  140.6827  143.6242 LP  0  0  0  0  0  0  0  0  0  0  0  0  # atno 17320 bound_to 7965
  145.3951  139.1609  143.4208 LP  0  0  0  0  0  0  0  0  0  0  0  0  # atno 17321 bound_to 7965
  140.3689  143.2865  152.0300 LP  0  0  0  0  0  0  0  0  0  0  0  0  # atno 17342 bound_to 10162
  139.4859  144.6245  151.7191 LP  0  0  0  0  0  0  0  0  0  0  0  0  # atno 17343 bound_to 10162
  157.1590  130.6217  149.5605 LP  0  0  0  0  0  0  0  0  0  0  0  0  # atno 17370 bound_to 10713
  155.9815  130.4823  150.6834 LP  0  0  0  0  0  0  0  0  0  0  0  0  # atno 17371 bound_to 10713
  141.2208  133.6906  156.7565 LP  0  0  0  0  0  0  0  0  0  0  0  0  # atno 17394 bound_to 11000
  140.2509  134.8541  157.3666 LP  0  0  0  0  0  0  0  0  0  0  0  0  # atno 17395 bound_to 11000

$$$$
