AV-unprocessed.smi:1388|AV-procd|sdf|5644|dock5
  -GOLD-   22720 5263D 1   1.00000     0.00000
 Structure written by MMmdl.
 45 46  0  0  0  0  0  0  0  0  3 V2000
  147.8130  136.9902  162.7423 C   0  0  0  0  0  0  0  0  0  0  0  0
  147.5076  137.7154  161.5145 N   0  5  0  0  0  0  0  0  0  0  0  0
  147.2766  137.1041  160.3192 C   0  0  0  0  0  0  0  0  0  0  0  0
  146.2272  136.6914  159.8158 O   0  0  0  0  0  0  0  0  0  0  0  0
  148.5781  136.9298  159.5253 C   0  0  0  0  0  0  0  0  0  0  0  0
  148.2991  136.5226  158.1237 N   0  3  2  0  0  0  0  0  0  0  0  0
  149.5180  136.0605  157.4137 C   0  0  0  0  0  0  0  0  0  0  0  0
  149.1723  135.4989  156.0244 C   0  0  0  0  0  0  0  0  0  0  0  0
  148.4041  136.5318  155.1798 C   0  0  1  0  0  0  0  0  0  0  0  0
  147.9903  135.9552  153.9041 N   0  0  0  0  0  0  0  0  0  0  0  0
  147.0322  135.0295  153.7501 C   0  0  0  0  0  0  0  0  0  0  0  0
  146.3829  134.5646  154.6875 O   0  0  0  0  0  0  0  0  0  0  0  0
  146.8816  134.6966  152.4559 N   0  0  0  0  0  0  0  0  0  0  0  0
  145.9988  133.7359  151.8861 C   0  0  0  0  0  0  0  0  0  0  0  0
  144.8752  134.0857  151.2107 N   0  0  0  0  0  0  0  0  0  0  0  0
  144.0771  133.1243  150.7035 C   0  0  0  0  0  0  0  0  0  0  0  0
  144.3483  131.7520  150.8377 C   0  0  0  0  0  0  0  0  0  0  0  0
  145.5087  131.3720  151.5335 C   0  0  0  0  0  0  0  0  0  0  0  0
  146.3498  132.3712  152.0679 C   0  0  0  0  0  0  0  0  0  0  0  0
  147.6058  131.9618  152.8203 C   0  0  0  0  0  0  0  0  0  0  0  0
  147.1708  137.0179  155.9572 C   0  0  0  0  0  0  0  0  0  0  0  0
  147.5656  137.5541  157.3426 C   0  0  0  0  0  0  0  0  0  0  0  0
  147.9204  137.6628  163.5930 H   0  0  0  0  0  0  0  0  0  0  0  0
  148.7470  136.4320  162.6710 H   0  0  0  0  0  0  0  0  0  0  0  0
  147.0354  136.2745  163.0099 H   0  0  0  0  0  0  0  0  0  0  0  0
  149.1673  137.8482  159.5420 H   0  0  0  0  0  0  0  0  0  0  0  0
  149.1744  136.1673  160.0295 H   0  0  0  0  0  0  0  0  0  0  0  0
  150.2227  136.8886  157.3223 H   0  0  0  0  0  0  0  0  0  0  0  0
  150.0129  135.2847  157.9994 H   0  0  0  0  0  0  0  0  0  0  0  0
  150.0880  135.1996  155.5132 H   0  0  0  0  0  0  0  0  0  0  0  0
  148.5730  134.5944  156.1401 H   0  0  0  0  0  0  0  0  0  0  0  0
  149.0504  137.3921  154.9932 H   0  0  0  0  0  0  0  0  0  0  0  0
  148.4720  136.2826  153.0794 H   0  0  0  0  0  0  0  0  0  0  0  0
  147.4719  135.1829  151.7976 H   0  0  0  0  0  0  0  0  0  0  0  0
  143.1962  133.4597  150.1764 H   0  0  0  0  0  0  0  0  0  0  0  0
  143.6836  131.0112  150.4180 H   0  0  0  0  0  0  0  0  0  0  0  0
  145.7466  130.3253  151.6544 H   0  0  0  0  0  0  0  0  0  0  0  0
  147.7285  130.8784  152.8275 H   0  0  0  0  0  0  0  0  0  0  0  0
  147.5581  132.3014  153.8554 H   0  0  0  0  0  0  0  0  0  0  0  0
  148.4905  132.3953  152.3529 H   0  0  0  0  0  0  0  0  0  0  0  0
  146.6555  137.7974  155.3945 H   0  0  0  0  0  0  0  0  0  0  0  0
  146.4586  136.1998  156.0773 H   0  0  0  0  0  0  0  0  0  0  0  0
  146.6637  137.8612  157.8728 H   0  0  0  0  0  0  0  0  0  0  0  0
  148.1878  138.4443  157.2383 H   0  0  0  0  0  0  0  0  0  0  0  0
  147.6888  135.7202  158.2000 H   0  0  0  0  0  0  0  0  0  0  0  0
  1  2  1  0  0  0  0
  1 23  1  0  0  0  0
  1 24  1  0  0  0  0
  1 25  1  0  0  0  0
  2  3  1  0  0  0  0
  3  4  2  0  0  0  0
  3  5  1  0  0  0  0
  5  6  1  0  0  0  0
  5 26  1  0  0  0  0
  5 27  1  0  0  0  0
  6 22  1  0  0  0  0
  6  7  1  0  0  0  0
  6 45  1  0  0  0  0
  7  8  1  0  0  0  0
  7 28  1  0  0  0  0
  7 29  1  0  0  0  0
  8  9  1  0  0  0  0
  8 30  1  0  0  0  0
  8 31  1  0  0  0  0
  9 10  1  0  0  0  0
  9 21  1  0  0  0  0
  9 32  1  0  0  0  0
 10 11  1  0  0  0  0
 10 33  1  0  0  0  0
 11 12  2  0  0  0  0
 11 13  1  0  0  0  0
 13 14  1  0  0  0  0
 13 34  1  0  0  0  0
 14 19  1  0  0  0  0
 14 15  2  0  0  0  0
 15 16  1  0  0  0  0
 16 17  2  0  0  0  0
 16 35  1  0  0  0  0
 17 18  1  0  0  0  0
 17 36  1  0  0  0  0
 18 19  2  0  0  0  0
 18 37  1  0  0  0  0
 19 20  1  0  0  0  0
 20 38  1  0  0  0  0
 20 39  1  0  0  0  0
 20 40  1  0  0  0  0
 21 22  1  0  0  0  0
 21 41  1  0  0  0  0
 21 42  1  0  0  0  0
 22 43  1  0  0  0  0
 22 44  1  0  0  0  0
M  CHG  1   2  -1
M  CHG  1   6   1
M  END
> <s_m_source_file>
AV-unprocessed.smi

> <i_m_source_file_index>
1388

> <i_lp_mmshare_version>
43012

> <i_f3d_flags>
0

> <s_epik_input>
W0NIM11bTkhdQyg9TylbQ0gyXU4xW0NIMl1bQ0gyXVtDSF0oW0NIMl1bQ0gyXTEpW05IXUMoPU8pW05IXWMybltjSF1bY0hdW2NIXWMyW0NIM10=

> <s_epik_cmdline>
J2VwaWtfcHl0aG9uJywgJy1waCcsICc3LjAnLCAnLXRuJywgJzgnLCAnLW1hJywgJzIwMCcsICctbWV0YWxfYmluZGluZycsICctaW1hZScsICc8aW5maWxlLm1hZT4nLCAnLW9tYWUnLCAnPG91dGZpbGUubWFlPic=

> <r_epik_Ionization_Penalty>
6.13951

> <r_epik_Ionization_Penalty_Charging>
6.13946

> <r_epik_Ionization_Penalty_Neutral>
4.54304e-05

> <r_epik_State_Penalty>
6.9595

> <r_epik_Charging_Adjusted_Penalty>
13.099

> <i_epik_Tot_Q>
0

> <i_epik_Tot_abs_Q>
2

> <r_epik_Metal_State_Penalty>
2.89141

> <b_epik_Metal_Only>
1

> <s_lp_Force_Field>
OPLS_2005

> <r_lp_Energy>
12.447

> <b_lp_Chiralities_Consistent>
1

> <s_lp_Variant>
AV-unprocessed.smi:1388-4

> <Gold.Version>
5.8.1

> <Gold.Id.Protein>
6NUR|6NUR_protein|mol2

> <Gold.PLP.Fitness>
42.1571

> <Gold.PLP.PLP>
-28.9541

> <Gold.PLP.part.hbond>
-3.8800

> <Gold.PLP.part.metal>
0.0000

> <Gold.PLP.part.buried>
-2.9032

> <Gold.PLP.part.nonpolar>
-21.5943

> <Gold.PLP.part.repulsive>
0.2494

> <Gold.PLP.ligand.clash>
0.0000

> <Gold.PLP.ligand.torsion>
1.7156

> <Gold.PLP.Chemscore.Hbond>
4.5250

> <Gold.PLP.Chemscore.CHOScore>
1.0000

> <Gold.PLP.Chemscore.Metal>
0.0000

> <Gold.Chemscore.Hbonds>
donor molecule, donor type, donor heavy atom, donor atom, acceptor molecule, acceptor atom, score
      L1  H    10    33       P1  7948  0.44
      L1  H    13    34       P1  7948  0.77
      P1  H  6934  6947       L1     2  0.72
      L1  C    16    35       P1 10186  1.00

> <Gold.PLP.Chemscore.Internal.Correction>
0.0592

> <Gold.Rescore>
     Score         DG    S(hbond)    S(metal)    S(lipo)     H(rot)  DE(clash)    DE(int)     intcor
     11.62     -15.94       2.25        0.00      60.71       1.63       0.02       4.30       ----

> <Gold.Chemscore.Fitness>
11.6234

> <Gold.Chemscore.DG>
-15.9385

> <Gold.Chemscore.ZeroCoef>
-5.4800

> <Gold.Chemscore.Hbond>
2.2542

> <Gold.Chemscore.Metal>
0.0000

> <Gold.Chemscore.Lipo>
60.7080

> <Gold.Chemscore.Internal_Hbond>
0.0000

> <Gold.Chemscore.DEClash>
0.0176

> <Gold.Chemscore.DEInternal>
4.2976

> <Gold.Chemscore.Rot>
1.6303

> <Gold.Chemscore.Internal.Correction>
   9.000000E+99

> <Gold.Chemscore.Hbonds>
donor molecule, donor type, donor heavy atom, donor atom, acceptor molecule, acceptor atom, score
      L1  H    10    33       P1  7948  0.43
      L1  H    13    34       P1  7948  0.72
      P1  H  6934  6947       L1     2  0.02

> <Gold.Chemscore.Hbond.Weighted>
-7.5291

> <Gold.Chemscore.Metal.Weighted>
-0.0000

> <Gold.Chemscore.Lipo.Weighted>
-7.1028

> <Gold.Chemscore.Internal_Hbond.Weighted>
0.0000

> <Gold.Chemscore.DEClash.Weighted>
0.0176

> <Gold.Chemscore.DEInternal.Weighted>
4.2976

> <Gold.Chemscore.Rot.Weighted>
4.1735

> <Gold.Chemscore.Internal.Correction.Weighted>
   9.000000E+99

> <Gold.Protein.RotatedTorsions>
[ 6907 6896 6895 6894 ] final -169.02 input  -60.11 | X-H torsion
[ 7974 7965 7964 7962 ] final   77.32 input  175.53 | X-H torsion
[ 8008 7997 7996 7995 ] final  122.46 input   59.86 | X-H torsion
[ 10167 10162 10161 10158 ] final   73.54 input  -65.29 | X-H torsion
[ 10718 10713 10712 10709 ] final  -88.51 input   66.30 | X-H torsion
[ 10763 10752 10751 10750 ] final   86.67 input  -60.55 | X-H torsion
[ 11005 11000 10999 10996 ] final   18.82 input  -57.11 | X-H torsion

> <Gold.Protein.ActiveResidues>
 VAL166  LYS551  ARG553  GLY616  TRP617  ASP618  TYR619  PRO620  LYS621  CYS622 
 ASP623  PHE694  ASN695  SER759  ASP760  ASP761  ALA762  ILE779  LEU786  VAL792 
 PHE793  MET794  SER795  GLU796  ALA797  LYS798  CYS799  TRP800  GLU811  SER814 

> <Gold.Protein.RotatedAtoms>
  151.4850  133.3538  159.2843 H   0  0  0  0  0  0  0  0  0  0  0  0  # atno 6907 bound_to 6896
  150.8872  134.8273  159.7278 H   0  0  0  0  0  0  0  0  0  0  0  0  # atno 6908 bound_to 6896
  152.4800  134.4755  159.9701 H   0  0  0  0  0  0  0  0  0  0  0  0  # atno 6909 bound_to 6896
  145.6915  139.2554  143.1757 H   0  0  0  0  0  0  0  0  0  0  0  0  # atno 7974 bound_to 7965
  156.2728  140.2785  156.1472 H   0  0  0  0  0  0  0  0  0  0  0  0  # atno 8008 bound_to 7997
  155.0892  140.0388  157.2681 H   0  0  0  0  0  0  0  0  0  0  0  0  # atno 8009 bound_to 7997
  154.6903  140.2627  155.6825 H   0  0  0  0  0  0  0  0  0  0  0  0  # atno 8010 bound_to 7997
  140.0234  144.5522  150.7564 H   0  0  0  0  0  0  0  0  0  0  0  0  # atno 10167 bound_to 10162
  155.9983  130.4838  150.5030 H   0  0  0  0  0  0  0  0  0  0  0  0  # atno 10718 bound_to 10713
  153.1593  135.4572  154.9749 H   0  0  0  0  0  0  0  0  0  0  0  0  # atno 10763 bound_to 10752
  154.7885  135.3212  154.7833 H   0  0  0  0  0  0  0  0  0  0  0  0  # atno 10764 bound_to 10752
  153.8326  135.6937  153.4867 H   0  0  0  0  0  0  0  0  0  0  0  0  # atno 10765 bound_to 10752
  140.4206  134.1523  155.7672 H   0  0  0  0  0  0  0  0  0  0  0  0  # atno 11005 bound_to 11000
  146.0877  140.7691  142.9610 LP  0  0  0  0  0  0  0  0  0  0  0  0  # atno 17320 bound_to 7965
  144.6995  140.3588  143.7168 LP  0  0  0  0  0  0  0  0  0  0  0  0  # atno 17321 bound_to 7965
  140.7333  143.2715  151.3873 LP  0  0  0  0  0  0  0  0  0  0  0  0  # atno 17342 bound_to 10162
  139.6124  144.1071  152.2312 LP  0  0  0  0  0  0  0  0  0  0  0  0  # atno 17343 bound_to 10162
  157.3012  131.0645  151.2067 LP  0  0  0  0  0  0  0  0  0  0  0  0  # atno 17370 bound_to 10713
  157.3045  130.6859  149.6182 LP  0  0  0  0  0  0  0  0  0  0  0  0  # atno 17371 bound_to 10713
  141.1785  133.8463  157.1338 LP  0  0  0  0  0  0  0  0  0  0  0  0  # atno 17394 bound_to 11000
  140.0203  134.9949  157.0578 LP  0  0  0  0  0  0  0  0  0  0  0  0  # atno 17395 bound_to 11000

$$$$
