AV-unprocessed.smi:2061|AV-procd|sdf|8390|dock1
  -GOLD-   2272011 73D 1   1.00000     0.00000
 Structure written by MMmdl.
 45 46  0  0  0  0  0  0  0  0  3 V2000
  152.3121  143.7991  160.3524 C   0  0  0  0  0  0  0  0  0  0  0  0
  152.1528  142.7331  159.3235 C   0  0  0  0  0  0  0  0  0  0  0  0
  151.4727  142.6772  158.1399 C   0  0  0  0  0  0  0  0  0  0  0  0
  151.7502  141.3653  157.6712 C   0  0  0  0  0  0  0  0  0  0  0  0
  151.2158  140.9101  156.4371 N   0  0  0  0  0  0  0  0  0  0  0  0
  151.6966  139.9662  155.6074 C   0  0  0  0  0  0  0  0  0  0  0  0
  152.7233  139.3421  155.9001 O   0  0  0  0  0  0  0  0  0  0  0  0
  150.9300  139.8237  154.4917 N   0  5  0  0  0  0  0  0  0  0  0  0
  150.1229  138.6440  154.1811 C   0  0  0  0  0  0  0  0  0  0  0  0
  148.6176  139.0155  154.1203 C   0  0  2  0  0  0  0  0  0  0  0  0
  148.1457  139.9550  155.2589 C   0  0  0  0  0  0  0  0  0  0  0  0
  147.7808  137.7816  154.0002 N   0  3  1  0  0  0  0  0  0  0  0  0
  147.5433  137.0109  155.2520 C   0  0  0  0  0  0  0  0  0  0  0  0
  146.8441  135.6749  154.9405 C   0  0  2  0  0  0  0  0  0  0  0  0
  147.7642  134.6446  154.2620 C   0  0  0  0  0  0  0  0  0  0  0  0
  145.6489  135.9124  154.1954 O   0  0  0  0  0  0  0  0  0  0  0  0
  145.8294  136.6427  152.9838 C   0  0  1  0  0  0  0  0  0  0  0  0
  144.4549  136.8165  152.3284 C   0  0  0  0  0  0  0  0  0  0  0  0
  146.4996  137.9954  153.2855 C   0  0  0  0  0  0  0  0  0  0  0  0
  152.5319  140.6833  158.4955 N   0  0  0  0  0  0  0  0  0  0  0  0
  152.7939  141.5562  159.5581 O   0  0  0  0  0  0  0  0  0  0  0  0
  151.6289  144.6273  160.1636 H   0  0  0  0  0  0  0  0  0  0  0  0
  153.3292  144.1912  160.3474 H   0  0  0  0  0  0  0  0  0  0  0  0
  152.1030  143.4094  161.3488 H   0  0  0  0  0  0  0  0  0  0  0  0
  150.8731  143.4508  157.6837 H   0  0  0  0  0  0  0  0  0  0  0  0
  150.3640  141.3612  156.1388 H   0  0  0  0  0  0  0  0  0  0  0  0
  150.4036  138.2081  153.2207 H   0  0  0  0  0  0  0  0  0  0  0  0
  150.2680  137.8504  154.9146 H   0  0  0  0  0  0  0  0  0  0  0  0
  148.4908  139.5674  153.1873 H   0  0  0  0  0  0  0  0  0  0  0  0
  148.6663  140.9140  155.2353 H   0  0  0  0  0  0  0  0  0  0  0  0
  148.3005  139.5279  156.2511 H   0  0  0  0  0  0  0  0  0  0  0  0
  147.0831  140.1785  155.1611 H   0  0  0  0  0  0  0  0  0  0  0  0
  148.4786  136.8229  155.7803 H   0  0  0  0  0  0  0  0  0  0  0  0
  146.9114  137.5915  155.9255 H   0  0  0  0  0  0  0  0  0  0  0  0
  146.5264  135.2380  155.8877 H   0  0  0  0  0  0  0  0  0  0  0  0
  148.6012  134.3885  154.9121 H   0  0  0  0  0  0  0  0  0  0  0  0
  148.1850  135.0150  153.3274 H   0  0  0  0  0  0  0  0  0  0  0  0
  147.2229  133.7238  154.0442 H   0  0  0  0  0  0  0  0  0  0  0  0
  146.4574  136.0695  152.3015 H   0  0  0  0  0  0  0  0  0  0  0  0
  144.5339  137.3636  151.3887 H   0  0  0  0  0  0  0  0  0  0  0  0
  143.7732  137.3651  152.9790 H   0  0  0  0  0  0  0  0  0  0  0  0
  144.0018  135.8490  152.1114 H   0  0  0  0  0  0  0  0  0  0  0  0
  145.8430  138.6246  153.8884 H   0  0  0  0  0  0  0  0  0  0  0  0
  146.6769  138.5222  152.3469 H   0  0  0  0  0  0  0  0  0  0  0  0
  148.3191  137.1750  153.3978 H   0  0  0  0  0  0  0  0  0  0  0  0
  1  2  1  0  0  0  0
  1 22  1  0  0  0  0
  1 23  1  0  0  0  0
  1 24  1  0  0  0  0
  2 21  1  0  0  0  0
  2  3  2  0  0  0  0
  3  4  1  0  0  0  0
  3 25  1  0  0  0  0
  4  5  1  0  0  0  0
  4 20  2  0  0  0  0
  5  6  1  0  0  0  0
  5 26  1  0  0  0  0
  6  7  2  0  0  0  0
  6  8  1  0  0  0  0
  8  9  1  0  0  0  0
  9 10  1  0  0  0  0
  9 27  1  0  0  0  0
  9 28  1  0  0  0  0
 10 11  1  0  0  0  0
 10 12  1  0  0  0  0
 10 29  1  0  0  0  0
 11 30  1  0  0  0  0
 11 31  1  0  0  0  0
 11 32  1  0  0  0  0
 12 19  1  0  0  0  0
 12 13  1  0  0  0  0
 12 45  1  0  0  0  0
 13 14  1  0  0  0  0
 13 33  1  0  0  0  0
 13 34  1  0  0  0  0
 14 15  1  0  0  0  0
 14 16  1  0  0  0  0
 14 35  1  0  0  0  0
 15 36  1  0  0  0  0
 15 37  1  0  0  0  0
 15 38  1  0  0  0  0
 16 17  1  0  0  0  0
 17 18  1  0  0  0  0
 17 19  1  0  0  0  0
 17 39  1  0  0  0  0
 18 40  1  0  0  0  0
 18 41  1  0  0  0  0
 18 42  1  0  0  0  0
 19 43  1  0  0  0  0
 19 44  1  0  0  0  0
 20 21  1  0  0  0  0
M  CHG  1   8  -1
M  CHG  1  12   1
M  END
> <s_m_source_file>
AV-unprocessed.smi

> <i_m_source_file_index>
2061

> <i_lp_mmshare_version>
43012

> <i_f3d_flags>
0

> <s_epik_input>
W0NIM11jMVtjSF1jKG5vMSlbTkhdQyg9TylbTkhdW0NIMl1bQ0BIXShbQ0gzXSlOMltDSDJdW0NAQEhdKFtDSDNdKU9bQ0BASF0oW0NIM10pW0NIMl0y

> <s_epik_cmdline>
J2VwaWtfcHl0aG9uJywgJy1waCcsICc3LjAnLCAnLXRuJywgJzgnLCAnLW1hJywgJzIwMCcsICctbWV0YWxfYmluZGluZycsICctaW1hZScsICc8aW5maWxlLm1hZT4nLCAnLW9tYWUnLCAnPG91dGZpbGUubWFlPic=

> <r_epik_Ionization_Penalty>
6.8073

> <r_epik_Ionization_Penalty_Charging>
6.80729

> <r_epik_Ionization_Penalty_Neutral>
5.65391e-06

> <r_epik_State_Penalty>
7.47323

> <r_epik_Charging_Adjusted_Penalty>
14.2805

> <i_epik_Tot_Q>
0

> <i_epik_Tot_abs_Q>
2

> <r_epik_Metal_State_Penalty>
3.40035

> <b_epik_Metal_Only>
1

> <s_lp_Force_Field>
OPLS_2005

> <r_lp_Energy>
19.801

> <b_lp_Chiralities_Consistent>
1

> <s_lp_Variant>
AV-unprocessed.smi:2061-31

> <Gold.Version>
5.8.1

> <Gold.Id.Protein>
6NUR|6NUR_protein|mol2

> <Gold.PLP.Fitness>
38.3857

> <Gold.PLP.PLP>
-28.7298

> <Gold.PLP.part.hbond>
-3.1119

> <Gold.PLP.part.metal>
0.0000

> <Gold.PLP.part.buried>
-4.9877

> <Gold.PLP.part.nonpolar>
-20.3585

> <Gold.PLP.part.repulsive>
0.2685

> <Gold.PLP.ligand.clash>
0.0000

> <Gold.PLP.ligand.torsion>
1.2509

> <Gold.PLP.Chemscore.Hbond>
4.0000

> <Gold.PLP.Chemscore.CHOScore>
0.0000

> <Gold.PLP.Chemscore.Metal>
0.0000

> <Gold.Chemscore.Hbonds>
donor molecule, donor type, donor heavy atom, donor atom, acceptor molecule, acceptor atom, score
      L1  H    12    45       P1  7948  2.00
      P1  H  7989  7998       L1     8  1.00
      P1  H  7997  8010       L1     7  1.00

> <Gold.PLP.Chemscore.Internal.Correction>
0.1578

> <Gold.Rescore>
     Score         DG    S(hbond)    S(metal)    S(lipo)     H(rot)  DE(clash)    DE(int)     intcor
     16.57     -19.02       2.82        0.00      69.15       1.56       0.09       2.36       ----

> <Gold.Chemscore.Fitness>
16.5664

> <Gold.Chemscore.DG>
-19.0201

> <Gold.Chemscore.ZeroCoef>
-5.4800

> <Gold.Chemscore.Hbond>
2.8234

> <Gold.Chemscore.Metal>
0.0000

> <Gold.Chemscore.Lipo>
69.1515

> <Gold.Chemscore.Internal_Hbond>
0.0000

> <Gold.Chemscore.DEClash>
0.0901

> <Gold.Chemscore.DEInternal>
2.3635

> <Gold.Chemscore.Rot>
1.5550

> <Gold.Chemscore.Internal.Correction>
   9.000000E+99

> <Gold.Chemscore.Hbonds>
donor molecule, donor type, donor heavy atom, donor atom, acceptor molecule, acceptor atom, score
      L1  H    12    45       P1  7948  1.00
      P1  H  7989  7998       L1     8  0.30
      P1  H  7997  8010       L1     7  1.00

> <Gold.Chemscore.Hbond.Weighted>
-9.4302

> <Gold.Chemscore.Metal.Weighted>
-0.0000

> <Gold.Chemscore.Lipo.Weighted>
-8.0907

> <Gold.Chemscore.Internal_Hbond.Weighted>
0.0000

> <Gold.Chemscore.DEClash.Weighted>
0.0901

> <Gold.Chemscore.DEInternal.Weighted>
2.3635

> <Gold.Chemscore.Rot.Weighted>
3.9809

> <Gold.Chemscore.Internal.Correction.Weighted>
   9.000000E+99

> <Gold.Protein.RotatedTorsions>
[ 6907 6896 6895 6894 ] final   46.04 input  -60.11 | X-H torsion
[ 7974 7965 7964 7962 ] final -178.76 input  175.53 | X-H torsion
[ 8008 7997 7996 7995 ] final   76.57 input   59.86 | X-H torsion
[ 10167 10162 10161 10158 ] final  -24.76 input  -65.29 | X-H torsion
[ 10718 10713 10712 10709 ] final  -97.91 input   66.30 | X-H torsion
[ 10763 10752 10751 10750 ] final  -20.97 input  -60.55 | X-H torsion
[ 11005 11000 10999 10996 ] final   14.63 input  -57.11 | X-H torsion

> <Gold.Protein.ActiveResidues>
 VAL166  LYS551  ARG553  GLY616  TRP617  ASP618  TYR619  PRO620  LYS621  CYS622 
 ASP623  PHE694  ASN695  SER759  ASP760  ASP761  ALA762  ILE779  LEU786  VAL792 
 PHE793  MET794  SER795  GLU796  ALA797  LYS798  CYS799  TRP800  GLU811  SER814 

> <Gold.Protein.RotatedAtoms>
  152.2517  134.8126  160.0444 H   0  0  0  0  0  0  0  0  0  0  0  0  # atno 6907 bound_to 6896
  151.8804  133.3489  159.3772 H   0  0  0  0  0  0  0  0  0  0  0  0  # atno 6908 bound_to 6896
  150.7086  134.4951  159.5578 H   0  0  0  0  0  0  0  0  0  0  0  0  # atno 6909 bound_to 6896
  144.7132  140.0820  143.6425 H   0  0  0  0  0  0  0  0  0  0  0  0  # atno 7974 bound_to 7965
  155.8292  140.3467  155.5562 H   0  0  0  0  0  0  0  0  0  0  0  0  # atno 8008 bound_to 7997
  155.8260  140.0920  157.1841 H   0  0  0  0  0  0  0  0  0  0  0  0  # atno 8009 bound_to 7997
  154.4004  140.1421  156.3544 H   0  0  0  0  0  0  0  0  0  0  0  0  # atno 8010 bound_to 7997
  140.7288  143.4324  151.0781 H   0  0  0  0  0  0  0  0  0  0  0  0  # atno 10167 bound_to 10162
  156.0095  130.5215  150.6445 H   0  0  0  0  0  0  0  0  0  0  0  0  # atno 10718 bound_to 10713
  153.6288  135.6990  153.5283 H   0  0  0  0  0  0  0  0  0  0  0  0  # atno 10763 bound_to 10752
  153.2877  135.4166  155.1137 H   0  0  0  0  0  0  0  0  0  0  0  0  # atno 10764 bound_to 10752
  154.8527  135.3617  154.5830 H   0  0  0  0  0  0  0  0  0  0  0  0  # atno 10765 bound_to 10752
  140.4674  134.1066  155.7726 H   0  0  0  0  0  0  0  0  0  0  0  0  # atno 11005 bound_to 11000
  145.9694  139.2858  143.1108 LP  0  0  0  0  0  0  0  0  0  0  0  0  # atno 17320 bound_to 7965
  145.9133  140.9165  143.0443 LP  0  0  0  0  0  0  0  0  0  0  0  0  # atno 17321 bound_to 7965
  139.7982  143.8121  152.3160 LP  0  0  0  0  0  0  0  0  0  0  0  0  # atno 17342 bound_to 10162
  139.8128  144.7328  150.9674 LP  0  0  0  0  0  0  0  0  0  0  0  0  # atno 17343 bound_to 10162
  157.4219  131.0838  151.1123 LP  0  0  0  0  0  0  0  0  0  0  0  0  # atno 17370 bound_to 10713
  157.1722  130.6272  149.5644 LP  0  0  0  0  0  0  0  0  0  0  0  0  # atno 17371 bound_to 10713
  141.1593  133.8823  157.1892 LP  0  0  0  0  0  0  0  0  0  0  0  0  # atno 17394 bound_to 11000
  139.9907  135.0066  156.9967 LP  0  0  0  0  0  0  0  0  0  0  0  0  # atno 17395 bound_to 11000

$$$$
