AV-unprocessed.smi:1813|AV-procd|sdf|7343|dock1
  -GOLD-   22720 9 03D 1   1.00000     0.00000
 Structure written by MMmdl.
 38 39  0  0  0  0  0  0  0  0  2 V2000
  152.5355  130.4241  164.3538 C   0  0  0  0  0  0  0  0  0  0  0  0
  153.1553  131.7164  164.6015 N   0  0  0  0  0  0  0  0  0  0  0  0
  153.9313  132.3641  163.7203 C   0  0  0  0  0  0  0  0  0  0  0  0
  154.2051  131.9209  162.6053 O   0  0  0  0  0  0  0  0  0  0  0  0
  154.4924  133.7190  164.1674 C   0  0  0  0  0  0  0  0  0  0  0  0
  154.2310  134.8372  163.2317 N   0  0  0  0  0  0  0  0  0  0  0  0
  155.0284  134.7386  161.9998 C   0  0  0  0  0  0  0  0  0  0  0  0
  154.6711  135.8797  161.0310 C   0  0  0  0  0  0  0  0  0  0  0  0
  154.8902  137.2522  161.6817 C   0  0  0  0  0  0  0  0  0  0  0  0
  154.4368  138.3076  160.7800 N   0  0  0  0  0  0  0  0  0  0  0  0
  155.2219  139.1507  160.0939 C   0  0  0  0  0  0  0  0  0  0  0  0
  156.4485  139.0742  160.1990 O   0  0  0  0  0  0  0  0  0  0  0  0
  154.5365  140.0304  159.3286 N   0  5  0  0  0  0  0  0  0  0  0  0
  153.7430  140.9475  159.9055 C   0  0  0  0  0  0  0  0  0  0  0  0
  152.9448  141.7637  159.2077 N   0  0  0  0  0  0  0  0  0  0  0  0
  152.2126  142.6424  160.0081 C   0  0  0  0  0  0  0  0  0  0  0  0
  152.4667  142.4990  161.3464 C   0  0  0  0  0  0  0  0  0  0  0  0
  153.6394  141.2473  161.6428 S   0  0  0  0  0  0  0  0  0  0  0  0
  154.1244  137.2984  163.0137 C   0  0  0  0  0  0  0  0  0  0  0  0
  154.5042  136.1082  163.9111 C   0  0  0  0  0  0  0  0  0  0  0  0
  151.9580  130.1160  165.2252 H   0  0  0  0  0  0  0  0  0  0  0  0
  153.2909  129.6621  164.1578 H   0  0  0  0  0  0  0  0  0  0  0  0
  151.8608  130.4751  163.4982 H   0  0  0  0  0  0  0  0  0  0  0  0
  152.9759  132.1550  165.4934 H   0  0  0  0  0  0  0  0  0  0  0  0
  154.0495  133.9459  165.1382 H   0  0  0  0  0  0  0  0  0  0  0  0
  155.5670  133.6215  164.3326 H   0  0  0  0  0  0  0  0  0  0  0  0
  156.0934  134.7637  162.2379 H   0  0  0  0  0  0  0  0  0  0  0  0
  154.8425  133.7941  161.4890 H   0  0  0  0  0  0  0  0  0  0  0  0
  155.2739  135.7964  160.1259 H   0  0  0  0  0  0  0  0  0  0  0  0
  153.6303  135.7762  160.7193 H   0  0  0  0  0  0  0  0  0  0  0  0
  155.9577  137.3746  161.8750 H   0  0  0  0  0  0  0  0  0  0  0  0
  153.4392  138.4098  160.6641 H   0  0  0  0  0  0  0  0  0  0  0  0
  151.5338  143.3392  159.5395 H   0  0  0  0  0  0  0  0  0  0  0  0
  152.0398  143.0494  162.1709 H   0  0  0  0  0  0  0  0  0  0  0  0
  154.3344  138.2322  163.5365 H   0  0  0  0  0  0  0  0  0  0  0  0
  153.0494  137.2846  162.8270 H   0  0  0  0  0  0  0  0  0  0  0  0
  153.9250  136.1663  164.8337 H   0  0  0  0  0  0  0  0  0  0  0  0
  155.5568  136.1701  164.1936 H   0  0  0  0  0  0  0  0  0  0  0  0
  1  2  1  0  0  0  0
  1 21  1  0  0  0  0
  1 22  1  0  0  0  0
  1 23  1  0  0  0  0
  2  3  1  0  0  0  0
  2 24  1  0  0  0  0
  3  4  2  0  0  0  0
  3  5  1  0  0  0  0
  5  6  1  0  0  0  0
  5 25  1  0  0  0  0
  5 26  1  0  0  0  0
  6 20  1  0  0  0  0
  6  7  1  0  0  0  0
  7  8  1  0  0  0  0
  7 27  1  0  0  0  0
  7 28  1  0  0  0  0
  8  9  1  0  0  0  0
  8 29  1  0  0  0  0
  8 30  1  0  0  0  0
  9 10  1  0  0  0  0
  9 19  1  0  0  0  0
  9 31  1  0  0  0  0
 10 11  1  0  0  0  0
 10 32  1  0  0  0  0
 11 12  2  0  0  0  0
 11 13  1  0  0  0  0
 13 14  1  0  0  0  0
 14 18  1  0  0  0  0
 14 15  2  0  0  0  0
 15 16  1  0  0  0  0
 16 17  2  0  0  0  0
 16 33  1  0  0  0  0
 17 18  1  0  0  0  0
 17 34  1  0  0  0  0
 19 20  1  0  0  0  0
 19 35  1  0  0  0  0
 19 36  1  0  0  0  0
 20 37  1  0  0  0  0
 20 38  1  0  0  0  0
M  CHG  1  13  -1
M  END
> <s_m_source_file>
AV-unprocessed.smi

> <i_m_source_file_index>
1813

> <i_lp_mmshare_version>
43012

> <i_f3d_flags>
0

> <s_epik_input>
W0NIM11bTkhdQyg9TylbQ0gyXU4xW0NIMl1bQ0gyXVtDSF0oW0NIMl1bQ0gyXTEpW05IXUMoPU8pW05IXWMybltjSF1bY0hdczI=

> <s_epik_cmdline>
J2VwaWtfcHl0aG9uJywgJy1waCcsICc3LjAnLCAnLXRuJywgJzgnLCAnLW1hJywgJzIwMCcsICctbWV0YWxfYmluZGluZycsICctaW1hZScsICc8aW5maWxlLm1hZT4nLCAnLW9tYWUnLCAnPG91dGZpbGUubWFlPic=

> <r_lp_tautomer_probability>
0.999

> <r_epik_Ionization_Penalty>
7.12803

> <r_epik_Ionization_Penalty_Charging>
5.8513

> <r_epik_Ionization_Penalty_Neutral>
1.27674

> <r_epik_State_Penalty>
5.99796

> <r_epik_Charging_Adjusted_Penalty>
11.8493

> <i_epik_Tot_Q>
-1

> <i_epik_Tot_abs_Q>
1

> <r_epik_Metal_State_Penalty>
1.97283

> <b_epik_Metal_Only>
1

> <s_lp_Force_Field>
OPLS_2005

> <r_lp_Energy>
7.89498

> <b_lp_Chiralities_Consistent>
1

> <s_lp_Variant>
AV-unprocessed.smi:1813-4

> <Gold.Version>
5.8.1

> <Gold.Id.Protein>
6NUR|6NUR_protein|mol2

> <Gold.PLP.Fitness>
40.0480

> <Gold.PLP.PLP>
-35.7126

> <Gold.PLP.part.hbond>
-1.0000

> <Gold.PLP.part.metal>
0.0000

> <Gold.PLP.part.buried>
-4.7051

> <Gold.PLP.part.nonpolar>
-29.4312

> <Gold.PLP.part.repulsive>
0.0705

> <Gold.PLP.ligand.clash>
0.0000

> <Gold.PLP.ligand.torsion>
0.8873

> <Gold.PLP.Chemscore.Hbond>
2.0000

> <Gold.PLP.Chemscore.CHOScore>
0.0000

> <Gold.PLP.Chemscore.Metal>
0.0000

> <Gold.Chemscore.Hbonds>
donor molecule, donor type, donor heavy atom, donor atom, acceptor molecule, acceptor atom, score
      P1  H  7997  8010       L1    13  1.71

> <Gold.PLP.Chemscore.Internal.Correction>
0.1099

> <Gold.Rescore>
     Score         DG    S(hbond)    S(metal)    S(lipo)     H(rot)  DE(clash)    DE(int)     intcor
     11.92     -13.26       0.93        0.00      77.92       1.73       0.43       0.91       ----

> <Gold.Chemscore.Fitness>
11.9245

> <Gold.Chemscore.DG>
-13.2590

> <Gold.Chemscore.ZeroCoef>
-5.4800

> <Gold.Chemscore.Hbond>
0.9285

> <Gold.Chemscore.Metal>
0.0000

> <Gold.Chemscore.Lipo>
77.9250

> <Gold.Chemscore.Internal_Hbond>
0.0000

> <Gold.Chemscore.DEClash>
0.4275

> <Gold.Chemscore.DEInternal>
0.9070

> <Gold.Chemscore.Rot>
1.7341

> <Gold.Chemscore.Internal.Correction>
   9.000000E+99

> <Gold.Chemscore.Hbonds>
donor molecule, donor type, donor heavy atom, donor atom, acceptor molecule, acceptor atom, score
      P1  H  7997  8010       L1    13  0.66

> <Gold.Chemscore.Hbond.Weighted>
-3.1011

> <Gold.Chemscore.Metal.Weighted>
-0.0000

> <Gold.Chemscore.Lipo.Weighted>
-9.1172

> <Gold.Chemscore.Internal_Hbond.Weighted>
0.0000

> <Gold.Chemscore.DEClash.Weighted>
0.4275

> <Gold.Chemscore.DEInternal.Weighted>
0.9070

> <Gold.Chemscore.Rot.Weighted>
4.4392

> <Gold.Chemscore.Internal.Correction.Weighted>
   9.000000E+99

> <Gold.Protein.RotatedTorsions>
[ 6907 6896 6895 6894 ] final   71.33 input  -60.11 | X-H torsion
[ 7974 7965 7964 7962 ] final -104.33 input  175.53 | X-H torsion
[ 8008 7997 7996 7995 ] final   -7.12 input   59.86 | X-H torsion
[ 10167 10162 10161 10158 ] final  -25.19 input  -65.29 | X-H torsion
[ 10718 10713 10712 10709 ] final  112.70 input   66.30 | X-H torsion
[ 10763 10752 10751 10750 ] final   55.55 input  -60.55 | X-H torsion
[ 11005 11000 10999 10996 ] final  170.67 input  -57.11 | X-H torsion

> <Gold.Protein.ActiveResidues>
 VAL166  LYS551  ARG553  GLY616  TRP617  ASP618  TYR619  PRO620  LYS621  CYS622 
 ASP623  PHE694  ASN695  SER759  ASP760  ASP761  ALA762  ILE779  LEU786  VAL792 
 PHE793  MET794  SER795  GLU796  ALA797  LYS798  CYS799  TRP800  GLU811  SER814 

> <Gold.Protein.RotatedAtoms>
  152.4803  134.4736  159.9643 H   0  0  0  0  0  0  0  0  0  0  0  0  # atno 6907 bound_to 6896
  151.4743  133.3555  159.2836 H   0  0  0  0  0  0  0  0  0  0  0  0  # atno 6908 bound_to 6896
  150.8871  134.8296  159.7328 H   0  0  0  0  0  0  0  0  0  0  0  0  # atno 6909 bound_to 6896
  145.2445  140.9217  143.3131 H   0  0  0  0  0  0  0  0  0  0  0  0  # atno 7974 bound_to 7965
  154.5870  140.2415  155.7973 H   0  0  0  0  0  0  0  0  0  0  0  0  # atno 8008 bound_to 7997
  156.2220  140.2994  155.9931 H   0  0  0  0  0  0  0  0  0  0  0  0  # atno 8009 bound_to 7997
  155.2440  140.0408  157.2969 H   0  0  0  0  0  0  0  0  0  0  0  0  # atno 8010 bound_to 7997
  140.7287  143.4287  151.0837 H   0  0  0  0  0  0  0  0  0  0  0  0  # atno 10167 bound_to 10162
  157.6378  131.0972  150.6933 H   0  0  0  0  0  0  0  0  0  0  0  0  # atno 10718 bound_to 10713
  152.9818  135.5707  154.5085 H   0  0  0  0  0  0  0  0  0  0  0  0  # atno 10763 bound_to 10752
  154.4592  135.2781  155.1727 H   0  0  0  0  0  0  0  0  0  0  0  0  # atno 10764 bound_to 10752
  154.3322  135.6247  153.5610 H   0  0  0  0  0  0  0  0  0  0  0  0  # atno 10765 bound_to 10752
  140.3108  134.7518  157.3990 H   0  0  0  0  0  0  0  0  0  0  0  0  # atno 11005 bound_to 11000
  144.9559  139.4032  143.6380 LP  0  0  0  0  0  0  0  0  0  0  0  0  # atno 17320 bound_to 7965
  146.3319  139.8589  142.8860 LP  0  0  0  0  0  0  0  0  0  0  0  0  # atno 17321 bound_to 7965
  139.7941  143.8177  152.3155 LP  0  0  0  0  0  0  0  0  0  0  0  0  # atno 17342 bound_to 10162
  139.8171  144.7311  150.9621 LP  0  0  0  0  0  0  0  0  0  0  0  0  # atno 17343 bound_to 10162
  156.7261  130.4695  149.5511 LP  0  0  0  0  0  0  0  0  0  0  0  0  # atno 17370 bound_to 10713
  156.1633  130.6388  151.0746 LP  0  0  0  0  0  0  0  0  0  0  0  0  # atno 17371 bound_to 10713
  140.1026  134.5452  155.8339 LP  0  0  0  0  0  0  0  0  0  0  0  0  # atno 17394 bound_to 11000
  141.2108  133.6699  156.6538 LP  0  0  0  0  0  0  0  0  0  0  0  0  # atno 17395 bound_to 11000

$$$$
