AV-unprocessed.smi:1569|AV-procd|sdf|6311|dock9
  -GOLD-   22720 6513D 1   1.00000     0.00000
 Structure written by MMmdl.
 33 34  0  0  0  0  0  0  0  0  1 V2000
  154.0531  140.5835  160.5946 C   0  0  0  0  0  0  0  0  0  0  0  0
  153.2017  141.7471  160.2193 C   0  0  0  0  0  0  0  0  0  0  0  0
  152.5714  141.8537  159.0468 N   0  0  0  0  0  0  0  0  0  0  0  0
  151.8588  143.0507  158.9260 C   0  0  0  0  0  0  0  0  0  0  0  0
  151.1245  143.3623  157.6535 C   0  0  0  0  0  0  0  0  0  0  0  0
  150.9237  142.1387  156.7366 C   0  0  0  0  0  0  0  0  0  0  0  0
  149.6705  142.2081  155.9869 N   0  0  0  0  0  0  0  0  0  0  0  0
  149.3033  141.3658  155.0081 C   0  0  0  0  0  0  0  0  0  0  0  0
  149.9729  140.3875  154.6735 O   0  0  0  0  0  0  0  0  0  0  0  0
  147.9835  141.6946  154.2993 C   0  0  0  0  0  0  0  0  0  0  0  0
  147.2487  140.4942  153.8918 N   0  0  0  0  0  0  0  0  0  0  0  0
  146.7912  140.3948  152.5099 C   0  0  0  0  0  0  0  0  0  0  0  0
  146.3173  138.6689  152.2395 S   0  0  0  0  0  0  0  0  0  0  0  0
  146.2398  138.3228  154.0052 C   0  0  0  0  0  0  0  0  0  0  0  0
  146.9757  139.4554  154.7006 C   0  0  0  0  0  0  0  0  0  0  0  0
  147.2785  139.3873  155.8912 O   0  0  0  0  0  0  0  0  0  0  0  0
  151.9411  143.8443  160.0435 C   0  0  0  0  0  0  0  0  0  0  0  0
  152.9366  143.1257  161.2790 S   0  0  0  0  0  0  0  0  0  0  0  0
  153.8509  139.7334  159.9422 H   0  0  0  0  0  0  0  0  0  0  0  0
  153.8514  140.2885  161.6245 H   0  0  0  0  0  0  0  0  0  0  0  0
  155.1061  140.8514  160.5058 H   0  0  0  0  0  0  0  0  0  0  0  0
  150.1518  143.7980  157.8841 H   0  0  0  0  0  0  0  0  0  0  0  0
  151.6648  144.1312  157.1003 H   0  0  0  0  0  0  0  0  0  0  0  0
  151.7722  142.0430  156.0571 H   0  0  0  0  0  0  0  0  0  0  0  0
  150.9157  141.2287  157.3368 H   0  0  0  0  0  0  0  0  0  0  0  0
  149.0547  142.9788  156.2021 H   0  0  0  0  0  0  0  0  0  0  0  0
  147.3743  142.3177  154.9560 H   0  0  0  0  0  0  0  0  0  0  0  0
  148.1914  142.2972  153.4137 H   0  0  0  0  0  0  0  0  0  0  0  0
  145.9289  141.0443  152.3575 H   0  0  0  0  0  0  0  0  0  0  0  0
  147.5728  140.6852  151.8080 H   0  0  0  0  0  0  0  0  0  0  0  0
  145.2013  138.3019  154.3361 H   0  0  0  0  0  0  0  0  0  0  0  0
  146.6977  137.3585  154.2273 H   0  0  0  0  0  0  0  0  0  0  0  0
  151.4899  144.8112  160.2082 H   0  0  0  0  0  0  0  0  0  0  0  0
  1  2  1  0  0  0  0
  1 19  1  0  0  0  0
  1 20  1  0  0  0  0
  1 21  1  0  0  0  0
  2 18  1  0  0  0  0
  2  3  2  0  0  0  0
  3  4  1  0  0  0  0
  4  5  1  0  0  0  0
  4 17  2  0  0  0  0
  5  6  1  0  0  0  0
  5 22  1  0  0  0  0
  5 23  1  0  0  0  0
  6  7  1  0  0  0  0
  6 24  1  0  0  0  0
  6 25  1  0  0  0  0
  7  8  1  0  0  0  0
  7 26  1  0  0  0  0
  8  9  2  0  0  0  0
  8 10  1  0  0  0  0
 10 11  1  0  0  0  0
 10 27  1  0  0  0  0
 10 28  1  0  0  0  0
 11 15  1  0  0  0  0
 11 12  1  0  0  0  0
 12 13  1  0  0  0  0
 12 29  1  0  0  0  0
 12 30  1  0  0  0  0
 13 14  1  0  0  0  0
 14 15  1  0  0  0  0
 14 31  1  0  0  0  0
 14 32  1  0  0  0  0
 15 16  2  0  0  0  0
 17 18  1  0  0  0  0
 17 33  1  0  0  0  0
M  END
> <s_m_source_file>
AV-unprocessed.smi

> <i_m_source_file_index>
1569

> <i_lp_mmshare_version>
43012

> <i_f3d_flags>
0

> <s_epik_input>
W0NIM11jMW5jKFtjSF1zMSlbQ0gyXVtDSDJdW05IXUMoPU8pW0NIMl1OMltDSDJdU1tDSDJdQzI9Tw==

> <s_epik_cmdline>
J2VwaWtfcHl0aG9uJywgJy1waCcsICc3LjAnLCAnLXRuJywgJzgnLCAnLW1hJywgJzIwMCcsICctbWV0YWxfYmluZGluZycsICctaW1hZScsICc8aW5maWxlLm1hZT4nLCAnLW9tYWUnLCAnPG91dGZpbGUubWFlPic=

> <r_epik_Ionization_Penalty>
0.00098942

> <r_epik_Ionization_Penalty_Charging>
0

> <r_epik_Ionization_Penalty_Neutral>
0.00098942

> <r_epik_State_Penalty>
0.00064447

> <r_epik_Charging_Adjusted_Penalty>
0.00064447

> <i_epik_Tot_Q>
0

> <i_epik_Tot_abs_Q>
0

> <r_epik_Metal_State_Penalty>
-0

> <b_epik_Metal_Only>
0

> <s_epik_Chemistry_Notes>
This compound contains an acetal/aminal-like group ( X-CH(R)-Y where X, Y are N, S, or O) that may be acid/base labile, releasing an aldehyde.

> <s_lp_Force_Field>
OPLS_2005

> <r_lp_Energy>
2.37506

> <b_lp_Chiralities_Consistent>
1

> <s_lp_Variant>
AV-unprocessed.smi:1569-1

> <Gold.Version>
5.8.1

> <Gold.Id.Protein>
6NUR|6NUR_protein|mol2

> <Gold.PLP.Fitness>
43.6765

> <Gold.PLP.PLP>
-39.7960

> <Gold.PLP.part.hbond>
-2.0000

> <Gold.PLP.part.metal>
0.0000

> <Gold.PLP.part.buried>
-2.0866

> <Gold.PLP.part.nonpolar>
-35.9633

> <Gold.PLP.part.repulsive>
0.2384

> <Gold.PLP.ligand.clash>
0.0000

> <Gold.PLP.ligand.torsion>
0.8753

> <Gold.PLP.Chemscore.Hbond>
1.8720

> <Gold.PLP.Chemscore.CHOScore>
0.0000

> <Gold.PLP.Chemscore.Metal>
0.0000

> <Gold.Chemscore.Hbonds>
donor molecule, donor type, donor heavy atom, donor atom, acceptor molecule, acceptor atom, score
      L1  H     7    26       P1  8028  0.74
      P1  H  7989  7998       L1     9  0.83

> <Gold.PLP.Chemscore.Internal.Correction>
0.0150

> <Gold.Rescore>
     Score         DG    S(hbond)    S(metal)    S(lipo)     H(rot)  DE(clash)    DE(int)     intcor
     15.45     -17.70       1.63        0.00      99.85       1.92       0.23       2.03       ----

> <Gold.Chemscore.Fitness>
15.4490

> <Gold.Chemscore.DG>
-17.7045

> <Gold.Chemscore.ZeroCoef>
-5.4800

> <Gold.Chemscore.Hbond>
1.6349

> <Gold.Chemscore.Metal>
0.0000

> <Gold.Chemscore.Lipo>
99.8532

> <Gold.Chemscore.Internal_Hbond>
0.0000

> <Gold.Chemscore.DEClash>
0.2301

> <Gold.Chemscore.DEInternal>
2.0254

> <Gold.Chemscore.Rot>
1.9215

> <Gold.Chemscore.Internal.Correction>
   9.000000E+99

> <Gold.Chemscore.Hbonds>
donor molecule, donor type, donor heavy atom, donor atom, acceptor molecule, acceptor atom, score
      L1  H     7    26       P1  8028  0.72
      P1  H  7989  7998       L1     9  0.65

> <Gold.Chemscore.Hbond.Weighted>
-5.4606

> <Gold.Chemscore.Metal.Weighted>
-0.0000

> <Gold.Chemscore.Lipo.Weighted>
-11.6828

> <Gold.Chemscore.Internal_Hbond.Weighted>
0.0000

> <Gold.Chemscore.DEClash.Weighted>
0.2301

> <Gold.Chemscore.DEInternal.Weighted>
2.0254

> <Gold.Chemscore.Rot.Weighted>
4.9190

> <Gold.Chemscore.Internal.Correction.Weighted>
   9.000000E+99

> <Gold.Protein.RotatedTorsions>
[ 6907 6896 6895 6894 ] final   57.85 input  -60.11 | X-H torsion
[ 7974 7965 7964 7962 ] final  165.77 input  175.53 | X-H torsion
[ 8008 7997 7996 7995 ] final  152.62 input   59.86 | X-H torsion
[ 10167 10162 10161 10158 ] final -165.42 input  -65.29 | X-H torsion
[ 10718 10713 10712 10709 ] final   83.15 input   66.30 | X-H torsion
[ 10763 10752 10751 10750 ] final   11.85 input  -60.55 | X-H torsion
[ 11005 11000 10999 10996 ] final -168.36 input  -57.11 | X-H torsion

> <Gold.Protein.ActiveResidues>
 VAL166  LYS551  ARG553  GLY616  TRP617  ASP618  TYR619  PRO620  LYS621  CYS622 
 ASP623  PHE694  ASN695  SER759  ASP760  ASP761  ALA762  ILE779  LEU786  VAL792 
 PHE793  MET794  SER795  GLU796  ALA797  LYS798  CYS799  TRP800  GLU811  SER814 

> <Gold.Protein.RotatedAtoms>
  152.3770  134.6648  160.0156 H   0  0  0  0  0  0  0  0  0  0  0  0  # atno 6907 bound_to 6896
  151.6923  133.3305  159.3254 H   0  0  0  0  0  0  0  0  0  0  0  0  # atno 6908 bound_to 6896
  150.7717  134.6623  159.6391 H   0  0  0  0  0  0  0  0  0  0  0  0  # atno 6909 bound_to 6896
  144.7489  139.8518  143.6373 H   0  0  0  0  0  0  0  0  0  0  0  0  # atno 7974 bound_to 7965
  156.2620  140.2016  156.6362 H   0  0  0  0  0  0  0  0  0  0  0  0  # atno 8008 bound_to 7997
  154.6644  140.0557  157.0122 H   0  0  0  0  0  0  0  0  0  0  0  0  # atno 8009 bound_to 7997
  155.1228  140.3226  155.4496 H   0  0  0  0  0  0  0  0  0  0  0  0  # atno 8010 bound_to 7997
  139.6183  144.0675  152.1909 H   0  0  0  0  0  0  0  0  0  0  0  0  # atno 10167 bound_to 10162
  157.6873  131.0078  150.2480 H   0  0  0  0  0  0  0  0  0  0  0  0  # atno 10718 bound_to 10713
  153.1883  135.6838  153.8386 H   0  0  0  0  0  0  0  0  0  0  0  0  # atno 10763 bound_to 10752
  153.7694  135.3198  155.3350 H   0  0  0  0  0  0  0  0  0  0  0  0  # atno 10764 bound_to 10752
  154.8102  135.4722  154.0594 H   0  0  0  0  0  0  0  0  0  0  0  0  # atno 10765 bound_to 10752
  140.5429  134.5505  157.5104 H   0  0  0  0  0  0  0  0  0  0  0  0  # atno 11005 bound_to 11000
  146.1411  139.4468  143.0108 LP  0  0  0  0  0  0  0  0  0  0  0  0  # atno 17320 bound_to 7965
  145.7017  141.0134  143.1500 LP  0  0  0  0  0  0  0  0  0  0  0  0  # atno 17321 bound_to 7965
  140.0310  144.6080  150.7487 LP  0  0  0  0  0  0  0  0  0  0  0  0  # atno 17342 bound_to 10162
  140.7365  143.2754  151.3757 LP  0  0  0  0  0  0  0  0  0  0  0  0  # atno 17343 bound_to 10162
  156.3082  130.3768  149.7686 LP  0  0  0  0  0  0  0  0  0  0  0  0  # atno 17370 bound_to 10713
  156.5295  130.8251  151.3232 LP  0  0  0  0  0  0  0  0  0  0  0  0  # atno 17371 bound_to 10713
  139.9495  134.7643  156.0483 LP  0  0  0  0  0  0  0  0  0  0  0  0  # atno 17394 bound_to 11000
  141.1217  133.6611  156.3231 LP  0  0  0  0  0  0  0  0  0  0  0  0  # atno 17395 bound_to 11000

$$$$
