AV-unprocessed.smi:1965|AV-procd|sdf|7940|dock2
  -GOLD-   2272010113D 1   1.00000     0.00000
 Structure written by MMmdl.
 36 38  0  0  0  0  0  0  0  0  3 V2000
  151.5957  141.2007  157.7783 O   0  0  0  0  0  0  0  0  0  0  0  0
  151.2133  142.2243  157.2130 C   0  0  0  0  0  0  0  0  0  0  0  0
  151.5904  143.4734  157.5905 N   0  5  0  0  0  0  0  0  0  0  0  0
  151.9898  143.7630  158.8427 C   0  0  0  0  0  0  0  0  0  0  0  0
  152.4483  142.8410  159.6971 N   0  0  0  0  0  0  0  0  0  0  0  0
  152.8060  143.3654  160.9406 C   0  0  0  0  0  0  0  0  0  0  0  0
  152.6115  144.7180  161.0364 C   0  0  0  0  0  0  0  0  0  0  0  0
  151.9685  145.3768  159.5593 S   0  0  0  0  0  0  0  0  0  0  0  0
  150.3776  142.1133  156.1637 N   0  0  0  0  0  0  0  0  0  0  0  0
  149.8382  140.8701  155.6273 C   0  0  2  0  0  0  0  0  0  0  0  0
  150.8864  139.7656  155.4207 C   0  0  0  0  0  0  0  0  0  0  0  0
  150.4808  139.0592  154.1120 C   0  0  0  0  0  0  0  0  0  0  0  0
  149.2289  139.7025  153.6492 N   0  3  1  0  0  0  0  0  0  0  0  0
  148.0230  138.9136  154.0232 C   0  0  0  0  0  0  0  0  0  0  0  0
  146.7227  139.6848  153.7610 C   0  0  0  0  0  0  0  0  0  0  0  0
  146.7277  141.0061  154.5337 C   0  0  0  0  0  0  0  0  0  0  0  0
  147.9405  141.8407  154.1093 C   0  0  0  0  0  0  0  0  0  0  0  0
  149.2755  141.0704  154.2188 C   0  0  1  0  0  0  0  0  0  0  0  0
  153.1893  142.7016  161.7011 H   0  0  0  0  0  0  0  0  0  0  0  0
  152.8026  145.3631  161.8808 H   0  0  0  0  0  0  0  0  0  0  0  0
  150.0872  142.9691  155.7138 H   0  0  0  0  0  0  0  0  0  0  0  0
  149.0507  140.5023  156.2871 H   0  0  0  0  0  0  0  0  0  0  0  0
  151.8895  140.1832  155.3202 H   0  0  0  0  0  0  0  0  0  0  0  0
  150.9018  139.0777  156.2669 H   0  0  0  0  0  0  0  0  0  0  0  0
  151.2501  139.2206  153.3560 H   0  0  0  0  0  0  0  0  0  0  0  0
  150.3745  137.9807  154.2382 H   0  0  0  0  0  0  0  0  0  0  0  0
  148.0198  137.9816  153.4569 H   0  0  0  0  0  0  0  0  0  0  0  0
  148.0714  138.6369  155.0776 H   0  0  0  0  0  0  0  0  0  0  0  0
  146.6103  139.8757  152.6930 H   0  0  0  0  0  0  0  0  0  0  0  0
  145.8657  139.0815  154.0618 H   0  0  0  0  0  0  0  0  0  0  0  0
  145.8072  141.5586  154.3425 H   0  0  0  0  0  0  0  0  0  0  0  0
  146.7585  140.8140  155.6068 H   0  0  0  0  0  0  0  0  0  0  0  0
  147.8009  142.1503  153.0727 H   0  0  0  0  0  0  0  0  0  0  0  0
  147.9872  142.7609  154.6927 H   0  0  0  0  0  0  0  0  0  0  0  0
  150.0192  141.6227  153.6400 H   0  0  0  0  0  0  0  0  0  0  0  0
  149.2418  139.7723  152.6418 H   0  0  0  0  0  0  0  0  0  0  0  0
  1  2  2  0  0  0  0
  2  3  1  0  0  0  0
  2  9  1  0  0  0  0
  3  4  1  0  0  0  0
  4  8  1  0  0  0  0
  4  5  2  0  0  0  0
  5  6  1  0  0  0  0
  6  7  2  0  0  0  0
  6 19  1  0  0  0  0
  7  8  1  0  0  0  0
  7 20  1  0  0  0  0
  9 10  1  0  0  0  0
  9 21  1  0  0  0  0
 10 18  1  0  0  0  0
 10 11  1  0  0  0  0
 10 22  1  0  0  0  0
 11 12  1  0  0  0  0
 11 23  1  0  0  0  0
 11 24  1  0  0  0  0
 12 13  1  0  0  0  0
 12 25  1  0  0  0  0
 12 26  1  0  0  0  0
 13 18  1  0  0  0  0
 13 14  1  0  0  0  0
 13 36  1  0  0  0  0
 14 15  1  0  0  0  0
 14 27  1  0  0  0  0
 14 28  1  0  0  0  0
 15 16  1  0  0  0  0
 15 29  1  0  0  0  0
 15 30  1  0  0  0  0
 16 17  1  0  0  0  0
 16 31  1  0  0  0  0
 16 32  1  0  0  0  0
 17 18  1  0  0  0  0
 17 33  1  0  0  0  0
 17 34  1  0  0  0  0
 18 35  1  0  0  0  0
M  CHG  1   3  -1
M  CHG  1  13   1
M  END
> <s_m_source_file>
AV-unprocessed.smi

> <i_m_source_file_index>
1965

> <i_lp_mmshare_version>
43012

> <i_f3d_flags>
0

> <s_epik_input>
czFbY0hdW2NIXW5jMVtOSF1DKD1PKVtOSF1bQ0BIXShbQ0gyXVtDSDJdMilbQ0BASF0oTjIzKVtDSDJdW0NIMl1bQ0gyXVtDSDJdMw==

> <s_epik_cmdline>
J2VwaWtfcHl0aG9uJywgJy1waCcsICc3LjAnLCAnLXRuJywgJzgnLCAnLW1hJywgJzIwMCcsICctbWV0YWxfYmluZGluZycsICctaW1hZScsICc8aW5maWxlLm1hZT4nLCAnLW9tYWUnLCAnPG91dGZpbGUubWFlPic=

> <r_lp_tautomer_probability>
1

> <r_epik_Ionization_Penalty>
7.4116

> <r_epik_Ionization_Penalty_Charging>
6.13869

> <r_epik_Ionization_Penalty_Neutral>
1.27291

> <r_epik_State_Penalty>
6.13761

> <r_epik_Charging_Adjusted_Penalty>
12.2763

> <i_epik_Tot_Q>
0

> <i_epik_Tot_abs_Q>
2

> <r_epik_Metal_State_Penalty>
2.08142

> <b_epik_Metal_Only>
1

> <s_lp_Force_Field>
OPLS_2005

> <r_lp_Energy>
29.0892

> <b_lp_Chiralities_Consistent>
1

> <s_lp_Variant>
AV-unprocessed.smi:1965-9

> <Gold.Version>
5.8.1

> <Gold.Id.Protein>
6NUR|6NUR_protein|mol2

> <Gold.PLP.Fitness>
43.1197

> <Gold.PLP.PLP>
-37.9354

> <Gold.PLP.part.hbond>
-2.0000

> <Gold.PLP.part.metal>
0.0000

> <Gold.PLP.part.buried>
-4.5214

> <Gold.PLP.part.nonpolar>
-32.2419

> <Gold.PLP.part.repulsive>
0.3598

> <Gold.PLP.ligand.clash>
0.0000

> <Gold.PLP.ligand.torsion>
0.4171

> <Gold.PLP.Chemscore.Hbond>
2.0000

> <Gold.PLP.Chemscore.CHOScore>
0.0000

> <Gold.PLP.Chemscore.Metal>
0.0000

> <Gold.Chemscore.Hbonds>
donor molecule, donor type, donor heavy atom, donor atom, acceptor molecule, acceptor atom, score
      L1  H     9    21       P1  8028  0.78
      L1  H    13    36       P1  7957  1.00

> <Gold.PLP.Chemscore.Internal.Correction>
0.0185

> <Gold.Rescore>
     Score         DG    S(hbond)    S(metal)    S(lipo)     H(rot)  DE(clash)    DE(int)     intcor
     16.40     -19.89       1.94        0.00      89.81       1.00       0.18       3.32       ----

> <Gold.Chemscore.Fitness>
16.3966

> <Gold.Chemscore.DG>
-19.8918

> <Gold.Chemscore.ZeroCoef>
-5.4800

> <Gold.Chemscore.Hbond>
1.9353

> <Gold.Chemscore.Metal>
0.0000

> <Gold.Chemscore.Lipo>
89.8116

> <Gold.Chemscore.Internal_Hbond>
0.0000

> <Gold.Chemscore.DEClash>
0.1763

> <Gold.Chemscore.DEInternal>
3.3189

> <Gold.Chemscore.Rot>
1.0000

> <Gold.Chemscore.Internal.Correction>
   9.000000E+99

> <Gold.Chemscore.Hbonds>
donor molecule, donor type, donor heavy atom, donor atom, acceptor molecule, acceptor atom, score
      L1  H     9    21       P1  8028  0.73
      L1  H    13    36       P1  7957  0.95

> <Gold.Chemscore.Hbond.Weighted>
-6.4638

> <Gold.Chemscore.Metal.Weighted>
-0.0000

> <Gold.Chemscore.Lipo.Weighted>
-10.5080

> <Gold.Chemscore.Internal_Hbond.Weighted>
0.0000

> <Gold.Chemscore.DEClash.Weighted>
0.1763

> <Gold.Chemscore.DEInternal.Weighted>
3.3189

> <Gold.Chemscore.Rot.Weighted>
2.5600

> <Gold.Chemscore.Internal.Correction.Weighted>
   9.000000E+99

> <Gold.Protein.RotatedTorsions>
[ 6907 6896 6895 6894 ] final   39.52 input  -60.11 | X-H torsion
[ 7974 7965 7964 7962 ] final  129.40 input  175.53 | X-H torsion
[ 8008 7997 7996 7995 ] final    1.84 input   59.86 | X-H torsion
[ 10167 10162 10161 10158 ] final  150.58 input  -65.29 | X-H torsion
[ 10718 10713 10712 10709 ] final -117.84 input   66.30 | X-H torsion
[ 10763 10752 10751 10750 ] final -153.14 input  -60.55 | X-H torsion
[ 11005 11000 10999 10996 ] final -164.34 input  -57.11 | X-H torsion

> <Gold.Protein.ActiveResidues>
 VAL166  LYS551  ARG553  GLY616  TRP617  ASP618  TYR619  PRO620  LYS621  CYS622 
 ASP623  PHE694  ASN695  SER759  ASP760  ASP761  ALA762  ILE779  LEU786  VAL792 
 PHE793  MET794  SER795  GLU796  ALA797  LYS798  CYS799  TRP800  GLU811  SER814 

> <Gold.Protein.RotatedAtoms>
  152.1707  134.8837  160.0534 H   0  0  0  0  0  0  0  0  0  0  0  0  # atno 6907 bound_to 6896
  151.9798  133.3749  159.4111 H   0  0  0  0  0  0  0  0  0  0  0  0  # atno 6908 bound_to 6896
  150.6901  134.3974  159.5147 H   0  0  0  0  0  0  0  0  0  0  0  0  # atno 6909 bound_to 6896
  145.0290  139.4063  143.5159 H   0  0  0  0  0  0  0  0  0  0  0  0  # atno 7974 bound_to 7965
  154.6845  140.2640  155.6875 H   0  0  0  0  0  0  0  0  0  0  0  0  # atno 8008 bound_to 7997
  156.2709  140.2803  156.1323 H   0  0  0  0  0  0  0  0  0  0  0  0  # atno 8009 bound_to 7997
  155.0985  140.0374  157.2680 H   0  0  0  0  0  0  0  0  0  0  0  0  # atno 8010 bound_to 7997
  139.4849  144.5511  151.7399 H   0  0  0  0  0  0  0  0  0  0  0  0  # atno 10167 bound_to 10162
  156.1062  130.6212  150.9215 H   0  0  0  0  0  0  0  0  0  0  0  0  # atno 10718 bound_to 10713
  154.7947  135.3219  154.7694 H   0  0  0  0  0  0  0  0  0  0  0  0  # atno 10763 bound_to 10752
  153.8375  135.6874  153.4811 H   0  0  0  0  0  0  0  0  0  0  0  0  # atno 10764 bound_to 10752
  153.1633  135.4652  154.9744 H   0  0  0  0  0  0  0  0  0  0  0  0  # atno 10765 bound_to 10752
  140.5880  134.5074  157.5188 H   0  0  0  0  0  0  0  0  0  0  0  0  # atno 11005 bound_to 11000
  146.3496  139.9830  142.8693 LP  0  0  0  0  0  0  0  0  0  0  0  0  # atno 17320 bound_to 7965
  145.1795  140.9760  143.4275 LP  0  0  0  0  0  0  0  0  0  0  0  0  # atno 17321 bound_to 7965
  140.5065  144.1090  150.5984 LP  0  0  0  0  0  0  0  0  0  0  0  0  # atno 17342 bound_to 10162
  140.4001  143.2708  151.9958 LP  0  0  0  0  0  0  0  0  0  0  0  0  # atno 17343 bound_to 10162
  157.6239  131.0927  150.8570 LP  0  0  0  0  0  0  0  0  0  0  0  0  # atno 17370 bound_to 10713
  156.8688  130.5139  149.5298 LP  0  0  0  0  0  0  0  0  0  0  0  0  # atno 17371 bound_to 10713
  139.9287  134.8005  156.0993 LP  0  0  0  0  0  0  0  0  0  0  0  0  # atno 17394 bound_to 11000
  141.0954  133.6698  156.2632 LP  0  0  0  0  0  0  0  0  0  0  0  0  # atno 17395 bound_to 11000

$$$$
