AV-unprocessed.smi:139|AV-procd|sdf|1184|dock9
  -GOLD-   2262018333D 1   1.00000     0.00000
 Structure written by MMmdl.
 50 53  0  0  0  0  0  0  0  0  1 V2000
  149.5334  133.8118  153.9194 O   0  0  0  0  0  0  0  0  0  0  0  0
  148.5037  133.7794  154.5947 C   0  0  0  0  0  0  0  0  0  0  0  0
  148.3291  134.6943  155.8159 C   0  0  0  0  0  0  0  0  0  0  0  0
  149.4244  135.6743  155.9832 N   0  0  0  0  0  0  0  0  0  0  0  0
  150.5296  135.3285  156.7998 C   0  0  0  0  0  0  0  0  0  0  0  0
  150.5900  134.2349  157.3638 O   0  0  0  0  0  0  0  0  0  0  0  0
  151.5695  136.3446  156.9153 C   0  0  0  0  0  0  0  0  0  0  0  0
  152.6481  136.1093  157.6816 F   0  0  0  0  0  0  0  0  0  0  0  0
  151.4640  137.5236  156.2686 C   0  0  0  0  0  0  0  0  0  0  0  0
  150.3857  137.8426  155.4627 N   0  0  0  0  0  0  0  0  0  0  0  0
  150.2927  139.1742  154.7463 C   0  0  1  0  0  0  0  0  0  0  0  0
  149.0802  139.9648  155.2489 C   0  0  0  0  0  0  0  0  0  0  0  0
  149.6773  140.7325  156.4076 C   0  0  0  0  0  0  0  0  0  0  0  0
  151.0815  141.0311  155.8915 C   0  0  0  0  0  0  0  0  0  0  0  0
  151.4265  139.9395  155.0387 O   0  0  0  0  0  0  0  0  0  0  0  0
  149.3361  136.9118  155.3025 C   0  0  0  0  0  0  0  0  0  0  0  0
  148.3667  137.1749  154.5872 O   0  0  0  0  0  0  0  0  0  0  0  0
  147.4761  132.9527  154.3381 N   0  0  0  0  0  0  0  0  0  0  0  0
  147.3874  131.9727  153.2523 C   0  0  1  0  0  0  0  0  0  0  0  0
  147.1543  130.5477  153.7971 C   0  0  0  0  0  0  0  0  0  0  0  0
  146.8952  129.5504  152.6668 C   0  0  0  0  0  0  0  0  0  0  0  0
  145.6486  129.9428  151.8663 C   0  0  0  0  0  0  0  0  0  0  0  0
  145.6307  131.4081  151.4582 C   0  0  0  0  0  0  0  0  0  0  0  0
  144.7776  131.8057  150.4072 C   0  0  0  0  0  0  0  0  0  0  0  0
  144.7246  133.1514  150.0008 C   0  0  0  0  0  0  0  0  0  0  0  0
  145.5284  134.1093  150.6434 C   0  0  0  0  0  0  0  0  0  0  0  0
  146.3805  133.7210  151.6938 C   0  0  0  0  0  0  0  0  0  0  0  0
  146.4343  132.3735  152.1198 C   0  0  0  0  0  0  0  0  0  0  0  0
  147.3655  135.2011  155.7400 H   0  0  0  0  0  0  0  0  0  0  0  0
  148.2255  134.0646  156.7009 H   0  0  0  0  0  0  0  0  0  0  0  0
  152.2636  138.2368  156.3995 H   0  0  0  0  0  0  0  0  0  0  0  0
  150.2643  138.9377  153.6814 H   0  0  0  0  0  0  0  0  0  0  0  0
  148.7586  140.6480  154.4620 H   0  0  0  0  0  0  0  0  0  0  0  0
  148.2433  139.3221  155.5239 H   0  0  0  0  0  0  0  0  0  0  0  0
  149.1157  141.6313  156.6624 H   0  0  0  0  0  0  0  0  0  0  0  0
  149.7261  140.0979  157.2933 H   0  0  0  0  0  0  0  0  0  0  0  0
  151.0805  141.9467  155.2990 H   0  0  0  0  0  0  0  0  0  0  0  0
  151.8046  141.1505  156.6983 H   0  0  0  0  0  0  0  0  0  0  0  0
  146.6798  133.0019  154.9566 H   0  0  0  0  0  0  0  0  0  0  0  0
  148.3747  131.9720  152.7891 H   0  0  0  0  0  0  0  0  0  0  0  0
  148.0082  130.2315  154.3971 H   0  0  0  0  0  0  0  0  0  0  0  0
  146.2907  130.5297  154.4624 H   0  0  0  0  0  0  0  0  0  0  0  0
  147.7620  129.5277  152.0052 H   0  0  0  0  0  0  0  0  0  0  0  0
  146.7813  128.5418  153.0648 H   0  0  0  0  0  0  0  0  0  0  0  0
  145.5695  129.3145  150.9784 H   0  0  0  0  0  0  0  0  0  0  0  0
  144.7565  129.7529  152.4641 H   0  0  0  0  0  0  0  0  0  0  0  0
  144.1582  131.0752  149.9076 H   0  0  0  0  0  0  0  0  0  0  0  0
  144.0691  133.4478  149.1953 H   0  0  0  0  0  0  0  0  0  0  0  0
  145.4936  135.1421  150.3301 H   0  0  0  0  0  0  0  0  0  0  0  0
  146.9968  134.4686  152.1709 H   0  0  0  0  0  0  0  0  0  0  0  0
  1  2  2  0  0  0  0
  2  3  1  0  0  0  0
  2 18  1  0  0  0  0
  3  4  1  0  0  0  0
  3 29  1  0  0  0  0
  3 30  1  0  0  0  0
  4 16  1  0  0  0  0
  4  5  1  0  0  0  0
  5  6  2  0  0  0  0
  5  7  1  0  0  0  0
  7  8  1  0  0  0  0
  7  9  2  0  0  0  0
  9 10  1  0  0  0  0
  9 31  1  0  0  0  0
 10 11  1  0  0  0  0
 10 16  1  0  0  0  0
 11 15  1  0  0  0  0
 11 12  1  0  0  0  0
 11 32  1  0  0  0  0
 12 13  1  0  0  0  0
 12 33  1  0  0  0  0
 12 34  1  0  0  0  0
 13 14  1  0  0  0  0
 13 35  1  0  0  0  0
 13 36  1  0  0  0  0
 14 15  1  0  0  0  0
 14 37  1  0  0  0  0
 14 38  1  0  0  0  0
 16 17  2  0  0  0  0
 18 19  1  0  0  0  0
 18 39  1  0  0  0  0
 19 28  1  0  0  0  0
 19 20  1  0  0  0  0
 19 40  1  0  0  0  0
 20 21  1  0  0  0  0
 20 41  1  0  0  0  0
 20 42  1  0  0  0  0
 21 22  1  0  0  0  0
 21 43  1  0  0  0  0
 21 44  1  0  0  0  0
 22 23  1  0  0  0  0
 22 45  1  0  0  0  0
 22 46  1  0  0  0  0
 23 28  2  0  0  0  0
 23 24  1  0  0  0  0
 24 25  2  0  0  0  0
 24 47  1  0  0  0  0
 25 26  1  0  0  0  0
 25 48  1  0  0  0  0
 26 27  2  0  0  0  0
 26 49  1  0  0  0  0
 27 28  1  0  0  0  0
 27 50  1  0  0  0  0
M  END
> <s_m_source_file>
AV-unprocessed.smi

> <i_m_source_file_index>
139

> <i_lp_mmshare_version>
43012

> <i_f3d_flags>
0

> <s_epik_input>
W2NIXTFbY0hdW2NIXVtjSF1jKGMxMilbQ0BASF0oW0NIMl1bQ0gyXVtDSDJdMilbTkhdQyg9TylbQ0gyXW4zYyg9TyljKEYpW2NIXW4oYzM9TylbQ0BASF00W0NIMl1bQ0gyXVtDSDJdTzQ=

> <s_epik_cmdline>
J2VwaWtfcHl0aG9uJywgJy1waCcsICc3LjAnLCAnLXRuJywgJzgnLCAnLW1hJywgJzIwMCcsICctbWV0YWxfYmluZGluZycsICctaW1hZScsICc8aW5maWxlLm1hZT4nLCAnLW9tYWUnLCAnPG91dGZpbGUubWFlPic=

> <r_lp_tautomer_probability>
1

> <r_epik_Ionization_Penalty>
3.261e-08

> <r_epik_Ionization_Penalty_Charging>
3.6725e-09

> <r_epik_Ionization_Penalty_Neutral>
2.89375e-08

> <r_epik_State_Penalty>
-0

> <r_epik_Charging_Adjusted_Penalty>
3.6725e-09

> <i_epik_Tot_Q>
0

> <i_epik_Tot_abs_Q>
0

> <r_epik_Metal_State_Penalty>
-0

> <b_epik_Metal_Only>
0

> <s_epik_Chemistry_Notes>
This compound contains an acetal/aminal-like group ( X-CH(R)-Y where X, Y are N, S, or O) that may be acid/base labile, releasing an aldehyde.

> <s_lp_Force_Field>
OPLS_2005

> <r_lp_Energy>
31.2563

> <b_lp_Chiralities_Consistent>
1

> <s_lp_Variant>
AV-unprocessed.smi:139-4

> <Gold.Version>
5.8.1

> <Gold.Id.Protein>
6NUR|6NUR_protein|mol2

> <Gold.PLP.Fitness>
43.9532

> <Gold.PLP.PLP>
-40.3858

> <Gold.PLP.part.hbond>
-2.0000

> <Gold.PLP.part.metal>
0.0000

> <Gold.PLP.part.buried>
-8.3748

> <Gold.PLP.part.nonpolar>
-32.3763

> <Gold.PLP.part.repulsive>
1.4078

> <Gold.PLP.ligand.clash>
0.0000

> <Gold.PLP.ligand.torsion>
0.4885

> <Gold.PLP.Chemscore.Hbond>
1.4914

> <Gold.PLP.Chemscore.CHOScore>
0.0000

> <Gold.PLP.Chemscore.Metal>
0.0000

> <Gold.Chemscore.Hbonds>
donor molecule, donor type, donor heavy atom, donor atom, acceptor molecule, acceptor atom, score
      P1  H  6896  6907       L1     6  0.59
      P1  H  7989  7998       L1    15  0.90

> <Gold.PLP.Chemscore.Internal.Correction>
0.0702

> <Gold.Rescore>
     Score         DG    S(hbond)    S(metal)    S(lipo)     H(rot)  DE(clash)    DE(int)     intcor
     14.72     -16.45       1.24        0.00      98.23       1.82       0.11       1.62       ----

> <Gold.Chemscore.Fitness>
14.7228

> <Gold.Chemscore.DG>
-16.4456

> <Gold.Chemscore.ZeroCoef>
-5.4800

> <Gold.Chemscore.Hbond>
1.2351

> <Gold.Chemscore.Metal>
0.0000

> <Gold.Chemscore.Lipo>
98.2298

> <Gold.Chemscore.Internal_Hbond>
0.0000

> <Gold.Chemscore.DEClash>
0.1071

> <Gold.Chemscore.DEInternal>
1.6157

> <Gold.Chemscore.Rot>
1.8174

> <Gold.Chemscore.Internal.Correction>
   9.000000E+99

> <Gold.Chemscore.Hbonds>
donor molecule, donor type, donor heavy atom, donor atom, acceptor molecule, acceptor atom, score
      P1  H  6896  6907       L1     6  0.59
      P1  H  7989  7998       L1    15  0.06

> <Gold.Chemscore.Hbond.Weighted>
-4.1251

> <Gold.Chemscore.Metal.Weighted>
-0.0000

> <Gold.Chemscore.Lipo.Weighted>
-11.4929

> <Gold.Chemscore.Internal_Hbond.Weighted>
0.0000

> <Gold.Chemscore.DEClash.Weighted>
0.1071

> <Gold.Chemscore.DEInternal.Weighted>
1.6157

> <Gold.Chemscore.Rot.Weighted>
4.6524

> <Gold.Chemscore.Internal.Correction.Weighted>
   9.000000E+99

> <Gold.Protein.RotatedTorsions>
[ 6907 6896 6895 6894 ] final -126.30 input  -60.11 | X-H torsion
[ 7974 7965 7964 7962 ] final   52.94 input  175.53 | X-H torsion
[ 8008 7997 7996 7995 ] final -150.36 input   59.86 | X-H torsion
[ 10167 10162 10161 10158 ] final   12.98 input  -65.29 | X-H torsion
[ 10718 10713 10712 10709 ] final -147.79 input   66.30 | X-H torsion
[ 10763 10752 10751 10750 ] final  -21.39 input  -60.55 | X-H torsion
[ 11005 11000 10999 10996 ] final   95.71 input  -57.11 | X-H torsion

> <Gold.Protein.ActiveResidues>
 VAL166  LYS551  ARG553  GLY616  TRP617  ASP618  TYR619  PRO620  LYS621  CYS622 
 ASP623  PHE694  ASN695  SER759  ASP760  ASP761  ALA762  ILE779  LEU786  VAL792 
 PHE793  MET794  SER795  GLU796  ALA797  LYS798  CYS799  TRP800  GLU811  SER814 

> <Gold.Protein.RotatedAtoms>
  150.8955  133.7187  159.2892 H   0  0  0  0  0  0  0  0  0  0  0  0  # atno 6907 bound_to 6896
  151.4723  135.1045  159.9764 H   0  0  0  0  0  0  0  0  0  0  0  0  # atno 6908 bound_to 6896
  152.4846  133.8292  159.7150 H   0  0  0  0  0  0  0  0  0  0  0  0  # atno 6909 bound_to 6896
  145.9763  139.4198  143.0159 H   0  0  0  0  0  0  0  0  0  0  0  0  # atno 7974 bound_to 7965
  155.6223  140.0683  157.2674 H   0  0  0  0  0  0  0  0  0  0  0  0  # atno 8008 bound_to 7997
  154.4226  140.1782  156.1434 H   0  0  0  0  0  0  0  0  0  0  0  0  # atno 8009 bound_to 7997
  155.9999  140.3337  155.6839 H   0  0  0  0  0  0  0  0  0  0  0  0  # atno 8010 bound_to 7997
  140.6032  143.8561  150.6987 H   0  0  0  0  0  0  0  0  0  0  0  0  # atno 10167 bound_to 10162
  156.4120  130.7986  151.2204 H   0  0  0  0  0  0  0  0  0  0  0  0  # atno 10718 bound_to 10713
  153.6354  135.6987  153.5260 H   0  0  0  0  0  0  0  0  0  0  0  0  # atno 10763 bound_to 10752
  153.2826  135.4181  155.1092 H   0  0  0  0  0  0  0  0  0  0  0  0  # atno 10764 bound_to 10752
  154.8512  135.3605  154.5897 H   0  0  0  0  0  0  0  0  0  0  0  0  # atno 10765 bound_to 10752
  139.8787  134.8913  156.4051 H   0  0  0  0  0  0  0  0  0  0  0  0  # atno 11005 bound_to 11000
  145.7834  140.9846  143.1087 LP  0  0  0  0  0  0  0  0  0  0  0  0  # atno 17320 bound_to 7965
  144.6849  139.9593  143.7480 LP  0  0  0  0  0  0  0  0  0  0  0  0  # atno 17321 bound_to 7965
  140.2112  143.3882  152.1717 LP  0  0  0  0  0  0  0  0  0  0  0  0  # atno 17342 bound_to 10162
  139.5306  144.7154  151.5069 LP  0  0  0  0  0  0  0  0  0  0  0  0  # atno 17343 bound_to 10162
  157.7507  131.0255  150.3920 LP  0  0  0  0  0  0  0  0  0  0  0  0  # atno 17370 bound_to 10713
  156.4220  130.3955  149.6818 LP  0  0  0  0  0  0  0  0  0  0  0  0  # atno 17371 bound_to 10713
  140.9240  133.7625  155.9941 LP  0  0  0  0  0  0  0  0  0  0  0  0  # atno 17394 bound_to 11000
  140.8407  134.3070  157.5314 LP  0  0  0  0  0  0  0  0  0  0  0  0  # atno 17395 bound_to 11000

$$$$
