AV-unprocessed.smi:2999|AV-procd|sdf|11418|dock6
  -GOLD-   2272016343D 1   1.00000     0.00000
 Structure written by MMmdl.
 37 39  0  0  0  0  0  0  0  0  1 V2000
  144.4993  136.9951  151.6402 O   0  0  0  0  0  0  0  0  0  0  0  0
  145.6841  136.6601  151.6627 C   0  0  0  0  0  0  0  0  0  0  0  0
  146.6960  137.5262  151.8157 N   0  0  0  0  0  0  0  0  0  0  0  0
  146.5571  138.9679  151.9996 C   0  0  0  0  0  0  0  0  0  0  0  0
  147.1752  139.4471  153.3248 C   0  0  1  0  0  0  0  0  0  0  0  0
  148.5142  138.7577  153.6675 C   0  0  0  0  0  0  0  0  0  0  0  0
  149.1098  139.2968  154.8841 N   0  0  0  0  0  0  0  0  0  0  0  0
  150.3799  138.6486  155.1746 C   0  0  0  0  0  0  0  0  0  0  0  0
  151.2724  138.2267  154.0363 C   0  0  0  0  0  0  0  0  0  0  0  0
  150.5500  137.1831  154.8683 C   0  0  0  0  0  0  0  0  0  0  0  0
  149.2800  140.7353  154.7264 C   0  0  0  0  0  0  0  0  0  0  0  0
  147.9499  141.4294  154.3916 C   0  0  0  0  0  0  0  0  0  0  0  0
  147.3977  140.8513  153.2131 O   0  0  0  0  0  0  0  0  0  0  0  0
  146.1390  135.4014  151.5358 N   0  0  0  0  0  0  0  0  0  0  0  0
  145.3874  134.2054  151.3956 C   0  0  0  0  0  0  0  0  0  0  0  0
  144.1056  134.1589  151.0140 N   0  0  0  0  0  0  0  0  0  0  0  0
  143.6188  132.8500  150.9703 C   0  0  0  0  0  0  0  0  0  0  0  0
  144.5503  131.9055  151.3241 C   0  0  0  0  0  0  0  0  0  0  0  0
  146.0857  132.6267  151.7260 S   0  0  0  0  0  0  0  0  0  0  0  0
  147.6369  137.1601  151.8167 H   0  0  0  0  0  0  0  0  0  0  0  0
  146.9821  139.5184  151.1587 H   0  0  0  0  0  0  0  0  0  0  0  0
  145.4900  139.1917  151.9984 H   0  0  0  0  0  0  0  0  0  0  0  0
  146.4595  139.2745  154.1309 H   0  0  0  0  0  0  0  0  0  0  0  0
  148.3548  137.6862  153.7902 H   0  0  0  0  0  0  0  0  0  0  0  0
  149.2065  138.8746  152.8320 H   0  0  0  0  0  0  0  0  0  0  0  0
  150.8501  139.0411  156.0751 H   0  0  0  0  0  0  0  0  0  0  0  0
  150.9165  138.3937  153.0212 H   0  0  0  0  0  0  0  0  0  0  0  0
  152.3466  138.3267  154.1771 H   0  0  0  0  0  0  0  0  0  0  0  0
  151.1442  136.5918  155.5620 H   0  0  0  0  0  0  0  0  0  0  0  0
  149.7163  136.6602  154.4034 H   0  0  0  0  0  0  0  0  0  0  0  0
  149.6916  141.1610  155.6425 H   0  0  0  0  0  0  0  0  0  0  0  0
  150.0026  140.9402  153.9349 H   0  0  0  0  0  0  0  0  0  0  0  0
  147.2441  141.3343  155.2181 H   0  0  0  0  0  0  0  0  0  0  0  0
  148.1088  142.4948  154.2256 H   0  0  0  0  0  0  0  0  0  0  0  0
  147.1410  135.2822  151.5612 H   0  0  0  0  0  0  0  0  0  0  0  0
  142.5934  132.6808  150.6769 H   0  0  0  0  0  0  0  0  0  0  0  0
  144.4267  130.8337  151.3721 H   0  0  0  0  0  0  0  0  0  0  0  0
  1  2  2  0  0  0  0
  2  3  1  0  0  0  0
  2 14  1  0  0  0  0
  3  4  1  0  0  0  0
  3 20  1  0  0  0  0
  4  5  1  0  0  0  0
  4 21  1  0  0  0  0
  4 22  1  0  0  0  0
  5 13  1  0  0  0  0
  5  6  1  0  0  0  0
  5 23  1  0  0  0  0
  6  7  1  0  0  0  0
  6 24  1  0  0  0  0
  6 25  1  0  0  0  0
  7  8  1  0  0  0  0
  7 11  1  0  0  0  0
  8 10  1  0  0  0  0
  8  9  1  0  0  0  0
  8 26  1  0  0  0  0
  9 10  1  0  0  0  0
  9 27  1  0  0  0  0
  9 28  1  0  0  0  0
 10 29  1  0  0  0  0
 10 30  1  0  0  0  0
 11 12  1  0  0  0  0
 11 31  1  0  0  0  0
 11 32  1  0  0  0  0
 12 13  1  0  0  0  0
 12 33  1  0  0  0  0
 12 34  1  0  0  0  0
 14 15  1  0  0  0  0
 14 35  1  0  0  0  0
 15 19  1  0  0  0  0
 15 16  2  0  0  0  0
 16 17  1  0  0  0  0
 17 18  2  0  0  0  0
 17 36  1  0  0  0  0
 18 19  1  0  0  0  0
 18 37  1  0  0  0  0
M  END
> <s_m_source_file>
AV-unprocessed.smi

> <i_m_source_file_index>
2999

> <i_lp_mmshare_version>
43012

> <i_f3d_flags>
0

> <s_epik_input>
czFbY0hdW2NIXW5jMVtOSF1DKD1PKVtOSF1bQ0gyXVtDQEBIXTJbQ0gyXU4oW0NIMl1bQ0gyXU8yKVtDSF0zW0NIMl1bQ0gyXTM=

> <s_epik_cmdline>
J2VwaWtfcHl0aG9uJywgJy1waCcsICc3LjAnLCAnLXRuJywgJzgnLCAnLW1hJywgJzIwMCcsICctbWV0YWxfYmluZGluZycsICctaW1hZScsICc8aW5maWxlLm1hZT4nLCAnLW9tYWUnLCAnPG91dGZpbGUubWFlPic=

> <r_lp_tautomer_probability>
0.999

> <r_epik_Ionization_Penalty>
0.0449352

> <r_epik_Ionization_Penalty_Charging>
0

> <r_epik_Ionization_Penalty_Neutral>
0.0449352

> <r_epik_State_Penalty>
0.0379856

> <r_epik_Charging_Adjusted_Penalty>
0.0379856

> <i_epik_Tot_Q>
0

> <i_epik_Tot_abs_Q>
0

> <r_epik_Metal_State_Penalty>
0.0775629

> <b_epik_Metal_Only>
0

> <s_lp_Force_Field>
OPLS_2005

> <r_lp_Energy>
30.84

> <b_lp_Chiralities_Consistent>
1

> <s_lp_Variant>
AV-unprocessed.smi:2999-2

> <Gold.Version>
5.8.1

> <Gold.Id.Protein>
6NUR|6NUR_protein|mol2

> <Gold.PLP.Fitness>
37.2858

> <Gold.PLP.PLP>
-29.4505

> <Gold.PLP.part.hbond>
-2.0000

> <Gold.PLP.part.metal>
0.0000

> <Gold.PLP.part.buried>
-4.1510

> <Gold.PLP.part.nonpolar>
-28.7088

> <Gold.PLP.part.repulsive>
4.9300

> <Gold.PLP.ligand.clash>
0.0000

> <Gold.PLP.ligand.torsion>
0.7985

> <Gold.PLP.Chemscore.Hbond>
1.9280

> <Gold.PLP.Chemscore.CHOScore>
0.8531

> <Gold.PLP.Chemscore.Metal>
0.0000

> <Gold.Chemscore.Hbonds>
donor molecule, donor type, donor heavy atom, donor atom, acceptor molecule, acceptor atom, score
      L1  H     3    20       P1  7948  1.00
      L1  H    14    35       P1  7948  0.93
      L1  C    17    36       P1 10186  0.76

> <Gold.PLP.Chemscore.Internal.Correction>
1.0890

> <Gold.Rescore>
     Score         DG    S(hbond)    S(metal)    S(lipo)     H(rot)  DE(clash)    DE(int)     intcor
     14.06     -16.28       1.84        0.00      73.63       1.55       0.15       2.07       ----

> <Gold.Chemscore.Fitness>
14.0556

> <Gold.Chemscore.DG>
-16.2762

> <Gold.Chemscore.ZeroCoef>
-5.4800

> <Gold.Chemscore.Hbond>
1.8384

> <Gold.Chemscore.Metal>
0.0000

> <Gold.Chemscore.Lipo>
73.6261

> <Gold.Chemscore.Internal_Hbond>
0.0000

> <Gold.Chemscore.DEClash>
0.1529

> <Gold.Chemscore.DEInternal>
2.0676

> <Gold.Chemscore.Rot>
1.5463

> <Gold.Chemscore.Internal.Correction>
   9.000000E+99

> <Gold.Chemscore.Hbonds>
donor molecule, donor type, donor heavy atom, donor atom, acceptor molecule, acceptor atom, score
      L1  H     3    20       P1  7948  0.98
      L1  H    14    35       P1  7948  0.81

> <Gold.Chemscore.Hbond.Weighted>
-6.1404

> <Gold.Chemscore.Metal.Weighted>
-0.0000

> <Gold.Chemscore.Lipo.Weighted>
-8.6143

> <Gold.Chemscore.Internal_Hbond.Weighted>
0.0000

> <Gold.Chemscore.DEClash.Weighted>
0.1529

> <Gold.Chemscore.DEInternal.Weighted>
2.0676

> <Gold.Chemscore.Rot.Weighted>
3.9584

> <Gold.Chemscore.Internal.Correction.Weighted>
   9.000000E+99

> <Gold.Protein.RotatedTorsions>
[ 6907 6896 6895 6894 ] final   17.55 input  -60.11 | X-H torsion
[ 7974 7965 7964 7962 ] final -133.73 input  175.53 | X-H torsion
[ 8008 7997 7996 7995 ] final  -43.82 input   59.86 | X-H torsion
[ 10167 10162 10161 10158 ] final  -34.12 input  -65.29 | X-H torsion
[ 10718 10713 10712 10709 ] final   -4.24 input   66.30 | X-H torsion
[ 10763 10752 10751 10750 ] final -155.20 input  -60.55 | X-H torsion
[ 11005 11000 10999 10996 ] final   -6.68 input  -57.11 | X-H torsion

> <Gold.Protein.ActiveResidues>
 VAL166  LYS551  ARG553  GLY616  TRP617  ASP618  TYR619  PRO620  LYS621  CYS622 
 ASP623  PHE694  ASN695  SER759  ASP760  ASP761  ALA762  ILE779  LEU786  VAL792 
 PHE793  MET794  SER795  GLU796  ALA797  LYS798  CYS799  TRP800  GLU811  SER814 

> <Gold.Protein.RotatedAtoms>
  151.8514  135.0556  160.0459 H   0  0  0  0  0  0  0  0  0  0  0  0  # atno 6907 bound_to 6896
  152.2733  133.5398  159.5461 H   0  0  0  0  0  0  0  0  0  0  0  0  # atno 6908 bound_to 6896
  150.7160  134.0583  159.3864 H   0  0  0  0  0  0  0  0  0  0  0  0  # atno 6909 bound_to 6896
  144.9166  140.6962  143.4991 H   0  0  0  0  0  0  0  0  0  0  0  0  # atno 7974 bound_to 7965
  154.3997  140.1438  156.3581 H   0  0  0  0  0  0  0  0  0  0  0  0  # atno 8008 bound_to 7997
  155.8207  140.3469  155.5491 H   0  0  0  0  0  0  0  0  0  0  0  0  # atno 8009 bound_to 7997
  155.8291  140.0909  157.1794 H   0  0  0  0  0  0  0  0  0  0  0  0  # atno 8010 bound_to 7997
  140.7192  143.3571  151.2038 H   0  0  0  0  0  0  0  0  0  0  0  0  # atno 10167 bound_to 10162
  156.7642  130.5279  149.5779 H   0  0  0  0  0  0  0  0  0  0  0  0  # atno 10718 bound_to 10713
  154.7804  135.3173  154.8001 H   0  0  0  0  0  0  0  0  0  0  0  0  # atno 10763 bound_to 10752
  153.8714  135.6844  153.4778 H   0  0  0  0  0  0  0  0  0  0  0  0  # atno 10764 bound_to 10752
  153.1439  135.4727  154.9475 H   0  0  0  0  0  0  0  0  0  0  0  0  # atno 10765 bound_to 10752
  140.7046  133.8960  155.8707 H   0  0  0  0  0  0  0  0  0  0  0  0  # atno 11005 bound_to 11000
  145.3365  139.1744  143.4509 LP  0  0  0  0  0  0  0  0  0  0  0  0  # atno 17320 bound_to 7965
  146.3185  140.3401  142.8647 LP  0  0  0  0  0  0  0  0  0  0  0  0  # atno 17321 bound_to 7965
  139.7114  143.9370  152.2949 LP  0  0  0  0  0  0  0  0  0  0  0  0  # atno 17342 bound_to 10162
  139.9096  144.6864  150.8576 LP  0  0  0  0  0  0  0  0  0  0  0  0  # atno 17343 bound_to 10162
  156.1319  130.6184  151.0346 LP  0  0  0  0  0  0  0  0  0  0  0  0  # atno 17370 bound_to 10713
  157.6721  131.0859  150.7587 LP  0  0  0  0  0  0  0  0  0  0  0  0  # atno 17371 bound_to 10713
  141.0135  134.0987  157.4196 LP  0  0  0  0  0  0  0  0  0  0  0  0  # atno 17394 bound_to 11000
  139.8887  135.0100  156.6639 LP  0  0  0  0  0  0  0  0  0  0  0  0  # atno 17395 bound_to 11000

$$$$
