AV-unprocessed.smi:3286|AV-procd|sdf|12589|dock2
  -GOLD-   2272018513D 1   1.00000     0.00000
 Structure written by MMmdl.
 43 44  0  0  0  0  0  0  0  0  2 V2000
  154.8751  140.1813  160.8778 C   0  0  0  0  0  0  0  0  0  0  0  0
  153.8780  140.9083  160.0001 C   0  0  0  0  0  0  0  0  0  0  0  0
  153.5202  142.2475  160.2640 C   0  0  0  0  0  0  0  0  0  0  0  0
  152.5868  142.8722  159.4150 C   0  0  0  0  0  0  0  0  0  0  0  0
  152.0481  142.1371  158.3386 C   0  0  0  0  0  0  0  0  0  0  0  0
  151.0441  142.7638  157.3918 C   0  0  0  0  0  0  0  0  0  0  0  0
  150.6087  141.7912  156.2883 C   0  0  0  0  0  0  0  0  0  0  0  0
  149.1762  141.9572  155.9701 N   0  3  0  0  0  0  0  0  0  0  0  0
  148.7903  141.5378  154.6032 C   0  0  1  0  0  0  0  0  0  0  0  0
  149.3104  140.1088  154.3710 C   0  0  0  0  0  0  0  0  0  0  0  0
  147.2558  141.6679  154.4134 C   0  0  0  0  0  0  0  0  0  0  0  0
  146.8057  143.1180  154.1388 C   0  0  0  0  0  0  0  0  0  0  0  0
  145.2742  143.2234  154.0500 C   0  0  0  0  0  0  0  0  0  0  0  0
  144.6806  142.7304  155.2443 O   0  0  0  0  0  0  0  0  0  0  0  0
  144.9606  141.3548  155.4676 C   0  0  0  0  0  0  0  0  0  0  0  0
  146.4741  141.1533  155.6414 C   0  0  0  0  0  0  0  0  0  0  0  0
  152.4724  140.8030  158.1629 C   0  0  0  0  0  0  0  0  0  0  0  0
  153.3680  140.1968  158.9708 N   0  0  0  0  0  0  0  0  0  0  0  0
  155.2332  140.8208  161.6851 H   0  0  0  0  0  0  0  0  0  0  0  0
  155.7356  139.8619  160.2895 H   0  0  0  0  0  0  0  0  0  0  0  0
  154.4155  139.2980  161.3221 H   0  0  0  0  0  0  0  0  0  0  0  0
  153.9491  142.7851  161.0971 H   0  0  0  0  0  0  0  0  0  0  0  0
  152.2926  143.8970  159.5883 H   0  0  0  0  0  0  0  0  0  0  0  0
  150.1765  143.0947  157.9645 H   0  0  0  0  0  0  0  0  0  0  0  0
  151.4836  143.6601  156.9516 H   0  0  0  0  0  0  0  0  0  0  0  0
  151.2004  141.9620  155.3879 H   0  0  0  0  0  0  0  0  0  0  0  0
  150.7880  140.7622  156.6038 H   0  0  0  0  0  0  0  0  0  0  0  0
  148.6391  141.4159  156.6323 H   0  0  0  0  0  0  0  0  0  0  0  0
  149.2830  142.1864  153.8763 H   0  0  0  0  0  0  0  0  0  0  0  0
  149.1819  139.7931  153.3359 H   0  0  0  0  0  0  0  0  0  0  0  0
  148.7961  139.3891  155.0091 H   0  0  0  0  0  0  0  0  0  0  0  0
  150.3770  140.0417  154.5886 H   0  0  0  0  0  0  0  0  0  0  0  0
  146.9667  141.0624  153.5525 H   0  0  0  0  0  0  0  0  0  0  0  0
  147.1684  143.7758  154.9298 H   0  0  0  0  0  0  0  0  0  0  0  0
  147.2314  143.4857  153.2054 H   0  0  0  0  0  0  0  0  0  0  0  0
  144.9779  144.2640  153.9154 H   0  0  0  0  0  0  0  0  0  0  0  0
  144.8956  142.6718  153.1880 H   0  0  0  0  0  0  0  0  0  0  0  0
  144.4345  141.0306  156.3660 H   0  0  0  0  0  0  0  0  0  0  0  0
  144.5783  140.7534  154.6411 H   0  0  0  0  0  0  0  0  0  0  0  0
  146.6720  140.0948  155.8111 H   0  0  0  0  0  0  0  0  0  0  0  0
  146.8048  141.6791  156.5381 H   0  0  0  0  0  0  0  0  0  0  0  0
  152.0861  140.2062  157.3497 H   0  0  0  0  0  0  0  0  0  0  0  0
  148.9329  142.9310  156.0825 H   0  0  0  0  0  0  0  0  0  0  0  0
  1  2  1  0  0  0  0
  1 19  1  0  0  0  0
  1 20  1  0  0  0  0
  1 21  1  0  0  0  0
  2 18  1  0  0  0  0
  2  3  2  0  0  0  0
  3  4  1  0  0  0  0
  3 22  1  0  0  0  0
  4  5  2  0  0  0  0
  4 23  1  0  0  0  0
  5  6  1  0  0  0  0
  5 17  1  0  0  0  0
  6  7  1  0  0  0  0
  6 24  1  0  0  0  0
  6 25  1  0  0  0  0
  7  8  1  0  0  0  0
  7 26  1  0  0  0  0
  7 27  1  0  0  0  0
  8  9  1  0  0  0  0
  8 28  1  0  0  0  0
  8 43  1  0  0  0  0
  9 10  1  0  0  0  0
  9 11  1  0  0  0  0
  9 29  1  0  0  0  0
 10 30  1  0  0  0  0
 10 31  1  0  0  0  0
 10 32  1  0  0  0  0
 11 16  1  0  0  0  0
 11 12  1  0  0  0  0
 11 33  1  0  0  0  0
 12 13  1  0  0  0  0
 12 34  1  0  0  0  0
 12 35  1  0  0  0  0
 13 14  1  0  0  0  0
 13 36  1  0  0  0  0
 13 37  1  0  0  0  0
 14 15  1  0  0  0  0
 15 16  1  0  0  0  0
 15 38  1  0  0  0  0
 15 39  1  0  0  0  0
 16 40  1  0  0  0  0
 16 41  1  0  0  0  0
 17 18  2  0  0  0  0
 17 42  1  0  0  0  0
M  CHG  1   8   1
M  END
> <s_m_source_file>
AV-unprocessed.smi

> <i_m_source_file_index>
3286

> <i_lp_mmshare_version>
43012

> <i_f3d_flags>
0

> <s_epik_input>
W0NIM11jMVtjSF1bY0hdYyhbY0hdbjEpW0NIMl1bQ0gyXVtOSF1bQ0BIXShbQ0gzXSlbQ0hdMltDSDJdW0NIMl1PW0NIMl1bQ0gyXTI=

> <s_epik_cmdline>
J2VwaWtfcHl0aG9uJywgJy1waCcsICc3LjAnLCAnLXRuJywgJzgnLCAnLW1hJywgJzIwMCcsICctbWV0YWxfYmluZGluZycsICctaW1hZScsICc8aW5maWxlLm1hZT4nLCAnLW9tYWUnLCAnPG91dGZpbGUubWFlPic=

> <r_lp_tautomer_probability>
1

> <r_epik_Ionization_Penalty>
0.00336271

> <r_epik_Ionization_Penalty_Charging>
0.000752246

> <r_epik_Ionization_Penalty_Neutral>
0.00261046

> <r_epik_State_Penalty>
-0

> <r_epik_Charging_Adjusted_Penalty>
0.000752246

> <i_epik_Tot_Q>
1

> <i_epik_Tot_abs_Q>
1

> <r_epik_Metal_State_Penalty>
-0

> <b_epik_Metal_Only>
0

> <s_lp_Force_Field>
OPLS_2005

> <r_lp_Energy>
16.504

> <b_lp_Chiralities_Consistent>
1

> <s_lp_Variant>
AV-unprocessed.smi:3286-2

> <Gold.Version>
5.8.1

> <Gold.Id.Protein>
6NUR|6NUR_protein|mol2

> <Gold.PLP.Fitness>
42.2933

> <Gold.PLP.PLP>
-37.0524

> <Gold.PLP.part.hbond>
-1.6652

> <Gold.PLP.part.metal>
0.0000

> <Gold.PLP.part.buried>
-1.6037

> <Gold.PLP.part.nonpolar>
-33.5802

> <Gold.PLP.part.repulsive>
0.2423

> <Gold.PLP.ligand.clash>
0.0000

> <Gold.PLP.ligand.torsion>
0.7564

> <Gold.PLP.Chemscore.Hbond>
2.2242

> <Gold.PLP.Chemscore.CHOScore>
0.0000

> <Gold.PLP.Chemscore.Metal>
0.0000

> <Gold.Chemscore.Hbonds>
donor molecule, donor type, donor heavy atom, donor atom, acceptor molecule, acceptor atom, score
      L1  H     8    43       P1  8028  2.00
      P1  H  7997  8010       L1    18  0.16

> <Gold.PLP.Chemscore.Internal.Correction>
0.0811

> <Gold.Rescore>
     Score         DG    S(hbond)    S(metal)    S(lipo)     H(rot)  DE(clash)    DE(int)     intcor
     17.43     -18.34       0.98        0.00     113.23       1.43       0.26       0.65       ----

> <Gold.Chemscore.Fitness>
17.4331

> <Gold.Chemscore.DG>
-18.3448

> <Gold.Chemscore.ZeroCoef>
-5.4800

> <Gold.Chemscore.Hbond>
0.9827

> <Gold.Chemscore.Metal>
0.0000

> <Gold.Chemscore.Lipo>
113.2273

> <Gold.Chemscore.Internal_Hbond>
0.0000

> <Gold.Chemscore.DEClash>
0.2641

> <Gold.Chemscore.DEInternal>
0.6476

> <Gold.Chemscore.Rot>
1.4317

> <Gold.Chemscore.Internal.Correction>
   9.000000E+99

> <Gold.Chemscore.Hbonds>
donor molecule, donor type, donor heavy atom, donor atom, acceptor molecule, acceptor atom, score
      L1  H     8    43       P1  8028  0.99
      P1  H  7997  8010       L1    18  0.01

> <Gold.Chemscore.Hbond.Weighted>
-3.2823

> <Gold.Chemscore.Metal.Weighted>
-0.0000

> <Gold.Chemscore.Lipo.Weighted>
-13.2476

> <Gold.Chemscore.Internal_Hbond.Weighted>
0.0000

> <Gold.Chemscore.DEClash.Weighted>
0.2641

> <Gold.Chemscore.DEInternal.Weighted>
0.6476

> <Gold.Chemscore.Rot.Weighted>
3.6651

> <Gold.Chemscore.Internal.Correction.Weighted>
   9.000000E+99

> <Gold.Protein.RotatedTorsions>
[ 6907 6896 6895 6894 ] final   54.51 input  -60.11 | X-H torsion
[ 7974 7965 7964 7962 ] final   64.91 input  175.53 | X-H torsion
[ 8008 7997 7996 7995 ] final   15.07 input   59.86 | X-H torsion
[ 10167 10162 10161 10158 ] final   13.35 input  -65.29 | X-H torsion
[ 10718 10713 10712 10709 ] final   37.23 input   66.30 | X-H torsion
[ 10763 10752 10751 10750 ] final  -10.34 input  -60.55 | X-H torsion
[ 11005 11000 10999 10996 ] final  -93.15 input  -57.11 | X-H torsion

> <Gold.Protein.ActiveResidues>
 VAL166  LYS551  ARG553  GLY616  TRP617  ASP618  TYR619  PRO620  LYS621  CYS622 
 ASP623  PHE694  ASN695  SER759  ASP760  ASP761  ALA762  ILE779  LEU786  VAL792 
 PHE793  MET794  SER795  GLU796  ALA797  LYS798  CYS799  TRP800  GLU811  SER814 

> <Gold.Protein.RotatedAtoms>
  152.3446  134.7088  160.0253 H   0  0  0  0  0  0  0  0  0  0  0  0  # atno 6907 bound_to 6896
  151.7462  133.3319  159.3387 H   0  0  0  0  0  0  0  0  0  0  0  0  # atno 6908 bound_to 6896
  150.7501  134.6167  159.6159 H   0  0  0  0  0  0  0  0  0  0  0  0  # atno 6909 bound_to 6896
  145.8446  139.3216  143.0911 H   0  0  0  0  0  0  0  0  0  0  0  0  # atno 7974 bound_to 7965
  154.8574  140.2939  155.5560 H   0  0  0  0  0  0  0  0  0  0  0  0  # atno 8008 bound_to 7997
  156.3018  140.2484  156.3475 H   0  0  0  0  0  0  0  0  0  0  0  0  # atno 8009 bound_to 7997
  154.8955  140.0393  157.1852 H   0  0  0  0  0  0  0  0  0  0  0  0  # atno 8010 bound_to 7997
  140.6008  143.8608  150.6963 H   0  0  0  0  0  0  0  0  0  0  0  0  # atno 10167 bound_to 10162
  157.3445  130.7565  149.6934 H   0  0  0  0  0  0  0  0  0  0  0  0  # atno 10718 bound_to 10713
  153.4677  135.7016  153.6012 H   0  0  0  0  0  0  0  0  0  0  0  0  # atno 10763 bound_to 10752
  153.4279  135.3809  155.2152 H   0  0  0  0  0  0  0  0  0  0  0  0  # atno 10764 bound_to 10752
  154.8726  135.3943  154.4111 H   0  0  0  0  0  0  0  0  0  0  0  0  # atno 10765 bound_to 10752
  141.1504  133.7868  157.0119 H   0  0  0  0  0  0  0  0  0  0  0  0  # atno 11005 bound_to 11000
  145.9426  140.8968  143.0300 LP  0  0  0  0  0  0  0  0  0  0  0  0  # atno 17320 bound_to 7965
  144.6732  140.1570  143.7425 LP  0  0  0  0  0  0  0  0  0  0  0  0  # atno 17321 bound_to 7965
  140.2153  143.3851  152.1686 LP  0  0  0  0  0  0  0  0  0  0  0  0  # atno 17342 bound_to 10162
  139.5290  144.7137  151.5125 LP  0  0  0  0  0  0  0  0  0  0  0  0  # atno 17343 bound_to 10162
  155.9712  130.4158  150.4200 LP  0  0  0  0  0  0  0  0  0  0  0  0  # atno 17370 bound_to 10713
  157.2253  131.0492  151.2523 LP  0  0  0  0  0  0  0  0  0  0  0  0  # atno 17371 bound_to 10713
  140.0872  134.9614  157.1719 LP  0  0  0  0  0  0  0  0  0  0  0  0  # atno 17394 bound_to 11000
  140.3495  134.2614  155.7200 LP  0  0  0  0  0  0  0  0  0  0  0  0  # atno 17395 bound_to 11000

$$$$
