AV-unprocessed.smi:682|AV-procd|sdf|3329|dock6
  -GOLD-   22720 0293D 1   1.00000     0.00000
 Structure written by MMmdl.
 41 42  0  0  0  0  0  0  0  0  1 V2000
  143.6848  132.8566  148.5894 C   0  0  0  0  0  0  0  0  0  0  0  0
  144.7418  132.9381  149.5366 O   0  0  0  0  0  0  0  0  0  0  0  0
  144.4110  133.4973  150.8089 C   0  0  2  0  0  0  0  0  0  0  0  0
  143.1229  132.8552  151.3470 C   0  0  0  0  0  0  0  0  0  0  0  0
  144.5038  135.0340  150.8101 C   0  0  0  0  0  0  0  0  0  0  0  0
  145.2060  134.9026  152.1597 C   0  0  2  0  0  0  0  0  0  0  0  0
  146.2653  135.8896  152.3395 N   0  0  0  0  0  0  0  0  0  0  0  0
  146.0888  137.0950  152.8967 C   0  0  0  0  0  0  0  0  0  0  0  0
  145.0027  137.4996  153.3110 O   0  0  0  0  0  0  0  0  0  0  0  0
  147.2400  137.7846  152.9426 N   0  0  0  0  0  0  0  0  0  0  0  0
  147.4400  139.0841  153.4714 C   0  0  0  0  0  0  0  0  0  0  0  0
  148.6580  139.7687  153.7455 C   0  0  0  0  0  0  0  0  0  0  0  0
  148.4234  140.9764  154.2370 N   0  0  0  0  0  0  0  0  0  0  0  0
  147.0733  141.0819  154.2841 N   0  0  0  0  0  0  0  0  0  0  0  0
  146.4752  142.3030  154.7799 C   0  0  0  0  0  0  0  0  0  0  0  0
  146.4429  139.9436  153.8226 C   0  0  0  0  0  0  0  0  0  0  0  0
  145.6885  133.4991  151.7102 C   0  0  0  0  0  0  0  0  0  0  0  0
  145.7600  132.4332  152.8083 C   0  0  0  0  0  0  0  0  0  0  0  0
  147.0410  133.4331  150.9719 C   0  0  0  0  0  0  0  0  0  0  0  0
  144.0861  132.5117  147.6366 H   0  0  0  0  0  0  0  0  0  0  0  0
  143.2150  133.8250  148.4172 H   0  0  0  0  0  0  0  0  0  0  0  0
  142.9192  132.1438  148.8948 H   0  0  0  0  0  0  0  0  0  0  0  0
  142.9209  133.1511  152.3759 H   0  0  0  0  0  0  0  0  0  0  0  0
  143.1842  131.7669  151.3268 H   0  0  0  0  0  0  0  0  0  0  0  0
  142.2488  133.1498  150.7671 H   0  0  0  0  0  0  0  0  0  0  0  0
  145.1418  135.4357  150.0204 H   0  0  0  0  0  0  0  0  0  0  0  0
  143.5442  135.5503  150.8488 H   0  0  0  0  0  0  0  0  0  0  0  0
  144.4919  134.8657  152.9857 H   0  0  0  0  0  0  0  0  0  0  0  0
  147.1897  135.6342  152.0249 H   0  0  0  0  0  0  0  0  0  0  0  0
  148.0582  137.3318  152.5626 H   0  0  0  0  0  0  0  0  0  0  0  0
  149.6804  139.4487  153.6113 H   0  0  0  0  0  0  0  0  0  0  0  0
  145.3911  142.1963  154.8286 H   0  0  0  0  0  0  0  0  0  0  0  0
  146.7206  143.1300  154.1129 H   0  0  0  0  0  0  0  0  0  0  0  0
  146.8542  142.5226  155.7786 H   0  0  0  0  0  0  0  0  0  0  0  0
  145.3675  139.8486  153.7855 H   0  0  0  0  0  0  0  0  0  0  0  0
  146.6460  132.5583  153.4316 H   0  0  0  0  0  0  0  0  0  0  0  0
  145.7931  131.4285  152.3862 H   0  0  0  0  0  0  0  0  0  0  0  0
  144.9012  132.4769  153.4777 H   0  0  0  0  0  0  0  0  0  0  0  0
  147.8770  133.6296  151.6439 H   0  0  0  0  0  0  0  0  0  0  0  0
  147.1067  134.1592  150.1615 H   0  0  0  0  0  0  0  0  0  0  0  0
  147.2065  132.4491  150.5319 H   0  0  0  0  0  0  0  0  0  0  0  0
  1  2  1  0  0  0  0
  1 20  1  0  0  0  0
  1 21  1  0  0  0  0
  1 22  1  0  0  0  0
  2  3  1  0  0  0  0
  3 17  1  0  0  0  0
  3  4  1  0  0  0  0
  3  5  1  0  0  0  0
  4 23  1  0  0  0  0
  4 24  1  0  0  0  0
  4 25  1  0  0  0  0
  5  6  1  0  0  0  0
  5 26  1  0  0  0  0
  5 27  1  0  0  0  0
  6  7  1  0  0  0  0
  6 17  1  0  0  0  0
  6 28  1  0  0  0  0
  7  8  1  0  0  0  0
  7 29  1  0  0  0  0
  8  9  2  0  0  0  0
  8 10  1  0  0  0  0
 10 11  1  0  0  0  0
 10 30  1  0  0  0  0
 11 16  2  0  0  0  0
 11 12  1  0  0  0  0
 12 13  2  0  0  0  0
 12 31  1  0  0  0  0
 13 14  1  0  0  0  0
 14 15  1  0  0  0  0
 14 16  1  0  0  0  0
 15 32  1  0  0  0  0
 15 33  1  0  0  0  0
 15 34  1  0  0  0  0
 16 35  1  0  0  0  0
 17 18  1  0  0  0  0
 17 19  1  0  0  0  0
 18 36  1  0  0  0  0
 18 37  1  0  0  0  0
 18 38  1  0  0  0  0
 19 39  1  0  0  0  0
 19 40  1  0  0  0  0
 19 41  1  0  0  0  0
M  END
> <s_m_source_file>
AV-unprocessed.smi

> <i_m_source_file_index>
682

> <i_lp_mmshare_version>
43012

> <i_f3d_flags>
0

> <s_epik_input>
W0NIM11PW0NAQF0xKFtDSDNdKVtDSDJdW0NASF0oQzEoW0NIM10pW0NIM10pW05IXUMoPU8pW05IXWMyW2NIXW5uKFtDSDNdKVtjSF0y

> <s_epik_cmdline>
J2VwaWtfcHl0aG9uJywgJy1waCcsICc3LjAnLCAnLXRuJywgJzgnLCAnLW1hJywgJzIwMCcsICctbWV0YWxfYmluZGluZycsICctaW1hZScsICc8aW5maWxlLm1hZT4nLCAnLW9tYWUnLCAnPG91dGZpbGUubWFlPic=

> <r_lp_tautomer_probability>
1

> <r_epik_Ionization_Penalty>
0.000192302

> <r_epik_Ionization_Penalty_Charging>
0

> <r_epik_Ionization_Penalty_Neutral>
0.000192302

> <r_epik_State_Penalty>
-0

> <r_epik_Charging_Adjusted_Penalty>
0

> <i_epik_Tot_Q>
0

> <i_epik_Tot_abs_Q>
0

> <r_epik_Metal_State_Penalty>
-0

> <b_epik_Metal_Only>
0

> <s_lp_Force_Field>
OPLS_2005

> <r_lp_Energy>
23.9348

> <b_lp_Chiralities_Consistent>
1

> <s_lp_Variant>
AV-unprocessed.smi:682-4

> <Gold.Version>
5.8.1

> <Gold.Id.Protein>
6NUR|6NUR_protein|mol2

> <Gold.PLP.Fitness>
38.0140

> <Gold.PLP.PLP>
-29.2472

> <Gold.PLP.part.hbond>
-2.0000

> <Gold.PLP.part.metal>
0.0000

> <Gold.PLP.part.buried>
0.0841

> <Gold.PLP.part.nonpolar>
-28.5506

> <Gold.PLP.part.repulsive>
0.7331

> <Gold.PLP.ligand.clash>
0.0000

> <Gold.PLP.ligand.torsion>
0.4407

> <Gold.PLP.Chemscore.Hbond>
1.9120

> <Gold.PLP.Chemscore.CHOScore>
1.1803

> <Gold.PLP.Chemscore.Metal>
0.0000

> <Gold.Chemscore.Hbonds>
donor molecule, donor type, donor heavy atom, donor atom, acceptor molecule, acceptor atom, score
      L1  H     7    29       P1  7948  0.91
      L1  H    10    30       P1  7948  1.00
      L1  C    12    31       P1  7957  0.24
      L1  C    16    35       P1 10175  1.00

> <Gold.PLP.Chemscore.Internal.Correction>
0.3713

> <Gold.Rescore>
     Score         DG    S(hbond)    S(metal)    S(lipo)     H(rot)  DE(clash)    DE(int)     intcor
     15.07     -16.88       1.96        0.00      68.62       1.23       0.00       1.82       ----

> <Gold.Chemscore.Fitness>
15.0650

> <Gold.Chemscore.DG>
-16.8837

> <Gold.Chemscore.ZeroCoef>
-5.4800

> <Gold.Chemscore.Hbond>
1.9562

> <Gold.Chemscore.Metal>
0.0000

> <Gold.Chemscore.Lipo>
68.6171

> <Gold.Chemscore.Internal_Hbond>
0.0000

> <Gold.Chemscore.DEClash>
0.0029

> <Gold.Chemscore.DEInternal>
1.8158

> <Gold.Chemscore.Rot>
1.2336

> <Gold.Chemscore.Internal.Correction>
   9.000000E+99

> <Gold.Chemscore.Hbonds>
donor molecule, donor type, donor heavy atom, donor atom, acceptor molecule, acceptor atom, score
      L1  H     7    29       P1  7948  0.90
      L1  H    10    30       P1  7948  0.96

> <Gold.Chemscore.Hbond.Weighted>
-6.5336

> <Gold.Chemscore.Metal.Weighted>
-0.0000

> <Gold.Chemscore.Lipo.Weighted>
-8.0282

> <Gold.Chemscore.Internal_Hbond.Weighted>
0.0000

> <Gold.Chemscore.DEClash.Weighted>
0.0029

> <Gold.Chemscore.DEInternal.Weighted>
1.8158

> <Gold.Chemscore.Rot.Weighted>
3.1581

> <Gold.Chemscore.Internal.Correction.Weighted>
   9.000000E+99

> <Gold.Protein.RotatedTorsions>
[ 6907 6896 6895 6894 ] final  -57.47 input  -60.11 | X-H torsion
[ 7974 7965 7964 7962 ] final   19.38 input  175.53 | X-H torsion
[ 8008 7997 7996 7995 ] final   51.62 input   59.86 | X-H torsion
[ 10167 10162 10161 10158 ] final  128.22 input  -65.29 | X-H torsion
[ 10718 10713 10712 10709 ] final  124.21 input   66.30 | X-H torsion
[ 10763 10752 10751 10750 ] final  -68.99 input  -60.55 | X-H torsion
[ 11005 11000 10999 10996 ] final -111.20 input  -57.11 | X-H torsion

> <Gold.Protein.ActiveResidues>
 VAL166  LYS551  ARG553  GLY616  TRP617  ASP618  TYR619  PRO620  LYS621  CYS622 
 ASP623  PHE694  ASN695  SER759  ASP760  ASP761  ALA762  ILE779  LEU786  VAL792 
 PHE793  MET794  SER795  GLU796  ALA797  LYS798  CYS799  TRP800  GLU811  SER814 

> <Gold.Protein.RotatedAtoms>
  150.8084  134.7223  159.6664 H   0  0  0  0  0  0  0  0  0  0  0  0  # atno 6907 bound_to 6896
  152.4203  134.5963  159.9998 H   0  0  0  0  0  0  0  0  0  0  0  0  # atno 6908 bound_to 6896
  151.6180  133.3304  159.3118 H   0  0  0  0  0  0  0  0  0  0  0  0  # atno 6909 bound_to 6896
  146.2151  139.8321  142.8658 H   0  0  0  0  0  0  0  0  0  0  0  0  # atno 7974 bound_to 7965
  155.4383  140.3453  155.4287 H   0  0  0  0  0  0  0  0  0  0  0  0  # atno 8008 bound_to 7997
  156.1294  140.1510  156.9118 H   0  0  0  0  0  0  0  0  0  0  0  0  # atno 8009 bound_to 7997
  154.4883  140.0848  156.7517 H   0  0  0  0  0  0  0  0  0  0  0  0  # atno 8010 bound_to 7997
  139.5538  144.6833  151.4243 H   0  0  0  0  0  0  0  0  0  0  0  0  # atno 10167 bound_to 10162
  157.5603  131.1090  150.8550 H   0  0  0  0  0  0  0  0  0  0  0  0  # atno 10718 bound_to 10713
  154.3969  135.6040  153.5875 H   0  0  0  0  0  0  0  0  0  0  0  0  # atno 10763 bound_to 10752
  152.9788  135.5897  154.4230 H   0  0  0  0  0  0  0  0  0  0  0  0  # atno 10764 bound_to 10752
  154.4023  135.2843  155.2067 H   0  0  0  0  0  0  0  0  0  0  0  0  # atno 10765 bound_to 10752
  141.0748  133.9320  157.2412 H   0  0  0  0  0  0  0  0  0  0  0  0  # atno 11005 bound_to 11000
  145.2987  141.0188  143.3621 LP  0  0  0  0  0  0  0  0  0  0  0  0  # atno 17320 bound_to 7965
  144.9023  139.4634  143.6627 LP  0  0  0  0  0  0  0  0  0  0  0  0  # atno 17321 bound_to 7965
  140.6807  143.8089  150.7117 LP  0  0  0  0  0  0  0  0  0  0  0  0  # atno 17342 bound_to 10162
  140.1541  143.4332  152.2111 LP  0  0  0  0  0  0  0  0  0  0  0  0  # atno 17343 bound_to 10162
  156.9050  130.5260  149.5281 LP  0  0  0  0  0  0  0  0  0  0  0  0  # atno 17370 bound_to 10713
  156.0656  130.5700  150.9282 LP  0  0  0  0  0  0  0  0  0  0  0  0  # atno 17371 bound_to 10713
  139.9560  135.0165  156.9129 LP  0  0  0  0  0  0  0  0  0  0  0  0  # atno 17394 bound_to 11000
  140.5597  134.0547  155.7395 LP  0  0  0  0  0  0  0  0  0  0  0  0  # atno 17395 bound_to 11000

$$$$
