AV-unprocessed.smi:3250|AV-procd|sdf|12426|dock8
  -GOLD-   2272018313D 1   1.00000     0.00000
 Structure written by MMmdl.
 39 40  0  0  0  0  0  0  0  0  2 V2000
  144.0731  132.5093  149.7688 C   0  0  0  0  0  0  0  0  0  0  0  0
  144.1464  133.8435  150.5249 C   0  0  0  0  0  0  0  0  0  0  0  0
  145.5125  134.4312  150.5095 N   0  3  2  0  0  0  0  0  0  0  0  0
  146.5481  133.5372  151.0825 C   0  0  0  0  0  0  0  0  0  0  0  0
  146.5064  133.5528  152.6208 C   0  0  0  0  0  0  0  0  0  0  0  0
  146.6608  134.8887  153.0826 O   0  0  0  0  0  0  0  0  0  0  0  0
  145.6078  135.7437  152.6473 C   0  0  1  0  0  0  0  0  0  0  0  0
  145.8415  137.1343  153.2527 C   0  0  0  0  0  0  0  0  0  0  0  0
  147.2246  137.5612  153.1028 N   0  0  0  0  0  0  0  0  0  0  0  0
  147.7050  138.7878  153.5200 C   0  0  0  0  0  0  0  0  0  0  0  0
  146.8347  139.7976  153.4562 N   0  0  0  0  0  0  0  0  0  0  0  0
  147.2728  141.0105  153.8584 C   0  0  0  0  0  0  0  0  0  0  0  0
  148.5878  141.2079  154.3245 C   0  0  0  0  0  0  0  0  0  0  0  0
  149.4233  140.0730  154.3498 C   0  0  0  0  0  0  0  0  0  0  0  0
  150.7226  140.1972  154.7958 O   0  0  0  0  0  0  0  0  0  0  0  0
  151.4708  139.0080  155.0216 C   0  0  0  0  0  0  0  0  0  0  0  0
  148.9720  138.8597  153.9434 N   0  0  0  0  0  0  0  0  0  0  0  0
  145.6156  135.7897  151.1031 C   0  0  0  0  0  0  0  0  0  0  0  0
  143.0871  132.0589  149.8840 H   0  0  0  0  0  0  0  0  0  0  0  0
  144.8064  131.7984  150.1508 H   0  0  0  0  0  0  0  0  0  0  0  0
  144.2473  132.6328  148.7002 H   0  0  0  0  0  0  0  0  0  0  0  0
  143.4129  134.5459  150.1294 H   0  0  0  0  0  0  0  0  0  0  0  0
  143.8560  133.6509  151.5584 H   0  0  0  0  0  0  0  0  0  0  0  0
  146.4383  132.5217  150.7003 H   0  0  0  0  0  0  0  0  0  0  0  0
  147.5255  133.8858  150.7465 H   0  0  0  0  0  0  0  0  0  0  0  0
  145.5765  133.1254  152.9987 H   0  0  0  0  0  0  0  0  0  0  0  0
  147.3189  132.9469  153.0222 H   0  0  0  0  0  0  0  0  0  0  0  0
  144.6505  135.3613  153.0045 H   0  0  0  0  0  0  0  0  0  0  0  0
  145.1793  137.8667  152.7892 H   0  0  0  0  0  0  0  0  0  0  0  0
  145.6045  137.1154  154.3170 H   0  0  0  0  0  0  0  0  0  0  0  0
  147.8655  136.9579  152.6081 H   0  0  0  0  0  0  0  0  0  0  0  0
  146.5699  141.8289  153.8082 H   0  0  0  0  0  0  0  0  0  0  0  0
  148.9365  142.1782  154.6457 H   0  0  0  0  0  0  0  0  0  0  0  0
  152.4691  139.2706  155.3708 H   0  0  0  0  0  0  0  0  0  0  0  0
  151.5829  138.4273  154.1050 H   0  0  0  0  0  0  0  0  0  0  0  0
  151.0064  138.3835  155.7862 H   0  0  0  0  0  0  0  0  0  0  0  0
  146.5519  136.2334  150.7615 H   0  0  0  0  0  0  0  0  0  0  0  0
  144.8237  136.4395  150.7328 H   0  0  0  0  0  0  0  0  0  0  0  0
  145.7441  134.5268  149.5308 H   0  0  0  0  0  0  0  0  0  0  0  0
  1  2  1  0  0  0  0
  1 19  1  0  0  0  0
  1 20  1  0  0  0  0
  1 21  1  0  0  0  0
  2  3  1  0  0  0  0
  2 22  1  0  0  0  0
  2 23  1  0  0  0  0
  3 18  1  0  0  0  0
  3  4  1  0  0  0  0
  3 39  1  0  0  0  0
  4  5  1  0  0  0  0
  4 24  1  0  0  0  0
  4 25  1  0  0  0  0
  5  6  1  0  0  0  0
  5 26  1  0  0  0  0
  5 27  1  0  0  0  0
  6  7  1  0  0  0  0
  7  8  1  0  0  0  0
  7 18  1  0  0  0  0
  7 28  1  0  0  0  0
  8  9  1  0  0  0  0
  8 29  1  0  0  0  0
  8 30  1  0  0  0  0
  9 10  1  0  0  0  0
  9 31  1  0  0  0  0
 10 17  1  0  0  0  0
 10 11  2  0  0  0  0
 11 12  1  0  0  0  0
 12 13  2  0  0  0  0
 12 32  1  0  0  0  0
 13 14  1  0  0  0  0
 13 33  1  0  0  0  0
 14 15  1  0  0  0  0
 14 17  2  0  0  0  0
 15 16  1  0  0  0  0
 16 34  1  0  0  0  0
 16 35  1  0  0  0  0
 16 36  1  0  0  0  0
 18 37  1  0  0  0  0
 18 38  1  0  0  0  0
M  CHG  1   3   1
M  END
> <s_m_source_file>
AV-unprocessed.smi

> <i_m_source_file_index>
3250

> <i_lp_mmshare_version>
43012

> <i_f3d_flags>
0

> <s_epik_input>
W0NIM11bQ0gyXU4xW0NIMl1bQ0gyXU9bQ0BIXShbQ0gyXTEpW0NIMl1bTkhdYzJuW2NIXVtjSF1jKG4yKU9bQ0gzXQ==

> <s_epik_cmdline>
J2VwaWtfcHl0aG9uJywgJy1waCcsICc3LjAnLCAnLXRuJywgJzgnLCAnLW1hJywgJzIwMCcsICctbWV0YWxfYmluZGluZycsICctaW1hZScsICc8aW5maWxlLm1hZT4nLCAnLW9tYWUnLCAnPG91dGZpbGUubWFlPic=

> <r_lp_tautomer_probability>
1

> <r_epik_Ionization_Penalty>
0.19684

> <r_epik_Ionization_Penalty_Charging>
0.178504

> <r_epik_Ionization_Penalty_Neutral>
0.0183356

> <r_epik_State_Penalty>
0.162939

> <r_epik_Charging_Adjusted_Penalty>
0.341443

> <i_epik_Tot_Q>
1

> <i_epik_Tot_abs_Q>
1

> <r_epik_Metal_State_Penalty>
0.1608

> <b_epik_Metal_Only>
0

> <s_lp_Force_Field>
OPLS_2005

> <r_lp_Energy>
11.5983

> <b_lp_Chiralities_Consistent>
1

> <s_lp_Variant>
AV-unprocessed.smi:3250-2

> <Gold.Version>
5.8.1

> <Gold.Id.Protein>
6NUR|6NUR_protein|mol2

> <Gold.PLP.Fitness>
39.7665

> <Gold.PLP.PLP>
-31.5646

> <Gold.PLP.part.hbond>
-3.0000

> <Gold.PLP.part.metal>
0.0000

> <Gold.PLP.part.buried>
-6.5360

> <Gold.PLP.part.nonpolar>
-25.4643

> <Gold.PLP.part.repulsive>
2.2450

> <Gold.PLP.ligand.clash>
0.0000

> <Gold.PLP.ligand.torsion>
0.4126

> <Gold.PLP.Chemscore.Hbond>
3.0000

> <Gold.PLP.Chemscore.CHOScore>
0.0000

> <Gold.PLP.Chemscore.Metal>
0.0000

> <Gold.Chemscore.Hbonds>
donor molecule, donor type, donor heavy atom, donor atom, acceptor molecule, acceptor atom, score
      L1  H     3    39       P1  7921  1.00
      L1  H     9    31       P1  7948  0.93
      P1  H  7989  7998       L1    15  1.00

> <Gold.PLP.Chemscore.Internal.Correction>
0.0272

> <Gold.Rescore>
     Score         DG    S(hbond)    S(metal)    S(lipo)     H(rot)  DE(clash)    DE(int)     intcor
     15.41     -16.03       2.22        0.00      64.10       1.71       0.20       0.42       ----

> <Gold.Chemscore.Fitness>
15.4066

> <Gold.Chemscore.DG>
-16.0250

> <Gold.Chemscore.ZeroCoef>
-5.4800

> <Gold.Chemscore.Hbond>
2.2246

> <Gold.Chemscore.Metal>
0.0000

> <Gold.Chemscore.Lipo>
64.0967

> <Gold.Chemscore.Internal_Hbond>
0.0000

> <Gold.Chemscore.DEClash>
0.2002

> <Gold.Chemscore.DEInternal>
0.4182

> <Gold.Chemscore.Rot>
1.7127

> <Gold.Chemscore.Internal.Correction>
   9.000000E+99

> <Gold.Chemscore.Hbonds>
donor molecule, donor type, donor heavy atom, donor atom, acceptor molecule, acceptor atom, score
      L1  H     3    39       P1  7921  0.81
      L1  H     9    31       P1  7948  0.89
      P1  H  7989  7998       L1    15  0.15

> <Gold.Chemscore.Hbond.Weighted>
-7.4303

> <Gold.Chemscore.Metal.Weighted>
-0.0000

> <Gold.Chemscore.Lipo.Weighted>
-7.4993

> <Gold.Chemscore.Internal_Hbond.Weighted>
0.0000

> <Gold.Chemscore.DEClash.Weighted>
0.2002

> <Gold.Chemscore.DEInternal.Weighted>
0.4182

> <Gold.Chemscore.Rot.Weighted>
4.3846

> <Gold.Chemscore.Internal.Correction.Weighted>
   9.000000E+99

> <Gold.Protein.RotatedTorsions>
[ 6907 6896 6895 6894 ] final    2.37 input  -60.11 | X-H torsion
[ 7974 7965 7964 7962 ] final  -73.83 input  175.53 | X-H torsion
[ 8008 7997 7996 7995 ] final -111.49 input   59.86 | X-H torsion
[ 10167 10162 10161 10158 ] final  -71.20 input  -65.29 | X-H torsion
[ 10718 10713 10712 10709 ] final   47.59 input   66.30 | X-H torsion
[ 10763 10752 10751 10750 ] final   84.39 input  -60.55 | X-H torsion
[ 11005 11000 10999 10996 ] final  -60.06 input  -57.11 | X-H torsion

> <Gold.Protein.ActiveResidues>
 VAL166  LYS551  ARG553  GLY616  TRP617  ASP618  TYR619  PRO620  LYS621  CYS622 
 ASP623  PHE694  ASN695  SER759  ASP760  ASP761  ALA762  ILE779  LEU786  VAL792 
 PHE793  MET794  SER795  GLU796  ALA797  LYS798  CYS799  TRP800  GLU811  SER814 

> <Gold.Protein.RotatedAtoms>
  151.6078  135.1042  160.0074 H   0  0  0  0  0  0  0  0  0  0  0  0  # atno 6907 bound_to 6896
  152.4224  133.7134  159.6503 H   0  0  0  0  0  0  0  0  0  0  0  0  # atno 6908 bound_to 6896
  150.8112  133.8346  159.3203 H   0  0  0  0  0  0  0  0  0  0  0  0  # atno 6909 bound_to 6896
  145.6470  140.9294  143.1005 H   0  0  0  0  0  0  0  0  0  0  0  0  # atno 7974 bound_to 7965
  154.9906  140.0395  157.2318 H   0  0  0  0  0  0  0  0  0  0  0  0  # atno 8008 bound_to 7997
  154.7632  140.2788  155.6174 H   0  0  0  0  0  0  0  0  0  0  0  0  # atno 8009 bound_to 7997
  156.2908  140.2624  156.2416 H   0  0  0  0  0  0  0  0  0  0  0  0  # atno 8010 bound_to 7997
  140.5292  143.2323  151.7292 H   0  0  0  0  0  0  0  0  0  0  0  0  # atno 10167 bound_to 10162
  157.4600  130.8191  149.7877 H   0  0  0  0  0  0  0  0  0  0  0  0  # atno 10718 bound_to 10713
  153.1378  135.4656  154.9448 H   0  0  0  0  0  0  0  0  0  0  0  0  # atno 10763 bound_to 10752
  154.7721  135.3162  154.8171 H   0  0  0  0  0  0  0  0  0  0  0  0  # atno 10764 bound_to 10752
  153.8700  135.6904  153.4829 H   0  0  0  0  0  0  0  0  0  0  0  0  # atno 10765 bound_to 10752
  141.1273  133.6620  156.5166 H   0  0  0  0  0  0  0  0  0  0  0  0  # atno 11005 bound_to 11000
  144.7136  139.8278  143.7406 LP  0  0  0  0  0  0  0  0  0  0  0  0  # atno 17320 bound_to 7965
  146.1234  139.4256  143.0214 LP  0  0  0  0  0  0  0  0  0  0  0  0  # atno 17321 bound_to 7965
  139.4948  144.4139  152.0050 LP  0  0  0  0  0  0  0  0  0  0  0  0  # atno 17342 bound_to 10162
  140.3241  144.3394  150.6002 LP  0  0  0  0  0  0  0  0  0  0  0  0  # atno 17343 bound_to 10162
  156.0024  130.3873  150.2554 LP  0  0  0  0  0  0  0  0  0  0  0  0  # atno 17370 bound_to 10713
  157.0731  131.0122  151.3183 LP  0  0  0  0  0  0  0  0  0  0  0  0  # atno 17371 bound_to 10713
  140.4325  134.7088  157.4949 LP  0  0  0  0  0  0  0  0  0  0  0  0  # atno 17394 bound_to 11000
  140.0284  134.6443  155.9141 LP  0  0  0  0  0  0  0  0  0  0  0  0  # atno 17395 bound_to 11000

$$$$
