AV-unprocessed.smi:2711|AV-procd|sdf|10472|dock5
  -GOLD-   2272014513D 1   1.00000     0.00000
 Structure written by MMmdl.
 34 35  0  0  0  0  0  0  0  0  1 V2000
  142.7996  143.7380  161.4091 C   0  0  0  0  0  0  0  0  0  0  0  0
  144.2701  143.9374  161.2617 C   0  0  0  0  0  0  0  0  0  0  0  0
  145.2572  143.5901  162.1521 C   0  0  0  0  0  0  0  0  0  0  0  0
  146.5465  143.9118  161.7218 N   0  0  0  0  0  0  0  0  0  0  0  0
  146.5421  144.4949  160.5184 C   0  0  0  0  0  0  0  0  0  0  0  0
  147.7076  144.9299  159.8341 N   0  0  0  0  0  0  0  0  0  0  0  0
  148.9920  144.7814  160.2030 C   0  0  0  0  0  0  0  0  0  0  0  0
  149.3779  144.2267  161.2325 O   0  0  0  0  0  0  0  0  0  0  0  0
  149.8233  145.3175  159.2967 N   0  0  0  0  0  0  0  0  0  0  0  0
  151.2827  145.3022  159.3826 C   0  0  0  0  0  0  0  0  0  0  0  0
  151.8937  143.9050  159.1660 C   0  0  0  0  0  0  0  0  0  0  0  0
  151.8762  143.3929  158.0450 O   0  0  0  0  0  0  0  0  0  0  0  0
  152.4511  143.2833  160.2259 N   0  0  0  0  0  0  0  0  0  0  0  0
  153.0762  141.9606  160.2110 C   0  0  0  0  0  0  0  0  0  0  0  0
  153.7129  141.7859  161.5906 C   0  0  0  0  0  0  0  0  0  0  0  0
  152.9124  142.7136  162.4938 C   0  0  0  0  0  0  0  0  0  0  0  0
  152.4836  143.8543  161.5711 C   0  0  0  0  0  0  0  0  0  0  0  0
  144.9362  144.6875  159.8332 S   0  0  0  0  0  0  0  0  0  0  0  0
  142.5381  143.4956  162.4397 H   0  0  0  0  0  0  0  0  0  0  0  0
  142.4549  142.9227  160.7729 H   0  0  0  0  0  0  0  0  0  0  0  0
  142.2551  144.6397  161.1282 H   0  0  0  0  0  0  0  0  0  0  0  0
  145.1325  143.1124  163.1126 H   0  0  0  0  0  0  0  0  0  0  0  0
  147.5442  145.4036  158.9581 H   0  0  0  0  0  0  0  0  0  0  0  0
  149.4216  145.7486  158.4773 H   0  0  0  0  0  0  0  0  0  0  0  0
  151.6723  145.9777  158.6208 H   0  0  0  0  0  0  0  0  0  0  0  0
  151.5943  145.7015  160.3490 H   0  0  0  0  0  0  0  0  0  0  0  0
  152.3083  141.2036  160.0466 H   0  0  0  0  0  0  0  0  0  0  0  0
  153.8265  141.8637  159.4255 H   0  0  0  0  0  0  0  0  0  0  0  0
  153.7037  140.7507  161.9330 H   0  0  0  0  0  0  0  0  0  0  0  0
  154.7517  142.1171  161.5577 H   0  0  0  0  0  0  0  0  0  0  0  0
  152.0289  142.1902  162.8619 H   0  0  0  0  0  0  0  0  0  0  0  0
  153.4806  143.0588  163.3582 H   0  0  0  0  0  0  0  0  0  0  0  0
  153.2157  144.6628  161.5936 H   0  0  0  0  0  0  0  0  0  0  0  0
  151.5173  144.2633  161.8708 H   0  0  0  0  0  0  0  0  0  0  0  0
  1  2  1  0  0  0  0
  1 19  1  0  0  0  0
  1 20  1  0  0  0  0
  1 21  1  0  0  0  0
  2 18  1  0  0  0  0
  2  3  2  0  0  0  0
  3  4  1  0  0  0  0
  3 22  1  0  0  0  0
  4  5  2  0  0  0  0
  5  6  1  0  0  0  0
  5 18  1  0  0  0  0
  6  7  1  0  0  0  0
  6 23  1  0  0  0  0
  7  8  2  0  0  0  0
  7  9  1  0  0  0  0
  9 10  1  0  0  0  0
  9 24  1  0  0  0  0
 10 11  1  0  0  0  0
 10 25  1  0  0  0  0
 10 26  1  0  0  0  0
 11 12  2  0  0  0  0
 11 13  1  0  0  0  0
 13 17  1  0  0  0  0
 13 14  1  0  0  0  0
 14 15  1  0  0  0  0
 14 27  1  0  0  0  0
 14 28  1  0  0  0  0
 15 16  1  0  0  0  0
 15 29  1  0  0  0  0
 15 30  1  0  0  0  0
 16 17  1  0  0  0  0
 16 31  1  0  0  0  0
 16 32  1  0  0  0  0
 17 33  1  0  0  0  0
 17 34  1  0  0  0  0
M  END
> <s_m_source_file>
AV-unprocessed.smi

> <i_m_source_file_index>
2711

> <i_lp_mmshare_version>
43012

> <i_f3d_flags>
0

> <s_epik_input>
W0NIM11jMVtjSF1uYyhzMSlbTkhdQyg9TylbTkhdW0NIMl1DKD1PKU4yW0NIMl1bQ0gyXVtDSDJdW0NIMl0y

> <s_epik_cmdline>
J2VwaWtfcHl0aG9uJywgJy1waCcsICc3LjAnLCAnLXRuJywgJzgnLCAnLW1hJywgJzIwMCcsICctbWV0YWxfYmluZGluZycsICctaW1hZScsICc8aW5maWxlLm1hZT4nLCAnLW9tYWUnLCAnPG91dGZpbGUubWFlPic=

> <r_lp_tautomer_probability>
1

> <r_epik_Ionization_Penalty>
0.000145478

> <r_epik_Ionization_Penalty_Charging>
0

> <r_epik_Ionization_Penalty_Neutral>
0.000145478

> <r_epik_State_Penalty>
-0

> <r_epik_Charging_Adjusted_Penalty>
0

> <i_epik_Tot_Q>
0

> <i_epik_Tot_abs_Q>
0

> <r_epik_Metal_State_Penalty>
0.0331427

> <b_epik_Metal_Only>
0

> <s_lp_Force_Field>
OPLS_2005

> <r_lp_Energy>
22.8553

> <b_lp_Chiralities_Consistent>
1

> <s_lp_Variant>
AV-unprocessed.smi:2711-1

> <Gold.Version>
5.8.1

> <Gold.Id.Protein>
6NUR|6NUR_protein|mol2

> <Gold.PLP.Fitness>
52.5455

> <Gold.PLP.PLP>
-45.6385

> <Gold.PLP.part.hbond>
-3.0000

> <Gold.PLP.part.metal>
0.0000

> <Gold.PLP.part.buried>
-8.1795

> <Gold.PLP.part.nonpolar>
-34.7340

> <Gold.PLP.part.repulsive>
0.7437

> <Gold.PLP.ligand.clash>
0.0000

> <Gold.PLP.ligand.torsion>
0.1560

> <Gold.PLP.Chemscore.Hbond>
2.4056

> <Gold.PLP.Chemscore.CHOScore>
0.0000

> <Gold.PLP.Chemscore.Metal>
0.0000

> <Gold.Chemscore.Hbonds>
donor molecule, donor type, donor heavy atom, donor atom, acceptor molecule, acceptor atom, score
      L1  H     6    23       P1  8029  1.00
      L1  H     9    24       P1  8029  0.99
      P1  H  6933  6944       L1     8  0.41

> <Gold.PLP.Chemscore.Internal.Correction>
0.0021

> <Gold.Rescore>
     Score         DG    S(hbond)    S(metal)    S(lipo)     H(rot)  DE(clash)    DE(int)     intcor
     18.22     -19.63       2.29        0.00      84.57       1.32       0.00       1.41       ----

> <Gold.Chemscore.Fitness>
18.2182

> <Gold.Chemscore.DG>
-19.6270

> <Gold.Chemscore.ZeroCoef>
-5.4800

> <Gold.Chemscore.Hbond>
2.2862

> <Gold.Chemscore.Metal>
0.0000

> <Gold.Chemscore.Lipo>
84.5739

> <Gold.Chemscore.Internal_Hbond>
0.0000

> <Gold.Chemscore.DEClash>
0.0000

> <Gold.Chemscore.DEInternal>
1.4088

> <Gold.Chemscore.Rot>
1.3219

> <Gold.Chemscore.Internal.Correction>
   9.000000E+99

> <Gold.Chemscore.Hbonds>
donor molecule, donor type, donor heavy atom, donor atom, acceptor molecule, acceptor atom, score
      L1  H     6    23       P1  8029  0.99
      L1  H     9    24       P1  8029  0.89
      P1  H  6933  6944       L1     8  0.30

> <Gold.Chemscore.Hbond.Weighted>
-7.6360

> <Gold.Chemscore.Metal.Weighted>
-0.0000

> <Gold.Chemscore.Lipo.Weighted>
-9.8951

> <Gold.Chemscore.Internal_Hbond.Weighted>
0.0000

> <Gold.Chemscore.DEClash.Weighted>
0.0000

> <Gold.Chemscore.DEInternal.Weighted>
1.4088

> <Gold.Chemscore.Rot.Weighted>
3.3841

> <Gold.Chemscore.Internal.Correction.Weighted>
   9.000000E+99

> <Gold.Protein.RotatedTorsions>
[ 6907 6896 6895 6894 ] final -143.83 input  -60.11 | X-H torsion
[ 7974 7965 7964 7962 ] final  -43.09 input  175.53 | X-H torsion
[ 8008 7997 7996 7995 ] final   41.27 input   59.86 | X-H torsion
[ 10167 10162 10161 10158 ] final  -60.58 input  -65.29 | X-H torsion
[ 10718 10713 10712 10709 ] final   54.57 input   66.30 | X-H torsion
[ 10763 10752 10751 10750 ] final -176.27 input  -60.55 | X-H torsion
[ 11005 11000 10999 10996 ] final  120.15 input  -57.11 | X-H torsion

> <Gold.Protein.ActiveResidues>
 VAL166  LYS551  ARG553  GLY616  TRP617  ASP618  TYR619  PRO620  LYS621  CYS622 
 ASP623  PHE694  ASN695  SER759  ASP760  ASP761  ALA762  ILE779  LEU786  VAL792 
 PHE793  MET794  SER795  GLU796  ALA797  LYS798  CYS799  TRP800  GLU811  SER814 

> <Gold.Protein.RotatedAtoms>
  151.1058  133.5210  159.2607 H   0  0  0  0  0  0  0  0  0  0  0  0  # atno 6907 bound_to 6896
  151.2023  135.0447  159.8887 H   0  0  0  0  0  0  0  0  0  0  0  0  # atno 6908 bound_to 6896
  152.5446  134.0884  159.8319 H   0  0  0  0  0  0  0  0  0  0  0  0  # atno 6909 bound_to 6896
  146.0053  140.7027  142.9251 H   0  0  0  0  0  0  0  0  0  0  0  0  # atno 7974 bound_to 7965
  155.2669  140.3363  155.4268 H   0  0  0  0  0  0  0  0  0  0  0  0  # atno 8008 bound_to 7997
  156.2150  140.1785  156.7652 H   0  0  0  0  0  0  0  0  0  0  0  0  # atno 8009 bound_to 7997
  154.5740  140.0665  156.8991 H   0  0  0  0  0  0  0  0  0  0  0  0  # atno 8010 bound_to 7997
  140.6062  143.2374  151.5816 H   0  0  0  0  0  0  0  0  0  0  0  0  # atno 10167 bound_to 10162
  157.5268  130.8603  149.8633 H   0  0  0  0  0  0  0  0  0  0  0  0  # atno 10718 bound_to 10713
  154.5744  135.2830  155.0796 H   0  0  0  0  0  0  0  0  0  0  0  0  # atno 10763 bound_to 10752
  154.2156  135.6400  153.5132 H   0  0  0  0  0  0  0  0  0  0  0  0  # atno 10764 bound_to 10752
  153.0067  135.5502  154.6377 H   0  0  0  0  0  0  0  0  0  0  0  0  # atno 10765 bound_to 10752
  139.9174  134.9633  156.7764 H   0  0  0  0  0  0  0  0  0  0  0  0  # atno 11005 bound_to 11000
  144.6933  140.3304  143.7217 LP  0  0  0  0  0  0  0  0  0  0  0  0  # atno 17320 bound_to 7965
  145.7426  139.1769  143.2367 LP  0  0  0  0  0  0  0  0  0  0  0  0  # atno 17321 bound_to 7965
  139.5326  144.2871  152.1182 LP  0  0  0  0  0  0  0  0  0  0  0  0  # atno 17342 bound_to 10162
  140.2061  144.4609  150.6408 LP  0  0  0  0  0  0  0  0  0  0  0  0  # atno 17343 bound_to 10162
  156.0393  130.3743  150.1477 LP  0  0  0  0  0  0  0  0  0  0  0  0  # atno 17370 bound_to 10713
  156.9663  130.9821  151.3468 LP  0  0  0  0  0  0  0  0  0  0  0  0  # atno 17371 bound_to 10713
  140.6580  133.9671  155.7789 LP  0  0  0  0  0  0  0  0  0  0  0  0  # atno 17394 bound_to 11000
  141.0663  134.0272  157.3589 LP  0  0  0  0  0  0  0  0  0  0  0  0  # atno 17395 bound_to 11000

$$$$
