AV-unprocessed.smi:1785|AV-procd|sdf|7200|dock2
  -GOLD-   22720 8443D 1   1.00000     0.00000
 Structure written by MMmdl.
 28 29  0  0  0  0  0  0  0  0  1 V2000
  152.9585  143.0542  161.7930 C   0  0  0  0  0  0  0  0  0  0  0  0
  152.3706  143.3244  160.4172 C   0  0  0  0  0  0  0  0  0  0  0  0
  151.8931  144.6167  160.1122 C   0  0  0  0  0  0  0  0  0  0  0  0
  151.3500  144.8646  158.8400 C   0  0  0  0  0  0  0  0  0  0  0  0
  151.3077  143.8026  157.9206 C   0  0  0  0  0  0  0  0  0  0  0  0
  151.7621  142.5647  158.2033 N   0  0  0  0  0  0  0  0  0  0  0  0
  152.2889  142.3083  159.4272 C   0  0  0  0  0  0  0  0  0  0  0  0
  152.7871  141.0276  159.7974 N   0  0  0  0  0  0  0  0  0  0  0  0
  153.0614  139.9659  159.0141 C   0  0  0  0  0  0  0  0  0  0  0  0
  152.9104  139.9539  157.7911 O   0  0  0  0  0  0  0  0  0  0  0  0
  153.5550  138.8419  159.8006 C   0  0  0  0  0  0  0  0  0  0  0  0
  153.3144  137.5781  159.3807 C   0  0  0  0  0  0  0  0  0  0  0  0
  153.7023  136.4580  160.0727 O   0  0  0  0  0  0  0  0  0  0  0  0
  154.1538  136.7070  161.3986 C   0  0  0  0  0  0  0  0  0  0  0  0
  155.0253  137.9707  161.4380 C   0  0  0  0  0  0  0  0  0  0  0  0
  154.2977  139.0865  160.9355 O   0  0  0  0  0  0  0  0  0  0  0  0
  152.9251  143.9448  162.4213 H   0  0  0  0  0  0  0  0  0  0  0  0
  154.0000  142.7427  161.7079 H   0  0  0  0  0  0  0  0  0  0  0  0
  152.4004  142.2664  162.2998 H   0  0  0  0  0  0  0  0  0  0  0  0
  151.9409  145.4111  160.8426 H   0  0  0  0  0  0  0  0  0  0  0  0
  150.9755  145.8426  158.5763 H   0  0  0  0  0  0  0  0  0  0  0  0
  150.8983  143.9499  156.9322 H   0  0  0  0  0  0  0  0  0  0  0  0
  152.9568  140.8984  160.7841 H   0  0  0  0  0  0  0  0  0  0  0  0
  152.7615  137.3199  158.4887 H   0  0  0  0  0  0  0  0  0  0  0  0
  153.2908  136.8196  162.0564 H   0  0  0  0  0  0  0  0  0  0  0  0
  154.7168  135.8431  161.7523 H   0  0  0  0  0  0  0  0  0  0  0  0
  155.3440  138.1831  162.4586 H   0  0  0  0  0  0  0  0  0  0  0  0
  155.9281  137.8315  160.8415 H   0  0  0  0  0  0  0  0  0  0  0  0
  1  2  1  0  0  0  0
  1 17  1  0  0  0  0
  1 18  1  0  0  0  0
  1 19  1  0  0  0  0
  2  7  1  0  0  0  0
  2  3  2  0  0  0  0
  3  4  1  0  0  0  0
  3 20  1  0  0  0  0
  4  5  2  0  0  0  0
  4 21  1  0  0  0  0
  5  6  1  0  0  0  0
  5 22  1  0  0  0  0
  6  7  2  0  0  0  0
  7  8  1  0  0  0  0
  8  9  1  0  0  0  0
  8 23  1  0  0  0  0
  9 10  2  0  0  0  0
  9 11  1  0  0  0  0
 11 16  1  0  0  0  0
 11 12  2  0  0  0  0
 12 13  1  0  0  0  0
 12 24  1  0  0  0  0
 13 14  1  0  0  0  0
 14 15  1  0  0  0  0
 14 25  1  0  0  0  0
 14 26  1  0  0  0  0
 15 16  1  0  0  0  0
 15 27  1  0  0  0  0
 15 28  1  0  0  0  0
M  END
> <s_m_source_file>
AV-unprocessed.smi

> <i_m_source_file_index>
1785

> <i_lp_mmshare_version>
43012

> <i_f3d_flags>
0

> <s_epik_input>
W0NIM11jMVtjSF1bY0hdW2NIXW5jMVtOSF1DKD1PKUMyPVtDSF1PW0NIMl1bQ0gyXU8y

> <s_epik_cmdline>
J2VwaWtfcHl0aG9uJywgJy1waCcsICc3LjAnLCAnLXRuJywgJzgnLCAnLW1hJywgJzIwMCcsICctbWV0YWxfYmluZGluZycsICctaW1hZScsICc8aW5maWxlLm1hZT4nLCAnLW9tYWUnLCAnPG91dGZpbGUubWFlPic=

> <r_lp_tautomer_probability>
1

> <r_epik_Ionization_Penalty>
8.87723e-05

> <r_epik_Ionization_Penalty_Charging>
0

> <r_epik_Ionization_Penalty_Neutral>
8.87723e-05

> <r_epik_State_Penalty>
-0

> <r_epik_Charging_Adjusted_Penalty>
0

> <i_epik_Tot_Q>
0

> <i_epik_Tot_abs_Q>
0

> <r_epik_Metal_State_Penalty>
0.0224094

> <b_epik_Metal_Only>
0

> <s_lp_Force_Field>
OPLS_2005

> <r_lp_Energy>
4.55211

> <b_lp_Chiralities_Consistent>
1

> <s_lp_Variant>
AV-unprocessed.smi:1785-1

> <Gold.Version>
5.8.1

> <Gold.Id.Protein>
6NUR|6NUR_protein|mol2

> <Gold.PLP.Fitness>
41.5385

> <Gold.PLP.PLP>
-33.5634

> <Gold.PLP.part.hbond>
-1.9777

> <Gold.PLP.part.metal>
0.0000

> <Gold.PLP.part.buried>
-4.6249

> <Gold.PLP.part.nonpolar>
-27.3717

> <Gold.PLP.part.repulsive>
0.1519

> <Gold.PLP.ligand.clash>
0.0000

> <Gold.PLP.ligand.torsion>
0.4449

> <Gold.PLP.Chemscore.Hbond>
1.9913

> <Gold.PLP.Chemscore.CHOScore>
0.9633

> <Gold.PLP.Chemscore.Metal>
0.0000

> <Gold.Chemscore.Hbonds>
donor molecule, donor type, donor heavy atom, donor atom, acceptor molecule, acceptor atom, score
      P1  H  6896  6907       L1    13  0.75
      P1  H  7997  8010       L1    10  1.00
      L1  C     5    22       P1  8028  1.00

> <Gold.PLP.Chemscore.Internal.Correction>
0.0012

> <Gold.Rescore>
     Score         DG    S(hbond)    S(metal)    S(lipo)     H(rot)  DE(clash)    DE(int)     intcor
     20.07     -21.85       1.90        0.00      85.68       0.00       0.03       1.75       ----

> <Gold.Chemscore.Fitness>
20.0745

> <Gold.Chemscore.DG>
-21.8508

> <Gold.Chemscore.ZeroCoef>
-5.4800

> <Gold.Chemscore.Hbond>
1.9002

> <Gold.Chemscore.Metal>
0.0000

> <Gold.Chemscore.Lipo>
85.6768

> <Gold.Chemscore.Internal_Hbond>
0.0000

> <Gold.Chemscore.DEClash>
0.0257

> <Gold.Chemscore.DEInternal>
1.7505

> <Gold.Chemscore.Rot>
0.0000

> <Gold.Chemscore.Internal.Correction>
   9.000000E+99

> <Gold.Chemscore.Hbonds>
donor molecule, donor type, donor heavy atom, donor atom, acceptor molecule, acceptor atom, score
      P1  H  6896  6907       L1    13  0.54
      P1  H  7997  8010       L1    10  0.62

> <Gold.Chemscore.Hbond.Weighted>
-6.3466

> <Gold.Chemscore.Metal.Weighted>
-0.0000

> <Gold.Chemscore.Lipo.Weighted>
-10.0242

> <Gold.Chemscore.Internal_Hbond.Weighted>
0.0000

> <Gold.Chemscore.DEClash.Weighted>
0.0257

> <Gold.Chemscore.DEInternal.Weighted>
1.7505

> <Gold.Chemscore.Rot.Weighted>
0.0000

> <Gold.Chemscore.Internal.Correction.Weighted>
   9.000000E+99

> <Gold.Protein.RotatedTorsions>
[ 6907 6896 6895 6894 ] final   49.08 input  -60.11 | X-H torsion
[ 7974 7965 7964 7962 ] final  -97.56 input  175.53 | X-H torsion
[ 8008 7997 7996 7995 ] final   34.28 input   59.86 | X-H torsion
[ 10167 10162 10161 10158 ] final  -47.65 input  -65.29 | X-H torsion
[ 10718 10713 10712 10709 ] final  147.61 input   66.30 | X-H torsion
[ 10763 10752 10751 10750 ] final  -74.14 input  -60.55 | X-H torsion
[ 11005 11000 10999 10996 ] final  156.77 input  -57.11 | X-H torsion

> <Gold.Protein.ActiveResidues>
 VAL166  LYS551  ARG553  GLY616  TRP617  ASP618  TYR619  PRO620  LYS621  CYS622 
 ASP623  PHE694  ASN695  SER759  ASP760  ASP761  ALA762  ILE779  LEU786  VAL792 
 PHE793  MET794  SER795  GLU796  ALA797  LYS798  CYS799  TRP800  GLU811  SER814 

> <Gold.Protein.RotatedAtoms>
  152.2867  134.7768  160.0385 H   0  0  0  0  0  0  0  0  0  0  0  0  # atno 6907 bound_to 6896
  151.8328  133.3406  159.3627 H   0  0  0  0  0  0  0  0  0  0  0  0  # atno 6908 bound_to 6896
  150.7212  134.5395  159.5784 H   0  0  0  0  0  0  0  0  0  0  0  0  # atno 6909 bound_to 6896
  145.3321  140.9443  143.2655 H   0  0  0  0  0  0  0  0  0  0  0  0  # atno 7974 bound_to 7965
  155.1523  140.3276  155.4428 H   0  0  0  0  0  0  0  0  0  0  0  0  # atno 8008 bound_to 7997
  156.2570  140.1974  156.6585 H   0  0  0  0  0  0  0  0  0  0  0  0  # atno 8009 bound_to 7997
  154.6464  140.0564  156.9891 H   0  0  0  0  0  0  0  0  0  0  0  0  # atno 8010 bound_to 7997
  140.6766  143.2775  151.3957 H   0  0  0  0  0  0  0  0  0  0  0  0  # atno 10167 bound_to 10162
  157.3188  131.0900  151.1257 H   0  0  0  0  0  0  0  0  0  0  0  0  # atno 10718 bound_to 10713
  154.4691  135.5874  153.6309 H   0  0  0  0  0  0  0  0  0  0  0  0  # atno 10763 bound_to 10752
  152.9832  135.6062  154.3390 H   0  0  0  0  0  0  0  0  0  0  0  0  # atno 10764 bound_to 10752
  154.3270  135.2843  155.2470 H   0  0  0  0  0  0  0  0  0  0  0  0  # atno 10765 bound_to 10752
  140.1706  134.8545  157.2686 H   0  0  0  0  0  0  0  0  0  0  0  0  # atno 11005 bound_to 11000
  144.8856  139.4844  143.6702 LP  0  0  0  0  0  0  0  0  0  0  0  0  # atno 17320 bound_to 7965
  146.3041  139.7522  142.9069 LP  0  0  0  0  0  0  0  0  0  0  0  0  # atno 17321 bound_to 7965
  139.6062  144.1193  152.2251 LP  0  0  0  0  0  0  0  0  0  0  0  0  # atno 17342 bound_to 10162
  140.0592  144.5870  150.7276 LP  0  0  0  0  0  0  0  0  0  0  0  0  # atno 17343 bound_to 10162
  157.2550  130.6632  149.5948 LP  0  0  0  0  0  0  0  0  0  0  0  0  # atno 17370 bound_to 10713
  155.9684  130.4526  150.5781 LP  0  0  0  0  0  0  0  0  0  0  0  0  # atno 17371 bound_to 10713
  140.2381  134.3828  155.7492 LP  0  0  0  0  0  0  0  0  0  0  0  0  # atno 17394 bound_to 11000
  141.2217  133.7251  156.8747 LP  0  0  0  0  0  0  0  0  0  0  0  0  # atno 17395 bound_to 11000

$$$$
