AV-unprocessed.smi:3168|AV-procd|sdf|12102|dock5
  -GOLD-   2272017533D 1   1.00000     0.00000
 Structure written by MMmdl.
 33 34  0  0  0  0  0  0  0  0  1 V2000
  151.0059  138.1757  154.1626 C   0  0  0  0  0  0  0  0  0  0  0  0
  150.4508  138.9476  155.3775 C   0  0  1  0  0  0  0  0  0  0  0  0
  151.5535  139.5686  156.2554 C   0  0  0  0  0  0  0  0  0  0  0  0
  152.7133  139.6489  155.8487 O   0  0  0  0  0  0  0  0  0  0  0  0
  151.1791  139.9920  157.4736 N   0  0  0  0  0  0  0  0  0  0  0  0
  152.0632  140.5952  158.4634 C   0  0  0  0  0  0  0  0  0  0  0  0
  151.6013  142.0115  158.8424 C   0  0  1  0  0  0  0  0  0  0  0  0
  152.5806  142.7539  159.7490 C   0  0  0  0  0  0  0  0  0  0  0  0
  152.2307  144.1950  159.4574 C   0  0  0  0  0  0  0  0  0  0  0  0
  151.9514  144.1507  157.9578 C   0  0  0  0  0  0  0  0  0  0  0  0
  151.4887  142.8311  157.6808 O   0  0  0  0  0  0  0  0  0  0  0  0
  149.4740  139.9545  154.9748 N   0  0  0  0  0  0  0  0  0  0  0  0
  148.7678  140.0259  153.7911 C   0  0  0  0  0  0  0  0  0  0  0  0
  147.9469  141.1143  153.8674 C   0  0  0  0  0  0  0  0  0  0  0  0
  148.2177  141.6517  155.1561 C   0  0  0  0  0  0  0  0  0  0  0  0
  149.1261  140.9544  155.8182 N   0  0  0  0  0  0  0  0  0  0  0  0
  151.6631  137.3639  154.4762 H   0  0  0  0  0  0  0  0  0  0  0  0
  151.5748  138.8224  153.4934 H   0  0  0  0  0  0  0  0  0  0  0  0
  150.1961  137.7322  153.5825 H   0  0  0  0  0  0  0  0  0  0  0  0
  149.9262  138.2258  156.0052 H   0  0  0  0  0  0  0  0  0  0  0  0
  150.2096  139.8870  157.7348 H   0  0  0  0  0  0  0  0  0  0  0  0
  152.1142  139.9635  159.3519 H   0  0  0  0  0  0  0  0  0  0  0  0
  153.0710  140.6277  158.0489 H   0  0  0  0  0  0  0  0  0  0  0  0
  150.6252  141.9793  159.3296 H   0  0  0  0  0  0  0  0  0  0  0  0
  152.4701  142.4899  160.8012 H   0  0  0  0  0  0  0  0  0  0  0  0
  153.6111  142.5536  159.4518 H   0  0  0  0  0  0  0  0  0  0  0  0
  151.3278  144.4782  160.0007 H   0  0  0  0  0  0  0  0  0  0  0  0
  153.0246  144.8933  159.7235 H   0  0  0  0  0  0  0  0  0  0  0  0
  151.2226  144.9006  157.6501 H   0  0  0  0  0  0  0  0  0  0  0  0
  152.8693  144.3197  157.3939 H   0  0  0  0  0  0  0  0  0  0  0  0
  148.9055  139.3025  153.0009 H   0  0  0  0  0  0  0  0  0  0  0  0
  147.2556  141.4701  153.1179 H   0  0  0  0  0  0  0  0  0  0  0  0
  147.7815  142.5191  155.6290 H   0  0  0  0  0  0  0  0  0  0  0  0
  1  2  1  0  0  0  0
  1 17  1  0  0  0  0
  1 18  1  0  0  0  0
  1 19  1  0  0  0  0
  2  3  1  0  0  0  0
  2 12  1  0  0  0  0
  2 20  1  0  0  0  0
  3  4  2  0  0  0  0
  3  5  1  0  0  0  0
  5  6  1  0  0  0  0
  5 21  1  0  0  0  0
  6  7  1  0  0  0  0
  6 22  1  0  0  0  0
  6 23  1  0  0  0  0
  7 11  1  0  0  0  0
  7  8  1  0  0  0  0
  7 24  1  0  0  0  0
  8  9  1  0  0  0  0
  8 25  1  0  0  0  0
  8 26  1  0  0  0  0
  9 10  1  0  0  0  0
  9 27  1  0  0  0  0
  9 28  1  0  0  0  0
 10 11  1  0  0  0  0
 10 29  1  0  0  0  0
 10 30  1  0  0  0  0
 12 16  1  0  0  0  0
 12 13  1  0  0  0  0
 13 14  2  0  0  0  0
 13 31  1  0  0  0  0
 14 15  1  0  0  0  0
 14 32  1  0  0  0  0
 15 16  2  0  0  0  0
 15 33  1  0  0  0  0
M  END
> <s_m_source_file>
AV-unprocessed.smi

> <i_m_source_file_index>
3168

> <i_lp_mmshare_version>
43012

> <i_f3d_flags>
0

> <s_epik_input>
bjFbY0hdW2NIXVtjSF1uMVtDQEhdKFtDSDNdKUMoPU8pW05IXVtDSDJdW0NAQEhdMltDSDJdW0NIMl1bQ0gyXU8y

> <s_epik_cmdline>
J2VwaWtfcHl0aG9uJywgJy1waCcsICc3LjAnLCAnLXRuJywgJzgnLCAnLW1hJywgJzIwMCcsICctbWV0YWxfYmluZGluZycsICctaW1hZScsICc8aW5maWxlLm1hZT4nLCAnLW9tYWUnLCAnPG91dGZpbGUubWFlPic=

> <r_lp_tautomer_probability>
1

> <r_epik_Ionization_Penalty>
4.14877e-05

> <r_epik_Ionization_Penalty_Charging>
0

> <r_epik_Ionization_Penalty_Neutral>
4.14877e-05

> <r_epik_State_Penalty>
-0

> <r_epik_Charging_Adjusted_Penalty>
0

> <i_epik_Tot_Q>
0

> <i_epik_Tot_abs_Q>
0

> <r_epik_Metal_State_Penalty>
-0

> <b_epik_Metal_Only>
0

> <s_lp_Force_Field>
OPLS_2005

> <r_lp_Energy>
21.2002

> <b_lp_Chiralities_Consistent>
1

> <s_lp_Variant>
AV-unprocessed.smi:3168-4

> <Gold.Version>
5.8.1

> <Gold.Id.Protein>
6NUR|6NUR_protein|mol2

> <Gold.PLP.Fitness>
39.4383

> <Gold.PLP.PLP>
-33.0402

> <Gold.PLP.part.hbond>
-1.0000

> <Gold.PLP.part.metal>
0.0000

> <Gold.PLP.part.buried>
-0.4905

> <Gold.PLP.part.nonpolar>
-32.0189

> <Gold.PLP.part.repulsive>
0.1898

> <Gold.PLP.ligand.clash>
0.0000

> <Gold.PLP.ligand.torsion>
0.8406

> <Gold.PLP.Chemscore.Hbond>
1.0000

> <Gold.PLP.Chemscore.CHOScore>
1.6566

> <Gold.PLP.Chemscore.Metal>
0.0000

> <Gold.Chemscore.Hbonds>
donor molecule, donor type, donor heavy atom, donor atom, acceptor molecule, acceptor atom, score
      P1  H  7997  8008       L1     4  1.00
      L1  C    13    31       P1  7957  0.75
      L1  C    15    33       P1  8028  0.87

> <Gold.PLP.Chemscore.Internal.Correction>
0.1095

> <Gold.Rescore>
     Score         DG    S(hbond)    S(metal)    S(lipo)     H(rot)  DE(clash)    DE(int)     intcor
     12.67     -15.04       1.00        0.00      88.43       1.61       0.01       2.37       ----

> <Gold.Chemscore.Fitness>
12.6679

> <Gold.Chemscore.DG>
-15.0443

> <Gold.Chemscore.ZeroCoef>
-5.4800

> <Gold.Chemscore.Hbond>
0.9994

> <Gold.Chemscore.Metal>
0.0000

> <Gold.Chemscore.Lipo>
88.4293

> <Gold.Chemscore.Internal_Hbond>
0.0000

> <Gold.Chemscore.DEClash>
0.0081

> <Gold.Chemscore.DEInternal>
2.3683

> <Gold.Chemscore.Rot>
1.6094

> <Gold.Chemscore.Internal.Correction>
   9.000000E+99

> <Gold.Chemscore.Hbonds>
donor molecule, donor type, donor heavy atom, donor atom, acceptor molecule, acceptor atom, score
      P1  H  7997  8008       L1     4  0.99

> <Gold.Chemscore.Hbond.Weighted>
-3.3381

> <Gold.Chemscore.Metal.Weighted>
-0.0000

> <Gold.Chemscore.Lipo.Weighted>
-10.3462

> <Gold.Chemscore.Internal_Hbond.Weighted>
0.0000

> <Gold.Chemscore.DEClash.Weighted>
0.0081

> <Gold.Chemscore.DEInternal.Weighted>
2.3683

> <Gold.Chemscore.Rot.Weighted>
4.1201

> <Gold.Chemscore.Internal.Correction.Weighted>
   9.000000E+99

> <Gold.Protein.RotatedTorsions>
[ 6907 6896 6895 6894 ] final    7.64 input  -60.11 | X-H torsion
[ 7974 7965 7964 7962 ] final  150.11 input  175.53 | X-H torsion
[ 8008 7997 7996 7995 ] final  -18.81 input   59.86 | X-H torsion
[ 10167 10162 10161 10158 ] final   24.81 input  -65.29 | X-H torsion
[ 10718 10713 10712 10709 ] final  153.43 input   66.30 | X-H torsion
[ 10763 10752 10751 10750 ] final  -48.56 input  -60.55 | X-H torsion
[ 11005 11000 10999 10996 ] final  -11.01 input  -57.11 | X-H torsion

> <Gold.Protein.ActiveResidues>
 VAL166  LYS551  ARG553  GLY616  TRP617  ASP618  TYR619  PRO620  LYS621  CYS622 
 ASP623  PHE694  ASN695  SER759  ASP760  ASP761  ALA762  ILE779  LEU786  VAL792 
 PHE793  MET794  SER795  GLU796  ALA797  LYS798  CYS799  TRP800  GLU811  SER814 

> <Gold.Protein.RotatedAtoms>
  151.6931  135.0943  160.0236 H   0  0  0  0  0  0  0  0  0  0  0  0  # atno 6907 bound_to 6896
  152.3766  133.6486  159.6137 H   0  0  0  0  0  0  0  0  0  0  0  0  # atno 6908 bound_to 6896
  150.7714  133.9099  159.3407 H   0  0  0  0  0  0  0  0  0  0  0  0  # atno 6909 bound_to 6896
  144.8388  139.6367  143.6026 H   0  0  0  0  0  0  0  0  0  0  0  0  # atno 7974 bound_to 7965
  154.4880  140.2106  155.9612 H   0  0  0  0  0  0  0  0  0  0  0  0  # atno 8008 bound_to 7997
  156.1264  140.3204  155.8253 H   0  0  0  0  0  0  0  0  0  0  0  0  # atno 8009 bound_to 7997
  155.4375  140.0508  157.3004 H   0  0  0  0  0  0  0  0  0  0  0  0  # atno 8010 bound_to 7997
  140.5158  144.0085  150.6393 H   0  0  0  0  0  0  0  0  0  0  0  0  # atno 10167 bound_to 10162
  157.2448  131.0767  151.1768 H   0  0  0  0  0  0  0  0  0  0  0  0  # atno 10718 bound_to 10713
  154.0798  135.6593  153.4836 H   0  0  0  0  0  0  0  0  0  0  0  0  # atno 10763 bound_to 10752
  153.0360  135.5177  154.7485 H   0  0  0  0  0  0  0  0  0  0  0  0  # atno 10764 bound_to 10752
  154.6577  135.3010  154.9875 H   0  0  0  0  0  0  0  0  0  0  0  0  # atno 10765 bound_to 10752
  140.7508  133.8594  155.9043 H   0  0  0  0  0  0  0  0  0  0  0  0  # atno 11005 bound_to 11000
  146.2683  139.6574  142.9314 LP  0  0  0  0  0  0  0  0  0  0  0  0  # atno 17320 bound_to 7965
  145.4738  141.0436  143.2684 LP  0  0  0  0  0  0  0  0  0  0  0  0  # atno 17321 bound_to 7965
  140.3420  143.3014  152.0578 LP  0  0  0  0  0  0  0  0  0  0  0  0  # atno 17342 bound_to 10162
  139.4909  144.6435  151.6826 LP  0  0  0  0  0  0  0  0  0  0  0  0  # atno 17343 bound_to 10162
  157.3340  130.6999  149.6341 LP  0  0  0  0  0  0  0  0  0  0  0  0  # atno 17370 bound_to 10713
  155.9668  130.4299  150.4853 LP  0  0  0  0  0  0  0  0  0  0  0  0  # atno 17371 bound_to 10713
  140.9752  134.1478  157.4542 LP  0  0  0  0  0  0  0  0  0  0  0  0  # atno 17394 bound_to 11000
  139.8788  134.9992  156.5942 LP  0  0  0  0  0  0  0  0  0  0  0  0  # atno 17395 bound_to 11000

$$$$
