AV-unprocessed.smi:3277|AV-procd|sdf|12538|dock2
  -GOLD-   2272018453D 1   1.00000     0.00000
 Structure written by MMmdl.
 35 37  0  0  0  0  0  0  0  0  1 V2000
  147.5604  145.5296  160.9467 C   0  0  0  0  0  0  0  0  0  0  0  0
  147.2157  144.6576  159.8348 N   0  0  0  0  0  0  0  0  0  0  0  0
  146.7624  143.4030  159.9729 C   0  0  0  0  0  0  0  0  0  0  0  0
  146.5832  142.8654  161.0655 O   0  0  0  0  0  0  0  0  0  0  0  0
  146.4628  142.6360  158.6838 C   0  0  0  0  0  0  0  0  0  0  0  0
  147.7666  142.2986  158.0354 C   0  0  0  0  0  0  0  0  0  0  0  0
  148.9416  142.7819  158.4460 N   0  0  0  0  0  0  0  0  0  0  0  0
  150.0199  142.3331  157.6741 C   0  0  0  0  0  0  0  0  0  0  0  0
  151.4329  142.7830  157.9538 C   0  0  2  0  0  0  0  0  0  0  0  0
  151.9969  142.3683  159.3307 C   0  0  0  0  0  0  0  0  0  0  0  0
  152.5875  143.6905  159.8591 C   0  0  2  0  0  0  0  0  0  0  0  0
  151.4399  144.6321  160.2746 C   0  0  0  0  0  0  0  0  0  0  0  0
  150.8782  145.1047  158.9202 C   0  0  0  0  0  0  0  0  0  0  0  0
  151.7208  144.3047  157.9056 C   0  0  1  0  0  0  0  0  0  0  0  0
  153.0893  144.3546  158.5807 C   0  0  0  0  0  0  0  0  0  0  0  0
  149.6329  141.4814  156.6688 C   0  0  0  0  0  0  0  0  0  0  0  0
  147.9107  141.2189  156.6542 S   0  0  0  0  0  0  0  0  0  0  0  0
  147.9296  146.4837  160.5704 H   0  0  0  0  0  0  0  0  0  0  0  0
  148.3401  145.0819  161.5646 H   0  0  0  0  0  0  0  0  0  0  0  0
  146.6880  145.7236  161.5724 H   0  0  0  0  0  0  0  0  0  0  0  0
  147.3359  145.0265  158.9028 H   0  0  0  0  0  0  0  0  0  0  0  0
  145.9103  141.7216  158.9041 H   0  0  0  0  0  0  0  0  0  0  0  0
  145.8555  143.2370  158.0060 H   0  0  0  0  0  0  0  0  0  0  0  0
  152.0759  142.3238  157.2005 H   0  0  0  0  0  0  0  0  0  0  0  0
  151.2425  141.9704  160.0103 H   0  0  0  0  0  0  0  0  0  0  0  0
  152.7683  141.6058  159.2161 H   0  0  0  0  0  0  0  0  0  0  0  0
  153.3407  143.5522  160.6352 H   0  0  0  0  0  0  0  0  0  0  0  0
  150.6885  144.1241  160.8804 H   0  0  0  0  0  0  0  0  0  0  0  0
  151.8158  145.4793  160.8495 H   0  0  0  0  0  0  0  0  0  0  0  0
  149.8046  144.9558  158.8222 H   0  0  0  0  0  0  0  0  0  0  0  0
  151.0584  146.1732  158.7947 H   0  0  0  0  0  0  0  0  0  0  0  0
  151.6925  144.7206  156.8981 H   0  0  0  0  0  0  0  0  0  0  0  0
  153.4609  145.3690  158.7372 H   0  0  0  0  0  0  0  0  0  0  0  0
  153.8533  143.7726  158.0622 H   0  0  0  0  0  0  0  0  0  0  0  0
  150.2571  140.9956  155.9334 H   0  0  0  0  0  0  0  0  0  0  0  0
  1  2  1  0  0  0  0
  1 18  1  0  0  0  0
  1 19  1  0  0  0  0
  1 20  1  0  0  0  0
  2  3  1  0  0  0  0
  2 21  1  0  0  0  0
  3  4  2  0  0  0  0
  3  5  1  0  0  0  0
  5  6  1  0  0  0  0
  5 22  1  0  0  0  0
  5 23  1  0  0  0  0
  6 17  1  0  0  0  0
  6  7  2  0  0  0  0
  7  8  1  0  0  0  0
  8  9  1  0  0  0  0
  8 16  2  0  0  0  0
  9 14  1  0  0  0  0
  9 10  1  0  0  0  0
  9 24  1  0  0  0  0
 10 11  1  0  0  0  0
 10 25  1  0  0  0  0
 10 26  1  0  0  0  0
 11 15  1  0  0  0  0
 11 12  1  0  0  0  0
 11 27  1  0  0  0  0
 12 13  1  0  0  0  0
 12 28  1  0  0  0  0
 12 29  1  0  0  0  0
 13 14  1  0  0  0  0
 13 30  1  0  0  0  0
 13 31  1  0  0  0  0
 14 15  1  0  0  0  0
 14 32  1  0  0  0  0
 15 33  1  0  0  0  0
 15 34  1  0  0  0  0
 16 17  1  0  0  0  0
 16 35  1  0  0  0  0
M  END
> <s_m_source_file>
AV-unprocessed.smi

> <i_m_source_file_index>
3277

> <i_lp_mmshare_version>
43012

> <i_f3d_flags>
0

> <s_epik_input>
W0NIM11bTkhdQyg9TylbQ0gyXWMxbmMoW2NIXXMxKVtDQEhdKFtDSDJdW0NAQEhdMjMpW0NAQEhdKFtDSDJdMylbQ0gyXVtDSDJdMg==

> <s_epik_cmdline>
J2VwaWtfcHl0aG9uJywgJy1waCcsICc3LjAnLCAnLXRuJywgJzgnLCAnLW1hJywgJzIwMCcsICctbWV0YWxfYmluZGluZycsICctaW1hZScsICc8aW5maWxlLm1hZT4nLCAnLW9tYWUnLCAnPG91dGZpbGUubWFlPic=

> <r_lp_tautomer_probability>
1

> <r_epik_Ionization_Penalty>
8.50008e-05

> <r_epik_Ionization_Penalty_Charging>
0

> <r_epik_Ionization_Penalty_Neutral>
8.50008e-05

> <r_epik_State_Penalty>
-0

> <r_epik_Charging_Adjusted_Penalty>
0

> <i_epik_Tot_Q>
0

> <i_epik_Tot_abs_Q>
0

> <r_epik_Metal_State_Penalty>
-0

> <b_epik_Metal_Only>
0

> <s_lp_Force_Field>
OPLS_2005

> <r_lp_Energy>
46.0194

> <b_lp_Chiralities_Consistent>
1

> <s_lp_Variant>
AV-unprocessed.smi:3277-3

> <Gold.Version>
5.8.1

> <Gold.Id.Protein>
6NUR|6NUR_protein|mol2

> <Gold.PLP.Fitness>
45.6787

> <Gold.PLP.PLP>
-38.3040

> <Gold.PLP.part.hbond>
-3.0000

> <Gold.PLP.part.metal>
0.0000

> <Gold.PLP.part.buried>
-6.5241

> <Gold.PLP.part.nonpolar>
-29.9746

> <Gold.PLP.part.repulsive>
0.2722

> <Gold.PLP.ligand.clash>
0.0000

> <Gold.PLP.ligand.torsion>
0.2131

> <Gold.PLP.Chemscore.Hbond>
2.5988

> <Gold.PLP.Chemscore.CHOScore>
0.0000

> <Gold.PLP.Chemscore.Metal>
0.0000

> <Gold.Chemscore.Hbonds>
donor molecule, donor type, donor heavy atom, donor atom, acceptor molecule, acceptor atom, score
      L1  H     2    21       P1  8029  1.00
      P1  H  6933  6944       L1     4  0.82
      P1  H  6934  6946       L1     4  0.80

> <Gold.PLP.Chemscore.Internal.Correction>
0.0047

> <Gold.Rescore>
     Score         DG    S(hbond)    S(metal)    S(lipo)     H(rot)  DE(clash)    DE(int)     intcor
     22.01     -23.37       2.69        0.00     106.91       1.41       0.04       1.32       ----

> <Gold.Chemscore.Fitness>
22.0058

> <Gold.Chemscore.DG>
-23.3705

> <Gold.Chemscore.ZeroCoef>
-5.4800

> <Gold.Chemscore.Hbond>
2.6936

> <Gold.Chemscore.Metal>
0.0000

> <Gold.Chemscore.Lipo>
106.9139

> <Gold.Chemscore.Internal_Hbond>
0.0000

> <Gold.Chemscore.DEClash>
0.0424

> <Gold.Chemscore.DEInternal>
1.3222

> <Gold.Chemscore.Rot>
1.4122

> <Gold.Chemscore.Internal.Correction>
   9.000000E+99

> <Gold.Chemscore.Hbonds>
donor molecule, donor type, donor heavy atom, donor atom, acceptor molecule, acceptor atom, score
      L1  H     2    21       P1  8029  0.99
      P1  H  6933  6944       L1     4  0.18
      P1  H  6934  6946       L1     4  0.38

> <Gold.Chemscore.Hbond.Weighted>
-8.9967

> <Gold.Chemscore.Metal.Weighted>
-0.0000

> <Gold.Chemscore.Lipo.Weighted>
-12.5089

> <Gold.Chemscore.Internal_Hbond.Weighted>
0.0000

> <Gold.Chemscore.DEClash.Weighted>
0.0424

> <Gold.Chemscore.DEInternal.Weighted>
1.3222

> <Gold.Chemscore.Rot.Weighted>
3.6151

> <Gold.Chemscore.Internal.Correction.Weighted>
   9.000000E+99

> <Gold.Protein.RotatedTorsions>
[ 6907 6896 6895 6894 ] final -166.57 input  -60.11 | X-H torsion
[ 7974 7965 7964 7962 ] final -172.76 input  175.53 | X-H torsion
[ 8008 7997 7996 7995 ] final  175.97 input   59.86 | X-H torsion
[ 10167 10162 10161 10158 ] final   31.54 input  -65.29 | X-H torsion
[ 10718 10713 10712 10709 ] final -137.20 input   66.30 | X-H torsion
[ 10763 10752 10751 10750 ] final  -44.82 input  -60.55 | X-H torsion
[ 11005 11000 10999 10996 ] final   36.99 input  -57.11 | X-H torsion

> <Gold.Protein.ActiveResidues>
 VAL166  LYS551  ARG553  GLY616  TRP617  ASP618  TYR619  PRO620  LYS621  CYS622 
 ASP623  PHE694  ASN695  SER759  ASP760  ASP761  ALA762  ILE779  LEU786  VAL792 
 PHE793  MET794  SER795  GLU796  ALA797  LYS798  CYS799  TRP800  GLU811  SER814 

> <Gold.Protein.RotatedAtoms>
  151.4457  133.3631  159.2787 H   0  0  0  0  0  0  0  0  0  0  0  0  # atno 6907 bound_to 6896
  150.9126  134.8545  159.7446 H   0  0  0  0  0  0  0  0  0  0  0  0  # atno 6908 bound_to 6896
  152.4940  134.4388  159.9588 H   0  0  0  0  0  0  0  0  0  0  0  0  # atno 6909 bound_to 6896
  144.7143  140.1723  143.6366 H   0  0  0  0  0  0  0  0  0  0  0  0  # atno 7974 bound_to 7965
  156.0814  140.1395  156.9708 H   0  0  0  0  0  0  0  0  0  0  0  0  # atno 8008 bound_to 7997
  154.4587  140.0951  156.6881 H   0  0  0  0  0  0  0  0  0  0  0  0  # atno 8009 bound_to 7997
  155.5070  140.3452  155.4383 H   0  0  0  0  0  0  0  0  0  0  0  0  # atno 8010 bound_to 7997
  140.4579  144.0951  150.6206 H   0  0  0  0  0  0  0  0  0  0  0  0  # atno 10167 bound_to 10162
  156.2855  130.7345  151.1355 H   0  0  0  0  0  0  0  0  0  0  0  0  # atno 10718 bound_to 10713
  154.0184  135.6672  153.4770 H   0  0  0  0  0  0  0  0  0  0  0  0  # atno 10763 bound_to 10752
  153.0590  135.5039  154.8046 H   0  0  0  0  0  0  0  0  0  0  0  0  # atno 10764 bound_to 10752
  154.6952  135.3068  154.9386 H   0  0  0  0  0  0  0  0  0  0  0  0  # atno 10765 bound_to 10752
  140.2271  134.3572  155.7980 H   0  0  0  0  0  0  0  0  0  0  0  0  # atno 11005 bound_to 11000
  145.8932  139.2387  143.1537 LP  0  0  0  0  0  0  0  0  0  0  0  0  # atno 17320 bound_to 7965
  145.9883  140.8624  143.0079 LP  0  0  0  0  0  0  0  0  0  0  0  0  # atno 17321 bound_to 7965
  140.4129  143.2648  151.9811 LP  0  0  0  0  0  0  0  0  0  0  0  0  # atno 17342 bound_to 10162
  139.4803  144.5899  151.7789 LP  0  0  0  0  0  0  0  0  0  0  0  0  # atno 17343 bound_to 10162
  157.7327  131.0597  150.5614 LP  0  0  0  0  0  0  0  0  0  0  0  0  # atno 17370 bound_to 10713
  156.5725  130.4283  149.6013 LP  0  0  0  0  0  0  0  0  0  0  0  0  # atno 17371 bound_to 10713
  141.2220  133.7225  156.8670 LP  0  0  0  0  0  0  0  0  0  0  0  0  # atno 17394 bound_to 11000
  140.1789  134.9047  157.2925 LP  0  0  0  0  0  0  0  0  0  0  0  0  # atno 17395 bound_to 11000

$$$$
