AV-unprocessed.smi:2971|AV-procd|sdf|11333|dock3
  -GOLD-   2272016243D 1   1.00000     0.00000
 Structure written by MMmdl.
 36 38  0  0  0  0  0  0  0  0  1 V2000
  151.2601  140.2629  154.9481 O   0  0  0  0  0  0  0  0  0  0  0  0
  150.1797  140.9052  155.5971 C   0  0  1  0  0  0  0  0  0  0  0  0
  148.9144  140.7074  154.7475 C   0  0  0  0  0  0  0  0  0  0  0  0
  147.7728  140.8307  155.5858 O   0  0  0  0  0  0  0  0  0  0  0  0
  146.8295  141.7865  155.2718 C   0  0  0  0  0  0  0  0  0  0  0  0
  146.7156  142.4032  153.9994 C   0  0  0  0  0  0  0  0  0  0  0  0
  145.7216  143.3726  153.7624 C   0  0  0  0  0  0  0  0  0  0  0  0
  144.8304  143.7371  154.7882 C   0  0  0  0  0  0  0  0  0  0  0  0
  144.9346  143.1302  156.0533 C   0  0  0  0  0  0  0  0  0  0  0  0
  145.9292  142.1617  156.2920 C   0  0  0  0  0  0  0  0  0  0  0  0
  146.0196  141.5866  157.5151 F   0  0  0  0  0  0  0  0  0  0  0  0
  150.0202  140.3111  157.0102 C   0  0  0  0  0  0  0  0  0  0  0  0
  151.0751  140.7319  157.9156 N   0  0  0  0  0  0  0  0  0  0  0  0
  151.9356  139.9366  158.5794 C   0  0  0  0  0  0  0  0  0  0  0  0
  152.8354  140.5282  159.3600 N   0  0  0  0  0  0  0  0  0  0  0  0
  152.5218  141.8651  159.1829 C   0  0  0  0  0  0  0  0  0  0  0  0
  153.1083  143.0255  159.7370 C   0  0  0  0  0  0  0  0  0  0  0  0
  152.6128  144.3041  159.4064 C   0  0  0  0  0  0  0  0  0  0  0  0
  151.5248  144.4421  158.5201 C   0  0  0  0  0  0  0  0  0  0  0  0
  150.9242  143.3006  157.9553 C   0  0  0  0  0  0  0  0  0  0  0  0
  151.4231  142.0268  158.2855 C   0  0  0  0  0  0  0  0  0  0  0  0
  151.5033  139.5029  155.4548 H   0  0  0  0  0  0  0  0  0  0  0  0
  150.4002  141.9702  155.6831 H   0  0  0  0  0  0  0  0  0  0  0  0
  148.8882  141.4193  153.9203 H   0  0  0  0  0  0  0  0  0  0  0  0
  148.9200  139.7023  154.3225 H   0  0  0  0  0  0  0  0  0  0  0  0
  147.3788  142.1505  153.1865 H   0  0  0  0  0  0  0  0  0  0  0  0
  145.6434  143.8372  152.7904 H   0  0  0  0  0  0  0  0  0  0  0  0
  144.0684  144.4805  154.6053 H   0  0  0  0  0  0  0  0  0  0  0  0
  144.2513  143.4075  156.8423 H   0  0  0  0  0  0  0  0  0  0  0  0
  149.0657  140.6164  157.4411 H   0  0  0  0  0  0  0  0  0  0  0  0
  150.0063  139.2211  156.9688 H   0  0  0  0  0  0  0  0  0  0  0  0
  151.8995  138.8612  158.4829 H   0  0  0  0  0  0  0  0  0  0  0  0
  153.9412  142.9316  160.4181 H   0  0  0  0  0  0  0  0  0  0  0  0
  153.0694  145.1836  159.8357 H   0  0  0  0  0  0  0  0  0  0  0  0
  151.1507  145.4254  158.2749 H   0  0  0  0  0  0  0  0  0  0  0  0
  150.0885  143.4017  157.2789 H   0  0  0  0  0  0  0  0  0  0  0  0
  1  2  1  0  0  0  0
  1 22  1  0  0  0  0
  2  3  1  0  0  0  0
  2 12  1  0  0  0  0
  2 23  1  0  0  0  0
  3  4  1  0  0  0  0
  3 24  1  0  0  0  0
  3 25  1  0  0  0  0
  4  5  1  0  0  0  0
  5 10  1  0  0  0  0
  5  6  2  0  0  0  0
  6  7  1  0  0  0  0
  6 26  1  0  0  0  0
  7  8  2  0  0  0  0
  7 27  1  0  0  0  0
  8  9  1  0  0  0  0
  8 28  1  0  0  0  0
  9 10  2  0  0  0  0
  9 29  1  0  0  0  0
 10 11  1  0  0  0  0
 12 13  1  0  0  0  0
 12 30  1  0  0  0  0
 12 31  1  0  0  0  0
 13 21  1  0  0  0  0
 13 14  1  0  0  0  0
 14 15  2  0  0  0  0
 14 32  1  0  0  0  0
 15 16  1  0  0  0  0
 16 21  2  0  0  0  0
 16 17  1  0  0  0  0
 17 18  2  0  0  0  0
 17 33  1  0  0  0  0
 18 19  1  0  0  0  0
 18 34  1  0  0  0  0
 19 20  2  0  0  0  0
 19 35  1  0  0  0  0
 20 21  1  0  0  0  0
 20 36  1  0  0  0  0
M  END
> <s_m_source_file>
AV-unprocessed.smi

> <i_m_source_file_index>
2971

> <i_lp_mmshare_version>
43012

> <i_f3d_flags>
0

> <s_epik_input>
W2NIXTFbY0hdW2NIXVtjSF1jKGMxMiluKFtjSF1uMilbQ0gyXVtDQEhdKFtPSF0pW0NIMl1PYzNbY0hdW2NIXVtjSF1bY0hdYzNG

> <s_epik_cmdline>
J2VwaWtfcHl0aG9uJywgJy1waCcsICc3LjAnLCAnLXRuJywgJzgnLCAnLW1hJywgJzIwMCcsICctbWV0YWxfYmluZGluZycsICctaW1hZScsICc8aW5maWxlLm1hZT4nLCAnLW9tYWUnLCAnPG91dGZpbGUubWFlPic=

> <r_lp_tautomer_probability>
1

> <r_epik_Ionization_Penalty>
0.0600913

> <r_epik_Ionization_Penalty_Charging>
0

> <r_epik_Ionization_Penalty_Neutral>
0.0600913

> <r_epik_State_Penalty>
0.0520726

> <r_epik_Charging_Adjusted_Penalty>
0.0520726

> <i_epik_Tot_Q>
0

> <i_epik_Tot_abs_Q>
0

> <r_epik_Metal_State_Penalty>
5.44269e-05

> <b_epik_Metal_Only>
0

> <s_lp_Force_Field>
OPLS_2005

> <r_lp_Energy>
16.3694

> <b_lp_Chiralities_Consistent>
1

> <s_lp_Variant>
AV-unprocessed.smi:2971-2

> <Gold.Version>
5.8.1

> <Gold.Id.Protein>
6NUR|6NUR_protein|mol2

> <Gold.PLP.Fitness>
47.2381

> <Gold.PLP.PLP>
-46.0879

> <Gold.PLP.part.hbond>
-1.0000

> <Gold.PLP.part.metal>
0.0000

> <Gold.PLP.part.buried>
-6.8747

> <Gold.PLP.part.nonpolar>
-37.3979

> <Gold.PLP.part.repulsive>
0.0658

> <Gold.PLP.ligand.clash>
0.0000

> <Gold.PLP.ligand.torsion>
0.9555

> <Gold.PLP.Chemscore.Hbond>
1.0000

> <Gold.PLP.Chemscore.CHOScore>
0.0000

> <Gold.PLP.Chemscore.Metal>
0.0000

> <Gold.Chemscore.Hbonds>
donor molecule, donor type, donor heavy atom, donor atom, acceptor molecule, acceptor atom, score
      P1  H  7989  7998       L1     1  1.00

> <Gold.PLP.Chemscore.Internal.Correction>
0.0612

> <Gold.Rescore>
     Score         DG    S(hbond)    S(metal)    S(lipo)     H(rot)  DE(clash)    DE(int)     intcor
     15.53     -16.40       0.93        0.00     118.84       2.37       0.09       0.78       ----

> <Gold.Chemscore.Fitness>
15.5296

> <Gold.Chemscore.DG>
-16.3991

> <Gold.Chemscore.ZeroCoef>
-5.4800

> <Gold.Chemscore.Hbond>
0.9254

> <Gold.Chemscore.Metal>
0.0000

> <Gold.Chemscore.Lipo>
118.8410

> <Gold.Chemscore.Internal_Hbond>
0.0000

> <Gold.Chemscore.DEClash>
0.0940

> <Gold.Chemscore.DEInternal>
0.7754

> <Gold.Chemscore.Rot>
2.3735

> <Gold.Chemscore.Internal.Correction>
   9.000000E+99

> <Gold.Chemscore.Hbonds>
donor molecule, donor type, donor heavy atom, donor atom, acceptor molecule, acceptor atom, score
      P1  H  7989  7998       L1     1  0.88

> <Gold.Chemscore.Hbond.Weighted>
-3.0909

> <Gold.Chemscore.Metal.Weighted>
-0.0000

> <Gold.Chemscore.Lipo.Weighted>
-13.9044

> <Gold.Chemscore.Internal_Hbond.Weighted>
0.0000

> <Gold.Chemscore.DEClash.Weighted>
0.0940

> <Gold.Chemscore.DEInternal.Weighted>
0.7754

> <Gold.Chemscore.Rot.Weighted>
6.0762

> <Gold.Chemscore.Internal.Correction.Weighted>
   9.000000E+99

> <Gold.Protein.RotatedTorsions>
[ 6907 6896 6895 6894 ] final  152.04 input  -60.11 | X-H torsion
[ 7974 7965 7964 7962 ] final  150.63 input  175.53 | X-H torsion
[ 8008 7997 7996 7995 ] final  101.98 input   59.86 | X-H torsion
[ 10167 10162 10161 10158 ] final    3.03 input  -65.29 | X-H torsion
[ 10718 10713 10712 10709 ] final  112.10 input   66.30 | X-H torsion
[ 10763 10752 10751 10750 ] final  -21.32 input  -60.55 | X-H torsion
[ 11005 11000 10999 10996 ] final   37.23 input  -57.11 | X-H torsion

> <Gold.Protein.ActiveResidues>
 VAL166  LYS551  ARG553  GLY616  TRP617  ASP618  TYR619  PRO620  LYS621  CYS622 
 ASP623  PHE694  ASN695  SER759  ASP760  ASP761  ALA762  ILE779  LEU786  VAL792 
 PHE793  MET794  SER795  GLU796  ALA797  LYS798  CYS799  TRP800  GLU811  SER814 

> <Gold.Protein.RotatedAtoms>
  152.0923  133.4207  159.4549 H   0  0  0  0  0  0  0  0  0  0  0  0  # atno 6907 bound_to 6896
  150.6862  134.2857  159.4655 H   0  0  0  0  0  0  0  0  0  0  0  0  # atno 6908 bound_to 6896
  152.0709  134.9533  160.0625 H   0  0  0  0  0  0  0  0  0  0  0  0  # atno 6909 bound_to 6896
  144.8351  139.6433  143.6042 H   0  0  0  0  0  0  0  0  0  0  0  0  # atno 7974 bound_to 7965
  156.1350  140.3189  155.8407 H   0  0  0  0  0  0  0  0  0  0  0  0  # atno 8008 bound_to 7997
  155.4261  140.0515  157.3039 H   0  0  0  0  0  0  0  0  0  0  0  0  # atno 8009 bound_to 7997
  154.4930  140.2099  155.9521 H   0  0  0  0  0  0  0  0  0  0  0  0  # atno 8010 bound_to 7997
  140.6606  143.7314  150.7732 H   0  0  0  0  0  0  0  0  0  0  0  0  # atno 10167 bound_to 10162
  157.6410  131.0962  150.6846 H   0  0  0  0  0  0  0  0  0  0  0  0  # atno 10718 bound_to 10713
  153.6344  135.6987  153.5264 H   0  0  0  0  0  0  0  0  0  0  0  0  # atno 10763 bound_to 10752
  153.2833  135.4179  155.1099 H   0  0  0  0  0  0  0  0  0  0  0  0  # atno 10764 bound_to 10752
  154.8514  135.3607  154.5887 H   0  0  0  0  0  0  0  0  0  0  0  0  # atno 10765 bound_to 10752
  140.2246  134.3600  155.7990 H   0  0  0  0  0  0  0  0  0  0  0  0  # atno 11005 bound_to 11000
  146.2650  139.6499  142.9336 LP  0  0  0  0  0  0  0  0  0  0  0  0  # atno 17320 bound_to 7965
  145.4813  141.0438  143.2644 LP  0  0  0  0  0  0  0  0  0  0  0  0  # atno 17321 bound_to 7965
  140.0982  143.4813  152.2440 LP  0  0  0  0  0  0  0  0  0  0  0  0  # atno 17342 bound_to 10162
  139.5839  144.7522  151.3570 LP  0  0  0  0  0  0  0  0  0  0  0  0  # atno 17343 bound_to 10162
  156.7169  130.4669  149.5532 LP  0  0  0  0  0  0  0  0  0  0  0  0  # atno 17370 bound_to 10713
  156.1691  130.6425  151.0815 LP  0  0  0  0  0  0  0  0  0  0  0  0  # atno 17371 bound_to 10713
  141.2221  133.7212  156.8632 LP  0  0  0  0  0  0  0  0  0  0  0  0  # atno 17394 bound_to 11000
  140.1814  134.9031  157.2952 LP  0  0  0  0  0  0  0  0  0  0  0  0  # atno 17395 bound_to 11000

$$$$
