AV-unprocessed.smi:2106|AV-procd|sdf|8593|dock6
  -GOLD-   2272011323D 1   1.00000     0.00000
 Structure written by MMmdl.
 47 48  0  0  0  0  0  0  0  0  1 V2000
  148.6338  137.0850  164.1780 C   0  0  0  0  0  0  0  0  0  0  0  0
  148.2034  136.3026  162.9726 C   0  0  0  0  0  0  0  0  0  0  0  0
  147.8794  134.9198  162.8897 C   0  0  0  0  0  0  0  0  0  0  0  0
  147.5593  134.7256  161.5755 C   0  0  0  0  0  0  0  0  0  0  0  0
  147.1352  133.4841  160.8620 C   0  0  0  0  0  0  0  0  0  0  0  0
  147.6966  135.9495  160.9441 N   0  0  0  0  0  0  0  0  0  0  0  0
  147.4869  136.2903  159.5457 C   0  0  0  0  0  0  0  0  0  0  0  0
  148.7755  136.8087  158.9055 C   0  0  0  0  0  0  0  0  0  0  0  0
  149.6914  136.0290  158.6452 O   0  0  0  0  0  0  0  0  0  0  0  0
  148.8324  138.1269  158.6620 N   0  0  0  0  0  0  0  0  0  0  0  0
  149.9700  138.8251  158.0776 C   0  0  0  0  0  0  0  0  0  0  0  0
  149.7076  140.3398  157.9907 C   0  0  0  0  0  0  0  0  0  0  0  0
  150.9048  141.1781  158.0313 N   0  0  0  0  0  0  0  0  0  0  0  0
  150.5969  142.5838  158.2848 C   0  0  0  0  0  0  0  0  0  0  0  0
  151.8686  143.4512  158.3574 C   0  0  1  0  0  0  0  0  0  0  0  0
  151.5552  144.9089  158.7105 C   0  0  0  0  0  0  0  0  0  0  0  0
  152.7373  142.9255  159.3568 O   0  0  0  0  0  0  0  0  0  0  0  0
  153.1079  141.5700  159.1220 C   0  0  1  0  0  0  0  0  0  0  0  0
  154.0479  141.1277  160.2483 C   0  0  0  0  0  0  0  0  0  0  0  0
  151.8335  140.7069  159.0530 C   0  0  0  0  0  0  0  0  0  0  0  0
  148.0910  136.9140  161.8048 N   0  0  0  0  0  0  0  0  0  0  0  0
  148.6513  136.4567  165.0688 H   0  0  0  0  0  0  0  0  0  0  0  0
  147.9542  137.9152  164.3715 H   0  0  0  0  0  0  0  0  0  0  0  0
  149.6346  137.4958  164.0426 H   0  0  0  0  0  0  0  0  0  0  0  0
  147.8829  134.1809  163.6772 H   0  0  0  0  0  0  0  0  0  0  0  0
  147.0986  132.6356  161.5457 H   0  0  0  0  0  0  0  0  0  0  0  0
  147.8316  133.2376  160.0605 H   0  0  0  0  0  0  0  0  0  0  0  0
  146.1436  133.6054  160.4261 H   0  0  0  0  0  0  0  0  0  0  0  0
  147.1326  135.4096  159.0095 H   0  0  0  0  0  0  0  0  0  0  0  0
  146.6997  137.0422  159.4697 H   0  0  0  0  0  0  0  0  0  0  0  0
  148.0331  138.6893  158.9161 H   0  0  0  0  0  0  0  0  0  0  0  0
  150.8743  138.6251  158.6548 H   0  0  0  0  0  0  0  0  0  0  0  0
  150.1307  138.4020  157.0867 H   0  0  0  0  0  0  0  0  0  0  0  0
  149.1356  140.5595  157.0879 H   0  0  0  0  0  0  0  0  0  0  0  0
  149.0624  140.6148  158.8262 H   0  0  0  0  0  0  0  0  0  0  0  0
  149.9552  142.9774  157.4974 H   0  0  0  0  0  0  0  0  0  0  0  0
  150.0396  142.6757  159.2185 H   0  0  0  0  0  0  0  0  0  0  0  0
  152.3823  143.4268  157.3947 H   0  0  0  0  0  0  0  0  0  0  0  0
  150.9018  145.3613  157.9641 H   0  0  0  0  0  0  0  0  0  0  0  0
  152.4679  145.5034  158.7574 H   0  0  0  0  0  0  0  0  0  0  0  0
  151.0597  144.9826  159.6789 H   0  0  0  0  0  0  0  0  0  0  0  0
  153.6440  141.5087  158.1734 H   0  0  0  0  0  0  0  0  0  0  0  0
  154.3735  140.0971  160.1053 H   0  0  0  0  0  0  0  0  0  0  0  0
  153.5576  141.1930  161.2201 H   0  0  0  0  0  0  0  0  0  0  0  0
  154.9383  141.7559  160.2817 H   0  0  0  0  0  0  0  0  0  0  0  0
  151.3414  140.7095  160.0270 H   0  0  0  0  0  0  0  0  0  0  0  0
  152.1112  139.6724  158.8480 H   0  0  0  0  0  0  0  0  0  0  0  0
  1  2  1  0  0  0  0
  1 22  1  0  0  0  0
  1 23  1  0  0  0  0
  1 24  1  0  0  0  0
  2 21  2  0  0  0  0
  2  3  1  0  0  0  0
  3  4  2  0  0  0  0
  3 25  1  0  0  0  0
  4  5  1  0  0  0  0
  4  6  1  0  0  0  0
  5 26  1  0  0  0  0
  5 27  1  0  0  0  0
  5 28  1  0  0  0  0
  6  7  1  0  0  0  0
  6 21  1  0  0  0  0
  7  8  1  0  0  0  0
  7 29  1  0  0  0  0
  7 30  1  0  0  0  0
  8  9  2  0  0  0  0
  8 10  1  0  0  0  0
 10 11  1  0  0  0  0
 10 31  1  0  0  0  0
 11 12  1  0  0  0  0
 11 32  1  0  0  0  0
 11 33  1  0  0  0  0
 12 13  1  0  0  0  0
 12 34  1  0  0  0  0
 12 35  1  0  0  0  0
 13 20  1  0  0  0  0
 13 14  1  0  0  0  0
 14 15  1  0  0  0  0
 14 36  1  0  0  0  0
 14 37  1  0  0  0  0
 15 16  1  0  0  0  0
 15 17  1  0  0  0  0
 15 38  1  0  0  0  0
 16 39  1  0  0  0  0
 16 40  1  0  0  0  0
 16 41  1  0  0  0  0
 17 18  1  0  0  0  0
 18 19  1  0  0  0  0
 18 20  1  0  0  0  0
 18 42  1  0  0  0  0
 19 43  1  0  0  0  0
 19 44  1  0  0  0  0
 19 45  1  0  0  0  0
 20 46  1  0  0  0  0
 20 47  1  0  0  0  0
M  END
> <s_m_source_file>
AV-unprocessed.smi

> <i_m_source_file_index>
2106

> <i_lp_mmshare_version>
43012

> <i_f3d_flags>
0

> <s_epik_input>
W0NIM11jMVtjSF1jKFtDSDNdKW4objEpW0NIMl1DKD1PKVtOSF1bQ0gyXVtDSDJdTjJbQ0gyXVtDQEBIXShbQ0gzXSlPW0NAQEhdKFtDSDNdKVtDSDJdMg==

> <s_epik_cmdline>
J2VwaWtfcHl0aG9uJywgJy1waCcsICc3LjAnLCAnLXRuJywgJzgnLCAnLW1hJywgJzIwMCcsICctbWV0YWxfYmluZGluZycsICctaW1hZScsICc8aW5maWxlLm1hZT4nLCAnLW9tYWUnLCAnPG91dGZpbGUubWFlPic=

> <r_lp_tautomer_probability>
1

> <r_epik_Ionization_Penalty>
0.197284

> <r_epik_Ionization_Penalty_Charging>
0

> <r_epik_Ionization_Penalty_Neutral>
0.197284

> <r_epik_State_Penalty>
0.186684

> <r_epik_Charging_Adjusted_Penalty>
0.186684

> <i_epik_Tot_Q>
0

> <i_epik_Tot_abs_Q>
0

> <r_epik_Metal_State_Penalty>
0.186634

> <b_epik_Metal_Only>
0

> <s_lp_Force_Field>
OPLS_2005

> <r_lp_Energy>
17.5566

> <b_lp_Chiralities_Consistent>
1

> <s_lp_Variant>
AV-unprocessed.smi:2106-1

> <Gold.Version>
5.8.1

> <Gold.Id.Protein>
6NUR|6NUR_protein|mol2

> <Gold.PLP.Fitness>
50.8459

> <Gold.PLP.PLP>
-43.9384

> <Gold.PLP.part.hbond>
-3.0000

> <Gold.PLP.part.metal>
0.0000

> <Gold.PLP.part.buried>
-3.9425

> <Gold.PLP.part.nonpolar>
-37.0489

> <Gold.PLP.part.repulsive>
0.2030

> <Gold.PLP.ligand.clash>
0.0000

> <Gold.PLP.ligand.torsion>
0.4398

> <Gold.PLP.Chemscore.Hbond>
2.5906

> <Gold.PLP.Chemscore.CHOScore>
0.0000

> <Gold.PLP.Chemscore.Metal>
0.0000

> <Gold.Chemscore.Hbonds>
donor molecule, donor type, donor heavy atom, donor atom, acceptor molecule, acceptor atom, score
      P1  H  6896  6907       L1     9  1.00
      P1  H  6931  6943       L1    21  1.00

> <Gold.PLP.Chemscore.Internal.Correction>
0.0151

> <Gold.Rescore>
     Score         DG    S(hbond)    S(metal)    S(lipo)     H(rot)  DE(clash)    DE(int)     intcor
     19.36     -20.99       1.99        0.00     112.14       1.67       1.16       0.46       ----

> <Gold.Chemscore.Fitness>
19.3644

> <Gold.Chemscore.DG>
-20.9879

> <Gold.Chemscore.ZeroCoef>
-5.4800

> <Gold.Chemscore.Hbond>
1.9914

> <Gold.Chemscore.Metal>
0.0000

> <Gold.Chemscore.Lipo>
112.1418

> <Gold.Chemscore.Internal_Hbond>
0.0000

> <Gold.Chemscore.DEClash>
1.1600

> <Gold.Chemscore.DEInternal>
0.4634

> <Gold.Chemscore.Rot>
1.6657

> <Gold.Chemscore.Internal.Correction>
   9.000000E+99

> <Gold.Chemscore.Hbonds>
donor molecule, donor type, donor heavy atom, donor atom, acceptor molecule, acceptor atom, score
      P1  H  6896  6907       L1     9  0.95
      P1  H  6931  6943       L1    21  0.50
      P1  H  6934  6947       L1    21  0.02

> <Gold.Chemscore.Hbond.Weighted>
-6.6514

> <Gold.Chemscore.Metal.Weighted>
-0.0000

> <Gold.Chemscore.Lipo.Weighted>
-13.1206

> <Gold.Chemscore.Internal_Hbond.Weighted>
0.0000

> <Gold.Chemscore.DEClash.Weighted>
1.1600

> <Gold.Chemscore.DEInternal.Weighted>
0.4634

> <Gold.Chemscore.Rot.Weighted>
4.2641

> <Gold.Chemscore.Internal.Correction.Weighted>
   9.000000E+99

> <Gold.Protein.RotatedTorsions>
[ 6907 6896 6895 6894 ] final  -72.39 input  -60.11 | X-H torsion
[ 7974 7965 7964 7962 ] final  -77.12 input  175.53 | X-H torsion
[ 8008 7997 7996 7995 ] final  -83.53 input   59.86 | X-H torsion
[ 10167 10162 10161 10158 ] final  -72.57 input  -65.29 | X-H torsion
[ 10718 10713 10712 10709 ] final -112.45 input   66.30 | X-H torsion
[ 10763 10752 10751 10750 ] final  104.05 input  -60.55 | X-H torsion
[ 11005 11000 10999 10996 ] final    2.42 input  -57.11 | X-H torsion

> <Gold.Protein.ActiveResidues>
 VAL166  LYS551  ARG553  GLY616  TRP617  ASP618  TYR619  PRO620  LYS621  CYS622 
 ASP623  PHE694  ASN695  SER759  ASP760  ASP761  ALA762  ILE779  LEU786  VAL792 
 PHE793  MET794  SER795  GLU796  ALA797  LYS798  CYS799  TRP800  GLU811  SER814 

> <Gold.Protein.RotatedAtoms>
  150.7172  134.5169  159.5634 H   0  0  0  0  0  0  0  0  0  0  0  0  # atno 6907 bound_to 6896
  152.2733  134.7906  160.0419 H   0  0  0  0  0  0  0  0  0  0  0  0  # atno 6908 bound_to 6896
  151.8578  133.3416  159.3731 H   0  0  0  0  0  0  0  0  0  0  0  0  # atno 6909 bound_to 6896
  145.6039  140.9402  143.1226 H   0  0  0  0  0  0  0  0  0  0  0  0  # atno 7974 bound_to 7965
  154.6201  140.0617  156.9604 H   0  0  0  0  0  0  0  0  0  0  0  0  # atno 8008 bound_to 7997
  155.1831  140.3301  155.4353 H   0  0  0  0  0  0  0  0  0  0  0  0  # atno 8009 bound_to 7997
  156.2427  140.1894  156.6926 H   0  0  0  0  0  0  0  0  0  0  0  0  # atno 8010 bound_to 7997
  140.5182  143.2335  151.7476 H   0  0  0  0  0  0  0  0  0  0  0  0  # atno 10167 bound_to 10162
  156.0706  130.5920  150.8510 H   0  0  0  0  0  0  0  0  0  0  0  0  # atno 10718 bound_to 10713
  153.3607  135.3956  155.1716 H   0  0  0  0  0  0  0  0  0  0  0  0  # atno 10763 bound_to 10752
  154.8678  135.3679  154.5103 H   0  0  0  0  0  0  0  0  0  0  0  0  # atno 10764 bound_to 10752
  153.5562  135.7082  153.5629 H   0  0  0  0  0  0  0  0  0  0  0  0  # atno 10765 bound_to 10752
  140.6045  133.9805  155.8148 H   0  0  0  0  0  0  0  0  0  0  0  0  # atno 11005 bound_to 11000
  144.7298  139.7761  143.7351 LP  0  0  0  0  0  0  0  0  0  0  0  0  # atno 17320 bound_to 7965
  146.1555  139.4652  143.0021 LP  0  0  0  0  0  0  0  0  0  0  0  0  # atno 17321 bound_to 7965
  139.4915  144.4293  151.9890 LP  0  0  0  0  0  0  0  0  0  0  0  0  # atno 17342 bound_to 10162
  140.3389  144.3227  150.5971 LP  0  0  0  0  0  0  0  0  0  0  0  0  # atno 17343 bound_to 10162
  157.5775  131.0946  150.9323 LP  0  0  0  0  0  0  0  0  0  0  0  0  # atno 17370 bound_to 10713
  156.9526  130.5425  149.5283 LP  0  0  0  0  0  0  0  0  0  0  0  0  # atno 17371 bound_to 10713
  141.0850  134.0005  157.3328 LP  0  0  0  0  0  0  0  0  0  0  0  0  # atno 17394 bound_to 11000
  139.9218  135.0200  156.8092 LP  0  0  0  0  0  0  0  0  0  0  0  0  # atno 17395 bound_to 11000

$$$$
