AV-unprocessed.smi:2706|AV-procd|sdf|10448|dock9
  -GOLD-   2272014493D 1   1.00000     0.00000
 Structure written by MMmdl.
 44 47  0  0  0  0  0  0  0  0  2 V2000
  145.6382  143.1938  156.0899 C   0  0  0  0  0  0  0  0  0  0  0  0
  145.8955  142.8027  154.7099 N   0  0  0  0  0  0  0  0  0  0  0  0
  145.5574  143.7095  153.6183 C   0  0  0  0  0  0  0  0  0  0  0  0
  146.6273  141.6261  154.4427 C   0  0  0  0  0  0  0  0  0  0  0  0
  147.9351  141.3985  154.9328 C   0  0  0  0  0  0  0  0  0  0  0  0
  148.5958  140.1957  154.6184 C   0  0  0  0  0  0  0  0  0  0  0  0
  147.9473  139.2332  153.8203 C   0  0  0  0  0  0  0  0  0  0  0  0
  146.6373  139.4912  153.3449 C   0  0  0  0  0  0  0  0  0  0  0  0
  145.8686  138.6106  152.5330 N   0  0  0  0  0  0  0  0  0  0  0  0
  146.0730  137.3136  152.2392 C   0  0  0  0  0  0  0  0  0  0  0  0
  147.0093  136.6264  152.6455 O   0  0  0  0  0  0  0  0  0  0  0  0
  145.1118  136.8466  151.4296 N   0  0  0  0  0  0  0  0  0  0  0  0
  145.0243  135.5132  150.9279 C   0  0  2  0  0  0  0  0  0  0  0  0
  144.1082  134.5595  151.6668 C   0  0  1  0  0  0  0  0  0  0  0  0
  143.6641  133.1718  151.2098 C   0  0  1  0  0  0  0  0  0  0  0  0
  144.0909  132.8977  149.7529 C   0  0  0  0  0  0  0  0  0  0  0  0
  145.6238  132.7511  149.8768 C   0  0  0  0  0  0  0  0  0  0  0  0
  145.8573  132.9622  151.3870 C   0  0  2  0  0  0  0  0  0  0  0  0
  144.6299  132.2661  151.9670 C   0  0  0  0  0  0  0  0  0  0  0  0
  145.6158  134.4156  151.7884 C   0  0  1  0  0  0  0  0  0  0  0  0
  146.0516  140.6642  153.6801 N   0  3  0  0  0  0  0  0  0  0  0  0
  146.5748  143.3056  156.6373 H   0  0  0  0  0  0  0  0  0  0  0  0
  145.0257  142.4454  156.5939 H   0  0  0  0  0  0  0  0  0  0  0  0
  145.1079  144.1451  156.1403 H   0  0  0  0  0  0  0  0  0  0  0  0
  146.4623  144.1005  153.1518 H   0  0  0  0  0  0  0  0  0  0  0  0
  144.9716  144.5573  153.9743 H   0  0  0  0  0  0  0  0  0  0  0  0
  144.9675  143.1954  152.8589 H   0  0  0  0  0  0  0  0  0  0  0  0
  148.4430  142.1271  155.5468 H   0  0  0  0  0  0  0  0  0  0  0  0
  149.5942  140.0121  154.9878 H   0  0  0  0  0  0  0  0  0  0  0  0
  148.4771  138.3215  153.5958 H   0  0  0  0  0  0  0  0  0  0  0  0
  145.0509  139.0257  152.1114 H   0  0  0  0  0  0  0  0  0  0  0  0
  144.3806  137.4813  151.1436 H   0  0  0  0  0  0  0  0  0  0  0  0
  145.1026  135.4022  149.8492 H   0  0  0  0  0  0  0  0  0  0  0  0
  143.5979  134.9315  152.5539 H   0  0  0  0  0  0  0  0  0  0  0  0
  142.6079  132.9890  151.4091 H   0  0  0  0  0  0  0  0  0  0  0  0
  143.6482  131.9689  149.3901 H   0  0  0  0  0  0  0  0  0  0  0  0
  143.7890  133.6927  149.0706 H   0  0  0  0  0  0  0  0  0  0  0  0
  145.9357  131.7502  149.5749 H   0  0  0  0  0  0  0  0  0  0  0  0
  146.1737  133.4643  149.2622 H   0  0  0  0  0  0  0  0  0  0  0  0
  146.8141  132.5863  151.7504 H   0  0  0  0  0  0  0  0  0  0  0  0
  144.5514  132.3625  153.0515 H   0  0  0  0  0  0  0  0  0  0  0  0
  144.5513  131.2118  151.6938 H   0  0  0  0  0  0  0  0  0  0  0  0
  146.0396  134.6981  152.7507 H   0  0  0  0  0  0  0  0  0  0  0  0
  145.1087  140.8435  153.3357 H   0  0  0  0  0  0  0  0  0  0  0  0
  1  2  1  0  0  0  0
  1 22  1  0  0  0  0
  1 23  1  0  0  0  0
  1 24  1  0  0  0  0
  2  3  1  0  0  0  0
  2  4  1  0  0  0  0
  3 25  1  0  0  0  0
  3 26  1  0  0  0  0
  3 27  1  0  0  0  0
  4 21  1  0  0  0  0
  4  5  2  0  0  0  0
  5  6  1  0  0  0  0
  5 28  1  0  0  0  0
  6  7  2  0  0  0  0
  6 29  1  0  0  0  0
  7  8  1  0  0  0  0
  7 30  1  0  0  0  0
  8  9  1  0  0  0  0
  8 21  2  0  0  0  0
  9 10  1  0  0  0  0
  9 31  1  0  0  0  0
 10 11  2  0  0  0  0
 10 12  1  0  0  0  0
 12 13  1  0  0  0  0
 12 32  1  0  0  0  0
 13 20  1  0  0  0  0
 13 14  1  0  0  0  0
 13 33  1  0  0  0  0
 14 20  1  0  0  0  0
 14 15  1  0  0  0  0
 14 34  1  0  0  0  0
 15 19  1  0  0  0  0
 15 16  1  0  0  0  0
 15 35  1  0  0  0  0
 16 17  1  0  0  0  0
 16 36  1  0  0  0  0
 16 37  1  0  0  0  0
 17 18  1  0  0  0  0
 17 38  1  0  0  0  0
 17 39  1  0  0  0  0
 18 19  1  0  0  0  0
 18 20  1  0  0  0  0
 18 40  1  0  0  0  0
 19 41  1  0  0  0  0
 19 42  1  0  0  0  0
 20 43  1  0  0  0  0
 21 44  1  0  0  0  0
M  CHG  1  21   1
M  END
> <s_m_source_file>
AV-unprocessed.smi

> <i_m_source_file_index>
2706

> <i_lp_mmshare_version>
43012

> <i_f3d_flags>
0

> <s_epik_input>
W0NIM11OKFtDSDNdKWMxW2NIXVtjSF1bY0hdYyhuMSlbTkhdQyg9TylbTkhdW0NASF0yW0NAQEhdM1tDQEBIXShbQ0gyXTQpW0NIMl1bQ0gyXVtDQEBIXTRbQ0BIXTIz

> <s_epik_cmdline>
J2VwaWtfcHl0aG9uJywgJy1waCcsICc3LjAnLCAnLXRuJywgJzgnLCAnLW1hJywgJzIwMCcsICctbWV0YWxfYmluZGluZycsICctaW1hZScsICc8aW5maWxlLm1hZT4nLCAnLW9tYWUnLCAnPG91dGZpbGUubWFlPic=

> <r_lp_tautomer_probability>
0.999994

> <r_epik_Ionization_Penalty>
1.8105

> <r_epik_Ionization_Penalty_Charging>
1.79227

> <r_epik_Ionization_Penalty_Neutral>
0.0182286

> <r_epik_State_Penalty>
1.90588

> <r_epik_Charging_Adjusted_Penalty>
3.69815

> <i_epik_Tot_Q>
1

> <i_epik_Tot_abs_Q>
1

> <r_epik_Metal_State_Penalty>
1.93501

> <b_epik_Metal_Only>
0

> <s_lp_Force_Field>
OPLS_2005

> <r_lp_Energy>
87.3902

> <b_lp_Chiralities_Consistent>
1

> <s_lp_Variant>
AV-unprocessed.smi:2706-5

> <Gold.Version>
5.8.1

> <Gold.Id.Protein>
6NUR|6NUR_protein|mol2

> <Gold.PLP.Fitness>
44.5314

> <Gold.PLP.PLP>
-36.4634

> <Gold.PLP.part.hbond>
-3.0000

> <Gold.PLP.part.metal>
0.0000

> <Gold.PLP.part.buried>
-5.1826

> <Gold.PLP.part.nonpolar>
-35.7673

> <Gold.PLP.part.repulsive>
6.7736

> <Gold.PLP.ligand.clash>
0.0000

> <Gold.PLP.ligand.torsion>
1.5369

> <Gold.PLP.Chemscore.Hbond>
3.6960

> <Gold.PLP.Chemscore.CHOScore>
0.0000

> <Gold.PLP.Chemscore.Metal>
0.0000

> <Gold.Chemscore.Hbonds>
donor molecule, donor type, donor heavy atom, donor atom, acceptor molecule, acceptor atom, score
      L1  H     9    31       P1 10175  0.83
      L1  H    12    32       P1 10171  0.86
      L1  H    21    44       P1 10175  2.00

> <Gold.PLP.Chemscore.Internal.Correction>
0.0538

> <Gold.Rescore>
     Score         DG    S(hbond)    S(metal)    S(lipo)     H(rot)  DE(clash)    DE(int)     intcor
     14.68     -20.67       2.52        0.00      79.68       1.00       2.24       3.75       ----

> <Gold.Chemscore.Fitness>
14.6777

> <Gold.Chemscore.DG>
-20.6697

> <Gold.Chemscore.ZeroCoef>
-5.4800

> <Gold.Chemscore.Hbond>
2.5232

> <Gold.Chemscore.Metal>
0.0000

> <Gold.Chemscore.Lipo>
79.6780

> <Gold.Chemscore.Internal_Hbond>
0.0000

> <Gold.Chemscore.DEClash>
2.2421

> <Gold.Chemscore.DEInternal>
3.7500

> <Gold.Chemscore.Rot>
1.0000

> <Gold.Chemscore.Internal.Correction>
   9.000000E+99

> <Gold.Chemscore.Hbonds>
donor molecule, donor type, donor heavy atom, donor atom, acceptor molecule, acceptor atom, score
      L1  H     9    31       P1 10175  0.78
      L1  H    12    32       P1 10171  0.85
      L1  H    21    44       P1 10175  0.73

> <Gold.Chemscore.Hbond.Weighted>
-8.4274

> <Gold.Chemscore.Metal.Weighted>
-0.0000

> <Gold.Chemscore.Lipo.Weighted>
-9.3223

> <Gold.Chemscore.Internal_Hbond.Weighted>
0.0000

> <Gold.Chemscore.DEClash.Weighted>
2.2421

> <Gold.Chemscore.DEInternal.Weighted>
3.7500

> <Gold.Chemscore.Rot.Weighted>
2.5600

> <Gold.Chemscore.Internal.Correction.Weighted>
   9.000000E+99

> <Gold.Protein.RotatedTorsions>
[ 6907 6896 6895 6894 ] final -162.08 input  -60.11 | X-H torsion
[ 7974 7965 7964 7962 ] final   -6.48 input  175.53 | X-H torsion
[ 8008 7997 7996 7995 ] final   -6.58 input   59.86 | X-H torsion
[ 10167 10162 10161 10158 ] final    3.31 input  -65.29 | X-H torsion
[ 10718 10713 10712 10709 ] final -125.28 input   66.30 | X-H torsion
[ 10763 10752 10751 10750 ] final  -32.24 input  -60.55 | X-H torsion
[ 11005 11000 10999 10996 ] final   65.22 input  -57.11 | X-H torsion

> <Gold.Protein.ActiveResidues>
 VAL166  LYS551  ARG553  GLY616  TRP617  ASP618  TYR619  PRO620  LYS621  CYS622 
 ASP623  PHE694  ASN695  SER759  ASP760  ASP761  ALA762  ILE779  LEU786  VAL792 
 PHE793  MET794  SER795  GLU796  ALA797  LYS798  CYS799  TRP800  GLU811  SER814 

> <Gold.Protein.RotatedAtoms>
  151.3747  133.3842  159.2703 H   0  0  0  0  0  0  0  0  0  0  0  0  # atno 6907 bound_to 6896
  150.9624  134.9010  159.7749 H   0  0  0  0  0  0  0  0  0  0  0  0  # atno 6908 bound_to 6896
  152.5154  134.3707  159.9369 H   0  0  0  0  0  0  0  0  0  0  0  0  # atno 6909 bound_to 6896
  146.2330  140.2177  142.8336 H   0  0  0  0  0  0  0  0  0  0  0  0  # atno 7974 bound_to 7965
  154.5923  140.2429  155.7903 H   0  0  0  0  0  0  0  0  0  0  0  0  # atno 8008 bound_to 7997
  156.2256  140.2984  156.0012 H   0  0  0  0  0  0  0  0  0  0  0  0  # atno 8009 bound_to 7997
  155.2352  140.0405  157.2958 H   0  0  0  0  0  0  0  0  0  0  0  0  # atno 8010 bound_to 7997
  140.6592  143.7348  150.7708 H   0  0  0  0  0  0  0  0  0  0  0  0  # atno 10167 bound_to 10162
  156.1661  130.6636  151.0117 H   0  0  0  0  0  0  0  0  0  0  0  0  # atno 10718 bound_to 10713
  153.8105  135.6882  153.4841 H   0  0  0  0  0  0  0  0  0  0  0  0  # atno 10763 bound_to 10752
  153.1631  135.4572  154.9798 H   0  0  0  0  0  0  0  0  0  0  0  0  # atno 10764 bound_to 10752
  154.7969  135.3322  154.7586 H   0  0  0  0  0  0  0  0  0  0  0  0  # atno 10765 bound_to 10752
  139.9908  134.6594  156.0094 H   0  0  0  0  0  0  0  0  0  0  0  0  # atno 11005 bound_to 11000
  144.9656  140.8319  143.5486 LP  0  0  0  0  0  0  0  0  0  0  0  0  # atno 17320 bound_to 7965
  145.2153  139.2185  143.5121 LP  0  0  0  0  0  0  0  0  0  0  0  0  # atno 17321 bound_to 7965
  140.1014  143.4784  152.2423 LP  0  0  0  0  0  0  0  0  0  0  0  0  # atno 17342 bound_to 10162
  139.5821  144.7515  151.3612 LP  0  0  0  0  0  0  0  0  0  0  0  0  # atno 17343 bound_to 10162
  157.6769  131.0848  150.7471 LP  0  0  0  0  0  0  0  0  0  0  0  0  # atno 17370 bound_to 10713
  156.7532  130.4775  149.5452 LP  0  0  0  0  0  0  0  0  0  0  0  0  # atno 17371 bound_to 10713
  141.1564  133.6542  156.4177 LP  0  0  0  0  0  0  0  0  0  0  0  0  # atno 17394 bound_to 11000
  140.4911  134.6574  157.5211 LP  0  0  0  0  0  0  0  0  0  0  0  0  # atno 17395 bound_to 11000

$$$$
