AV-unprocessed.smi:1046|AV-procd|sdf|4558|dock2
  -GOLD-   22720 2593D 1   1.00000     0.00000
 Structure written by MMmdl.
 54 56  0  0  0  0  0  0  0  0  3 V2000
  152.5874  143.2871  161.8523 C   0  0  0  0  0  0  0  0  0  0  0  0
  152.1853  142.8051  160.4688 C   0  0  0  0  0  0  0  0  0  0  0  0
  152.3396  141.4347  160.1607 C   0  0  0  0  0  0  0  0  0  0  0  0
  151.9658  141.0247  158.8864 C   0  0  0  0  0  0  0  0  0  0  0  0
  151.9985  139.7648  158.2854 N   0  3  0  0  0  0  0  0  0  0  0  0
  151.5279  139.8566  157.0110 C   0  0  0  0  0  0  0  0  0  0  0  0
  151.1960  141.1573  156.7881 N   0  0  0  0  0  0  0  0  0  0  0  0
  150.6377  141.7887  155.5833 C   0  0  0  0  0  0  0  0  0  0  0  0
  149.5072  140.9605  154.9378 C   0  0  2  0  0  0  0  0  0  0  0  0
  149.6788  140.9342  153.5357 O   0  0  0  0  0  0  0  0  0  0  0  0
  148.1093  141.5448  155.2220 C   0  0  0  0  0  0  0  0  0  0  0  0
  147.1408  141.4276  154.1255 N   0  0  0  0  0  0  0  0  0  0  0  0
  146.5881  140.0790  154.0006 C   0  0  0  0  0  0  0  0  0  0  0  0
  145.6046  139.7153  155.1318 C   0  0  0  0  0  0  0  0  0  0  0  0
  144.4941  140.7007  155.1900 N   0  3  0  0  0  0  0  0  0  0  0  0
  143.4801  140.3515  156.2171 C   0  0  0  0  0  0  0  0  0  0  0  0
  142.0416  140.6381  155.7535 C   0  0  0  0  0  0  0  0  0  0  0  0
  142.0575  141.3445  154.5308 O   0  0  0  0  0  0  0  0  0  0  0  0
  145.0268  142.0833  155.3203 C   0  0  0  0  0  0  0  0  0  0  0  0
  146.0292  142.3805  154.1860 C   0  0  0  0  0  0  0  0  0  0  0  0
  151.4510  141.9237  157.9320 C   0  0  0  0  0  0  0  0  0  0  0  0
  151.2916  143.2776  158.2203 C   0  0  0  0  0  0  0  0  0  0  0  0
  151.6669  143.7146  159.5108 C   0  0  0  0  0  0  0  0  0  0  0  0
  151.5051  145.1862  159.8523 C   0  0  0  0  0  0  0  0  0  0  0  0
  153.0199  142.4807  162.4455 H   0  0  0  0  0  0  0  0  0  0  0  0
  151.7199  143.6695  162.3906 H   0  0  0  0  0  0  0  0  0  0  0  0
  153.3304  144.0818  161.7817 H   0  0  0  0  0  0  0  0  0  0  0  0
  152.7327  140.7363  160.8851 H   0  0  0  0  0  0  0  0  0  0  0  0
  151.4337  139.0434  156.3056 H   0  0  0  0  0  0  0  0  0  0  0  0
  150.2572  142.7649  155.8858 H   0  0  0  0  0  0  0  0  0  0  0  0
  151.4411  141.9850  154.8728 H   0  0  0  0  0  0  0  0  0  0  0  0
  149.5662  139.9277  155.2801 H   0  0  0  0  0  0  0  0  0  0  0  0
  149.4964  140.0595  153.2279 H   0  0  0  0  0  0  0  0  0  0  0  0
  147.7093  141.0331  156.0990 H   0  0  0  0  0  0  0  0  0  0  0  0
  148.2141  142.5883  155.5179 H   0  0  0  0  0  0  0  0  0  0  0  0
  146.0710  139.9950  153.0438 H   0  0  0  0  0  0  0  0  0  0  0  0
  147.3971  139.3483  153.9640 H   0  0  0  0  0  0  0  0  0  0  0  0
  145.1990  138.7200  154.9462 H   0  0  0  0  0  0  0  0  0  0  0  0
  146.1154  139.6713  156.0945 H   0  0  0  0  0  0  0  0  0  0  0  0
  143.5564  139.2911  156.4627 H   0  0  0  0  0  0  0  0  0  0  0  0
  143.6963  140.8935  157.1390 H   0  0  0  0  0  0  0  0  0  0  0  0
  141.5129  139.6977  155.5956 H   0  0  0  0  0  0  0  0  0  0  0  0
  141.4719  141.1968  156.4954 H   0  0  0  0  0  0  0  0  0  0  0  0
  142.7530  140.9990  153.9909 H   0  0  0  0  0  0  0  0  0  0  0  0
  144.2131  142.8052  155.2654 H   0  0  0  0  0  0  0  0  0  0  0  0
  145.4938  142.2144  156.2971 H   0  0  0  0  0  0  0  0  0  0  0  0
  146.4016  143.4000  154.2755 H   0  0  0  0  0  0  0  0  0  0  0  0
  145.4942  142.3537  153.2358 H   0  0  0  0  0  0  0  0  0  0  0  0
  150.9027  143.9728  157.4910 H   0  0  0  0  0  0  0  0  0  0  0  0
  151.0419  145.7373  159.0334 H   0  0  0  0  0  0  0  0  0  0  0  0
  152.4757  145.6403  160.0536 H   0  0  0  0  0  0  0  0  0  0  0  0
  150.8750  145.3099  160.7334 H   0  0  0  0  0  0  0  0  0  0  0  0
  144.0241  140.6471  154.2972 H   0  0  0  0  0  0  0  0  0  0  0  0
  152.3170  138.9038  158.7116 H   0  0  0  0  0  0  0  0  0  0  0  0
  1  2  1  0  0  0  0
  1 25  1  0  0  0  0
  1 26  1  0  0  0  0
  1 27  1  0  0  0  0
  2 23  1  0  0  0  0
  2  3  2  0  0  0  0
  3  4  1  0  0  0  0
  3 28  1  0  0  0  0
  4 21  2  0  0  0  0
  4  5  1  0  0  0  0
  5  6  2  0  0  0  0
  5 54  1  0  0  0  0
  6  7  1  0  0  0  0
  6 29  1  0  0  0  0
  7  8  1  0  0  0  0
  7 21  1  0  0  0  0
  8  9  1  0  0  0  0
  8 30  1  0  0  0  0
  8 31  1  0  0  0  0
  9 10  1  0  0  0  0
  9 11  1  0  0  0  0
  9 32  1  0  0  0  0
 10 33  1  0  0  0  0
 11 12  1  0  0  0  0
 11 34  1  0  0  0  0
 11 35  1  0  0  0  0
 12 20  1  0  0  0  0
 12 13  1  0  0  0  0
 13 14  1  0  0  0  0
 13 36  1  0  0  0  0
 13 37  1  0  0  0  0
 14 15  1  0  0  0  0
 14 38  1  0  0  0  0
 14 39  1  0  0  0  0
 15 16  1  0  0  0  0
 15 19  1  0  0  0  0
 15 53  1  0  0  0  0
 16 17  1  0  0  0  0
 16 40  1  0  0  0  0
 16 41  1  0  0  0  0
 17 18  1  0  0  0  0
 17 42  1  0  0  0  0
 17 43  1  0  0  0  0
 18 44  1  0  0  0  0
 19 20  1  0  0  0  0
 19 45  1  0  0  0  0
 19 46  1  0  0  0  0
 20 47  1  0  0  0  0
 20 48  1  0  0  0  0
 21 22  1  0  0  0  0
 22 23  2  0  0  0  0
 22 49  1  0  0  0  0
 23 24  1  0  0  0  0
 24 50  1  0  0  0  0
 24 51  1  0  0  0  0
 24 52  1  0  0  0  0
M  CHG  1   5   1
M  CHG  1  15   1
M  END
> <s_m_source_file>
AV-unprocessed.smi

> <i_m_source_file_index>
1046

> <i_lp_mmshare_version>
43012

> <i_f3d_flags>
0

> <s_epik_input>
W0NIM11jKFtjSF0xKWMoW0NIM10pW2NIXWMoYzEyKW4oW2NIXW4yKVtDSDJdW0NASF0oW09IXSlbQ0gyXU4zW0NIMl1bQ0gyXU4oW0NIMl1bQ0gyXTMpW0NIMl1bQ0gyXVtPSF0=

> <s_epik_cmdline>
J2VwaWtfcHl0aG9uJywgJy1waCcsICc3LjAnLCAnLXRuJywgJzgnLCAnLW1hJywgJzIwMCcsICctbWV0YWxfYmluZGluZycsICctaW1hZScsICc8aW5maWxlLm1hZT4nLCAnLW9tYWUnLCAnPG91dGZpbGUubWFlPic=

> <r_epik_Ionization_Penalty>
1.37806

> <r_epik_Ionization_Penalty_Charging>
1.32954

> <r_epik_Ionization_Penalty_Neutral>
0.0485178

> <r_epik_State_Penalty>
2.26587

> <r_epik_Charging_Adjusted_Penalty>
3.59541

> <i_epik_Tot_Q>
2

> <i_epik_Tot_abs_Q>
2

> <r_epik_Metal_State_Penalty>
6.27317

> <b_epik_Metal_Only>
0

> <s_lp_Force_Field>
OPLS_2005

> <r_lp_Energy>
41.5641

> <b_lp_Chiralities_Consistent>
1

> <s_lp_Variant>
AV-unprocessed.smi:1046-11

> <Gold.Version>
5.8.1

> <Gold.Id.Protein>
6NUR|6NUR_protein|mol2

> <Gold.PLP.Fitness>
55.5655

> <Gold.PLP.PLP>
-46.9341

> <Gold.PLP.part.hbond>
-5.9883

> <Gold.PLP.part.metal>
0.0000

> <Gold.PLP.part.buried>
-4.4251

> <Gold.PLP.part.nonpolar>
-36.3038

> <Gold.PLP.part.repulsive>
0.2389

> <Gold.PLP.ligand.clash>
0.0000

> <Gold.PLP.ligand.torsion>
2.3486

> <Gold.PLP.Chemscore.Hbond>
4.4284

> <Gold.PLP.Chemscore.CHOScore>
0.0000

> <Gold.PLP.Chemscore.Metal>
0.0000

> <Gold.Chemscore.Hbonds>
donor molecule, donor type, donor heavy atom, donor atom, acceptor molecule, acceptor atom, score
      L1  H    10    33       P1  7957  0.16
      L1  H    15    53       P1 10175  2.00
      L1  H    18    44       P1 10175  0.95
      P1  H  7989  7998       L1    10  0.29
      P1  H  8011  8017       L1    10  1.00

> <Gold.PLP.Chemscore.Internal.Correction>
0.0433

> <Gold.Rescore>
     Score         DG    S(hbond)    S(metal)    S(lipo)     H(rot)  DE(clash)    DE(int)     intcor
     17.38     -20.83       3.09        0.00     114.91       3.29       1.21       2.25       ----

> <Gold.Chemscore.Fitness>
17.3772

> <Gold.Chemscore.DG>
-20.8320

> <Gold.Chemscore.ZeroCoef>
-5.4800

> <Gold.Chemscore.Hbond>
3.0927

> <Gold.Chemscore.Metal>
0.0000

> <Gold.Chemscore.Lipo>
114.9051

> <Gold.Chemscore.Internal_Hbond>
0.0000

> <Gold.Chemscore.DEClash>
1.2066

> <Gold.Chemscore.DEInternal>
2.2482

> <Gold.Chemscore.Rot>
3.2896

> <Gold.Chemscore.Internal.Correction>
   9.000000E+99

> <Gold.Chemscore.Hbonds>
donor molecule, donor type, donor heavy atom, donor atom, acceptor molecule, acceptor atom, score
      L1  H    10    33       P1  7957  0.16
      L1  H    15    53       P1 10175  0.99
      L1  H    18    44       P1 10175  0.21
      P1  H  7989  7998       L1    10  0.02
      P1  H  8011  8017       L1    10  0.95

> <Gold.Chemscore.Hbond.Weighted>
-10.3296

> <Gold.Chemscore.Metal.Weighted>
-0.0000

> <Gold.Chemscore.Lipo.Weighted>
-13.4439

> <Gold.Chemscore.Internal_Hbond.Weighted>
0.0000

> <Gold.Chemscore.DEClash.Weighted>
1.2066

> <Gold.Chemscore.DEInternal.Weighted>
2.2482

> <Gold.Chemscore.Rot.Weighted>
8.4215

> <Gold.Chemscore.Internal.Correction.Weighted>
   9.000000E+99

> <Gold.Protein.RotatedTorsions>
[ 6907 6896 6895 6894 ] final -114.51 input  -60.11 | X-H torsion
[ 7974 7965 7964 7962 ] final  154.67 input  175.53 | X-H torsion
[ 8008 7997 7996 7995 ] final   76.92 input   59.86 | X-H torsion
[ 10167 10162 10161 10158 ] final   10.06 input  -65.29 | X-H torsion
[ 10718 10713 10712 10709 ] final -118.63 input   66.30 | X-H torsion
[ 10763 10752 10751 10750 ] final   45.56 input  -60.55 | X-H torsion
[ 11005 11000 10999 10996 ] final   57.84 input  -57.11 | X-H torsion

> <Gold.Protein.ActiveResidues>
 VAL166  LYS551  ARG553  GLY616  TRP617  ASP618  TYR619  PRO620  LYS621  CYS622 
 ASP623  PHE694  ASN695  SER759  ASP760  ASP761  ALA762  ILE779  LEU786  VAL792 
 PHE793  MET794  SER795  GLU796  ALA797  LYS798  CYS799  TRP800  GLU811  SER814 

> <Gold.Protein.RotatedAtoms>
  150.7908  133.8790  159.3280 H   0  0  0  0  0  0  0  0  0  0  0  0  # atno 6907 bound_to 6896
  151.6629  135.0985  160.0192 H   0  0  0  0  0  0  0  0  0  0  0  0  # atno 6908 bound_to 6896
  152.3981  133.6738  159.6329 H   0  0  0  0  0  0  0  0  0  0  0  0  # atno 6909 bound_to 6896
  144.8074  139.6965  143.6156 H   0  0  0  0  0  0  0  0  0  0  0  0  # atno 7974 bound_to 7965
  155.8342  140.3465  155.5591 H   0  0  0  0  0  0  0  0  0  0  0  0  # atno 8008 bound_to 7997
  155.8209  140.0913  157.1869 H   0  0  0  0  0  0  0  0  0  0  0  0  # atno 8009 bound_to 7997
  154.4004  140.1430  156.3486 H   0  0  0  0  0  0  0  0  0  0  0  0  # atno 8010 bound_to 7997
  140.6217  143.8189  150.7183 H   0  0  0  0  0  0  0  0  0  0  0  0  # atno 10167 bound_to 10162
  156.1121  130.6257  150.9315 H   0  0  0  0  0  0  0  0  0  0  0  0  # atno 10718 bound_to 10713
  152.9823  135.6036  154.3456 H   0  0  0  0  0  0  0  0  0  0  0  0  # atno 10763 bound_to 10752
  154.3149  135.2770  155.2550 H   0  0  0  0  0  0  0  0  0  0  0  0  # atno 10764 bound_to 10752
  154.4742  135.5934  153.6399 H   0  0  0  0  0  0  0  0  0  0  0  0  # atno 10765 bound_to 10752
  140.0422  134.5856  155.9367 H   0  0  0  0  0  0  0  0  0  0  0  0  # atno 11005 bound_to 11000
  146.2367  139.5920  142.9519 LP  0  0  0  0  0  0  0  0  0  0  0  0  # atno 17320 bound_to 7965
  145.5406  141.0421  143.2333 LP  0  0  0  0  0  0  0  0  0  0  0  0  # atno 17321 bound_to 7965
  140.1781  143.4138  152.1953 LP  0  0  0  0  0  0  0  0  0  0  0  0  # atno 17342 bound_to 10162
  139.5444  144.7286  151.4629 LP  0  0  0  0  0  0  0  0  0  0  0  0  # atno 17343 bound_to 10162
  157.6302  131.0922  150.8455 LP  0  0  0  0  0  0  0  0  0  0  0  0  # atno 17370 bound_to 10713
  156.8564  130.5098  149.5307 LP  0  0  0  0  0  0  0  0  0  0  0  0  # atno 17371 bound_to 10713
  141.1889  133.6564  156.5344 LP  0  0  0  0  0  0  0  0  0  0  0  0  # atno 17394 bound_to 11000
  140.4050  134.7323  157.4802 LP  0  0  0  0  0  0  0  0  0  0  0  0  # atno 17395 bound_to 11000

$$$$
