AV-unprocessed.smi:2458|AV-procd|sdf|9710|dock8
  -GOLD-   2272013353D 1   1.00000     0.00000
 Structure written by MMmdl.
 47 48  0  0  0  0  0  0  0  0  1 V2000
  153.9758  142.3339  163.2658 C   0  0  0  0  0  0  0  0  0  0  0  0
  153.5105  141.7651  161.9109 C   0  0  0  0  0  0  0  0  0  0  0  0
  154.5777  140.7787  161.3977 C   0  0  0  0  0  0  0  0  0  0  0  0
  153.1708  142.8786  160.8761 C   0  0  1  0  0  0  0  0  0  0  0  0
  152.7551  142.3007  159.5012 C   0  0  0  0  0  0  0  0  0  0  0  0
  152.4054  143.3961  158.4756 C   0  0  0  0  0  0  0  0  0  0  0  0
  151.3423  144.4001  158.9699 C   0  0  1  0  0  0  0  0  0  0  0  0
  149.9095  143.8357  158.9236 C   0  0  0  0  0  0  0  0  0  0  0  0
  149.6650  142.7670  158.3643 O   0  0  0  0  0  0  0  0  0  0  0  0
  148.9629  144.5734  159.5218 N   0  0  0  0  0  0  0  0  0  0  0  0
  147.5540  144.2093  159.5951 C   0  0  0  0  0  0  0  0  0  0  0  0
  146.9857  144.4857  160.9983 C   0  0  2  0  0  0  0  0  0  0  0  0
  147.8449  143.9020  161.9581 O   0  0  0  0  0  0  0  0  0  0  0  0
  145.5654  143.9596  161.1307 C   0  0  0  0  0  0  0  0  0  0  0  0
  144.8462  144.0824  162.3395 C   0  0  0  0  0  0  0  0  0  0  0  0
  143.5372  143.5680  162.4089 C   0  0  0  0  0  0  0  0  0  0  0  0
  142.9991  142.9479  161.2642 C   0  0  0  0  0  0  0  0  0  0  0  0
  143.6763  142.8210  160.1030 N   0  0  0  0  0  0  0  0  0  0  0  0
  144.9310  143.3173  160.0449 C   0  0  0  0  0  0  0  0  0  0  0  0
  151.7247  144.9373  160.3640 C   0  0  0  0  0  0  0  0  0  0  0  0
  152.0605  143.8315  161.3811 C   0  0  0  0  0  0  0  0  0  0  0  0
  154.0718  143.4746  160.7232 H   0  0  0  0  0  0  0  0  0  0  0  0
  151.3640  145.2484  158.2833 H   0  0  0  0  0  0  0  0  0  0  0  0
  154.8225  143.0102  163.1426 H   0  0  0  0  0  0  0  0  0  0  0  0
  154.2872  141.5368  163.9414 H   0  0  0  0  0  0  0  0  0  0  0  0
  153.1810  142.8754  163.7776 H   0  0  0  0  0  0  0  0  0  0  0  0
  152.6032  141.1889  162.0976 H   0  0  0  0  0  0  0  0  0  0  0  0
  155.4883  141.2989  161.0989 H   0  0  0  0  0  0  0  0  0  0  0  0
  154.2237  140.1984  160.5466 H   0  0  0  0  0  0  0  0  0  0  0  0
  154.8486  140.0566  162.1685 H   0  0  0  0  0  0  0  0  0  0  0  0
  153.5634  141.7069  159.0769 H   0  0  0  0  0  0  0  0  0  0  0  0
  151.9151  141.6177  159.6261 H   0  0  0  0  0  0  0  0  0  0  0  0
  153.3151  143.9450  158.2285 H   0  0  0  0  0  0  0  0  0  0  0  0
  152.0794  142.9321  157.5435 H   0  0  0  0  0  0  0  0  0  0  0  0
  149.2374  145.4378  159.9660 H   0  0  0  0  0  0  0  0  0  0  0  0
  147.0242  144.8181  158.8606 H   0  0  0  0  0  0  0  0  0  0  0  0
  147.4028  143.1661  159.3109 H   0  0  0  0  0  0  0  0  0  0  0  0
  146.9695  145.5614  161.1810 H   0  0  0  0  0  0  0  0  0  0  0  0
  147.7516  144.3733  162.7717 H   0  0  0  0  0  0  0  0  0  0  0  0
  145.2891  144.5603  163.2010 H   0  0  0  0  0  0  0  0  0  0  0  0
  142.9598  143.6456  163.3183 H   0  0  0  0  0  0  0  0  0  0  0  0
  141.9985  142.5419  161.2822 H   0  0  0  0  0  0  0  0  0  0  0  0
  145.4429  143.1956  159.1016 H   0  0  0  0  0  0  0  0  0  0  0  0
  152.5897  145.5937  160.2618 H   0  0  0  0  0  0  0  0  0  0  0  0
  150.9237  145.5645  160.7580 H   0  0  0  0  0  0  0  0  0  0  0  0
  151.1648  143.2607  161.6268 H   0  0  0  0  0  0  0  0  0  0  0  0
  152.3675  144.3223  162.3034 H   0  0  0  0  0  0  0  0  0  0  0  0
  1  2  1  0  0  0  0
  1 24  1  0  0  0  0
  1 25  1  0  0  0  0
  1 26  1  0  0  0  0
  2  3  1  0  0  0  0
  2  4  1  0  0  0  0
  2 27  1  0  0  0  0
  3 28  1  0  0  0  0
  3 29  1  0  0  0  0
  3 30  1  0  0  0  0
  4 22  1  0  0  0  0
  4 21  1  0  0  0  0
  4  5  1  0  0  0  0
  5  6  1  0  0  0  0
  5 31  1  0  0  0  0
  5 32  1  0  0  0  0
  6  7  1  0  0  0  0
  6 33  1  0  0  0  0
  6 34  1  0  0  0  0
  7 23  1  0  0  0  0
  7  8  1  0  0  0  0
  7 20  1  0  0  0  0
  8  9  2  0  0  0  0
  8 10  1  0  0  0  0
 10 11  1  0  0  0  0
 10 35  1  0  0  0  0
 11 12  1  0  0  0  0
 11 36  1  0  0  0  0
 11 37  1  0  0  0  0
 12 13  1  0  0  0  0
 12 14  1  0  0  0  0
 12 38  1  0  0  0  0
 13 39  1  0  0  0  0
 14 19  1  0  0  0  0
 14 15  2  0  0  0  0
 15 16  1  0  0  0  0
 15 40  1  0  0  0  0
 16 17  2  0  0  0  0
 16 41  1  0  0  0  0
 17 18  1  0  0  0  0
 17 42  1  0  0  0  0
 18 19  2  0  0  0  0
 19 43  1  0  0  0  0
 20 21  1  0  0  0  0
 20 44  1  0  0  0  0
 20 45  1  0  0  0  0
 21 46  1  0  0  0  0
 21 47  1  0  0  0  0
M  END
> <s_m_source_file>
AV-unprocessed.smi

> <i_m_source_file_index>
2458

> <i_lp_mmshare_version>
43012

> <i_f3d_flags>
0

> <s_epik_input>
W0NIM11bQ0hdKFtDSDNdKVtDQEhdMVtDSDJdW0NIMl1bQ0BASF0oW0NIMl1bQ0gyXTEpQyg9TylbTkhdW0NIMl1bQ0BIXShbT0hdKWMyW2NIXVtjSF1bY0hdbltjSF0y

> <s_epik_cmdline>
J2VwaWtfcHl0aG9uJywgJy1waCcsICc3LjAnLCAnLXRuJywgJzgnLCAnLW1hJywgJzIwMCcsICctbWV0YWxfYmluZGluZycsICctaW1hZScsICc8aW5maWxlLm1hZT4nLCAnLW9tYWUnLCAnPG91dGZpbGUubWFlPic=

> <r_epik_Ionization_Penalty>
0.00169206

> <r_epik_Ionization_Penalty_Charging>
0

> <r_epik_Ionization_Penalty_Neutral>
0.00169206

> <r_epik_State_Penalty>
0.0011427

> <r_epik_Charging_Adjusted_Penalty>
0.0011427

> <i_epik_Tot_Q>
0

> <i_epik_Tot_abs_Q>
0

> <r_epik_Metal_State_Penalty>
-0

> <b_epik_Metal_Only>
0

> <s_lp_Force_Field>
OPLS_2005

> <r_lp_Energy>
16.378

> <b_lp_Chiralities_Consistent>
1

> <s_lp_Variant>
AV-unprocessed.smi:2458-3

> <Gold.Version>
5.8.1

> <Gold.Id.Protein>
6NUR|6NUR_protein|mol2

> <Gold.PLP.Fitness>
51.8461

> <Gold.PLP.PLP>
-50.0490

> <Gold.PLP.part.hbond>
-2.2660

> <Gold.PLP.part.metal>
0.0000

> <Gold.PLP.part.buried>
-2.2190

> <Gold.PLP.part.nonpolar>
-45.3508

> <Gold.PLP.part.repulsive>
0.3141

> <Gold.PLP.ligand.clash>
0.0000

> <Gold.PLP.ligand.torsion>
0.4494

> <Gold.PLP.Chemscore.Hbond>
0.8800

> <Gold.PLP.Chemscore.CHOScore>
0.0000

> <Gold.PLP.Chemscore.Metal>
0.0000

> <Gold.Chemscore.Hbonds>
donor molecule, donor type, donor heavy atom, donor atom, acceptor molecule, acceptor atom, score
      P1  H  6933  6944       L1    13  0.88

> <Gold.PLP.Chemscore.Internal.Correction>
0.0559

> <Gold.Rescore>
     Score         DG    S(hbond)    S(metal)    S(lipo)     H(rot)  DE(clash)    DE(int)     intcor
     18.47     -19.33       0.87        0.00     138.67       2.06       0.44       0.42       ----

> <Gold.Chemscore.Fitness>
18.4696

> <Gold.Chemscore.DG>
-19.3288

> <Gold.Chemscore.ZeroCoef>
-5.4800

> <Gold.Chemscore.Hbond>
0.8667

> <Gold.Chemscore.Metal>
0.0000

> <Gold.Chemscore.Lipo>
138.6721

> <Gold.Chemscore.Internal_Hbond>
0.0000

> <Gold.Chemscore.DEClash>
0.4362

> <Gold.Chemscore.DEInternal>
0.4231

> <Gold.Chemscore.Rot>
2.0588

> <Gold.Chemscore.Internal.Correction>
   9.000000E+99

> <Gold.Chemscore.Hbonds>
donor molecule, donor type, donor heavy atom, donor atom, acceptor molecule, acceptor atom, score
      P1  H  6933  6944       L1    13  0.78

> <Gold.Chemscore.Hbond.Weighted>
-2.8947

> <Gold.Chemscore.Metal.Weighted>
-0.0000

> <Gold.Chemscore.Lipo.Weighted>
-16.2246

> <Gold.Chemscore.Internal_Hbond.Weighted>
0.0000

> <Gold.Chemscore.DEClash.Weighted>
0.4362

> <Gold.Chemscore.DEInternal.Weighted>
0.4231

> <Gold.Chemscore.Rot.Weighted>
5.2705

> <Gold.Chemscore.Internal.Correction.Weighted>
   9.000000E+99

> <Gold.Protein.RotatedTorsions>
[ 6907 6896 6895 6894 ] final  -60.08 input  -60.11 | X-H torsion
[ 7974 7965 7964 7962 ] final  140.33 input  175.53 | X-H torsion
[ 8008 7997 7996 7995 ] final   44.46 input   59.86 | X-H torsion
[ 10167 10162 10161 10158 ] final -135.18 input  -65.29 | X-H torsion
[ 10718 10713 10712 10709 ] final -113.94 input   66.30 | X-H torsion
[ 10763 10752 10751 10750 ] final -129.22 input  -60.55 | X-H torsion
[ 11005 11000 10999 10996 ] final  -38.47 input  -57.11 | X-H torsion

> <Gold.Protein.ActiveResidues>
 VAL166  LYS551  ARG553  GLY616  TRP617  ASP618  TYR619  PRO620  LYS621  CYS622 
 ASP623  PHE694  ASN695  SER759  ASP760  ASP761  ALA762  ILE779  LEU786  VAL792 
 PHE793  MET794  SER795  GLU796  ALA797  LYS798  CYS799  TRP800  GLU811  SER814 

> <Gold.Protein.RotatedAtoms>
  150.7882  134.6884  159.6482 H   0  0  0  0  0  0  0  0  0  0  0  0  # atno 6907 bound_to 6896
  152.3982  134.6326  160.0089 H   0  0  0  0  0  0  0  0  0  0  0  0  # atno 6908 bound_to 6896
  151.6605  133.3280  159.3209 H   0  0  0  0  0  0  0  0  0  0  0  0  # atno 6909 bound_to 6896
  144.9197  139.5184  143.5669 H   0  0  0  0  0  0  0  0  0  0  0  0  # atno 7974 bound_to 7965
  155.3197  140.3396  155.4241 H   0  0  0  0  0  0  0  0  0  0  0  0  # atno 8008 bound_to 7997
  156.1915  140.1699  156.8120 H   0  0  0  0  0  0  0  0  0  0  0  0  # atno 8009 bound_to 7997
  154.5448  140.0717  156.8553 H   0  0  0  0  0  0  0  0  0  0  0  0  # atno 8010 bound_to 7997
  139.8805  143.6845  152.2628 H   0  0  0  0  0  0  0  0  0  0  0  0  # atno 10167 bound_to 10162
  156.0798  130.6000  150.8710 H   0  0  0  0  0  0  0  0  0  0  0  0  # atno 10718 bound_to 10713
  154.8757  135.3902  154.3885 H   0  0  0  0  0  0  0  0  0  0  0  0  # atno 10763 bound_to 10752
  153.4623  135.7029  153.6048 H   0  0  0  0  0  0  0  0  0  0  0  0  # atno 10764 bound_to 10752
  153.4541  135.3827  155.2269 H   0  0  0  0  0  0  0  0  0  0  0  0  # atno 10765 bound_to 10752
  141.0030  133.6946  156.2058 H   0  0  0  0  0  0  0  0  0  0  0  0  # atno 11005 bound_to 11000
  146.3199  139.8066  142.8954 LP  0  0  0  0  0  0  0  0  0  0  0  0  # atno 17320 bound_to 7965
  145.3317  141.0268  143.3442 LP  0  0  0  0  0  0  0  0  0  0  0  0  # atno 17321 bound_to 7965
  139.7201  144.7604  151.0970 LP  0  0  0  0  0  0  0  0  0  0  0  0  # atno 17342 bound_to 10162
  140.7745  143.5219  150.9526 LP  0  0  0  0  0  0  0  0  0  0  0  0  # atno 17343 bound_to 10162
  157.5910  131.0944  150.9118 LP  0  0  0  0  0  0  0  0  0  0  0  0  # atno 17370 bound_to 10713
  156.9294  130.5344  149.5279 LP  0  0  0  0  0  0  0  0  0  0  0  0  # atno 17371 bound_to 10713
  140.6858  134.4718  157.5589 LP  0  0  0  0  0  0  0  0  0  0  0  0  # atno 17394 bound_to 11000
  139.9048  134.8473  156.1748 LP  0  0  0  0  0  0  0  0  0  0  0  0  # atno 17395 bound_to 11000

$$$$
