AV-unprocessed.smi:99|AV-procd|sdf|885|dock6
  -GOLD-   2262017363D 1   1.00000     0.00000
 Structure written by MMmdl.
 52 55  0  0  0  0  0  0  0  0  2 V2000
  153.2720  139.3596  158.2758 O   0  0  0  0  0  0  0  0  0  0  0  0
  152.3256  140.0709  157.9325 C   0  0  0  0  0  0  0  0  0  0  0  0
  151.3571  139.6674  157.0889 O   0  0  0  0  0  0  0  0  0  0  0  0
  151.5803  138.5661  156.2245 C   0  0  0  0  0  0  0  0  0  0  0  0
  151.0984  137.2831  156.9156 C   0  0  2  0  0  0  0  0  0  0  0  0
  151.5362  136.1668  156.1486 O   0  0  0  0  0  0  0  0  0  0  0  0
  150.5176  135.6941  155.3171 C   0  0  1  0  0  0  0  0  0  0  0  0
  150.3181  134.2189  155.5825 N   0  0  0  0  0  0  0  0  0  0  0  0
  151.0975  133.5504  156.5121 C   0  0  0  0  0  0  0  0  0  0  0  0
  150.9102  132.2406  156.7733 C   0  0  0  0  0  0  0  0  0  0  0  0
  149.8633  131.5113  156.0634 C   0  0  0  0  0  0  0  0  0  0  0  0
  149.7089  130.3142  156.2964 O   0  0  0  0  0  0  0  0  0  0  0  0
  149.0956  132.1977  155.1683 N   0  5  0  0  0  0  0  0  0  0  0  0
  149.2759  133.5258  154.9099 C   0  0  0  0  0  0  0  0  0  0  0  0
  148.5710  134.1619  154.1257 O   0  0  0  0  0  0  0  0  0  0  0  0
  149.2276  136.4607  155.6452 C   0  0  2  0  0  0  0  0  0  0  0  0
  148.8843  137.3841  154.6329 O   0  0  0  0  0  0  0  0  0  0  0  0
  149.5691  137.1759  156.9416 C   0  0  1  0  0  0  0  0  0  0  0  0
  149.1407  136.3665  158.0306 O   0  0  0  0  0  0  0  0  0  0  0  0
  148.9215  136.8936  159.2520 C   0  0  0  0  0  0  0  0  0  0  0  0
  149.2258  138.0464  159.5650 O   0  0  0  0  0  0  0  0  0  0  0  0
  148.2792  135.9259  160.1874 C   0  0  0  0  0  0  0  0  0  0  0  0
  147.9084  136.3546  161.4832 C   0  0  0  0  0  0  0  0  0  0  0  0
  147.3029  135.4610  162.3881 C   0  0  0  0  0  0  0  0  0  0  0  0
  147.0613  134.1278  162.0084 C   0  0  0  0  0  0  0  0  0  0  0  0
  147.4250  133.6892  160.7218 C   0  0  0  0  0  0  0  0  0  0  0  0
  148.0301  134.5812  159.8155 C   0  0  0  0  0  0  0  0  0  0  0  0
  152.1339  141.4723  158.4055 C   0  0  0  0  0  0  0  0  0  0  0  0
  152.9705  141.9803  159.4268 C   0  0  0  0  0  0  0  0  0  0  0  0
  152.8133  143.3002  159.8924 C   0  0  0  0  0  0  0  0  0  0  0  0
  151.8168  144.1279  159.3433 C   0  0  0  0  0  0  0  0  0  0  0  0
  150.9776  143.6342  158.3276 C   0  0  0  0  0  0  0  0  0  0  0  0
  151.1335  142.3147  157.8603 C   0  0  0  0  0  0  0  0  0  0  0  0
  151.0205  138.7241  155.3017 H   0  0  0  0  0  0  0  0  0  0  0  0
  152.6363  138.4918  155.9616 H   0  0  0  0  0  0  0  0  0  0  0  0
  151.5172  137.2387  157.9218 H   0  0  0  0  0  0  0  0  0  0  0  0
  150.8392  135.7769  154.2775 H   0  0  0  0  0  0  0  0  0  0  0  0
  151.8681  134.0779  157.0538 H   0  0  0  0  0  0  0  0  0  0  0  0
  151.5246  131.7361  157.5045 H   0  0  0  0  0  0  0  0  0  0  0  0
  148.3834  135.7789  155.7642 H   0  0  0  0  0  0  0  0  0  0  0  0
  148.9618  136.9479  153.7975 H   0  0  0  0  0  0  0  0  0  0  0  0
  149.0849  138.1525  156.9968 H   0  0  0  0  0  0  0  0  0  0  0  0
  148.0843  137.3734  161.7976 H   0  0  0  0  0  0  0  0  0  0  0  0
  147.0237  135.7997  163.3751 H   0  0  0  0  0  0  0  0  0  0  0  0
  146.5974  133.4426  162.7026 H   0  0  0  0  0  0  0  0  0  0  0  0
  147.2400  132.6664  160.4276 H   0  0  0  0  0  0  0  0  0  0  0  0
  148.2957  134.2105  158.8361 H   0  0  0  0  0  0  0  0  0  0  0  0
  153.7426  141.3633  159.8634 H   0  0  0  0  0  0  0  0  0  0  0  0
  153.4589  143.6776  160.6717 H   0  0  0  0  0  0  0  0  0  0  0  0
  151.6957  145.1399  159.7006 H   0  0  0  0  0  0  0  0  0  0  0  0
  150.2120  144.2684  157.9052 H   0  0  0  0  0  0  0  0  0  0  0  0
  150.4716  141.9670  157.0806 H   0  0  0  0  0  0  0  0  0  0  0  0
  1  2  2  0  0  0  0
  2  3  1  0  0  0  0
  2 28  1  0  0  0  0
  3  4  1  0  0  0  0
  4  5  1  0  0  0  0
  4 34  1  0  0  0  0
  4 35  1  0  0  0  0
  5 18  1  0  0  0  0
  5  6  1  0  0  0  0
  5 36  1  0  0  0  0
  6  7  1  0  0  0  0
  7  8  1  0  0  0  0
  7 16  1  0  0  0  0
  7 37  1  0  0  0  0
  8 14  1  0  0  0  0
  8  9  1  0  0  0  0
  9 10  2  0  0  0  0
  9 38  1  0  0  0  0
 10 11  1  0  0  0  0
 10 39  1  0  0  0  0
 11 12  2  0  0  0  0
 11 13  1  0  0  0  0
 13 14  1  0  0  0  0
 14 15  2  0  0  0  0
 16 17  1  0  0  0  0
 16 18  1  0  0  0  0
 16 40  1  0  0  0  0
 17 41  1  0  0  0  0
 18 19  1  0  0  0  0
 18 42  1  0  0  0  0
 19 20  1  0  0  0  0
 20 21  2  0  0  0  0
 20 22  1  0  0  0  0
 22 27  1  0  0  0  0
 22 23  2  0  0  0  0
 23 24  1  0  0  0  0
 23 43  1  0  0  0  0
 24 25  2  0  0  0  0
 24 44  1  0  0  0  0
 25 26  1  0  0  0  0
 25 45  1  0  0  0  0
 26 27  2  0  0  0  0
 26 46  1  0  0  0  0
 27 47  1  0  0  0  0
 28 33  1  0  0  0  0
 28 29  2  0  0  0  0
 29 30  1  0  0  0  0
 29 48  1  0  0  0  0
 30 31  2  0  0  0  0
 30 49  1  0  0  0  0
 31 32  1  0  0  0  0
 31 50  1  0  0  0  0
 32 33  2  0  0  0  0
 32 51  1  0  0  0  0
 33 52  1  0  0  0  0
M  CHG  1  13  -1
M  END
> <s_m_source_file>
AV-unprocessed.smi

> <i_m_source_file_index>
99

> <i_lp_mmshare_version>
43012

> <i_f3d_flags>
0

> <s_epik_input>
W2NIXTFbY0hdW2NIXVtjSF1bY0hdYzFDKD1PKU9bQ0gyXVtDQEBIXTJPW0NAQEhdKG4zW2NIXVtjSF1jKD1PKVtuSF1jMz1PKVtDQEBIXShbT0hdKVtDQEhdMk9DKD1PKWM0W2NIXVtjSF1bY0hdW2NIXVtjSF00

> <s_epik_cmdline>
J2VwaWtfcHl0aG9uJywgJy1waCcsICc3LjAnLCAnLXRuJywgJzgnLCAnLW1hJywgJzIwMCcsICctbWV0YWxfYmluZGluZycsICctaW1hZScsICc8aW5maWxlLm1hZT4nLCAnLW9tYWUnLCAnPG91dGZpbGUubWFlPic=

> <r_lp_tautomer_probability>
1

> <r_epik_Ionization_Penalty>
2.89159

> <r_epik_Ionization_Penalty_Charging>
2.1077e-08

> <r_epik_Ionization_Penalty_Neutral>
2.89159

> <r_epik_State_Penalty>
2.88671

> <r_epik_Charging_Adjusted_Penalty>
2.88671

> <i_epik_Tot_Q>
-1

> <i_epik_Tot_abs_Q>
1

> <r_epik_Metal_State_Penalty>
0.0727308

> <b_epik_Metal_Only>
1

> <s_epik_Chemistry_Notes>
This compound has an ester and may undergo hydrolysis at high or low pH. This compound contains an acetal/aminal-like group ( X-CH(R)-Y where X, Y are N, S, or O) that may be acid/base labile, releasing an aldehyde.

> <s_lp_Force_Field>
OPLS_2005

> <r_lp_Energy>
38.0652

> <b_lp_Chiralities_Consistent>
1

> <s_lp_Variant>
AV-unprocessed.smi:99-21

> <Gold.Version>
5.8.1

> <Gold.Id.Protein>
6NUR|6NUR_protein|mol2

> <Gold.PLP.Fitness>
61.1924

> <Gold.PLP.PLP>
-53.8966

> <Gold.PLP.part.hbond>
-4.7928

> <Gold.PLP.part.metal>
0.0000

> <Gold.PLP.part.buried>
-5.9754

> <Gold.PLP.part.nonpolar>
-43.7401

> <Gold.PLP.part.repulsive>
0.6831

> <Gold.PLP.ligand.clash>
0.0000

> <Gold.PLP.ligand.torsion>
0.9630

> <Gold.PLP.Chemscore.Hbond>
3.0000

> <Gold.PLP.Chemscore.CHOScore>
0.0000

> <Gold.PLP.Chemscore.Metal>
0.0000

> <Gold.Chemscore.Hbonds>
donor molecule, donor type, donor heavy atom, donor atom, acceptor molecule, acceptor atom, score
      L1  H    17    41       P1  7948  0.96
      P1  H  7997  8010       L1     1  1.00
      P1  H 10752 10764       L1     6  0.80

> <Gold.PLP.Chemscore.Internal.Correction>
0.2218

> <Gold.Rescore>
     Score         DG    S(hbond)    S(metal)    S(lipo)     H(rot)  DE(clash)    DE(int)     intcor
     18.45     -20.58       2.71        0.00     120.19       3.13       0.03       2.10       ----

> <Gold.Chemscore.Fitness>
18.4505

> <Gold.Chemscore.DG>
-20.5843

> <Gold.Chemscore.ZeroCoef>
-5.4800

> <Gold.Chemscore.Hbond>
2.7146

> <Gold.Chemscore.Metal>
0.0000

> <Gold.Chemscore.Lipo>
120.1896

> <Gold.Chemscore.Internal_Hbond>
0.0000

> <Gold.Chemscore.DEClash>
0.0347

> <Gold.Chemscore.DEInternal>
2.0990

> <Gold.Chemscore.Rot>
3.1346

> <Gold.Chemscore.Internal.Correction>
   9.000000E+99

> <Gold.Chemscore.Hbonds>
donor molecule, donor type, donor heavy atom, donor atom, acceptor molecule, acceptor atom, score
      L1  H    17    41       P1  7948  0.90
      P1  H  6931  6943       L1    21  0.01
      P1  H  7997  8010       L1     1  0.25
      P1  H 10752 10764       L1     6  0.27

> <Gold.Chemscore.Hbond.Weighted>
-9.0666

> <Gold.Chemscore.Metal.Weighted>
-0.0000

> <Gold.Chemscore.Lipo.Weighted>
-14.0622

> <Gold.Chemscore.Internal_Hbond.Weighted>
0.0000

> <Gold.Chemscore.DEClash.Weighted>
0.0347

> <Gold.Chemscore.DEInternal.Weighted>
2.0990

> <Gold.Chemscore.Rot.Weighted>
8.0246

> <Gold.Chemscore.Internal.Correction.Weighted>
   9.000000E+99

> <Gold.Protein.RotatedTorsions>
[ 6907 6896 6895 6894 ] final   28.72 input  -60.11 | X-H torsion
[ 7974 7965 7964 7962 ] final    3.36 input  175.53 | X-H torsion
[ 8008 7997 7996 7995 ] final   30.34 input   59.86 | X-H torsion
[ 10167 10162 10161 10158 ] final  -97.71 input  -65.29 | X-H torsion
[ 10718 10713 10712 10709 ] final -178.12 input   66.30 | X-H torsion
[ 10763 10752 10751 10750 ] final  -18.96 input  -60.55 | X-H torsion
[ 11005 11000 10999 10996 ] final  159.86 input  -57.11 | X-H torsion

> <Gold.Protein.ActiveResidues>
 VAL166  LYS551  ARG553  GLY616  TRP617  ASP618  TYR619  PRO620  LYS621  CYS622 
 ASP623  PHE694  ASN695  SER759  ASP760  ASP761  ALA762  ILE779  LEU786  VAL792 
 PHE793  MET794  SER795  GLU796  ALA797  LYS798  CYS799  TRP800  GLU811  SER814 

> <Gold.Protein.RotatedAtoms>
  152.0211  134.9822  160.0570 H   0  0  0  0  0  0  0  0  0  0  0  0  # atno 6907 bound_to 6896
  152.1336  133.4417  159.4741 H   0  0  0  0  0  0  0  0  0  0  0  0  # atno 6908 bound_to 6896
  150.6858  134.2309  159.4477 H   0  0  0  0  0  0  0  0  0  0  0  0  # atno 6909 bound_to 6896
  146.2445  140.0697  142.8363 H   0  0  0  0  0  0  0  0  0  0  0  0  # atno 7974 bound_to 7965
  155.0889  140.3218  155.4579 H   0  0  0  0  0  0  0  0  0  0  0  0  # atno 8008 bound_to 7997
  156.2748  140.2081  156.5963 H   0  0  0  0  0  0  0  0  0  0  0  0  # atno 8009 bound_to 7997
  154.6919  140.0515  157.0359 H   0  0  0  0  0  0  0  0  0  0  0  0  # atno 8010 bound_to 7997
  140.2806  143.3284  152.0445 H   0  0  0  0  0  0  0  0  0  0  0  0  # atno 10167 bound_to 10162
  156.8396  130.9681  151.3101 H   0  0  0  0  0  0  0  0  0  0  0  0  # atno 10718 bound_to 10713
  153.5973  135.7000  153.5398 H   0  0  0  0  0  0  0  0  0  0  0  0  # atno 10763 bound_to 10752
  153.3127  135.4096  155.1349 H   0  0  0  0  0  0  0  0  0  0  0  0  # atno 10764 bound_to 10752
  154.8589  135.3676  154.5507 H   0  0  0  0  0  0  0  0  0  0  0  0  # atno 10765 bound_to 10752
  140.2003  134.8342  157.3011 H   0  0  0  0  0  0  0  0  0  0  0  0  # atno 11005 bound_to 11000
  145.0827  140.9232  143.4816 LP  0  0  0  0  0  0  0  0  0  0  0  0  # atno 17320 bound_to 7965
  145.0853  139.2929  143.5762 LP  0  0  0  0  0  0  0  0  0  0  0  0  # atno 17321 bound_to 7965
  139.4964  144.6594  151.6498 LP  0  0  0  0  0  0  0  0  0  0  0  0  # atno 17342 bound_to 10162
  140.5815  143.9938  150.6271 LP  0  0  0  0  0  0  0  0  0  0  0  0  # atno 17343 bound_to 10162
  157.6363  130.8769  149.9365 LP  0  0  0  0  0  0  0  0  0  0  0  0  # atno 17370 bound_to 10713
  156.0888  130.3665  150.0435 LP  0  0  0  0  0  0  0  0  0  0  0  0  # atno 17371 bound_to 10713
  140.2061  134.4195  155.7637 LP  0  0  0  0  0  0  0  0  0  0  0  0  # atno 17394 bound_to 11000
  141.2227  133.7095  156.8263 LP  0  0  0  0  0  0  0  0  0  0  0  0  # atno 17395 bound_to 11000

$$$$
