AV-unprocessed.smi:574|AV-procd|sdf|2976|dock10
  -GOLD-   2262023483D 1   1.00000     0.00000
 Structure written by MMmdl.
 39 40  0  0  0  0  0  0  0  0  2 V2000
  158.6557  135.5632  153.1106 C   0  0  0  0  0  0  0  0  0  0  0  0
  157.2157  136.0619  153.0567 C   0  0  0  0  0  0  0  0  0  0  0  0
  156.2955  135.2763  152.8315 O   0  0  0  0  0  0  0  0  0  0  0  0
  157.0354  137.3719  153.2734 N   0  0  0  0  0  0  0  0  0  0  0  0
  155.7406  138.0439  153.3248 C   0  0  0  0  0  0  0  0  0  0  0  0
  155.1269  137.9670  154.7351 C   0  0  0  0  0  0  0  0  0  0  0  0
  154.0385  138.9347  154.8521 N   0  5  0  0  0  0  0  0  0  0  0  0
  152.7139  138.6261  154.7482 C   0  0  0  0  0  0  0  0  0  0  0  0
  152.1799  137.6532  154.2045 O   0  0  0  0  0  0  0  0  0  0  0  0
  151.8333  139.6727  155.3921 C   0  0  0  0  0  0  0  0  0  0  0  0
  152.2741  140.2357  156.5457 N   0  0  0  0  0  0  0  0  0  0  0  0
  151.5350  141.1791  157.1357 C   0  0  0  0  0  0  0  0  0  0  0  0
  152.0244  141.7276  158.3283 N   0  0  0  0  0  0  0  0  0  0  0  0
  152.7933  140.9363  159.2910 C   0  0  0  0  0  0  0  0  0  0  0  0
  153.8209  141.8164  160.0224 C   0  0  0  0  0  0  0  0  0  0  0  0
  153.1631  142.9211  160.6309 O   0  0  0  0  0  0  0  0  0  0  0  0
  152.5267  143.7477  159.6639 C   0  0  0  0  0  0  0  0  0  0  0  0
  151.4518  142.9428  158.9150 C   0  0  0  0  0  0  0  0  0  0  0  0
  150.3667  141.6348  156.6695 N   0  0  0  0  0  0  0  0  0  0  0  0
  149.9002  141.0951  155.5241 C   0  0  0  0  0  0  0  0  0  0  0  0
  150.5997  140.0914  154.8261 C   0  0  0  0  0  0  0  0  0  0  0  0
  149.9183  139.4257  153.3810 Cl  0  0  0  0  0  0  0  0  0  0  0  0
  159.0259  135.5878  154.1359 H   0  0  0  0  0  0  0  0  0  0  0  0
  159.3020  136.1892  152.4944 H   0  0  0  0  0  0  0  0  0  0  0  0
  158.7252  134.5379  152.7458 H   0  0  0  0  0  0  0  0  0  0  0  0
  157.8438  137.9460  153.4672 H   0  0  0  0  0  0  0  0  0  0  0  0
  155.8637  139.0886  153.0359 H   0  0  0  0  0  0  0  0  0  0  0  0
  155.0679  137.5893  152.5955 H   0  0  0  0  0  0  0  0  0  0  0  0
  154.7940  136.9435  154.9149 H   0  0  0  0  0  0  0  0  0  0  0  0
  155.9080  138.1573  155.4715 H   0  0  0  0  0  0  0  0  0  0  0  0
  152.1008  140.4952  160.0087 H   0  0  0  0  0  0  0  0  0  0  0  0
  153.3235  140.1109  158.8167 H   0  0  0  0  0  0  0  0  0  0  0  0
  154.3273  141.2372  160.7946 H   0  0  0  0  0  0  0  0  0  0  0  0
  154.5903  142.1696  159.3340 H   0  0  0  0  0  0  0  0  0  0  0  0
  152.0706  144.5989  160.1696 H   0  0  0  0  0  0  0  0  0  0  0  0
  153.2653  144.1499  158.9685 H   0  0  0  0  0  0  0  0  0  0  0  0
  151.0060  143.5929  158.1622 H   0  0  0  0  0  0  0  0  0  0  0  0
  150.6519  142.6567  159.5988 H   0  0  0  0  0  0  0  0  0  0  0  0
  148.9522  141.4662  155.1635 H   0  0  0  0  0  0  0  0  0  0  0  0
  1  2  1  0  0  0  0
  1 23  1  0  0  0  0
  1 24  1  0  0  0  0
  1 25  1  0  0  0  0
  2  3  2  0  0  0  0
  2  4  1  0  0  0  0
  4  5  1  0  0  0  0
  4 26  1  0  0  0  0
  5  6  1  0  0  0  0
  5 27  1  0  0  0  0
  5 28  1  0  0  0  0
  6  7  1  0  0  0  0
  6 29  1  0  0  0  0
  6 30  1  0  0  0  0
  7  8  1  0  0  0  0
  8  9  2  0  0  0  0
  8 10  1  0  0  0  0
 10 21  1  0  0  0  0
 10 11  2  0  0  0  0
 11 12  1  0  0  0  0
 12 13  1  0  0  0  0
 12 19  2  0  0  0  0
 13 18  1  0  0  0  0
 13 14  1  0  0  0  0
 14 15  1  0  0  0  0
 14 31  1  0  0  0  0
 14 32  1  0  0  0  0
 15 16  1  0  0  0  0
 15 33  1  0  0  0  0
 15 34  1  0  0  0  0
 16 17  1  0  0  0  0
 17 18  1  0  0  0  0
 17 35  1  0  0  0  0
 17 36  1  0  0  0  0
 18 37  1  0  0  0  0
 18 38  1  0  0  0  0
 19 20  1  0  0  0  0
 20 21  2  0  0  0  0
 20 39  1  0  0  0  0
 21 22  1  0  0  0  0
M  CHG  1   7  -1
M  END
> <s_m_source_file>
AV-unprocessed.smi

> <i_m_source_file_index>
574

> <i_lp_mmshare_version>
43012

> <i_f3d_flags>
0

> <s_epik_input>
W0NIM11DKD1PKVtOSF1bQ0gyXVtDSDJdW05IXUMoPU8pYzFuYyhuW2NIXWMxQ2wpTjJbQ0gyXVtDSDJdT1tDSDJdW0NIMl0y

> <s_epik_cmdline>
J2VwaWtfcHl0aG9uJywgJy1waCcsICc3LjAnLCAnLXRuJywgJzgnLCAnLW1hJywgJzIwMCcsICctbWV0YWxfYmluZGluZycsICctaW1hZScsICc8aW5maWxlLm1hZT4nLCAnLW9tYWUnLCAnPG91dGZpbGUubWFlPic=

> <r_lp_tautomer_probability>
1

> <r_epik_Ionization_Penalty>
5.61005

> <r_epik_Ionization_Penalty_Charging>
5.61003

> <r_epik_Ionization_Penalty_Neutral>
1.98059e-05

> <r_epik_State_Penalty>
5.60999

> <r_epik_Charging_Adjusted_Penalty>
11.22

> <i_epik_Tot_Q>
-1

> <i_epik_Tot_abs_Q>
1

> <r_epik_Metal_State_Penalty>
1.60231

> <b_epik_Metal_Only>
1

> <s_lp_Force_Field>
OPLS_2005

> <r_lp_Energy>
13.7471

> <b_lp_Chiralities_Consistent>
1

> <s_lp_Variant>
AV-unprocessed.smi:574-2

> <Gold.Version>
5.8.1

> <Gold.Id.Protein>
6NUR|6NUR_protein|mol2

> <Gold.PLP.Fitness>
43.7550

> <Gold.PLP.PLP>
-36.0128

> <Gold.PLP.part.hbond>
-3.7428

> <Gold.PLP.part.metal>
0.0000

> <Gold.PLP.part.buried>
1.3316

> <Gold.PLP.part.nonpolar>
-34.2168

> <Gold.PLP.part.repulsive>
0.3174

> <Gold.PLP.ligand.clash>
0.0000

> <Gold.PLP.ligand.torsion>
1.3137

> <Gold.PLP.Chemscore.Hbond>
3.4047

> <Gold.PLP.Chemscore.CHOScore>
0.0000

> <Gold.PLP.Chemscore.Metal>
0.0000

> <Gold.Chemscore.Hbonds>
donor molecule, donor type, donor heavy atom, donor atom, acceptor molecule, acceptor atom, score
      P1  H  7997  8009       L1     7  1.66
      P1  H 10752 10763       L1     3  1.00
      P1  H 10752 10764       L1     9  0.49

> <Gold.PLP.Chemscore.Internal.Correction>
0.1555

> <Gold.Rescore>
     Score         DG    S(hbond)    S(metal)    S(lipo)     H(rot)  DE(clash)    DE(int)     intcor
     15.07     -19.00       1.93        0.00      96.97       1.67       1.54       2.38       ----

> <Gold.Chemscore.Fitness>
15.0719

> <Gold.Chemscore.DG>
-18.9969

> <Gold.Chemscore.ZeroCoef>
-5.4800

> <Gold.Chemscore.Hbond>
1.9309

> <Gold.Chemscore.Metal>
0.0000

> <Gold.Chemscore.Lipo>
96.9700

> <Gold.Chemscore.Internal_Hbond>
0.0000

> <Gold.Chemscore.DEClash>
1.5409

> <Gold.Chemscore.DEInternal>
2.3840

> <Gold.Chemscore.Rot>
1.6710

> <Gold.Chemscore.Internal.Correction>
   9.000000E+99

> <Gold.Chemscore.Hbonds>
donor molecule, donor type, donor heavy atom, donor atom, acceptor molecule, acceptor atom, score
      P1  H  7997  8009       L1     7  0.57
      P1  H 10752 10763       L1     3  0.84
      P1  H 10752 10764       L1     9  0.48

> <Gold.Chemscore.Hbond.Weighted>
-6.4493

> <Gold.Chemscore.Metal.Weighted>
-0.0000

> <Gold.Chemscore.Lipo.Weighted>
-11.3455

> <Gold.Chemscore.Internal_Hbond.Weighted>
0.0000

> <Gold.Chemscore.DEClash.Weighted>
1.5409

> <Gold.Chemscore.DEInternal.Weighted>
2.3840

> <Gold.Chemscore.Rot.Weighted>
4.2779

> <Gold.Chemscore.Internal.Correction.Weighted>
   9.000000E+99

> <Gold.Protein.RotatedTorsions>
[ 6907 6896 6895 6894 ] final -161.10 input  -60.11 | X-H torsion
[ 7974 7965 7964 7962 ] final  131.31 input  175.53 | X-H torsion
[ 8008 7997 7996 7995 ] final -128.50 input   59.86 | X-H torsion
[ 10167 10162 10161 10158 ] final -150.76 input  -65.29 | X-H torsion
[ 10718 10713 10712 10709 ] final  -84.58 input   66.30 | X-H torsion
[ 10763 10752 10751 10750 ] final -103.25 input  -60.55 | X-H torsion
[ 11005 11000 10999 10996 ] final   45.84 input  -57.11 | X-H torsion

> <Gold.Protein.ActiveResidues>
 VAL166  LYS551  ARG553  GLY616  TRP617  ASP618  TYR619  PRO620  LYS621  CYS622 
 ASP623  PHE694  ASN695  SER759  ASP760  ASP761  ALA762  ILE779  LEU786  VAL792 
 PHE793  MET794  SER795  GLU796  ALA797  LYS798  CYS799  TRP800  GLU811  SER814 

> <Gold.Protein.RotatedAtoms>
  151.3594  133.3895  159.2687 H   0  0  0  0  0  0  0  0  0  0  0  0  # atno 6907 bound_to 6896
  150.9737  134.9106  159.7814 H   0  0  0  0  0  0  0  0  0  0  0  0  # atno 6908 bound_to 6896
  152.5193  134.3557  159.9319 H   0  0  0  0  0  0  0  0  0  0  0  0  # atno 6909 bound_to 6896
  145.0086  139.4242  143.5256 H   0  0  0  0  0  0  0  0  0  0  0  0  # atno 7974 bound_to 7965
  155.2637  140.0437  157.3000 H   0  0  0  0  0  0  0  0  0  0  0  0  # atno 8008 bound_to 7997
  154.5695  140.2369  155.8182 H   0  0  0  0  0  0  0  0  0  0  0  0  # atno 8009 bound_to 7997
  156.2111  140.2998  155.9743 H   0  0  0  0  0  0  0  0  0  0  0  0  # atno 8010 bound_to 7997
  139.7326  143.8785  152.2539 H   0  0  0  0  0  0  0  0  0  0  0  0  # atno 10167 bound_to 10162
  156.0005  130.4702  150.4432 H   0  0  0  0  0  0  0  0  0  0  0  0  # atno 10718 bound_to 10713
  154.7793  135.4830  153.9811 H   0  0  0  0  0  0  0  0  0  0  0  0  # atno 10763 bound_to 10752
  153.1472  135.6784  153.8944 H   0  0  0  0  0  0  0  0  0  0  0  0  # atno 10764 bound_to 10752
  153.8600  135.3156  155.3415 H   0  0  0  0  0  0  0  0  0  0  0  0  # atno 10765 bound_to 10752
  140.1423  134.4567  155.8441 H   0  0  0  0  0  0  0  0  0  0  0  0  # atno 11005 bound_to 11000
  146.3466  139.9517  142.8728 LP  0  0  0  0  0  0  0  0  0  0  0  0  # atno 17320 bound_to 7965
  145.2054  140.9872  143.4131 LP  0  0  0  0  0  0  0  0  0  0  0  0  # atno 17321 bound_to 7965
  139.8712  144.7067  150.8985 LP  0  0  0  0  0  0  0  0  0  0  0  0  # atno 17342 bound_to 10162
  140.7773  143.3736  151.1603 LP  0  0  0  0  0  0  0  0  0  0  0  0  # atno 17343 bound_to 10162
  157.2471  131.0538  151.2402 LP  0  0  0  0  0  0  0  0  0  0  0  0  # atno 17370 bound_to 10713
  157.3564  130.7109  149.6473 LP  0  0  0  0  0  0  0  0  0  0  0  0  # atno 17371 bound_to 10713
  141.2187  133.6838  156.7269 LP  0  0  0  0  0  0  0  0  0  0  0  0  # atno 17394 bound_to 11000
  140.2707  134.8394  157.3844 LP  0  0  0  0  0  0  0  0  0  0  0  0  # atno 17395 bound_to 11000

$$$$
