AV-unprocessed.smi:905|AV-procd|sdf|4099|dock2
  -GOLD-   22720 1593D 1   1.00000     0.00000
 Structure written by MMmdl.
 37 38  0  0  0  0  0  0  0  0  1 V2000
  145.7894  137.4980  151.1872 N   0  0  0  0  0  0  0  0  0  0  0  0
  146.3189  138.2445  152.2523 C   0  0  0  0  0  0  0  0  0  0  0  0
  146.4122  137.7667  153.4858 N   0  0  0  0  0  0  0  0  0  0  0  0
  146.9899  138.8269  154.1991 O   0  0  0  0  0  0  0  0  0  0  0  0
  147.1577  139.8278  153.3014 C   0  0  0  0  0  0  0  0  0  0  0  0
  147.8022  141.0963  153.7496 C   0  0  0  0  0  0  0  0  0  0  0  0
  149.1286  140.8508  154.4877 C   0  0  0  0  0  0  0  0  0  0  0  0
  149.4656  141.9578  155.3755 N   0  0  0  0  0  0  0  0  0  0  0  0
  150.4827  141.9540  156.2485 C   0  0  0  0  0  0  0  0  0  0  0  0
  151.2525  141.0059  156.4037 O   0  0  0  0  0  0  0  0  0  0  0  0
  150.5576  143.1032  156.9348 N   0  0  0  0  0  0  0  0  0  0  0  0
  151.5509  143.4032  157.9620 C   0  0  0  0  0  0  0  0  0  0  0  0
  151.5981  142.2796  159.0187 C   0  0  0  0  0  0  0  0  0  0  0  0
  152.5876  142.6111  160.1475 C   0  0  0  0  0  0  0  0  0  0  0  0
  152.2629  143.9661  160.7957 C   0  0  0  0  0  0  0  0  0  0  0  0
  152.2190  145.0876  159.7457 C   0  0  0  0  0  0  0  0  0  0  0  0
  151.2256  144.7577  158.6198 C   0  0  0  0  0  0  0  0  0  0  0  0
  146.7731  139.5130  152.0667 N   0  0  0  0  0  0  0  0  0  0  0  0
  145.7385  137.8967  150.2609 H   0  0  0  0  0  0  0  0  0  0  0  0
  145.4677  136.5527  151.3363 H   0  0  0  0  0  0  0  0  0  0  0  0
  147.9689  141.7298  152.8773 H   0  0  0  0  0  0  0  0  0  0  0  0
  147.0996  141.6283  154.3920 H   0  0  0  0  0  0  0  0  0  0  0  0
  149.0830  139.9202  155.0563 H   0  0  0  0  0  0  0  0  0  0  0  0
  149.9384  140.7348  153.7665 H   0  0  0  0  0  0  0  0  0  0  0  0
  148.8874  142.7834  155.3178 H   0  0  0  0  0  0  0  0  0  0  0  0
  149.8787  143.8230  156.7350 H   0  0  0  0  0  0  0  0  0  0  0  0
  152.5328  143.4847  157.4917 H   0  0  0  0  0  0  0  0  0  0  0  0
  150.6043  142.1284  159.4423 H   0  0  0  0  0  0  0  0  0  0  0  0
  151.8818  141.3349  158.5531 H   0  0  0  0  0  0  0  0  0  0  0  0
  152.5677  141.8238  160.9018 H   0  0  0  0  0  0  0  0  0  0  0  0
  153.6024  142.6310  159.7482 H   0  0  0  0  0  0  0  0  0  0  0  0
  151.3011  143.9058  161.3066 H   0  0  0  0  0  0  0  0  0  0  0  0
  153.0046  144.2003  161.5599 H   0  0  0  0  0  0  0  0  0  0  0  0
  151.9442  146.0303  160.2196 H   0  0  0  0  0  0  0  0  0  0  0  0
  153.2142  145.2323  159.3232 H   0  0  0  0  0  0  0  0  0  0  0  0
  151.2441  145.5513  157.8716 H   0  0  0  0  0  0  0  0  0  0  0  0
  150.2132  144.7398  159.0263 H   0  0  0  0  0  0  0  0  0  0  0  0
  1  2  1  0  0  0  0
  1 19  1  0  0  0  0
  1 20  1  0  0  0  0
  2 18  1  0  0  0  0
  2  3  2  0  0  0  0
  3  4  1  0  0  0  0
  4  5  1  0  0  0  0
  5  6  1  0  0  0  0
  5 18  2  0  0  0  0
  6  7  1  0  0  0  0
  6 21  1  0  0  0  0
  6 22  1  0  0  0  0
  7  8  1  0  0  0  0
  7 23  1  0  0  0  0
  7 24  1  0  0  0  0
  8  9  1  0  0  0  0
  8 25  1  0  0  0  0
  9 10  2  0  0  0  0
  9 11  1  0  0  0  0
 11 12  1  0  0  0  0
 11 26  1  0  0  0  0
 12 17  1  0  0  0  0
 12 13  1  0  0  0  0
 12 27  1  0  0  0  0
 13 14  1  0  0  0  0
 13 28  1  0  0  0  0
 13 29  1  0  0  0  0
 14 15  1  0  0  0  0
 14 30  1  0  0  0  0
 14 31  1  0  0  0  0
 15 16  1  0  0  0  0
 15 32  1  0  0  0  0
 15 33  1  0  0  0  0
 16 17  1  0  0  0  0
 16 34  1  0  0  0  0
 16 35  1  0  0  0  0
 17 36  1  0  0  0  0
 17 37  1  0  0  0  0
M  END
> <s_m_source_file>
AV-unprocessed.smi

> <i_m_source_file_index>
905

> <i_lp_mmshare_version>
43012

> <i_f3d_flags>
0

> <s_epik_input>
W05IMl1jMW5vYyhuMSlbQ0gyXVtDSDJdW05IXUMoPU8pW05IXVtDSF0yW0NIMl1bQ0gyXVtDSDJdW0NIMl1bQ0gyXTI=

> <s_epik_cmdline>
J2VwaWtfcHl0aG9uJywgJy1waCcsICc3LjAnLCAnLXRuJywgJzgnLCAnLW1hJywgJzIwMCcsICctbWV0YWxfYmluZGluZycsICctaW1hZScsICc8aW5maWxlLm1hZT4nLCAnLW9tYWUnLCAnPG91dGZpbGUubWFlPic=

> <r_lp_tautomer_probability>
1

> <r_epik_Ionization_Penalty>
0.000203748

> <r_epik_Ionization_Penalty_Charging>
0

> <r_epik_Ionization_Penalty_Neutral>
0.000203748

> <r_epik_State_Penalty>
-0

> <r_epik_Charging_Adjusted_Penalty>
0

> <i_epik_Tot_Q>
0

> <i_epik_Tot_abs_Q>
0

> <r_epik_Metal_State_Penalty>
-0

> <b_epik_Metal_Only>
0

> <s_lp_Force_Field>
OPLS_2005

> <r_lp_Energy>
0.830847

> <b_lp_Chiralities_Consistent>
1

> <s_lp_Variant>
AV-unprocessed.smi:905-1

> <Gold.Version>
5.8.1

> <Gold.Id.Protein>
6NUR|6NUR_protein|mol2

> <Gold.PLP.Fitness>
45.4890

> <Gold.PLP.PLP>
-39.6801

> <Gold.PLP.part.hbond>
-3.0000

> <Gold.PLP.part.metal>
0.0000

> <Gold.PLP.part.buried>
-6.9672

> <Gold.PLP.part.nonpolar>
-32.1640

> <Gold.PLP.part.repulsive>
2.1549

> <Gold.PLP.ligand.clash>
0.0000

> <Gold.PLP.ligand.torsion>
0.2597

> <Gold.PLP.Chemscore.Hbond>
2.1040

> <Gold.PLP.Chemscore.CHOScore>
0.0000

> <Gold.PLP.Chemscore.Metal>
0.0000

> <Gold.Chemscore.Hbonds>
donor molecule, donor type, donor heavy atom, donor atom, acceptor molecule, acceptor atom, score
      L1  H     1    19       P1 10171  0.27
      L1  H     8    25       P1  8028  0.86
      L1  H    11    26       P1  8028  1.00

> <Gold.PLP.Chemscore.Internal.Correction>
0.0163

> <Gold.Rescore>
     Score         DG    S(hbond)    S(metal)    S(lipo)     H(rot)  DE(clash)    DE(int)     intcor
     16.94     -18.09       2.62        0.00      85.15       2.39       0.80       0.35       ----

> <Gold.Chemscore.Fitness>
16.9400

> <Gold.Chemscore.DG>
-18.0861

> <Gold.Chemscore.ZeroCoef>
-5.4800

> <Gold.Chemscore.Hbond>
2.6205

> <Gold.Chemscore.Metal>
0.0000

> <Gold.Chemscore.Lipo>
85.1535

> <Gold.Chemscore.Internal_Hbond>
0.0000

> <Gold.Chemscore.DEClash>
0.7968

> <Gold.Chemscore.DEInternal>
0.3493

> <Gold.Chemscore.Rot>
2.3865

> <Gold.Chemscore.Internal.Correction>
   9.000000E+99

> <Gold.Chemscore.Hbonds>
donor molecule, donor type, donor heavy atom, donor atom, acceptor molecule, acceptor atom, score
      L1  H     1    19       P1 10171  0.26
      L1  H     8    25       P1  8028  0.85
      L1  H    11    26       P1  8028  0.96

> <Gold.Chemscore.Hbond.Weighted>
-8.7525

> <Gold.Chemscore.Metal.Weighted>
-0.0000

> <Gold.Chemscore.Lipo.Weighted>
-9.9630

> <Gold.Chemscore.Internal_Hbond.Weighted>
0.0000

> <Gold.Chemscore.DEClash.Weighted>
0.7968

> <Gold.Chemscore.DEInternal.Weighted>
0.3493

> <Gold.Chemscore.Rot.Weighted>
6.1093

> <Gold.Chemscore.Internal.Correction.Weighted>
   9.000000E+99

> <Gold.Protein.RotatedTorsions>
[ 6907 6896 6895 6894 ] final  -63.96 input  -60.11 | X-H torsion
[ 7974 7965 7964 7962 ] final -102.99 input  175.53 | X-H torsion
[ 8008 7997 7996 7995 ] final   74.18 input   59.86 | X-H torsion
[ 10167 10162 10161 10158 ] final  -85.70 input  -65.29 | X-H torsion
[ 10718 10713 10712 10709 ] final    1.67 input   66.30 | X-H torsion
[ 10763 10752 10751 10750 ] final  -72.27 input  -60.55 | X-H torsion
[ 11005 11000 10999 10996 ] final -116.46 input  -57.11 | X-H torsion

> <Gold.Protein.ActiveResidues>
 VAL166  LYS551  ARG553  GLY616  TRP617  ASP618  TYR619  PRO620  LYS621  CYS622 
 ASP623  PHE694  ASN695  SER759  ASP760  ASP761  ALA762  ILE779  LEU786  VAL792 
 PHE793  MET794  SER795  GLU796  ALA797  LYS798  CYS799  TRP800  GLU811  SER814 

> <Gold.Protein.RotatedAtoms>
  150.7615  134.6364  159.6213 H   0  0  0  0  0  0  0  0  0  0  0  0  # atno 6907 bound_to 6896
  152.3625  134.6848  160.0211 H   0  0  0  0  0  0  0  0  0  0  0  0  # atno 6908 bound_to 6896
  151.7233  133.3279  159.3357 H   0  0  0  0  0  0  0  0  0  0  0  0  # atno 6909 bound_to 6896
  145.2617  140.9271  143.3037 H   0  0  0  0  0  0  0  0  0  0  0  0  # atno 7974 bound_to 7965
  155.7946  140.3478  155.5368 H   0  0  0  0  0  0  0  0  0  0  0  0  # atno 8008 bound_to 7997
  155.8599  140.0969  157.1640 H   0  0  0  0  0  0  0  0  0  0  0  0  # atno 8009 bound_to 7997
  154.4011  140.1360  156.3936 H   0  0  0  0  0  0  0  0  0  0  0  0  # atno 8010 bound_to 7997
  140.4012  143.2662  151.9139 H   0  0  0  0  0  0  0  0  0  0  0  0  # atno 10167 bound_to 10162
  156.8516  130.5556  149.5669 H   0  0  0  0  0  0  0  0  0  0  0  0  # atno 10718 bound_to 10713
  154.4433  135.5935  153.6143 H   0  0  0  0  0  0  0  0  0  0  0  0  # atno 10763 bound_to 10752
  152.9807  135.6003  154.3695 H   0  0  0  0  0  0  0  0  0  0  0  0  # atno 10764 bound_to 10752
  154.3548  135.2841  155.2331 H   0  0  0  0  0  0  0  0  0  0  0  0  # atno 10765 bound_to 10752
  141.0420  133.9820  157.2978 H   0  0  0  0  0  0  0  0  0  0  0  0  # atno 11005 bound_to 11000
  144.9413  139.4186  143.6447 LP  0  0  0  0  0  0  0  0  0  0  0  0  # atno 17320 bound_to 7965
  146.3273  139.8374  142.8897 LP  0  0  0  0  0  0  0  0  0  0  0  0  # atno 17321 bound_to 7965
  139.4784  144.5631  151.8208 LP  0  0  0  0  0  0  0  0  0  0  0  0  # atno 17342 bound_to 10162
  140.4737  144.1550  150.5922 LP  0  0  0  0  0  0  0  0  0  0  0  0  # atno 17343 bound_to 10162
  156.0825  130.5832  150.9588 LP  0  0  0  0  0  0  0  0  0  0  0  0  # atno 17370 bound_to 10713
  157.6300  131.0922  150.8460 LP  0  0  0  0  0  0  0  0  0  0  0  0  # atno 17371 bound_to 10713
  139.9283  135.0201  156.8312 LP  0  0  0  0  0  0  0  0  0  0  0  0  # atno 17394 bound_to 11000
  140.6216  133.9988  155.7621 LP  0  0  0  0  0  0  0  0  0  0  0  0  # atno 17395 bound_to 11000

$$$$
