AV-unprocessed.smi:271|AV-procd|sdf|2049|dock10
  -GOLD-   2262021283D 1   1.00000     0.00000
 Structure written by MMmdl.
 58 60  0  0  0  0  0  0  0  0  1 V2000
  153.0204  143.3506  159.6298 C   0  0  0  0  0  0  0  0  0  0  0  0
  152.8760  142.1809  160.6153 C   0  0  0  0  0  0  0  0  0  0  0  0
  153.3335  142.6050  162.0215 C   0  0  0  0  0  0  0  0  0  0  0  0
  153.6335  140.9401  160.1033 C   0  0  0  0  0  0  0  0  0  0  0  0
  152.7290  139.9124  159.3905 C   0  0  0  0  0  0  0  0  0  0  0  0
  153.4124  139.1514  158.3444 N   0  0  0  0  0  0  0  0  0  0  0  0
  152.5245  138.4469  157.4218 C   0  0  0  0  0  0  0  0  0  0  0  0
  151.1777  139.1567  157.2085 C   0  0  0  0  0  0  0  0  0  0  0  0
  151.0428  139.7005  155.8494 C   0  0  0  0  0  0  0  0  0  0  0  0
  150.9365  140.1283  154.7797 N   0  0  0  0  0  0  0  0  0  0  0  0
  154.4139  138.3704  158.8099 C   0  0  0  0  0  0  0  0  0  0  0  0
  155.5661  138.3501  158.0959 N   0  0  0  0  0  0  0  0  0  0  0  0
  156.5941  137.6048  158.5115 C   0  0  0  0  0  0  0  0  0  0  0  0
  156.6768  136.8253  159.5916 N   0  0  0  0  0  0  0  0  0  0  0  0
  155.5200  136.8462  160.3135 C   0  0  0  0  0  0  0  0  0  0  0  0
  154.3442  137.5803  159.9919 C   0  0  0  0  0  0  0  0  0  0  0  0
  153.3618  137.3456  160.9454 N   0  0  0  0  0  0  0  0  0  0  0  0
  153.9260  136.5215  161.7848 C   0  0  0  0  0  0  0  0  0  0  0  0
  155.2301  136.1848  161.4955 N   0  0  0  0  0  0  0  0  0  0  0  0
  156.0893  135.3010  162.2708 C   0  0  0  0  0  0  0  0  0  0  0  0
  155.5974  133.8281  162.3403 C   0  0  2  0  0  0  0  0  0  0  0  0
  155.3234  133.2292  160.9397 C   0  0  0  0  0  0  0  0  0  0  0  0
  154.3236  133.9604  160.2605 O   0  0  0  0  0  0  0  0  0  0  0  0
  154.3677  133.6649  163.2721 C   0  0  2  0  0  0  0  0  0  0  0  0
  154.6186  134.0400  164.7238 C   0  0  0  0  0  0  0  0  0  0  0  0
  153.4425  133.3799  165.4339 C   0  0  0  0  0  0  0  0  0  0  0  0
  153.1599  132.2019  164.6876 O   0  0  0  0  0  0  0  0  0  0  0  0
  153.8759  132.2248  163.4568 C   0  0  0  0  0  0  0  0  0  0  0  0
  154.0631  143.6512  159.5209 H   0  0  0  0  0  0  0  0  0  0  0  0
  152.4568  144.2214  159.9662 H   0  0  0  0  0  0  0  0  0  0  0  0
  152.6467  143.0821  158.6412 H   0  0  0  0  0  0  0  0  0  0  0  0
  151.8153  141.9322  160.6687 H   0  0  0  0  0  0  0  0  0  0  0  0
  154.4007  142.8276  162.0413 H   0  0  0  0  0  0  0  0  0  0  0  0
  153.1414  141.8274  162.7602 H   0  0  0  0  0  0  0  0  0  0  0  0
  152.8027  143.4981  162.3521 H   0  0  0  0  0  0  0  0  0  0  0  0
  154.4065  141.2591  159.4025 H   0  0  0  0  0  0  0  0  0  0  0  0
  154.1566  140.4754  160.9401 H   0  0  0  0  0  0  0  0  0  0  0  0
  152.2969  139.2195  160.1122 H   0  0  0  0  0  0  0  0  0  0  0  0
  151.8896  140.4391  158.9351 H   0  0  0  0  0  0  0  0  0  0  0  0
  153.0264  138.3050  156.4641 H   0  0  0  0  0  0  0  0  0  0  0  0
  152.3369  137.4489  157.8195 H   0  0  0  0  0  0  0  0  0  0  0  0
  150.3512  138.4655  157.3747 H   0  0  0  0  0  0  0  0  0  0  0  0
  151.0536  139.9881  157.9028 H   0  0  0  0  0  0  0  0  0  0  0  0
  157.4779  137.6389  157.8915 H   0  0  0  0  0  0  0  0  0  0  0  0
  153.4054  136.1423  162.6519 H   0  0  0  0  0  0  0  0  0  0  0  0
  157.0858  135.3362  161.8294 H   0  0  0  0  0  0  0  0  0  0  0  0
  156.2038  135.7187  163.2710 H   0  0  0  0  0  0  0  0  0  0  0  0
  156.4088  133.2457  162.7798 H   0  0  0  0  0  0  0  0  0  0  0  0
  156.2182  133.2665  160.3189 H   0  0  0  0  0  0  0  0  0  0  0  0
  155.0320  132.1809  161.0030 H   0  0  0  0  0  0  0  0  0  0  0  0
  154.7410  134.5176  159.6211 H   0  0  0  0  0  0  0  0  0  0  0  0
  153.5349  134.2578  162.8912 H   0  0  0  0  0  0  0  0  0  0  0  0
  155.5557  133.6043  165.0733 H   0  0  0  0  0  0  0  0  0  0  0  0
  154.6602  135.1132  164.9037 H   0  0  0  0  0  0  0  0  0  0  0  0
  153.6593  133.1510  166.4776 H   0  0  0  0  0  0  0  0  0  0  0  0
  152.5670  134.0298  165.4032 H   0  0  0  0  0  0  0  0  0  0  0  0
  153.2436  131.8898  162.6343 H   0  0  0  0  0  0  0  0  0  0  0  0
  154.7178  131.5357  163.5383 H   0  0  0  0  0  0  0  0  0  0  0  0
  1  2  1  0  0  0  0
  1 29  1  0  0  0  0
  1 30  1  0  0  0  0
  1 31  1  0  0  0  0
  2  3  1  0  0  0  0
  2  4  1  0  0  0  0
  2 32  1  0  0  0  0
  3 33  1  0  0  0  0
  3 34  1  0  0  0  0
  3 35  1  0  0  0  0
  4  5  1  0  0  0  0
  4 36  1  0  0  0  0
  4 37  1  0  0  0  0
  5  6  1  0  0  0  0
  5 38  1  0  0  0  0
  5 39  1  0  0  0  0
  6  7  1  0  0  0  0
  6 11  1  0  0  0  0
  7  8  1  0  0  0  0
  7 40  1  0  0  0  0
  7 41  1  0  0  0  0
  8  9  1  0  0  0  0
  8 42  1  0  0  0  0
  8 43  1  0  0  0  0
  9 10  3  0  0  0  0
 11 16  1  0  0  0  0
 11 12  2  0  0  0  0
 12 13  1  0  0  0  0
 13 14  2  0  0  0  0
 13 44  1  0  0  0  0
 14 15  1  0  0  0  0
 15 19  1  0  0  0  0
 15 16  2  0  0  0  0
 16 17  1  0  0  0  0
 17 18  2  0  0  0  0
 18 19  1  0  0  0  0
 18 45  1  0  0  0  0
 19 20  1  0  0  0  0
 20 21  1  0  0  0  0
 20 46  1  0  0  0  0
 20 47  1  0  0  0  0
 21 22  1  0  0  0  0
 21 24  1  0  0  0  0
 21 48  1  0  0  0  0
 22 23  1  0  0  0  0
 22 49  1  0  0  0  0
 22 50  1  0  0  0  0
 23 51  1  0  0  0  0
 24 28  1  0  0  0  0
 24 25  1  0  0  0  0
 24 52  1  0  0  0  0
 25 26  1  0  0  0  0
 25 53  1  0  0  0  0
 25 54  1  0  0  0  0
 26 27  1  0  0  0  0
 26 55  1  0  0  0  0
 26 56  1  0  0  0  0
 27 28  1  0  0  0  0
 28 57  1  0  0  0  0
 28 58  1  0  0  0  0
M  END
> <s_m_source_file>
AV-unprocessed.smi

> <i_m_source_file_index>
271

> <i_lp_mmshare_version>
43012

> <i_f3d_flags>
0

> <s_epik_input>
W0NIM11bQ0hdKFtDSDNdKVtDSDJdW0NIMl1OKFtDSDJdW0NIMl1DI04pYyhuW2NIXW4xKWMoYzEyKW5bY0hdbjJbQ0gyXVtDQEhdKFtDSDJdW09IXSlbQ0BASF0zW0NIMl1bQ0gyXU9bQ0gyXTM=

> <s_epik_cmdline>
J2VwaWtfcHl0aG9uJywgJy1waCcsICc3LjAnLCAnLXRuJywgJzgnLCAnLW1hJywgJzIwMCcsICctbWV0YWxfYmluZGluZycsICctaW1hZScsICc8aW5maWxlLm1hZT4nLCAnLW9tYWUnLCAnPG91dGZpbGUubWFlPic=

> <r_lp_tautomer_probability>
1

> <r_epik_Ionization_Penalty>
0.000825874

> <r_epik_Ionization_Penalty_Charging>
0

> <r_epik_Ionization_Penalty_Neutral>
0.000825874

> <r_epik_State_Penalty>
0.000396768

> <r_epik_Charging_Adjusted_Penalty>
0.000396768

> <i_epik_Tot_Q>
0

> <i_epik_Tot_abs_Q>
0

> <r_epik_Metal_State_Penalty>
-0

> <b_epik_Metal_Only>
0

> <s_lp_Force_Field>
OPLS_2005

> <r_lp_Energy>
34.7872

> <b_lp_Chiralities_Consistent>
1

> <s_lp_Variant>
AV-unprocessed.smi:271-1

> <Gold.Version>
5.8.1

> <Gold.Id.Protein>
6NUR|6NUR_protein|mol2

> <Gold.PLP.Fitness>
47.8791

> <Gold.PLP.PLP>
-43.8351

> <Gold.PLP.part.hbond>
-3.9747

> <Gold.PLP.part.metal>
0.0000

> <Gold.PLP.part.buried>
-6.1810

> <Gold.PLP.part.nonpolar>
-34.9258

> <Gold.PLP.part.repulsive>
0.1784

> <Gold.PLP.ligand.clash>
0.0000

> <Gold.PLP.ligand.torsion>
2.1493

> <Gold.PLP.Chemscore.Hbond>
2.5913

> <Gold.PLP.Chemscore.CHOScore>
0.0000

> <Gold.PLP.Chemscore.Metal>
0.0000

> <Gold.Chemscore.Hbonds>
donor molecule, donor type, donor heavy atom, donor atom, acceptor molecule, acceptor atom, score
      P1  H  6896  6909       L1    23  1.00
      P1  H  7989  7998       L1    10  1.00
      P1  H  7997  8008       L1     6  0.45

> <Gold.PLP.Chemscore.Internal.Correction>
0.5689

> <Gold.Rescore>
     Score         DG    S(hbond)    S(metal)    S(lipo)     H(rot)  DE(clash)    DE(int)     intcor
      9.37     -13.73       1.85        0.00     100.17       3.77       0.05       4.31       ----

> <Gold.Chemscore.Fitness>
9.3685

> <Gold.Chemscore.DG>
-13.7281

> <Gold.Chemscore.ZeroCoef>
-5.4800

> <Gold.Chemscore.Hbond>
1.8488

> <Gold.Chemscore.Metal>
0.0000

> <Gold.Chemscore.Lipo>
100.1689

> <Gold.Chemscore.Internal_Hbond>
0.0000

> <Gold.Chemscore.DEClash>
0.0544

> <Gold.Chemscore.DEInternal>
4.3052

> <Gold.Chemscore.Rot>
3.7683

> <Gold.Chemscore.Internal.Correction>
   9.000000E+99

> <Gold.Chemscore.Hbonds>
donor molecule, donor type, donor heavy atom, donor atom, acceptor molecule, acceptor atom, score
      P1  H  6896  6909       L1    23  0.34
      P1  H  7989  7998       L1    10  0.99
      P1  H  7997  8008       L1     6  0.01

> <Gold.Chemscore.Hbond.Weighted>
-6.1751

> <Gold.Chemscore.Metal.Weighted>
-0.0000

> <Gold.Chemscore.Lipo.Weighted>
-11.7198

> <Gold.Chemscore.Internal_Hbond.Weighted>
0.0000

> <Gold.Chemscore.DEClash.Weighted>
0.0544

> <Gold.Chemscore.DEInternal.Weighted>
4.3052

> <Gold.Chemscore.Rot.Weighted>
9.6468

> <Gold.Chemscore.Internal.Correction.Weighted>
   9.000000E+99

> <Gold.Protein.RotatedTorsions>
[ 6907 6896 6895 6894 ] final -149.33 input  -60.11 | X-H torsion
[ 7974 7965 7964 7962 ] final  -83.94 input  175.53 | X-H torsion
[ 8008 7997 7996 7995 ] final  -94.45 input   59.86 | X-H torsion
[ 10167 10162 10161 10158 ] final   15.00 input  -65.29 | X-H torsion
[ 10718 10713 10712 10709 ] final  -23.01 input   66.30 | X-H torsion
[ 10763 10752 10751 10750 ] final -163.63 input  -60.55 | X-H torsion
[ 11005 11000 10999 10996 ] final   52.82 input  -57.11 | X-H torsion

> <Gold.Protein.ActiveResidues>
 VAL166  LYS551  ARG553  GLY616  TRP617  ASP618  TYR619  PRO620  LYS621  CYS622 
 ASP623  PHE694  ASN695  SER759  ASP760  ASP761  ALA762  ILE779  LEU786  VAL792 
 PHE793  MET794  SER795  GLU796  ALA797  LYS798  CYS799  TRP800  GLU811  SER814 

> <Gold.Protein.RotatedAtoms>
  151.1826  133.4715  159.2593 H   0  0  0  0  0  0  0  0  0  0  0  0  # atno 6907 bound_to 6896
  151.1243  135.0096  159.8563 H   0  0  0  0  0  0  0  0  0  0  0  0  # atno 6908 bound_to 6896
  152.5457  134.1735  159.8659 H   0  0  0  0  0  0  0  0  0  0  0  0  # atno 6909 bound_to 6896
  145.5132  140.9538  143.1696 H   0  0  0  0  0  0  0  0  0  0  0  0  # atno 7974 bound_to 7965
  154.7485  140.0489  157.0873 H   0  0  0  0  0  0  0  0  0  0  0  0  # atno 8008 bound_to 7997
  155.0087  140.3133  155.4819 H   0  0  0  0  0  0  0  0  0  0  0  0  # atno 8009 bound_to 7997
  156.2880  140.2188  156.5200 H   0  0  0  0  0  0  0  0  0  0  0  0  # atno 8010 bound_to 7997
  140.5897  143.8820  150.6862 H   0  0  0  0  0  0  0  0  0  0  0  0  # atno 10167 bound_to 10162
  156.4968  130.4579  149.6723 H   0  0  0  0  0  0  0  0  0  0  0  0  # atno 10718 bound_to 10713
  154.7105  135.3005  154.9205 H   0  0  0  0  0  0  0  0  0  0  0  0  # atno 10763 bound_to 10752
  154.0108  135.6695  153.4769 H   0  0  0  0  0  0  0  0  0  0  0  0  # atno 10764 bound_to 10752
  153.0751  135.5039  154.8300 H   0  0  0  0  0  0  0  0  0  0  0  0  # atno 10765 bound_to 10752
  140.0817  134.5329  155.8940 H   0  0  0  0  0  0  0  0  0  0  0  0  # atno 11005 bound_to 11000
  144.7716  139.6723  143.7192 LP  0  0  0  0  0  0  0  0  0  0  0  0  # atno 17320 bound_to 7965
  146.2153  139.5538  142.9654 LP  0  0  0  0  0  0  0  0  0  0  0  0  # atno 17321 bound_to 7965
  140.2339  143.3714  152.1542 LP  0  0  0  0  0  0  0  0  0  0  0  0  # atno 17342 bound_to 10162
  139.5220  144.7053  151.5373 LP  0  0  0  0  0  0  0  0  0  0  0  0  # atno 17343 bound_to 10162
  156.3372  130.7363  151.2302 LP  0  0  0  0  0  0  0  0  0  0  0  0  # atno 17370 bound_to 10713
  157.7467  131.0414  150.4643 LP  0  0  0  0  0  0  0  0  0  0  0  0  # atno 17371 bound_to 10713
  141.2049  133.6642  156.6148 LP  0  0  0  0  0  0  0  0  0  0  0  0  # atno 17394 bound_to 11000
  140.3478  134.7794  157.4445 LP  0  0  0  0  0  0  0  0  0  0  0  0  # atno 17395 bound_to 11000

$$$$
