AV-unprocessed.smi:339|AV-procd|sdf|2379|dock6
  -GOLD-   2262022303D 1   1.00000     0.00000
 Structure written by MMmdl.
 45 46  0  0  0  0  0  0  0  0  1 V2000
  150.4764  141.8041  156.8734 C   0  0  0  0  0  0  0  0  0  0  0  0
  151.5231  141.9127  157.9665 C   0  0  0  0  0  0  0  0  0  0  0  0
  151.9067  143.1857  158.4365 C   0  0  0  0  0  0  0  0  0  0  0  0
  152.8826  143.3052  159.4432 C   0  0  0  0  0  0  0  0  0  0  0  0
  153.4855  142.1523  159.9794 C   0  0  0  0  0  0  0  0  0  0  0  0
  153.1102  140.8743  159.5167 C   0  0  0  0  0  0  0  0  0  0  0  0
  153.7795  139.6417  160.0966 C   0  0  0  0  0  0  0  0  0  0  0  0
  152.1150  140.7520  158.5182 C   0  0  0  0  0  0  0  0  0  0  0  0
  151.7425  139.5110  158.0707 O   0  0  0  0  0  0  0  0  0  0  0  0
  150.3870  139.1916  158.3486 C   0  0  0  0  0  0  0  0  0  0  0  0
  150.2536  137.6682  158.5009 C   0  0  1  0  0  0  0  0  0  0  0  0
  150.8008  137.3262  159.7597 O   0  0  0  0  0  0  0  0  0  0  0  0
  148.7759  137.2172  158.4864 C   0  0  0  0  0  0  0  0  0  0  0  0
  148.5948  135.9035  159.1157 N   0  0  0  0  0  0  0  0  0  0  0  0
  148.7916  134.8402  158.2576 N   0  0  0  0  0  0  0  0  0  0  0  0
  148.6550  133.6185  158.6570 C   0  0  0  0  0  0  0  0  0  0  0  0
  148.8952  132.5427  157.6326 C   0  0  0  0  0  0  0  0  0  0  0  0
  148.2855  133.3479  160.0429 C   0  0  0  0  0  0  0  0  0  0  0  0
  148.1385  131.8905  160.4585 C   0  0  0  0  0  0  0  0  0  0  0  0
  148.1043  134.4013  160.8784 C   0  0  0  0  0  0  0  0  0  0  0  0
  147.7545  134.2340  162.2520 C   0  0  0  0  0  0  0  0  0  0  0  0
  147.4849  134.0832  163.3676 N   0  0  0  0  0  0  0  0  0  0  0  0
  148.2545  135.7878  160.4312 C   0  0  0  0  0  0  0  0  0  0  0  0
  148.0879  136.7662  161.1612 O   0  0  0  0  0  0  0  0  0  0  0  0
  150.3950  142.7365  156.3141 H   0  0  0  0  0  0  0  0  0  0  0  0
  149.5011  141.5797  157.3048 H   0  0  0  0  0  0  0  0  0  0  0  0
  150.7317  141.0136  156.1672 H   0  0  0  0  0  0  0  0  0  0  0  0
  151.4540  144.0762  158.0255 H   0  0  0  0  0  0  0  0  0  0  0  0
  153.1730  144.2821  159.8005 H   0  0  0  0  0  0  0  0  0  0  0  0
  154.2391  142.2533  160.7463 H   0  0  0  0  0  0  0  0  0  0  0  0
  153.9947  138.9129  159.3145 H   0  0  0  0  0  0  0  0  0  0  0  0
  153.1318  139.1716  160.8365 H   0  0  0  0  0  0  0  0  0  0  0  0
  154.7214  139.8979  160.5821 H   0  0  0  0  0  0  0  0  0  0  0  0
  150.0132  139.7111  159.2331 H   0  0  0  0  0  0  0  0  0  0  0  0
  149.7858  139.5325  157.5050 H   0  0  0  0  0  0  0  0  0  0  0  0
  150.8123  137.1740  157.7050 H   0  0  0  0  0  0  0  0  0  0  0  0
  150.3715  137.8428  160.4243 H   0  0  0  0  0  0  0  0  0  0  0  0
  148.1405  137.9689  158.9593 H   0  0  0  0  0  0  0  0  0  0  0  0
  148.4149  137.1584  157.4579 H   0  0  0  0  0  0  0  0  0  0  0  0
  149.6244  131.8178  157.9946 H   0  0  0  0  0  0  0  0  0  0  0  0
  149.2767  132.9512  156.6957 H   0  0  0  0  0  0  0  0  0  0  0  0
  147.9704  132.0106  157.4085 H   0  0  0  0  0  0  0  0  0  0  0  0
  147.7111  131.7886  161.4554 H   0  0  0  0  0  0  0  0  0  0  0  0
  149.1113  131.3981  160.4625 H   0  0  0  0  0  0  0  0  0  0  0  0
  147.4833  131.3540  159.7715 H   0  0  0  0  0  0  0  0  0  0  0  0
  1  2  1  0  0  0  0
  1 25  1  0  0  0  0
  1 26  1  0  0  0  0
  1 27  1  0  0  0  0
  2  8  1  0  0  0  0
  2  3  2  0  0  0  0
  3  4  1  0  0  0  0
  3 28  1  0  0  0  0
  4  5  2  0  0  0  0
  4 29  1  0  0  0  0
  5  6  1  0  0  0  0
  5 30  1  0  0  0  0
  6  7  1  0  0  0  0
  6  8  2  0  0  0  0
  7 31  1  0  0  0  0
  7 32  1  0  0  0  0
  7 33  1  0  0  0  0
  8  9  1  0  0  0  0
  9 10  1  0  0  0  0
 10 11  1  0  0  0  0
 10 34  1  0  0  0  0
 10 35  1  0  0  0  0
 11 12  1  0  0  0  0
 11 13  1  0  0  0  0
 11 36  1  0  0  0  0
 12 37  1  0  0  0  0
 13 14  1  0  0  0  0
 13 38  1  0  0  0  0
 13 39  1  0  0  0  0
 14 23  1  0  0  0  0
 14 15  1  0  0  0  0
 15 16  2  0  0  0  0
 16 17  1  0  0  0  0
 16 18  1  0  0  0  0
 17 40  1  0  0  0  0
 17 41  1  0  0  0  0
 17 42  1  0  0  0  0
 18 19  1  0  0  0  0
 18 20  2  0  0  0  0
 19 43  1  0  0  0  0
 19 44  1  0  0  0  0
 19 45  1  0  0  0  0
 20 21  1  0  0  0  0
 20 23  1  0  0  0  0
 21 22  3  0  0  0  0
 23 24  2  0  0  0  0
M  END
> <s_m_source_file>
AV-unprocessed.smi

> <i_m_source_file_index>
339

> <i_lp_mmshare_version>
43012

> <i_f3d_flags>
0

> <s_epik_input>
W0NIM11jMVtjSF1bY0hdW2NIXWMoW0NIM10pYzFPW0NIMl1bQ0BIXShbT0hdKVtDSDJdbjJuYyhbQ0gzXSljKFtDSDNdKWMoQyNOKWMyPU8=

> <s_epik_cmdline>
J2VwaWtfcHl0aG9uJywgJy1waCcsICc3LjAnLCAnLXRuJywgJzgnLCAnLW1hJywgJzIwMCcsICctbWV0YWxfYmluZGluZycsICctaW1hZScsICc8aW5maWxlLm1hZT4nLCAnLW9tYWUnLCAnPG91dGZpbGUubWFlPic=

> <r_lp_tautomer_probability>
1

> <r_epik_Ionization_Penalty>
1.17331e-07

> <r_epik_Ionization_Penalty_Charging>
1.57223e-10

> <r_epik_Ionization_Penalty_Neutral>
1.17174e-07

> <r_epik_State_Penalty>
-0

> <r_epik_Charging_Adjusted_Penalty>
1.57223e-10

> <i_epik_Tot_Q>
0

> <i_epik_Tot_abs_Q>
0

> <r_epik_Metal_State_Penalty>
-0

> <b_epik_Metal_Only>
0

> <s_lp_Force_Field>
OPLS_2005

> <r_lp_Energy>
35.8185

> <b_lp_Chiralities_Consistent>
1

> <s_lp_Variant>
AV-unprocessed.smi:339-2

> <Gold.Version>
5.8.1

> <Gold.Id.Protein>
6NUR|6NUR_protein|mol2

> <Gold.PLP.Fitness>
47.7497

> <Gold.PLP.PLP>
-43.8208

> <Gold.PLP.part.hbond>
-4.0312

> <Gold.PLP.part.metal>
0.0000

> <Gold.PLP.part.buried>
-5.3855

> <Gold.PLP.part.nonpolar>
-34.5460

> <Gold.PLP.part.repulsive>
0.0136

> <Gold.PLP.ligand.clash>
0.0000

> <Gold.PLP.ligand.torsion>
0.8392

> <Gold.PLP.Chemscore.Hbond>
1.8400

> <Gold.PLP.Chemscore.CHOScore>
0.0000

> <Gold.PLP.Chemscore.Metal>
0.0000

> <Gold.Chemscore.Hbonds>
donor molecule, donor type, donor heavy atom, donor atom, acceptor molecule, acceptor atom, score
      P1  H  6931  6943       L1    24  1.00

> <Gold.PLP.Chemscore.Internal.Correction>
0.0874

> <Gold.Rescore>
     Score         DG    S(hbond)    S(metal)    S(lipo)     H(rot)  DE(clash)    DE(int)     intcor
     16.62     -18.00       1.76        0.00     107.04       2.29       0.55       0.83       ----

> <Gold.Chemscore.Fitness>
16.6202

> <Gold.Chemscore.DG>
-18.0037

> <Gold.Chemscore.ZeroCoef>
-5.4800

> <Gold.Chemscore.Hbond>
1.7557

> <Gold.Chemscore.Metal>
0.0000

> <Gold.Chemscore.Lipo>
107.0377

> <Gold.Chemscore.Internal_Hbond>
0.0000

> <Gold.Chemscore.DEClash>
0.5548

> <Gold.Chemscore.DEInternal>
0.8287

> <Gold.Chemscore.Rot>
2.2905

> <Gold.Chemscore.Internal.Correction>
   9.000000E+99

> <Gold.Chemscore.Hbonds>
donor molecule, donor type, donor heavy atom, donor atom, acceptor molecule, acceptor atom, score
      P1  H  6931  6943       L1    24  0.99
      P1  H  6934  6947       L1    24  0.05

> <Gold.Chemscore.Hbond.Weighted>
-5.8639

> <Gold.Chemscore.Metal.Weighted>
-0.0000

> <Gold.Chemscore.Lipo.Weighted>
-12.5234

> <Gold.Chemscore.Internal_Hbond.Weighted>
0.0000

> <Gold.Chemscore.DEClash.Weighted>
0.5548

> <Gold.Chemscore.DEInternal.Weighted>
0.8287

> <Gold.Chemscore.Rot.Weighted>
5.8636

> <Gold.Chemscore.Internal.Correction.Weighted>
   9.000000E+99

> <Gold.Protein.RotatedTorsions>
[ 6907 6896 6895 6894 ] final   36.98 input  -60.11 | X-H torsion
[ 7974 7965 7964 7962 ] final   11.63 input  175.53 | X-H torsion
[ 8008 7997 7996 7995 ] final -131.70 input   59.86 | X-H torsion
[ 10167 10162 10161 10158 ] final   -6.27 input  -65.29 | X-H torsion
[ 10718 10713 10712 10709 ] final  -74.43 input   66.30 | X-H torsion
[ 10763 10752 10751 10750 ] final   28.56 input  -60.55 | X-H torsion
[ 11005 11000 10999 10996 ] final  121.15 input  -57.11 | X-H torsion

> <Gold.Protein.ActiveResidues>
 VAL166  LYS551  ARG553  GLY616  TRP617  ASP618  TYR619  PRO620  LYS621  CYS622 
 ASP623  PHE694  ASN695  SER759  ASP760  ASP761  ALA762  ILE779  LEU786  VAL792 
 PHE793  MET794  SER795  GLU796  ALA797  LYS798  CYS799  TRP800  GLU811  SER814 

> <Gold.Protein.RotatedAtoms>
  152.1370  134.9091  160.0555 H   0  0  0  0  0  0  0  0  0  0  0  0  # atno 6907 bound_to 6896
  152.0174  133.3880  159.4252 H   0  0  0  0  0  0  0  0  0  0  0  0  # atno 6908 bound_to 6896
  150.6861  134.3585  159.4984 H   0  0  0  0  0  0  0  0  0  0  0  0  # atno 6909 bound_to 6896
  146.2367  139.9457  142.8477 H   0  0  0  0  0  0  0  0  0  0  0  0  # atno 7974 bound_to 7965
  155.3167  140.0460  157.3037 H   0  0  0  0  0  0  0  0  0  0  0  0  # atno 8008 bound_to 7997
  154.5403  140.2285  155.8619 H   0  0  0  0  0  0  0  0  0  0  0  0  # atno 8009 bound_to 7997
  156.1874  140.3059  155.9272 H   0  0  0  0  0  0  0  0  0  0  0  0  # atno 8010 bound_to 7997
  140.6991  143.6213  150.8610 H   0  0  0  0  0  0  0  0  0  0  0  0  # atno 10167 bound_to 10162
  156.0243  130.4417  150.2891 H   0  0  0  0  0  0  0  0  0  0  0  0  # atno 10718 bound_to 10713
  153.0484  135.6510  154.0757 H   0  0  0  0  0  0  0  0  0  0  0  0  # atno 10763 bound_to 10752
  154.0450  135.2900  155.3351 H   0  0  0  0  0  0  0  0  0  0  0  0  # atno 10764 bound_to 10752
  154.6757  135.5339  153.8262 H   0  0  0  0  0  0  0  0  0  0  0  0  # atno 10765 bound_to 10752
  139.9214  134.9638  156.7914 H   0  0  0  0  0  0  0  0  0  0  0  0  # atno 11005 bound_to 11000
  145.1910  140.9811  143.4211 LP  0  0  0  0  0  0  0  0  0  0  0  0  # atno 17320 bound_to 7965
  144.9857  139.3738  143.6239 LP  0  0  0  0  0  0  0  0  0  0  0  0  # atno 17321 bound_to 7965
  139.9934  143.5822  152.2902 LP  0  0  0  0  0  0  0  0  0  0  0  0  # atno 17342 bound_to 10162
  139.6486  144.7659  151.2194 LP  0  0  0  0  0  0  0  0  0  0  0  0  # atno 17343 bound_to 10162
  157.0994  131.0191  151.3091 LP  0  0  0  0  0  0  0  0  0  0  0  0  # atno 17370 bound_to 10713
  157.4791  130.7754  149.7397 LP  0  0  0  0  0  0  0  0  0  0  0  0  # atno 17371 bound_to 10713
  140.6464  133.9771  155.7733 LP  0  0  0  0  0  0  0  0  0  0  0  0  # atno 17394 bound_to 11000
  141.0737  134.0167  157.3489 LP  0  0  0  0  0  0  0  0  0  0  0  0  # atno 17395 bound_to 11000

$$$$
