AV-unprocessed.smi:43|AV-procd|sdf|393|dock6
  -GOLD-   2262016243D 1   1.00000     0.00000
 Structure written by MMmdl.
 25 26  0  0  0  0  0  0  0  0  2 V2000
  151.2168  137.7637  159.0249 C   0  0  0  0  0  0  0  0  0  0  0  0
  150.1276  137.1303  158.3044 N   0  0  0  0  0  0  0  0  0  0  0  0
  149.4653  136.0891  158.8680 N   0  0  0  0  0  0  0  0  0  0  0  0
  148.5240  135.7441  158.0382 N   0  0  0  0  0  0  0  0  0  0  0  0
  148.5336  136.5396  156.9099 N   0  0  0  0  0  0  0  0  0  0  0  0
  149.5472  137.3723  157.1155 C   0  0  0  0  0  0  0  0  0  0  0  0
  149.9640  138.3768  156.2335 N   0  0  0  0  0  0  0  0  0  0  0  0
  149.2418  138.9532  155.1036 C   0  0  0  0  0  0  0  0  0  0  0  0
  149.7159  140.3950  154.9771 C   0  0  2  0  0  0  0  0  0  0  0  0
  149.4758  140.9357  153.6948 O   0  0  0  0  0  0  0  0  0  0  0  0
  151.1933  140.2633  155.2907 C   0  0  0  0  0  0  0  0  0  0  0  0
  151.2215  139.1307  156.3322 C   0  0  2  0  0  0  0  0  0  0  0  0
  152.4460  138.2203  156.1539 C   0  0  0  0  0  0  0  0  0  0  0  0
  153.5691  138.7564  156.2707 O   0  0  0  0  0  0  0  0  0  0  0  0
  152.2408  137.0113  155.9031 O   0  5  0  0  0  0  0  0  0  0  0  0
  149.2303  141.0141  155.7329 H   0  0  0  0  0  0  0  0  0  0  0  0
  151.2534  139.5713  157.3297 H   0  0  0  0  0  0  0  0  0  0  0  0
  151.1316  138.8476  158.9519 H   0  0  0  0  0  0  0  0  0  0  0  0
  152.1713  137.4412  158.6099 H   0  0  0  0  0  0  0  0  0  0  0  0
  151.1831  137.4891  160.0799 H   0  0  0  0  0  0  0  0  0  0  0  0
  149.4821  138.3804  154.2064 H   0  0  0  0  0  0  0  0  0  0  0  0
  148.1630  138.9215  155.2516 H   0  0  0  0  0  0  0  0  0  0  0  0
  149.2633  140.2270  153.1071 H   0  0  0  0  0  0  0  0  0  0  0  0
  151.7426  139.9864  154.3884 H   0  0  0  0  0  0  0  0  0  0  0  0
  151.6237  141.1907  155.6696 H   0  0  0  0  0  0  0  0  0  0  0  0
  1  2  1  0  0  0  0
  1 18  1  0  0  0  0
  1 19  1  0  0  0  0
  1 20  1  0  0  0  0
  2  6  1  0  0  0  0
  2  3  1  0  0  0  0
  3  4  2  0  0  0  0
  4  5  1  0  0  0  0
  5  6  2  0  0  0  0
  6  7  1  0  0  0  0
  7 12  1  0  0  0  0
  7  8  1  0  0  0  0
  8  9  1  0  0  0  0
  8 21  1  0  0  0  0
  8 22  1  0  0  0  0
  9 16  1  0  0  0  0
  9 10  1  0  0  0  0
  9 11  1  0  0  0  0
 10 23  1  0  0  0  0
 11 12  1  0  0  0  0
 11 24  1  0  0  0  0
 11 25  1  0  0  0  0
 12 17  1  0  0  0  0
 12 13  1  0  0  0  0
 13 14  2  0  0  0  0
 13 15  1  0  0  0  0
M  CHG  1  15  -1
M  END
> <s_m_source_file>
AV-unprocessed.smi

> <i_m_source_file_index>
43

> <i_lp_mmshare_version>
43012

> <i_f3d_flags>
0

> <s_epik_input>
W0NIM11uMW5ubmMxTjJbQ0gyXVtDQEhdKFtPSF0pW0NIMl1bQ0BIXTJDKD1PKVtPSF0=

> <s_epik_cmdline>
J2VwaWtfcHl0aG9uJywgJy1waCcsICc3LjAnLCAnLXRuJywgJzgnLCAnLW1hJywgJzIwMCcsICctbWV0YWxfYmluZGluZycsICctaW1hZScsICc8aW5maWxlLm1hZT4nLCAnLW9tYWUnLCAnPG91dGZpbGUubWFlPic=

> <r_lp_tautomer_probability>
1

> <r_epik_Ionization_Penalty>
0.000193127

> <r_epik_Ionization_Penalty_Charging>
0.000192933

> <r_epik_Ionization_Penalty_Neutral>
1.93728e-07

> <r_epik_State_Penalty>
-0

> <r_epik_Charging_Adjusted_Penalty>
0.000192933

> <i_epik_Tot_Q>
-1

> <i_epik_Tot_abs_Q>
1

> <r_epik_Metal_State_Penalty>
-0

> <b_epik_Metal_Only>
0

> <s_lp_Force_Field>
OPLS_2005

> <r_lp_Energy>
21.0116

> <b_lp_Chiralities_Consistent>
1

> <s_lp_Variant>
AV-unprocessed.smi:43-3

> <Gold.Version>
5.8.1

> <Gold.Id.Protein>
6NUR|6NUR_protein|mol2

> <Gold.PLP.Fitness>
36.8824

> <Gold.PLP.PLP>
-18.0756

> <Gold.PLP.part.hbond>
-5.6599

> <Gold.PLP.part.metal>
0.0000

> <Gold.PLP.part.buried>
-1.2628

> <Gold.PLP.part.nonpolar>
-11.6859

> <Gold.PLP.part.repulsive>
0.0154

> <Gold.PLP.ligand.clash>
0.0000

> <Gold.PLP.ligand.torsion>
0.1028

> <Gold.PLP.Chemscore.Hbond>
6.3348

> <Gold.PLP.Chemscore.CHOScore>
0.0000

> <Gold.PLP.Chemscore.Metal>
0.0000

> <Gold.Chemscore.Hbonds>
donor molecule, donor type, donor heavy atom, donor atom, acceptor molecule, acceptor atom, score
      L1  H    10    23       P1  7957  0.59
      P1  H  6896  6907       L1     3  1.00
      P1  H  7989  7998       L1    10  0.07
      P1  H  7997  8010       L1    14  1.76
      P1  H  8011  8017       L1    10  0.94
      P1  H 10752 10763       L1    15  1.89

> <Gold.PLP.Chemscore.Internal.Correction>
0.0080

> <Gold.Rescore>
     Score         DG    S(hbond)    S(metal)    S(lipo)     H(rot)  DE(clash)    DE(int)     intcor
     13.84     -17.27       3.78        0.00      29.77       1.69       1.39       2.04       ----

> <Gold.Chemscore.Fitness>
13.8446

> <Gold.Chemscore.DG>
-17.2744

> <Gold.Chemscore.ZeroCoef>
-5.4800

> <Gold.Chemscore.Hbond>
3.7827

> <Gold.Chemscore.Metal>
0.0000

> <Gold.Chemscore.Lipo>
29.7731

> <Gold.Chemscore.Internal_Hbond>
0.0000

> <Gold.Chemscore.DEClash>
1.3878

> <Gold.Chemscore.DEInternal>
2.0420

> <Gold.Chemscore.Rot>
1.6887

> <Gold.Chemscore.Internal.Correction>
   9.000000E+99

> <Gold.Chemscore.Hbonds>
donor molecule, donor type, donor heavy atom, donor atom, acceptor molecule, acceptor atom, score
      L1  H    10    23       P1  7957  0.58
      P1  H  6896  6907       L1     3  0.74
      P1  H  7997  8010       L1    14  0.82
      P1  H  8011  8017       L1    10  0.19
      P1  H 10752 10763       L1    15  0.90

> <Gold.Chemscore.Hbond.Weighted>
-12.6341

> <Gold.Chemscore.Metal.Weighted>
-0.0000

> <Gold.Chemscore.Lipo.Weighted>
-3.4834

> <Gold.Chemscore.Internal_Hbond.Weighted>
0.0000

> <Gold.Chemscore.DEClash.Weighted>
1.3878

> <Gold.Chemscore.DEInternal.Weighted>
2.0420

> <Gold.Chemscore.Rot.Weighted>
4.3232

> <Gold.Chemscore.Internal.Correction.Weighted>
   9.000000E+99

> <Gold.Protein.RotatedTorsions>
[ 6907 6896 6895 6894 ] final  -57.95 input  -60.11 | X-H torsion
[ 7974 7965 7964 7962 ] final   34.81 input  175.53 | X-H torsion
[ 8008 7997 7996 7995 ] final   71.08 input   59.86 | X-H torsion
[ 10167 10162 10161 10158 ] final -175.79 input  -65.29 | X-H torsion
[ 10718 10713 10712 10709 ] final  -57.91 input   66.30 | X-H torsion
[ 10763 10752 10751 10750 ] final   81.79 input  -60.55 | X-H torsion
[ 11005 11000 10999 10996 ] final   22.72 input  -57.11 | X-H torsion

> <Gold.Protein.ActiveResidues>
 VAL166  LYS551  ARG553  GLY616  TRP617  ASP618  TYR619  PRO620  LYS621  CYS622 
 ASP623  PHE694  ASN695  SER759  ASP760  ASP761  ALA762  ILE779  LEU786  VAL792 
 PHE793  MET794  SER795  GLU796  ALA797  LYS798  CYS799  TRP800  GLU811  SER814 

> <Gold.Protein.RotatedAtoms>
  150.8046  134.7162  159.6631 H   0  0  0  0  0  0  0  0  0  0  0  0  # atno 6907 bound_to 6896
  152.4164  134.6030  160.0015 H   0  0  0  0  0  0  0  0  0  0  0  0  # atno 6908 bound_to 6896
  151.6258  133.3298  159.3134 H   0  0  0  0  0  0  0  0  0  0  0  0  # atno 6909 bound_to 6896
  146.1327  139.6221  142.9216 H   0  0  0  0  0  0  0  0  0  0  0  0  # atno 7974 bound_to 7965
  155.7485  140.3489  155.5139 H   0  0  0  0  0  0  0  0  0  0  0  0  # atno 8008 bound_to 7997
  155.9027  140.1037  157.1359 H   0  0  0  0  0  0  0  0  0  0  0  0  # atno 8009 bound_to 7997
  154.4046  140.1283  156.4443 H   0  0  0  0  0  0  0  0  0  0  0  0  # atno 8010 bound_to 7997
  139.5563  144.1981  152.1164 H   0  0  0  0  0  0  0  0  0  0  0  0  # atno 10167 bound_to 10162
  156.1175  130.4169  150.0505 H   0  0  0  0  0  0  0  0  0  0  0  0  # atno 10718 bound_to 10713
  153.1147  135.4752  154.9095 H   0  0  0  0  0  0  0  0  0  0  0  0  # atno 10763 bound_to 10752
  154.7516  135.3107  154.8548 H   0  0  0  0  0  0  0  0  0  0  0  0  # atno 10764 bound_to 10752
  153.9128  135.6863  153.4804 H   0  0  0  0  0  0  0  0  0  0  0  0  # atno 10765 bound_to 10752
  140.3774  134.1957  155.7664 H   0  0  0  0  0  0  0  0  0  0  0  0  # atno 11005 bound_to 11000
  145.5226  141.0431  143.2427 LP  0  0  0  0  0  0  0  0  0  0  0  0  # atno 17320 bound_to 7965
  144.7707  139.6742  143.7196 LP  0  0  0  0  0  0  0  0  0  0  0  0  # atno 17321 bound_to 7965
  140.1486  144.5135  150.6701 LP  0  0  0  0  0  0  0  0  0  0  0  0  # atno 17342 bound_to 10162
  140.6836  143.2339  151.5320 LP  0  0  0  0  0  0  0  0  0  0  0  0  # atno 17343 bound_to 10162
  156.8452  130.9439  151.3629 LP  0  0  0  0  0  0  0  0  0  0  0  0  # atno 17370 bound_to 10713
  157.6358  130.8766  149.9357 LP  0  0  0  0  0  0  0  0  0  0  0  0  # atno 17371 bound_to 10713
  141.1934  133.8150  157.0798 LP  0  0  0  0  0  0  0  0  0  0  0  0  # atno 17394 bound_to 11000
  140.0504  134.9808  157.1126 LP  0  0  0  0  0  0  0  0  0  0  0  0  # atno 17395 bound_to 11000

$$$$
