AV-unprocessed.smi:1626|AV-procd|sdf|6512|dock4
  -GOLD-   22720 7183D 1   1.00000     0.00000
 Structure written by MMmdl.
 49 51  0  0  0  0  0  0  0  0  3 V2000
  153.0132  142.1082  161.1513 C   0  0  0  0  0  0  0  0  0  0  0  0
  152.5330  141.5643  159.8165 C   0  0  0  0  0  0  0  0  0  0  0  0
  151.5805  142.3118  159.0873 C   0  0  0  0  0  0  0  0  0  0  0  0
  151.1638  141.7905  157.8682 C   0  0  0  0  0  0  0  0  0  0  0  0
  150.2590  142.2804  156.9239 N   0  3  0  0  0  0  0  0  0  0  0  0
  150.1809  141.4138  155.8763 C   0  0  0  0  0  0  0  0  0  0  0  0
  151.0135  140.3705  156.1445 N   0  0  0  0  0  0  0  0  0  0  0  0
  151.3133  139.1710  155.3519 C   0  0  0  0  0  0  0  0  0  0  0  0
  150.0648  138.3260  155.0233 C   0  0  2  0  0  0  0  0  0  0  0  0
  150.4804  137.2841  154.1637 O   0  0  0  0  0  0  0  0  0  0  0  0
  148.9418  139.1345  154.3353 C   0  0  0  0  0  0  0  0  0  0  0  0
  147.9010  138.2698  153.7215 N   0  3  2  0  0  0  0  0  0  0  0  0
  146.9270  139.0507  152.9159 C   0  0  0  0  0  0  0  0  0  0  0  0
  145.9501  138.1250  152.1686 C   0  0  0  0  0  0  0  0  0  0  0  0
  145.2267  137.1603  153.1223 C   0  0  2  0  0  0  0  0  0  0  0  0
  144.3079  137.8716  153.9272 O   0  0  0  0  0  0  0  0  0  0  0  0
  146.2448  136.4198  154.0052 C   0  0  0  0  0  0  0  0  0  0  0  0
  147.2124  137.3916  154.7054 C   0  0  0  0  0  0  0  0  0  0  0  0
  151.6567  140.5686  157.3709 C   0  0  0  0  0  0  0  0  0  0  0  0
  152.5963  139.8202  158.0752 C   0  0  0  0  0  0  0  0  0  0  0  0
  153.0345  140.3346  159.3164 C   0  0  0  0  0  0  0  0  0  0  0  0
  154.0603  139.5413  160.1079 C   0  0  0  0  0  0  0  0  0  0  0  0
  152.5606  143.0750  161.3752 H   0  0  0  0  0  0  0  0  0  0  0  0
  154.0950  142.2423  161.1445 H   0  0  0  0  0  0  0  0  0  0  0  0
  152.7535  141.4237  161.9592 H   0  0  0  0  0  0  0  0  0  0  0  0
  151.1967  143.2501  159.4608 H   0  0  0  0  0  0  0  0  0  0  0  0
  149.5678  141.5325  154.9943 H   0  0  0  0  0  0  0  0  0  0  0  0
  151.7973  139.5036  154.4322 H   0  0  0  0  0  0  0  0  0  0  0  0
  152.0532  138.5812  155.8953 H   0  0  0  0  0  0  0  0  0  0  0  0
  149.7012  137.8718  155.9437 H   0  0  0  0  0  0  0  0  0  0  0  0
  149.8729  137.2153  153.4433 H   0  0  0  0  0  0  0  0  0  0  0  0
  148.4565  139.8114  155.0393 H   0  0  0  0  0  0  0  0  0  0  0  0
  149.3958  139.7695  153.5727 H   0  0  0  0  0  0  0  0  0  0  0  0
  146.3811  139.7360  153.5663 H   0  0  0  0  0  0  0  0  0  0  0  0
  147.4589  139.6639  152.1874 H   0  0  0  0  0  0  0  0  0  0  0  0
  145.2258  138.7170  151.6077 H   0  0  0  0  0  0  0  0  0  0  0  0
  146.5058  137.5461  151.4300 H   0  0  0  0  0  0  0  0  0  0  0  0
  144.6539  136.4372  152.5409 H   0  0  0  0  0  0  0  0  0  0  0  0
  143.8784  138.5231  153.3930 H   0  0  0  0  0  0  0  0  0  0  0  0
  145.7298  135.8039  154.7436 H   0  0  0  0  0  0  0  0  0  0  0  0
  146.8206  135.7315  153.3849 H   0  0  0  0  0  0  0  0  0  0  0  0
  147.9383  136.8125  155.2745 H   0  0  0  0  0  0  0  0  0  0  0  0
  146.6712  138.0060  155.4266 H   0  0  0  0  0  0  0  0  0  0  0  0
  152.9816  138.8865  157.6925 H   0  0  0  0  0  0  0  0  0  0  0  0
  154.3308  138.6168  159.5969 H   0  0  0  0  0  0  0  0  0  0  0  0
  153.6667  139.2764  161.0895 H   0  0  0  0  0  0  0  0  0  0  0  0
  154.9716  140.1238  160.2452 H   0  0  0  0  0  0  0  0  0  0  0  0
  148.3807  137.6670  153.0688 H   0  0  0  0  0  0  0  0  0  0  0  0
  149.7382  143.1465  156.9837 H   0  0  0  0  0  0  0  0  0  0  0  0
  1  2  1  0  0  0  0
  1 23  1  0  0  0  0
  1 24  1  0  0  0  0
  1 25  1  0  0  0  0
  2 21  1  0  0  0  0
  2  3  2  0  0  0  0
  3  4  1  0  0  0  0
  3 26  1  0  0  0  0
  4 19  2  0  0  0  0
  4  5  1  0  0  0  0
  5  6  2  0  0  0  0
  5 49  1  0  0  0  0
  6  7  1  0  0  0  0
  6 27  1  0  0  0  0
  7  8  1  0  0  0  0
  7 19  1  0  0  0  0
  8  9  1  0  0  0  0
  8 28  1  0  0  0  0
  8 29  1  0  0  0  0
  9 10  1  0  0  0  0
  9 11  1  0  0  0  0
  9 30  1  0  0  0  0
 10 31  1  0  0  0  0
 11 12  1  0  0  0  0
 11 32  1  0  0  0  0
 11 33  1  0  0  0  0
 12 18  1  0  0  0  0
 12 13  1  0  0  0  0
 12 48  1  0  0  0  0
 13 14  1  0  0  0  0
 13 34  1  0  0  0  0
 13 35  1  0  0  0  0
 14 15  1  0  0  0  0
 14 36  1  0  0  0  0
 14 37  1  0  0  0  0
 15 16  1  0  0  0  0
 15 17  1  0  0  0  0
 15 38  1  0  0  0  0
 16 39  1  0  0  0  0
 17 18  1  0  0  0  0
 17 40  1  0  0  0  0
 17 41  1  0  0  0  0
 18 42  1  0  0  0  0
 18 43  1  0  0  0  0
 19 20  1  0  0  0  0
 20 21  2  0  0  0  0
 20 44  1  0  0  0  0
 21 22  1  0  0  0  0
 22 45  1  0  0  0  0
 22 46  1  0  0  0  0
 22 47  1  0  0  0  0
M  CHG  1   5   1
M  CHG  1  12   1
M  END
> <s_m_source_file>
AV-unprocessed.smi

> <i_m_source_file_index>
1626

> <i_lp_mmshare_version>
43012

> <i_f3d_flags>
0

> <s_epik_input>
W0NIM11jKFtjSF0xKWMoW0NIM10pW2NIXWMoYzEyKW4oW2NIXW4yKVtDSDJdW0NASF0oW09IXSlbQ0gyXU4zW0NIMl1bQ0gyXVtDSF0oW09IXSlbQ0gyXVtDSDJdMw==

> <s_epik_cmdline>
J2VwaWtfcHl0aG9uJywgJy1waCcsICc3LjAnLCAnLXRuJywgJzgnLCAnLW1hJywgJzIwMCcsICctbWV0YWxfYmluZGluZycsICctaW1hZScsICc8aW5maWxlLm1hZT4nLCAnLW9tYWUnLCAnPG91dGZpbGUubWFlPic=

> <r_epik_Ionization_Penalty>
1.19369

> <r_epik_Ionization_Penalty_Charging>
1.19369

> <r_epik_Ionization_Penalty_Neutral>
1.68219e-06

> <r_epik_State_Penalty>
1.27429

> <r_epik_Charging_Adjusted_Penalty>
2.46798

> <i_epik_Tot_Q>
2

> <i_epik_Tot_abs_Q>
2

> <r_epik_Metal_State_Penalty>
5.29157

> <b_epik_Metal_Only>
0

> <s_lp_Force_Field>
OPLS_2005

> <r_lp_Energy>
35.0493

> <b_lp_Chiralities_Consistent>
1

> <s_lp_Variant>
AV-unprocessed.smi:1626-7

> <Gold.Version>
5.8.1

> <Gold.Id.Protein>
6NUR|6NUR_protein|mol2

> <Gold.PLP.Fitness>
61.0789

> <Gold.PLP.PLP>
-43.4293

> <Gold.PLP.part.hbond>
-5.2273

> <Gold.PLP.part.metal>
0.0000

> <Gold.PLP.part.buried>
-1.0034

> <Gold.PLP.part.nonpolar>
-37.2461

> <Gold.PLP.part.repulsive>
0.0878

> <Gold.PLP.ligand.clash>
0.0000

> <Gold.PLP.ligand.torsion>
0.1366

> <Gold.PLP.Chemscore.Hbond>
5.9670

> <Gold.PLP.Chemscore.CHOScore>
0.0000

> <Gold.PLP.Chemscore.Metal>
0.0000

> <Gold.Chemscore.Hbonds>
donor molecule, donor type, donor heavy atom, donor atom, acceptor molecule, acceptor atom, score
      L1  H     5    49       P1  8028  0.85
      L1  H    10    31       P1  7948  0.98
      L1  H    12    48       P1  7948  2.00
      L1  H    16    39       P1 10175  0.73

> <Gold.PLP.Chemscore.Internal.Correction>
0.0218

> <Gold.Rescore>
     Score         DG    S(hbond)    S(metal)    S(lipo)     H(rot)  DE(clash)    DE(int)     intcor
     21.64     -21.85       3.39        0.00     102.93       2.74       0.17       0.04       ----

> <Gold.Chemscore.Fitness>
21.6419

> <Gold.Chemscore.DG>
-21.8468

> <Gold.Chemscore.ZeroCoef>
-5.4800

> <Gold.Chemscore.Hbond>
3.3937

> <Gold.Chemscore.Metal>
0.0000

> <Gold.Chemscore.Lipo>
102.9259

> <Gold.Chemscore.Internal_Hbond>
0.0000

> <Gold.Chemscore.DEClash>
0.1657

> <Gold.Chemscore.DEInternal>
0.0392

> <Gold.Chemscore.Rot>
2.7384

> <Gold.Chemscore.Internal.Correction>
   9.000000E+99

> <Gold.Chemscore.Hbonds>
donor molecule, donor type, donor heavy atom, donor atom, acceptor molecule, acceptor atom, score
      L1  H     5    49       P1  8028  0.42
      L1  H    10    31       P1  7948  0.45
      L1  H    12    48       P1  7948  0.99
      L1  H    16    39       P1 10175  0.72

> <Gold.Chemscore.Hbond.Weighted>
-11.3348

> <Gold.Chemscore.Metal.Weighted>
-0.0000

> <Gold.Chemscore.Lipo.Weighted>
-12.0423

> <Gold.Chemscore.Internal_Hbond.Weighted>
0.0000

> <Gold.Chemscore.DEClash.Weighted>
0.1657

> <Gold.Chemscore.DEInternal.Weighted>
0.0392

> <Gold.Chemscore.Rot.Weighted>
7.0103

> <Gold.Chemscore.Internal.Correction.Weighted>
   9.000000E+99

> <Gold.Protein.RotatedTorsions>
[ 6907 6896 6895 6894 ] final  170.63 input  -60.11 | X-H torsion
[ 7974 7965 7964 7962 ] final  -58.87 input  175.53 | X-H torsion
[ 8008 7997 7996 7995 ] final   87.63 input   59.86 | X-H torsion
[ 10167 10162 10161 10158 ] final  -95.50 input  -65.29 | X-H torsion
[ 10718 10713 10712 10709 ] final  -92.51 input   66.30 | X-H torsion
[ 10763 10752 10751 10750 ] final   94.66 input  -60.55 | X-H torsion
[ 11005 11000 10999 10996 ] final  145.95 input  -57.11 | X-H torsion

> <Gold.Protein.ActiveResidues>
 VAL166  LYS551  ARG553  GLY616  TRP617  ASP618  TYR619  PRO620  LYS621  CYS622 
 ASP623  PHE694  ASN695  SER759  ASP760  ASP761  ALA762  ILE779  LEU786  VAL792 
 PHE793  MET794  SER795  GLU796  ALA797  LYS798  CYS799  TRP800  GLU811  SER814 

> <Gold.Protein.RotatedAtoms>
  151.8131  133.3384  159.3561 H   0  0  0  0  0  0  0  0  0  0  0  0  # atno 6907 bound_to 6896
  150.7319  134.5645  159.5868 H   0  0  0  0  0  0  0  0  0  0  0  0  # atno 6908 bound_to 6896
  152.3060  134.7555  160.0398 H   0  0  0  0  0  0  0  0  0  0  0  0  # atno 6909 bound_to 6896
  145.8343  140.8459  143.0067 H   0  0  0  0  0  0  0  0  0  0  0  0  # atno 7974 bound_to 7965
  155.9777  140.3380  155.6634 H   0  0  0  0  0  0  0  0  0  0  0  0  # atno 8008 bound_to 7997
  155.6590  140.0714  157.2579 H   0  0  0  0  0  0  0  0  0  0  0  0  # atno 8009 bound_to 7997
  154.4183  140.1712  156.1743 H   0  0  0  0  0  0  0  0  0  0  0  0  # atno 8010 bound_to 7997
  140.3035  143.3148  152.0223 H   0  0  0  0  0  0  0  0  0  0  0  0  # atno 10167 bound_to 10162
  156.0003  130.4990  150.5636 H   0  0  0  0  0  0  0  0  0  0  0  0  # atno 10718 bound_to 10713
  153.2442  135.4281  155.0730 H   0  0  0  0  0  0  0  0  0  0  0  0  # atno 10763 bound_to 10752
  154.8354  135.3410  154.6605 H   0  0  0  0  0  0  0  0  0  0  0  0  # atno 10764 bound_to 10752
  153.7028  135.7027  153.5115 H   0  0  0  0  0  0  0  0  0  0  0  0  # atno 10765 bound_to 10752
  140.0753  134.9128  157.1413 H   0  0  0  0  0  0  0  0  0  0  0  0  # atno 11005 bound_to 11000
  144.6737  140.0717  143.7472 LP  0  0  0  0  0  0  0  0  0  0  0  0  # atno 17320 bound_to 7965
  145.9537  139.2751  143.1197 LP  0  0  0  0  0  0  0  0  0  0  0  0  # atno 17321 bound_to 7965
  139.4909  144.6438  151.6822 LP  0  0  0  0  0  0  0  0  0  0  0  0  # atno 17342 bound_to 10162
  140.5630  144.0237  150.6179 LP  0  0  0  0  0  0  0  0  0  0  0  0  # atno 17343 bound_to 10162
  157.3542  131.0738  151.1689 LP  0  0  0  0  0  0  0  0  0  0  0  0  # atno 17370 bound_to 10713
  157.2495  130.6607  149.5925 LP  0  0  0  0  0  0  0  0  0  0  0  0  # atno 17371 bound_to 10713
  140.3566  134.2540  155.7192 LP  0  0  0  0  0  0  0  0  0  0  0  0  # atno 17394 bound_to 11000
  141.2027  133.7930  157.0376 LP  0  0  0  0  0  0  0  0  0  0  0  0  # atno 17395 bound_to 11000

$$$$
