AV-unprocessed.smi:33|AV-procd|sdf|208|dock7
  -GOLD-   2262015503D 1   1.00000     0.00000
 Structure written by MMmdl.
 67 72  0  0  0  0  0  0  0  0  1 V2000
  151.7862  140.3896  158.8104 O   0  0  0  0  0  0  0  0  0  0  0  0
  151.0918  141.3925  158.6327 C   0  0  0  0  0  0  0  0  0  0  0  0
  150.0282  141.4293  157.8056 O   0  0  0  0  0  0  0  0  0  0  0  0
  149.6444  140.2711  157.0809 C   0  0  0  0  0  0  0  0  0  0  0  0
  150.8290  139.8045  156.2193 C   0  0  1  0  0  0  0  0  0  0  0  0
  151.2011  138.4829  156.6240 O   0  0  0  0  0  0  0  0  0  0  0  0
  150.9445  137.5560  155.6097 C   0  0  1  0  0  0  0  0  0  0  0  0
  150.3668  136.3029  156.1943 N   0  0  0  0  0  0  0  0  0  0  0  0
  150.1057  136.0507  157.5230 C   0  0  0  0  0  0  0  0  0  0  0  0
  149.5959  134.8771  157.7834 N   0  0  0  0  0  0  0  0  0  0  0  0
  149.4958  134.2724  156.5376 C   0  0  0  0  0  0  0  0  0  0  0  0
  149.0319  133.0065  156.0884 C   0  0  0  0  0  0  0  0  0  0  0  0
  148.5350  132.0654  156.9246 N   0  0  0  0  0  0  0  0  0  0  0  0
  147.5441  132.5094  157.9160 C   0  0  0  0  0  0  0  0  0  0  0  0
  146.8866  133.5302  157.7048 O   0  0  0  0  0  0  0  0  0  0  0  0
  147.2981  131.7062  159.1615 C   0  0  0  0  0  0  0  0  0  0  0  0
  148.3278  130.9035  159.6996 C   0  0  0  0  0  0  0  0  0  0  0  0
  148.0985  130.1379  160.8595 C   0  0  0  0  0  0  0  0  0  0  0  0
  146.8330  130.1545  161.4764 C   0  0  0  0  0  0  0  0  0  0  0  0
  145.7938  130.9301  160.9282 C   0  0  0  0  0  0  0  0  0  0  0  0
  146.0226  131.6975  159.7697 C   0  0  0  0  0  0  0  0  0  0  0  0
  149.0221  130.6886  156.7537 C   0  0  0  0  0  0  0  0  0  0  0  0
  148.3160  129.7458  157.1166 O   0  0  0  0  0  0  0  0  0  0  0  0
  150.3436  130.4223  156.0895 C   0  0  0  0  0  0  0  0  0  0  0  0
  150.4611  129.3823  155.1413 C   0  0  0  0  0  0  0  0  0  0  0  0
  151.6997  129.1211  154.5236 C   0  0  0  0  0  0  0  0  0  0  0  0
  152.8325  129.8847  154.8642 C   0  0  0  0  0  0  0  0  0  0  0  0
  152.7291  130.9033  155.8304 C   0  0  0  0  0  0  0  0  0  0  0  0
  151.4909  131.1657  156.4479 C   0  0  0  0  0  0  0  0  0  0  0  0
  149.0897  132.7395  154.7582 N   0  0  0  0  0  0  0  0  0  0  0  0
  149.5699  133.6606  153.9183 C   0  0  0  0  0  0  0  0  0  0  0  0
  150.0318  134.8815  154.1960 N   0  0  0  0  0  0  0  0  0  0  0  0
  149.9786  135.1542  155.5316 C   0  0  0  0  0  0  0  0  0  0  0  0
  150.0214  138.2318  154.5888 C   0  0  1  0  0  0  0  0  0  0  0  0
  148.6441  138.0767  154.8843 O   0  0  0  0  0  0  0  0  0  0  0  0
  150.4933  139.6665  154.7299 C   0  0  1  0  0  0  0  0  0  0  0  0
  149.6298  140.5671  154.2569 F   0  0  0  0  0  0  0  0  0  0  0  0
  151.3512  142.6998  159.3015 C   0  0  0  0  0  0  0  0  0  0  0  0
  151.1730  143.8985  158.5719 C   0  0  0  0  0  0  0  0  0  0  0  0
  151.4053  145.1484  159.1780 C   0  0  0  0  0  0  0  0  0  0  0  0
  151.8202  145.2152  160.5207 C   0  0  0  0  0  0  0  0  0  0  0  0
  152.0022  144.0301  161.2570 C   0  0  0  0  0  0  0  0  0  0  0  0
  151.7687  142.7791  160.6531 C   0  0  0  0  0  0  0  0  0  0  0  0
  149.3238  139.4744  157.7517 H   0  0  0  0  0  0  0  0  0  0  0  0
  148.7923  140.5244  156.4495 H   0  0  0  0  0  0  0  0  0  0  0  0
  151.6685  140.4877  156.3535 H   0  0  0  0  0  0  0  0  0  0  0  0
  151.8942  137.2470  155.1701 H   0  0  0  0  0  0  0  0  0  0  0  0
  150.3078  136.7724  158.3012 H   0  0  0  0  0  0  0  0  0  0  0  0
  149.3029  130.8835  159.2344 H   0  0  0  0  0  0  0  0  0  0  0  0
  148.8936  129.5369  161.2750 H   0  0  0  0  0  0  0  0  0  0  0  0
  146.6580  129.5668  162.3654 H   0  0  0  0  0  0  0  0  0  0  0  0
  144.8200  130.9356  161.3952 H   0  0  0  0  0  0  0  0  0  0  0  0
  145.2161  132.2848  159.3548 H   0  0  0  0  0  0  0  0  0  0  0  0
  149.5985  128.7900  154.8718 H   0  0  0  0  0  0  0  0  0  0  0  0
  151.7804  128.3338  153.7888 H   0  0  0  0  0  0  0  0  0  0  0  0
  153.7817  129.6843  154.3894 H   0  0  0  0  0  0  0  0  0  0  0  0
  153.5993  131.4836  156.0992 H   0  0  0  0  0  0  0  0  0  0  0  0
  151.4248  131.9474  157.1910 H   0  0  0  0  0  0  0  0  0  0  0  0
  149.5857  133.3812  152.8750 H   0  0  0  0  0  0  0  0  0  0  0  0
  150.2126  137.8294  153.5935 H   0  0  0  0  0  0  0  0  0  0  0  0
  148.1785  137.9289  154.0751 H   0  0  0  0  0  0  0  0  0  0  0  0
  151.4097  139.7927  154.1513 H   0  0  0  0  0  0  0  0  0  0  0  0
  150.8531  143.8726  157.5402 H   0  0  0  0  0  0  0  0  0  0  0  0
  151.2640  146.0571  158.6117 H   0  0  0  0  0  0  0  0  0  0  0  0
  151.9983  146.1738  160.9852 H   0  0  0  0  0  0  0  0  0  0  0  0
  152.3204  144.0802  162.2877 H   0  0  0  0  0  0  0  0  0  0  0  0
  151.9172  141.8890  161.2470 H   0  0  0  0  0  0  0  0  0  0  0  0
  1  2  2  0  0  0  0
  2  3  1  0  0  0  0
  2 38  1  0  0  0  0
  3  4  1  0  0  0  0
  4  5  1  0  0  0  0
  4 44  1  0  0  0  0
  4 45  1  0  0  0  0
  5 36  1  0  0  0  0
  5  6  1  0  0  0  0
  5 46  1  0  0  0  0
  6  7  1  0  0  0  0
  7  8  1  0  0  0  0
  7 34  1  0  0  0  0
  7 47  1  0  0  0  0
  8 33  1  0  0  0  0
  8  9  1  0  0  0  0
  9 10  2  0  0  0  0
  9 48  1  0  0  0  0
 10 11  1  0  0  0  0
 11 33  2  0  0  0  0
 11 12  1  0  0  0  0
 12 13  1  0  0  0  0
 12 30  2  0  0  0  0
 13 14  1  0  0  0  0
 13 22  1  0  0  0  0
 14 15  2  0  0  0  0
 14 16  1  0  0  0  0
 16 21  1  0  0  0  0
 16 17  2  0  0  0  0
 17 18  1  0  0  0  0
 17 49  1  0  0  0  0
 18 19  2  0  0  0  0
 18 50  1  0  0  0  0
 19 20  1  0  0  0  0
 19 51  1  0  0  0  0
 20 21  2  0  0  0  0
 20 52  1  0  0  0  0
 21 53  1  0  0  0  0
 22 23  2  0  0  0  0
 22 24  1  0  0  0  0
 24 29  1  0  0  0  0
 24 25  2  0  0  0  0
 25 26  1  0  0  0  0
 25 54  1  0  0  0  0
 26 27  2  0  0  0  0
 26 55  1  0  0  0  0
 27 28  1  0  0  0  0
 27 56  1  0  0  0  0
 28 29  2  0  0  0  0
 28 57  1  0  0  0  0
 29 58  1  0  0  0  0
 30 31  1  0  0  0  0
 31 32  2  0  0  0  0
 31 59  1  0  0  0  0
 32 33  1  0  0  0  0
 34 35  1  0  0  0  0
 34 36  1  0  0  0  0
 34 60  1  0  0  0  0
 35 61  1  0  0  0  0
 36 37  1  0  0  0  0
 36 62  1  0  0  0  0
 38 43  1  0  0  0  0
 38 39  2  0  0  0  0
 39 40  1  0  0  0  0
 39 63  1  0  0  0  0
 40 41  2  0  0  0  0
 40 64  1  0  0  0  0
 41 42  1  0  0  0  0
 41 65  1  0  0  0  0
 42 43  2  0  0  0  0
 42 66  1  0  0  0  0
 43 67  1  0  0  0  0
M  END
> <s_m_source_file>
AV-unprocessed.smi

> <i_m_source_file_index>
33

> <i_lp_mmshare_version>
43012

> <i_f3d_flags>
0

> <s_epik_input>
W2NIXTFbY0hdW2NIXVtjSF1bY0hdYzFDKD1PKU9bQ0gyXVtDQEBIXTJPW0NASF0oW0NAQEhdKFtPSF0pW0NAQEhdMkYpbihbY0hdbjMpYyhjMzQpbltjSF1uYzROKEMoPU8pYzVbY0hdW2NIXVtjSF1bY0hdW2NIXTUpQyg9TyljNltjSF1bY0hdW2NIXVtjSF1bY0hdNg==

> <s_epik_cmdline>
J2VwaWtfcHl0aG9uJywgJy1waCcsICc3LjAnLCAnLXRuJywgJzgnLCAnLW1hJywgJzIwMCcsICctbWV0YWxfYmluZGluZycsICctaW1hZScsICc8aW5maWxlLm1hZT4nLCAnLW9tYWUnLCAnPG91dGZpbGUubWFlPic=

> <r_lp_tautomer_probability>
1

> <r_epik_Ionization_Penalty>
0.00067664

> <r_epik_Ionization_Penalty_Charging>
0

> <r_epik_Ionization_Penalty_Neutral>
0.00067664

> <r_epik_State_Penalty>
0.000428095

> <r_epik_Charging_Adjusted_Penalty>
0.000428095

> <i_epik_Tot_Q>
0

> <i_epik_Tot_abs_Q>
0

> <r_epik_Metal_State_Penalty>
-0

> <b_epik_Metal_Only>
0

> <s_epik_Chemistry_Notes>
This compound has an ester and may undergo hydrolysis at high or low pH. This compound contains an acetal/aminal-like group ( X-CH(R)-Y where X, Y are N, S, or O) that may be acid/base labile, releasing an aldehyde.

> <s_lp_Force_Field>
OPLS_2005

> <r_lp_Energy>
79.915

> <b_lp_Chiralities_Consistent>
1

> <s_lp_Variant>
AV-unprocessed.smi:33-10

> <Gold.Version>
5.8.1

> <Gold.Id.Protein>
6NUR|6NUR_protein|mol2

> <Gold.PLP.Fitness>
55.4275

> <Gold.PLP.PLP>
-55.7084

> <Gold.PLP.part.hbond>
-0.9930

> <Gold.PLP.part.metal>
0.0000

> <Gold.PLP.part.buried>
-4.9396

> <Gold.PLP.part.nonpolar>
-50.0747

> <Gold.PLP.part.repulsive>
0.4486

> <Gold.PLP.ligand.clash>
0.0000

> <Gold.PLP.ligand.torsion>
3.6547

> <Gold.PLP.Chemscore.Hbond>
0.8800

> <Gold.PLP.Chemscore.CHOScore>
0.0000

> <Gold.PLP.Chemscore.Metal>
0.0000

> <Gold.Chemscore.Hbonds>
donor molecule, donor type, donor heavy atom, donor atom, acceptor molecule, acceptor atom, score
      P1  H  6896  6908       L1    10  1.00

> <Gold.PLP.Chemscore.Internal.Correction>
4.3886

> <Gold.Rescore>
     Score         DG    S(hbond)    S(metal)    S(lipo)     H(rot)  DE(clash)    DE(int)     intcor
      9.81     -18.90       0.80        0.00     147.22       2.52       0.46       8.63       ----

> <Gold.Chemscore.Fitness>
9.8139

> <Gold.Chemscore.DG>
-18.9001

> <Gold.Chemscore.ZeroCoef>
-5.4800

> <Gold.Chemscore.Hbond>
0.7961

> <Gold.Chemscore.Metal>
0.0000

> <Gold.Chemscore.Lipo>
147.2180

> <Gold.Chemscore.Internal_Hbond>
0.0000

> <Gold.Chemscore.DEClash>
0.4563

> <Gold.Chemscore.DEInternal>
8.6299

> <Gold.Chemscore.Rot>
2.5247

> <Gold.Chemscore.Internal.Correction>
   9.000000E+99

> <Gold.Chemscore.Hbonds>
donor molecule, donor type, donor heavy atom, donor atom, acceptor molecule, acceptor atom, score
      P1  H  6896  6908       L1    10  0.32

> <Gold.Chemscore.Hbond.Weighted>
-2.6588

> <Gold.Chemscore.Metal.Weighted>
-0.0000

> <Gold.Chemscore.Lipo.Weighted>
-17.2245

> <Gold.Chemscore.Internal_Hbond.Weighted>
0.0000

> <Gold.Chemscore.DEClash.Weighted>
0.4563

> <Gold.Chemscore.DEInternal.Weighted>
8.6299

> <Gold.Chemscore.Rot.Weighted>
6.4633

> <Gold.Chemscore.Internal.Correction.Weighted>
   9.000000E+99

> <Gold.Protein.RotatedTorsions>
[ 6907 6896 6895 6894 ] final  153.30 input  -60.11 | X-H torsion
[ 7974 7965 7964 7962 ] final   -8.57 input  175.53 | X-H torsion
[ 8008 7997 7996 7995 ] final  -20.10 input   59.86 | X-H torsion
[ 10167 10162 10161 10158 ] final -177.32 input  -65.29 | X-H torsion
[ 10718 10713 10712 10709 ] final  -32.66 input   66.30 | X-H torsion
[ 10763 10752 10751 10750 ] final   77.57 input  -60.55 | X-H torsion
[ 11005 11000 10999 10996 ] final -176.26 input  -57.11 | X-H torsion

> <Gold.Protein.ActiveResidues>
 VAL166  LYS551  ARG553  GLY616  TRP617  ASP618  TYR619  PRO620  LYS621  CYS622 
 ASP623  PHE694  ASN695  SER759  ASP760  ASP761  ALA762  ILE779  LEU786  VAL792 
 PHE793  MET794  SER795  GLU796  ALA797  LYS798  CYS799  TRP800  GLU811  SER814 

> <Gold.Protein.RotatedAtoms>
  152.0746  133.4123  159.4474 H   0  0  0  0  0  0  0  0  0  0  0  0  # atno 6907 bound_to 6896
  150.6863  134.3052  159.4732 H   0  0  0  0  0  0  0  0  0  0  0  0  # atno 6908 bound_to 6896
  152.0887  134.9421  160.0623 H   0  0  0  0  0  0  0  0  0  0  0  0  # atno 6909 bound_to 6896
  146.2277  140.2487  142.8346 H   0  0  0  0  0  0  0  0  0  0  0  0  # atno 7974 bound_to 7965
  154.4792  140.2071  155.9803 H   0  0  0  0  0  0  0  0  0  0  0  0  # atno 8008 bound_to 7997
  156.1139  140.3224  155.8081 H   0  0  0  0  0  0  0  0  0  0  0  0  # atno 8009 bound_to 7997
  155.4587  140.0522  157.2984 H   0  0  0  0  0  0  0  0  0  0  0  0  # atno 8010 bound_to 7997
  139.5486  144.2169  152.1035 H   0  0  0  0  0  0  0  0  0  0  0  0  # atno 10167 bound_to 10162
  156.3722  130.4341  149.7536 H   0  0  0  0  0  0  0  0  0  0  0  0  # atno 10718 bound_to 10713
  153.0808  135.4909  154.8499 H   0  0  0  0  0  0  0  0  0  0  0  0  # atno 10763 bound_to 10752
  154.7148  135.3027  154.9143 H   0  0  0  0  0  0  0  0  0  0  0  0  # atno 10764 bound_to 10752
  153.9825  135.6788  153.4803 H   0  0  0  0  0  0  0  0  0  0  0  0  # atno 10765 bound_to 10752
  140.4540  134.6316  157.4814 H   0  0  0  0  0  0  0  0  0  0  0  0  # atno 11005 bound_to 11000
  144.9428  140.8097  143.5620 LP  0  0  0  0  0  0  0  0  0  0  0  0  # atno 17320 bound_to 7965
  145.2440  139.2060  143.4977 LP  0  0  0  0  0  0  0  0  0  0  0  0  # atno 17321 bound_to 7965
  140.1660  144.4981  150.6606 LP  0  0  0  0  0  0  0  0  0  0  0  0  # atno 17342 bound_to 10162
  140.6742  143.2298  151.5549 LP  0  0  0  0  0  0  0  0  0  0  0  0  # atno 17343 bound_to 10162
  156.4659  130.7974  151.2993 LP  0  0  0  0  0  0  0  0  0  0  0  0  # atno 17370 bound_to 10713
  157.7485  131.0051  150.3101 LP  0  0  0  0  0  0  0  0  0  0  0  0  # atno 17371 bound_to 10713
  139.9988  134.6869  155.9565 LP  0  0  0  0  0  0  0  0  0  0  0  0  # atno 17394 bound_to 11000
  141.1651  133.6537  156.4452 LP  0  0  0  0  0  0  0  0  0  0  0  0  # atno 17395 bound_to 11000

$$$$
