AV-unprocessed.smi:2919|AV-procd|sdf|11192|dock7
  -GOLD-   2272016 83D 1   1.00000     0.00000
 Structure written by MMmdl.
 34 36  0  0  0  0  0  0  0  0  1 V2000
  151.8884  144.7952  160.9677 C   0  0  0  0  0  0  0  0  0  0  0  0
  151.7561  143.7409  159.8829 C   0  0  0  0  0  0  0  0  0  0  0  0
  150.8345  144.0128  158.9330 N   0  0  0  0  0  0  0  0  0  0  0  0
  150.6279  143.1606  157.9280 N   0  0  0  0  0  0  0  0  0  0  0  0
  151.3316  142.0061  157.8366 C   0  0  0  0  0  0  0  0  0  0  0  0
  151.0563  141.1584  156.7475 N   0  0  0  0  0  0  0  0  0  0  0  0
  149.6968  140.9572  156.2574 C   0  0  2  0  0  0  0  0  0  0  0  0
  149.3399  139.4779  156.0611 C   0  0  0  0  0  0  0  0  0  0  0  0
  148.9164  139.4462  154.5875 C   0  0  1  0  0  0  0  0  0  0  0  0
  147.5952  140.1887  154.3449 C   0  0  0  0  0  0  0  0  0  0  0  0
  148.0273  141.6483  154.4833 C   0  0  0  0  0  0  0  0  0  0  0  0
  149.5148  141.5059  154.8319 C   0  0  2  0  0  0  0  0  0  0  0  0
  149.8419  140.3713  154.0455 O   0  0  0  0  0  0  0  0  0  0  0  0
  152.3160  141.6581  158.7978 C   0  0  0  0  0  0  0  0  0  0  0  0
  153.0736  140.4124  158.6944 C   0  0  0  0  0  0  0  0  0  0  0  0
  153.6734  139.4263  158.6124 N   0  0  0  0  0  0  0  0  0  0  0  0
  152.5394  142.5614  159.8675 C   0  0  0  0  0  0  0  0  0  0  0  0
  153.5769  142.2687  160.9484 C   0  0  0  0  0  0  0  0  0  0  0  0
  152.8991  145.2037  160.9811 H   0  0  0  0  0  0  0  0  0  0  0  0
  151.6708  144.3660  161.9458 H   0  0  0  0  0  0  0  0  0  0  0  0
  151.1971  145.6236  160.8068 H   0  0  0  0  0  0  0  0  0  0  0  0
  151.7781  140.5355  156.4137 H   0  0  0  0  0  0  0  0  0  0  0  0
  148.9965  141.4517  156.9324 H   0  0  0  0  0  0  0  0  0  0  0  0
  150.2046  138.8309  156.2162 H   0  0  0  0  0  0  0  0  0  0  0  0
  148.5458  139.1455  156.7305 H   0  0  0  0  0  0  0  0  0  0  0  0
  148.9572  138.4542  154.1371 H   0  0  0  0  0  0  0  0  0  0  0  0
  147.2177  139.9954  153.3402 H   0  0  0  0  0  0  0  0  0  0  0  0
  146.8239  139.9046  155.0616 H   0  0  0  0  0  0  0  0  0  0  0  0
  147.9023  142.1746  153.5363 H   0  0  0  0  0  0  0  0  0  0  0  0
  147.4680  142.1865  155.2495 H   0  0  0  0  0  0  0  0  0  0  0  0
  150.1014  142.3984  154.6102 H   0  0  0  0  0  0  0  0  0  0  0  0
  153.3293  141.3413  161.4658 H   0  0  0  0  0  0  0  0  0  0  0  0
  153.6498  143.0510  161.7017 H   0  0  0  0  0  0  0  0  0  0  0  0
  154.5653  142.1566  160.5013 H   0  0  0  0  0  0  0  0  0  0  0  0
  1  2  1  0  0  0  0
  1 19  1  0  0  0  0
  1 20  1  0  0  0  0
  1 21  1  0  0  0  0
  2 17  1  0  0  0  0
  2  3  2  0  0  0  0
  3  4  1  0  0  0  0
  4  5  2  0  0  0  0
  5  6  1  0  0  0  0
  5 14  1  0  0  0  0
  6  7  1  0  0  0  0
  6 22  1  0  0  0  0
  7 12  1  0  0  0  0
  7  8  1  0  0  0  0
  7 23  1  0  0  0  0
  8  9  1  0  0  0  0
  8 24  1  0  0  0  0
  8 25  1  0  0  0  0
  9 13  1  0  0  0  0
  9 10  1  0  0  0  0
  9 26  1  0  0  0  0
 10 11  1  0  0  0  0
 10 27  1  0  0  0  0
 10 28  1  0  0  0  0
 11 12  1  0  0  0  0
 11 29  1  0  0  0  0
 11 30  1  0  0  0  0
 12 13  1  0  0  0  0
 12 31  1  0  0  0  0
 14 15  1  0  0  0  0
 14 17  2  0  0  0  0
 15 16  3  0  0  0  0
 17 18  1  0  0  0  0
 18 32  1  0  0  0  0
 18 33  1  0  0  0  0
 18 34  1  0  0  0  0
M  END
> <s_m_source_file>
AV-unprocessed.smi

> <i_m_source_file_index>
2919

> <i_lp_mmshare_version>
43012

> <i_f3d_flags>
0

> <s_epik_input>
W0NIM11jMW5uYyhjKEMjTiljMVtDSDNdKVtOSF1bQ0BIXShbQ0gyXVtDQEBIXTIzKVtDQEBIXShPMylbQ0gyXVtDSDJdMg==

> <s_epik_cmdline>
J2VwaWtfcHl0aG9uJywgJy1waCcsICc3LjAnLCAnLXRuJywgJzgnLCAnLW1hJywgJzIwMCcsICctbWV0YWxfYmluZGluZycsICctaW1hZScsICc8aW5maWxlLm1hZT4nLCAnLW9tYWUnLCAnPG91dGZpbGUubWFlPic=

> <r_lp_tautomer_probability>
1

> <r_epik_Ionization_Penalty>
0.00143865

> <r_epik_Ionization_Penalty_Charging>
0

> <r_epik_Ionization_Penalty_Neutral>
0.00143865

> <r_epik_State_Penalty>
-0

> <r_epik_Charging_Adjusted_Penalty>
0

> <i_epik_Tot_Q>
0

> <i_epik_Tot_abs_Q>
0

> <r_epik_Metal_State_Penalty>
-0

> <b_epik_Metal_Only>
0

> <s_lp_Force_Field>
OPLS_2005

> <r_lp_Energy>
49.0133

> <b_lp_Chiralities_Consistent>
1

> <s_lp_Variant>
AV-unprocessed.smi:2919-1

> <Gold.Version>
5.8.1

> <Gold.Id.Protein>
6NUR|6NUR_protein|mol2

> <Gold.PLP.Fitness>
35.8662

> <Gold.PLP.PLP>
-31.4767

> <Gold.PLP.part.hbond>
-2.0000

> <Gold.PLP.part.metal>
0.0000

> <Gold.PLP.part.buried>
-4.2016

> <Gold.PLP.part.nonpolar>
-27.2664

> <Gold.PLP.part.repulsive>
1.9056

> <Gold.PLP.ligand.clash>
0.0000

> <Gold.PLP.ligand.torsion>
0.3681

> <Gold.PLP.Chemscore.Hbond>
1.7020

> <Gold.PLP.Chemscore.CHOScore>
0.0000

> <Gold.PLP.Chemscore.Metal>
0.0000

> <Gold.Chemscore.Hbonds>
donor molecule, donor type, donor heavy atom, donor atom, acceptor molecule, acceptor atom, score
      P1  H  7989  7998       L1    13  0.71
      P1  H  7997  8010       L1    16  0.90

> <Gold.PLP.Chemscore.Internal.Correction>
0.0199

> <Gold.Rescore>
     Score         DG    S(hbond)    S(metal)    S(lipo)     H(rot)  DE(clash)    DE(int)     intcor
     17.03     -18.97       1.76        0.00      87.02       1.00       1.56       0.37       ----

> <Gold.Chemscore.Fitness>
17.0335

> <Gold.Chemscore.DG>
-18.9656

> <Gold.Chemscore.ZeroCoef>
-5.4800

> <Gold.Chemscore.Hbond>
1.7556

> <Gold.Chemscore.Metal>
0.0000

> <Gold.Chemscore.Lipo>
87.0244

> <Gold.Chemscore.Internal_Hbond>
0.0000

> <Gold.Chemscore.DEClash>
1.5619

> <Gold.Chemscore.DEInternal>
0.3701

> <Gold.Chemscore.Rot>
1.0000

> <Gold.Chemscore.Internal.Correction>
   9.000000E+99

> <Gold.Chemscore.Hbonds>
donor molecule, donor type, donor heavy atom, donor atom, acceptor molecule, acceptor atom, score
      P1  H  7989  7998       L1    13  0.16
      P1  H  7997  8010       L1    16  0.17

> <Gold.Chemscore.Hbond.Weighted>
-5.8638

> <Gold.Chemscore.Metal.Weighted>
-0.0000

> <Gold.Chemscore.Lipo.Weighted>
-10.1819

> <Gold.Chemscore.Internal_Hbond.Weighted>
0.0000

> <Gold.Chemscore.DEClash.Weighted>
1.5619

> <Gold.Chemscore.DEInternal.Weighted>
0.3701

> <Gold.Chemscore.Rot.Weighted>
2.5600

> <Gold.Chemscore.Internal.Correction.Weighted>
   9.000000E+99

> <Gold.Protein.RotatedTorsions>
[ 6907 6896 6895 6894 ] final  -51.89 input  -60.11 | X-H torsion
[ 7974 7965 7964 7962 ] final   40.19 input  175.53 | X-H torsion
[ 8008 7997 7996 7995 ] final    4.77 input   59.86 | X-H torsion
[ 10167 10162 10161 10158 ] final   -5.18 input  -65.29 | X-H torsion
[ 10718 10713 10712 10709 ] final   11.31 input   66.30 | X-H torsion
[ 10763 10752 10751 10750 ] final   21.39 input  -60.55 | X-H torsion
[ 11005 11000 10999 10996 ] final -131.47 input  -57.11 | X-H torsion

> <Gold.Protein.ActiveResidues>
 VAL166  LYS551  ARG553  GLY616  TRP617  ASP618  TYR619  PRO620  LYS621  CYS622 
 ASP623  PHE694  ASN695  SER759  ASP760  ASP761  ALA762  ILE779  LEU786  VAL792 
 PHE793  MET794  SER795  GLU796  ALA797  LYS798  CYS799  TRP800  GLU811  SER814 

> <Gold.Protein.RotatedAtoms>
  150.8569  134.7911  159.7052 H   0  0  0  0  0  0  0  0  0  0  0  0  # atno 6907 bound_to 6896
  152.4618  134.5163  159.9779 H   0  0  0  0  0  0  0  0  0  0  0  0  # atno 6908 bound_to 6896
  151.5274  133.3417  159.2948 H   0  0  0  0  0  0  0  0  0  0  0  0  # atno 6909 bound_to 6896
  146.0924  139.5562  142.9467 H   0  0  0  0  0  0  0  0  0  0  0  0  # atno 7974 bound_to 7965
  154.7201  140.2710  155.6549 H   0  0  0  0  0  0  0  0  0  0  0  0  # atno 8008 bound_to 7997
  156.2821  140.2736  156.1794 H   0  0  0  0  0  0  0  0  0  0  0  0  # atno 8009 bound_to 7997
  155.0519  140.0371  157.2536 H   0  0  0  0  0  0  0  0  0  0  0  0  # atno 8010 bound_to 7997
  140.6954  143.6338  150.8499 H   0  0  0  0  0  0  0  0  0  0  0  0  # atno 10167 bound_to 10162
  156.9937  130.6052  149.5688 H   0  0  0  0  0  0  0  0  0  0  0  0  # atno 10718 bound_to 10713
  153.0999  135.6670  153.9692 H   0  0  0  0  0  0  0  0  0  0  0  0  # atno 10763 bound_to 10752
  153.9265  135.3009  155.3448 H   0  0  0  0  0  0  0  0  0  0  0  0  # atno 10764 bound_to 10752
  154.7420  135.5075  153.9213 H   0  0  0  0  0  0  0  0  0  0  0  0  # atno 10765 bound_to 10752
  140.9255  134.1388  157.4278 H   0  0  0  0  0  0  0  0  0  0  0  0  # atno 11005 bound_to 11000
  145.6013  141.0355  143.2017 LP  0  0  0  0  0  0  0  0  0  0  0  0  # atno 17320 bound_to 7965
  144.7370  139.7557  143.7325 LP  0  0  0  0  0  0  0  0  0  0  0  0  # atno 17321 bound_to 7965
  140.0055  143.5698  152.2859 LP  0  0  0  0  0  0  0  0  0  0  0  0  # atno 17342 bound_to 10162
  139.6403  144.7654  151.2352 LP  0  0  0  0  0  0  0  0  0  0  0  0  # atno 17343 bound_to 10162
  156.0197  130.5292  150.8240 LP  0  0  0  0  0  0  0  0  0  0  0  0  # atno 17370 bound_to 10713
  157.5440  131.0942  150.9787 LP  0  0  0  0  0  0  0  0  0  0  0  0  # atno 17371 bound_to 10713
  139.8784  134.9987  156.5913 LP  0  0  0  0  0  0  0  0  0  0  0  0  # atno 17394 bound_to 11000
  140.7931  133.8566  155.8663 LP  0  0  0  0  0  0  0  0  0  0  0  0  # atno 17395 bound_to 11000

$$$$
