AV-unprocessed.smi:283|AV-procd|sdf|2138|dock9
  -GOLD-   2262021463D 1   1.00000     0.00000
 Structure written by MMmdl.
 48 51  0  0  0  0  0  0  0  0  1 V2000
  148.1098  136.9902  162.7817 C   0  0  0  0  0  0  0  0  0  0  0  0
  147.2413  136.6425  161.5651 C   0  0  1  0  0  0  0  0  0  0  0  0
  148.0758  136.0627  160.5153 N   0  0  0  0  0  0  0  0  0  0  0  0
  148.8118  136.8450  159.6953 C   0  0  0  0  0  0  0  0  0  0  0  0
  150.1141  136.9826  160.0375 N   0  0  0  0  0  0  0  0  0  0  0  0
  150.9315  137.7166  159.2795 C   0  0  0  0  0  0  0  0  0  0  0  0
  150.6493  138.3944  158.1667 N   0  0  0  0  0  0  0  0  0  0  0  0
  149.3324  138.2852  157.8225 C   0  0  0  0  0  0  0  0  0  0  0  0
  148.3542  137.5247  158.5272 C   0  0  0  0  0  0  0  0  0  0  0  0
  147.1332  137.6350  157.8756 N   0  0  0  0  0  0  0  0  0  0  0  0
  147.3817  138.3948  156.8460 C   0  0  0  0  0  0  0  0  0  0  0  0
  148.6724  138.8721  156.7556 N   0  0  0  0  0  0  0  0  0  0  0  0
  149.2610  139.7444  155.6738 C   0  0  2  0  0  0  0  0  0  0  0  0
  150.0789  138.9769  154.8497 O   0  0  0  0  0  0  0  0  0  0  0  0
  151.3680  138.8844  155.4373 C   0  0  1  0  0  0  0  0  0  0  0  0
  152.3951  138.4361  154.3875 C   0  0  0  0  0  0  0  0  0  0  0  0
  152.2039  137.0724  154.0767 O   0  0  0  0  0  0  0  0  0  0  0  0
  151.5919  140.3119  155.9510 C   0  0  2  0  0  0  0  0  0  0  0  0
  152.3878  140.2782  157.1195 O   0  0  0  0  0  0  0  0  0  0  0  0
  150.1845  140.8265  156.2701 C   0  0  1  0  0  0  0  0  0  0  0  0
  149.9574  142.0823  155.6632 O   0  0  0  0  0  0  0  0  0  0  0  0
  146.0540  135.7740  161.9907 C   0  0  0  0  0  0  0  0  0  0  0  0
  146.2743  134.4564  162.4562 C   0  0  0  0  0  0  0  0  0  0  0  0
  145.1957  133.6444  162.8536 C   0  0  0  0  0  0  0  0  0  0  0  0
  143.8828  134.1452  162.8000 C   0  0  0  0  0  0  0  0  0  0  0  0
  143.6521  135.4591  162.3526 C   0  0  0  0  0  0  0  0  0  0  0  0
  144.7285  136.2760  161.9517 C   0  0  0  0  0  0  0  0  0  0  0  0
  144.3861  137.8873  161.4257 Cl  0  0  0  0  0  0  0  0  0  0  0  0
  148.3889  140.1282  155.1428 H   0  0  0  0  0  0  0  0  0  0  0  0
  151.3381  138.1842  156.2754 H   0  0  0  0  0  0  0  0  0  0  0  0
  152.0709  140.9260  155.1865 H   0  0  0  0  0  0  0  0  0  0  0  0
  150.0264  140.9338  157.3427 H   0  0  0  0  0  0  0  0  0  0  0  0
  147.5261  137.5036  163.5464 H   0  0  0  0  0  0  0  0  0  0  0  0
  148.9336  137.6478  162.5023 H   0  0  0  0  0  0  0  0  0  0  0  0
  148.5363  136.0946  163.2349 H   0  0  0  0  0  0  0  0  0  0  0  0
  146.8690  137.5853  161.1690 H   0  0  0  0  0  0  0  0  0  0  0  0
  147.8323  135.1159  160.2636 H   0  0  0  0  0  0  0  0  0  0  0  0
  151.9579  137.7693  159.6111 H   0  0  0  0  0  0  0  0  0  0  0  0
  146.6142  138.6294  156.1229 H   0  0  0  0  0  0  0  0  0  0  0  0
  152.3351  139.0450  153.4851 H   0  0  0  0  0  0  0  0  0  0  0  0
  153.4051  138.5418  154.7842 H   0  0  0  0  0  0  0  0  0  0  0  0
  152.1428  136.9837  153.1379 H   0  0  0  0  0  0  0  0  0  0  0  0
  151.9556  140.7820  157.7922 H   0  0  0  0  0  0  0  0  0  0  0  0
  149.1546  142.4424  156.0084 H   0  0  0  0  0  0  0  0  0  0  0  0
  147.2763  134.0569  162.5105 H   0  0  0  0  0  0  0  0  0  0  0  0
  145.3770  132.6382  163.2019 H   0  0  0  0  0  0  0  0  0  0  0  0
  143.0540  133.5245  163.1069 H   0  0  0  0  0  0  0  0  0  0  0  0
  142.6430  135.8428  162.3199 H   0  0  0  0  0  0  0  0  0  0  0  0
  1  2  1  0  0  0  0
  1 33  1  0  0  0  0
  1 34  1  0  0  0  0
  1 35  1  0  0  0  0
  2  3  1  0  0  0  0
  2 22  1  0  0  0  0
  2 36  1  0  0  0  0
  3  4  1  0  0  0  0
  3 37  1  0  0  0  0
  4  9  1  0  0  0  0
  4  5  2  0  0  0  0
  5  6  1  0  0  0  0
  6  7  2  0  0  0  0
  6 38  1  0  0  0  0
  7  8  1  0  0  0  0
  8 12  1  0  0  0  0
  8  9  2  0  0  0  0
  9 10  1  0  0  0  0
 10 11  2  0  0  0  0
 11 12  1  0  0  0  0
 11 39  1  0  0  0  0
 12 13  1  0  0  0  0
 13 29  1  0  0  0  0
 13 20  1  0  0  0  0
 13 14  1  0  0  0  0
 14 15  1  0  0  0  0
 15 30  1  0  0  0  0
 15 16  1  0  0  0  0
 15 18  1  0  0  0  0
 16 17  1  0  0  0  0
 16 40  1  0  0  0  0
 16 41  1  0  0  0  0
 17 42  1  0  0  0  0
 18 31  1  0  0  0  0
 18 19  1  0  0  0  0
 18 20  1  0  0  0  0
 19 43  1  0  0  0  0
 20 32  1  0  0  0  0
 20 21  1  0  0  0  0
 21 44  1  0  0  0  0
 22 27  1  0  0  0  0
 22 23  2  0  0  0  0
 23 24  1  0  0  0  0
 23 45  1  0  0  0  0
 24 25  2  0  0  0  0
 24 46  1  0  0  0  0
 25 26  1  0  0  0  0
 25 47  1  0  0  0  0
 26 27  2  0  0  0  0
 26 48  1  0  0  0  0
 27 28  1  0  0  0  0
M  END
> <s_m_source_file>
AV-unprocessed.smi

> <i_m_source_file_index>
283

> <i_lp_mmshare_version>
43012

> <i_f3d_flags>
0

> <s_epik_input>
Q2xjMVtjSF1bY0hdW2NIXVtjSF1jMVtDQEhdKFtDSDNdKVtOSF1jKG5bY0hdbjIpYyhjMjMpbltjSF1uM1tDQEBIXTRPW0NASF0oW0NIMl1bT0hdKVtDQEBIXShbT0hdKVtDQEhdNFtPSF0=

> <s_epik_cmdline>
J2VwaWtfcHl0aG9uJywgJy1waCcsICc3LjAnLCAnLXRuJywgJzgnLCAnLW1hJywgJzIwMCcsICctbWV0YWxfYmluZGluZycsICctaW1hZScsICc8aW5maWxlLm1hZT4nLCAnLW9tYWUnLCAnPG91dGZpbGUubWFlPic=

> <r_lp_tautomer_probability>
1

> <r_epik_Ionization_Penalty>
0.000266407

> <r_epik_Ionization_Penalty_Charging>
0

> <r_epik_Ionization_Penalty_Neutral>
0.000266407

> <r_epik_State_Penalty>
-0

> <r_epik_Charging_Adjusted_Penalty>
0

> <i_epik_Tot_Q>
0

> <i_epik_Tot_abs_Q>
0

> <r_epik_Metal_State_Penalty>
-0

> <b_epik_Metal_Only>
0

> <s_epik_Chemistry_Notes>
This compound contains an acetal/aminal-like group ( X-CH(R)-Y where X, Y are N, S, or O) that may be acid/base labile, releasing an aldehyde.

> <s_lp_Force_Field>
OPLS_2005

> <r_lp_Energy>
39.8379

> <b_lp_Chiralities_Consistent>
1

> <s_lp_Variant>
AV-unprocessed.smi:283-14

> <Gold.Version>
5.8.1

> <Gold.Id.Protein>
6NUR|6NUR_protein|mol2

> <Gold.PLP.Fitness>
51.6914

> <Gold.PLP.PLP>
-43.0080

> <Gold.PLP.part.hbond>
-5.3880

> <Gold.PLP.part.metal>
0.0000

> <Gold.PLP.part.buried>
-4.8826

> <Gold.PLP.part.nonpolar>
-33.2165

> <Gold.PLP.part.repulsive>
0.2692

> <Gold.PLP.ligand.clash>
0.0000

> <Gold.PLP.ligand.torsion>
1.5273

> <Gold.PLP.Chemscore.Hbond>
3.8758

> <Gold.PLP.Chemscore.CHOScore>
0.0000

> <Gold.PLP.Chemscore.Metal>
0.0000

> <Gold.Chemscore.Hbonds>
donor molecule, donor type, donor heavy atom, donor atom, acceptor molecule, acceptor atom, score
      L1  H    17    42       P1  7949  0.65
      L1  H    21    44       P1  8028  0.08
      P1  H  6896  6908       L1     5  0.44
      P1  H  7997  8009       L1    19  0.76
      P1  H 10752 10763       L1    17  0.52

> <Gold.PLP.Chemscore.Internal.Correction>
0.1105

> <Gold.Rescore>
     Score         DG    S(hbond)    S(metal)    S(lipo)     H(rot)  DE(clash)    DE(int)     intcor
      9.31     -13.02       2.36        0.00      86.62       4.10       0.30       3.41       ----

> <Gold.Chemscore.Fitness>
9.3078

> <Gold.Chemscore.DG>
-13.0189

> <Gold.Chemscore.ZeroCoef>
-5.4800

> <Gold.Chemscore.Hbond>
2.3630

> <Gold.Chemscore.Metal>
0.0000

> <Gold.Chemscore.Lipo>
86.6178

> <Gold.Chemscore.Internal_Hbond>
0.0000

> <Gold.Chemscore.DEClash>
0.3014

> <Gold.Chemscore.DEInternal>
3.4097

> <Gold.Chemscore.Rot>
4.0968

> <Gold.Chemscore.Internal.Correction>
   9.000000E+99

> <Gold.Chemscore.Hbonds>
donor molecule, donor type, donor heavy atom, donor atom, acceptor molecule, acceptor atom, score
      L1  H    17    42       P1  7949  0.64
      L1  H    21    44       P1  8028  0.09
      P1  H  6896  6908       L1     5  0.05
      P1  H  7997  8009       L1    19  0.67
      P1  H 10752 10763       L1    17  0.03

> <Gold.Chemscore.Hbond.Weighted>
-7.8925

> <Gold.Chemscore.Metal.Weighted>
-0.0000

> <Gold.Chemscore.Lipo.Weighted>
-10.1343

> <Gold.Chemscore.Internal_Hbond.Weighted>
0.0000

> <Gold.Chemscore.DEClash.Weighted>
0.3014

> <Gold.Chemscore.DEInternal.Weighted>
3.4097

> <Gold.Chemscore.Rot.Weighted>
10.4879

> <Gold.Chemscore.Internal.Correction.Weighted>
   9.000000E+99

> <Gold.Protein.RotatedTorsions>
[ 6907 6896 6895 6894 ] final -169.54 input  -60.11 | X-H torsion
[ 7974 7965 7964 7962 ] final  -59.02 input  175.53 | X-H torsion
[ 8008 7997 7996 7995 ] final  168.05 input   59.86 | X-H torsion
[ 10167 10162 10161 10158 ] final  -20.31 input  -65.29 | X-H torsion
[ 10718 10713 10712 10709 ] final  -50.54 input   66.30 | X-H torsion
[ 10763 10752 10751 10750 ] final   35.39 input  -60.55 | X-H torsion
[ 11005 11000 10999 10996 ] final   50.55 input  -57.11 | X-H torsion

> <Gold.Protein.ActiveResidues>
 VAL166  LYS551  ARG553  GLY616  TRP617  ASP618  TYR619  PRO620  LYS621  CYS622 
 ASP623  PHE694  ASN695  SER759  ASP760  ASP761  ALA762  ILE779  LEU786  VAL792 
 PHE793  MET794  SER795  GLU796  ALA797  LYS798  CYS799  TRP800  GLU811  SER814 

> <Gold.Protein.RotatedAtoms>
  151.4932  133.3520  159.2856 H   0  0  0  0  0  0  0  0  0  0  0  0  # atno 6907 bound_to 6896
  150.8821  134.8215  159.7243 H   0  0  0  0  0  0  0  0  0  0  0  0  # atno 6908 bound_to 6896
  152.4769  134.4831  159.9723 H   0  0  0  0  0  0  0  0  0  0  0  0  # atno 6909 bound_to 6896
  145.8324  140.8471  143.0076 H   0  0  0  0  0  0  0  0  0  0  0  0  # atno 7974 bound_to 7965
  156.1581  140.1601  156.8659 H   0  0  0  0  0  0  0  0  0  0  0  0  # atno 8008 bound_to 7997
  154.5134  140.0795  156.8070 H   0  0  0  0  0  0  0  0  0  0  0  0  # atno 8009 bound_to 7997
  155.3763  140.3403  155.4247 H   0  0  0  0  0  0  0  0  0  0  0  0  # atno 8010 bound_to 7997
  140.7275  143.4734  151.0215 H   0  0  0  0  0  0  0  0  0  0  0  0  # atno 10167 bound_to 10162
  156.1791  130.4150  149.9533 H   0  0  0  0  0  0  0  0  0  0  0  0  # atno 10718 bound_to 10713
  153.0121  135.6334  154.1819 H   0  0  0  0  0  0  0  0  0  0  0  0  # atno 10763 bound_to 10752
  154.1561  135.2826  155.3123 H   0  0  0  0  0  0  0  0  0  0  0  0  # atno 10764 bound_to 10752
  154.6017  135.5585  153.7442 H   0  0  0  0  0  0  0  0  0  0  0  0  # atno 10765 bound_to 10752
  140.1008  134.5084  155.8764 H   0  0  0  0  0  0  0  0  0  0  0  0  # atno 11005 bound_to 11000
  144.6739  140.0692  143.7473 LP  0  0  0  0  0  0  0  0  0  0  0  0  # atno 17320 bound_to 7965
  145.9556  139.2764  143.1186 LP  0  0  0  0  0  0  0  0  0  0  0  0  # atno 17321 bound_to 7965
  139.8428  143.7541  152.3180 LP  0  0  0  0  0  0  0  0  0  0  0  0  # atno 17342 bound_to 10162
  139.7696  144.7481  151.0244 LP  0  0  0  0  0  0  0  0  0  0  0  0  # atno 17343 bound_to 10162
  156.7309  130.9043  151.3625 LP  0  0  0  0  0  0  0  0  0  0  0  0  # atno 17370 bound_to 10713
  157.6856  130.9182  150.0378 LP  0  0  0  0  0  0  0  0  0  0  0  0  # atno 17371 bound_to 10713
  141.2105  133.6695  156.6514 LP  0  0  0  0  0  0  0  0  0  0  0  0  # atno 17394 bound_to 11000
  140.3222  134.7998  157.4261 LP  0  0  0  0  0  0  0  0  0  0  0  0  # atno 17395 bound_to 11000

$$$$
