AV-unprocessed.smi:3285|AV-procd|sdf|12582|dock6
  -GOLD-   2272018503D 1   1.00000     0.00000
 Structure written by MMmdl.
 45 46  0  0  0  0  0  0  0  0  2 V2000
  146.8698  142.2681  154.1680 C   0  0  0  0  0  0  0  0  0  0  0  0
  147.7679  141.0691  154.0605 C   0  0  0  0  0  0  0  0  0  0  0  0
  147.3473  139.9925  153.4186 N   0  0  0  0  0  0  0  0  0  0  0  0
  148.3952  139.0700  153.4901 O   0  0  0  0  0  0  0  0  0  0  0  0
  149.4197  139.6353  154.1779 C   0  0  0  0  0  0  0  0  0  0  0  0
  150.6435  138.8031  154.3619 C   0  0  0  0  0  0  0  0  0  0  0  0
  149.0886  140.9038  154.5681 C   0  0  0  0  0  0  0  0  0  0  0  0
  149.9120  141.8964  155.3432 C   0  0  0  0  0  0  0  0  0  0  0  0
  149.8875  141.5929  156.8467 C   0  0  0  0  0  0  0  0  0  0  0  0
  150.2290  142.7957  157.6341 N   0  3  0  0  0  0  0  0  0  0  0  0
  151.6609  143.1777  157.6295 C   0  0  2  0  0  0  0  0  0  0  0  0
  152.5217  142.0390  158.2014 C   0  0  0  0  0  0  0  0  0  0  0  0
  152.3255  141.8737  159.7169 C   0  0  0  0  0  0  0  0  0  0  0  0
  152.5988  143.1816  160.4872 C   0  0  2  0  0  0  0  0  0  0  0  0
  152.3959  142.9509  161.9954 C   0  0  0  0  0  0  0  0  0  0  0  0
  151.7279  144.3382  159.9291 C   0  0  1  0  0  0  0  0  0  0  0  0
  152.0045  145.6846  160.6219 C   0  0  0  0  0  0  0  0  0  0  0  0
  151.9294  144.4847  158.4050 C   0  0  0  0  0  0  0  0  0  0  0  0
  147.2254  143.0793  153.5328 H   0  0  0  0  0  0  0  0  0  0  0  0
  146.8343  142.6391  155.1924 H   0  0  0  0  0  0  0  0  0  0  0  0
  145.8472  142.0360  153.8672 H   0  0  0  0  0  0  0  0  0  0  0  0
  151.5367  139.3615  154.0816 H   0  0  0  0  0  0  0  0  0  0  0  0
  150.6032  137.9031  153.7477 H   0  0  0  0  0  0  0  0  0  0  0  0
  150.7479  138.4964  155.4027 H   0  0  0  0  0  0  0  0  0  0  0  0
  150.9439  141.8914  154.9902 H   0  0  0  0  0  0  0  0  0  0  0  0
  149.5483  142.9107  155.1746 H   0  0  0  0  0  0  0  0  0  0  0  0
  148.8973  141.2390  157.1367 H   0  0  0  0  0  0  0  0  0  0  0  0
  150.5949  140.7944  157.0685 H   0  0  0  0  0  0  0  0  0  0  0  0
  149.6829  143.5769  157.2998 H   0  0  0  0  0  0  0  0  0  0  0  0
  151.9538  143.3220  156.5885 H   0  0  0  0  0  0  0  0  0  0  0  0
  152.2988  141.1014  157.6902 H   0  0  0  0  0  0  0  0  0  0  0  0
  153.5732  142.2493  158.0013 H   0  0  0  0  0  0  0  0  0  0  0  0
  151.3094  141.5325  159.9202 H   0  0  0  0  0  0  0  0  0  0  0  0
  152.9872  141.0858  160.0789 H   0  0  0  0  0  0  0  0  0  0  0  0
  153.6474  143.4419  160.3343 H   0  0  0  0  0  0  0  0  0  0  0  0
  151.3486  142.7592  162.2311 H   0  0  0  0  0  0  0  0  0  0  0  0
  152.7215  143.8080  162.5840 H   0  0  0  0  0  0  0  0  0  0  0  0
  152.9746  142.0939  162.3411 H   0  0  0  0  0  0  0  0  0  0  0  0
  150.6799  144.0928  160.1073 H   0  0  0  0  0  0  0  0  0  0  0  0
  153.0567  145.9612  160.5473 H   0  0  0  0  0  0  0  0  0  0  0  0
  151.7375  145.6603  161.6780 H   0  0  0  0  0  0  0  0  0  0  0  0
  151.4195  146.4851  160.1682 H   0  0  0  0  0  0  0  0  0  0  0  0
  152.9588  144.7928  158.2163 H   0  0  0  0  0  0  0  0  0  0  0  0
  151.3124  145.2957  158.0189 H   0  0  0  0  0  0  0  0  0  0  0  0
  149.9673  142.6110  158.5920 H   0  0  0  0  0  0  0  0  0  0  0  0
  1  2  1  0  0  0  0
  1 19  1  0  0  0  0
  1 20  1  0  0  0  0
  1 21  1  0  0  0  0
  2  7  1  0  0  0  0
  2  3  2  0  0  0  0
  3  4  1  0  0  0  0
  4  5  1  0  0  0  0
  5  6  1  0  0  0  0
  5  7  2  0  0  0  0
  6 22  1  0  0  0  0
  6 23  1  0  0  0  0
  6 24  1  0  0  0  0
  7  8  1  0  0  0  0
  8  9  1  0  0  0  0
  8 25  1  0  0  0  0
  8 26  1  0  0  0  0
  9 10  1  0  0  0  0
  9 27  1  0  0  0  0
  9 28  1  0  0  0  0
 10 11  1  0  0  0  0
 10 29  1  0  0  0  0
 10 45  1  0  0  0  0
 11 18  1  0  0  0  0
 11 12  1  0  0  0  0
 11 30  1  0  0  0  0
 12 13  1  0  0  0  0
 12 31  1  0  0  0  0
 12 32  1  0  0  0  0
 13 14  1  0  0  0  0
 13 33  1  0  0  0  0
 13 34  1  0  0  0  0
 14 15  1  0  0  0  0
 14 16  1  0  0  0  0
 14 35  1  0  0  0  0
 15 36  1  0  0  0  0
 15 37  1  0  0  0  0
 15 38  1  0  0  0  0
 16 17  1  0  0  0  0
 16 18  1  0  0  0  0
 16 39  1  0  0  0  0
 17 40  1  0  0  0  0
 17 41  1  0  0  0  0
 17 42  1  0  0  0  0
 18 43  1  0  0  0  0
 18 44  1  0  0  0  0
M  CHG  1  10   1
M  END
> <s_m_source_file>
AV-unprocessed.smi

> <i_m_source_file_index>
3285

> <i_lp_mmshare_version>
43012

> <i_f3d_flags>
0

> <s_epik_input>
W0NIM11jMW5vYyhbQ0gzXSljMVtDSDJdW0NIMl1bTkhdW0NAQEhdMltDSDJdW0NIMl1bQ0BASF0oW0NIM10pW0NAQEhdKFtDSDNdKVtDSDJdMg==

> <s_epik_cmdline>
J2VwaWtfcHl0aG9uJywgJy1waCcsICc3LjAnLCAnLXRuJywgJzgnLCAnLW1hJywgJzIwMCcsICctbWV0YWxfYmluZGluZycsICctaW1hZScsICc8aW5maWxlLm1hZT4nLCAnLW9tYWUnLCAnPG91dGZpbGUubWFlPic=

> <r_lp_tautomer_probability>
1

> <r_epik_Ionization_Penalty>
0.000204615

> <r_epik_Ionization_Penalty_Charging>
0.000204615

> <r_epik_Ionization_Penalty_Neutral>
9.28663e-11

> <r_epik_State_Penalty>
-0

> <r_epik_Charging_Adjusted_Penalty>
0.000204615

> <i_epik_Tot_Q>
1

> <i_epik_Tot_abs_Q>
1

> <r_epik_Metal_State_Penalty>
-0

> <b_epik_Metal_Only>
0

> <s_lp_Force_Field>
OPLS_2005

> <r_lp_Energy>
13.9042

> <b_lp_Chiralities_Consistent>
1

> <s_lp_Variant>
AV-unprocessed.smi:3285-3

> <Gold.Version>
5.8.1

> <Gold.Id.Protein>
6NUR|6NUR_protein|mol2

> <Gold.PLP.Fitness>
48.1065

> <Gold.PLP.PLP>
-42.9776

> <Gold.PLP.part.hbond>
-1.0000

> <Gold.PLP.part.metal>
0.0000

> <Gold.PLP.part.buried>
-4.1688

> <Gold.PLP.part.nonpolar>
-39.1134

> <Gold.PLP.part.repulsive>
0.5397

> <Gold.PLP.ligand.clash>
0.0000

> <Gold.PLP.ligand.torsion>
0.4383

> <Gold.PLP.Chemscore.Hbond>
2.0000

> <Gold.PLP.Chemscore.CHOScore>
0.0000

> <Gold.PLP.Chemscore.Metal>
0.0000

> <Gold.Chemscore.Hbonds>
donor molecule, donor type, donor heavy atom, donor atom, acceptor molecule, acceptor atom, score
      L1  H    10    29       P1  8028  1.46

> <Gold.PLP.Chemscore.Internal.Correction>
0.0055

> <Gold.Rescore>
     Score         DG    S(hbond)    S(metal)    S(lipo)     H(rot)  DE(clash)    DE(int)     intcor
     18.78     -21.89       0.95        0.00     142.62       1.35       2.64       0.47       ----

> <Gold.Chemscore.Fitness>
18.7765

> <Gold.Chemscore.DG>
-21.8875

> <Gold.Chemscore.ZeroCoef>
-5.4800

> <Gold.Chemscore.Hbond>
0.9486

> <Gold.Chemscore.Metal>
0.0000

> <Gold.Chemscore.Lipo>
142.6165

> <Gold.Chemscore.Internal_Hbond>
0.0000

> <Gold.Chemscore.DEClash>
2.6381

> <Gold.Chemscore.DEInternal>
0.4729

> <Gold.Chemscore.Rot>
1.3465

> <Gold.Chemscore.Internal.Correction>
   9.000000E+99

> <Gold.Chemscore.Hbonds>
donor molecule, donor type, donor heavy atom, donor atom, acceptor molecule, acceptor atom, score
      L1  H    10    29       P1  8028  0.59

> <Gold.Chemscore.Hbond.Weighted>
-3.1684

> <Gold.Chemscore.Metal.Weighted>
-0.0000

> <Gold.Chemscore.Lipo.Weighted>
-16.6861

> <Gold.Chemscore.Internal_Hbond.Weighted>
0.0000

> <Gold.Chemscore.DEClash.Weighted>
2.6381

> <Gold.Chemscore.DEInternal.Weighted>
0.4729

> <Gold.Chemscore.Rot.Weighted>
3.4470

> <Gold.Chemscore.Internal.Correction.Weighted>
   9.000000E+99

> <Gold.Protein.RotatedTorsions>
[ 6907 6896 6895 6894 ] final   41.11 input  -60.11 | X-H torsion
[ 7974 7965 7964 7962 ] final   -7.45 input  175.53 | X-H torsion
[ 8008 7997 7996 7995 ] final  122.37 input   59.86 | X-H torsion
[ 10167 10162 10161 10158 ] final  167.43 input  -65.29 | X-H torsion
[ 10718 10713 10712 10709 ] final   27.10 input   66.30 | X-H torsion
[ 10763 10752 10751 10750 ] final -137.93 input  -60.55 | X-H torsion
[ 11005 11000 10999 10996 ] final -132.16 input  -57.11 | X-H torsion

> <Gold.Protein.ActiveResidues>
 VAL166  LYS551  ARG553  GLY616  TRP617  ASP618  TYR619  PRO620  LYS621  CYS622 
 ASP623  PHE694  ASN695  SER759  ASP760  ASP761  ALA762  ILE779  LEU786  VAL792 
 PHE793  MET794  SER795  GLU796  ALA797  LYS798  CYS799  TRP800  GLU811  SER814 

> <Gold.Protein.RotatedAtoms>
  152.1911  134.8671  160.0517 H   0  0  0  0  0  0  0  0  0  0  0  0  # atno 6907 bound_to 6896
  151.9560  133.3675  159.4025 H   0  0  0  0  0  0  0  0  0  0  0  0  # atno 6908 bound_to 6896
  150.6935  134.4214  159.5251 H   0  0  0  0  0  0  0  0  0  0  0  0  # atno 6909 bound_to 6896
  146.2306  140.2322  142.8340 H   0  0  0  0  0  0  0  0  0  0  0  0  # atno 7974 bound_to 7965
  156.2724  140.2787  156.1456 H   0  0  0  0  0  0  0  0  0  0  0  0  # atno 8008 bound_to 7997
  155.0907  140.0388  157.2685 H   0  0  0  0  0  0  0  0  0  0  0  0  # atno 8009 bound_to 7997
  154.6891  140.2625  155.6836 H   0  0  0  0  0  0  0  0  0  0  0  0  # atno 8010 bound_to 7997
  139.4945  144.3922  151.9504 H   0  0  0  0  0  0  0  0  0  0  0  0  # atno 10167 bound_to 10162
  157.2157  130.6955  149.6248 H   0  0  0  0  0  0  0  0  0  0  0  0  # atno 10718 bound_to 10713
  154.8650  135.3627  154.5302 H   0  0  0  0  0  0  0  0  0  0  0  0  # atno 10763 bound_to 10752
  153.5928  135.7015  153.5421 H   0  0  0  0  0  0  0  0  0  0  0  0  # atno 10764 bound_to 10752
  153.3358  135.4111  155.1494 H   0  0  0  0  0  0  0  0  0  0  0  0  # atno 10765 bound_to 10752
  140.9195  134.1463  157.4325 H   0  0  0  0  0  0  0  0  0  0  0  0  # atno 11005 bound_to 11000
  144.9549  140.8216  143.5549 LP  0  0  0  0  0  0  0  0  0  0  0  0  # atno 17320 bound_to 7965
  145.2286  139.2125  143.5055 LP  0  0  0  0  0  0  0  0  0  0  0  0  # atno 17321 bound_to 7965
  140.3360  144.3260  150.5977 LP  0  0  0  0  0  0  0  0  0  0  0  0  # atno 17342 bound_to 10162
  140.5606  143.2193  151.7772 LP  0  0  0  0  0  0  0  0  0  0  0  0  # atno 17343 bound_to 10162
  155.9686  130.4536  150.5819 LP  0  0  0  0  0  0  0  0  0  0  0  0  # atno 17370 bound_to 10713
  157.3627  131.0752  151.1623 LP  0  0  0  0  0  0  0  0  0  0  0  0  # atno 17371 bound_to 10713
  139.8772  134.9966  156.5803 LP  0  0  0  0  0  0  0  0  0  0  0  0  # atno 17394 bound_to 11000
  140.8006  133.8508  155.8723 LP  0  0  0  0  0  0  0  0  0  0  0  0  # atno 17395 bound_to 11000

$$$$
