AV-unprocessed.smi:2917|AV-procd|sdf|11190|dock7
  -GOLD-   2272016 83D 1   1.00000     0.00000
 Structure written by MMmdl.
 34 35  0  0  0  0  0  0  0  0  1 V2000
  149.8051  139.6500  155.0352 C   0  0  0  0  0  0  0  0  0  0  0  0
  148.7190  140.7238  155.2615 C   0  0  0  0  0  0  0  0  0  0  0  0
  149.2935  141.8721  155.9798 N   0  0  0  0  0  0  0  0  0  0  0  0
  149.8742  141.8961  157.1913 C   0  0  0  0  0  0  0  0  0  0  0  0
  150.0082  140.9073  157.9111 O   0  0  0  0  0  0  0  0  0  0  0  0
  150.2664  143.1416  157.5095 N   0  0  0  0  0  0  0  0  0  0  0  0
  150.9131  143.5897  158.6931 C   0  0  0  0  0  0  0  0  0  0  0  0
  151.7077  142.7662  159.5272 C   0  0  0  0  0  0  0  0  0  0  0  0
  152.3126  143.3340  160.6651 C   0  0  0  0  0  0  0  0  0  0  0  0
  152.1078  144.7031  160.9237 C   0  0  0  0  0  0  0  0  0  0  0  0
  151.3649  145.5028  160.1300 N   0  0  0  0  0  0  0  0  0  0  0  0
  150.7890  144.9518  159.0401 C   0  0  0  0  0  0  0  0  0  0  0  0
  148.0775  141.1477  153.9172 C   0  0  0  0  0  0  0  0  0  0  0  0
  146.8439  142.0449  154.1242 C   0  0  0  0  0  0  0  0  0  0  0  0
  145.8877  141.3728  154.9355 O   0  0  0  0  0  0  0  0  0  0  0  0
  146.3787  141.0732  156.2366 C   0  0  0  0  0  0  0  0  0  0  0  0
  147.5942  140.1319  156.1386 C   0  0  0  0  0  0  0  0  0  0  0  0
  149.3826  138.7478  154.5919 H   0  0  0  0  0  0  0  0  0  0  0  0
  150.2791  139.3611  155.9740 H   0  0  0  0  0  0  0  0  0  0  0  0
  150.5893  139.9960  154.3620 H   0  0  0  0  0  0  0  0  0  0  0  0
  149.2390  142.7537  155.4913 H   0  0  0  0  0  0  0  0  0  0  0  0
  150.0162  143.8665  156.8531 H   0  0  0  0  0  0  0  0  0  0  0  0
  151.8764  141.7226  159.3122 H   0  0  0  0  0  0  0  0  0  0  0  0
  152.9242  142.7338  161.3221 H   0  0  0  0  0  0  0  0  0  0  0  0
  152.5581  145.1693  161.7876 H   0  0  0  0  0  0  0  0  0  0  0  0
  150.2044  145.6222  158.4268 H   0  0  0  0  0  0  0  0  0  0  0  0
  148.7975  141.6488  153.2708 H   0  0  0  0  0  0  0  0  0  0  0  0
  147.7647  140.2563  153.3716 H   0  0  0  0  0  0  0  0  0  0  0  0
  147.1195  142.9980  154.5781 H   0  0  0  0  0  0  0  0  0  0  0  0
  146.3855  142.2750  153.1623 H   0  0  0  0  0  0  0  0  0  0  0  0
  146.6328  141.9950  156.7620 H   0  0  0  0  0  0  0  0  0  0  0  0
  145.5831  140.5957  156.8086 H   0  0  0  0  0  0  0  0  0  0  0  0
  147.2600  139.1835  155.7149 H   0  0  0  0  0  0  0  0  0  0  0  0
  147.9682  139.9020  157.1374 H   0  0  0  0  0  0  0  0  0  0  0  0
  1  2  1  0  0  0  0
  1 18  1  0  0  0  0
  1 19  1  0  0  0  0
  1 20  1  0  0  0  0
  2 17  1  0  0  0  0
  2  3  1  0  0  0  0
  2 13  1  0  0  0  0
  3  4  1  0  0  0  0
  3 21  1  0  0  0  0
  4  5  2  0  0  0  0
  4  6  1  0  0  0  0
  6  7  1  0  0  0  0
  6 22  1  0  0  0  0
  7 12  1  0  0  0  0
  7  8  2  0  0  0  0
  8  9  1  0  0  0  0
  8 23  1  0  0  0  0
  9 10  2  0  0  0  0
  9 24  1  0  0  0  0
 10 11  1  0  0  0  0
 10 25  1  0  0  0  0
 11 12  2  0  0  0  0
 12 26  1  0  0  0  0
 13 14  1  0  0  0  0
 13 27  1  0  0  0  0
 13 28  1  0  0  0  0
 14 15  1  0  0  0  0
 14 29  1  0  0  0  0
 14 30  1  0  0  0  0
 15 16  1  0  0  0  0
 16 17  1  0  0  0  0
 16 31  1  0  0  0  0
 16 32  1  0  0  0  0
 17 33  1  0  0  0  0
 17 34  1  0  0  0  0
M  END
> <s_m_source_file>
AV-unprocessed.smi

> <i_m_source_file_index>
2917

> <i_lp_mmshare_version>
43012

> <i_f3d_flags>
0

> <s_epik_input>
W0NIMl0xW0NIMl1PW0NIMl1bQ0gyXUMxKFtDSDNdKVtOSF1DKD1PKVtOSF1jMltjSF1bY0hdW2NIXW5bY0hdMg==

> <s_epik_cmdline>
J2VwaWtfcHl0aG9uJywgJy1waCcsICc3LjAnLCAnLXRuJywgJzgnLCAnLW1hJywgJzIwMCcsICctbWV0YWxfYmluZGluZycsICctaW1hZScsICc8aW5maWxlLm1hZT4nLCAnLW9tYWUnLCAnPG91dGZpbGUubWFlPic=

> <r_epik_Ionization_Penalty>
0.00491607

> <r_epik_Ionization_Penalty_Charging>
0

> <r_epik_Ionization_Penalty_Neutral>
0.00491607

> <r_epik_State_Penalty>
0.00354213

> <r_epik_Charging_Adjusted_Penalty>
0.00354213

> <i_epik_Tot_Q>
0

> <i_epik_Tot_abs_Q>
0

> <r_epik_Metal_State_Penalty>
-0

> <b_epik_Metal_Only>
0

> <s_lp_Force_Field>
OPLS_2005

> <r_lp_Energy>
13.2781

> <b_lp_Chiralities_Consistent>
1

> <s_lp_Variant>
AV-unprocessed.smi:2917-1

> <Gold.Version>
5.8.1

> <Gold.Id.Protein>
6NUR|6NUR_protein|mol2

> <Gold.PLP.Fitness>
41.0340

> <Gold.PLP.PLP>
-32.2895

> <Gold.PLP.part.hbond>
-2.0000

> <Gold.PLP.part.metal>
0.0000

> <Gold.PLP.part.buried>
-4.9275

> <Gold.PLP.part.nonpolar>
-25.6661

> <Gold.PLP.part.repulsive>
0.4766

> <Gold.PLP.ligand.clash>
0.0000

> <Gold.PLP.ligand.torsion>
0.1312

> <Gold.PLP.Chemscore.Hbond>
2.0000

> <Gold.PLP.Chemscore.CHOScore>
1.0000

> <Gold.PLP.Chemscore.Metal>
0.0000

> <Gold.Chemscore.Hbonds>
donor molecule, donor type, donor heavy atom, donor atom, acceptor molecule, acceptor atom, score
      L1  H     3    21       P1  8028  0.93
      L1  H     6    22       P1  8028  1.00
      L1  C    12    26       P1  8029  0.88

> <Gold.PLP.Chemscore.Internal.Correction>
0.0068

> <Gold.Rescore>
     Score         DG    S(hbond)    S(metal)    S(lipo)     H(rot)  DE(clash)    DE(int)     intcor
     18.33     -19.63       1.96        0.00      86.97       1.00       0.06       1.23       ----

> <Gold.Chemscore.Fitness>
18.3350

> <Gold.Chemscore.DG>
-19.6312

> <Gold.Chemscore.ZeroCoef>
-5.4800

> <Gold.Chemscore.Hbond>
1.9568

> <Gold.Chemscore.Metal>
0.0000

> <Gold.Chemscore.Lipo>
86.9693

> <Gold.Chemscore.Internal_Hbond>
0.0000

> <Gold.Chemscore.DEClash>
0.0645

> <Gold.Chemscore.DEInternal>
1.2317

> <Gold.Chemscore.Rot>
1.0000

> <Gold.Chemscore.Internal.Correction>
   9.000000E+99

> <Gold.Chemscore.Hbonds>
donor molecule, donor type, donor heavy atom, donor atom, acceptor molecule, acceptor atom, score
      L1  H     3    21       P1  8028  0.86
      L1  H     6    22       P1  8028  0.97

> <Gold.Chemscore.Hbond.Weighted>
-6.5358

> <Gold.Chemscore.Metal.Weighted>
-0.0000

> <Gold.Chemscore.Lipo.Weighted>
-10.1754

> <Gold.Chemscore.Internal_Hbond.Weighted>
0.0000

> <Gold.Chemscore.DEClash.Weighted>
0.0645

> <Gold.Chemscore.DEInternal.Weighted>
1.2317

> <Gold.Chemscore.Rot.Weighted>
2.5600

> <Gold.Chemscore.Internal.Correction.Weighted>
   9.000000E+99

> <Gold.Protein.RotatedTorsions>
[ 6907 6896 6895 6894 ] final  -55.43 input  -60.11 | X-H torsion
[ 7974 7965 7964 7962 ] final   -8.47 input  175.53 | X-H torsion
[ 8008 7997 7996 7995 ] final  162.69 input   59.86 | X-H torsion
[ 10167 10162 10161 10158 ] final -167.96 input  -65.29 | X-H torsion
[ 10718 10713 10712 10709 ] final   27.45 input   66.30 | X-H torsion
[ 10763 10752 10751 10750 ] final  -38.55 input  -60.55 | X-H torsion
[ 11005 11000 10999 10996 ] final -177.95 input  -57.11 | X-H torsion

> <Gold.Protein.ActiveResidues>
 VAL166  LYS551  ARG553  GLY616  TRP617  ASP618  TYR619  PRO620  LYS621  CYS622 
 ASP623  PHE694  ASN695  SER759  ASP760  ASP761  ALA762  ILE779  LEU786  VAL792 
 PHE793  MET794  SER795  GLU796  ALA797  LYS798  CYS799  TRP800  GLU811  SER814 

> <Gold.Protein.RotatedAtoms>
  150.8252  134.7480  159.6806 H   0  0  0  0  0  0  0  0  0  0  0  0  # atno 6907 bound_to 6896
  152.4364  134.5675  159.9921 H   0  0  0  0  0  0  0  0  0  0  0  0  # atno 6908 bound_to 6896
  151.5849  133.3336  159.3052 H   0  0  0  0  0  0  0  0  0  0  0  0  # atno 6909 bound_to 6896
  146.2279  140.2473  142.8346 H   0  0  0  0  0  0  0  0  0  0  0  0  # atno 7974 bound_to 7965
  156.2012  140.1743  156.7894 H   0  0  0  0  0  0  0  0  0  0  0  0  # atno 8008 bound_to 7997
  154.5595  140.0702  156.8827 H   0  0  0  0  0  0  0  0  0  0  0  0  # atno 8009 bound_to 7997
  155.2875  140.3353  155.4257 H   0  0  0  0  0  0  0  0  0  0  0  0  # atno 8010 bound_to 7997
  139.6015  144.1000  152.1748 H   0  0  0  0  0  0  0  0  0  0  0  0  # atno 10167 bound_to 10162
  157.2203  130.6975  149.6267 H   0  0  0  0  0  0  0  0  0  0  0  0  # atno 10718 bound_to 10713
  153.9147  135.6788  153.4749 H   0  0  0  0  0  0  0  0  0  0  0  0  # atno 10763 bound_to 10752
  153.1060  135.4805  154.8949 H   0  0  0  0  0  0  0  0  0  0  0  0  # atno 10764 bound_to 10752
  154.7509  135.3184  154.8515 H   0  0  0  0  0  0  0  0  0  0  0  0  # atno 10765 bound_to 10752
  140.4352  134.6482  157.4731 H   0  0  0  0  0  0  0  0  0  0  0  0  # atno 11005 bound_to 11000
  144.9439  140.8107  143.5614 LP  0  0  0  0  0  0  0  0  0  0  0  0  # atno 17320 bound_to 7965
  145.2427  139.2065  143.4984 LP  0  0  0  0  0  0  0  0  0  0  0  0  # atno 17321 bound_to 7965
  140.0598  144.5866  150.7272 LP  0  0  0  0  0  0  0  0  0  0  0  0  # atno 17342 bound_to 10162
  140.7253  143.2630  151.4140 LP  0  0  0  0  0  0  0  0  0  0  0  0  # atno 17343 bound_to 10162
  155.9683  130.4522  150.5765 LP  0  0  0  0  0  0  0  0  0  0  0  0  # atno 17370 bound_to 10713
  157.3583  131.0745  151.1657 LP  0  0  0  0  0  0  0  0  0  0  0  0  # atno 17371 bound_to 10713
  140.0107  134.6695  155.9385 LP  0  0  0  0  0  0  0  0  0  0  0  0  # atno 17394 bound_to 11000
  141.1729  133.6538  156.4718 LP  0  0  0  0  0  0  0  0  0  0  0  0  # atno 17395 bound_to 11000

$$$$
