AV-unprocessed.smi:2439|AV-procd|sdf|9610|dock1
  -GOLD-   2272013243D 1   1.00000     0.00000
 Structure written by MMmdl.
 41 43  0  0  0  0  0  0  0  0  2 V2000
  149.2006  133.7732  153.6743 N   0  0  0  0  0  0  0  0  0  0  0  0
  148.2951  133.3499  153.0919 C   0  0  0  0  0  0  0  0  0  0  0  0
  147.1547  132.8163  152.3566 C   0  0  0  0  0  0  0  0  0  0  0  0
  146.8727  131.4368  152.4408 C   0  0  0  0  0  0  0  0  0  0  0  0
  145.7760  130.9164  151.7299 C   0  0  0  0  0  0  0  0  0  0  0  0
  145.0004  131.8022  150.9605 C   0  0  0  0  0  0  0  0  0  0  0  0
  145.2590  133.1236  150.8709 N   0  0  0  0  0  0  0  0  0  0  0  0
  146.3144  133.6332  151.5528 C   0  0  0  0  0  0  0  0  0  0  0  0
  146.5582  135.0152  151.4437 N   0  0  0  0  0  0  0  0  0  0  0  0
  145.6046  135.9237  150.8182 C   0  0  0  0  0  0  0  0  0  0  0  0
  145.6484  137.3344  151.4295 C   0  0  1  0  0  0  0  0  0  0  0  0
  145.7816  137.2828  152.9619 C   0  0  0  0  0  0  0  0  0  0  0  0
  145.8915  138.6502  153.5203 N   0  3  1  0  0  0  0  0  0  0  0  0
  145.9770  138.6510  155.0025 C   0  0  0  0  0  0  0  0  0  0  0  0
  145.9937  140.0856  155.5541 C   0  0  0  0  0  0  0  0  0  0  0  0
  147.1401  140.8949  154.9346 C   0  0  0  0  0  0  0  0  0  0  0  0
  147.0446  140.8550  153.4035 C   0  0  0  0  0  0  0  0  0  0  0  0
  147.0052  139.4043  152.8830 C   0  0  2  0  0  0  0  0  0  0  0  0
  146.8575  139.3627  151.3492 C   0  0  0  0  0  0  0  0  0  0  0  0
  146.7851  138.0135  150.9063 O   0  0  0  0  0  0  0  0  0  0  0  0
  147.4864  130.7804  153.0414 H   0  0  0  0  0  0  0  0  0  0  0  0
  145.5351  129.8646  151.7741 H   0  0  0  0  0  0  0  0  0  0  0  0
  144.1505  131.4408  150.4008 H   0  0  0  0  0  0  0  0  0  0  0  0
  147.4627  135.3789  151.7086 H   0  0  0  0  0  0  0  0  0  0  0  0
  145.7972  135.9669  149.7455 H   0  0  0  0  0  0  0  0  0  0  0  0
  144.6044  135.5038  150.9280 H   0  0  0  0  0  0  0  0  0  0  0  0
  144.7402  137.8794  151.1668 H   0  0  0  0  0  0  0  0  0  0  0  0
  144.9125  136.7835  153.3923 H   0  0  0  0  0  0  0  0  0  0  0  0
  146.6600  136.7000  153.2446 H   0  0  0  0  0  0  0  0  0  0  0  0
  145.1247  138.1111  155.4170 H   0  0  0  0  0  0  0  0  0  0  0  0
  146.8750  138.1172  155.3180 H   0  0  0  0  0  0  0  0  0  0  0  0
  145.0416  140.5727  155.3395 H   0  0  0  0  0  0  0  0  0  0  0  0
  146.0947  140.0666  156.6396 H   0  0  0  0  0  0  0  0  0  0  0  0
  147.1072  141.9261  155.2875 H   0  0  0  0  0  0  0  0  0  0  0  0
  148.0982  140.4843  155.2557 H   0  0  0  0  0  0  0  0  0  0  0  0
  146.1484  141.3879  153.0821 H   0  0  0  0  0  0  0  0  0  0  0  0
  147.8918  141.3863  152.9684 H   0  0  0  0  0  0  0  0  0  0  0  0
  147.9426  138.9124  153.1499 H   0  0  0  0  0  0  0  0  0  0  0  0
  145.9716  139.9101  151.0229 H   0  0  0  0  0  0  0  0  0  0  0  0
  147.7161  139.8386  150.8750 H   0  0  0  0  0  0  0  0  0  0  0  0
  145.0380  139.1327  153.2774 H   0  0  0  0  0  0  0  0  0  0  0  0
  1  2  3  0  0  0  0
  2  3  1  0  0  0  0
  3  8  1  0  0  0  0
  3  4  2  0  0  0  0
  4  5  1  0  0  0  0
  4 21  1  0  0  0  0
  5  6  2  0  0  0  0
  5 22  1  0  0  0  0
  6  7  1  0  0  0  0
  6 23  1  0  0  0  0
  7  8  2  0  0  0  0
  8  9  1  0  0  0  0
  9 10  1  0  0  0  0
  9 24  1  0  0  0  0
 10 11  1  0  0  0  0
 10 25  1  0  0  0  0
 10 26  1  0  0  0  0
 11 20  1  0  0  0  0
 11 12  1  0  0  0  0
 11 27  1  0  0  0  0
 12 13  1  0  0  0  0
 12 28  1  0  0  0  0
 12 29  1  0  0  0  0
 13 18  1  0  0  0  0
 13 14  1  0  0  0  0
 13 41  1  0  0  0  0
 14 15  1  0  0  0  0
 14 30  1  0  0  0  0
 14 31  1  0  0  0  0
 15 16  1  0  0  0  0
 15 32  1  0  0  0  0
 15 33  1  0  0  0  0
 16 17  1  0  0  0  0
 16 34  1  0  0  0  0
 16 35  1  0  0  0  0
 17 18  1  0  0  0  0
 17 36  1  0  0  0  0
 17 37  1  0  0  0  0
 18 19  1  0  0  0  0
 18 38  1  0  0  0  0
 19 20  1  0  0  0  0
 19 39  1  0  0  0  0
 19 40  1  0  0  0  0
M  CHG  1  13   1
M  END
> <s_m_source_file>
AV-unprocessed.smi

> <i_m_source_file_index>
2439

> <i_lp_mmshare_version>
43012

> <i_f3d_flags>
0

> <s_epik_input>
TiNDYzFbY0hdW2NIXVtjSF1uYzFbTkhdW0NIMl1bQ0BIXShbQ0gyXTIpT1tDSDJdW0NAQEhdKE4yMylbQ0gyXVtDSDJdW0NIMl1bQ0gyXTM=

> <s_epik_cmdline>
J2VwaWtfcHl0aG9uJywgJy1waCcsICc3LjAnLCAnLXRuJywgJzgnLCAnLW1hJywgJzIwMCcsICctbWV0YWxfYmluZGluZycsICctaW1hZScsICc8aW5maWxlLm1hZT4nLCAnLW9tYWUnLCAnPG91dGZpbGUubWFlPic=

> <r_epik_Ionization_Penalty>
0.0803594

> <r_epik_Ionization_Penalty_Charging>
0.0803403

> <r_epik_Ionization_Penalty_Neutral>
1.90988e-05

> <r_epik_State_Penalty>
0.0711481

> <r_epik_Charging_Adjusted_Penalty>
0.151488

> <i_epik_Tot_Q>
1

> <i_epik_Tot_abs_Q>
1

> <r_epik_Metal_State_Penalty>
0.0711482

> <b_epik_Metal_Only>
0

> <s_lp_Force_Field>
OPLS_2005

> <r_lp_Energy>
27.3027

> <b_lp_Chiralities_Consistent>
1

> <s_lp_Variant>
AV-unprocessed.smi:2439-8

> <Gold.Version>
5.8.1

> <Gold.Id.Protein>
6NUR|6NUR_protein|mol2

> <Gold.PLP.Fitness>
42.3128

> <Gold.PLP.PLP>
-31.0488

> <Gold.PLP.part.hbond>
-3.0000

> <Gold.PLP.part.metal>
0.0000

> <Gold.PLP.part.buried>
1.0795

> <Gold.PLP.part.nonpolar>
-30.5403

> <Gold.PLP.part.repulsive>
2.2732

> <Gold.PLP.ligand.clash>
0.0000

> <Gold.PLP.ligand.torsion>
0.3692

> <Gold.PLP.Chemscore.Hbond>
4.0000

> <Gold.PLP.Chemscore.CHOScore>
0.0000

> <Gold.PLP.Chemscore.Metal>
0.0000

> <Gold.Chemscore.Hbonds>
donor molecule, donor type, donor heavy atom, donor atom, acceptor molecule, acceptor atom, score
      L1  H     9    24       P1  7948  1.00
      L1  H    13    41       P1 10175  1.82
      P1  H  7954  7966       L1    20  1.00

> <Gold.PLP.Chemscore.Internal.Correction>
0.0025

> <Gold.Rescore>
     Score         DG    S(hbond)    S(metal)    S(lipo)     H(rot)  DE(clash)    DE(int)     intcor
     17.54     -21.60       2.76        0.00      86.74       1.27       3.61       0.44       ----

> <Gold.Chemscore.Fitness>
17.5422

> <Gold.Chemscore.DG>
-21.5974

> <Gold.Chemscore.ZeroCoef>
-5.4800

> <Gold.Chemscore.Hbond>
2.7573

> <Gold.Chemscore.Metal>
0.0000

> <Gold.Chemscore.Lipo>
86.7419

> <Gold.Chemscore.Internal_Hbond>
0.0000

> <Gold.Chemscore.DEClash>
3.6145

> <Gold.Chemscore.DEInternal>
0.4407

> <Gold.Chemscore.Rot>
1.2659

> <Gold.Chemscore.Internal.Correction>
   9.000000E+99

> <Gold.Chemscore.Hbonds>
donor molecule, donor type, donor heavy atom, donor atom, acceptor molecule, acceptor atom, score
      L1  H     9    24       P1  7948  0.96
      L1  H    13    41       P1 10175  0.87
      P1  H  7954  7966       L1    20  0.39

> <Gold.Chemscore.Hbond.Weighted>
-9.2094

> <Gold.Chemscore.Metal.Weighted>
-0.0000

> <Gold.Chemscore.Lipo.Weighted>
-10.1488

> <Gold.Chemscore.Internal_Hbond.Weighted>
0.0000

> <Gold.Chemscore.DEClash.Weighted>
3.6145

> <Gold.Chemscore.DEInternal.Weighted>
0.4407

> <Gold.Chemscore.Rot.Weighted>
3.2408

> <Gold.Chemscore.Internal.Correction.Weighted>
   9.000000E+99

> <Gold.Protein.RotatedTorsions>
[ 6907 6896 6895 6894 ] final -168.93 input  -60.11 | X-H torsion
[ 7974 7965 7964 7962 ] final   44.42 input  175.53 | X-H torsion
[ 8008 7997 7996 7995 ] final  110.93 input   59.86 | X-H torsion
[ 10167 10162 10161 10158 ] final   49.57 input  -65.29 | X-H torsion
[ 10718 10713 10712 10709 ] final  -72.40 input   66.30 | X-H torsion
[ 10763 10752 10751 10750 ] final  141.12 input  -60.55 | X-H torsion
[ 11005 11000 10999 10996 ] final  154.00 input  -57.11 | X-H torsion

> <Gold.Protein.ActiveResidues>
 VAL166  LYS551  ARG553  GLY616  TRP617  ASP618  TYR619  PRO620  LYS621  CYS622 
 ASP623  PHE694  ASN695  SER759  ASP760  ASP761  ALA762  ILE779  LEU786  VAL792 
 PHE793  MET794  SER795  GLU796  ALA797  LYS798  CYS799  TRP800  GLU811  SER814 

> <Gold.Protein.RotatedAtoms>
  151.4834  133.3541  159.2841 H   0  0  0  0  0  0  0  0  0  0  0  0  # atno 6907 bound_to 6896
  150.8882  134.8284  159.7285 H   0  0  0  0  0  0  0  0  0  0  0  0  # atno 6908 bound_to 6896
  152.4806  134.4741  159.9696 H   0  0  0  0  0  0  0  0  0  0  0  0  # atno 6909 bound_to 6896
  146.0570  139.5077  142.9682 H   0  0  0  0  0  0  0  0  0  0  0  0  # atno 7974 bound_to 7965
  156.2088  140.3029  155.9687 H   0  0  0  0  0  0  0  0  0  0  0  0  # atno 8008 bound_to 7997
  155.2774  140.0436  157.3029 H   0  0  0  0  0  0  0  0  0  0  0  0  # atno 8009 bound_to 7997
  154.5671  140.2337  155.8256 H   0  0  0  0  0  0  0  0  0  0  0  0  # atno 8010 bound_to 7997
  140.2815  144.3151  150.6263 H   0  0  0  0  0  0  0  0  0  0  0  0  # atno 10167 bound_to 10162
  156.0322  130.4371  150.2587 H   0  0  0  0  0  0  0  0  0  0  0  0  # atno 10718 bound_to 10713
  153.9340  135.2987  155.3445 H   0  0  0  0  0  0  0  0  0  0  0  0  # atno 10763 bound_to 10752
  154.7512  135.4979  153.9295 H   0  0  0  0  0  0  0  0  0  0  0  0  # atno 10764 bound_to 10752
  153.1077  135.6751  153.9663 H   0  0  0  0  0  0  0  0  0  0  0  0  # atno 10765 bound_to 10752
  140.1449  134.8714  157.2379 H   0  0  0  0  0  0  0  0  0  0  0  0  # atno 11005 bound_to 11000
  145.6626  141.0237  143.1701 LP  0  0  0  0  0  0  0  0  0  0  0  0  # atno 17320 bound_to 7965
  144.7154  139.8218  143.7400 LP  0  0  0  0  0  0  0  0  0  0  0  0  # atno 17321 bound_to 7965
  140.5808  143.2173  151.7432 LP  0  0  0  0  0  0  0  0  0  0  0  0  # atno 17342 bound_to 10162
  139.4961  144.4083  152.0108 LP  0  0  0  0  0  0  0  0  0  0  0  0  # atno 17343 bound_to 10162
  157.0688  131.0111  151.3197 LP  0  0  0  0  0  0  0  0  0  0  0  0  # atno 17370 bound_to 10713
  157.5015  130.7883  149.7609 LP  0  0  0  0  0  0  0  0  0  0  0  0  # atno 17371 bound_to 10713
  140.2676  134.3497  155.7384 LP  0  0  0  0  0  0  0  0  0  0  0  0  # atno 17394 bound_to 11000
  141.2191  133.7405  156.9175 LP  0  0  0  0  0  0  0  0  0  0  0  0  # atno 17395 bound_to 11000

$$$$
