AV-unprocessed.smi:2837|AV-procd|sdf|10927|dock4
  -GOLD-   2272015373D 1   1.00000     0.00000
 Structure written by MMmdl.
 33 35  0  0  0  0  0  0  0  0  2 V2000
  154.1555  141.2073  161.5651 F   0  0  0  0  0  0  0  0  0  0  0  0
  153.0992  141.9754  161.2023 C   0  0  0  0  0  0  0  0  0  0  0  0
  152.9603  142.9456  162.1373 F   0  0  0  0  0  0  0  0  0  0  0  0
  153.3184  142.5399  159.9849 O   0  0  0  0  0  0  0  0  0  0  0  0
  152.3354  142.4787  159.0230 C   0  0  0  0  0  0  0  0  0  0  0  0
  151.8336  141.2112  158.6608 C   0  0  0  0  0  0  0  0  0  0  0  0
  150.8150  141.1080  157.6911 C   0  0  0  0  0  0  0  0  0  0  0  0
  150.3007  142.2843  157.0960 C   0  0  0  0  0  0  0  0  0  0  0  0
  149.2888  142.3066  156.1262 N   0  0  0  0  0  0  0  0  0  0  0  0
  148.6719  141.0773  155.6440 C   0  0  1  0  0  0  0  0  0  0  0  0
  147.3374  141.3130  154.9233 C   0  0  0  0  0  0  0  0  0  0  0  0
  147.5946  140.6636  153.5579 C   0  0  2  0  0  0  0  0  0  0  0  0
  147.7051  139.1357  153.6513 C   0  0  0  0  0  0  0  0  0  0  0  0
  149.0728  138.9612  154.3105 C   0  0  0  0  0  0  0  0  0  0  0  0
  149.5050  140.4170  154.5324 C   0  0  1  0  0  0  0  0  0  0  0  0
  148.9534  141.0156  153.3706 O   0  0  0  0  0  0  0  0  0  0  0  0
  150.8014  143.4803  157.4758 N   0  3  0  0  0  0  0  0  0  0  0  0
  151.7766  143.6208  158.4000 C   0  0  0  0  0  0  0  0  0  0  0  0
  152.1901  141.3736  161.2095 H   0  0  0  0  0  0  0  0  0  0  0  0
  152.2302  140.3198  159.1241 H   0  0  0  0  0  0  0  0  0  0  0  0
  150.4442  140.1305  157.4222 H   0  0  0  0  0  0  0  0  0  0  0  0
  148.8883  143.1885  155.8396 H   0  0  0  0  0  0  0  0  0  0  0  0
  148.5625  140.3836  156.4786 H   0  0  0  0  0  0  0  0  0  0  0  0
  146.4920  140.8625  155.4443 H   0  0  0  0  0  0  0  0  0  0  0  0
  147.1284  142.3766  154.7972 H   0  0  0  0  0  0  0  0  0  0  0  0
  146.9277  141.0127  152.7691 H   0  0  0  0  0  0  0  0  0  0  0  0
  146.8939  138.6967  154.2331 H   0  0  0  0  0  0  0  0  0  0  0  0
  147.6990  138.6828  152.6592 H   0  0  0  0  0  0  0  0  0  0  0  0
  149.0277  138.3909  155.2389 H   0  0  0  0  0  0  0  0  0  0  0  0
  149.7602  138.4540  153.6324 H   0  0  0  0  0  0  0  0  0  0  0  0
  150.5836  140.5394  154.6390 H   0  0  0  0  0  0  0  0  0  0  0  0
  152.0673  144.6399  158.6103 H   0  0  0  0  0  0  0  0  0  0  0  0
  150.4213  144.3239  157.0457 H   0  0  0  0  0  0  0  0  0  0  0  0
  1  2  1  0  0  0  0
  2  3  1  0  0  0  0
  2  4  1  0  0  0  0
  2 19  1  0  0  0  0
  4  5  1  0  0  0  0
  5 18  1  0  0  0  0
  5  6  2  0  0  0  0
  6  7  1  0  0  0  0
  6 20  1  0  0  0  0
  7  8  2  0  0  0  0
  7 21  1  0  0  0  0
  8  9  1  0  0  0  0
  8 17  1  0  0  0  0
  9 10  1  0  0  0  0
  9 22  1  0  0  0  0
 10 15  1  0  0  0  0
 10 11  1  0  0  0  0
 10 23  1  0  0  0  0
 11 12  1  0  0  0  0
 11 24  1  0  0  0  0
 11 25  1  0  0  0  0
 12 16  1  0  0  0  0
 12 13  1  0  0  0  0
 12 26  1  0  0  0  0
 13 14  1  0  0  0  0
 13 27  1  0  0  0  0
 13 28  1  0  0  0  0
 14 15  1  0  0  0  0
 14 29  1  0  0  0  0
 14 30  1  0  0  0  0
 15 16  1  0  0  0  0
 15 31  1  0  0  0  0
 17 18  2  0  0  0  0
 17 33  1  0  0  0  0
 18 32  1  0  0  0  0
M  CHG  1  17   1
M  END
> <s_m_source_file>
AV-unprocessed.smi

> <i_m_source_file_index>
2837

> <i_lp_mmshare_version>
43012

> <i_f3d_flags>
0

> <s_epik_input>
RltDSF0oRilPYzFbY0hdW2NIXWMobltjSF0xKVtOSF1bQ0BIXShbQ0gyXVtDQEBIXTIzKVtDQEBIXShPMylbQ0gyXVtDSDJdMg==

> <s_epik_cmdline>
J2VwaWtfcHl0aG9uJywgJy1waCcsICc3LjAnLCAnLXRuJywgJzgnLCAnLW1hJywgJzIwMCcsICctbWV0YWxfYmluZGluZycsICctaW1hZScsICc8aW5maWxlLm1hZT4nLCAnLW9tYWUnLCAnPG91dGZpbGUubWFlPic=

> <r_lp_tautomer_probability>
0.999429

> <r_epik_Ionization_Penalty>
2.29716

> <r_epik_Ionization_Penalty_Charging>
2.29716

> <r_epik_Ionization_Penalty_Neutral>
1.42285e-06

> <r_epik_State_Penalty>
2.44762

> <r_epik_Charging_Adjusted_Penalty>
4.74478

> <i_epik_Tot_Q>
1

> <i_epik_Tot_abs_Q>
1

> <r_epik_Metal_State_Penalty>
6.53078

> <b_epik_Metal_Only>
0

> <s_lp_Force_Field>
OPLS_2005

> <r_lp_Energy>
46.2914

> <b_lp_Chiralities_Consistent>
1

> <s_lp_Variant>
AV-unprocessed.smi:2837-8

> <Gold.Version>
5.8.1

> <Gold.Id.Protein>
6NUR|6NUR_protein|mol2

> <Gold.PLP.Fitness>
47.8435

> <Gold.PLP.PLP>
-36.3672

> <Gold.PLP.part.hbond>
-3.6816

> <Gold.PLP.part.metal>
0.0000

> <Gold.PLP.part.buried>
-3.6378

> <Gold.PLP.part.nonpolar>
-33.6308

> <Gold.PLP.part.repulsive>
4.2782

> <Gold.PLP.ligand.clash>
0.0000

> <Gold.PLP.ligand.torsion>
0.9819

> <Gold.PLP.Chemscore.Hbond>
4.4720

> <Gold.PLP.Chemscore.CHOScore>
0.0000

> <Gold.PLP.Chemscore.Metal>
0.0000

> <Gold.Chemscore.Hbonds>
donor molecule, donor type, donor heavy atom, donor atom, acceptor molecule, acceptor atom, score
      L1  H     9    22       P1  8028  2.00
      L1  H    17    33       P1  8028  1.26
      P1  H  8011  8017       L1    16  1.00

> <Gold.PLP.Chemscore.Internal.Correction>
0.0240

> <Gold.Rescore>
     Score         DG    S(hbond)    S(metal)    S(lipo)     H(rot)  DE(clash)    DE(int)     intcor
     17.55     -20.42       2.60        0.00      82.81       1.34       1.84       1.03       ----

> <Gold.Chemscore.Fitness>
17.5485

> <Gold.Chemscore.DG>
-20.4183

> <Gold.Chemscore.ZeroCoef>
-5.4800

> <Gold.Chemscore.Hbond>
2.5965

> <Gold.Chemscore.Metal>
0.0000

> <Gold.Chemscore.Lipo>
82.8053

> <Gold.Chemscore.Internal_Hbond>
0.0000

> <Gold.Chemscore.DEClash>
1.8388

> <Gold.Chemscore.DEInternal>
1.0311

> <Gold.Chemscore.Rot>
1.3368

> <Gold.Chemscore.Internal.Correction>
   9.000000E+99

> <Gold.Chemscore.Hbonds>
donor molecule, donor type, donor heavy atom, donor atom, acceptor molecule, acceptor atom, score
      L1  H     9    22       P1  8028  0.93
      L1  H    17    33       P1  8028  0.54
      P1  H  8011  8017       L1    16  0.97

> <Gold.Chemscore.Hbond.Weighted>
-8.6724

> <Gold.Chemscore.Metal.Weighted>
-0.0000

> <Gold.Chemscore.Lipo.Weighted>
-9.6882

> <Gold.Chemscore.Internal_Hbond.Weighted>
0.0000

> <Gold.Chemscore.DEClash.Weighted>
1.8388

> <Gold.Chemscore.DEInternal.Weighted>
1.0311

> <Gold.Chemscore.Rot.Weighted>
3.4223

> <Gold.Chemscore.Internal.Correction.Weighted>
   9.000000E+99

> <Gold.Protein.RotatedTorsions>
[ 6907 6896 6895 6894 ] final  -48.70 input  -60.11 | X-H torsion
[ 7974 7965 7964 7962 ] final  153.27 input  175.53 | X-H torsion
[ 8008 7997 7996 7995 ] final  157.19 input   59.86 | X-H torsion
[ 10167 10162 10161 10158 ] final  -52.18 input  -65.29 | X-H torsion
[ 10718 10713 10712 10709 ] final -100.03 input   66.30 | X-H torsion
[ 10763 10752 10751 10750 ] final  -22.35 input  -60.55 | X-H torsion
[ 11005 11000 10999 10996 ] final  123.91 input  -57.11 | X-H torsion

> <Gold.Protein.ActiveResidues>
 VAL166  LYS551  ARG553  GLY616  TRP617  ASP618  TYR619  PRO620  LYS621  CYS622 
 ASP623  PHE694  ASN695  SER759  ASP760  ASP761  ALA762  ILE779  LEU786  VAL792 
 PHE793  MET794  SER795  GLU796  ALA797  LYS798  CYS799  TRP800  GLU811  SER814 

> <Gold.Protein.RotatedAtoms>
  150.8879  134.8279  159.7271 H   0  0  0  0  0  0  0  0  0  0  0  0  # atno 6907 bound_to 6896
  152.4819  134.4694  159.9640 H   0  0  0  0  0  0  0  0  0  0  0  0  # atno 6908 bound_to 6896
  151.4760  133.3519  159.2866 H   0  0  0  0  0  0  0  0  0  0  0  0  # atno 6909 bound_to 6896
  144.8166  139.6778  143.6118 H   0  0  0  0  0  0  0  0  0  0  0  0  # atno 7974 bound_to 7965
  156.2379  140.1892  156.7070 H   0  0  0  0  0  0  0  0  0  0  0  0  # atno 8008 bound_to 7997
  154.6140  140.0618  156.9557 H   0  0  0  0  0  0  0  0  0  0  0  0  # atno 8009 bound_to 7997
  155.1969  140.3289  155.4352 H   0  0  0  0  0  0  0  0  0  0  0  0  # atno 8010 bound_to 7997
  140.6551  143.2593  151.4610 H   0  0  0  0  0  0  0  0  0  0  0  0  # atno 10167 bound_to 10162
  156.0151  130.5309  150.6757 H   0  0  0  0  0  0  0  0  0  0  0  0  # atno 10718 bound_to 10713
  153.6505  135.6981  153.5210 H   0  0  0  0  0  0  0  0  0  0  0  0  # atno 10763 bound_to 10752
  153.2710  135.4215  155.0987 H   0  0  0  0  0  0  0  0  0  0  0  0  # atno 10764 bound_to 10752
  154.8477  135.3578  154.6050 H   0  0  0  0  0  0  0  0  0  0  0  0  # atno 10765 bound_to 10752
  139.9334  134.9640  156.8329 H   0  0  0  0  0  0  0  0  0  0  0  0  # atno 11005 bound_to 11000
  146.2469  139.6118  142.9453 LP  0  0  0  0  0  0  0  0  0  0  0  0  # atno 17320 bound_to 7965
  145.5200  141.0432  143.2440 LP  0  0  0  0  0  0  0  0  0  0  0  0  # atno 17321 bound_to 7965
  139.5772  144.1793  152.1919 LP  0  0  0  0  0  0  0  0  0  0  0  0  # atno 17342 bound_to 10162
  140.1107  144.5460  150.6927 LP  0  0  0  0  0  0  0  0  0  0  0  0  # atno 17343 bound_to 10162
  157.4470  131.0868  151.0885 LP  0  0  0  0  0  0  0  0  0  0  0  0  # atno 17370 bound_to 10713
  157.1412  130.6144  149.5555 LP  0  0  0  0  0  0  0  0  0  0  0  0  # atno 17371 bound_to 10713
  140.6141  134.0055  155.7589 LP  0  0  0  0  0  0  0  0  0  0  0  0  # atno 17394 bound_to 11000
  141.0935  133.9880  157.3198 LP  0  0  0  0  0  0  0  0  0  0  0  0  # atno 17395 bound_to 11000

$$$$
