AV-unprocessed.smi:2345|AV-procd|sdf|9363|dock7
  -GOLD-   2272012583D 1   1.00000     0.00000
 Structure written by MMmdl.
 37 38  0  0  0  0  0  0  0  0  1 V2000
  149.7490  132.8760  153.6588 C   0  0  0  0  0  0  0  0  0  0  0  0
  148.2648  133.2114  153.4909 C   0  0  0  0  0  0  0  0  0  0  0  0
  147.8151  133.3671  151.7406 S   0  0  0  0  0  0  0  0  0  0  0  0
  146.0496  133.7998  151.8843 C   0  0  2  0  0  0  0  0  0  0  0  0
  145.4237  134.2672  150.5706 C   0  0  0  0  0  0  0  0  0  0  0  0
  144.1248  134.9412  151.0078 C   0  0  0  0  0  0  0  0  0  0  0  0
  144.4279  135.5753  152.3718 C   0  0  0  0  0  0  0  0  0  0  0  0
  145.7336  134.9300  152.8867 C   0  0  2  0  0  0  0  0  0  0  0  0
  146.8103  135.9184  152.9564 N   0  0  0  0  0  0  0  0  0  0  0  0
  146.7327  137.1037  153.5766 C   0  0  0  0  0  0  0  0  0  0  0  0
  145.7162  137.5160  154.1353 O   0  0  0  0  0  0  0  0  0  0  0  0
  147.8901  137.7789  153.4855 N   0  0  0  0  0  0  0  0  0  0  0  0
  148.1669  139.0712  154.0002 C   0  0  0  0  0  0  0  0  0  0  0  0
  147.1311  140.0280  153.9897 C   0  0  0  0  0  0  0  0  0  0  0  0
  147.4004  141.3220  154.4780 C   0  0  0  0  0  0  0  0  0  0  0  0
  148.6083  141.7029  154.9446 N   0  0  0  0  0  0  0  0  0  0  0  0
  149.6052  140.7921  154.9291 C   0  0  0  0  0  0  0  0  0  0  0  0
  149.4450  139.4721  154.4614 C   0  0  0  0  0  0  0  0  0  0  0  0
  150.5098  138.6350  154.4340 F   0  0  0  0  0  0  0  0  0  0  0  0
  150.0095  132.7842  154.7133 H   0  0  0  0  0  0  0  0  0  0  0  0
  150.3792  133.6535  153.2262 H   0  0  0  0  0  0  0  0  0  0  0  0
  149.9964  131.9326  153.1713 H   0  0  0  0  0  0  0  0  0  0  0  0
  147.6553  132.4334  153.9500 H   0  0  0  0  0  0  0  0  0  0  0  0
  148.0342  134.1467  154.0012 H   0  0  0  0  0  0  0  0  0  0  0  0
  145.5193  132.9052  152.2147 H   0  0  0  0  0  0  0  0  0  0  0  0
  146.0736  134.9954  150.0835 H   0  0  0  0  0  0  0  0  0  0  0  0
  145.2482  133.4507  149.8701 H   0  0  0  0  0  0  0  0  0  0  0  0
  143.7704  135.6703  150.2786 H   0  0  0  0  0  0  0  0  0  0  0  0
  143.3455  134.1865  151.1224 H   0  0  0  0  0  0  0  0  0  0  0  0
  144.5275  136.6569  152.2691 H   0  0  0  0  0  0  0  0  0  0  0  0
  143.6044  135.4003  153.0649 H   0  0  0  0  0  0  0  0  0  0  0  0
  145.5864  134.5005  153.8794 H   0  0  0  0  0  0  0  0  0  0  0  0
  147.6852  135.6634  152.5220 H   0  0  0  0  0  0  0  0  0  0  0  0
  148.6014  137.3769  152.8933 H   0  0  0  0  0  0  0  0  0  0  0  0
  146.1455  139.7765  153.6256 H   0  0  0  0  0  0  0  0  0  0  0  0
  146.6241  142.0727  154.4912 H   0  0  0  0  0  0  0  0  0  0  0  0
  150.5655  141.1301  155.2893 H   0  0  0  0  0  0  0  0  0  0  0  0
  1  2  1  0  0  0  0
  1 20  1  0  0  0  0
  1 21  1  0  0  0  0
  1 22  1  0  0  0  0
  2  3  1  0  0  0  0
  2 23  1  0  0  0  0
  2 24  1  0  0  0  0
  3  4  1  0  0  0  0
  4  8  1  0  0  0  0
  4  5  1  0  0  0  0
  4 25  1  0  0  0  0
  5  6  1  0  0  0  0
  5 26  1  0  0  0  0
  5 27  1  0  0  0  0
  6  7  1  0  0  0  0
  6 28  1  0  0  0  0
  6 29  1  0  0  0  0
  7  8  1  0  0  0  0
  7 30  1  0  0  0  0
  7 31  1  0  0  0  0
  8  9  1  0  0  0  0
  8 32  1  0  0  0  0
  9 10  1  0  0  0  0
  9 33  1  0  0  0  0
 10 11  2  0  0  0  0
 10 12  1  0  0  0  0
 12 13  1  0  0  0  0
 12 34  1  0  0  0  0
 13 18  1  0  0  0  0
 13 14  2  0  0  0  0
 14 15  1  0  0  0  0
 14 35  1  0  0  0  0
 15 16  2  0  0  0  0
 15 36  1  0  0  0  0
 16 17  1  0  0  0  0
 17 18  2  0  0  0  0
 17 37  1  0  0  0  0
 18 19  1  0  0  0  0
M  END
> <s_m_source_file>
AV-unprocessed.smi

> <i_m_source_file_index>
2345

> <i_lp_mmshare_version>
43012

> <i_f3d_flags>
0

> <s_epik_input>
W0NIM11bQ0gyXVNbQ0BASF0xW0NIMl1bQ0gyXVtDSDJdW0NASF0xW05IXUMoPU8pW05IXWMyW2NIXVtjSF1uW2NIXWMyRg==

> <s_epik_cmdline>
J2VwaWtfcHl0aG9uJywgJy1waCcsICc3LjAnLCAnLXRuJywgJzgnLCAnLW1hJywgJzIwMCcsICctbWV0YWxfYmluZGluZycsICctaW1hZScsICc8aW5maWxlLm1hZT4nLCAnLW9tYWUnLCAnPG91dGZpbGUubWFlPic=

> <r_epik_Ionization_Penalty>
0.00333745

> <r_epik_Ionization_Penalty_Charging>
0

> <r_epik_Ionization_Penalty_Neutral>
0.00333745

> <r_epik_State_Penalty>
0.00233401

> <r_epik_Charging_Adjusted_Penalty>
0.00233401

> <i_epik_Tot_Q>
0

> <i_epik_Tot_abs_Q>
0

> <r_epik_Metal_State_Penalty>
-0

> <b_epik_Metal_Only>
0

> <s_lp_Force_Field>
OPLS_2005

> <r_lp_Energy>
24.389

> <b_lp_Chiralities_Consistent>
1

> <s_lp_Variant>
AV-unprocessed.smi:2345-3

> <Gold.Version>
5.8.1

> <Gold.Id.Protein>
6NUR|6NUR_protein|mol2

> <Gold.PLP.Fitness>
37.4322

> <Gold.PLP.PLP>
-32.8636

> <Gold.PLP.part.hbond>
-3.0000

> <Gold.PLP.part.metal>
0.0000

> <Gold.PLP.part.buried>
-0.4770

> <Gold.PLP.part.nonpolar>
-29.3899

> <Gold.PLP.part.repulsive>
0.9724

> <Gold.PLP.ligand.clash>
0.0000

> <Gold.PLP.ligand.torsion>
0.3804

> <Gold.PLP.Chemscore.Hbond>
1.7244

> <Gold.PLP.Chemscore.CHOScore>
0.0000

> <Gold.PLP.Chemscore.Metal>
0.0000

> <Gold.Chemscore.Hbonds>
donor molecule, donor type, donor heavy atom, donor atom, acceptor molecule, acceptor atom, score
      L1  H     9    33       P1  7948  0.87
      L1  H    12    34       P1  7948  0.94

> <Gold.PLP.Chemscore.Internal.Correction>
0.1559

> <Gold.Rescore>
     Score         DG    S(hbond)    S(metal)    S(lipo)     H(rot)  DE(clash)    DE(int)     intcor
     14.36     -15.99       1.89        0.00      65.35       1.35       0.06       1.57       ----

> <Gold.Chemscore.Fitness>
14.3560

> <Gold.Chemscore.DG>
-15.9921

> <Gold.Chemscore.ZeroCoef>
-5.4800

> <Gold.Chemscore.Hbond>
1.8911

> <Gold.Chemscore.Metal>
0.0000

> <Gold.Chemscore.Lipo>
65.3454

> <Gold.Chemscore.Internal_Hbond>
0.0000

> <Gold.Chemscore.DEClash>
0.0642

> <Gold.Chemscore.DEInternal>
1.5719

> <Gold.Chemscore.Rot>
1.3475

> <Gold.Chemscore.Internal.Correction>
   9.000000E+99

> <Gold.Chemscore.Hbonds>
donor molecule, donor type, donor heavy atom, donor atom, acceptor molecule, acceptor atom, score
      L1  H     9    33       P1  7948  0.81
      L1  H    12    34       P1  7948  0.88

> <Gold.Chemscore.Hbond.Weighted>
-6.3163

> <Gold.Chemscore.Metal.Weighted>
-0.0000

> <Gold.Chemscore.Lipo.Weighted>
-7.6454

> <Gold.Chemscore.Internal_Hbond.Weighted>
0.0000

> <Gold.Chemscore.DEClash.Weighted>
0.0642

> <Gold.Chemscore.DEInternal.Weighted>
1.5719

> <Gold.Chemscore.Rot.Weighted>
3.4496

> <Gold.Chemscore.Internal.Correction.Weighted>
   9.000000E+99

> <Gold.Protein.RotatedTorsions>
[ 6907 6896 6895 6894 ] final  115.60 input  -60.11 | X-H torsion
[ 7974 7965 7964 7962 ] final  -15.91 input  175.53 | X-H torsion
[ 8008 7997 7996 7995 ] final  173.09 input   59.86 | X-H torsion
[ 10167 10162 10161 10158 ] final   35.86 input  -65.29 | X-H torsion
[ 10718 10713 10712 10709 ] final   72.73 input   66.30 | X-H torsion
[ 10763 10752 10751 10750 ] final  -41.16 input  -60.55 | X-H torsion
[ 11005 11000 10999 10996 ] final   51.84 input  -57.11 | X-H torsion

> <Gold.Protein.ActiveResidues>
 VAL166  LYS551  ARG553  GLY616  TRP617  ASP618  TYR619  PRO620  LYS621  CYS622 
 ASP623  PHE694  ASN695  SER759  ASP760  ASP761  ALA762  ILE779  LEU786  VAL792 
 PHE793  MET794  SER795  GLU796  ALA797  LYS798  CYS799  TRP800  GLU811  SER814 

> <Gold.Protein.RotatedAtoms>
  152.4731  133.8076  159.6985 H   0  0  0  0  0  0  0  0  0  0  0  0  # atno 6907 bound_to 6896
  150.8732  133.7466  159.2961 H   0  0  0  0  0  0  0  0  0  0  0  0  # atno 6908 bound_to 6896
  151.4994  135.1064  159.9877 H   0  0  0  0  0  0  0  0  0  0  0  0  # atno 6909 bound_to 6896
  146.2011  140.3560  142.8423 H   0  0  0  0  0  0  0  0  0  0  0  0  # atno 7974 bound_to 7965
  156.1110  140.1469  156.9339 H   0  0  0  0  0  0  0  0  0  0  0  0  # atno 8008 bound_to 7997
  154.4767  140.0892  156.7321 H   0  0  0  0  0  0  0  0  0  0  0  0  # atno 8009 bound_to 7997
  155.4597  140.3438  155.4313 H   0  0  0  0  0  0  0  0  0  0  0  0  # atno 8010 bound_to 7997
  140.4182  144.1497  150.6145 H   0  0  0  0  0  0  0  0  0  0  0  0  # atno 10167 bound_to 10162
  157.6515  130.9593  150.0970 H   0  0  0  0  0  0  0  0  0  0  0  0  # atno 10718 bound_to 10713
  153.9579  135.6743  153.4745 H   0  0  0  0  0  0  0  0  0  0  0  0  # atno 10763 bound_to 10752
  153.0852  135.4902  154.8580 H   0  0  0  0  0  0  0  0  0  0  0  0  # atno 10764 bound_to 10752
  154.7289  135.3133  154.8884 H   0  0  0  0  0  0  0  0  0  0  0  0  # atno 10765 bound_to 10752
  140.0899  134.5223  155.8862 H   0  0  0  0  0  0  0  0  0  0  0  0  # atno 11005 bound_to 11000
  144.8686  140.7241  143.6061 LP  0  0  0  0  0  0  0  0  0  0  0  0  # atno 17320 bound_to 7965
  145.3480  139.1714  143.4450 LP  0  0  0  0  0  0  0  0  0  0  0  0  # atno 17321 bound_to 7965
  140.4563  143.2466  151.9280 LP  0  0  0  0  0  0  0  0  0  0  0  0  # atno 17342 bound_to 10162
  139.4782  144.5512  151.8382 LP  0  0  0  0  0  0  0  0  0  0  0  0  # atno 17343 bound_to 10162
  156.1903  130.3654  149.8918 LP  0  0  0  0  0  0  0  0  0  0  0  0  # atno 17370 bound_to 10713
  156.6848  130.8872  151.3580 LP  0  0  0  0  0  0  0  0  0  0  0  0  # atno 17371 bound_to 10713
  141.2074  133.6664  156.6307 LP  0  0  0  0  0  0  0  0  0  0  0  0  # atno 17394 bound_to 11000
  140.3367  134.7883  157.4367 LP  0  0  0  0  0  0  0  0  0  0  0  0  # atno 17395 bound_to 11000

$$$$
