AV-unprocessed.smi:54|AV-procd|sdf|558|dock8
  -GOLD-   2262016463D 1   1.00000     0.00000
 Structure written by MMmdl.
 43 45  0  0  0  0  0  0  0  0  2 V2000
  152.5203  142.6390  160.8714 C   0  0  0  0  0  0  0  0  0  0  0  0
  152.2074  143.2515  159.4963 C   0  0  0  0  0  0  0  0  0  0  0  0
  151.1673  144.3783  159.6122 C   0  0  0  0  0  0  0  0  0  0  0  0
  151.7333  142.1693  158.5155 C   0  0  0  0  0  0  0  0  0  0  0  0
  150.6209  142.2793  157.9956 O   0  0  0  0  0  0  0  0  0  0  0  0
  152.6047  141.1560  158.3111 N   0  0  0  0  0  0  0  0  0  0  0  0
  152.4773  140.0177  157.5046 C   0  0  0  0  0  0  0  0  0  0  0  0
  151.3829  140.0245  156.7822 N   0  0  0  0  0  0  0  0  0  0  0  0
  151.2586  138.8956  155.9946 C   0  0  0  0  0  0  0  0  0  0  0  0
  152.1196  137.8370  155.9048 C   0  0  0  0  0  0  0  0  0  0  0  0
  151.6647  136.8885  154.9969 N   0  0  0  0  0  0  0  0  0  0  0  0
  150.5244  137.4319  154.5734 C   0  0  0  0  0  0  0  0  0  0  0  0
  150.2052  138.6196  155.1302 N   0  0  0  0  0  0  0  0  0  0  0  0
  149.0117  139.4878  154.8658 C   0  0  1  0  0  0  0  0  0  0  0  0
  148.2665  139.5894  156.0432 O   0  0  0  0  0  0  0  0  0  0  0  0
  148.6380  140.7749  156.7382 C   0  0  2  0  0  0  0  0  0  0  0  0
  147.5902  141.1530  157.7995 C   0  0  0  0  0  0  0  0  0  0  0  0
  147.8159  142.4718  158.2492 O   0  0  0  0  0  0  0  0  0  0  0  0
  148.8082  141.7713  155.5851 C   0  0  2  0  0  0  0  0  0  0  0  0
  147.5482  142.2815  155.1790 O   0  0  0  0  0  0  0  0  0  0  0  0
  149.4715  140.9141  154.5065 C   0  0  2  0  0  0  0  0  0  0  0  0
  149.1102  141.3048  153.1950 O   0  0  0  0  0  0  0  0  0  0  0  0
  153.3341  137.8894  156.7518 C   0  0  0  0  0  0  0  0  0  0  0  0
  154.1379  136.9600  156.7048 O   0  0  0  0  0  0  0  0  0  0  0  0
  153.4545  139.0024  157.5357 N   0  5  0  0  0  0  0  0  0  0  0  0
  148.4573  138.9683  154.0831 H   0  0  0  0  0  0  0  0  0  0  0  0
  149.6114  140.6280  157.2102 H   0  0  0  0  0  0  0  0  0  0  0  0
  149.4389  142.6141  155.8696 H   0  0  0  0  0  0  0  0  0  0  0  0
  150.5560  140.9846  154.6080 H   0  0  0  0  0  0  0  0  0  0  0  0
  153.2535  141.8357  160.7897 H   0  0  0  0  0  0  0  0  0  0  0  0
  151.6259  142.2272  161.3408 H   0  0  0  0  0  0  0  0  0  0  0  0
  152.9316  143.3891  161.5471 H   0  0  0  0  0  0  0  0  0  0  0  0
  153.1292  143.6887  159.1085 H   0  0  0  0  0  0  0  0  0  0  0  0
  150.9364  144.8068  158.6361 H   0  0  0  0  0  0  0  0  0  0  0  0
  151.5376  145.1859  160.2441 H   0  0  0  0  0  0  0  0  0  0  0  0
  150.2337  144.0206  160.0483 H   0  0  0  0  0  0  0  0  0  0  0  0
  153.4536  141.2183  158.8530 H   0  0  0  0  0  0  0  0  0  0  0  0
  149.9041  136.9454  153.8353 H   0  0  0  0  0  0  0  0  0  0  0  0
  146.5897  141.1207  157.3673 H   0  0  0  0  0  0  0  0  0  0  0  0
  147.6050  140.4604  158.6416 H   0  0  0  0  0  0  0  0  0  0  0  0
  147.6689  143.0618  157.5257 H   0  0  0  0  0  0  0  0  0  0  0  0
  147.5583  143.2195  155.2947 H   0  0  0  0  0  0  0  0  0  0  0  0
  149.2966  140.5860  152.6100 H   0  0  0  0  0  0  0  0  0  0  0  0
  1  2  1  0  0  0  0
  1 30  1  0  0  0  0
  1 31  1  0  0  0  0
  1 32  1  0  0  0  0
  2  3  1  0  0  0  0
  2  4  1  0  0  0  0
  2 33  1  0  0  0  0
  3 34  1  0  0  0  0
  3 35  1  0  0  0  0
  3 36  1  0  0  0  0
  4  5  2  0  0  0  0
  4  6  1  0  0  0  0
  6 37  1  0  0  0  0
  6  7  1  0  0  0  0
  7 25  1  0  0  0  0
  7  8  2  0  0  0  0
  8  9  1  0  0  0  0
  9 13  1  0  0  0  0
  9 10  2  0  0  0  0
 10 11  1  0  0  0  0
 10 23  1  0  0  0  0
 11 12  2  0  0  0  0
 12 13  1  0  0  0  0
 12 38  1  0  0  0  0
 13 14  1  0  0  0  0
 14 26  1  0  0  0  0
 14 21  1  0  0  0  0
 14 15  1  0  0  0  0
 15 16  1  0  0  0  0
 16 27  1  0  0  0  0
 16 17  1  0  0  0  0
 16 19  1  0  0  0  0
 17 18  1  0  0  0  0
 17 39  1  0  0  0  0
 17 40  1  0  0  0  0
 18 41  1  0  0  0  0
 19 28  1  0  0  0  0
 19 20  1  0  0  0  0
 19 21  1  0  0  0  0
 20 42  1  0  0  0  0
 21 29  1  0  0  0  0
 21 22  1  0  0  0  0
 22 43  1  0  0  0  0
 23 24  2  0  0  0  0
 23 25  1  0  0  0  0
M  CHG  1  25  -1
M  END
> <s_m_source_file>
AV-unprocessed.smi

> <i_m_source_file_index>
54

> <i_lp_mmshare_version>
43012

> <i_f3d_flags>
0

> <s_epik_input>
W0NIM11bQ0hdKFtDSDNdKUMoPU8pW05IXWMobjEpW25IXWMoPU8pYyhjMTIpbltjSF1uMltDQEBIXTNPW0NASF0oW0NIMl1bT0hdKVtDQEBIXShbT0hdKVtDQEhdM1tPSF0=

> <s_epik_cmdline>
J2VwaWtfcHl0aG9uJywgJy1waCcsICc3LjAnLCAnLXRuJywgJzgnLCAnLW1hJywgJzIwMCcsICctbWV0YWxfYmluZGluZycsICctaW1hZScsICc8aW5maWxlLm1hZT4nLCAnLW9tYWUnLCAnPG91dGZpbGUubWFlPic=

> <r_lp_tautomer_probability>
0.85571

> <r_epik_Ionization_Penalty>
1.75936

> <r_epik_Ionization_Penalty_Charging>
4.55893e-11

> <r_epik_Ionization_Penalty_Neutral>
1.75936

> <r_epik_State_Penalty>
1.72072

> <r_epik_Charging_Adjusted_Penalty>
1.72072

> <i_epik_Tot_Q>
-1

> <i_epik_Tot_abs_Q>
1

> <r_epik_Metal_State_Penalty>
0.400338

> <b_epik_Metal_Only>
1

> <s_epik_Chemistry_Notes>
This compound contains an acetal/aminal-like group ( X-CH(R)-Y where X, Y are N, S, or O) that may be acid/base labile, releasing an aldehyde.

> <s_lp_Force_Field>
OPLS_2005

> <r_lp_Energy>
63.0293

> <b_lp_Chiralities_Consistent>
1

> <s_lp_Variant>
AV-unprocessed.smi:54-30

> <Gold.Version>
5.8.1

> <Gold.Id.Protein>
6NUR|6NUR_protein|mol2

> <Gold.PLP.Fitness>
53.7246

> <Gold.PLP.PLP>
-33.7436

> <Gold.PLP.part.hbond>
-6.3540

> <Gold.PLP.part.metal>
0.0000

> <Gold.PLP.part.buried>
-2.1057

> <Gold.PLP.part.nonpolar>
-26.3689

> <Gold.PLP.part.repulsive>
0.2900

> <Gold.PLP.ligand.clash>
0.0000

> <Gold.PLP.ligand.torsion>
0.1519

> <Gold.PLP.Chemscore.Hbond>
5.7424

> <Gold.PLP.Chemscore.CHOScore>
1.0000

> <Gold.PLP.Chemscore.Metal>
0.0000

> <Gold.Chemscore.Hbonds>
donor molecule, donor type, donor heavy atom, donor atom, acceptor molecule, acceptor atom, score
      L1  H    20    42       P1  8028  0.82
      L1  H    22    43       P1  7957  0.99
      P1  H  7997  8010       L1    25  1.48
      P1  H  8011  8017       L1    22  0.80
      P1  H 10752 10763       L1    24  0.42
      P1  H 10752 10765       L1    11  1.00
      L1  C    12    38       P1  7948  1.00

> <Gold.PLP.Chemscore.Internal.Correction>
0.0575

> <Gold.Rescore>
     Score         DG    S(hbond)    S(metal)    S(lipo)     H(rot)  DE(clash)    DE(int)     intcor
      6.09     -10.82       2.69        0.00      56.63       4.02       0.21       4.51       ----

> <Gold.Chemscore.Fitness>
6.0914

> <Gold.Chemscore.DG>
-10.8154

> <Gold.Chemscore.ZeroCoef>
-5.4800

> <Gold.Chemscore.Hbond>
2.6942

> <Gold.Chemscore.Metal>
0.0000

> <Gold.Chemscore.Lipo>
56.6342

> <Gold.Chemscore.Internal_Hbond>
0.0000

> <Gold.Chemscore.DEClash>
0.2131

> <Gold.Chemscore.DEInternal>
4.5110

> <Gold.Chemscore.Rot>
4.0192

> <Gold.Chemscore.Internal.Correction>
   9.000000E+99

> <Gold.Chemscore.Hbonds>
donor molecule, donor type, donor heavy atom, donor atom, acceptor molecule, acceptor atom, score
      L1  H    20    42       P1  8028  0.20
      L1  H    22    43       P1  7957  0.92
      P1  H  7997  8010       L1    25  0.10
      P1  H  8011  8017       L1    22  0.11
      P1  H 10752 10763       L1    24  0.42
      P1  H 10752 10765       L1    11  0.91

> <Gold.Chemscore.Hbond.Weighted>
-8.9985

> <Gold.Chemscore.Metal.Weighted>
-0.0000

> <Gold.Chemscore.Lipo.Weighted>
-6.6262

> <Gold.Chemscore.Internal_Hbond.Weighted>
0.0000

> <Gold.Chemscore.DEClash.Weighted>
0.2131

> <Gold.Chemscore.DEInternal.Weighted>
4.5110

> <Gold.Chemscore.Rot.Weighted>
10.2893

> <Gold.Chemscore.Internal.Correction.Weighted>
   9.000000E+99

> <Gold.Protein.RotatedTorsions>
[ 6907 6896 6895 6894 ] final   98.81 input  -60.11 | X-H torsion
[ 7974 7965 7964 7962 ] final   91.63 input  175.53 | X-H torsion
[ 8008 7997 7996 7995 ] final   20.34 input   59.86 | X-H torsion
[ 10167 10162 10161 10158 ] final -163.10 input  -65.29 | X-H torsion
[ 10718 10713 10712 10709 ] final   70.31 input   66.30 | X-H torsion
[ 10763 10752 10751 10750 ] final  163.10 input  -60.55 | X-H torsion
[ 11005 11000 10999 10996 ] final   98.50 input  -57.11 | X-H torsion

> <Gold.Protein.ActiveResidues>
 VAL166  LYS551  ARG553  GLY616  TRP617  ASP618  TYR619  PRO620  LYS621  CYS622 
 ASP623  PHE694  ASN695  SER759  ASP760  ASP761  ALA762  ILE779  LEU786  VAL792 
 PHE793  MET794  SER795  GLU796  ALA797  LYS798  CYS799  TRP800  GLU811  SER814 

> <Gold.Protein.RotatedAtoms>
  152.5403  134.0523  159.8115 H   0  0  0  0  0  0  0  0  0  0  0  0  # atno 6907 bound_to 6896
  151.0663  133.5495  159.2637 H   0  0  0  0  0  0  0  0  0  0  0  0  # atno 6908 bound_to 6896
  151.2375  135.0585  159.9066 H   0  0  0  0  0  0  0  0  0  0  0  0  # atno 6909 bound_to 6896
  145.5031  139.2276  143.2766 H   0  0  0  0  0  0  0  0  0  0  0  0  # atno 7974 bound_to 7965
  154.9342  140.3044  155.5153 H   0  0  0  0  0  0  0  0  0  0  0  0  # atno 8008 bound_to 7997
  156.3001  140.2348  156.4341 H   0  0  0  0  0  0  0  0  0  0  0  0  # atno 8009 bound_to 7997
  154.8208  140.0423  157.1398 H   0  0  0  0  0  0  0  0  0  0  0  0  # atno 8010 bound_to 7997
  139.6344  144.0377  152.2042 H   0  0  0  0  0  0  0  0  0  0  0  0  # atno 10167 bound_to 10162
  157.6393  130.9471  150.0634 H   0  0  0  0  0  0  0  0  0  0  0  0  # atno 10718 bound_to 10713
  154.2886  135.2761  155.2665 H   0  0  0  0  0  0  0  0  0  0  0  0  # atno 10763 bound_to 10752
  154.5154  135.5771  153.6642 H   0  0  0  0  0  0  0  0  0  0  0  0  # atno 10764 bound_to 10752
  152.9918  135.6191  154.3049 H   0  0  0  0  0  0  0  0  0  0  0  0  # atno 10765 bound_to 10752
  139.8772  134.9052  156.4466 H   0  0  0  0  0  0  0  0  0  0  0  0  # atno 11005 bound_to 11000
  146.2214  140.5833  142.9016 LP  0  0  0  0  0  0  0  0  0  0  0  0  # atno 17320 bound_to 7965
  144.7769  140.5758  143.6632 LP  0  0  0  0  0  0  0  0  0  0  0  0  # atno 17321 bound_to 7965
  140.0051  144.6265  150.7696 LP  0  0  0  0  0  0  0  0  0  0  0  0  # atno 17342 bound_to 10162
  140.7457  143.2880  151.3410 LP  0  0  0  0  0  0  0  0  0  0  0  0  # atno 17343 bound_to 10162
  156.1659  130.3645  149.9232 LP  0  0  0  0  0  0  0  0  0  0  0  0  # atno 17370 bound_to 10713
  156.7219  130.9010  151.3619 LP  0  0  0  0  0  0  0  0  0  0  0  0  # atno 17371 bound_to 10713
  140.8961  133.7813  155.9627 LP  0  0  0  0  0  0  0  0  0  0  0  0  # atno 17394 bound_to 11000
  140.8701  134.2737  157.5195 LP  0  0  0  0  0  0  0  0  0  0  0  0  # atno 17395 bound_to 11000

$$$$
