AV-unprocessed.smi:694|AV-procd|sdf|3381|dock3
  -GOLD-   22720 0363D 1   1.00000     0.00000
 Structure written by MMmdl.
 42 43  0  0  0  0  0  0  0  0  1 V2000
  152.7012  141.4965  158.8989 C   0  0  0  0  0  0  0  0  0  0  0  0
  151.7589  142.1530  157.9983 N   0  0  0  0  0  0  0  0  0  0  0  0
  151.5121  143.5841  158.1224 C   0  0  0  0  0  0  0  0  0  0  0  0
  151.1374  141.4115  156.9676 C   0  0  0  0  0  0  0  0  0  0  0  0
  151.8205  140.3716  156.2901 C   0  0  0  0  0  0  0  0  0  0  0  0
  151.1570  139.6638  155.2705 C   0  0  0  0  0  0  0  0  0  0  0  0
  149.8325  140.0071  154.9395 C   0  0  0  0  0  0  0  0  0  0  0  0
  149.1890  139.2604  153.9154 N   0  0  0  0  0  0  0  0  0  0  0  0
  147.9439  139.3975  153.4287 C   0  0  0  0  0  0  0  0  0  0  0  0
  147.1315  140.2532  153.7775 O   0  0  0  0  0  0  0  0  0  0  0  0
  147.6911  138.4773  152.4869 N   0  0  0  0  0  0  0  0  0  0  0  0
  146.4316  138.3306  151.7635 C   0  0  0  0  0  0  0  0  0  0  0  0
  145.7227  137.0062  152.1160 C   0  0  1  0  0  0  0  0  0  0  0  0
  144.2516  137.1308  152.5366 C   0  0  0  0  0  0  0  0  0  0  0  0
  143.6316  135.7458  152.2973 C   0  0  0  0  0  0  0  0  0  0  0  0
  144.6539  134.9443  151.4756 C   0  0  0  0  0  0  0  0  0  0  0  0
  145.6972  135.9580  150.9941 C   0  0  1  0  0  0  0  0  0  0  0  0
  145.2598  136.5187  149.7698 O   0  0  0  0  0  0  0  0  0  0  0  0
  149.2252  141.0516  155.6757 C   0  0  0  0  0  0  0  0  0  0  0  0
  149.8582  141.7317  156.6545 N   0  0  0  0  0  0  0  0  0  0  0  0
  153.5587  141.1145  158.3441 H   0  0  0  0  0  0  0  0  0  0  0  0
  152.2226  140.6633  159.4145 H   0  0  0  0  0  0  0  0  0  0  0  0
  153.0732  142.1857  159.6568 H   0  0  0  0  0  0  0  0  0  0  0  0
  150.4605  143.7745  158.3383 H   0  0  0  0  0  0  0  0  0  0  0  0
  151.7795  144.1010  157.2004 H   0  0  0  0  0  0  0  0  0  0  0  0
  152.1008  144.0206  158.9292 H   0  0  0  0  0  0  0  0  0  0  0  0
  152.8382  140.1038  156.5297 H   0  0  0  0  0  0  0  0  0  0  0  0
  151.6657  138.8670  154.7476 H   0  0  0  0  0  0  0  0  0  0  0  0
  149.7606  138.5553  153.4739 H   0  0  0  0  0  0  0  0  0  0  0  0
  148.4217  137.8184  152.2609 H   0  0  0  0  0  0  0  0  0  0  0  0
  145.7792  139.1854  151.9491 H   0  0  0  0  0  0  0  0  0  0  0  0
  146.6583  138.3477  150.6972 H   0  0  0  0  0  0  0  0  0  0  0  0
  146.2594  136.5573  152.9539 H   0  0  0  0  0  0  0  0  0  0  0  0
  144.1448  137.4573  153.5714 H   0  0  0  0  0  0  0  0  0  0  0  0
  143.7465  137.8660  151.9087 H   0  0  0  0  0  0  0  0  0  0  0  0
  143.4195  135.2399  153.2398 H   0  0  0  0  0  0  0  0  0  0  0  0
  142.6875  135.8420  151.7601 H   0  0  0  0  0  0  0  0  0  0  0  0
  145.1389  134.2162  152.1273 H   0  0  0  0  0  0  0  0  0  0  0  0
  144.1933  134.3858  150.6593 H   0  0  0  0  0  0  0  0  0  0  0  0
  146.6737  135.4972  150.8417 H   0  0  0  0  0  0  0  0  0  0  0  0
  144.8272  137.3390  149.9513 H   0  0  0  0  0  0  0  0  0  0  0  0
  148.2038  141.3556  155.5102 H   0  0  0  0  0  0  0  0  0  0  0  0
  1  2  1  0  0  0  0
  1 21  1  0  0  0  0
  1 22  1  0  0  0  0
  1 23  1  0  0  0  0
  2  3  1  0  0  0  0
  2  4  1  0  0  0  0
  3 24  1  0  0  0  0
  3 25  1  0  0  0  0
  3 26  1  0  0  0  0
  4 20  1  0  0  0  0
  4  5  2  0  0  0  0
  5  6  1  0  0  0  0
  5 27  1  0  0  0  0
  6  7  2  0  0  0  0
  6 28  1  0  0  0  0
  7  8  1  0  0  0  0
  7 19  1  0  0  0  0
  8  9  1  0  0  0  0
  8 29  1  0  0  0  0
  9 10  2  0  0  0  0
  9 11  1  0  0  0  0
 11 12  1  0  0  0  0
 11 30  1  0  0  0  0
 12 13  1  0  0  0  0
 12 31  1  0  0  0  0
 12 32  1  0  0  0  0
 13 17  1  0  0  0  0
 13 14  1  0  0  0  0
 13 33  1  0  0  0  0
 14 15  1  0  0  0  0
 14 34  1  0  0  0  0
 14 35  1  0  0  0  0
 15 16  1  0  0  0  0
 15 36  1  0  0  0  0
 15 37  1  0  0  0  0
 16 17  1  0  0  0  0
 16 38  1  0  0  0  0
 16 39  1  0  0  0  0
 17 18  1  0  0  0  0
 17 40  1  0  0  0  0
 18 41  1  0  0  0  0
 19 20  2  0  0  0  0
 19 42  1  0  0  0  0
M  END
> <s_m_source_file>
AV-unprocessed.smi

> <i_m_source_file_index>
694

> <i_lp_mmshare_version>
43012

> <i_f3d_flags>
0

> <s_epik_input>
W0NIM11OKFtDSDNdKWMxW2NIXVtjSF1jKFtjSF1uMSlbTkhdQyg9TylbTkhdW0NIMl1bQ0BASF0yW0NIMl1bQ0gyXVtDSDJdW0NASF0yW09IXQ==

> <s_epik_cmdline>
J2VwaWtfcHl0aG9uJywgJy1waCcsICc3LjAnLCAnLXRuJywgJzgnLCAnLW1hJywgJzIwMCcsICctbWV0YWxfYmluZGluZycsICctaW1hZScsICc8aW5maWxlLm1hZT4nLCAnLW9tYWUnLCAnPG91dGZpbGUubWFlPic=

> <r_lp_tautomer_probability>
1

> <r_epik_Ionization_Penalty>
0.60335

> <r_epik_Ionization_Penalty_Charging>
0

> <r_epik_Ionization_Penalty_Neutral>
0.60335

> <r_epik_State_Penalty>
0.616805

> <r_epik_Charging_Adjusted_Penalty>
0.616805

> <i_epik_Tot_Q>
0

> <i_epik_Tot_abs_Q>
0

> <r_epik_Metal_State_Penalty>
0.301709

> <b_epik_Metal_Only>
0

> <s_lp_Force_Field>
OPLS_2005

> <r_lp_Energy>
27.6446

> <b_lp_Chiralities_Consistent>
1

> <s_lp_Variant>
AV-unprocessed.smi:694-6

> <Gold.Version>
5.8.1

> <Gold.Id.Protein>
6NUR|6NUR_protein|mol2

> <Gold.PLP.Fitness>
42.6469

> <Gold.PLP.PLP>
-39.1550

> <Gold.PLP.part.hbond>
-4.8084

> <Gold.PLP.part.metal>
0.0000

> <Gold.PLP.part.buried>
-2.3774

> <Gold.PLP.part.nonpolar>
-33.2092

> <Gold.PLP.part.repulsive>
0.4157

> <Gold.PLP.ligand.clash>
0.0000

> <Gold.PLP.ligand.torsion>
1.2611

> <Gold.PLP.Chemscore.Hbond>
2.0000

> <Gold.PLP.Chemscore.CHOScore>
0.0000

> <Gold.PLP.Chemscore.Metal>
0.0000

> <Gold.Chemscore.Hbonds>
donor molecule, donor type, donor heavy atom, donor atom, acceptor molecule, acceptor atom, score
      L1  H    11    30       P1  7948  1.00
      L1  H    18    41       P1 10171  1.00

> <Gold.PLP.Chemscore.Internal.Correction>
0.0142

> <Gold.Rescore>
     Score         DG    S(hbond)    S(metal)    S(lipo)     H(rot)  DE(clash)    DE(int)     intcor
     14.49     -16.92       1.98        0.00      79.14       1.73       0.10       2.33       ----

> <Gold.Chemscore.Fitness>
14.4921

> <Gold.Chemscore.DG>
-16.9250

> <Gold.Chemscore.ZeroCoef>
-5.4800

> <Gold.Chemscore.Hbond>
1.9773

> <Gold.Chemscore.Metal>
0.0000

> <Gold.Chemscore.Lipo>
79.1365

> <Gold.Chemscore.Internal_Hbond>
0.0000

> <Gold.Chemscore.DEClash>
0.1030

> <Gold.Chemscore.DEInternal>
2.3298

> <Gold.Chemscore.Rot>
1.7259

> <Gold.Chemscore.Internal.Correction>
   9.000000E+99

> <Gold.Chemscore.Hbonds>
donor molecule, donor type, donor heavy atom, donor atom, acceptor molecule, acceptor atom, score
      L1  H    11    30       P1  7948  0.97
      L1  H    18    41       P1 10171  0.96

> <Gold.Chemscore.Hbond.Weighted>
-6.6043

> <Gold.Chemscore.Metal.Weighted>
-0.0000

> <Gold.Chemscore.Lipo.Weighted>
-9.2590

> <Gold.Chemscore.Internal_Hbond.Weighted>
0.0000

> <Gold.Chemscore.DEClash.Weighted>
0.1030

> <Gold.Chemscore.DEInternal.Weighted>
2.3298

> <Gold.Chemscore.Rot.Weighted>
4.4184

> <Gold.Chemscore.Internal.Correction.Weighted>
   9.000000E+99

> <Gold.Protein.RotatedTorsions>
[ 6907 6896 6895 6894 ] final  111.07 input  -60.11 | X-H torsion
[ 7974 7965 7964 7962 ] final  -24.38 input  175.53 | X-H torsion
[ 8008 7997 7996 7995 ] final  175.38 input   59.86 | X-H torsion
[ 10167 10162 10161 10158 ] final -142.87 input  -65.29 | X-H torsion
[ 10718 10713 10712 10709 ] final -104.74 input   66.30 | X-H torsion
[ 10763 10752 10751 10750 ] final  -93.44 input  -60.55 | X-H torsion
[ 11005 11000 10999 10996 ] final   -1.64 input  -57.11 | X-H torsion

> <Gold.Protein.ActiveResidues>
 VAL166  LYS551  ARG553  GLY616  TRP617  ASP618  TYR619  PRO620  LYS621  CYS622 
 ASP623  PHE694  ASN695  SER759  ASP760  ASP761  ALA762  ILE779  LEU786  VAL792 
 PHE793  MET794  SER795  GLU796  ALA797  LYS798  CYS799  TRP800  GLU811  SER814 

> <Gold.Protein.RotatedAtoms>
  152.4988  133.8711  159.7298 H   0  0  0  0  0  0  0  0  0  0  0  0  # atno 6907 bound_to 6896
  150.9197  133.6886  159.2841 H   0  0  0  0  0  0  0  0  0  0  0  0  # atno 6908 bound_to 6896
  151.4268  135.1009  159.9683 H   0  0  0  0  0  0  0  0  0  0  0  0  # atno 6909 bound_to 6896
  146.1558  140.4744  142.8592 H   0  0  0  0  0  0  0  0  0  0  0  0  # atno 7974 bound_to 7965
  156.0876  140.1410  156.9633 H   0  0  0  0  0  0  0  0  0  0  0  0  # atno 8008 bound_to 7997
  154.4622  140.0939  156.6972 H   0  0  0  0  0  0  0  0  0  0  0  0  # atno 8009 bound_to 7997
  155.4973  140.3450  155.4367 H   0  0  0  0  0  0  0  0  0  0  0  0  # atno 8010 bound_to 7997
  139.8048  143.7784  152.2660 H   0  0  0  0  0  0  0  0  0  0  0  0  # atno 10167 bound_to 10162
  156.0317  130.5530  150.7440 H   0  0  0  0  0  0  0  0  0  0  0  0  # atno 10718 bound_to 10713
  154.6959  135.5194  153.8458 H   0  0  0  0  0  0  0  0  0  0  0  0  # atno 10763 bound_to 10752
  153.0667  135.6587  154.0348 H   0  0  0  0  0  0  0  0  0  0  0  0  # atno 10764 bound_to 10752
  154.0214  135.2993  155.3360 H   0  0  0  0  0  0  0  0  0  0  0  0  # atno 10765 bound_to 10752
  140.6495  133.9417  155.8372 H   0  0  0  0  0  0  0  0  0  0  0  0  # atno 11005 bound_to 11000
  144.7961  140.6126  143.6509 LP  0  0  0  0  0  0  0  0  0  0  0  0  # atno 17320 bound_to 7965
  145.4712  139.1503  143.3813 LP  0  0  0  0  0  0  0  0  0  0  0  0  # atno 17321 bound_to 7965
  139.7915  144.7408  150.9949 LP  0  0  0  0  0  0  0  0  0  0  0  0  # atno 17342 bound_to 10162
  140.7819  143.4437  151.0513 LP  0  0  0  0  0  0  0  0  0  0  0  0  # atno 17343 bound_to 10162
  157.5001  131.0918  151.0324 LP  0  0  0  0  0  0  0  0  0  0  0  0  # atno 17370 bound_to 10713
  157.0707  130.5863  149.5402 LP  0  0  0  0  0  0  0  0  0  0  0  0  # atno 17371 bound_to 10713
  141.0547  134.0434  157.3738 LP  0  0  0  0  0  0  0  0  0  0  0  0  # atno 17394 bound_to 11000
  139.9051  135.0177  156.7447 LP  0  0  0  0  0  0  0  0  0  0  0  0  # atno 17395 bound_to 11000

$$$$
