AV-unprocessed.smi:2226|AV-procd|sdf|9012|dock4
  -GOLD-   2272012213D 1   1.00000     0.00000
 Structure written by MMmdl.
 40 42  0  0  0  0  0  0  0  0  2 V2000
  146.3675  142.2671  153.9941 C   0  0  0  0  0  0  0  0  0  0  0  0
  146.2741  140.9145  153.3952 N   0  3  1  0  0  0  0  0  0  0  0  0
  147.1222  140.7028  152.1970 C   0  0  1  0  0  0  0  0  0  0  0  0
  148.6255  140.6570  152.5720 C   0  0  0  0  0  0  0  0  0  0  0  0
  148.9597  139.6682  153.7050 C   0  0  0  0  0  0  0  0  0  0  0  0
  147.9201  139.7010  154.8414 C   0  0  0  0  0  0  0  0  0  0  0  0
  146.4523  139.7950  154.3515 C   0  0  2  0  0  0  0  0  0  0  0  0
  145.8957  138.5010  153.7137 C   0  0  0  0  0  0  0  0  0  0  0  0
  146.4504  138.1907  152.3020 C   0  0  1  0  0  0  0  0  0  0  0  0
  145.5490  137.2565  151.6282 N   0  0  0  0  0  0  0  0  0  0  0  0
  145.4585  135.9345  151.8427 C   0  0  0  0  0  0  0  0  0  0  0  0
  146.1685  135.3603  152.6743 O   0  0  0  0  0  0  0  0  0  0  0  0
  144.4893  135.3907  151.0123 N   0  0  0  0  0  0  0  0  0  0  0  0
  144.7550  134.3237  150.3237 C   0  0  0  0  0  0  0  0  0  0  0  0
  143.9148  133.6499  149.4515 N   0  0  0  0  0  0  0  0  0  0  0  0
  144.5985  132.5805  148.9423 C   0  0  0  0  0  0  0  0  0  0  0  0
  145.8187  132.5797  149.4711 C   0  0  0  0  0  0  0  0  0  0  0  0
  145.9465  133.6356  150.3221 O   0  0  0  0  0  0  0  0  0  0  0  0
  146.6045  139.4623  151.4328 C   0  0  0  0  0  0  0  0  0  0  0  0
  147.3603  142.4774  154.3909 H   0  0  0  0  0  0  0  0  0  0  0  0
  145.6497  142.3715  154.8081 H   0  0  0  0  0  0  0  0  0  0  0  0
  146.1337  143.0283  153.2494 H   0  0  0  0  0  0  0  0  0  0  0  0
  146.9798  141.5562  151.5320 H   0  0  0  0  0  0  0  0  0  0  0  0
  149.2259  140.4253  151.6915 H   0  0  0  0  0  0  0  0  0  0  0  0
  148.9407  141.6537  152.8819 H   0  0  0  0  0  0  0  0  0  0  0  0
  149.0581  138.6605  153.3112 H   0  0  0  0  0  0  0  0  0  0  0  0
  149.9461  139.8985  154.1088 H   0  0  0  0  0  0  0  0  0  0  0  0
  148.0473  138.8285  155.4829 H   0  0  0  0  0  0  0  0  0  0  0  0
  148.1335  140.5604  155.4774 H   0  0  0  0  0  0  0  0  0  0  0  0
  145.8316  139.9999  155.2249 H   0  0  0  0  0  0  0  0  0  0  0  0
  146.0611  137.6499  154.3754 H   0  0  0  0  0  0  0  0  0  0  0  0
  144.8122  138.6133  153.6450 H   0  0  0  0  0  0  0  0  0  0  0  0
  147.4270  137.7272  152.4101 H   0  0  0  0  0  0  0  0  0  0  0  0
  144.9334  137.6500  150.9310 H   0  0  0  0  0  0  0  0  0  0  0  0
  142.9610  133.8713  149.2046 H   0  0  0  0  0  0  0  0  0  0  0  0
  144.1251  131.9149  148.2355 H   0  0  0  0  0  0  0  0  0  0  0  0
  146.6711  131.9276  149.3495 H   0  0  0  0  0  0  0  0  0  0  0  0
  145.6286  139.7208  151.0178 H   0  0  0  0  0  0  0  0  0  0  0  0
  147.2425  139.2523  150.5734 H   0  0  0  0  0  0  0  0  0  0  0  0
  145.3206  140.8450  153.0694 H   0  0  0  0  0  0  0  0  0  0  0  0
  1  2  1  0  0  0  0
  1 20  1  0  0  0  0
  1 21  1  0  0  0  0
  1 22  1  0  0  0  0
  2  7  1  0  0  0  0
  2  3  1  0  0  0  0
  2 40  1  0  0  0  0
  3 19  1  0  0  0  0
  3  4  1  0  0  0  0
  3 23  1  0  0  0  0
  4  5  1  0  0  0  0
  4 24  1  0  0  0  0
  4 25  1  0  0  0  0
  5  6  1  0  0  0  0
  5 26  1  0  0  0  0
  5 27  1  0  0  0  0
  6  7  1  0  0  0  0
  6 28  1  0  0  0  0
  6 29  1  0  0  0  0
  7  8  1  0  0  0  0
  7 30  1  0  0  0  0
  8  9  1  0  0  0  0
  8 31  1  0  0  0  0
  8 32  1  0  0  0  0
  9 10  1  0  0  0  0
  9 19  1  0  0  0  0
  9 33  1  0  0  0  0
 10 34  1  0  0  0  0
 10 11  1  0  0  0  0
 11 13  1  0  0  0  0
 11 12  2  0  0  0  0
 13 14  2  0  0  0  0
 14 18  1  0  0  0  0
 14 15  1  0  0  0  0
 15 35  1  0  0  0  0
 15 16  1  0  0  0  0
 16 36  1  0  0  0  0
 16 17  2  0  0  0  0
 17 37  1  0  0  0  0
 17 18  1  0  0  0  0
 19 38  1  0  0  0  0
 19 39  1  0  0  0  0
M  CHG  1   2   1
M  END
> <s_m_source_file>
AV-unprocessed.smi

> <i_m_source_file_index>
2226

> <i_lp_mmshare_version>
43012

> <i_f3d_flags>
0

> <s_epik_input>
W0NIMl0xW0NIMl1bQ0gyXVtDQEhdKE4oW0NIM10pW0NIXTEyKVtDSDJdW0NASF0oW0NIMl0yKVtOSF1DKD1PKVtOSF1jM25bY0hdW2NIXW8z

> <s_epik_cmdline>
J2VwaWtfcHl0aG9uJywgJy1waCcsICc3LjAnLCAnLXRuJywgJzgnLCAnLW1hJywgJzIwMCcsICctbWV0YWxfYmluZGluZycsICctaW1hZScsICc8aW5maWxlLm1hZT4nLCAnLW9tYWUnLCAnPG91dGZpbGUubWFlPic=

> <r_lp_tautomer_probability>
0.107061

> <r_epik_Ionization_Penalty>
1.08307

> <r_epik_Ionization_Penalty_Charging>
1.08272

> <r_epik_Ionization_Penalty_Neutral>
0.000345913

> <r_epik_State_Penalty>
2.5744

> <r_epik_Charging_Adjusted_Penalty>
3.65713

> <i_epik_Tot_Q>
1

> <i_epik_Tot_abs_Q>
1

> <r_epik_Metal_State_Penalty>
3.72133

> <b_epik_Metal_Only>
0

> <s_lp_Force_Field>
OPLS_2005

> <r_lp_Energy>
57.4325

> <b_lp_Chiralities_Consistent>
1

> <s_lp_Variant>
AV-unprocessed.smi:2226-12

> <Gold.Version>
5.8.1

> <Gold.Id.Protein>
6NUR|6NUR_protein|mol2

> <Gold.PLP.Fitness>
39.0223

> <Gold.PLP.PLP>
-26.1930

> <Gold.PLP.part.hbond>
-3.0579

> <Gold.PLP.part.metal>
0.0000

> <Gold.PLP.part.buried>
3.5736

> <Gold.PLP.part.nonpolar>
-27.6359

> <Gold.PLP.part.repulsive>
0.5337

> <Gold.PLP.ligand.clash>
0.0000

> <Gold.PLP.ligand.torsion>
0.6798

> <Gold.PLP.Chemscore.Hbond>
4.0000

> <Gold.PLP.Chemscore.CHOScore>
0.7277

> <Gold.PLP.Chemscore.Metal>
0.0000

> <Gold.Chemscore.Hbonds>
donor molecule, donor type, donor heavy atom, donor atom, acceptor molecule, acceptor atom, score
      L1  H     2    40       P1 10175  2.00
      L1  H    10    34       P1 10171  1.00
      L1  H    15    35       P1 10186  0.94
      L1  C    17    37       P1 10747  0.62

> <Gold.PLP.Chemscore.Internal.Correction>
0.0056

> <Gold.Rescore>
     Score         DG    S(hbond)    S(metal)    S(lipo)     H(rot)  DE(clash)    DE(int)     intcor
     16.30     -20.70       2.68        0.00      75.53       1.00       2.46       1.94       ----

> <Gold.Chemscore.Fitness>
16.2976

> <Gold.Chemscore.DG>
-20.7021

> <Gold.Chemscore.ZeroCoef>
-5.4800

> <Gold.Chemscore.Hbond>
2.6782

> <Gold.Chemscore.Metal>
0.0000

> <Gold.Chemscore.Lipo>
75.5296

> <Gold.Chemscore.Internal_Hbond>
0.0000

> <Gold.Chemscore.DEClash>
2.4598

> <Gold.Chemscore.DEInternal>
1.9447

> <Gold.Chemscore.Rot>
1.0000

> <Gold.Chemscore.Internal.Correction>
   9.000000E+99

> <Gold.Chemscore.Hbonds>
donor molecule, donor type, donor heavy atom, donor atom, acceptor molecule, acceptor atom, score
      L1  H     2    40       P1 10175  0.55
      L1  H    10    34       P1 10171  1.00
      L1  H    15    35       P1 10186  0.89

> <Gold.Chemscore.Hbond.Weighted>
-8.9452

> <Gold.Chemscore.Metal.Weighted>
-0.0000

> <Gold.Chemscore.Lipo.Weighted>
-8.8370

> <Gold.Chemscore.Internal_Hbond.Weighted>
0.0000

> <Gold.Chemscore.DEClash.Weighted>
2.4598

> <Gold.Chemscore.DEInternal.Weighted>
1.9447

> <Gold.Chemscore.Rot.Weighted>
2.5600

> <Gold.Chemscore.Internal.Correction.Weighted>
   9.000000E+99

> <Gold.Protein.RotatedTorsions>
[ 6907 6896 6895 6894 ] final  -75.12 input  -60.11 | X-H torsion
[ 7974 7965 7964 7962 ] final   44.90 input  175.53 | X-H torsion
[ 8008 7997 7996 7995 ] final   92.01 input   59.86 | X-H torsion
[ 10167 10162 10161 10158 ] final  165.50 input  -65.29 | X-H torsion
[ 10718 10713 10712 10709 ] final  -94.04 input   66.30 | X-H torsion
[ 10763 10752 10751 10750 ] final -149.29 input  -60.55 | X-H torsion
[ 11005 11000 10999 10996 ] final   63.43 input  -57.11 | X-H torsion

> <Gold.Protein.ActiveResidues>
 VAL166  LYS551  ARG553  GLY616  TRP617  ASP618  TYR619  PRO620  LYS621  CYS622 
 ASP623  PHE694  ASN695  SER759  ASP760  ASP761  ALA762  ILE779  LEU786  VAL792 
 PHE793  MET794  SER795  GLU796  ALA797  LYS798  CYS799  TRP800  GLU811  SER814 

> <Gold.Protein.RotatedAtoms>
  150.7069  134.4767  159.5450 H   0  0  0  0  0  0  0  0  0  0  0  0  # atno 6907 bound_to 6896
  152.2413  134.8223  160.0469 H   0  0  0  0  0  0  0  0  0  0  0  0  # atno 6908 bound_to 6896
  151.9004  133.3501  159.3865 H   0  0  0  0  0  0  0  0  0  0  0  0  # atno 6909 bound_to 6896
  146.0528  139.5023  142.9708 H   0  0  0  0  0  0  0  0  0  0  0  0  # atno 7974 bound_to 7965
  156.0304  140.3331  155.7133 H   0  0  0  0  0  0  0  0  0  0  0  0  # atno 8008 bound_to 7997
  155.5893  140.0644  157.2780 H   0  0  0  0  0  0  0  0  0  0  0  0  # atno 8009 bound_to 7997
  154.4351  140.1830  156.1046 H   0  0  0  0  0  0  0  0  0  0  0  0  # atno 8010 bound_to 7997
  139.4907  144.4125  151.9282 H   0  0  0  0  0  0  0  0  0  0  0  0  # atno 10167 bound_to 10162
  156.0021  130.5051  150.5867 H   0  0  0  0  0  0  0  0  0  0  0  0  # atno 10718 bound_to 10713
  154.8186  135.3313  154.7105 H   0  0  0  0  0  0  0  0  0  0  0  0  # atno 10763 bound_to 10752
  153.7742  135.6923  153.4905 H   0  0  0  0  0  0  0  0  0  0  0  0  # atno 10764 bound_to 10752
  153.2024  135.4511  155.0230 H   0  0  0  0  0  0  0  0  0  0  0  0  # atno 10765 bound_to 10752
  140.0025  134.6420  155.9907 H   0  0  0  0  0  0  0  0  0  0  0  0  # atno 11005 bound_to 11000
  145.6695  141.0220  143.1665 LP  0  0  0  0  0  0  0  0  0  0  0  0  # atno 17320 bound_to 7965
  144.7131  139.8294  143.7408 LP  0  0  0  0  0  0  0  0  0  0  0  0  # atno 17321 bound_to 7965
  140.3567  144.3023  150.5940 LP  0  0  0  0  0  0  0  0  0  0  0  0  # atno 17342 bound_to 10162
  140.5438  143.2218  151.8040 LP  0  0  0  0  0  0  0  0  0  0  0  0  # atno 17343 bound_to 10162
  157.3738  131.0770  151.1535 LP  0  0  0  0  0  0  0  0  0  0  0  0  # atno 17370 bound_to 10713
  157.2280  130.6512  149.5838 LP  0  0  0  0  0  0  0  0  0  0  0  0  # atno 17371 bound_to 10713
  141.1652  133.6537  156.4457 LP  0  0  0  0  0  0  0  0  0  0  0  0  # atno 17394 bound_to 11000
  140.4701  134.6761  157.5125 LP  0  0  0  0  0  0  0  0  0  0  0  0  # atno 17395 bound_to 11000

$$$$
