AV-unprocessed.smi:1200|AV-procd|sdf|5024|dock2
  -GOLD-   22720 4 43D 1   1.00000     0.00000
 Structure written by MMmdl.
 43 44  0  0  0  0  0  0  0  0  2 V2000
  141.3868  139.3887  154.7834 C   0  0  0  0  0  0  0  0  0  0  0  0
  142.3505  140.4582  154.5714 N   0  0  0  0  0  0  0  0  0  0  0  0
  142.8785  141.2015  155.5538 C   0  0  0  0  0  0  0  0  0  0  0  0
  142.5909  141.0521  156.7420 O   0  0  0  0  0  0  0  0  0  0  0  0
  143.8679  142.2895  155.1240 C   0  0  0  0  0  0  0  0  0  0  0  0
  145.1308  141.7386  154.5686 N   0  3  2  0  0  0  0  0  0  0  0  0
  145.9149  140.9844  155.5793 C   0  0  0  0  0  0  0  0  0  0  0  0
  147.1349  140.2975  154.9387 C   0  0  0  0  0  0  0  0  0  0  0  0
  148.0313  141.2935  154.1823 C   0  0  2  0  0  0  0  0  0  0  0  0
  148.7583  142.1460  155.1228 N   0  0  0  0  0  0  0  0  0  0  0  0
  149.6382  141.7138  156.0378 C   0  0  0  0  0  0  0  0  0  0  0  0
  149.9576  140.5321  156.1645 O   0  0  0  0  0  0  0  0  0  0  0  0
  150.1238  142.7345  156.7650 N   0  0  0  0  0  0  0  0  0  0  0  0
  151.0417  142.6926  157.8494 C   0  0  0  0  0  0  0  0  0  0  0  0
  151.6112  143.8374  158.4589 C   0  0  0  0  0  0  0  0  0  0  0  0
  152.5264  143.6611  159.5145 C   0  0  0  0  0  0  0  0  0  0  0  0
  152.8447  142.3497  159.9174 C   0  0  0  0  0  0  0  0  0  0  0  0
  152.3199  141.2497  159.3377 N   0  0  0  0  0  0  0  0  0  0  0  0
  151.4438  141.4265  158.3260 C   0  0  0  0  0  0  0  0  0  0  0  0
  147.1798  142.1190  153.1971 C   0  0  0  0  0  0  0  0  0  0  0  0
  145.9641  142.7636  153.8851 C   0  0  0  0  0  0  0  0  0  0  0  0
  141.1303  138.9241  153.8312 H   0  0  0  0  0  0  0  0  0  0  0  0
  140.4705  139.7755  155.2311 H   0  0  0  0  0  0  0  0  0  0  0  0
  141.7962  138.6187  155.4385 H   0  0  0  0  0  0  0  0  0  0  0  0
  142.6283  140.6457  153.6186 H   0  0  0  0  0  0  0  0  0  0  0  0
  143.4056  142.9671  154.4041 H   0  0  0  0  0  0  0  0  0  0  0  0
  144.0849  142.8800  156.0151 H   0  0  0  0  0  0  0  0  0  0  0  0
  146.2307  141.6607  156.3753 H   0  0  0  0  0  0  0  0  0  0  0  0
  145.2837  140.2249  156.0422 H   0  0  0  0  0  0  0  0  0  0  0  0
  147.7119  139.7704  155.6997 H   0  0  0  0  0  0  0  0  0  0  0  0
  146.7854  139.5340  154.2425 H   0  0  0  0  0  0  0  0  0  0  0  0
  148.7661  140.7191  153.6148 H   0  0  0  0  0  0  0  0  0  0  0  0
  148.5583  143.1350  155.0917 H   0  0  0  0  0  0  0  0  0  0  0  0
  149.8304  143.6592  156.4857 H   0  0  0  0  0  0  0  0  0  0  0  0
  151.3795  144.8393  158.1328 H   0  0  0  0  0  0  0  0  0  0  0  0
  152.9784  144.5129  160.0007 H   0  0  0  0  0  0  0  0  0  0  0  0
  153.5444  142.1800  160.7225 H   0  0  0  0  0  0  0  0  0  0  0  0
  151.0478  140.5237  157.8840 H   0  0  0  0  0  0  0  0  0  0  0  0
  147.7853  142.8855  152.7119 H   0  0  0  0  0  0  0  0  0  0  0  0
  146.8279  141.4658  152.3974 H   0  0  0  0  0  0  0  0  0  0  0  0
  145.3717  143.2912  153.1371 H   0  0  0  0  0  0  0  0  0  0  0  0
  146.2918  143.5119  154.6083 H   0  0  0  0  0  0  0  0  0  0  0  0
  144.8549  141.0673  153.8652 H   0  0  0  0  0  0  0  0  0  0  0  0
  1  2  1  0  0  0  0
  1 22  1  0  0  0  0
  1 23  1  0  0  0  0
  1 24  1  0  0  0  0
  2  3  1  0  0  0  0
  2 25  1  0  0  0  0
  3  4  2  0  0  0  0
  3  5  1  0  0  0  0
  5  6  1  0  0  0  0
  5 26  1  0  0  0  0
  5 27  1  0  0  0  0
  6 21  1  0  0  0  0
  6  7  1  0  0  0  0
  6 43  1  0  0  0  0
  7  8  1  0  0  0  0
  7 28  1  0  0  0  0
  7 29  1  0  0  0  0
  8  9  1  0  0  0  0
  8 30  1  0  0  0  0
  8 31  1  0  0  0  0
  9 10  1  0  0  0  0
  9 20  1  0  0  0  0
  9 32  1  0  0  0  0
 10 11  1  0  0  0  0
 10 33  1  0  0  0  0
 11 12  2  0  0  0  0
 11 13  1  0  0  0  0
 13 14  1  0  0  0  0
 13 34  1  0  0  0  0
 14 19  1  0  0  0  0
 14 15  2  0  0  0  0
 15 16  1  0  0  0  0
 15 35  1  0  0  0  0
 16 17  2  0  0  0  0
 16 36  1  0  0  0  0
 17 18  1  0  0  0  0
 17 37  1  0  0  0  0
 18 19  2  0  0  0  0
 19 38  1  0  0  0  0
 20 21  1  0  0  0  0
 20 39  1  0  0  0  0
 20 40  1  0  0  0  0
 21 41  1  0  0  0  0
 21 42  1  0  0  0  0
M  CHG  1   6   1
M  END
> <s_m_source_file>
AV-unprocessed.smi

> <i_m_source_file_index>
1200

> <i_lp_mmshare_version>
43012

> <i_f3d_flags>
0

> <s_epik_input>
W0NIM11bTkhdQyg9TylbQ0gyXU4xW0NIMl1bQ0gyXVtDSF0oW0NIMl1bQ0gyXTEpW05IXUMoPU8pW05IXWMyW2NIXVtjSF1bY0hdbltjSF0y

> <s_epik_cmdline>
J2VwaWtfcHl0aG9uJywgJy1waCcsICc3LjAnLCAnLXRuJywgJzgnLCAnLW1hJywgJzIwMCcsICctbWV0YWxfYmluZGluZycsICctaW1hZScsICc8aW5maWxlLm1hZT4nLCAnLW9tYWUnLCAnPG91dGZpbGUubWFlPic=

> <r_epik_Ionization_Penalty>
0.842849

> <r_epik_Ionization_Penalty_Charging>
0.838844

> <r_epik_Ionization_Penalty_Neutral>
0.00400543

> <r_epik_State_Penalty>
0.858736

> <r_epik_Charging_Adjusted_Penalty>
1.69758

> <i_epik_Tot_Q>
1

> <i_epik_Tot_abs_Q>
1

> <r_epik_Metal_State_Penalty>
0.860766

> <b_epik_Metal_Only>
0

> <s_lp_Force_Field>
OPLS_2005

> <r_lp_Energy>
17.1685

> <b_lp_Chiralities_Consistent>
1

> <s_lp_Variant>
AV-unprocessed.smi:1200-3

> <Gold.Version>
5.8.1

> <Gold.Id.Protein>
6NUR|6NUR_protein|mol2

> <Gold.PLP.Fitness>
48.9569

> <Gold.PLP.PLP>
-34.1572

> <Gold.PLP.part.hbond>
-4.0000

> <Gold.PLP.part.metal>
0.0000

> <Gold.PLP.part.buried>
-6.1827

> <Gold.PLP.part.nonpolar>
-25.1564

> <Gold.PLP.part.repulsive>
0.2980

> <Gold.PLP.ligand.clash>
0.0000

> <Gold.PLP.ligand.torsion>
0.1120

> <Gold.PLP.Chemscore.Hbond>
5.0000

> <Gold.PLP.Chemscore.CHOScore>
0.0000

> <Gold.PLP.Chemscore.Metal>
0.0000

> <Gold.Chemscore.Hbonds>
donor molecule, donor type, donor heavy atom, donor atom, acceptor molecule, acceptor atom, score
      L1  H     2    25       P1 10175  0.88
      L1  H     6    43       P1 10175  2.00
      L1  H    10    33       P1  8028  1.00
      L1  H    13    34       P1  8028  1.00

> <Gold.PLP.Chemscore.Internal.Correction>
0.0238

> <Gold.Rescore>
     Score         DG    S(hbond)    S(metal)    S(lipo)     H(rot)  DE(clash)    DE(int)     intcor
     19.69     -21.49       3.20        0.00      82.48       1.69       0.12       1.68       ----

> <Gold.Chemscore.Fitness>
19.6856

> <Gold.Chemscore.DG>
-21.4891

> <Gold.Chemscore.ZeroCoef>
-5.4800

> <Gold.Chemscore.Hbond>
3.1971

> <Gold.Chemscore.Metal>
0.0000

> <Gold.Chemscore.Lipo>
82.4786

> <Gold.Chemscore.Internal_Hbond>
0.0000

> <Gold.Chemscore.DEClash>
0.1214

> <Gold.Chemscore.DEInternal>
1.6821

> <Gold.Chemscore.Rot>
1.6873

> <Gold.Chemscore.Internal.Correction>
   9.000000E+99

> <Gold.Chemscore.Hbonds>
donor molecule, donor type, donor heavy atom, donor atom, acceptor molecule, acceptor atom, score
      L1  H     2    25       P1 10175  0.28
      L1  H     6    43       P1 10175  0.70
      L1  H    10    33       P1  8028  0.95
      L1  H    13    34       P1  8028  0.98

> <Gold.Chemscore.Hbond.Weighted>
-10.6785

> <Gold.Chemscore.Metal.Weighted>
-0.0000

> <Gold.Chemscore.Lipo.Weighted>
-9.6500

> <Gold.Chemscore.Internal_Hbond.Weighted>
0.0000

> <Gold.Chemscore.DEClash.Weighted>
0.1214

> <Gold.Chemscore.DEInternal.Weighted>
1.6821

> <Gold.Chemscore.Rot.Weighted>
4.3194

> <Gold.Chemscore.Internal.Correction.Weighted>
   9.000000E+99

> <Gold.Protein.RotatedTorsions>
[ 6907 6896 6895 6894 ] final -166.45 input  -60.11 | X-H torsion
[ 7974 7965 7964 7962 ] final -112.30 input  175.53 | X-H torsion
[ 8008 7997 7996 7995 ] final -177.62 input   59.86 | X-H torsion
[ 10167 10162 10161 10158 ] final -120.58 input  -65.29 | X-H torsion
[ 10718 10713 10712 10709 ] final  -74.42 input   66.30 | X-H torsion
[ 10763 10752 10751 10750 ] final  139.25 input  -60.55 | X-H torsion
[ 11005 11000 10999 10996 ] final  166.78 input  -57.11 | X-H torsion

> <Gold.Protein.ActiveResidues>
 VAL166  LYS551  ARG553  GLY616  TRP617  ASP618  TYR619  PRO620  LYS621  CYS622 
 ASP623  PHE694  ASN695  SER759  ASP760  ASP761  ALA762  ILE779  LEU786  VAL792 
 PHE793  MET794  SER795  GLU796  ALA797  LYS798  CYS799  TRP800  GLU811  SER814 

> <Gold.Protein.RotatedAtoms>
  151.4437  133.3636  159.2785 H   0  0  0  0  0  0  0  0  0  0  0  0  # atno 6907 bound_to 6896
  150.9139  134.8558  159.7455 H   0  0  0  0  0  0  0  0  0  0  0  0  # atno 6908 bound_to 6896
  152.4947  134.4369  159.9582 H   0  0  0  0  0  0  0  0  0  0  0  0  # atno 6909 bound_to 6896
  145.1456  140.8801  143.3676 H   0  0  0  0  0  0  0  0  0  0  0  0  # atno 7974 bound_to 7965
  156.0091  140.1237  157.0472 H   0  0  0  0  0  0  0  0  0  0  0  0  # atno 8008 bound_to 7997
  154.4269  140.1091  156.5873 H   0  0  0  0  0  0  0  0  0  0  0  0  # atno 8009 bound_to 7997
  155.6105  140.3471  155.4623 H   0  0  0  0  0  0  0  0  0  0  0  0  # atno 8010 bound_to 7997
  140.0343  143.5217  152.2161 H   0  0  0  0  0  0  0  0  0  0  0  0  # atno 10167 bound_to 10162
  156.0243  130.4416  150.2890 H   0  0  0  0  0  0  0  0  0  0  0  0  # atno 10718 bound_to 10713
  153.9031  135.3019  155.3448 H   0  0  0  0  0  0  0  0  0  0  0  0  # atno 10763 bound_to 10752
  154.7660  135.4910  153.9559 H   0  0  0  0  0  0  0  0  0  0  0  0  # atno 10764 bound_to 10752
  153.1234  135.6787  153.9398 H   0  0  0  0  0  0  0  0  0  0  0  0  # atno 10765 bound_to 10752
  140.2699  134.7835  157.3666 H   0  0  0  0  0  0  0  0  0  0  0  0  # atno 11005 bound_to 11000
  145.0485  139.3201  143.5940 LP  0  0  0  0  0  0  0  0  0  0  0  0  # atno 17320 bound_to 7965
  146.3500  139.9885  142.8688 LP  0  0  0  0  0  0  0  0  0  0  0  0  # atno 17321 bound_to 7965
  139.6056  144.7595  151.3071 LP  0  0  0  0  0  0  0  0  0  0  0  0  # atno 17342 bound_to 10162
  140.7288  143.6924  150.7911 LP  0  0  0  0  0  0  0  0  0  0  0  0  # atno 17343 bound_to 10162
  157.0993  131.0191  151.3091 LP  0  0  0  0  0  0  0  0  0  0  0  0  # atno 17370 bound_to 10713
  157.4792  130.7755  149.7398 LP  0  0  0  0  0  0  0  0  0  0  0  0  # atno 17371 bound_to 10713
  140.1383  134.5005  155.8051 LP  0  0  0  0  0  0  0  0  0  0  0  0  # atno 17394 bound_to 11000
  141.2179  133.6815  156.7164 LP  0  0  0  0  0  0  0  0  0  0  0  0  # atno 17395 bound_to 11000

$$$$
