AV-unprocessed.smi:1413|AV-procd|sdf|5751|dock1
  -GOLD-   22720 5383D 1   1.00000     0.00000
 Structure written by MMmdl.
 53 55  0  0  0  0  0  0  0  0  1 V2000
  151.1504  144.8231  158.3665 C   0  0  0  0  0  0  0  0  0  0  0  0
  151.7301  143.4470  158.0233 C   0  0  2  0  0  0  0  0  0  0  0  0
  150.6616  142.4980  157.4478 C   0  0  0  0  0  0  0  0  0  0  0  0
  151.2176  141.1626  157.2498 N   0  0  0  0  0  0  0  0  0  0  0  0
  150.4260  140.2842  156.4791 C   0  0  0  0  0  0  0  0  0  0  0  0
  149.3053  139.6445  157.0591 C   0  0  0  0  0  0  0  0  0  0  0  0
  148.5257  138.7732  156.2741 C   0  0  0  0  0  0  0  0  0  0  0  0
  148.8820  138.5673  154.9216 C   0  0  0  0  0  0  0  0  0  0  0  0
  148.1873  137.6990  154.0376 N   0  0  0  0  0  0  0  0  0  0  0  0
  146.9185  137.2656  154.1258 C   0  0  0  0  0  0  0  0  0  0  0  0
  146.1242  137.5737  155.0140 O   0  0  0  0  0  0  0  0  0  0  0  0
  146.6133  136.4571  153.1005 N   0  0  0  0  0  0  0  0  0  0  0  0
  145.3117  135.8386  152.8472 C   0  0  1  0  0  0  0  0  0  0  0  0
  144.2396  136.9344  152.7600 C   0  0  0  0  0  0  0  0  0  0  0  0
  145.3466  134.9687  151.5731 C   0  0  2  0  0  0  0  0  0  0  0  0
  144.0808  134.1451  151.2917 C   0  0  0  0  0  0  0  0  0  0  0  0
  144.6037  132.8341  150.7197 C   0  0  0  0  0  0  0  0  0  0  0  0
  146.1136  133.0419  150.6269 C   0  0  0  0  0  0  0  0  0  0  0  0
  146.3832  133.9986  151.6375 O   0  0  0  0  0  0  0  0  0  0  0  0
  150.0224  139.2375  154.4368 C   0  0  0  0  0  0  0  0  0  0  0  0
  150.7692  140.0767  155.1841 N   0  0  0  0  0  0  0  0  0  0  0  0
  151.8719  140.6271  158.4415 C   0  0  0  0  0  0  0  0  0  0  0  0
  152.9099  141.6291  158.9805 C   0  0  2  0  0  0  0  0  0  0  0  0
  153.5392  141.1560  160.2948 C   0  0  0  0  0  0  0  0  0  0  0  0
  152.2709  142.8811  159.2144 O   0  0  0  0  0  0  0  0  0  0  0  0
  150.7312  145.3037  157.4823 H   0  0  0  0  0  0  0  0  0  0  0  0
  151.9206  145.4813  158.7693 H   0  0  0  0  0  0  0  0  0  0  0  0
  150.3582  144.7423  159.1114 H   0  0  0  0  0  0  0  0  0  0  0  0
  152.5321  143.5809  157.2950 H   0  0  0  0  0  0  0  0  0  0  0  0
  149.8154  142.4255  158.1324 H   0  0  0  0  0  0  0  0  0  0  0  0
  150.2794  142.9140  156.5165 H   0  0  0  0  0  0  0  0  0  0  0  0
  149.0295  139.8199  158.0883 H   0  0  0  0  0  0  0  0  0  0  0  0
  147.6817  138.2747  156.7251 H   0  0  0  0  0  0  0  0  0  0  0  0
  148.6910  137.4341  153.2037 H   0  0  0  0  0  0  0  0  0  0  0  0
  147.3388  136.2582  152.4275 H   0  0  0  0  0  0  0  0  0  0  0  0
  145.0368  135.1913  153.6816 H   0  0  0  0  0  0  0  0  0  0  0  0
  143.2505  136.5032  152.6034 H   0  0  0  0  0  0  0  0  0  0  0  0
  144.4372  137.6211  151.9361 H   0  0  0  0  0  0  0  0  0  0  0  0
  144.2004  137.5201  153.6790 H   0  0  0  0  0  0  0  0  0  0  0  0
  145.5411  135.6047  150.7070 H   0  0  0  0  0  0  0  0  0  0  0  0
  143.5044  133.9469  152.1949 H   0  0  0  0  0  0  0  0  0  0  0  0
  143.4230  134.6643  150.5940 H   0  0  0  0  0  0  0  0  0  0  0  0
  144.3798  132.0171  151.4066 H   0  0  0  0  0  0  0  0  0  0  0  0
  144.1632  132.5901  149.7526 H   0  0  0  0  0  0  0  0  0  0  0  0
  146.6764  132.1215  150.7831 H   0  0  0  0  0  0  0  0  0  0  0  0
  146.3901  133.4527  149.6545 H   0  0  0  0  0  0  0  0  0  0  0  0
  150.3437  139.1038  153.4141 H   0  0  0  0  0  0  0  0  0  0  0  0
  151.1190  140.4182  159.2029 H   0  0  0  0  0  0  0  0  0  0  0  0
  152.3671  139.6845  158.2042 H   0  0  0  0  0  0  0  0  0  0  0  0
  153.7054  141.7653  158.2455 H   0  0  0  0  0  0  0  0  0  0  0  0
  154.0504  140.2021  160.1632 H   0  0  0  0  0  0  0  0  0  0  0  0
  152.7841  141.0272  161.0707 H   0  0  0  0  0  0  0  0  0  0  0  0
  154.2710  141.8779  160.6583 H   0  0  0  0  0  0  0  0  0  0  0  0
  1  2  1  0  0  0  0
  1 26  1  0  0  0  0
  1 27  1  0  0  0  0
  1 28  1  0  0  0  0
  2 25  1  0  0  0  0
  2  3  1  0  0  0  0
  2 29  1  0  0  0  0
  3  4  1  0  0  0  0
  3 30  1  0  0  0  0
  3 31  1  0  0  0  0
  4  5  1  0  0  0  0
  4 22  1  0  0  0  0
  5 21  1  0  0  0  0
  5  6  2  0  0  0  0
  6  7  1  0  0  0  0
  6 32  1  0  0  0  0
  7  8  2  0  0  0  0
  7 33  1  0  0  0  0
  8  9  1  0  0  0  0
  8 20  1  0  0  0  0
  9 10  1  0  0  0  0
  9 34  1  0  0  0  0
 10 11  2  0  0  0  0
 10 12  1  0  0  0  0
 12 13  1  0  0  0  0
 12 35  1  0  0  0  0
 13 14  1  0  0  0  0
 13 15  1  0  0  0  0
 13 36  1  0  0  0  0
 14 37  1  0  0  0  0
 14 38  1  0  0  0  0
 14 39  1  0  0  0  0
 15 19  1  0  0  0  0
 15 16  1  0  0  0  0
 15 40  1  0  0  0  0
 16 17  1  0  0  0  0
 16 41  1  0  0  0  0
 16 42  1  0  0  0  0
 17 18  1  0  0  0  0
 17 43  1  0  0  0  0
 17 44  1  0  0  0  0
 18 19  1  0  0  0  0
 18 45  1  0  0  0  0
 18 46  1  0  0  0  0
 20 21  2  0  0  0  0
 20 47  1  0  0  0  0
 22 23  1  0  0  0  0
 22 48  1  0  0  0  0
 22 49  1  0  0  0  0
 23 24  1  0  0  0  0
 23 25  1  0  0  0  0
 23 50  1  0  0  0  0
 24 51  1  0  0  0  0
 24 52  1  0  0  0  0
 24 53  1  0  0  0  0
M  END
> <s_m_source_file>
AV-unprocessed.smi

> <i_m_source_file_index>
1413

> <i_lp_mmshare_version>
43012

> <i_f3d_flags>
0

> <s_epik_input>
W0NIM11bQ0BASF0xW0NIMl1OKFtDSDJdW0NASF0oTzEpW0NIM10pYzJbY0hdW2NIXWMoW2NIXW4yKVtOSF1DKD1PKVtOSF1bQ0BIXShbQ0gzXSlbQ0BASF0zW0NIMl1bQ0gyXVtDSDJdTzM=

> <s_epik_cmdline>
J2VwaWtfcHl0aG9uJywgJy1waCcsICc3LjAnLCAnLXRuJywgJzgnLCAnLW1hJywgJzIwMCcsICctbWV0YWxfYmluZGluZycsICctaW1hZScsICc8aW5maWxlLm1hZT4nLCAnLW9tYWUnLCAnPG91dGZpbGUubWFlPic=

> <r_lp_tautomer_probability>
1

> <r_epik_Ionization_Penalty>
0.00271172

> <r_epik_Ionization_Penalty_Charging>
0

> <r_epik_Ionization_Penalty_Neutral>
0.00271172

> <r_epik_State_Penalty>
0.00186503

> <r_epik_Charging_Adjusted_Penalty>
0.00186503

> <i_epik_Tot_Q>
0

> <i_epik_Tot_abs_Q>
0

> <r_epik_Metal_State_Penalty>
-0

> <b_epik_Metal_Only>
0

> <s_lp_Force_Field>
OPLS_2005

> <r_lp_Energy>
35.2684

> <b_lp_Chiralities_Consistent>
1

> <s_lp_Variant>
AV-unprocessed.smi:1413-4

> <Gold.Version>
5.8.1

> <Gold.Id.Protein>
6NUR|6NUR_protein|mol2

> <Gold.PLP.Fitness>
49.8093

> <Gold.PLP.PLP>
-39.4101

> <Gold.PLP.part.hbond>
-3.0000

> <Gold.PLP.part.metal>
0.0000

> <Gold.PLP.part.buried>
-7.9160

> <Gold.PLP.part.nonpolar>
-29.9640

> <Gold.PLP.part.repulsive>
0.2956

> <Gold.PLP.ligand.clash>
0.0000

> <Gold.PLP.ligand.torsion>
0.3816

> <Gold.PLP.Chemscore.Hbond>
2.6000

> <Gold.PLP.Chemscore.CHOScore>
1.0000

> <Gold.PLP.Chemscore.Metal>
0.0000

> <Gold.Chemscore.Hbonds>
donor molecule, donor type, donor heavy atom, donor atom, acceptor molecule, acceptor atom, score
      L1  H     9    34       P1  7948  0.99
      L1  H    12    35       P1  7948  1.00
      P1  H  7989  7998       L1    21  0.52
      L1  C    20    47       P1  7957  0.99

> <Gold.PLP.Chemscore.Internal.Correction>
0.3623

> <Gold.Rescore>
     Score         DG    S(hbond)    S(metal)    S(lipo)     H(rot)  DE(clash)    DE(int)     intcor
     19.39     -21.17       2.07        0.00     104.54       1.35       0.30       1.48       ----

> <Gold.Chemscore.Fitness>
19.3938

> <Gold.Chemscore.DG>
-21.1686

> <Gold.Chemscore.ZeroCoef>
-5.4800

> <Gold.Chemscore.Hbond>
2.0676

> <Gold.Chemscore.Metal>
0.0000

> <Gold.Chemscore.Lipo>
104.5400

> <Gold.Chemscore.Internal_Hbond>
0.0000

> <Gold.Chemscore.DEClash>
0.2980

> <Gold.Chemscore.DEInternal>
1.4767

> <Gold.Chemscore.Rot>
1.3471

> <Gold.Chemscore.Internal.Correction>
   9.000000E+99

> <Gold.Chemscore.Hbonds>
donor molecule, donor type, donor heavy atom, donor atom, acceptor molecule, acceptor atom, score
      L1  H     9    34       P1  7948  0.94
      L1  H    12    35       P1  7948  0.98
      P1  H  7989  7998       L1    21  0.03

> <Gold.Chemscore.Hbond.Weighted>
-6.9059

> <Gold.Chemscore.Metal.Weighted>
-0.0000

> <Gold.Chemscore.Lipo.Weighted>
-12.2312

> <Gold.Chemscore.Internal_Hbond.Weighted>
0.0000

> <Gold.Chemscore.DEClash.Weighted>
0.2980

> <Gold.Chemscore.DEInternal.Weighted>
1.4767

> <Gold.Chemscore.Rot.Weighted>
3.4485

> <Gold.Chemscore.Internal.Correction.Weighted>
   9.000000E+99

> <Gold.Protein.RotatedTorsions>
[ 6907 6896 6895 6894 ] final  -37.52 input  -60.11 | X-H torsion
[ 7974 7965 7964 7962 ] final  117.35 input  175.53 | X-H torsion
[ 8008 7997 7996 7995 ] final   81.58 input   59.86 | X-H torsion
[ 10167 10162 10161 10158 ] final  -73.76 input  -65.29 | X-H torsion
[ 10718 10713 10712 10709 ] final -142.45 input   66.30 | X-H torsion
[ 10763 10752 10751 10750 ] final  -85.10 input  -60.55 | X-H torsion
[ 11005 11000 10999 10996 ] final   81.76 input  -57.11 | X-H torsion

> <Gold.Protein.ActiveResidues>
 VAL166  LYS551  ARG553  GLY616  TRP617  ASP618  TYR619  PRO620  LYS621  CYS622 
 ASP623  PHE694  ASN695  SER759  ASP760  ASP761  ALA762  ILE779  LEU786  VAL792 
 PHE793  MET794  SER795  GLU796  ALA797  LYS798  CYS799  TRP800  GLU811  SER814 

> <Gold.Protein.RotatedAtoms>
  151.0137  134.9416  159.8020 H   0  0  0  0  0  0  0  0  0  0  0  0  # atno 6907 bound_to 6896
  152.5309  134.2995  159.9083 H   0  0  0  0  0  0  0  0  0  0  0  0  # atno 6908 bound_to 6896
  151.3001  133.4084  159.2673 H   0  0  0  0  0  0  0  0  0  0  0  0  # atno 6909 bound_to 6896
  145.1684  139.3115  143.4480 H   0  0  0  0  0  0  0  0  0  0  0  0  # atno 7974 bound_to 7965
  155.8991  140.3434  155.6013 H   0  0  0  0  0  0  0  0  0  0  0  0  # atno 8008 bound_to 7997
  155.7521  140.0821  157.2215 H   0  0  0  0  0  0  0  0  0  0  0  0  # atno 8009 bound_to 7997
  154.4041  140.1551  156.2723 H   0  0  0  0  0  0  0  0  0  0  0  0  # atno 8010 bound_to 7997
  140.5083  143.2349  151.7636 H   0  0  0  0  0  0  0  0  0  0  0  0  # atno 10167 bound_to 10162
  156.3460  130.7663  151.1807 H   0  0  0  0  0  0  0  0  0  0  0  0  # atno 10718 bound_to 10713
  154.6072  135.5497  153.7436 H   0  0  0  0  0  0  0  0  0  0  0  0  # atno 10763 bound_to 10752
  153.0179  135.6381  154.1630 H   0  0  0  0  0  0  0  0  0  0  0  0  # atno 10764 bound_to 10752
  154.1568  135.2899  155.3100 H   0  0  0  0  0  0  0  0  0  0  0  0  # atno 10765 bound_to 10752
  139.9087  134.8021  156.2084 H   0  0  0  0  0  0  0  0  0  0  0  0  # atno 11005 bound_to 11000
  146.3472  140.1820  142.8589 LP  0  0  0  0  0  0  0  0  0  0  0  0  # atno 17320 bound_to 7965
  145.0258  140.8831  143.5139 LP  0  0  0  0  0  0  0  0  0  0  0  0  # atno 17321 bound_to 7965
  139.4889  144.4426  151.9747 LP  0  0  0  0  0  0  0  0  0  0  0  0  # atno 17342 bound_to 10162
  140.3517  144.3080  150.5948 LP  0  0  0  0  0  0  0  0  0  0  0  0  # atno 17343 bound_to 10162
  157.7454  131.0441  150.4776 LP  0  0  0  0  0  0  0  0  0  0  0  0  # atno 17370 bound_to 10713
  156.4964  130.4107  149.6377 LP  0  0  0  0  0  0  0  0  0  0  0  0  # atno 17371 bound_to 10713
  141.0481  133.6903  156.1720 LP  0  0  0  0  0  0  0  0  0  0  0  0  # atno 17394 bound_to 11000
  140.6853  134.4724  157.5589 LP  0  0  0  0  0  0  0  0  0  0  0  0  # atno 17395 bound_to 11000

$$$$
