AV-unprocessed.smi:16|AV-procd|sdf|93|dock5
  -GOLD-   2262015233D 1   1.00000     0.00000
 Structure written by MMmdl.
 60 64  0  0  0  0  0  0  0  0  2 V2000
  138.5335  139.9466  153.2385 C   0  0  0  0  0  0  0  0  0  0  0  0
  139.9901  139.8341  152.7568 C   0  0  0  0  0  0  0  0  0  0  0  0
  141.0030  140.0169  153.8274 N   0  3  1  0  0  0  0  0  0  0  0  0
  141.1439  141.4155  154.3040 C   0  0  0  0  0  0  0  0  0  0  0  0
  142.3904  141.5533  155.1915 C   0  0  0  0  0  0  0  0  0  0  0  0
  142.3506  140.5496  156.3658 C   0  0  2  0  0  0  0  0  0  0  0  0
  143.5119  140.6273  157.1949 O   0  0  0  0  0  0  0  0  0  0  0  0
  144.7088  140.1374  156.5934 C   0  0  0  0  0  0  0  0  0  0  0  0
  144.5080  138.6891  156.1259 C   0  0  0  0  0  0  0  0  0  0  0  0
  143.3529  138.5998  155.2396 N   0  0  0  0  0  0  0  0  0  0  0  0
  143.2438  137.3958  154.6354 C   0  0  0  0  0  0  0  0  0  0  0  0
  142.2032  136.5737  154.9302 N   0  0  0  0  0  0  0  0  0  0  0  0
  142.0842  135.4009  154.2998 C   0  0  0  0  0  0  0  0  0  0  0  0
  142.8729  134.8744  153.3596 N   0  0  0  0  0  0  0  0  0  0  0  0
  143.9180  135.7008  153.0651 C   0  0  0  0  0  0  0  0  0  0  0  0
  144.1725  136.9713  153.6505 C   0  0  0  0  0  0  0  0  0  0  0  0
  145.3072  137.5417  153.0887 N   0  0  0  0  0  0  0  0  0  0  0  0
  145.7049  136.6538  152.2181 C   0  0  0  0  0  0  0  0  0  0  0  0
  144.9435  135.5079  152.1556 N   0  0  0  0  0  0  0  0  0  0  0  0
  145.1306  134.4075  151.2565 C   0  0  0  0  0  0  0  0  0  0  0  0
  144.9991  134.5824  149.7418 C   0  0  0  0  0  0  0  0  0  0  0  0
  144.4614  133.1382  149.6296 C   0  0  0  0  0  0  0  0  0  0  0  0
  143.3034  132.9683  148.6309 C   0  0  0  0  0  0  0  0  0  0  0  0
  143.6433  133.4348  147.3416 O   0  0  0  0  0  0  0  0  0  0  0  0
  145.5521  132.0884  149.3285 C   0  0  0  0  0  0  0  0  0  0  0  0
  146.1700  131.6066  150.5039 O   0  0  0  0  0  0  0  0  0  0  0  0
  144.0673  133.3170  151.1140 C   0  0  0  0  0  0  0  0  0  0  0  0
  142.1265  139.1008  155.8696 C   0  0  2  0  0  0  0  0  0  0  0  0
  140.8769  139.0568  154.9535 C   0  0  0  0  0  0  0  0  0  0  0  0
  141.5065  140.8233  157.0001 H   0  0  0  0  0  0  0  0  0  0  0  0
  141.9303  138.4695  156.7379 H   0  0  0  0  0  0  0  0  0  0  0  0
  137.8470  139.8111  152.4025 H   0  0  0  0  0  0  0  0  0  0  0  0
  138.3228  140.9234  153.6731 H   0  0  0  0  0  0  0  0  0  0  0  0
  138.2907  139.1854  153.9796 H   0  0  0  0  0  0  0  0  0  0  0  0
  140.1463  138.8580  152.2956 H   0  0  0  0  0  0  0  0  0  0  0  0
  140.1734  140.5690  151.9722 H   0  0  0  0  0  0  0  0  0  0  0  0
  141.2283  142.0896  153.4509 H   0  0  0  0  0  0  0  0  0  0  0  0
  140.2556  141.7140  154.8618 H   0  0  0  0  0  0  0  0  0  0  0  0
  143.2699  141.3922  154.5691 H   0  0  0  0  0  0  0  0  0  0  0  0
  142.4657  142.5714  155.5741 H   0  0  0  0  0  0  0  0  0  0  0  0
  145.0174  140.7748  155.7654 H   0  0  0  0  0  0  0  0  0  0  0  0
  145.5121  140.1817  157.3289 H   0  0  0  0  0  0  0  0  0  0  0  0
  145.4034  138.3378  155.6110 H   0  0  0  0  0  0  0  0  0  0  0  0
  144.3596  138.0427  156.9923 H   0  0  0  0  0  0  0  0  0  0  0  0
  141.2343  134.7995  154.5871 H   0  0  0  0  0  0  0  0  0  0  0  0
  146.5732  136.8102  151.5943 H   0  0  0  0  0  0  0  0  0  0  0  0
  146.0974  133.9711  151.5132 H   0  0  0  0  0  0  0  0  0  0  0  0
  144.2600  135.3405  149.4752 H   0  0  0  0  0  0  0  0  0  0  0  0
  145.9429  134.7638  149.2262 H   0  0  0  0  0  0  0  0  0  0  0  0
  143.0286  131.9178  148.5328 H   0  0  0  0  0  0  0  0  0  0  0  0
  142.4069  133.4879  148.9705 H   0  0  0  0  0  0  0  0  0  0  0  0
  142.8677  133.4191  146.8022 H   0  0  0  0  0  0  0  0  0  0  0  0
  145.1412  131.2417  148.7777 H   0  0  0  0  0  0  0  0  0  0  0  0
  146.3360  132.5055  148.6963 H   0  0  0  0  0  0  0  0  0  0  0  0
  147.0850  131.4551  150.3229 H   0  0  0  0  0  0  0  0  0  0  0  0
  144.2300  132.4439  151.7464 H   0  0  0  0  0  0  0  0  0  0  0  0
  143.0536  133.7029  151.2379 H   0  0  0  0  0  0  0  0  0  0  0  0
  139.9956  139.3112  155.5433 H   0  0  0  0  0  0  0  0  0  0  0  0
  140.6999  138.0501  154.5738 H   0  0  0  0  0  0  0  0  0  0  0  0
  141.8841  139.7944  153.3853 H   0  0  0  0  0  0  0  0  0  0  0  0
  1  2  1  0  0  0  0
  1 32  1  0  0  0  0
  1 33  1  0  0  0  0
  1 34  1  0  0  0  0
  2  3  1  0  0  0  0
  2 35  1  0  0  0  0
  2 36  1  0  0  0  0
  3 29  1  0  0  0  0
  3  4  1  0  0  0  0
  3 60  1  0  0  0  0
  4  5  1  0  0  0  0
  4 37  1  0  0  0  0
  4 38  1  0  0  0  0
  5  6  1  0  0  0  0
  5 39  1  0  0  0  0
  5 40  1  0  0  0  0
  6 30  1  0  0  0  0
  6 28  1  0  0  0  0
  6  7  1  0  0  0  0
  7  8  1  0  0  0  0
  8  9  1  0  0  0  0
  8 41  1  0  0  0  0
  8 42  1  0  0  0  0
  9 10  1  0  0  0  0
  9 43  1  0  0  0  0
  9 44  1  0  0  0  0
 10 11  1  0  0  0  0
 10 28  1  0  0  0  0
 11 16  1  0  0  0  0
 11 12  2  0  0  0  0
 12 13  1  0  0  0  0
 13 14  2  0  0  0  0
 13 45  1  0  0  0  0
 14 15  1  0  0  0  0
 15 19  1  0  0  0  0
 15 16  2  0  0  0  0
 16 17  1  0  0  0  0
 17 18  2  0  0  0  0
 18 19  1  0  0  0  0
 18 46  1  0  0  0  0
 19 20  1  0  0  0  0
 20 27  1  0  0  0  0
 20 21  1  0  0  0  0
 20 47  1  0  0  0  0
 21 22  1  0  0  0  0
 21 48  1  0  0  0  0
 21 49  1  0  0  0  0
 22 23  1  0  0  0  0
 22 25  1  0  0  0  0
 22 27  1  0  0  0  0
 23 24  1  0  0  0  0
 23 50  1  0  0  0  0
 23 51  1  0  0  0  0
 24 52  1  0  0  0  0
 25 26  1  0  0  0  0
 25 53  1  0  0  0  0
 25 54  1  0  0  0  0
 26 55  1  0  0  0  0
 27 56  1  0  0  0  0
 27 57  1  0  0  0  0
 28 31  1  0  0  0  0
 28 29  1  0  0  0  0
 29 58  1  0  0  0  0
 29 59  1  0  0  0  0
M  CHG  1   3   1
M  END
> <s_m_source_file>
AV-unprocessed.smi

> <i_m_source_file_index>
16

> <i_lp_mmshare_version>
43012

> <i_f3d_flags>
0

> <s_epik_input>
W0NIM11bQ0gyXU4oW0NIMl1bQ0gyXTEpW0NIMl1bQ0BASF0oW0NAQEhdMTIpTihbQ0gyXVtDSDJdTzIpYyhuW2NIXW4zKWMoYzM0KW5bY0hdbjRbQ0hdKFtDSDJdNSlbQ0gyXUM1KFtDSDJdW09IXSlbQ0gyXVtPSF0=

> <s_epik_cmdline>
J2VwaWtfcHl0aG9uJywgJy1waCcsICc3LjAnLCAnLXRuJywgJzgnLCAnLW1hJywgJzIwMCcsICctbWV0YWxfYmluZGluZycsICctaW1hZScsICc8aW5maWxlLm1hZT4nLCAnLW9tYWUnLCAnPG91dGZpbGUubWFlPic=

> <r_lp_tautomer_probability>
1

> <r_epik_Ionization_Penalty>
0.0135603

> <r_epik_Ionization_Penalty_Charging>
0.0131385

> <r_epik_Ionization_Penalty_Neutral>
0.000421734

> <r_epik_State_Penalty>
0.0102091

> <r_epik_Charging_Adjusted_Penalty>
0.0233476

> <i_epik_Tot_Q>
1

> <i_epik_Tot_abs_Q>
1

> <r_epik_Metal_State_Penalty>
0.0103746

> <b_epik_Metal_Only>
0

> <s_lp_Force_Field>
OPLS_2005

> <r_lp_Energy>
64.3007

> <b_lp_Chiralities_Consistent>
1

> <s_lp_Variant>
AV-unprocessed.smi:16-7

> <Gold.Version>
5.8.1

> <Gold.Id.Protein>
6NUR|6NUR_protein|mol2

> <Gold.PLP.Fitness>
44.9032

> <Gold.PLP.PLP>
-28.7743

> <Gold.PLP.part.hbond>
-5.4516

> <Gold.PLP.part.metal>
0.0000

> <Gold.PLP.part.buried>
10.6841

> <Gold.PLP.part.nonpolar>
-32.6452

> <Gold.PLP.part.repulsive>
0.4573

> <Gold.PLP.ligand.clash>
0.0000

> <Gold.PLP.ligand.torsion>
1.4463

> <Gold.PLP.Chemscore.Hbond>
4.1128

> <Gold.PLP.Chemscore.CHOScore>
2.0000

> <Gold.PLP.Chemscore.Metal>
0.0000

> <Gold.Chemscore.Hbonds>
donor molecule, donor type, donor heavy atom, donor atom, acceptor molecule, acceptor atom, score
      L1  H     3    60       P1 10175  1.87
      L1  H    24    52       P1 10195  1.00
      L1  H    26    55       P1 10747  1.00
      P1  H  7918  7932       L1    24  0.90
      L1  C    13    45       P1 11000  1.00
      L1  C    18    46       P1  7948  1.00

> <Gold.PLP.Chemscore.Internal.Correction>
0.6831

> <Gold.Rescore>
     Score         DG    S(hbond)    S(metal)    S(lipo)     H(rot)  DE(clash)    DE(int)     intcor
      7.64     -16.20       2.96        0.00      80.00       3.33       4.59       3.97       ----

> <Gold.Chemscore.Fitness>
7.6351

> <Gold.Chemscore.DG>
-16.1992

> <Gold.Chemscore.ZeroCoef>
-5.4800

> <Gold.Chemscore.Hbond>
2.9556

> <Gold.Chemscore.Metal>
0.0000

> <Gold.Chemscore.Lipo>
79.9979

> <Gold.Chemscore.Internal_Hbond>
0.0000

> <Gold.Chemscore.DEClash>
4.5924

> <Gold.Chemscore.DEInternal>
3.9716

> <Gold.Chemscore.Rot>
3.3251

> <Gold.Chemscore.Internal.Correction>
   9.000000E+99

> <Gold.Chemscore.Hbonds>
donor molecule, donor type, donor heavy atom, donor atom, acceptor molecule, acceptor atom, score
      L1  H     3    60       P1 10175  0.60
      L1  H    24    52       P1 10195  1.00
      L1  H    26    55       P1 10747  0.98
      P1  H  7918  7932       L1    24  0.43

> <Gold.Chemscore.Hbond.Weighted>
-9.8716

> <Gold.Chemscore.Metal.Weighted>
-0.0000

> <Gold.Chemscore.Lipo.Weighted>
-9.3598

> <Gold.Chemscore.Internal_Hbond.Weighted>
0.0000

> <Gold.Chemscore.DEClash.Weighted>
4.5924

> <Gold.Chemscore.DEInternal.Weighted>
3.9716

> <Gold.Chemscore.Rot.Weighted>
8.5122

> <Gold.Chemscore.Internal.Correction.Weighted>
   9.000000E+99

> <Gold.Protein.RotatedTorsions>
[ 6907 6896 6895 6894 ] final  -57.64 input  -60.11 | X-H torsion
[ 7974 7965 7964 7962 ] final  -17.97 input  175.53 | X-H torsion
[ 8008 7997 7996 7995 ] final  151.37 input   59.86 | X-H torsion
[ 10167 10162 10161 10158 ] final   29.03 input  -65.29 | X-H torsion
[ 10718 10713 10712 10709 ] final -177.62 input   66.30 | X-H torsion
[ 10763 10752 10751 10750 ] final   54.56 input  -60.55 | X-H torsion
[ 11005 11000 10999 10996 ] final -134.58 input  -57.11 | X-H torsion

> <Gold.Protein.ActiveResidues>
 VAL166  LYS551  ARG553  GLY616  TRP617  ASP618  TYR619  PRO620  LYS621  CYS622 
 ASP623  PHE694  ASN695  SER759  ASP760  ASP761  ALA762  ILE779  LEU786  VAL792 
 PHE793  MET794  SER795  GLU796  ALA797  LYS798  CYS799  TRP800  GLU811  SER814 

> <Gold.Protein.RotatedAtoms>
  150.8070  134.7201  159.6652 H   0  0  0  0  0  0  0  0  0  0  0  0  # atno 6907 bound_to 6896
  152.4190  134.5987  160.0004 H   0  0  0  0  0  0  0  0  0  0  0  0  # atno 6908 bound_to 6896
  151.6208  133.3302  159.3123 H   0  0  0  0  0  0  0  0  0  0  0  0  # atno 6909 bound_to 6896
  146.1915  140.3854  142.8456 H   0  0  0  0  0  0  0  0  0  0  0  0  # atno 7974 bound_to 7965
  156.2676  140.2049  156.6165 H   0  0  0  0  0  0  0  0  0  0  0  0  # atno 8008 bound_to 7997
  154.6790  140.0542  157.0270 H   0  0  0  0  0  0  0  0  0  0  0  0  # atno 8009 bound_to 7997
  155.1027  140.3207  155.4545 H   0  0  0  0  0  0  0  0  0  0  0  0  # atno 8010 bound_to 7997
  140.4801  144.0629  150.6263 H   0  0  0  0  0  0  0  0  0  0  0  0  # atno 10167 bound_to 10162
  156.8321  130.9657  151.3106 H   0  0  0  0  0  0  0  0  0  0  0  0  # atno 10718 bound_to 10713
  152.9806  135.5741  154.4924 H   0  0  0  0  0  0  0  0  0  0  0  0  # atno 10763 bound_to 10752
  154.4456  135.2777  155.1819 H   0  0  0  0  0  0  0  0  0  0  0  0  # atno 10764 bound_to 10752
  154.3469  135.6217  153.5677 H   0  0  0  0  0  0  0  0  0  0  0  0  # atno 10765 bound_to 10752
  140.8977  134.1730  157.4483 H   0  0  0  0  0  0  0  0  0  0  0  0  # atno 11005 bound_to 11000
  144.8496  140.6982  143.6176 LP  0  0  0  0  0  0  0  0  0  0  0  0  # atno 17320 bound_to 7965
  145.3777  139.1644  143.4297 LP  0  0  0  0  0  0  0  0  0  0  0  0  # atno 17321 bound_to 7965
  140.3868  143.2773  152.0106 LP  0  0  0  0  0  0  0  0  0  0  0  0  # atno 17342 bound_to 10162
  139.4832  144.6110  151.7434 LP  0  0  0  0  0  0  0  0  0  0  0  0  # atno 17343 bound_to 10162
  157.6401  130.8798  149.9432 LP  0  0  0  0  0  0  0  0  0  0  0  0  # atno 17370 bound_to 10713
  156.0928  130.3662  150.0362 LP  0  0  0  0  0  0  0  0  0  0  0  0  # atno 17371 bound_to 10713
  139.8738  134.9885  156.5416 LP  0  0  0  0  0  0  0  0  0  0  0  0  # atno 17394 bound_to 11000
  140.8268  133.8310  155.8947 LP  0  0  0  0  0  0  0  0  0  0  0  0  # atno 17395 bound_to 11000

$$$$
