AV-unprocessed.smi:207|AV-procd|sdf|1602|dock10
  -GOLD-   2262019513D 1   1.00000     0.00000
 Structure written by MMmdl.
 55 58  0  0  0  0  0  0  0  0  1 V2000
  146.7172  133.4048  150.9836 C   0  0  0  0  0  0  0  0  0  0  0  0
  145.8177  134.2291  151.9274 C   0  0  0  0  0  0  0  0  0  0  0  0
  145.8865  133.5519  153.3226 C   0  0  0  0  0  0  0  0  0  0  0  0
  146.4882  135.6253  152.0319 C   0  0  0  0  0  0  0  0  0  0  0  0
  145.6937  136.5496  152.8424 N   0  0  0  0  0  0  0  0  0  0  0  0
  146.2779  137.7064  153.2452 C   0  0  0  0  0  0  0  0  0  0  0  0
  146.4216  138.7379  152.3701 N   0  0  0  0  0  0  0  0  0  0  0  0
  146.9820  139.8849  152.7639 C   0  0  0  0  0  0  0  0  0  0  0  0
  147.4647  140.2078  153.9649 N   0  0  0  0  0  0  0  0  0  0  0  0
  147.3368  139.1746  154.8451 C   0  0  0  0  0  0  0  0  0  0  0  0
  146.7578  137.9028  154.5712 C   0  0  0  0  0  0  0  0  0  0  0  0
  146.8050  137.1076  155.7099 N   0  0  0  0  0  0  0  0  0  0  0  0
  147.3685  137.8686  156.6073 C   0  0  0  0  0  0  0  0  0  0  0  0
  147.7315  139.1236  156.1712 N   0  0  0  0  0  0  0  0  0  0  0  0
  148.3757  140.1636  156.9607 C   0  0  0  0  0  0  0  0  0  0  0  0
  149.7879  140.5524  156.4730 C   0  0  0  0  0  0  0  0  0  0  0  0
  150.4903  141.4665  157.4929 C   0  0  0  0  0  0  0  0  0  0  0  0
  150.1179  142.8187  157.3174 O   0  0  0  0  0  0  0  0  0  0  0  0
  150.6599  139.4011  155.9500 C   0  0  0  0  0  0  0  0  0  0  0  0
  150.9593  140.1088  154.7290 O   0  0  0  0  0  0  0  0  0  0  0  0
  149.8825  141.0256  155.0155 C   0  0  0  0  0  0  0  0  0  0  0  0
  144.3248  136.6962  152.3615 C   0  0  0  0  0  0  0  0  0  0  0  0
  143.6598  135.3186  152.2300 C   0  0  0  0  0  0  0  0  0  0  0  0
  144.4349  134.3959  151.3928 N   0  0  0  0  0  0  0  0  0  0  0  0
  143.6826  133.1567  151.1404 C   0  0  0  0  0  0  0  0  0  0  0  0
  143.9651  132.4885  149.7834 C   0  0  0  0  0  0  0  0  0  0  0  0
  142.7427  132.1682  149.1558 O   0  0  0  0  0  0  0  0  0  0  0  0
  147.7616  133.4435  151.2964 H   0  0  0  0  0  0  0  0  0  0  0  0
  146.6732  133.7793  149.9603 H   0  0  0  0  0  0  0  0  0  0  0  0
  146.4393  132.3510  150.9761 H   0  0  0  0  0  0  0  0  0  0  0  0
  146.9164  133.5028  153.6778 H   0  0  0  0  0  0  0  0  0  0  0  0
  145.5169  132.5274  153.3076 H   0  0  0  0  0  0  0  0  0  0  0  0
  145.3249  134.0919  154.0840 H   0  0  0  0  0  0  0  0  0  0  0  0
  147.4859  135.5277  152.4629 H   0  0  0  0  0  0  0  0  0  0  0  0
  146.6148  136.0522  151.0354 H   0  0  0  0  0  0  0  0  0  0  0  0
  147.0541  140.6535  152.0084 H   0  0  0  0  0  0  0  0  0  0  0  0
  147.5428  137.5288  157.6178 H   0  0  0  0  0  0  0  0  0  0  0  0
  147.7183  141.0339  156.9625 H   0  0  0  0  0  0  0  0  0  0  0  0
  148.4126  139.8280  157.9980 H   0  0  0  0  0  0  0  0  0  0  0  0
  150.2800  141.1654  158.5195 H   0  0  0  0  0  0  0  0  0  0  0  0
  151.5732  141.4043  157.3791 H   0  0  0  0  0  0  0  0  0  0  0  0
  149.5030  142.8714  156.6021 H   0  0  0  0  0  0  0  0  0  0  0  0
  151.5469  139.2040  156.5533 H   0  0  0  0  0  0  0  0  0  0  0  0
  150.1133  138.4788  155.7486 H   0  0  0  0  0  0  0  0  0  0  0  0
  148.9948  140.8063  154.4197 H   0  0  0  0  0  0  0  0  0  0  0  0
  150.1784  142.0694  154.9024 H   0  0  0  0  0  0  0  0  0  0  0  0
  143.7315  137.3209  153.0282 H   0  0  0  0  0  0  0  0  0  0  0  0
  144.3425  137.1963  151.3920 H   0  0  0  0  0  0  0  0  0  0  0  0
  143.4854  134.8875  153.2158 H   0  0  0  0  0  0  0  0  0  0  0  0
  142.6722  135.4673  151.7918 H   0  0  0  0  0  0  0  0  0  0  0  0
  143.8225  132.4410  151.9487 H   0  0  0  0  0  0  0  0  0  0  0  0
  142.6145  133.3788  151.1490 H   0  0  0  0  0  0  0  0  0  0  0  0
  144.5239  133.1662  149.1372 H   0  0  0  0  0  0  0  0  0  0  0  0
  144.5492  131.5760  149.8729 H   0  0  0  0  0  0  0  0  0  0  0  0
  142.1117  132.8394  149.3670 H   0  0  0  0  0  0  0  0  0  0  0  0
  1  2  1  0  0  0  0
  1 28  1  0  0  0  0
  1 29  1  0  0  0  0
  1 30  1  0  0  0  0
  2 24  1  0  0  0  0
  2  3  1  0  0  0  0
  2  4  1  0  0  0  0
  3 31  1  0  0  0  0
  3 32  1  0  0  0  0
  3 33  1  0  0  0  0
  4  5  1  0  0  0  0
  4 34  1  0  0  0  0
  4 35  1  0  0  0  0
  5  6  1  0  0  0  0
  5 22  1  0  0  0  0
  6 11  1  0  0  0  0
  6  7  2  0  0  0  0
  7  8  1  0  0  0  0
  8  9  2  0  0  0  0
  8 36  1  0  0  0  0
  9 10  1  0  0  0  0
 10 14  1  0  0  0  0
 10 11  2  0  0  0  0
 11 12  1  0  0  0  0
 12 13  2  0  0  0  0
 13 14  1  0  0  0  0
 13 37  1  0  0  0  0
 14 15  1  0  0  0  0
 15 16  1  0  0  0  0
 15 38  1  0  0  0  0
 15 39  1  0  0  0  0
 16 21  1  0  0  0  0
 16 17  1  0  0  0  0
 16 19  1  0  0  0  0
 17 18  1  0  0  0  0
 17 40  1  0  0  0  0
 17 41  1  0  0  0  0
 18 42  1  0  0  0  0
 19 20  1  0  0  0  0
 19 43  1  0  0  0  0
 19 44  1  0  0  0  0
 20 21  1  0  0  0  0
 21 45  1  0  0  0  0
 21 46  1  0  0  0  0
 22 23  1  0  0  0  0
 22 47  1  0  0  0  0
 22 48  1  0  0  0  0
 23 24  1  0  0  0  0
 23 49  1  0  0  0  0
 23 50  1  0  0  0  0
 24 25  1  0  0  0  0
 25 26  1  0  0  0  0
 25 51  1  0  0  0  0
 25 52  1  0  0  0  0
 26 27  1  0  0  0  0
 26 53  1  0  0  0  0
 26 54  1  0  0  0  0
 27 55  1  0  0  0  0
M  END
> <s_m_source_file>
AV-unprocessed.smi

> <i_m_source_file_index>
207

> <i_lp_mmshare_version>
43012

> <i_f3d_flags>
0

> <s_epik_input>
W09IXVtDSDJdW0NIMl1OMVtDSDJdW0NIMl1OKFtDSDJdQzEoW0NIM10pW0NIM10pYyhuW2NIXW4yKWMoYzIzKW5bY0hdbjNbQ0gyXUM0KFtDSDJdW09IXSlbQ0gyXU9bQ0gyXTQ=

> <s_epik_cmdline>
J2VwaWtfcHl0aG9uJywgJy1waCcsICc3LjAnLCAnLXRuJywgJzgnLCAnLW1hJywgJzIwMCcsICctbWV0YWxfYmluZGluZycsICctaW1hZScsICc8aW5maWxlLm1hZT4nLCAnLW9tYWUnLCAnPG91dGZpbGUubWFlPic=

> <r_lp_tautomer_probability>
1

> <r_epik_Ionization_Penalty>
0.411763

> <r_epik_Ionization_Penalty_Charging>
0

> <r_epik_Ionization_Penalty_Neutral>
0.411763

> <r_epik_State_Penalty>
0.407012

> <r_epik_Charging_Adjusted_Penalty>
0.407012

> <i_epik_Tot_Q>
0

> <i_epik_Tot_abs_Q>
0

> <r_epik_Metal_State_Penalty>
0.401279

> <b_epik_Metal_Only>
0

> <s_lp_Force_Field>
OPLS_2005

> <r_lp_Energy>
76.2772

> <b_lp_Chiralities_Consistent>
1

> <s_lp_Variant>
AV-unprocessed.smi:207-1

> <Gold.Version>
5.8.1

> <Gold.Id.Protein>
6NUR|6NUR_protein|mol2

> <Gold.PLP.Fitness>
39.9763

> <Gold.PLP.PLP>
-31.7856

> <Gold.PLP.part.hbond>
-4.9786

> <Gold.PLP.part.metal>
0.0000

> <Gold.PLP.part.buried>
-2.1394

> <Gold.PLP.part.nonpolar>
-25.2063

> <Gold.PLP.part.repulsive>
0.8616

> <Gold.PLP.ligand.clash>
0.0000

> <Gold.PLP.ligand.torsion>
1.4761

> <Gold.PLP.Chemscore.Hbond>
3.3640

> <Gold.PLP.Chemscore.CHOScore>
0.1153

> <Gold.PLP.Chemscore.Metal>
0.0000

> <Gold.Chemscore.Hbonds>
donor molecule, donor type, donor heavy atom, donor atom, acceptor molecule, acceptor atom, score
      L1  H    18    42       P1  8028  0.32
      L1  H    27    55       P1 10186  1.00
      P1  H  7989  7998       L1    20  1.00
      P1  H 10785 10796       L1    27  0.68
      L1  C     8    36       P1  7957  0.18

> <Gold.PLP.Chemscore.Internal.Correction>
0.7048

> <Gold.Rescore>
     Score         DG    S(hbond)    S(metal)    S(lipo)     H(rot)  DE(clash)    DE(int)     intcor
      7.37     -12.37       2.51        0.00      69.22       3.74       1.83       3.17       ----

> <Gold.Chemscore.Fitness>
7.3723

> <Gold.Chemscore.DG>
-12.3688

> <Gold.Chemscore.ZeroCoef>
-5.4800

> <Gold.Chemscore.Hbond>
2.5068

> <Gold.Chemscore.Metal>
0.0000

> <Gold.Chemscore.Lipo>
69.2195

> <Gold.Chemscore.Internal_Hbond>
0.0000

> <Gold.Chemscore.DEClash>
1.8307

> <Gold.Chemscore.DEInternal>
3.1658

> <Gold.Chemscore.Rot>
3.7432

> <Gold.Chemscore.Internal.Correction>
   9.000000E+99

> <Gold.Chemscore.Hbonds>
donor molecule, donor type, donor heavy atom, donor atom, acceptor molecule, acceptor atom, score
      L1  H    18    42       P1  8028  0.32
      L1  H    27    55       P1 10186  1.00
      P1  H  7989  7998       L1    20  0.25
      P1  H 10785 10796       L1    27  0.11

> <Gold.Chemscore.Hbond.Weighted>
-8.3726

> <Gold.Chemscore.Metal.Weighted>
-0.0000

> <Gold.Chemscore.Lipo.Weighted>
-8.0987

> <Gold.Chemscore.Internal_Hbond.Weighted>
0.0000

> <Gold.Chemscore.DEClash.Weighted>
1.8307

> <Gold.Chemscore.DEInternal.Weighted>
3.1658

> <Gold.Chemscore.Rot.Weighted>
9.5825

> <Gold.Chemscore.Internal.Correction.Weighted>
   9.000000E+99

> <Gold.Protein.RotatedTorsions>
[ 6907 6896 6895 6894 ] final   62.04 input  -60.11 | X-H torsion
[ 7974 7965 7964 7962 ] final -153.31 input  175.53 | X-H torsion
[ 8008 7997 7996 7995 ] final   49.77 input   59.86 | X-H torsion
[ 10167 10162 10161 10158 ] final -106.04 input  -65.29 | X-H torsion
[ 10718 10713 10712 10709 ] final   55.08 input   66.30 | X-H torsion
[ 10763 10752 10751 10750 ] final  -14.01 input  -60.55 | X-H torsion
[ 11005 11000 10999 10996 ] final  -91.95 input  -57.11 | X-H torsion

> <Gold.Protein.ActiveResidues>
 VAL166  LYS551  ARG553  GLY616  TRP617  ASP618  TYR619  PRO620  LYS621  CYS622 
 ASP623  PHE694  ASN695  SER759  ASP760  ASP761  ALA762  ILE779  LEU786  VAL792 
 PHE793  MET794  SER795  GLU796  ALA797  LYS798  CYS799  TRP800  GLU811  SER814 

> <Gold.Protein.RotatedAtoms>
  152.4139  134.6075  160.0016 H   0  0  0  0  0  0  0  0  0  0  0  0  # atno 6907 bound_to 6896
  151.6245  133.3331  159.3103 H   0  0  0  0  0  0  0  0  0  0  0  0  # atno 6908 bound_to 6896
  150.8029  134.7174  159.6683 H   0  0  0  0  0  0  0  0  0  0  0  0  # atno 6909 bound_to 6896
  144.7747  140.4542  143.5882 H   0  0  0  0  0  0  0  0  0  0  0  0  # atno 7974 bound_to 7965
  155.4077  140.3441  155.4261 H   0  0  0  0  0  0  0  0  0  0  0  0  # atno 8008 bound_to 7997
  156.1467  140.1558  156.8867 H   0  0  0  0  0  0  0  0  0  0  0  0  # atno 8009 bound_to 7997
  154.5016  140.0813  156.7791 H   0  0  0  0  0  0  0  0  0  0  0  0  # atno 8010 bound_to 7997
  140.1920  143.3884  152.1198 H   0  0  0  0  0  0  0  0  0  0  0  0  # atno 10167 bound_to 10162
  157.5314  130.8633  149.8693 H   0  0  0  0  0  0  0  0  0  0  0  0  # atno 10718 bound_to 10713
  153.5219  135.7015  153.5727 H   0  0  0  0  0  0  0  0  0  0  0  0  # atno 10763 bound_to 10752
  153.3772  135.3929  155.1831 H   0  0  0  0  0  0  0  0  0  0  0  0  # atno 10764 bound_to 10752
  154.8694  135.3826  154.4708 H   0  0  0  0  0  0  0  0  0  0  0  0  # atno 10765 bound_to 10752
  141.1533  133.7789  156.9952 H   0  0  0  0  0  0  0  0  0  0  0  0  # atno 11005 bound_to 11000
  145.6220  139.1525  143.3017 LP  0  0  0  0  0  0  0  0  0  0  0  0  # atno 17320 bound_to 7965
  146.1918  140.6330  142.9142 LP  0  0  0  0  0  0  0  0  0  0  0  0  # atno 17321 bound_to 7965
  139.5252  144.7093  151.5257 LP  0  0  0  0  0  0  0  0  0  0  0  0  # atno 17342 bound_to 10162
  140.6449  143.8815  150.6727 LP  0  0  0  0  0  0  0  0  0  0  0  0  # atno 17343 bound_to 10162
  156.0425  130.3735  150.1399 LP  0  0  0  0  0  0  0  0  0  0  0  0  # atno 17370 bound_to 10713
  156.9583  130.9797  151.3484 LP  0  0  0  0  0  0  0  0  0  0  0  0  # atno 17371 bound_to 10713
  140.0976  134.9555  157.1874 LP  0  0  0  0  0  0  0  0  0  0  0  0  # atno 17394 bound_to 11000
  140.3361  134.2756  155.7220 LP  0  0  0  0  0  0  0  0  0  0  0  0  # atno 17395 bound_to 11000

$$$$
