AV-unprocessed.smi:281|AV-procd|sdf|2111|dock6
  -GOLD-   2262021403D 1   1.00000     0.00000
 Structure written by MMmdl.
 55 59  0  0  0  0  0  0  0  0  1 V2000
  147.3344  141.5308  153.8615 C   0  0  0  0  0  0  0  0  0  0  0  0
  148.1948  140.5132  154.6168 C   0  0  2  0  0  0  0  0  0  0  0  0
  147.3813  139.7505  155.6770 C   0  0  0  0  0  0  0  0  0  0  0  0
  148.2582  138.8855  156.4564 N   0  0  0  0  0  0  0  0  0  0  0  0
  147.6212  137.9437  157.1969 C   0  0  0  0  0  0  0  0  0  0  0  0
  146.4275  137.4419  156.7806 N   0  0  0  0  0  0  0  0  0  0  0  0
  145.8006  136.5067  157.5000 C   0  0  0  0  0  0  0  0  0  0  0  0
  146.1815  135.9418  158.6471 N   0  0  0  0  0  0  0  0  0  0  0  0
  147.3752  136.4441  159.0738 C   0  0  0  0  0  0  0  0  0  0  0  0
  148.1519  137.4410  158.4182 C   0  0  0  0  0  0  0  0  0  0  0  0
  149.2934  137.7154  159.1621 N   0  0  0  0  0  0  0  0  0  0  0  0
  149.2020  136.9189  160.1914 C   0  0  0  0  0  0  0  0  0  0  0  0
  148.0909  136.1062  160.2098 N   0  0  0  0  0  0  0  0  0  0  0  0
  147.7486  135.1211  161.2248 C   0  0  0  0  0  0  0  0  0  0  0  0
  146.8984  135.6737  162.3998 C   0  0  2  0  0  0  0  0  0  0  0  0
  146.8628  134.6771  163.4024 O   0  0  0  0  0  0  0  0  0  0  0  0
  145.4710  136.0621  162.0143 C   0  0  0  0  0  0  0  0  0  0  0  0
  145.5098  137.5857  161.8457 C   0  0  0  0  0  0  0  0  0  0  0  0
  146.8314  137.9908  162.1794 O   0  0  0  0  0  0  0  0  0  0  0  0
  147.4224  136.9872  162.9893 C   0  0  0  0  0  0  0  0  0  0  0  0
  149.3705  139.6069  157.0681 C   0  0  0  0  0  0  0  0  0  0  0  0
  150.1635  140.3964  155.9960 C   0  0  2  0  0  0  0  0  0  0  0  0
  150.9841  139.4919  155.0806 C   0  0  0  0  0  0  0  0  0  0  0  0
  152.2695  139.2758  155.8701 C   0  0  0  0  0  0  0  0  0  0  0  0
  152.4629  140.4697  156.6181 O   0  0  0  0  0  0  0  0  0  0  0  0
  151.2916  141.2800  156.5661 C   0  0  2  0  0  0  0  0  0  0  0  0
  151.0308  141.9502  157.9228 C   0  0  0  0  0  0  0  0  0  0  0  0
  149.2639  141.2192  155.2470 O   0  0  0  0  0  0  0  0  0  0  0  0
  146.5086  141.0402  153.3461 H   0  0  0  0  0  0  0  0  0  0  0  0
  147.9247  142.0625  153.1148 H   0  0  0  0  0  0  0  0  0  0  0  0
  146.9120  142.2713  154.5412 H   0  0  0  0  0  0  0  0  0  0  0  0
  148.6008  139.8065  153.8919 H   0  0  0  0  0  0  0  0  0  0  0  0
  146.8923  140.4537  156.3526 H   0  0  0  0  0  0  0  0  0  0  0  0
  146.5906  139.1818  155.1889 H   0  0  0  0  0  0  0  0  0  0  0  0
  144.8600  136.1604  157.0979 H   0  0  0  0  0  0  0  0  0  0  0  0
  149.9532  136.8980  160.9672 H   0  0  0  0  0  0  0  0  0  0  0  0
  147.2172  134.3049  160.7331 H   0  0  0  0  0  0  0  0  0  0  0  0
  148.6758  134.6901  161.6053 H   0  0  0  0  0  0  0  0  0  0  0  0
  147.2113  133.8762  163.0416 H   0  0  0  0  0  0  0  0  0  0  0  0
  145.1192  135.5487  161.1197 H   0  0  0  0  0  0  0  0  0  0  0  0
  144.7699  135.8177  162.8143 H   0  0  0  0  0  0  0  0  0  0  0  0
  145.2749  137.8911  160.8258 H   0  0  0  0  0  0  0  0  0  0  0  0
  144.7969  138.0673  162.5158 H   0  0  0  0  0  0  0  0  0  0  0  0
  147.0688  137.1256  164.0128 H   0  0  0  0  0  0  0  0  0  0  0  0
  148.5099  137.0546  163.0018 H   0  0  0  0  0  0  0  0  0  0  0  0
  148.9575  140.2896  157.8114 H   0  0  0  0  0  0  0  0  0  0  0  0
  150.0283  138.9151  157.5959 H   0  0  0  0  0  0  0  0  0  0  0  0
  150.4887  138.5561  154.8196 H   0  0  0  0  0  0  0  0  0  0  0  0
  151.2158  140.0156  154.1518 H   0  0  0  0  0  0  0  0  0  0  0  0
  152.1582  138.4420  156.5642 H   0  0  0  0  0  0  0  0  0  0  0  0
  153.1235  139.0667  155.2254 H   0  0  0  0  0  0  0  0  0  0  0  0
  151.5066  142.0624  155.8360 H   0  0  0  0  0  0  0  0  0  0  0  0
  150.1221  142.5522  157.8944 H   0  0  0  0  0  0  0  0  0  0  0  0
  151.8568  142.6091  158.1911 H   0  0  0  0  0  0  0  0  0  0  0  0
  150.9280  141.2159  158.7219 H   0  0  0  0  0  0  0  0  0  0  0  0
  1  2  1  0  0  0  0
  1 29  1  0  0  0  0
  1 30  1  0  0  0  0
  1 31  1  0  0  0  0
  2 28  1  0  0  0  0
  2  3  1  0  0  0  0
  2 32  1  0  0  0  0
  3  4  1  0  0  0  0
  3 33  1  0  0  0  0
  3 34  1  0  0  0  0
  4  5  1  0  0  0  0
  4 21  1  0  0  0  0
  5 10  1  0  0  0  0
  5  6  2  0  0  0  0
  6  7  1  0  0  0  0
  7  8  2  0  0  0  0
  7 35  1  0  0  0  0
  8  9  1  0  0  0  0
  9 13  1  0  0  0  0
  9 10  2  0  0  0  0
 10 11  1  0  0  0  0
 11 12  2  0  0  0  0
 12 13  1  0  0  0  0
 12 36  1  0  0  0  0
 13 14  1  0  0  0  0
 14 15  1  0  0  0  0
 14 37  1  0  0  0  0
 14 38  1  0  0  0  0
 15 20  1  0  0  0  0
 15 16  1  0  0  0  0
 15 17  1  0  0  0  0
 16 39  1  0  0  0  0
 17 18  1  0  0  0  0
 17 40  1  0  0  0  0
 17 41  1  0  0  0  0
 18 19  1  0  0  0  0
 18 42  1  0  0  0  0
 18 43  1  0  0  0  0
 19 20  1  0  0  0  0
 20 44  1  0  0  0  0
 20 45  1  0  0  0  0
 21 22  1  0  0  0  0
 21 46  1  0  0  0  0
 21 47  1  0  0  0  0
 22 26  1  0  0  0  0
 22 23  1  0  0  0  0
 22 28  1  0  0  0  0
 23 24  1  0  0  0  0
 23 48  1  0  0  0  0
 23 49  1  0  0  0  0
 24 25  1  0  0  0  0
 24 50  1  0  0  0  0
 24 51  1  0  0  0  0
 25 26  1  0  0  0  0
 26 27  1  0  0  0  0
 26 52  1  0  0  0  0
 27 53  1  0  0  0  0
 27 54  1  0  0  0  0
 27 55  1  0  0  0  0
M  END
> <s_m_source_file>
AV-unprocessed.smi

> <i_m_source_file_index>
281

> <i_lp_mmshare_version>
43012

> <i_f3d_flags>
0

> <s_epik_input>
W0NIM11bQ0BASF0xT1tDSDJdW0NIMl1bQ0BAXTEyW0NIMl1OKFtDSDJdW0NASF0oTzIpW0NIM10pYyhuW2NIXW4zKWMoYzM0KW5bY0hdbjRbQ0gyXVtDQEBdNShbT0hdKVtDSDJdW0NIMl1PW0NIMl01

> <s_epik_cmdline>
J2VwaWtfcHl0aG9uJywgJy1waCcsICc3LjAnLCAnLXRuJywgJzgnLCAnLW1hJywgJzIwMCcsICctbWV0YWxfYmluZGluZycsICctaW1hZScsICc8aW5maWxlLm1hZT4nLCAnLW9tYWUnLCAnPG91dGZpbGUubWFlPic=

> <r_lp_tautomer_probability>
1

> <r_epik_Ionization_Penalty>
0.00571331

> <r_epik_Ionization_Penalty_Charging>
0

> <r_epik_Ionization_Penalty_Neutral>
0.00571331

> <r_epik_State_Penalty>
0.00399586

> <r_epik_Charging_Adjusted_Penalty>
0.00399586

> <i_epik_Tot_Q>
0

> <i_epik_Tot_abs_Q>
0

> <r_epik_Metal_State_Penalty>
-0

> <b_epik_Metal_Only>
0

> <s_lp_Force_Field>
OPLS_2005

> <r_lp_Energy>
56.9308

> <b_lp_Chiralities_Consistent>
1

> <s_lp_Variant>
AV-unprocessed.smi:281-11

> <Gold.Version>
5.8.1

> <Gold.Id.Protein>
6NUR|6NUR_protein|mol2

> <Gold.PLP.Fitness>
43.8358

> <Gold.PLP.PLP>
-40.7079

> <Gold.PLP.part.hbond>
-4.0000

> <Gold.PLP.part.metal>
0.0000

> <Gold.PLP.part.buried>
-6.2799

> <Gold.PLP.part.nonpolar>
-30.5569

> <Gold.PLP.part.repulsive>
0.1075

> <Gold.PLP.ligand.clash>
0.0000

> <Gold.PLP.ligand.torsion>
0.9891

> <Gold.PLP.Chemscore.Hbond>
1.6037

> <Gold.PLP.Chemscore.CHOScore>
0.0000

> <Gold.PLP.Chemscore.Metal>
0.0000

> <Gold.Chemscore.Hbonds>
donor molecule, donor type, donor heavy atom, donor atom, acceptor molecule, acceptor atom, score
      P1  H  6934  6947       L1    19  0.50
      P1  H  7997  8009       L1    25  0.39

> <Gold.PLP.Chemscore.Internal.Correction>
0.2951

> <Gold.Rescore>
     Score         DG    S(hbond)    S(metal)    S(lipo)     H(rot)  DE(clash)    DE(int)     intcor
     13.55     -16.71       1.87        0.00      88.40       2.09       0.10       3.06       ----

> <Gold.Chemscore.Fitness>
13.5527

> <Gold.Chemscore.DG>
-16.7093

> <Gold.Chemscore.ZeroCoef>
-5.4800

> <Gold.Chemscore.Hbond>
1.8695

> <Gold.Chemscore.Metal>
0.0000

> <Gold.Chemscore.Lipo>
88.3968

> <Gold.Chemscore.Internal_Hbond>
0.0000

> <Gold.Chemscore.DEClash>
0.0988

> <Gold.Chemscore.DEInternal>
3.0577

> <Gold.Chemscore.Rot>
2.0927

> <Gold.Chemscore.Internal.Correction>
   9.000000E+99

> <Gold.Chemscore.Hbonds>
donor molecule, donor type, donor heavy atom, donor atom, acceptor molecule, acceptor atom, score
      P1  H  6934  6947       L1    19  0.17
      P1  H  7997  8009       L1    25  0.02

> <Gold.Chemscore.Hbond.Weighted>
-6.2442

> <Gold.Chemscore.Metal.Weighted>
-0.0000

> <Gold.Chemscore.Lipo.Weighted>
-10.3424

> <Gold.Chemscore.Internal_Hbond.Weighted>
0.0000

> <Gold.Chemscore.DEClash.Weighted>
0.0988

> <Gold.Chemscore.DEInternal.Weighted>
3.0577

> <Gold.Chemscore.Rot.Weighted>
5.3573

> <Gold.Chemscore.Internal.Correction.Weighted>
   9.000000E+99

> <Gold.Protein.RotatedTorsions>
[ 6907 6896 6895 6894 ] final  144.84 input  -60.11 | X-H torsion
[ 7974 7965 7964 7962 ] final -109.14 input  175.53 | X-H torsion
[ 8008 7997 7996 7995 ] final  175.84 input   59.86 | X-H torsion
[ 10167 10162 10161 10158 ] final -167.39 input  -65.29 | X-H torsion
[ 10718 10713 10712 10709 ] final   -8.53 input   66.30 | X-H torsion
[ 10763 10752 10751 10750 ] final -104.72 input  -60.55 | X-H torsion
[ 11005 11000 10999 10996 ] final -175.17 input  -57.11 | X-H torsion

> <Gold.Protein.ActiveResidues>
 VAL166  LYS551  ARG553  GLY616  TRP617  ASP618  TYR619  PRO620  LYS621  CYS622 
 ASP623  PHE694  ASN695  SER759  ASP760  ASP761  ALA762  ILE779  LEU786  VAL792 
 PHE793  MET794  SER795  GLU796  ALA797  LYS798  CYS799  TRP800  GLU811  SER814 

> <Gold.Protein.RotatedAtoms>
  152.1886  133.4757  159.4995 H   0  0  0  0  0  0  0  0  0  0  0  0  # atno 6907 bound_to 6896
  150.6947  134.1742  159.4233 H   0  0  0  0  0  0  0  0  0  0  0  0  # atno 6908 bound_to 6896
  151.9655  135.0102  160.0600 H   0  0  0  0  0  0  0  0  0  0  0  0  # atno 6909 bound_to 6896
  145.1842  140.8985  143.3462 H   0  0  0  0  0  0  0  0  0  0  0  0  # atno 7974 bound_to 7965
  156.0828  140.1399  156.9690 H   0  0  0  0  0  0  0  0  0  0  0  0  # atno 8008 bound_to 7997
  154.4595  140.0948  156.6902 H   0  0  0  0  0  0  0  0  0  0  0  0  # atno 8009 bound_to 7997
  155.5047  140.3452  155.4379 H   0  0  0  0  0  0  0  0  0  0  0  0  # atno 8010 bound_to 7997
  139.6052  144.0927  152.1786 H   0  0  0  0  0  0  0  0  0  0  0  0  # atno 10167 bound_to 10162
  156.7012  130.5094  149.5916 H   0  0  0  0  0  0  0  0  0  0  0  0  # atno 10718 bound_to 10713
  154.7898  135.4775  154.0027 H   0  0  0  0  0  0  0  0  0  0  0  0  # atno 10763 bound_to 10752
  153.1614  135.6809  153.8744 H   0  0  0  0  0  0  0  0  0  0  0  0  # atno 10764 bound_to 10752
  153.8357  135.3186  155.3400 H   0  0  0  0  0  0  0  0  0  0  0  0  # atno 10765 bound_to 10752
  140.4663  134.6207  157.4863 H   0  0  0  0  0  0  0  0  0  0  0  0  # atno 11005 bound_to 11000
  145.0106  139.3514  143.6122 LP  0  0  0  0  0  0  0  0  0  0  0  0  # atno 17320 bound_to 7965
  146.3448  139.9366  142.8746 LP  0  0  0  0  0  0  0  0  0  0  0  0  # atno 17321 bound_to 7965
  140.0533  144.5915  150.7319 LP  0  0  0  0  0  0  0  0  0  0  0  0  # atno 17342 bound_to 10162
  140.7280  143.2657  151.4054 LP  0  0  0  0  0  0  0  0  0  0  0  0  # atno 17343 bound_to 10162
  156.1727  130.6448  151.0857 LP  0  0  0  0  0  0  0  0  0  0  0  0  # atno 17370 bound_to 10713
  157.6972  131.0789  150.6932 LP  0  0  0  0  0  0  0  0  0  0  0  0  # atno 17371 bound_to 10713
  139.9913  134.6980  155.9684 LP  0  0  0  0  0  0  0  0  0  0  0  0  # atno 17394 bound_to 11000
  141.1598  133.6539  156.4280 LP  0  0  0  0  0  0  0  0  0  0  0  0  # atno 17395 bound_to 11000

$$$$
