AV-unprocessed.smi:1721|AV-procd|sdf|6939|dock1
  -GOLD-   22720 8143D 1   1.00000     0.00000
 Structure written by MMmdl.
 44 46  0  0  0  0  0  0  0  0  2 V2000
  151.4806  138.1521  154.4628 C   0  0  0  0  0  0  0  0  0  0  0  0
  150.1242  138.1560  154.0306 O   0  0  0  0  0  0  0  0  0  0  0  0
  149.4128  139.3387  154.1019 C   0  0  0  0  0  0  0  0  0  0  0  0
  150.0094  140.4172  154.6688 N   0  0  0  0  0  0  0  0  0  0  0  0
  149.3149  141.5712  154.7428 C   0  0  0  0  0  0  0  0  0  0  0  0
  147.9983  141.7096  154.2669 C   0  0  0  0  0  0  0  0  0  0  0  0
  147.3774  140.5926  153.6779 C   0  0  0  0  0  0  0  0  0  0  0  0
  148.0993  139.3785  153.5782 C   0  0  0  0  0  0  0  0  0  0  0  0
  147.5617  138.1870  153.0180 N   0  0  0  0  0  0  0  0  0  0  0  0
  146.2880  137.9232  152.6816 C   0  0  0  0  0  0  0  0  0  0  0  0
  145.3399  138.6963  152.8146 O   0  0  0  0  0  0  0  0  0  0  0  0
  146.1726  136.7008  152.1428 N   0  0  0  0  0  0  0  0  0  0  0  0
  144.9273  136.1050  151.6603 C   0  0  2  0  0  0  0  0  0  0  0  0
  143.8648  135.9573  152.7667 C   0  0  0  0  0  0  0  0  0  0  0  0
  143.2250  134.5887  152.5109 C   0  0  0  0  0  0  0  0  0  0  0  0
  144.3396  133.8001  151.9731 N   0  3  1  0  0  0  0  0  0  0  0  0
  144.0472  132.4819  151.3745 C   0  0  0  0  0  0  0  0  0  0  0  0
  145.3862  131.7818  151.0568 C   0  0  0  0  0  0  0  0  0  0  0  0
  146.3274  132.6726  150.2141 C   0  0  0  0  0  0  0  0  0  0  0  0
  146.4883  134.0803  150.8278 C   0  0  0  0  0  0  0  0  0  0  0  0
  145.0928  134.6848  151.0674 C   0  0  2  0  0  0  0  0  0  0  0  0
  151.8946  137.1514  154.3415 H   0  0  0  0  0  0  0  0  0  0  0  0
  151.5642  138.4192  155.5172 H   0  0  0  0  0  0  0  0  0  0  0  0
  152.0903  138.8361  153.8706 H   0  0  0  0  0  0  0  0  0  0  0  0
  149.8222  142.4073  155.2009 H   0  0  0  0  0  0  0  0  0  0  0  0
  147.4748  142.6501  154.3554 H   0  0  0  0  0  0  0  0  0  0  0  0
  146.3607  140.6852  153.3293 H   0  0  0  0  0  0  0  0  0  0  0  0
  148.2430  137.4841  152.7707 H   0  0  0  0  0  0  0  0  0  0  0  0
  147.0071  136.1373  152.0682 H   0  0  0  0  0  0  0  0  0  0  0  0
  144.5100  136.7504  150.8844 H   0  0  0  0  0  0  0  0  0  0  0  0
  144.3386  135.9532  153.7497 H   0  0  0  0  0  0  0  0  0  0  0  0
  143.1336  136.7663  152.7585 H   0  0  0  0  0  0  0  0  0  0  0  0
  142.8071  134.1432  153.4142 H   0  0  0  0  0  0  0  0  0  0  0  0
  142.4338  134.6671  151.7636 H   0  0  0  0  0  0  0  0  0  0  0  0
  143.4646  131.8804  152.0733 H   0  0  0  0  0  0  0  0  0  0  0  0
  143.4465  132.6031  150.4717 H   0  0  0  0  0  0  0  0  0  0  0  0
  145.8848  131.5254  151.9925 H   0  0  0  0  0  0  0  0  0  0  0  0
  145.2024  130.8391  150.5406 H   0  0  0  0  0  0  0  0  0  0  0  0
  147.3021  132.1953  150.1107 H   0  0  0  0  0  0  0  0  0  0  0  0
  145.9237  132.7654  149.2050 H   0  0  0  0  0  0  0  0  0  0  0  0
  147.0435  134.0197  151.7650 H   0  0  0  0  0  0  0  0  0  0  0  0
  147.0688  134.7092  150.1525 H   0  0  0  0  0  0  0  0  0  0  0  0
  144.5671  134.6938  150.1098 H   0  0  0  0  0  0  0  0  0  0  0  0
  144.9484  133.6273  152.7603 H   0  0  0  0  0  0  0  0  0  0  0  0
  1  2  1  0  0  0  0
  1 22  1  0  0  0  0
  1 23  1  0  0  0  0
  1 24  1  0  0  0  0
  2  3  1  0  0  0  0
  3  8  1  0  0  0  0
  3  4  2  0  0  0  0
  4  5  1  0  0  0  0
  5  6  2  0  0  0  0
  5 25  1  0  0  0  0
  6  7  1  0  0  0  0
  6 26  1  0  0  0  0
  7  8  2  0  0  0  0
  7 27  1  0  0  0  0
  8  9  1  0  0  0  0
  9 10  1  0  0  0  0
  9 28  1  0  0  0  0
 10 11  2  0  0  0  0
 10 12  1  0  0  0  0
 12 13  1  0  0  0  0
 12 29  1  0  0  0  0
 13 21  1  0  0  0  0
 13 14  1  0  0  0  0
 13 30  1  0  0  0  0
 14 15  1  0  0  0  0
 14 31  1  0  0  0  0
 14 32  1  0  0  0  0
 15 16  1  0  0  0  0
 15 33  1  0  0  0  0
 15 34  1  0  0  0  0
 16 21  1  0  0  0  0
 16 17  1  0  0  0  0
 16 44  1  0  0  0  0
 17 18  1  0  0  0  0
 17 35  1  0  0  0  0
 17 36  1  0  0  0  0
 18 19  1  0  0  0  0
 18 37  1  0  0  0  0
 18 38  1  0  0  0  0
 19 20  1  0  0  0  0
 19 39  1  0  0  0  0
 19 40  1  0  0  0  0
 20 21  1  0  0  0  0
 20 41  1  0  0  0  0
 20 42  1  0  0  0  0
 21 43  1  0  0  0  0
M  CHG  1  16   1
M  END
> <s_m_source_file>
AV-unprocessed.smi

> <i_m_source_file_index>
1721

> <i_lp_mmshare_version>
43012

> <i_f3d_flags>
0

> <s_epik_input>
W0NIM11PYzFuW2NIXVtjSF1bY0hdYzFbTkhdQyg9TylbTkhdW0NASF0oW0NIMl1bQ0gyXTIpW0NAQEhdKE4yMylbQ0gyXVtDSDJdW0NIMl1bQ0gyXTM=

> <s_epik_cmdline>
J2VwaWtfcHl0aG9uJywgJy1waCcsICc3LjAnLCAnLXRuJywgJzgnLCAnLW1hJywgJzIwMCcsICctbWV0YWxfYmluZGluZycsICctaW1hZScsICc8aW5maWxlLm1hZT4nLCAnLW9tYWUnLCAnPG91dGZpbGUubWFlPic=

> <r_lp_tautomer_probability>
1

> <r_epik_Ionization_Penalty>
0.00104793

> <r_epik_Ionization_Penalty_Charging>
0.000974069

> <r_epik_Ionization_Penalty_Neutral>
7.38649e-05

> <r_epik_State_Penalty>
0.000633842

> <r_epik_Charging_Adjusted_Penalty>
0.00160791

> <i_epik_Tot_Q>
1

> <i_epik_Tot_abs_Q>
1

> <r_epik_Metal_State_Penalty>
-0

> <b_epik_Metal_Only>
0

> <s_lp_Force_Field>
OPLS_2005

> <r_lp_Energy>
43.7376

> <b_lp_Chiralities_Consistent>
1

> <s_lp_Variant>
AV-unprocessed.smi:1721-5

> <Gold.Version>
5.8.1

> <Gold.Id.Protein>
6NUR|6NUR_protein|mol2

> <Gold.PLP.Fitness>
45.6942

> <Gold.PLP.PLP>
-34.5381

> <Gold.PLP.part.hbond>
-3.0989

> <Gold.PLP.part.metal>
0.0000

> <Gold.PLP.part.buried>
-2.8155

> <Gold.PLP.part.nonpolar>
-33.0341

> <Gold.PLP.part.repulsive>
5.2221

> <Gold.PLP.ligand.clash>
0.0000

> <Gold.PLP.ligand.torsion>
0.0538

> <Gold.PLP.Chemscore.Hbond>
2.8080

> <Gold.PLP.Chemscore.CHOScore>
0.9462

> <Gold.PLP.Chemscore.Metal>
0.0000

> <Gold.Chemscore.Hbonds>
donor molecule, donor type, donor heavy atom, donor atom, acceptor molecule, acceptor atom, score
      L1  H     9    28       P1  7948  1.00
      L1  H    12    29       P1  7948  0.88
      P1  H  7989  7998       L1     4  0.89
      L1  C     5    25       P1  8028  0.94

> <Gold.PLP.Chemscore.Internal.Correction>
0.0012

> <Gold.Rescore>
     Score         DG    S(hbond)    S(metal)    S(lipo)     H(rot)  DE(clash)    DE(int)     intcor
     16.55     -19.49       2.21        0.00      83.90       1.25       1.67       1.27       ----

> <Gold.Chemscore.Fitness>
16.5466

> <Gold.Chemscore.DG>
-19.4857

> <Gold.Chemscore.ZeroCoef>
-5.4800

> <Gold.Chemscore.Hbond>
2.2104

> <Gold.Chemscore.Metal>
0.0000

> <Gold.Chemscore.Lipo>
83.8999

> <Gold.Chemscore.Internal_Hbond>
0.0000

> <Gold.Chemscore.DEClash>
1.6718

> <Gold.Chemscore.DEInternal>
1.2673

> <Gold.Chemscore.Rot>
1.2474

> <Gold.Chemscore.Internal.Correction>
   9.000000E+99

> <Gold.Chemscore.Hbonds>
donor molecule, donor type, donor heavy atom, donor atom, acceptor molecule, acceptor atom, score
      L1  H     9    28       P1  7948  0.99
      L1  H    12    29       P1  7948  0.86
      P1  H  7989  7998       L1     4  0.22

> <Gold.Chemscore.Hbond.Weighted>
-7.3829

> <Gold.Chemscore.Metal.Weighted>
-0.0000

> <Gold.Chemscore.Lipo.Weighted>
-9.8163

> <Gold.Chemscore.Internal_Hbond.Weighted>
0.0000

> <Gold.Chemscore.DEClash.Weighted>
1.6718

> <Gold.Chemscore.DEInternal.Weighted>
1.2673

> <Gold.Chemscore.Rot.Weighted>
3.1934

> <Gold.Chemscore.Internal.Correction.Weighted>
   9.000000E+99

> <Gold.Protein.RotatedTorsions>
[ 6907 6896 6895 6894 ] final -140.45 input  -60.11 | X-H torsion
[ 7974 7965 7964 7962 ] final -134.93 input  175.53 | X-H torsion
[ 8008 7997 7996 7995 ] final  118.80 input   59.86 | X-H torsion
[ 10167 10162 10161 10158 ] final -109.32 input  -65.29 | X-H torsion
[ 10718 10713 10712 10709 ] final -161.81 input   66.30 | X-H torsion
[ 10763 10752 10751 10750 ] final  -18.73 input  -60.55 | X-H torsion
[ 11005 11000 10999 10996 ] final  173.13 input  -57.11 | X-H torsion

> <Gold.Protein.ActiveResidues>
 VAL166  LYS551  ARG553  GLY616  TRP617  ASP618  TYR619  PRO620  LYS621  CYS622 
 ASP623  PHE694  ASN695  SER759  ASP760  ASP761  ALA762  ILE779  LEU786  VAL792 
 PHE793  MET794  SER795  GLU796  ALA797  LYS798  CYS799  TRP800  GLU811  SER814 

> <Gold.Protein.RotatedAtoms>
  151.0609  133.5545  159.2634 H   0  0  0  0  0  0  0  0  0  0  0  0  # atno 6907 bound_to 6896
  151.2520  135.0624  159.9075 H   0  0  0  0  0  0  0  0  0  0  0  0  # atno 6908 bound_to 6896
  152.5397  134.0368  159.8103 H   0  0  0  0  0  0  0  0  0  0  0  0  # atno 6909 bound_to 6896
  144.9059  140.6832  143.5055 H   0  0  0  0  0  0  0  0  0  0  0  0  # atno 7974 bound_to 7965
  156.2564  140.2867  156.0891 H   0  0  0  0  0  0  0  0  0  0  0  0  # atno 8008 bound_to 7997
  155.1482  140.0397  157.2832 H   0  0  0  0  0  0  0  0  0  0  0  0  # atno 8009 bound_to 7997
  154.6480  140.2538  155.7253 H   0  0  0  0  0  0  0  0  0  0  0  0  # atno 8010 bound_to 7997
  140.1566  143.4155  152.1456 H   0  0  0  0  0  0  0  0  0  0  0  0  # atno 10167 bound_to 10162
  156.6015  130.8812  151.2915 H   0  0  0  0  0  0  0  0  0  0  0  0  # atno 10718 bound_to 10713
  153.5937  135.7001  153.5412 H   0  0  0  0  0  0  0  0  0  0  0  0  # atno 10763 bound_to 10752
  153.3156  135.4088  155.1373 H   0  0  0  0  0  0  0  0  0  0  0  0  # atno 10764 bound_to 10752
  154.8595  135.3683  154.5470 H   0  0  0  0  0  0  0  0  0  0  0  0  # atno 10765 bound_to 10752
  140.3372  134.7307  157.4177 H   0  0  0  0  0  0  0  0  0  0  0  0  # atno 11005 bound_to 11000
  145.3536  139.1700  143.4421 LP  0  0  0  0  0  0  0  0  0  0  0  0  # atno 17320 bound_to 7965
  146.3133  140.3591  142.8663 LP  0  0  0  0  0  0  0  0  0  0  0  0  # atno 17321 bound_to 7965
  139.5400  144.7248  151.4764 LP  0  0  0  0  0  0  0  0  0  0  0  0  # atno 17342 bound_to 10162
  140.6669  143.8378  150.6952 LP  0  0  0  0  0  0  0  0  0  0  0  0  # atno 17343 bound_to 10162
  157.7278  130.9648  150.1715 LP  0  0  0  0  0  0  0  0  0  0  0  0  # atno 17370 bound_to 10713
  156.2465  130.3696  149.8279 LP  0  0  0  0  0  0  0  0  0  0  0  0  # atno 17371 bound_to 10713
  140.0811  134.5730  155.8540 LP  0  0  0  0  0  0  0  0  0  0  0  0  # atno 17394 bound_to 11000
  141.2048  133.6642  156.6142 LP  0  0  0  0  0  0  0  0  0  0  0  0  # atno 17395 bound_to 11000

$$$$
