AV-unprocessed.smi:155|AV-procd|sdf|1267|dock7
  -GOLD-   2262018523D 1   1.00000     0.00000
 Structure written by MMmdl.
 63 66  0  0  0  0  0  0  0  0  2 V2000
  143.2176  133.6209  151.8845 C   0  0  0  0  0  0  0  0  0  0  0  0
  144.5110  134.2400  151.6162 N   0  0  0  0  0  0  0  0  0  0  0  0
  145.0916  133.5934  150.4468 C   0  0  0  0  0  0  0  0  0  0  0  0
  145.4282  134.0967  152.7468 C   0  0  0  0  0  0  0  0  0  0  0  0
  146.7699  134.8504  152.5679 C   0  0  0  0  0  0  0  0  0  0  0  0
  147.7979  134.5684  153.6056 N   0  3  2  0  0  0  0  0  0  0  0  0
  148.6135  133.3497  153.3445 C   0  0  0  0  0  0  0  0  0  0  0  0
  149.6823  133.0656  154.4210 C   0  0  0  0  0  0  0  0  0  0  0  0
  150.5356  134.2854  154.8218 C   0  0  0  0  0  0  0  0  0  0  0  0
  149.7338  135.4003  155.3333 N   0  0  0  0  0  0  0  0  0  0  0  0
  150.1854  136.6712  155.1692 C   0  0  0  0  0  0  0  0  0  0  0  0
  151.2881  136.8667  154.3992 N   0  0  0  0  0  0  0  0  0  0  0  0
  151.7773  138.0959  154.2130 C   0  0  0  0  0  0  0  0  0  0  0  0
  151.3228  139.2548  154.6915 N   0  0  0  0  0  0  0  0  0  0  0  0
  150.2078  139.0703  155.4536 C   0  0  0  0  0  0  0  0  0  0  0  0
  149.5748  137.8269  155.7408 C   0  0  0  0  0  0  0  0  0  0  0  0
  148.4510  138.0482  156.5306 N   0  0  0  0  0  0  0  0  0  0  0  0
  148.4351  139.3398  156.7173 C   0  0  0  0  0  0  0  0  0  0  0  0
  149.4563  140.0298  156.1067 N   0  0  0  0  0  0  0  0  0  0  0  0
  149.6880  141.4635  156.1450 C   0  0  0  0  0  0  0  0  0  0  0  0
  149.9316  141.9812  157.5813 C   0  0  2  0  0  0  0  0  0  0  0  0
  149.0924  143.1050  157.7736 O   0  0  0  0  0  0  0  0  0  0  0  0
  151.3810  142.4453  157.8538 C   0  0  2  0  0  0  0  0  0  0  0  0
  151.7043  142.7667  159.3253 C   0  0  0  0  0  0  0  0  0  0  0  0
  151.5450  144.2676  159.4085 C   0  0  0  0  0  0  0  0  0  0  0  0
  152.0601  144.6890  158.0435 C   0  0  0  0  0  0  0  0  0  0  0  0
  151.5602  143.6887  157.1671 O   0  0  0  0  0  0  0  0  0  0  0  0
  148.4487  135.1467  155.9885 C   0  0  0  0  0  0  0  0  0  0  0  0
  147.3239  134.7285  155.0077 C   0  0  0  0  0  0  0  0  0  0  0  0
  142.6969  134.1170  152.7023 H   0  0  0  0  0  0  0  0  0  0  0  0
  143.3253  132.5648  152.1365 H   0  0  0  0  0  0  0  0  0  0  0  0
  142.5730  133.6941  151.0075 H   0  0  0  0  0  0  0  0  0  0  0  0
  146.0495  134.0475  150.1910 H   0  0  0  0  0  0  0  0  0  0  0  0
  144.4356  133.7036  149.5822 H   0  0  0  0  0  0  0  0  0  0  0  0
  145.2534  132.5280  150.6188 H   0  0  0  0  0  0  0  0  0  0  0  0
  144.9282  134.4630  153.6449 H   0  0  0  0  0  0  0  0  0  0  0  0
  145.6236  133.0401  152.9312 H   0  0  0  0  0  0  0  0  0  0  0  0
  147.1972  134.7055  151.5766 H   0  0  0  0  0  0  0  0  0  0  0  0
  146.5595  135.9190  152.6253 H   0  0  0  0  0  0  0  0  0  0  0  0
  147.9705  132.4744  153.2696 H   0  0  0  0  0  0  0  0  0  0  0  0
  149.0989  133.4662  152.3748 H   0  0  0  0  0  0  0  0  0  0  0  0
  149.2085  132.6391  155.3054 H   0  0  0  0  0  0  0  0  0  0  0  0
  150.3445  132.2809  154.0539 H   0  0  0  0  0  0  0  0  0  0  0  0
  151.2596  133.9962  155.5842 H   0  0  0  0  0  0  0  0  0  0  0  0
  151.1071  134.6112  153.9513 H   0  0  0  0  0  0  0  0  0  0  0  0
  152.6594  138.1597  153.5929 H   0  0  0  0  0  0  0  0  0  0  0  0
  147.6763  139.8282  157.3114 H   0  0  0  0  0  0  0  0  0  0  0  0
  150.5401  141.6677  155.4989 H   0  0  0  0  0  0  0  0  0  0  0  0
  148.8299  141.9684  155.6989 H   0  0  0  0  0  0  0  0  0  0  0  0
  149.6514  141.2087  158.2988 H   0  0  0  0  0  0  0  0  0  0  0  0
  148.8310  143.4275  156.9241 H   0  0  0  0  0  0  0  0  0  0  0  0
  152.0912  141.7069  157.4778 H   0  0  0  0  0  0  0  0  0  0  0  0
  151.0950  142.2444  160.0595 H   0  0  0  0  0  0  0  0  0  0  0  0
  152.7439  142.5069  159.5303 H   0  0  0  0  0  0  0  0  0  0  0  0
  150.4919  144.5316  159.5155 H   0  0  0  0  0  0  0  0  0  0  0  0
  152.1005  144.7146  160.2333 H   0  0  0  0  0  0  0  0  0  0  0  0
  151.7230  145.6841  157.7519 H   0  0  0  0  0  0  0  0  0  0  0  0
  153.1508  144.6736  158.0211 H   0  0  0  0  0  0  0  0  0  0  0  0
  148.6013  134.3512  156.7185 H   0  0  0  0  0  0  0  0  0  0  0  0
  148.1369  136.0067  156.5819 H   0  0  0  0  0  0  0  0  0  0  0  0
  146.5565  135.5030  155.0346 H   0  0  0  0  0  0  0  0  0  0  0  0
  146.8399  133.8121  155.3482 H   0  0  0  0  0  0  0  0  0  0  0  0
  148.4562  135.3266  153.4945 H   0  0  0  0  0  0  0  0  0  0  0  0
  1  2  1  0  0  0  0
  1 30  1  0  0  0  0
  1 31  1  0  0  0  0
  1 32  1  0  0  0  0
  2  3  1  0  0  0  0
  2  4  1  0  0  0  0
  3 33  1  0  0  0  0
  3 34  1  0  0  0  0
  3 35  1  0  0  0  0
  4  5  1  0  0  0  0
  4 36  1  0  0  0  0
  4 37  1  0  0  0  0
  5  6  1  0  0  0  0
  5 38  1  0  0  0  0
  5 39  1  0  0  0  0
  6 29  1  0  0  0  0
  6  7  1  0  0  0  0
  6 63  1  0  0  0  0
  7  8  1  0  0  0  0
  7 40  1  0  0  0  0
  7 41  1  0  0  0  0
  8  9  1  0  0  0  0
  8 42  1  0  0  0  0
  8 43  1  0  0  0  0
  9 10  1  0  0  0  0
  9 44  1  0  0  0  0
  9 45  1  0  0  0  0
 10 11  1  0  0  0  0
 10 28  1  0  0  0  0
 11 16  1  0  0  0  0
 11 12  2  0  0  0  0
 12 13  1  0  0  0  0
 13 14  2  0  0  0  0
 13 46  1  0  0  0  0
 14 15  1  0  0  0  0
 15 19  1  0  0  0  0
 15 16  2  0  0  0  0
 16 17  1  0  0  0  0
 17 18  2  0  0  0  0
 18 19  1  0  0  0  0
 18 47  1  0  0  0  0
 19 20  1  0  0  0  0
 20 21  1  0  0  0  0
 20 48  1  0  0  0  0
 20 49  1  0  0  0  0
 21 22  1  0  0  0  0
 21 23  1  0  0  0  0
 21 50  1  0  0  0  0
 22 51  1  0  0  0  0
 23 27  1  0  0  0  0
 23 24  1  0  0  0  0
 23 52  1  0  0  0  0
 24 25  1  0  0  0  0
 24 53  1  0  0  0  0
 24 54  1  0  0  0  0
 25 26  1  0  0  0  0
 25 55  1  0  0  0  0
 25 56  1  0  0  0  0
 26 27  1  0  0  0  0
 26 57  1  0  0  0  0
 26 58  1  0  0  0  0
 28 29  1  0  0  0  0
 28 59  1  0  0  0  0
 28 60  1  0  0  0  0
 29 61  1  0  0  0  0
 29 62  1  0  0  0  0
M  CHG  1   6   1
M  END
> <s_m_source_file>
AV-unprocessed.smi

> <i_m_source_file_index>
155

> <i_lp_mmshare_version>
43012

> <i_f3d_flags>
0

> <s_epik_input>
W0NIM11OKFtDSDNdKVtDSDJdW0NIMl1OMVtDSDJdW0NIMl1bQ0gyXU4oW0NIMl1bQ0gyXTEpYyhuW2NIXW4yKWMoYzIzKW5bY0hdbjNbQ0gyXVtDQEhdKFtPSF0pW0NAQEhdNFtDSDJdW0NIMl1bQ0gyXU80

> <s_epik_cmdline>
J2VwaWtfcHl0aG9uJywgJy1waCcsICc3LjAnLCAnLXRuJywgJzgnLCAnLW1hJywgJzIwMCcsICctbWV0YWxfYmluZGluZycsICctaW1hZScsICc8aW5maWxlLm1hZT4nLCAnLW9tYWUnLCAnPG91dGZpbGUubWFlPic=

> <r_epik_Ionization_Penalty>
0.0619615

> <r_epik_Ionization_Penalty_Charging>
0.0161638

> <r_epik_Ionization_Penalty_Neutral>
0.0457976

> <r_epik_State_Penalty>
0.403408

> <r_epik_Charging_Adjusted_Penalty>
0.419572

> <i_epik_Tot_Q>
1

> <i_epik_Tot_abs_Q>
1

> <r_epik_Metal_State_Penalty>
0.404222

> <b_epik_Metal_Only>
0

> <s_lp_Force_Field>
OPLS_2005

> <r_lp_Energy>
58.592

> <b_lp_Chiralities_Consistent>
1

> <s_lp_Variant>
AV-unprocessed.smi:155-1

> <Gold.Version>
5.8.1

> <Gold.Id.Protein>
6NUR|6NUR_protein|mol2

> <Gold.PLP.Fitness>
50.5677

> <Gold.PLP.PLP>
-40.3248

> <Gold.PLP.part.hbond>
-4.5760

> <Gold.PLP.part.metal>
0.0000

> <Gold.PLP.part.buried>
-3.2573

> <Gold.PLP.part.nonpolar>
-32.9932

> <Gold.PLP.part.repulsive>
1.1162

> <Gold.PLP.ligand.clash>
0.0000

> <Gold.PLP.ligand.torsion>
1.0456

> <Gold.PLP.Chemscore.Hbond>
4.0533

> <Gold.PLP.Chemscore.CHOScore>
0.0000

> <Gold.PLP.Chemscore.Metal>
0.0000

> <Gold.Chemscore.Hbonds>
donor molecule, donor type, donor heavy atom, donor atom, acceptor molecule, acceptor atom, score
      L1  H     6    63       P1  7948  1.09
      L1  H    22    51       P1  8028  0.99
      P1  H  7989  7998       L1    14  1.00
      P1  H 10752 10764       L1    12  0.96

> <Gold.PLP.Chemscore.Internal.Correction>
0.1744

> <Gold.Rescore>
     Score         DG    S(hbond)    S(metal)    S(lipo)     H(rot)  DE(clash)    DE(int)     intcor
     13.69     -17.84       2.30        0.00      97.72       2.63       2.04       2.12       ----

> <Gold.Chemscore.Fitness>
13.6859

> <Gold.Chemscore.DG>
-17.8425

> <Gold.Chemscore.ZeroCoef>
-5.4800

> <Gold.Chemscore.Hbond>
2.2959

> <Gold.Chemscore.Metal>
0.0000

> <Gold.Chemscore.Lipo>
97.7199

> <Gold.Chemscore.Internal_Hbond>
0.0000

> <Gold.Chemscore.DEClash>
2.0416

> <Gold.Chemscore.DEInternal>
2.1151

> <Gold.Chemscore.Rot>
2.6324

> <Gold.Chemscore.Internal.Correction>
   9.000000E+99

> <Gold.Chemscore.Hbonds>
donor molecule, donor type, donor heavy atom, donor atom, acceptor molecule, acceptor atom, score
      L1  H     6    63       P1  7948  0.52
      L1  H    22    51       P1  8028  0.56
      P1  H  7989  7998       L1    14  0.84
      P1  H 10752 10764       L1    12  0.41

> <Gold.Chemscore.Hbond.Weighted>
-7.6682

> <Gold.Chemscore.Metal.Weighted>
-0.0000

> <Gold.Chemscore.Lipo.Weighted>
-11.4332

> <Gold.Chemscore.Internal_Hbond.Weighted>
0.0000

> <Gold.Chemscore.DEClash.Weighted>
2.0416

> <Gold.Chemscore.DEInternal.Weighted>
2.1151

> <Gold.Chemscore.Rot.Weighted>
6.7389

> <Gold.Chemscore.Internal.Correction.Weighted>
   9.000000E+99

> <Gold.Protein.RotatedTorsions>
[ 6907 6896 6895 6894 ] final -148.14 input  -60.11 | X-H torsion
[ 7974 7965 7964 7962 ] final   62.86 input  175.53 | X-H torsion
[ 8008 7997 7996 7995 ] final  -99.14 input   59.86 | X-H torsion
[ 10167 10162 10161 10158 ] final   77.03 input  -65.29 | X-H torsion
[ 10718 10713 10712 10709 ] final   93.15 input   66.30 | X-H torsion
[ 10763 10752 10751 10750 ] final  -75.81 input  -60.55 | X-H torsion
[ 11005 11000 10999 10996 ] final  -47.23 input  -57.11 | X-H torsion

> <Gold.Protein.ActiveResidues>
 VAL166  LYS551  ARG553  GLY616  TRP617  ASP618  TYR619  PRO620  LYS621  CYS622 
 ASP623  PHE694  ASN695  SER759  ASP760  ASP761  ALA762  ILE779  LEU786  VAL792 
 PHE793  MET794  SER795  GLU796  ALA797  LYS798  CYS799  TRP800  GLU811  SER814 

> <Gold.Protein.RotatedAtoms>
  151.1656  133.4817  159.2593 H   0  0  0  0  0  0  0  0  0  0  0  0  # atno 6907 bound_to 6896
  151.1408  135.0178  159.8635 H   0  0  0  0  0  0  0  0  0  0  0  0  # atno 6908 bound_to 6896
  152.5462  134.1550  159.8587 H   0  0  0  0  0  0  0  0  0  0  0  0  # atno 6909 bound_to 6896
  145.8685  139.3362  143.0776 H   0  0  0  0  0  0  0  0  0  0  0  0  # atno 7974 bound_to 7965
  154.8108  140.0450  157.1341 H   0  0  0  0  0  0  0  0  0  0  0  0  # atno 8008 bound_to 7997
  154.9371  140.3047  155.5119 H   0  0  0  0  0  0  0  0  0  0  0  0  # atno 8009 bound_to 7997
  156.2971  140.2312  156.4436 H   0  0  0  0  0  0  0  0  0  0  0  0  # atno 8010 bound_to 7997
  139.9859  144.5792  150.7860 H   0  0  0  0  0  0  0  0  0  0  0  0  # atno 10167 bound_to 10162
  157.6956  131.0468  150.3990 H   0  0  0  0  0  0  0  0  0  0  0  0  # atno 10718 bound_to 10713
  154.4916  135.5818  153.6463 H   0  0  0  0  0  0  0  0  0  0  0  0  # atno 10763 bound_to 10752
  152.9863  135.6114  154.3118 H   0  0  0  0  0  0  0  0  0  0  0  0  # atno 10764 bound_to 10752
  154.3018  135.2846  155.2587 H   0  0  0  0  0  0  0  0  0  0  0  0  # atno 10765 bound_to 10752
  141.0628  133.6703  156.3267 H   0  0  0  0  0  0  0  0  0  0  0  0  # atno 11005 bound_to 11000
  145.9165  140.9145  143.0427 LP  0  0  0  0  0  0  0  0  0  0  0  0  # atno 17320 bound_to 7965
  144.6726  140.1230  143.7448 LP  0  0  0  0  0  0  0  0  0  0  0  0  # atno 17321 bound_to 7965
  140.7472  143.2903  151.3349 LP  0  0  0  0  0  0  0  0  0  0  0  0  # atno 17342 bound_to 10162
  139.6375  144.0602  152.2528 LP  0  0  0  0  0  0  0  0  0  0  0  0  # atno 17343 bound_to 10162
  156.4385  130.3986  149.6713 LP  0  0  0  0  0  0  0  0  0  0  0  0  # atno 17370 bound_to 10713
  156.3905  130.7624  151.2625 LP  0  0  0  0  0  0  0  0  0  0  0  0  # atno 17371 bound_to 10713
  140.5835  134.5722  157.5484 LP  0  0  0  0  0  0  0  0  0  0  0  0  # atno 17394 bound_to 11000
  139.9448  134.7722  156.0589 LP  0  0  0  0  0  0  0  0  0  0  0  0  # atno 17395 bound_to 11000

$$$$
