AV-unprocessed.smi:2973|AV-procd|sdf|11338|dock4
  -GOLD-   2272016253D 1   1.00000     0.00000
 Structure written by MMmdl.
 49 51  0  0  0  0  0  0  0  0  1 V2000
  149.6346  141.7389  156.3858 C   0  0  0  0  0  0  0  0  0  0  0  0
  150.9367  141.6797  157.2133 C   0  0  1  0  0  0  0  0  0  0  0  0
  150.7246  142.3636  158.5816 C   0  0  0  0  0  0  0  0  0  0  0  0
  152.0111  142.3872  159.4216 C   0  0  0  0  0  0  0  0  0  0  0  0
  152.5773  140.9736  159.6150 C   0  0  0  0  0  0  0  0  0  0  0  0
  152.8125  140.2874  158.2603 C   0  0  0  0  0  0  0  0  0  0  0  0
  151.5267  140.2469  157.3998 C   0  0  1  0  0  0  0  0  0  0  0  0
  150.5561  139.3207  157.9596 N   0  0  0  0  0  0  0  0  0  0  0  0
  150.3025  138.2806  157.1555 C   0  0  0  0  0  0  0  0  0  0  0  0
  149.5293  137.3592  157.4108 O   0  0  0  0  0  0  0  0  0  0  0  0
  151.0411  138.4187  156.0390 N   0  0  0  0  0  0  0  0  0  0  0  0
  151.0458  137.4597  154.9237 C   0  0  0  0  0  0  0  0  0  0  0  0
  151.0002  135.9777  155.3350 C   0  0  0  0  0  0  0  0  0  0  0  0
  151.8651  135.5445  156.0953 O   0  0  0  0  0  0  0  0  0  0  0  0
  150.0167  135.2061  154.8410 N   0  0  0  0  0  0  0  0  0  0  0  0
  149.8501  133.7817  155.1027 C   0  0  0  0  0  0  0  0  0  0  0  0
  148.9646  133.1138  154.0372 C   0  0  0  0  0  0  0  0  0  0  0  0
  149.2216  131.6233  153.9234 C   0  0  0  0  0  0  0  0  0  0  0  0
  150.3240  131.0305  154.5753 C   0  0  0  0  0  0  0  0  0  0  0  0
  150.5184  129.6424  154.4369 C   0  0  0  0  0  0  0  0  0  0  0  0
  149.6068  128.9043  153.6574 C   0  0  0  0  0  0  0  0  0  0  0  0
  148.5353  129.5896  153.0510 C   0  0  0  0  0  0  0  0  0  0  0  0
  148.3396  130.9200  153.1774 N   0  0  0  0  0  0  0  0  0  0  0  0
  151.7912  139.5286  156.0822 C   0  0  0  0  0  0  0  0  0  0  0  0
  152.5776  139.9287  155.2236 O   0  0  0  0  0  0  0  0  0  0  0  0
  148.8286  141.1801  156.8619 H   0  0  0  0  0  0  0  0  0  0  0  0
  149.7712  141.3374  155.3816 H   0  0  0  0  0  0  0  0  0  0  0  0
  149.2938  142.7683  156.2729 H   0  0  0  0  0  0  0  0  0  0  0  0
  151.6785  142.2711  156.6736 H   0  0  0  0  0  0  0  0  0  0  0  0
  150.3735  143.3859  158.4356 H   0  0  0  0  0  0  0  0  0  0  0  0
  149.9389  141.8486  159.1360 H   0  0  0  0  0  0  0  0  0  0  0  0
  152.7558  143.0158  158.9321 H   0  0  0  0  0  0  0  0  0  0  0  0
  151.8118  142.8429  160.3918 H   0  0  0  0  0  0  0  0  0  0  0  0
  153.5127  141.0224  160.1733 H   0  0  0  0  0  0  0  0  0  0  0  0
  151.8894  140.3801  160.2184 H   0  0  0  0  0  0  0  0  0  0  0  0
  153.5959  140.8269  157.7253 H   0  0  0  0  0  0  0  0  0  0  0  0
  153.1981  139.2795  158.4243 H   0  0  0  0  0  0  0  0  0  0  0  0
  150.1321  139.4563  158.8658 H   0  0  0  0  0  0  0  0  0  0  0  0
  150.1951  137.6574  154.2694 H   0  0  0  0  0  0  0  0  0  0  0  0
  151.9302  137.6150  154.3035 H   0  0  0  0  0  0  0  0  0  0  0  0
  149.3421  135.6370  154.2257 H   0  0  0  0  0  0  0  0  0  0  0  0
  150.8241  133.2920  155.1551 H   0  0  0  0  0  0  0  0  0  0  0  0
  149.3938  133.6745  156.0872 H   0  0  0  0  0  0  0  0  0  0  0  0
  147.9117  133.2728  154.2738 H   0  0  0  0  0  0  0  0  0  0  0  0
  149.1310  133.5765  153.0635 H   0  0  0  0  0  0  0  0  0  0  0  0
  151.0052  131.6242  155.1675 H   0  0  0  0  0  0  0  0  0  0  0  0
  151.3515  129.1529  154.9192 H   0  0  0  0  0  0  0  0  0  0  0  0
  149.7253  127.8387  153.5279 H   0  0  0  0  0  0  0  0  0  0  0  0
  147.8170  129.0551  152.4472 H   0  0  0  0  0  0  0  0  0  0  0  0
  1  2  1  0  0  0  0
  1 26  1  0  0  0  0
  1 27  1  0  0  0  0
  1 28  1  0  0  0  0
  2  7  1  0  0  0  0
  2  3  1  0  0  0  0
  2 29  1  0  0  0  0
  3  4  1  0  0  0  0
  3 30  1  0  0  0  0
  3 31  1  0  0  0  0
  4  5  1  0  0  0  0
  4 32  1  0  0  0  0
  4 33  1  0  0  0  0
  5  6  1  0  0  0  0
  5 34  1  0  0  0  0
  5 35  1  0  0  0  0
  6  7  1  0  0  0  0
  6 36  1  0  0  0  0
  6 37  1  0  0  0  0
  7 24  1  0  0  0  0
  7  8  1  0  0  0  0
  8  9  1  0  0  0  0
  8 38  1  0  0  0  0
  9 10  2  0  0  0  0
  9 11  1  0  0  0  0
 11 12  1  0  0  0  0
 11 24  1  0  0  0  0
 12 13  1  0  0  0  0
 12 39  1  0  0  0  0
 12 40  1  0  0  0  0
 13 14  2  0  0  0  0
 13 15  1  0  0  0  0
 15 16  1  0  0  0  0
 15 41  1  0  0  0  0
 16 17  1  0  0  0  0
 16 42  1  0  0  0  0
 16 43  1  0  0  0  0
 17 18  1  0  0  0  0
 17 44  1  0  0  0  0
 17 45  1  0  0  0  0
 18 23  1  0  0  0  0
 18 19  2  0  0  0  0
 19 20  1  0  0  0  0
 19 46  1  0  0  0  0
 20 21  2  0  0  0  0
 20 47  1  0  0  0  0
 21 22  1  0  0  0  0
 21 48  1  0  0  0  0
 22 23  2  0  0  0  0
 22 49  1  0  0  0  0
 24 25  2  0  0  0  0
M  END
> <s_m_source_file>
AV-unprocessed.smi

> <i_m_source_file_index>
2973

> <i_lp_mmshare_version>
43012

> <i_f3d_flags>
0

> <s_epik_input>
W0NIMl0xW0NIMl1bQ0gyXVtDSDJdW0NAQEhdKFtDSDNdKVtDQF0xMltOSF1DKD1PKU4oQzI9TylbQ0gyXUMoPU8pW05IXVtDSDJdW0NIMl1jM1tjSF1bY0hdW2NIXVtjSF1uMw==

> <s_epik_cmdline>
J2VwaWtfcHl0aG9uJywgJy1waCcsICc3LjAnLCAnLXRuJywgJzgnLCAnLW1hJywgJzIwMCcsICctbWV0YWxfYmluZGluZycsICctaW1hZScsICc8aW5maWxlLm1hZT4nLCAnLW9tYWUnLCAnPG91dGZpbGUubWFlPic=

> <r_lp_tautomer_probability>
1

> <r_epik_Ionization_Penalty>
0.0245152

> <r_epik_Ionization_Penalty_Charging>
0

> <r_epik_Ionization_Penalty_Neutral>
0.0245152

> <r_epik_State_Penalty>
0.0198648

> <r_epik_Charging_Adjusted_Penalty>
0.0198648

> <i_epik_Tot_Q>
0

> <i_epik_Tot_abs_Q>
0

> <r_epik_Metal_State_Penalty>
0.0400162

> <b_epik_Metal_Only>
0

> <s_lp_Force_Field>
OPLS_2005

> <r_lp_Energy>
22.4148

> <b_lp_Chiralities_Consistent>
1

> <s_lp_Variant>
AV-unprocessed.smi:2973-2

> <Gold.Version>
5.8.1

> <Gold.Id.Protein>
6NUR|6NUR_protein|mol2

> <Gold.PLP.Fitness>
44.4083

> <Gold.PLP.PLP>
-38.4675

> <Gold.PLP.part.hbond>
-2.9921

> <Gold.PLP.part.metal>
0.0000

> <Gold.PLP.part.buried>
-1.8874

> <Gold.PLP.part.nonpolar>
-32.5617

> <Gold.PLP.part.repulsive>
0.4672

> <Gold.PLP.ligand.clash>
0.0000

> <Gold.PLP.ligand.torsion>
0.6653

> <Gold.PLP.Chemscore.Hbond>
2.4062

> <Gold.PLP.Chemscore.CHOScore>
0.0000

> <Gold.PLP.Chemscore.Metal>
0.0000

> <Gold.Chemscore.Hbonds>
donor molecule, donor type, donor heavy atom, donor atom, acceptor molecule, acceptor atom, score
      P1  H  7989  7998       L1    25  0.40
      P1  H  7997  8010       L1    25  1.00
      P1  H 10752 10765       L1    14  1.00

> <Gold.PLP.Chemscore.Internal.Correction>
0.0528

> <Gold.Rescore>
     Score         DG    S(hbond)    S(metal)    S(lipo)     H(rot)  DE(clash)    DE(int)     intcor
     15.75     -17.64       1.91        0.00      89.90       1.86       0.11       1.78       ----

> <Gold.Chemscore.Fitness>
15.7478

> <Gold.Chemscore.DG>
-17.6357

> <Gold.Chemscore.ZeroCoef>
-5.4800

> <Gold.Chemscore.Hbond>
1.9123

> <Gold.Chemscore.Metal>
0.0000

> <Gold.Chemscore.Lipo>
89.9001

> <Gold.Chemscore.Internal_Hbond>
0.0000

> <Gold.Chemscore.DEClash>
0.1092

> <Gold.Chemscore.DEInternal>
1.7787

> <Gold.Chemscore.Rot>
1.8553

> <Gold.Chemscore.Internal.Correction>
   9.000000E+99

> <Gold.Chemscore.Hbonds>
donor molecule, donor type, donor heavy atom, donor atom, acceptor molecule, acceptor atom, score
      L1  H    15    41       P1  7948  0.03
      P1  H  7989  7998       L1    25  0.37
      P1  H  7997  8010       L1    25  0.72
      P1  H 10752 10765       L1    14  0.25

> <Gold.Chemscore.Hbond.Weighted>
-6.3871

> <Gold.Chemscore.Metal.Weighted>
-0.0000

> <Gold.Chemscore.Lipo.Weighted>
-10.5183

> <Gold.Chemscore.Internal_Hbond.Weighted>
0.0000

> <Gold.Chemscore.DEClash.Weighted>
0.1092

> <Gold.Chemscore.DEInternal.Weighted>
1.7787

> <Gold.Chemscore.Rot.Weighted>
4.7497

> <Gold.Chemscore.Internal.Correction.Weighted>
   9.000000E+99

> <Gold.Protein.RotatedTorsions>
[ 6907 6896 6895 6894 ] final  -58.63 input  -60.11 | X-H torsion
[ 7974 7965 7964 7962 ] final -165.22 input  175.53 | X-H torsion
[ 8008 7997 7996 7995 ] final   95.25 input   59.86 | X-H torsion
[ 10167 10162 10161 10158 ] final   24.20 input  -65.29 | X-H torsion
[ 10718 10713 10712 10709 ] final  164.51 input   66.30 | X-H torsion
[ 10763 10752 10751 10750 ] final -149.68 input  -60.55 | X-H torsion
[ 11005 11000 10999 10996 ] final   52.24 input  -57.11 | X-H torsion

> <Gold.Protein.ActiveResidues>
 VAL166  LYS551  ARG553  GLY616  TRP617  ASP618  TYR619  PRO620  LYS621  CYS622 
 ASP623  PHE694  ASN695  SER759  ASP760  ASP761  ALA762  ILE779  LEU786  VAL792 
 PHE793  MET794  SER795  GLU796  ALA797  LYS798  CYS799  TRP800  GLU811  SER814 

> <Gold.Protein.RotatedAtoms>
  150.7992  134.7074  159.6583 H   0  0  0  0  0  0  0  0  0  0  0  0  # atno 6907 bound_to 6896
  152.4107  134.6125  160.0039 H   0  0  0  0  0  0  0  0  0  0  0  0  # atno 6908 bound_to 6896
  151.6369  133.3291  159.3157 H   0  0  0  0  0  0  0  0  0  0  0  0  # atno 6909 bound_to 6896
  144.7276  140.2847  143.6230 H   0  0  0  0  0  0  0  0  0  0  0  0  # atno 7974 bound_to 7965
  156.0668  140.3289  155.7528 H   0  0  0  0  0  0  0  0  0  0  0  0  # atno 8008 bound_to 7997
  155.5368  140.0598  157.2895 H   0  0  0  0  0  0  0  0  0  0  0  0  # atno 8009 bound_to 7997
  154.4509  140.1917  156.0539 H   0  0  0  0  0  0  0  0  0  0  0  0  # atno 8010 bound_to 7997
  140.5207  144.0007  150.6415 H   0  0  0  0  0  0  0  0  0  0  0  0  # atno 10167 bound_to 10162
  157.0933  131.0423  151.2528 H   0  0  0  0  0  0  0  0  0  0  0  0  # atno 10718 bound_to 10713
  154.8163  135.3303  154.7166 H   0  0  0  0  0  0  0  0  0  0  0  0  # atno 10763 bound_to 10752
  153.7806  135.6918  153.4893 H   0  0  0  0  0  0  0  0  0  0  0  0  # atno 10764 bound_to 10752
  153.1983  135.4525  155.0182 H   0  0  0  0  0  0  0  0  0  0  0  0  # atno 10765 bound_to 10752
  140.0865  134.5267  155.8894 H   0  0  0  0  0  0  0  0  0  0  0  0  # atno 11005 bound_to 11000
  145.7915  139.1929  143.2100 LP  0  0  0  0  0  0  0  0  0  0  0  0  # atno 17320 bound_to 7965
  146.0752  140.7825  142.9668 LP  0  0  0  0  0  0  0  0  0  0  0  0  # atno 17321 bound_to 7965
  140.3355  143.3051  152.0643 LP  0  0  0  0  0  0  0  0  0  0  0  0  # atno 17342 bound_to 10162
  139.4922  144.6479  151.6739 LP  0  0  0  0  0  0  0  0  0  0  0  0  # atno 17343 bound_to 10162
  157.4703  130.7705  149.7317 LP  0  0  0  0  0  0  0  0  0  0  0  0  # atno 17370 bound_to 10713
  155.9892  130.3953  150.3082 LP  0  0  0  0  0  0  0  0  0  0  0  0  # atno 17371 bound_to 10713
  141.2064  133.6655  156.6241 LP  0  0  0  0  0  0  0  0  0  0  0  0  # atno 17394 bound_to 11000
  140.3413  134.7847  157.4399 LP  0  0  0  0  0  0  0  0  0  0  0  0  # atno 17395 bound_to 11000

$$$$
