AV-unprocessed.smi:2822|AV-procd|sdf|10861|dock7
  -GOLD-   2272015303D 1   1.00000     0.00000
 Structure written by MMmdl.
 41 43  0  0  0  0  0  0  0  0  3 V2000
  146.9598  139.3961  152.8051 Cl  0  0  0  0  0  0  0  0  0  0  0  0
  148.1380  140.0225  153.9045 C   0  0  0  0  0  0  0  0  0  0  0  0
  148.0879  141.3848  154.2656 C   0  0  0  0  0  0  0  0  0  0  0  0
  148.9986  141.8900  155.1242 N   0  3  0  0  0  0  0  0  0  0  0  0
  149.9810  141.1413  155.6682 C   0  0  0  0  0  0  0  0  0  0  0  0
  150.0828  139.7723  155.3463 C   0  0  0  0  0  0  0  0  0  0  0  0
  149.1493  139.1936  154.4504 C   0  0  0  0  0  0  0  0  0  0  0  0
  149.1966  137.8385  154.0879 N   0  0  0  0  0  0  0  0  0  0  0  0
  149.9666  136.8737  154.8582 C   0  0  0  0  0  0  0  0  0  0  0  0
  149.0472  135.9352  155.6657 C   0  0  1  0  0  0  0  0  0  0  0  0
  147.6627  135.7366  155.0190 C   0  0  0  0  0  0  0  0  0  0  0  0
  147.7440  134.8836  153.8097 N   0  3  2  0  0  0  0  0  0  0  0  0
  146.4208  134.7092  153.1579 C   0  0  0  0  0  0  0  0  0  0  0  0
  146.5429  133.8940  151.8609 C   0  0  0  0  0  0  0  0  0  0  0  0
  147.2011  132.5361  152.1330 C   0  0  0  0  0  0  0  0  0  0  0  0
  148.5543  132.7406  152.8263 C   0  0  0  0  0  0  0  0  0  0  0  0
  148.4103  133.5870  154.1073 C   0  0  1  0  0  0  0  0  0  0  0  0
  149.7829  133.8384  154.7585 C   0  0  0  0  0  0  0  0  0  0  0  0
  149.6438  134.6615  155.9112 O   0  0  0  0  0  0  0  0  0  0  0  0
  147.3500  142.0812  153.8946 H   0  0  0  0  0  0  0  0  0  0  0  0
  150.6530  141.6563  156.3393 H   0  0  0  0  0  0  0  0  0  0  0  0
  150.8781  139.1913  155.7887 H   0  0  0  0  0  0  0  0  0  0  0  0
  148.5504  137.4929  153.3916 H   0  0  0  0  0  0  0  0  0  0  0  0
  150.5624  136.2777  154.1659 H   0  0  0  0  0  0  0  0  0  0  0  0
  150.6691  137.3947  155.5085 H   0  0  0  0  0  0  0  0  0  0  0  0
  148.8882  136.3960  156.6416 H   0  0  0  0  0  0  0  0  0  0  0  0
  146.9901  135.2672  155.7387 H   0  0  0  0  0  0  0  0  0  0  0  0
  147.2249  136.7029  154.7647 H   0  0  0  0  0  0  0  0  0  0  0  0
  145.7358  134.2133  153.8476 H   0  0  0  0  0  0  0  0  0  0  0  0
  145.9926  135.6870  152.9344 H   0  0  0  0  0  0  0  0  0  0  0  0
  145.5574  133.7481  151.4176 H   0  0  0  0  0  0  0  0  0  0  0  0
  147.1322  134.4496  151.1300 H   0  0  0  0  0  0  0  0  0  0  0  0
  146.5502  131.9293  152.7637 H   0  0  0  0  0  0  0  0  0  0  0  0
  147.3341  131.9873  151.2002 H   0  0  0  0  0  0  0  0  0  0  0  0
  148.9936  131.7713  153.0662 H   0  0  0  0  0  0  0  0  0  0  0  0
  149.2435  133.2286  152.1353 H   0  0  0  0  0  0  0  0  0  0  0  0
  147.7859  133.0420  154.8180 H   0  0  0  0  0  0  0  0  0  0  0  0
  150.2272  132.8918  155.0673 H   0  0  0  0  0  0  0  0  0  0  0  0
  150.4802  134.2866  154.0503 H   0  0  0  0  0  0  0  0  0  0  0  0
  148.3323  135.3683  153.1472 H   0  0  0  0  0  0  0  0  0  0  0  0
  148.9426  142.8787  155.3711 H   0  0  0  0  0  0  0  0  0  0  0  0
  1  2  1  0  0  0  0
  2  7  1  0  0  0  0
  2  3  2  0  0  0  0
  3  4  1  0  0  0  0
  3 20  1  0  0  0  0
  4  5  2  0  0  0  0
  4 41  1  0  0  0  0
  5  6  1  0  0  0  0
  5 21  1  0  0  0  0
  6  7  2  0  0  0  0
  6 22  1  0  0  0  0
  7  8  1  0  0  0  0
  8  9  1  0  0  0  0
  8 23  1  0  0  0  0
  9 10  1  0  0  0  0
  9 24  1  0  0  0  0
  9 25  1  0  0  0  0
 10 19  1  0  0  0  0
 10 11  1  0  0  0  0
 10 26  1  0  0  0  0
 11 12  1  0  0  0  0
 11 27  1  0  0  0  0
 11 28  1  0  0  0  0
 12 17  1  0  0  0  0
 12 13  1  0  0  0  0
 12 40  1  0  0  0  0
 13 14  1  0  0  0  0
 13 29  1  0  0  0  0
 13 30  1  0  0  0  0
 14 15  1  0  0  0  0
 14 31  1  0  0  0  0
 14 32  1  0  0  0  0
 15 16  1  0  0  0  0
 15 33  1  0  0  0  0
 15 34  1  0  0  0  0
 16 17  1  0  0  0  0
 16 35  1  0  0  0  0
 16 36  1  0  0  0  0
 17 18  1  0  0  0  0
 17 37  1  0  0  0  0
 18 19  1  0  0  0  0
 18 38  1  0  0  0  0
 18 39  1  0  0  0  0
M  CHG  1   4   1
M  CHG  1  12   1
M  END
> <s_m_source_file>
AV-unprocessed.smi

> <i_m_source_file_index>
2822

> <i_lp_mmshare_version>
43012

> <i_f3d_flags>
0

> <s_epik_input>
Q2xjMVtjSF1uW2NIXVtjSF1jMVtOSF1bQ0gyXVtDQEhdKFtDSDJdMilPW0NIMl1bQ0BASF0oTjIzKVtDSDJdW0NIMl1bQ0gyXVtDSDJdMw==

> <s_epik_cmdline>
J2VwaWtfcHl0aG9uJywgJy1waCcsICc3LjAnLCAnLXRuJywgJzgnLCAnLW1hJywgJzIwMCcsICctbWV0YWxfYmluZGluZycsICctaW1hZScsICc8aW5maWxlLm1hZT4nLCAnLW9tYWUnLCAnPG91dGZpbGUubWFlPic=

> <r_lp_tautomer_probability>
1

> <r_epik_Ionization_Penalty>
0.254999

> <r_epik_Ionization_Penalty_Charging>
0.254956

> <r_epik_Ionization_Penalty_Neutral>
4.33524e-05

> <r_epik_State_Penalty>
0.230978

> <r_epik_Charging_Adjusted_Penalty>
0.485934

> <i_epik_Tot_Q>
2

> <i_epik_Tot_abs_Q>
2

> <r_epik_Metal_State_Penalty>
3.47007

> <b_epik_Metal_Only>
0

> <s_lp_Force_Field>
OPLS_2005

> <r_lp_Energy>
41.9056

> <b_lp_Chiralities_Consistent>
1

> <s_lp_Variant>
AV-unprocessed.smi:2822-2

> <Gold.Version>
5.8.1

> <Gold.Id.Protein>
6NUR|6NUR_protein|mol2

> <Gold.PLP.Fitness>
45.7192

> <Gold.PLP.PLP>
-33.4318

> <Gold.PLP.part.hbond>
-3.0000

> <Gold.PLP.part.metal>
0.0000

> <Gold.PLP.part.buried>
-1.9677

> <Gold.PLP.part.nonpolar>
-28.7202

> <Gold.PLP.part.repulsive>
0.2559

> <Gold.PLP.ligand.clash>
0.0000

> <Gold.PLP.ligand.torsion>
0.4960

> <Gold.PLP.Chemscore.Hbond>
4.4243

> <Gold.PLP.Chemscore.CHOScore>
0.0000

> <Gold.PLP.Chemscore.Metal>
0.0000

> <Gold.Chemscore.Hbonds>
donor molecule, donor type, donor heavy atom, donor atom, acceptor molecule, acceptor atom, score
      L1  H     4    41       P1  8028  2.00
      L1  H     8    23       P1  7948  0.53
      L1  H    12    40       P1  7948  2.00

> <Gold.PLP.Chemscore.Internal.Correction>
0.0064

> <Gold.Rescore>
     Score         DG    S(hbond)    S(metal)    S(lipo)     H(rot)  DE(clash)    DE(int)     intcor
     19.42     -20.03       2.49        0.00      79.47       1.20       0.06       0.55       ----

> <Gold.Chemscore.Fitness>
19.4241

> <Gold.Chemscore.DG>
-20.0328

> <Gold.Chemscore.ZeroCoef>
-5.4800

> <Gold.Chemscore.Hbond>
2.4902

> <Gold.Chemscore.Metal>
0.0000

> <Gold.Chemscore.Lipo>
79.4683

> <Gold.Chemscore.Internal_Hbond>
0.0000

> <Gold.Chemscore.DEClash>
0.0563

> <Gold.Chemscore.DEInternal>
0.5524

> <Gold.Chemscore.Rot>
1.1962

> <Gold.Chemscore.Internal.Correction>
   9.000000E+99

> <Gold.Chemscore.Hbonds>
donor molecule, donor type, donor heavy atom, donor atom, acceptor molecule, acceptor atom, score
      L1  H     4    41       P1  8028  1.00
      L1  H     8    23       P1  7948  0.51
      L1  H    12    40       P1  7948  0.99

> <Gold.Chemscore.Hbond.Weighted>
-8.3173

> <Gold.Chemscore.Metal.Weighted>
-0.0000

> <Gold.Chemscore.Lipo.Weighted>
-9.2978

> <Gold.Chemscore.Internal_Hbond.Weighted>
0.0000

> <Gold.Chemscore.DEClash.Weighted>
0.0563

> <Gold.Chemscore.DEInternal.Weighted>
0.5524

> <Gold.Chemscore.Rot.Weighted>
3.0623

> <Gold.Chemscore.Internal.Correction.Weighted>
   9.000000E+99

> <Gold.Protein.RotatedTorsions>
[ 6907 6896 6895 6894 ] final   42.33 input  -60.11 | X-H torsion
[ 7974 7965 7964 7962 ] final  -79.66 input  175.53 | X-H torsion
[ 8008 7997 7996 7995 ] final  160.42 input   59.86 | X-H torsion
[ 10167 10162 10161 10158 ] final  -62.21 input  -65.29 | X-H torsion
[ 10718 10713 10712 10709 ] final -142.11 input   66.30 | X-H torsion
[ 10763 10752 10751 10750 ] final -133.94 input  -60.55 | X-H torsion
[ 11005 11000 10999 10996 ] final  114.51 input  -57.11 | X-H torsion

> <Gold.Protein.ActiveResidues>
 VAL166  LYS551  ARG553  GLY616  TRP617  ASP618  TYR619  PRO620  LYS621  CYS622 
 ASP623  PHE694  ASN695  SER759  ASP760  ASP761  ALA762  ILE779  LEU786  VAL792 
 PHE793  MET794  SER795  GLU796  ALA797  LYS798  CYS799  TRP800  GLU811  SER814 

> <Gold.Protein.RotatedAtoms>
  152.2065  134.8541  160.0501 H   0  0  0  0  0  0  0  0  0  0  0  0  # atno 6907 bound_to 6896
  151.9375  133.3623  159.3961 H   0  0  0  0  0  0  0  0  0  0  0  0  # atno 6908 bound_to 6896
  150.6966  134.4398  159.5331 H   0  0  0  0  0  0  0  0  0  0  0  0  # atno 6909 bound_to 6896
  145.5703  140.9467  143.1399 H   0  0  0  0  0  0  0  0  0  0  0  0  # atno 7974 bound_to 7965
  156.2173  140.1804  156.7559 H   0  0  0  0  0  0  0  0  0  0  0  0  # atno 8008 bound_to 7997
  154.5811  140.0666  156.9134 H   0  0  0  0  0  0  0  0  0  0  0  0  # atno 8009 bound_to 7997
  155.2500  140.3328  155.4285 H   0  0  0  0  0  0  0  0  0  0  0  0  # atno 8010 bound_to 7997
  140.5954  143.2350  151.6047 H   0  0  0  0  0  0  0  0  0  0  0  0  # atno 10167 bound_to 10162
  156.3421  130.7643  151.1781 H   0  0  0  0  0  0  0  0  0  0  0  0  # atno 10718 bound_to 10713
  154.8726  135.3750  154.4654 H   0  0  0  0  0  0  0  0  0  0  0  0  # atno 10763 bound_to 10752
  153.5319  135.7027  153.5684 H   0  0  0  0  0  0  0  0  0  0  0  0  # atno 10764 bound_to 10752
  153.3885  135.3978  155.1872 H   0  0  0  0  0  0  0  0  0  0  0  0  # atno 10765 bound_to 10752
  139.8982  134.9569  156.6903 H   0  0  0  0  0  0  0  0  0  0  0  0  # atno 11005 bound_to 11000
  144.7441  139.7368  143.7299 LP  0  0  0  0  0  0  0  0  0  0  0  0  # atno 17320 bound_to 7965
  146.1789  139.4972  142.9879 LP  0  0  0  0  0  0  0  0  0  0  0  0  # atno 17321 bound_to 7965
  139.5255  144.3073  152.1023 LP  0  0  0  0  0  0  0  0  0  0  0  0  # atno 17342 bound_to 10162
  140.2244  144.4433  150.6327 LP  0  0  0  0  0  0  0  0  0  0  0  0  # atno 17343 bound_to 10162
  157.7448  131.0452  150.4829 LP  0  0  0  0  0  0  0  0  0  0  0  0  # atno 17370 bound_to 10713
  156.5011  130.4117  149.6352 LP  0  0  0  0  0  0  0  0  0  0  0  0  # atno 17371 bound_to 10713
  140.7230  133.9124  155.8160 LP  0  0  0  0  0  0  0  0  0  0  0  0  # atno 17394 bound_to 11000
  141.0212  134.0886  157.4118 LP  0  0  0  0  0  0  0  0  0  0  0  0  # atno 17395 bound_to 11000

$$$$
