AV-unprocessed.smi:1654|AV-procd|sdf|6642|dock4
  -GOLD-   22720 7343D 1   1.00000     0.00000
 Structure written by MMmdl.
 40 41  0  0  0  0  0  0  0  0  1 V2000
  151.5711  139.0677  158.9521 O   0  0  0  0  0  0  0  0  0  0  0  0
  152.1477  139.9955  157.9668 S   0  0  0  0  0  0  0  0  0  0  0  0
  153.4918  139.7732  157.4120 O   0  0  0  0  0  0  0  0  0  0  0  0
  151.0307  140.1364  156.6624 N   0  0  0  0  0  0  0  0  0  0  0  0
  151.5386  140.0042  155.3002 C   0  0  0  0  0  0  0  0  0  0  0  0
  150.6196  139.0938  154.4763 C   0  0  0  0  0  0  0  0  0  0  0  0
  149.2566  139.7172  154.2495 C   0  0  0  0  0  0  0  0  0  0  0  0
  149.0408  141.0909  154.4837 C   0  0  0  0  0  0  0  0  0  0  0  0
  147.7551  141.6223  154.2651 C   0  0  0  0  0  0  0  0  0  0  0  0
  146.7374  140.7547  153.8207 C   0  0  0  0  0  0  0  0  0  0  0  0
  146.9326  139.4378  153.5933 N   0  0  0  0  0  0  0  0  0  0  0  0
  148.1683  138.9361  153.8057 C   0  0  0  0  0  0  0  0  0  0  0  0
  152.0625  141.6143  158.5838 N   0  0  0  0  0  0  0  0  0  0  0  0
  151.4575  142.6494  157.7233 C   0  0  0  0  0  0  0  0  0  0  0  0
  150.4570  143.5063  158.5135 C   0  0  0  0  0  0  0  0  0  0  0  0
  151.0691  144.7341  159.2100 C   0  0  0  0  0  0  0  0  0  0  0  0
  152.4689  144.5338  159.8159 C   0  0  0  0  0  0  0  0  0  0  0  0
  152.6962  143.1616  160.4681 C   0  0  0  0  0  0  0  0  0  0  0  0
  153.1443  142.0719  159.4747 C   0  0  0  0  0  0  0  0  0  0  0  0
  150.1900  139.5822  156.8234 H   0  0  0  0  0  0  0  0  0  0  0  0
  151.6037  140.9941  154.8470 H   0  0  0  0  0  0  0  0  0  0  0  0
  152.5490  139.5950  155.3354 H   0  0  0  0  0  0  0  0  0  0  0  0
  151.0752  138.8768  153.5091 H   0  0  0  0  0  0  0  0  0  0  0  0
  150.4924  138.1343  154.9797 H   0  0  0  0  0  0  0  0  0  0  0  0
  149.8442  141.7263  154.8271 H   0  0  0  0  0  0  0  0  0  0  0  0
  147.5531  142.6696  154.4348 H   0  0  0  0  0  0  0  0  0  0  0  0
  145.7395  141.1283  153.6441 H   0  0  0  0  0  0  0  0  0  0  0  0
  148.2908  137.8795  153.6175 H   0  0  0  0  0  0  0  0  0  0  0  0
  152.2320  143.2542  157.2499 H   0  0  0  0  0  0  0  0  0  0  0  0
  150.9226  142.1644  156.9067 H   0  0  0  0  0  0  0  0  0  0  0  0
  149.6765  143.8577  157.8378 H   0  0  0  0  0  0  0  0  0  0  0  0
  149.9425  142.8812  159.2451 H   0  0  0  0  0  0  0  0  0  0  0  0
  151.1206  145.5612  158.5008 H   0  0  0  0  0  0  0  0  0  0  0  0
  150.3815  145.0600  159.9910 H   0  0  0  0  0  0  0  0  0  0  0  0
  153.2296  144.7000  159.0522 H   0  0  0  0  0  0  0  0  0  0  0  0
  152.6309  145.3154  160.5591 H   0  0  0  0  0  0  0  0  0  0  0  0
  153.4905  143.2735  161.2068 H   0  0  0  0  0  0  0  0  0  0  0  0
  151.8162  142.8439  161.0290 H   0  0  0  0  0  0  0  0  0  0  0  0
  153.5075  141.2237  160.0545 H   0  0  0  0  0  0  0  0  0  0  0  0
  153.9892  142.4110  158.8743 H   0  0  0  0  0  0  0  0  0  0  0  0
  1  2  2  0  0  0  0
  2  3  2  0  0  0  0
  2  4  1  0  0  0  0
  2 13  1  0  0  0  0
  4  5  1  0  0  0  0
  4 20  1  0  0  0  0
  5  6  1  0  0  0  0
  5 21  1  0  0  0  0
  5 22  1  0  0  0  0
  6  7  1  0  0  0  0
  6 23  1  0  0  0  0
  6 24  1  0  0  0  0
  7 12  1  0  0  0  0
  7  8  2  0  0  0  0
  8  9  1  0  0  0  0
  8 25  1  0  0  0  0
  9 10  2  0  0  0  0
  9 26  1  0  0  0  0
 10 11  1  0  0  0  0
 10 27  1  0  0  0  0
 11 12  2  0  0  0  0
 12 28  1  0  0  0  0
 13 19  1  0  0  0  0
 13 14  1  0  0  0  0
 14 15  1  0  0  0  0
 14 29  1  0  0  0  0
 14 30  1  0  0  0  0
 15 16  1  0  0  0  0
 15 31  1  0  0  0  0
 15 32  1  0  0  0  0
 16 17  1  0  0  0  0
 16 33  1  0  0  0  0
 16 34  1  0  0  0  0
 17 18  1  0  0  0  0
 17 35  1  0  0  0  0
 17 36  1  0  0  0  0
 18 19  1  0  0  0  0
 18 37  1  0  0  0  0
 18 38  1  0  0  0  0
 19 39  1  0  0  0  0
 19 40  1  0  0  0  0
M  END
> <s_m_source_file>
AV-unprocessed.smi

> <i_m_source_file_index>
1654

> <i_lp_mmshare_version>
43012

> <i_f3d_flags>
0

> <s_epik_input>
W0NIMl0xW0NIMl1bQ0gyXVtDSDJdW0NIMl1bQ0gyXU4xUyg9TykoPU8pW05IXVtDSDJdW0NIMl1jMltjSF1bY0hdW2NIXW5bY0hdMg==

> <s_epik_cmdline>
J2VwaWtfcHl0aG9uJywgJy1waCcsICc3LjAnLCAnLXRuJywgJzgnLCAnLW1hJywgJzIwMCcsICctbWV0YWxfYmluZGluZycsICctaW1hZScsICc8aW5maWxlLm1hZT4nLCAnLW9tYWUnLCAnPG91dGZpbGUubWFlPic=

> <r_lp_tautomer_probability>
1

> <r_epik_Ionization_Penalty>
0.00688973

> <r_epik_Ionization_Penalty_Charging>
0

> <r_epik_Ionization_Penalty_Neutral>
0.00688973

> <r_epik_State_Penalty>
-0

> <r_epik_Charging_Adjusted_Penalty>
0

> <i_epik_Tot_Q>
0

> <i_epik_Tot_abs_Q>
0

> <r_epik_Metal_State_Penalty>
0.361675

> <b_epik_Metal_Only>
0

> <s_lp_Force_Field>
OPLS_2005

> <r_lp_Energy>
15.461

> <b_lp_Chiralities_Consistent>
1

> <s_lp_Variant>
AV-unprocessed.smi:1654-1

> <Gold.Version>
5.8.1

> <Gold.Id.Protein>
6NUR|6NUR_protein|mol2

> <Gold.PLP.Fitness>
49.8098

> <Gold.PLP.PLP>
-42.4250

> <Gold.PLP.part.hbond>
-1.3760

> <Gold.PLP.part.metal>
0.0000

> <Gold.PLP.part.buried>
-4.5491

> <Gold.PLP.part.nonpolar>
-37.8073

> <Gold.PLP.part.repulsive>
0.2029

> <Gold.PLP.ligand.clash>
0.0000

> <Gold.PLP.ligand.torsion>
1.8527

> <Gold.PLP.Chemscore.Hbond>
1.0000

> <Gold.PLP.Chemscore.CHOScore>
1.9959

> <Gold.PLP.Chemscore.Metal>
0.0000

> <Gold.Chemscore.Hbonds>
donor molecule, donor type, donor heavy atom, donor atom, acceptor molecule, acceptor atom, score
      P1  H  7997  8010       L1     3  0.10
      L1  C    10    27       P1 10175  1.00
      L1  C    12    28       P1  7948  1.00

> <Gold.PLP.Chemscore.Internal.Correction>
2.1026

> <Gold.Rescore>
     Score         DG    S(hbond)    S(metal)    S(lipo)     H(rot)  DE(clash)    DE(int)     intcor
     16.11     -18.10       1.00        0.00     111.50       1.47       0.05       1.94       ----

> <Gold.Chemscore.Fitness>
16.1117

> <Gold.Chemscore.DG>
-18.0962

> <Gold.Chemscore.ZeroCoef>
-5.4800

> <Gold.Chemscore.Hbond>
1.0000

> <Gold.Chemscore.Metal>
0.0000

> <Gold.Chemscore.Lipo>
111.5039

> <Gold.Chemscore.Internal_Hbond>
0.0000

> <Gold.Chemscore.DEClash>
0.0460

> <Gold.Chemscore.DEInternal>
1.9385

> <Gold.Chemscore.Rot>
1.4725

> <Gold.Chemscore.Internal.Correction>
   9.000000E+99

> <Gold.Chemscore.Hbonds>
donor molecule, donor type, donor heavy atom, donor atom, acceptor molecule, acceptor atom, score
      P1  H  7997  8010       L1     3  0.13

> <Gold.Chemscore.Hbond.Weighted>
-3.3399

> <Gold.Chemscore.Metal.Weighted>
-0.0000

> <Gold.Chemscore.Lipo.Weighted>
-13.0460

> <Gold.Chemscore.Internal_Hbond.Weighted>
0.0000

> <Gold.Chemscore.DEClash.Weighted>
0.0460

> <Gold.Chemscore.DEInternal.Weighted>
1.9385

> <Gold.Chemscore.Rot.Weighted>
3.7697

> <Gold.Chemscore.Internal.Correction.Weighted>
   9.000000E+99

> <Gold.Protein.RotatedTorsions>
[ 6907 6896 6895 6894 ] final   43.04 input  -60.11 | X-H torsion
[ 7974 7965 7964 7962 ] final  160.80 input  175.53 | X-H torsion
[ 8008 7997 7996 7995 ] final   38.59 input   59.86 | X-H torsion
[ 10167 10162 10161 10158 ] final   37.36 input  -65.29 | X-H torsion
[ 10718 10713 10712 10709 ] final   41.03 input   66.30 | X-H torsion
[ 10763 10752 10751 10750 ] final   50.19 input  -60.55 | X-H torsion
[ 11005 11000 10999 10996 ] final -141.23 input  -57.11 | X-H torsion

> <Gold.Protein.ActiveResidues>
 VAL166  LYS551  ARG553  GLY616  TRP617  ASP618  TYR619  PRO620  LYS621  CYS622 
 ASP623  PHE694  ASN695  SER759  ASP760  ASP761  ALA762  ILE779  LEU786  VAL792 
 PHE793  MET794  SER795  GLU796  ALA797  LYS798  CYS799  TRP800  GLU811  SER814 

> <Gold.Protein.RotatedAtoms>
  152.2153  134.8464  160.0492 H   0  0  0  0  0  0  0  0  0  0  0  0  # atno 6907 bound_to 6896
  151.9267  133.3595  159.3924 H   0  0  0  0  0  0  0  0  0  0  0  0  # atno 6908 bound_to 6896
  150.6986  134.4504  159.5378 H   0  0  0  0  0  0  0  0  0  0  0  0  # atno 6909 bound_to 6896
  144.7718  139.7808  143.6294 H   0  0  0  0  0  0  0  0  0  0  0  0  # atno 7974 bound_to 7965
  155.2226  140.3332  155.4313 H   0  0  0  0  0  0  0  0  0  0  0  0  # atno 8008 bound_to 7997
  156.2327  140.1858  156.7248 H   0  0  0  0  0  0  0  0  0  0  0  0  # atno 8009 bound_to 7997
  154.6005  140.0624  156.9348 H   0  0  0  0  0  0  0  0  0  0  0  0  # atno 8010 bound_to 7997
  140.4040  144.1684  150.6135 H   0  0  0  0  0  0  0  0  0  0  0  0  # atno 10167 bound_to 10162
  157.3889  130.7795  149.7253 H   0  0  0  0  0  0  0  0  0  0  0  0  # atno 10718 bound_to 10713
  152.9785  135.5887  154.4212 H   0  0  0  0  0  0  0  0  0  0  0  0  # atno 10763 bound_to 10752
  154.3837  135.2767  155.2198 H   0  0  0  0  0  0  0  0  0  0  0  0  # atno 10764 bound_to 10752
  154.4101  135.6083  153.6002 H   0  0  0  0  0  0  0  0  0  0  0  0  # atno 10765 bound_to 10752
  140.8344  134.2478  157.4841 H   0  0  0  0  0  0  0  0  0  0  0  0  # atno 11005 bound_to 11000
  146.1870  139.5090  142.9830 LP  0  0  0  0  0  0  0  0  0  0  0  0  # atno 17320 bound_to 7965
  145.6301  141.0306  143.1868 LP  0  0  0  0  0  0  0  0  0  0  0  0  # atno 17321 bound_to 7965
  140.4709  143.2413  151.9090 LP  0  0  0  0  0  0  0  0  0  0  0  0  # atno 17342 bound_to 10162
  139.4784  144.5370  151.8583 LP  0  0  0  0  0  0  0  0  0  0  0  0  # atno 17343 bound_to 10162
  155.9793  130.4041  150.3593 LP  0  0  0  0  0  0  0  0  0  0  0  0  # atno 17370 bound_to 10713
  157.1707  131.0368  151.2797 LP  0  0  0  0  0  0  0  0  0  0  0  0  # atno 17371 bound_to 10713
  139.8704  134.9603  156.4359 LP  0  0  0  0  0  0  0  0  0  0  0  0  # atno 17394 bound_to 11000
  140.8963  133.7812  155.9629 LP  0  0  0  0  0  0  0  0  0  0  0  0  # atno 17395 bound_to 11000

$$$$
