AV-unprocessed.smi:2197|AV-procd|sdf|8910|dock3
  -GOLD-   2272012123D 1   1.00000     0.00000
 Structure written by MMmdl.
 27 27  0  0  0  0  0  0  0  0  2 V2000
  151.8800  145.2409  160.4184 C   0  0  0  0  0  0  0  0  0  0  0  0
  151.6591  144.7202  158.9942 C   0  0  0  0  0  0  0  0  0  0  0  0
  150.4688  143.7517  158.9009 C   0  0  0  0  0  0  0  0  0  0  0  0
  150.2980  143.2390  157.5466 N   0  0  0  0  0  0  0  0  0  0  0  0
  150.6682  142.0186  157.1301 C   0  0  0  0  0  0  0  0  0  0  0  0
  151.1851  141.1809  157.8710 O   0  0  0  0  0  0  0  0  0  0  0  0
  150.3780  141.6921  155.6585 C   0  0  0  0  0  0  0  0  0  0  0  0
  150.6664  140.2910  155.3116 N   0  0  0  0  0  0  0  0  0  0  0  0
  151.9531  139.7988  155.5937 C   0  0  0  0  0  0  0  0  0  0  0  0
  152.3071  138.5312  155.3087 C   0  0  0  0  0  0  0  0  0  0  0  0
  151.3150  137.6596  154.6911 C   0  0  0  0  0  0  0  0  0  0  0  0
  151.6189  136.4975  154.4291 O   0  0  0  0  0  0  0  0  0  0  0  0
  150.0819  138.1853  154.4321 N   0  5  0  0  0  0  0  0  0  0  0  0
  149.7369  139.4778  154.7249 C   0  0  0  0  0  0  0  0  0  0  0  0
  148.6190  139.9330  154.4802 O   0  0  0  0  0  0  0  0  0  0  0  0
  152.7286  145.9243  160.4547 H   0  0  0  0  0  0  0  0  0  0  0  0
  152.0812  144.4232  161.1110 H   0  0  0  0  0  0  0  0  0  0  0  0
  151.0033  145.7793  160.7798 H   0  0  0  0  0  0  0  0  0  0  0  0
  151.5001  145.5682  158.3266 H   0  0  0  0  0  0  0  0  0  0  0  0
  152.5659  144.2218  158.6492 H   0  0  0  0  0  0  0  0  0  0  0  0
  150.6290  142.9021  159.5652 H   0  0  0  0  0  0  0  0  0  0  0  0
  149.5511  144.2383  159.2362 H   0  0  0  0  0  0  0  0  0  0  0  0
  149.8783  143.8615  156.8716 H   0  0  0  0  0  0  0  0  0  0  0  0
  149.3310  141.9247  155.4607 H   0  0  0  0  0  0  0  0  0  0  0  0
  150.9468  142.3628  155.0115 H   0  0  0  0  0  0  0  0  0  0  0  0
  152.6291  140.5102  156.0447 H   0  0  0  0  0  0  0  0  0  0  0  0
  153.3007  138.1694  155.5285 H   0  0  0  0  0  0  0  0  0  0  0  0
  1  2  1  0  0  0  0
  1 16  1  0  0  0  0
  1 17  1  0  0  0  0
  1 18  1  0  0  0  0
  2  3  1  0  0  0  0
  2 19  1  0  0  0  0
  2 20  1  0  0  0  0
  3  4  1  0  0  0  0
  3 21  1  0  0  0  0
  3 22  1  0  0  0  0
  4  5  1  0  0  0  0
  4 23  1  0  0  0  0
  5  6  2  0  0  0  0
  5  7  1  0  0  0  0
  7  8  1  0  0  0  0
  7 24  1  0  0  0  0
  7 25  1  0  0  0  0
  8 14  1  0  0  0  0
  8  9  1  0  0  0  0
  9 10  2  0  0  0  0
  9 26  1  0  0  0  0
 10 11  1  0  0  0  0
 10 27  1  0  0  0  0
 11 12  2  0  0  0  0
 11 13  1  0  0  0  0
 13 14  1  0  0  0  0
 14 15  2  0  0  0  0
M  CHG  1  13  -1
M  END
> <s_m_source_file>
AV-unprocessed.smi

> <i_m_source_file_index>
2197

> <i_lp_mmshare_version>
43012

> <i_f3d_flags>
0

> <s_epik_input>
W0NIM11bQ0gyXVtDSDJdW05IXUMoPU8pW0NIMl1uMVtjSF1bY0hdYyg9TylbbkhdYzE9Tw==

> <s_epik_cmdline>
J2VwaWtfcHl0aG9uJywgJy1waCcsICc3LjAnLCAnLXRuJywgJzgnLCAnLW1hJywgJzIwMCcsICctbWV0YWxfYmluZGluZycsICctaW1hZScsICc8aW5maWxlLm1hZT4nLCAnLW9tYWUnLCAnPG91dGZpbGUubWFlPic=

> <r_lp_tautomer_probability>
0.999537

> <r_epik_Ionization_Penalty>
3.07884

> <r_epik_Ionization_Penalty_Charging>
2.69291e-08

> <r_epik_Ionization_Penalty_Neutral>
3.07884

> <r_epik_State_Penalty>
3.07787

> <r_epik_Charging_Adjusted_Penalty>
3.07787

> <i_epik_Tot_Q>
-1

> <i_epik_Tot_abs_Q>
1

> <r_epik_Metal_State_Penalty>
0.459856

> <b_epik_Metal_Only>
1

> <s_lp_Force_Field>
OPLS_2005

> <r_lp_Energy>
11.489

> <b_lp_Chiralities_Consistent>
1

> <s_lp_Variant>
AV-unprocessed.smi:2197-2

> <Gold.Version>
5.8.1

> <Gold.Id.Protein>
6NUR|6NUR_protein|mol2

> <Gold.PLP.Fitness>
38.1340

> <Gold.PLP.PLP>
-32.4827

> <Gold.PLP.part.hbond>
-2.0000

> <Gold.PLP.part.metal>
0.0000

> <Gold.PLP.part.buried>
-3.8897

> <Gold.PLP.part.nonpolar>
-26.8942

> <Gold.PLP.part.repulsive>
1.0545

> <Gold.PLP.ligand.clash>
0.0000

> <Gold.PLP.ligand.torsion>
0.1846

> <Gold.PLP.Chemscore.Hbond>
2.0000

> <Gold.PLP.Chemscore.CHOScore>
0.0000

> <Gold.PLP.Chemscore.Metal>
0.0000

> <Gold.Chemscore.Hbonds>
donor molecule, donor type, donor heavy atom, donor atom, acceptor molecule, acceptor atom, score
      L1  H     4    23       P1  8028  1.00
      P1  H 10752 10763       L1    12  1.00

> <Gold.PLP.Chemscore.Internal.Correction>
0.0205

> <Gold.Rescore>
     Score         DG    S(hbond)    S(metal)    S(lipo)     H(rot)  DE(clash)    DE(int)     intcor
     11.83     -13.46       1.95        0.00      56.28       2.00       0.06       1.57       ----

> <Gold.Chemscore.Fitness>
11.8312

> <Gold.Chemscore.DG>
-13.4581

> <Gold.Chemscore.ZeroCoef>
-5.4800

> <Gold.Chemscore.Hbond>
1.9511

> <Gold.Chemscore.Metal>
0.0000

> <Gold.Chemscore.Lipo>
56.2843

> <Gold.Chemscore.Internal_Hbond>
0.0000

> <Gold.Chemscore.DEClash>
0.0590

> <Gold.Chemscore.DEInternal>
1.5680

> <Gold.Chemscore.Rot>
2.0015

> <Gold.Chemscore.Internal.Correction>
   9.000000E+99

> <Gold.Chemscore.Hbonds>
donor molecule, donor type, donor heavy atom, donor atom, acceptor molecule, acceptor atom, score
      L1  H     4    23       P1  8028  0.98
      P1  H 10752 10763       L1    12  0.97

> <Gold.Chemscore.Hbond.Weighted>
-6.5168

> <Gold.Chemscore.Metal.Weighted>
-0.0000

> <Gold.Chemscore.Lipo.Weighted>
-6.5853

> <Gold.Chemscore.Internal_Hbond.Weighted>
0.0000

> <Gold.Chemscore.DEClash.Weighted>
0.0590

> <Gold.Chemscore.DEInternal.Weighted>
1.5680

> <Gold.Chemscore.Rot.Weighted>
5.1240

> <Gold.Chemscore.Internal.Correction.Weighted>
   9.000000E+99

> <Gold.Protein.RotatedTorsions>
[ 6907 6896 6895 6894 ] final  -45.02 input  -60.11 | X-H torsion
[ 7974 7965 7964 7962 ] final  178.22 input  175.53 | X-H torsion
[ 8008 7997 7996 7995 ] final  -75.46 input   59.86 | X-H torsion
[ 10167 10162 10161 10158 ] final  -60.54 input  -65.29 | X-H torsion
[ 10718 10713 10712 10709 ] final   72.13 input   66.30 | X-H torsion
[ 10763 10752 10751 10750 ] final   30.54 input  -60.55 | X-H torsion
[ 11005 11000 10999 10996 ] final -144.42 input  -57.11 | X-H torsion

> <Gold.Protein.ActiveResidues>
 VAL166  LYS551  ARG553  GLY616  TRP617  ASP618  TYR619  PRO620  LYS621  CYS622 
 ASP623  PHE694  ASN695  SER759  ASP760  ASP761  ALA762  ILE779  LEU786  VAL792 
 PHE793  MET794  SER795  GLU796  ALA797  LYS798  CYS799  TRP800  GLU811  SER814 

> <Gold.Protein.RotatedAtoms>
  150.9265  134.8681  159.7522 H   0  0  0  0  0  0  0  0  0  0  0  0  # atno 6907 bound_to 6896
  152.5018  134.4142  159.9469 H   0  0  0  0  0  0  0  0  0  0  0  0  # atno 6908 bound_to 6896
  151.4172  133.3669  159.2786 H   0  0  0  0  0  0  0  0  0  0  0  0  # atno 6909 bound_to 6896
  144.7159  140.0365  143.6438 H   0  0  0  0  0  0  0  0  0  0  0  0  # atno 7974 bound_to 7965
  154.5418  140.0744  156.8523 H   0  0  0  0  0  0  0  0  0  0  0  0  # atno 8008 bound_to 7997
  155.3165  140.3393  155.4224 H   0  0  0  0  0  0  0  0  0  0  0  0  # atno 8009 bound_to 7997
  156.1882  140.1676  156.8131 H   0  0  0  0  0  0  0  0  0  0  0  0  # atno 8010 bound_to 7997
  140.6064  143.2375  151.5810 H   0  0  0  0  0  0  0  0  0  0  0  0  # atno 10167 bound_to 10162
  157.6486  130.9563  150.0886 H   0  0  0  0  0  0  0  0  0  0  0  0  # atno 10718 bound_to 10713
  153.0366  135.6461  154.1060 H   0  0  0  0  0  0  0  0  0  0  0  0  # atno 10763 bound_to 10752
  154.0774  135.2876  155.3298 H   0  0  0  0  0  0  0  0  0  0  0  0  # atno 10764 bound_to 10752
  154.6553  135.5411  153.8016 H   0  0  0  0  0  0  0  0  0  0  0  0  # atno 10765 bound_to 10752
  140.8026  134.2839  157.4973 H   0  0  0  0  0  0  0  0  0  0  0  0  # atno 11005 bound_to 11000
  146.0059  139.3129  143.0900 LP  0  0  0  0  0  0  0  0  0  0  0  0  # atno 17320 bound_to 7965
  145.8739  140.9403  143.0636 LP  0  0  0  0  0  0  0  0  0  0  0  0  # atno 17321 bound_to 7965
  139.5328  144.2866  152.1186 LP  0  0  0  0  0  0  0  0  0  0  0  0  # atno 17342 bound_to 10162
  140.2056  144.4614  150.6410 LP  0  0  0  0  0  0  0  0  0  0  0  0  # atno 17343 bound_to 10162
  156.1841  130.3651  149.8996 LP  0  0  0  0  0  0  0  0  0  0  0  0  # atno 17370 bound_to 10713
  156.6940  130.8907  151.3591 LP  0  0  0  0  0  0  0  0  0  0  0  0  # atno 17371 bound_to 10713
  139.8720  134.9438  156.3863 LP  0  0  0  0  0  0  0  0  0  0  0  0  # atno 17394 bound_to 11000
  140.9279  133.7599  155.9988 LP  0  0  0  0  0  0  0  0  0  0  0  0  # atno 17395 bound_to 11000

$$$$
