AV-unprocessed.smi:48|AV-procd|sdf|455|dock4
  -GOLD-   2262016323D 1   1.00000     0.00000
 Structure written by MMmdl.
 30 32  0  0  0  0  0  0  0  0  1 V2000
  147.2631  133.2331  151.6906 O   0  0  0  0  0  0  0  0  0  0  0  0
  145.9036  133.2885  152.0660 C   0  0  0  0  0  0  0  0  0  0  0  0
  145.3352  134.6916  151.7892 C   0  0  1  0  0  0  0  0  0  0  0  0
  143.9170  134.6908  151.8616 O   0  0  0  0  0  0  0  0  0  0  0  0
  143.4722  135.9995  152.0258 C   0  0  1  0  0  0  0  0  0  0  0  0
  142.2596  135.9736  152.8971 N   0  0  0  0  0  0  0  0  0  0  0  0
  141.7332  134.9052  153.5291 C   0  0  0  0  0  0  0  0  0  0  0  0
  140.6346  135.1017  154.2568 N   0  0  0  0  0  0  0  0  0  0  0  0
  140.4240  136.4590  154.0774 C   0  0  0  0  0  0  0  0  0  0  0  0
  139.4338  137.3481  154.5615 C   0  0  0  0  0  0  0  0  0  0  0  0
  138.1656  136.7903  155.5903 Cl  0  0  0  0  0  0  0  0  0  0  0  0
  139.5028  138.6510  154.1981 N   0  0  0  0  0  0  0  0  0  0  0  0
  140.4975  139.0567  153.3996 C   0  0  0  0  0  0  0  0  0  0  0  0
  141.4949  138.3400  152.8697 N   0  0  0  0  0  0  0  0  0  0  0  0
  141.4233  137.0258  153.2355 C   0  0  0  0  0  0  0  0  0  0  0  0
  144.6064  136.8048  152.6836 C   0  0  2  0  0  0  0  0  0  0  0  0
  145.0158  137.8730  151.8536 O   0  0  0  0  0  0  0  0  0  0  0  0
  145.7362  135.7833  152.7936 C   0  0  1  0  0  0  0  0  0  0  0  0
  145.8162  135.2772  154.1129 O   0  0  0  0  0  0  0  0  0  0  0  0
  145.6280  135.0265  150.7921 H   0  0  0  0  0  0  0  0  0  0  0  0
  143.1323  136.4119  151.0741 H   0  0  0  0  0  0  0  0  0  0  0  0
  144.3038  137.2018  153.6543 H   0  0  0  0  0  0  0  0  0  0  0  0
  146.7113  136.2071  152.5485 H   0  0  0  0  0  0  0  0  0  0  0  0
  147.6466  132.4540  152.0635 H   0  0  0  0  0  0  0  0  0  0  0  0
  145.3352  132.5187  151.5425 H   0  0  0  0  0  0  0  0  0  0  0  0
  145.8523  133.0651  153.1320 H   0  0  0  0  0  0  0  0  0  0  0  0
  142.1804  133.9252  153.4470 H   0  0  0  0  0  0  0  0  0  0  0  0
  140.4943  140.1069  153.1481 H   0  0  0  0  0  0  0  0  0  0  0  0
  144.4733  138.6234  152.0427 H   0  0  0  0  0  0  0  0  0  0  0  0
  145.5683  135.9625  154.7140 H   0  0  0  0  0  0  0  0  0  0  0  0
  1  2  1  0  0  0  0
  1 24  1  0  0  0  0
  2  3  1  0  0  0  0
  2 25  1  0  0  0  0
  2 26  1  0  0  0  0
  3 20  1  0  0  0  0
  3 18  1  0  0  0  0
  3  4  1  0  0  0  0
  4  5  1  0  0  0  0
  5 21  1  0  0  0  0
  5  6  1  0  0  0  0
  5 16  1  0  0  0  0
  6 15  1  0  0  0  0
  6  7  1  0  0  0  0
  7  8  2  0  0  0  0
  7 27  1  0  0  0  0
  8  9  1  0  0  0  0
  9 15  2  0  0  0  0
  9 10  1  0  0  0  0
 10 11  1  0  0  0  0
 10 12  2  0  0  0  0
 12 13  1  0  0  0  0
 13 14  2  0  0  0  0
 13 28  1  0  0  0  0
 14 15  1  0  0  0  0
 16 22  1  0  0  0  0
 16 17  1  0  0  0  0
 16 18  1  0  0  0  0
 17 29  1  0  0  0  0
 18 23  1  0  0  0  0
 18 19  1  0  0  0  0
 19 30  1  0  0  0  0
M  END
> <s_m_source_file>
AV-unprocessed.smi

> <i_m_source_file_index>
48

> <i_lp_mmshare_version>
43012

> <i_f3d_flags>
0

> <s_epik_input>
W09IXVtDSDJdW0NASF0xT1tDQEhdKFtDQEhdKFtPSF0pW0NAQEhdMVtPSF0pbihbY0hdbjIpYyhjMjMpbltjSF1uYzNDbA==

> <s_epik_cmdline>
J2VwaWtfcHl0aG9uJywgJy1waCcsICc3LjAnLCAnLXRuJywgJzgnLCAnLW1hJywgJzIwMCcsICctbWV0YWxfYmluZGluZycsICctaW1hZScsICc8aW5maWxlLm1hZT4nLCAnLW9tYWUnLCAnPG91dGZpbGUubWFlPic=

> <r_lp_tautomer_probability>
1

> <r_epik_Ionization_Penalty>
3.45505e-06

> <r_epik_Ionization_Penalty_Charging>
0

> <r_epik_Ionization_Penalty_Neutral>
3.45505e-06

> <r_epik_State_Penalty>
-0

> <r_epik_Charging_Adjusted_Penalty>
0

> <i_epik_Tot_Q>
0

> <i_epik_Tot_abs_Q>
0

> <r_epik_Metal_State_Penalty>
-0

> <b_epik_Metal_Only>
0

> <s_epik_Chemistry_Notes>
This compound contains an acetal/aminal-like group ( X-CH(R)-Y where X, Y are N, S, or O) that may be acid/base labile, releasing an aldehyde.

> <s_lp_Force_Field>
OPLS_2005

> <r_lp_Energy>
33.2991

> <b_lp_Chiralities_Consistent>
1

> <s_lp_Variant>
AV-unprocessed.smi:48-9

> <Gold.Version>
5.8.1

> <Gold.Id.Protein>
6NUR|6NUR_protein|mol2

> <Gold.PLP.Fitness>
36.8920

> <Gold.PLP.PLP>
-26.9961

> <Gold.PLP.part.hbond>
-4.2300

> <Gold.PLP.part.metal>
0.0000

> <Gold.PLP.part.buried>
-6.4612

> <Gold.PLP.part.nonpolar>
-18.6065

> <Gold.PLP.part.repulsive>
1.8697

> <Gold.PLP.ligand.clash>
0.0000

> <Gold.PLP.ligand.torsion>
0.1951

> <Gold.PLP.Chemscore.Hbond>
2.0000

> <Gold.PLP.Chemscore.CHOScore>
1.4268

> <Gold.PLP.Chemscore.Metal>
0.0000

> <Gold.Chemscore.Hbonds>
donor molecule, donor type, donor heavy atom, donor atom, acceptor molecule, acceptor atom, score
      L1  H    17    29       P1 10175  1.00
      P1  H 11000 11005       L1     8  1.00
      L1  C     7    27       P1 10957  0.90
      L1  C    13    28       P1 10160  0.68

> <Gold.PLP.Chemscore.Internal.Correction>
0.0057

> <Gold.Rescore>
     Score         DG    S(hbond)    S(metal)    S(lipo)     H(rot)  DE(clash)    DE(int)     intcor
      5.87      -6.22       1.96        0.00      33.56       3.80       0.27       0.08       ----

> <Gold.Chemscore.Fitness>
5.8694

> <Gold.Chemscore.DG>
-6.2166

> <Gold.Chemscore.ZeroCoef>
-5.4800

> <Gold.Chemscore.Hbond>
1.9590

> <Gold.Chemscore.Metal>
0.0000

> <Gold.Chemscore.Lipo>
33.5559

> <Gold.Chemscore.Internal_Hbond>
0.0000

> <Gold.Chemscore.DEClash>
0.2668

> <Gold.Chemscore.DEInternal>
0.0803

> <Gold.Chemscore.Rot>
3.8017

> <Gold.Chemscore.Internal.Correction>
   9.000000E+99

> <Gold.Chemscore.Hbonds>
donor molecule, donor type, donor heavy atom, donor atom, acceptor molecule, acceptor atom, score
      L1  H    17    29       P1 10175  0.93
      P1  H 11000 11005       L1     8  0.98

> <Gold.Chemscore.Hbond.Weighted>
-6.5429

> <Gold.Chemscore.Metal.Weighted>
-0.0000

> <Gold.Chemscore.Lipo.Weighted>
-3.9260

> <Gold.Chemscore.Internal_Hbond.Weighted>
0.0000

> <Gold.Chemscore.DEClash.Weighted>
0.2668

> <Gold.Chemscore.DEInternal.Weighted>
0.0803

> <Gold.Chemscore.Rot.Weighted>
9.7324

> <Gold.Chemscore.Internal.Correction.Weighted>
   9.000000E+99

> <Gold.Protein.RotatedTorsions>
[ 6907 6896 6895 6894 ] final  -67.59 input  -60.11 | X-H torsion
[ 7974 7965 7964 7962 ] final  -20.62 input  175.53 | X-H torsion
[ 8008 7997 7996 7995 ] final -145.60 input   59.86 | X-H torsion
[ 10167 10162 10161 10158 ] final  -45.88 input  -65.29 | X-H torsion
[ 10718 10713 10712 10709 ] final -174.60 input   66.30 | X-H torsion
[ 10763 10752 10751 10750 ] final  156.70 input  -60.55 | X-H torsion
[ 11005 11000 10999 10996 ] final   29.85 input  -57.11 | X-H torsion

> <Gold.Protein.ActiveResidues>
 VAL166  LYS551  ARG553  GLY616  TRP617  ASP618  TYR619  PRO620  LYS621  CYS622 
 ASP623  PHE694  ASN695  SER759  ASP760  ASP761  ALA762  ILE779  LEU786  VAL792 
 PHE793  MET794  SER795  GLU796  ALA797  LYS798  CYS799  TRP800  GLU811  SER814 

> <Gold.Protein.RotatedAtoms>
  150.7401  134.5859  159.5962 H   0  0  0  0  0  0  0  0  0  0  0  0  # atno 6907 bound_to 6896
  152.3260  134.7317  160.0311 H   0  0  0  0  0  0  0  0  0  0  0  0  # atno 6908 bound_to 6896
  151.7817  133.3314  159.3510 H   0  0  0  0  0  0  0  0  0  0  0  0  # atno 6909 bound_to 6896
  146.1778  140.4227  142.8506 H   0  0  0  0  0  0  0  0  0  0  0  0  # atno 7974 bound_to 7965
  155.5458  140.0612  157.2860 H   0  0  0  0  0  0  0  0  0  0  0  0  # atno 8008 bound_to 7997
  154.4437  140.1911  156.0681 H   0  0  0  0  0  0  0  0  0  0  0  0  # atno 8009 bound_to 7997
  156.0552  140.3279  155.7400 H   0  0  0  0  0  0  0  0  0  0  0  0  # atno 8010 bound_to 7997
  140.6840  143.2858  151.3703 H   0  0  0  0  0  0  0  0  0  0  0  0  # atno 10167 bound_to 10162
  156.7874  130.9506  151.3120 H   0  0  0  0  0  0  0  0  0  0  0  0  # atno 10718 bound_to 10713
  154.1886  135.2796  155.3029 H   0  0  0  0  0  0  0  0  0  0  0  0  # atno 10763 bound_to 10752
  154.5947  135.5548  153.7317 H   0  0  0  0  0  0  0  0  0  0  0  0  # atno 10764 bound_to 10752
  153.0118  135.6377  154.2024 H   0  0  0  0  0  0  0  0  0  0  0  0  # atno 10765 bound_to 10752
  140.3006  134.2761  155.7755 H   0  0  0  0  0  0  0  0  0  0  0  0  # atno 11005 bound_to 11000
  144.8265  140.6636  143.6319 LP  0  0  0  0  0  0  0  0  0  0  0  0  # atno 17320 bound_to 7965
  145.4162  139.1571  143.4099 LP  0  0  0  0  0  0  0  0  0  0  0  0  # atno 17321 bound_to 7965
  139.6184  144.0957  152.2367 LP  0  0  0  0  0  0  0  0  0  0  0  0  # atno 17342 bound_to 10162
  140.0393  144.6020  150.7424 LP  0  0  0  0  0  0  0  0  0  0  0  0  # atno 17343 bound_to 10162
  157.6617  130.8972  149.9844 LP  0  0  0  0  0  0  0  0  0  0  0  0  # atno 17370 bound_to 10713
  156.1180  130.3647  149.9935 LP  0  0  0  0  0  0  0  0  0  0  0  0  # atno 17371 bound_to 10713
  141.2129  133.7644  156.9761 LP  0  0  0  0  0  0  0  0  0  0  0  0  # atno 17394 bound_to 11000
  140.1112  134.9475  157.2068 LP  0  0  0  0  0  0  0  0  0  0  0  0  # atno 17395 bound_to 11000

$$$$
