AV-unprocessed.smi:690|AV-procd|sdf|3363|dock8
  -GOLD-   22720 0343D 1   1.00000     0.00000
 Structure written by MMmdl.
 46 48  0  0  0  0  0  0  0  0  1 V2000
  146.8769  134.9341  157.8497 C   0  0  0  0  0  0  0  0  0  0  0  0
  147.5663  133.5683  157.8510 C   0  0  0  0  0  0  0  0  0  0  0  0
  147.8210  133.1814  156.5113 O   0  0  0  0  0  0  0  0  0  0  0  0
  148.5972  134.1345  155.8023 C   0  0  1  0  0  0  0  0  0  0  0  0
  149.9016  134.5414  156.4953 C   0  0  0  0  0  0  0  0  0  0  0  0
  150.5668  134.4955  155.1149 C   0  0  2  0  0  0  0  0  0  0  0  0
  150.4966  135.7999  154.4583 N   0  0  0  0  0  0  0  0  0  0  0  0
  151.2013  136.8867  154.8122 C   0  0  0  0  0  0  0  0  0  0  0  0
  151.9748  136.8959  155.7687 O   0  0  0  0  0  0  0  0  0  0  0  0
  151.0436  138.1611  153.9646 C   0  0  0  0  0  0  0  0  0  0  0  0
  150.5990  139.3496  154.7152 N   0  0  0  0  0  0  0  0  0  0  0  0
  149.3497  139.8955  154.3583 C   0  0  0  0  0  0  0  0  0  0  0  0
  148.8375  140.9666  154.9842 C   0  0  0  0  0  0  0  0  0  0  0  0
  149.6050  141.5650  156.0505 C   0  0  0  0  0  0  0  0  0  0  0  0
  150.7991  141.0484  156.4031 C   0  0  0  0  0  0  0  0  0  0  0  0
  151.3593  139.8729  155.7263 C   0  0  0  0  0  0  0  0  0  0  0  0
  152.4403  139.3839  156.0541 O   0  0  0  0  0  0  0  0  0  0  0  0
  149.4459  133.5240  154.6601 C   0  0  0  0  0  0  0  0  0  0  0  0
  148.8817  133.6209  153.2440 C   0  0  0  0  0  0  0  0  0  0  0  0
  148.0915  132.3352  152.9934 C   0  0  0  0  0  0  0  0  0  0  0  0
  148.6994  131.2884  153.9321 C   0  0  0  0  0  0  0  0  0  0  0  0
  149.7615  132.0288  154.7515 C   0  0  0  0  0  0  0  0  0  0  0  0
  146.6707  135.2675  158.8669 H   0  0  0  0  0  0  0  0  0  0  0  0
  145.9292  134.8930  157.3121 H   0  0  0  0  0  0  0  0  0  0  0  0
  147.5024  135.6874  157.3705 H   0  0  0  0  0  0  0  0  0  0  0  0
  148.5022  133.6239  158.4092 H   0  0  0  0  0  0  0  0  0  0  0  0
  146.9299  132.8325  158.3446 H   0  0  0  0  0  0  0  0  0  0  0  0
  148.0138  134.9949  155.4662 H   0  0  0  0  0  0  0  0  0  0  0  0
  149.8789  135.5216  156.9729 H   0  0  0  0  0  0  0  0  0  0  0  0
  150.2813  133.7743  157.1721 H   0  0  0  0  0  0  0  0  0  0  0  0
  151.5637  134.0521  155.1358 H   0  0  0  0  0  0  0  0  0  0  0  0
  149.8823  135.8743  153.6607 H   0  0  0  0  0  0  0  0  0  0  0  0
  151.9887  138.3564  153.4552 H   0  0  0  0  0  0  0  0  0  0  0  0
  150.3345  137.9469  153.1637 H   0  0  0  0  0  0  0  0  0  0  0  0
  148.8378  139.3841  153.5558 H   0  0  0  0  0  0  0  0  0  0  0  0
  147.8758  141.3680  154.7000 H   0  0  0  0  0  0  0  0  0  0  0  0
  149.2198  142.4311  156.5682 H   0  0  0  0  0  0  0  0  0  0  0  0
  151.3586  141.5095  157.2038 H   0  0  0  0  0  0  0  0  0  0  0  0
  148.2586  134.5041  153.0988 H   0  0  0  0  0  0  0  0  0  0  0  0
  149.6974  133.6872  152.5227 H   0  0  0  0  0  0  0  0  0  0  0  0
  147.0417  132.4887  153.2460 H   0  0  0  0  0  0  0  0  0  0  0  0
  148.1380  132.0306  151.9475 H   0  0  0  0  0  0  0  0  0  0  0  0
  147.9272  130.8821  154.5863 H   0  0  0  0  0  0  0  0  0  0  0  0
  149.1361  130.4536  153.3827 H   0  0  0  0  0  0  0  0  0  0  0  0
  150.7443  131.8331  154.3207 H   0  0  0  0  0  0  0  0  0  0  0  0
  149.7969  131.6635  155.7783 H   0  0  0  0  0  0  0  0  0  0  0  0
  1  2  1  0  0  0  0
  1 23  1  0  0  0  0
  1 24  1  0  0  0  0
  1 25  1  0  0  0  0
  2  3  1  0  0  0  0
  2 26  1  0  0  0  0
  2 27  1  0  0  0  0
  3  4  1  0  0  0  0
  4 18  1  0  0  0  0
  4  5  1  0  0  0  0
  4 28  1  0  0  0  0
  5  6  1  0  0  0  0
  5 29  1  0  0  0  0
  5 30  1  0  0  0  0
  6  7  1  0  0  0  0
  6 18  1  0  0  0  0
  6 31  1  0  0  0  0
  7  8  1  0  0  0  0
  7 32  1  0  0  0  0
  8  9  2  0  0  0  0
  8 10  1  0  0  0  0
 10 11  1  0  0  0  0
 10 33  1  0  0  0  0
 10 34  1  0  0  0  0
 11 16  1  0  0  0  0
 11 12  1  0  0  0  0
 12 13  2  0  0  0  0
 12 35  1  0  0  0  0
 13 14  1  0  0  0  0
 13 36  1  0  0  0  0
 14 15  2  0  0  0  0
 14 37  1  0  0  0  0
 15 16  1  0  0  0  0
 15 38  1  0  0  0  0
 16 17  2  0  0  0  0
 18 22  1  0  0  0  0
 18 19  1  0  0  0  0
 19 20  1  0  0  0  0
 19 39  1  0  0  0  0
 19 40  1  0  0  0  0
 20 21  1  0  0  0  0
 20 41  1  0  0  0  0
 20 42  1  0  0  0  0
 21 22  1  0  0  0  0
 21 43  1  0  0  0  0
 21 44  1  0  0  0  0
 22 45  1  0  0  0  0
 22 46  1  0  0  0  0
M  END
> <s_m_source_file>
AV-unprocessed.smi

> <i_m_source_file_index>
690

> <i_lp_mmshare_version>
43012

> <i_f3d_flags>
0

> <s_epik_input>
W0NIMl0xW0NIMl1bQ0gyXVtDSDJdQzEyW0NASF0oT1tDSDJdW0NIM10pW0NIMl1bQ0BIXTJbTkhdQyg9TylbQ0gyXW4zW2NIXVtjSF1bY0hdW2NIXWMzPU8=

> <s_epik_cmdline>
J2VwaWtfcHl0aG9uJywgJy1waCcsICc3LjAnLCAnLXRuJywgJzgnLCAnLW1hJywgJzIwMCcsICctbWV0YWxfYmluZGluZycsICctaW1hZScsICc8aW5maWxlLm1hZT4nLCAnLW9tYWUnLCAnPG91dGZpbGUubWFlPic=

> <r_lp_tautomer_probability>
1

> <r_epik_Ionization_Penalty>
4.11691e-07

> <r_epik_Ionization_Penalty_Charging>
3.92797e-07

> <r_epik_Ionization_Penalty_Neutral>
1.88943e-08

> <r_epik_State_Penalty>
-0

> <r_epik_Charging_Adjusted_Penalty>
3.92797e-07

> <i_epik_Tot_Q>
0

> <i_epik_Tot_abs_Q>
0

> <r_epik_Metal_State_Penalty>
-0

> <b_epik_Metal_Only>
0

> <s_lp_Force_Field>
OPLS_2005

> <r_lp_Energy>
47.2811

> <b_lp_Chiralities_Consistent>
1

> <s_lp_Variant>
AV-unprocessed.smi:690-4

> <Gold.Version>
5.8.1

> <Gold.Id.Protein>
6NUR|6NUR_protein|mol2

> <Gold.PLP.Fitness>
45.9448

> <Gold.PLP.PLP>
-35.7207

> <Gold.PLP.part.hbond>
-3.9088

> <Gold.PLP.part.metal>
0.0000

> <Gold.PLP.part.buried>
2.2467

> <Gold.PLP.part.nonpolar>
-32.6044

> <Gold.PLP.part.repulsive>
0.1171

> <Gold.PLP.ligand.clash>
0.0000

> <Gold.PLP.ligand.torsion>
0.3113

> <Gold.PLP.Chemscore.Hbond>
2.8760

> <Gold.PLP.Chemscore.CHOScore>
0.6235

> <Gold.PLP.Chemscore.Metal>
0.0000

> <Gold.Chemscore.Hbonds>
donor molecule, donor type, donor heavy atom, donor atom, acceptor molecule, acceptor atom, score
      L1  H     7    32       P1  7948  0.70
      P1  H  7997  8008       L1    17  0.62
      P1  H 10752 10765       L1     9  0.70
      L1  C    12    35       P1  7957  0.59

> <Gold.PLP.Chemscore.Internal.Correction>
0.3481

> <Gold.Rescore>
     Score         DG    S(hbond)    S(metal)    S(lipo)     H(rot)  DE(clash)    DE(int)     intcor
     14.73     -17.00       2.08        0.00      76.10       1.69       0.42       1.85       ----

> <Gold.Chemscore.Fitness>
14.7345

> <Gold.Chemscore.DG>
-17.0040

> <Gold.Chemscore.ZeroCoef>
-5.4800

> <Gold.Chemscore.Hbond>
2.0798

> <Gold.Chemscore.Metal>
0.0000

> <Gold.Chemscore.Lipo>
76.1007

> <Gold.Chemscore.Internal_Hbond>
0.0000

> <Gold.Chemscore.DEClash>
0.4219

> <Gold.Chemscore.DEInternal>
1.8476

> <Gold.Chemscore.Rot>
1.6900

> <Gold.Chemscore.Internal.Correction>
   9.000000E+99

> <Gold.Chemscore.Hbonds>
donor molecule, donor type, donor heavy atom, donor atom, acceptor molecule, acceptor atom, score
      L1  H     7    32       P1  7948  0.07
      P1  H  7997  8008       L1    17  0.61
      P1  H 10752 10765       L1     9  0.07

> <Gold.Chemscore.Hbond.Weighted>
-6.9467

> <Gold.Chemscore.Metal.Weighted>
-0.0000

> <Gold.Chemscore.Lipo.Weighted>
-8.9038

> <Gold.Chemscore.Internal_Hbond.Weighted>
0.0000

> <Gold.Chemscore.DEClash.Weighted>
0.4219

> <Gold.Chemscore.DEInternal.Weighted>
1.8476

> <Gold.Chemscore.Rot.Weighted>
4.3265

> <Gold.Chemscore.Internal.Correction.Weighted>
   9.000000E+99

> <Gold.Protein.RotatedTorsions>
[ 6907 6896 6895 6894 ] final  -51.73 input  -60.11 | X-H torsion
[ 7974 7965 7964 7962 ] final   39.13 input  175.53 | X-H torsion
[ 8008 7997 7996 7995 ] final  -15.73 input   59.86 | X-H torsion
[ 10167 10162 10161 10158 ] final -131.53 input  -65.29 | X-H torsion
[ 10718 10713 10712 10709 ] final   36.96 input   66.30 | X-H torsion
[ 10763 10752 10751 10750 ] final -151.44 input  -60.55 | X-H torsion
[ 11005 11000 10999 10996 ] final   19.14 input  -57.11 | X-H torsion

> <Gold.Protein.ActiveResidues>
 VAL166  LYS551  ARG553  GLY616  TRP617  ASP618  TYR619  PRO620  LYS621  CYS622 
 ASP623  PHE694  ASN695  SER759  ASP760  ASP761  ALA762  ILE779  LEU786  VAL792 
 PHE793  MET794  SER795  GLU796  ALA797  LYS798  CYS799  TRP800  GLU811  SER814 

> <Gold.Protein.RotatedAtoms>
  150.8584  134.7929  159.7063 H   0  0  0  0  0  0  0  0  0  0  0  0  # atno 6907 bound_to 6896
  152.4629  134.5140  159.9772 H   0  0  0  0  0  0  0  0  0  0  0  0  # atno 6908 bound_to 6896
  151.5248  133.3421  159.2943 H   0  0  0  0  0  0  0  0  0  0  0  0  # atno 6909 bound_to 6896
  146.1008  139.5688  142.9415 H   0  0  0  0  0  0  0  0  0  0  0  0  # atno 7974 bound_to 7965
  154.5107  140.2188  155.9161 H   0  0  0  0  0  0  0  0  0  0  0  0  # atno 8008 bound_to 7997
  156.1549  140.3154  155.8675 H   0  0  0  0  0  0  0  0  0  0  0  0  # atno 8009 bound_to 7997
  155.3866  140.0475  157.3033 H   0  0  0  0  0  0  0  0  0  0  0  0  # atno 8010 bound_to 7997
  139.9180  143.6416  152.2560 H   0  0  0  0  0  0  0  0  0  0  0  0  # atno 10167 bound_to 10162
  157.3412  130.7549  149.6913 H   0  0  0  0  0  0  0  0  0  0  0  0  # atno 10718 bound_to 10713
  154.8057  135.3260  154.7436 H   0  0  0  0  0  0  0  0  0  0  0  0  # atno 10763 bound_to 10752
  153.8095  135.6897  153.4847 H   0  0  0  0  0  0  0  0  0  0  0  0  # atno 10764 bound_to 10752
  153.1801  135.4590  154.9962 H   0  0  0  0  0  0  0  0  0  0  0  0  # atno 10765 bound_to 10752
  140.4170  134.1559  155.7670 H   0  0  0  0  0  0  0  0  0  0  0  0  # atno 11005 bound_to 11000
  145.5858  141.0376  143.2097 LP  0  0  0  0  0  0  0  0  0  0  0  0  # atno 17320 bound_to 7965
  144.7431  139.7393  143.7303 LP  0  0  0  0  0  0  0  0  0  0  0  0  # atno 17321 bound_to 7965
  139.6886  144.7649  151.1479 LP  0  0  0  0  0  0  0  0  0  0  0  0  # atno 17342 bound_to 10162
  140.7669  143.5621  150.9087 LP  0  0  0  0  0  0  0  0  0  0  0  0  # atno 17343 bound_to 10162
  155.9708  130.4167  150.4244 LP  0  0  0  0  0  0  0  0  0  0  0  0  # atno 17370 bound_to 10713
  157.2291  131.0500  151.2502 LP  0  0  0  0  0  0  0  0  0  0  0  0  # atno 17371 bound_to 10713
  141.1799  133.8436  157.1294 LP  0  0  0  0  0  0  0  0  0  0  0  0  # atno 17394 bound_to 11000
  140.0227  134.9938  157.0624 LP  0  0  0  0  0  0  0  0  0  0  0  0  # atno 17395 bound_to 11000

$$$$
