AV-unprocessed.smi:1291|AV-procd|sdf|5394|dock8
  -GOLD-   22720 4553D 1   1.00000     0.00000
 Structure written by MMmdl.
 44 46  0  0  0  0  0  0  0  0  2 V2000
  150.3900  140.1327  154.4578 O   0  0  0  0  0  0  0  0  0  0  0  0
  149.5974  140.9559  155.2867 C   0  0  0  0  0  0  0  0  0  0  0  0
  150.3748  141.5852  156.3984 C   0  0  0  0  0  0  0  0  0  0  0  0
  150.6532  142.9135  156.5307 N   0  3  0  0  0  0  0  0  0  0  0  0
  151.3915  143.1302  157.6941 C   0  0  0  0  0  0  0  0  0  0  0  0
  151.9022  144.3021  158.2436 C   0  0  0  0  0  0  0  0  0  0  0  0
  152.6177  144.1745  159.4522 C   0  0  0  0  0  0  0  0  0  0  0  0
  152.8042  142.9189  160.0658 C   0  0  0  0  0  0  0  0  0  0  0  0
  152.2823  141.7378  159.4985 C   0  0  0  0  0  0  0  0  0  0  0  0
  151.5729  141.8725  158.3049 C   0  0  0  0  0  0  0  0  0  0  0  0
  150.9274  140.9499  157.4720 N   0  0  0  0  0  0  0  0  0  0  0  0
  150.9233  139.5233  157.8350 C   0  0  0  0  0  0  0  0  0  0  0  0
  149.5222  138.8853  157.7408 C   0  0  1  0  0  0  0  0  0  0  0  0
  149.3405  138.1867  156.5255 O   0  0  0  0  0  0  0  0  0  0  0  0
  149.1948  137.9477  158.9141 C   0  0  0  0  0  0  0  0  0  0  0  0
  147.8513  137.5009  158.8175 O   0  0  0  0  0  0  0  0  0  0  0  0
  147.7124  136.1100  159.0499 C   0  0  0  0  0  0  0  0  0  0  0  0
  147.5421  135.8167  160.5277 C   0  0  0  0  0  0  0  0  0  0  0  0
  147.4814  136.8800  161.4530 C   0  0  0  0  0  0  0  0  0  0  0  0
  147.3298  136.6154  162.8281 C   0  0  0  0  0  0  0  0  0  0  0  0
  147.2380  135.2861  163.2836 C   0  0  0  0  0  0  0  0  0  0  0  0
  147.3017  134.2217  162.3638 C   0  0  0  0  0  0  0  0  0  0  0  0
  147.4556  134.4844  160.9884 C   0  0  0  0  0  0  0  0  0  0  0  0
  147.5223  133.4512  160.1145 F   0  0  0  0  0  0  0  0  0  0  0  0
  150.0773  139.2435  154.5299 H   0  0  0  0  0  0  0  0  0  0  0  0
  149.1449  141.7408  154.6807 H   0  0  0  0  0  0  0  0  0  0  0  0
  148.7867  140.3553  155.6992 H   0  0  0  0  0  0  0  0  0  0  0  0
  151.7623  145.2647  157.7738 H   0  0  0  0  0  0  0  0  0  0  0  0
  153.0333  145.0570  159.9171 H   0  0  0  0  0  0  0  0  0  0  0  0
  153.3600  142.8595  160.9903 H   0  0  0  0  0  0  0  0  0  0  0  0
  152.4374  140.7811  159.9756 H   0  0  0  0  0  0  0  0  0  0  0  0
  151.6465  138.9967  157.2124 H   0  0  0  0  0  0  0  0  0  0  0  0
  151.2962  139.4462  158.8569 H   0  0  0  0  0  0  0  0  0  0  0  0
  148.7791  139.6834  157.7383 H   0  0  0  0  0  0  0  0  0  0  0  0
  149.4290  138.7998  155.8122 H   0  0  0  0  0  0  0  0  0  0  0  0
  149.8595  137.0833  158.8788 H   0  0  0  0  0  0  0  0  0  0  0  0
  149.3697  138.4489  159.8675 H   0  0  0  0  0  0  0  0  0  0  0  0
  146.8479  135.7275  158.5047 H   0  0  0  0  0  0  0  0  0  0  0  0
  148.5854  135.5756  158.6721 H   0  0  0  0  0  0  0  0  0  0  0  0
  147.5526  137.9020  161.1106 H   0  0  0  0  0  0  0  0  0  0  0  0
  147.2850  137.4318  163.5340 H   0  0  0  0  0  0  0  0  0  0  0  0
  147.1211  135.0827  164.3377 H   0  0  0  0  0  0  0  0  0  0  0  0
  147.2347  133.2020  162.7132 H   0  0  0  0  0  0  0  0  0  0  0  0
  150.3580  143.6171  155.8658 H   0  0  0  0  0  0  0  0  0  0  0  0
  1  2  1  0  0  0  0
  1 25  1  0  0  0  0
  2  3  1  0  0  0  0
  2 26  1  0  0  0  0
  2 27  1  0  0  0  0
  3 11  1  0  0  0  0
  3  4  2  0  0  0  0
  4  5  1  0  0  0  0
  4 44  1  0  0  0  0
  5 10  2  0  0  0  0
  5  6  1  0  0  0  0
  6  7  2  0  0  0  0
  6 28  1  0  0  0  0
  7  8  1  0  0  0  0
  7 29  1  0  0  0  0
  8  9  2  0  0  0  0
  8 30  1  0  0  0  0
  9 10  1  0  0  0  0
  9 31  1  0  0  0  0
 10 11  1  0  0  0  0
 11 12  1  0  0  0  0
 12 13  1  0  0  0  0
 12 32  1  0  0  0  0
 12 33  1  0  0  0  0
 13 14  1  0  0  0  0
 13 15  1  0  0  0  0
 13 34  1  0  0  0  0
 14 35  1  0  0  0  0
 15 16  1  0  0  0  0
 15 36  1  0  0  0  0
 15 37  1  0  0  0  0
 16 17  1  0  0  0  0
 17 18  1  0  0  0  0
 17 38  1  0  0  0  0
 17 39  1  0  0  0  0
 18 23  1  0  0  0  0
 18 19  2  0  0  0  0
 19 20  1  0  0  0  0
 19 40  1  0  0  0  0
 20 21  2  0  0  0  0
 20 41  1  0  0  0  0
 21 22  1  0  0  0  0
 21 42  1  0  0  0  0
 22 23  2  0  0  0  0
 22 43  1  0  0  0  0
 23 24  1  0  0  0  0
M  CHG  1   4   1
M  END
> <s_m_source_file>
AV-unprocessed.smi

> <i_m_source_file_index>
1291

> <i_lp_mmshare_version>
43012

> <i_f3d_flags>
0

> <s_epik_input>
W2NIXTFbY0hdW2NIXVtjSF1jKGMxMiluKGMobjIpW0NIMl1bT0hdKVtDSDJdW0NASF0oW09IXSlbQ0gyXU9bQ0gyXWMzW2NIXVtjSF1bY0hdW2NIXWMzRg==

> <s_epik_cmdline>
J2VwaWtfcHl0aG9uJywgJy1waCcsICc3LjAnLCAnLXRuJywgJzgnLCAnLW1hJywgJzIwMCcsICctbWV0YWxfYmluZGluZycsICctaW1hZScsICc8aW5maWxlLm1hZT4nLCAnLW9tYWUnLCAnPG91dGZpbGUubWFlPic=

> <r_epik_Ionization_Penalty>
1.34314

> <r_epik_Ionization_Penalty_Charging>
1.34228

> <r_epik_Ionization_Penalty_Neutral>
0.000856861

> <r_epik_State_Penalty>
1.41963

> <r_epik_Charging_Adjusted_Penalty>
2.76191

> <i_epik_Tot_Q>
1

> <i_epik_Tot_abs_Q>
1

> <r_epik_Metal_State_Penalty>
5.45585

> <b_epik_Metal_Only>
0

> <s_lp_Force_Field>
OPLS_2005

> <r_lp_Energy>
19.0817

> <b_lp_Chiralities_Consistent>
1

> <s_lp_Variant>
AV-unprocessed.smi:1291-4

> <Gold.Version>
5.8.1

> <Gold.Id.Protein>
6NUR|6NUR_protein|mol2

> <Gold.PLP.Fitness>
58.9871

> <Gold.PLP.PLP>
-53.1371

> <Gold.PLP.part.hbond>
-2.0000

> <Gold.PLP.part.metal>
0.0000

> <Gold.PLP.part.buried>
-7.4590

> <Gold.PLP.part.nonpolar>
-45.3066

> <Gold.PLP.part.repulsive>
0.0605

> <Gold.PLP.ligand.clash>
0.0000

> <Gold.PLP.ligand.torsion>
1.2605

> <Gold.PLP.Chemscore.Hbond>
2.7280

> <Gold.PLP.Chemscore.CHOScore>
0.0000

> <Gold.PLP.Chemscore.Metal>
0.0000

> <Gold.Chemscore.Hbonds>
donor molecule, donor type, donor heavy atom, donor atom, acceptor molecule, acceptor atom, score
      L1  H     4    44       P1  8028  1.47
      P1  H  7989  7998       L1     1  1.00

> <Gold.PLP.Chemscore.Internal.Correction>
0.1871

> <Gold.Rescore>
     Score         DG    S(hbond)    S(metal)    S(lipo)     H(rot)  DE(clash)    DE(int)     intcor
     16.75     -18.06       1.87        0.00     129.38       3.44       0.09       1.22       ----

> <Gold.Chemscore.Fitness>
16.7530

> <Gold.Chemscore.DG>
-18.0614

> <Gold.Chemscore.ZeroCoef>
-5.4800

> <Gold.Chemscore.Hbond>
1.8677

> <Gold.Chemscore.Metal>
0.0000

> <Gold.Chemscore.Lipo>
129.3824

> <Gold.Chemscore.Internal_Hbond>
0.0000

> <Gold.Chemscore.DEClash>
0.0876

> <Gold.Chemscore.DEInternal>
1.2208

> <Gold.Chemscore.Rot>
3.4353

> <Gold.Chemscore.Internal.Correction>
   9.000000E+99

> <Gold.Chemscore.Hbonds>
donor molecule, donor type, donor heavy atom, donor atom, acceptor molecule, acceptor atom, score
      L1  H     4    44       P1  8028  0.74
      P1  H  7989  7998       L1     1  0.96

> <Gold.Chemscore.Hbond.Weighted>
-6.2381

> <Gold.Chemscore.Metal.Weighted>
-0.0000

> <Gold.Chemscore.Lipo.Weighted>
-15.1377

> <Gold.Chemscore.Internal_Hbond.Weighted>
0.0000

> <Gold.Chemscore.DEClash.Weighted>
0.0876

> <Gold.Chemscore.DEInternal.Weighted>
1.2208

> <Gold.Chemscore.Rot.Weighted>
8.7944

> <Gold.Chemscore.Internal.Correction.Weighted>
   9.000000E+99

> <Gold.Protein.RotatedTorsions>
[ 6907 6896 6895 6894 ] final -115.61 input  -60.11 | X-H torsion
[ 7974 7965 7964 7962 ] final   52.78 input  175.53 | X-H torsion
[ 8008 7997 7996 7995 ] final -152.02 input   59.86 | X-H torsion
[ 10167 10162 10161 10158 ] final    7.32 input  -65.29 | X-H torsion
[ 10718 10713 10712 10709 ] final -115.16 input   66.30 | X-H torsion
[ 10763 10752 10751 10750 ] final  162.52 input  -60.55 | X-H torsion
[ 11005 11000 10999 10996 ] final  158.29 input  -57.11 | X-H torsion

> <Gold.Protein.ActiveResidues>
 VAL166  LYS551  ARG553  GLY616  TRP617  ASP618  TYR619  PRO620  LYS621  CYS622 
 ASP623  PHE694  ASN695  SER759  ASP760  ASP761  ALA762  ILE779  LEU786  VAL792 
 PHE793  MET794  SER795  GLU796  ALA797  LYS798  CYS799  TRP800  GLU811  SER814 

> <Gold.Protein.RotatedAtoms>
  150.7991  133.8634  159.3237 H   0  0  0  0  0  0  0  0  0  0  0  0  # atno 6907 bound_to 6896
  151.6451  135.1006  160.0159 H   0  0  0  0  0  0  0  0  0  0  0  0  # atno 6908 bound_to 6896
  152.4077  133.6874  159.6405 H   0  0  0  0  0  0  0  0  0  0  0  0  # atno 6909 bound_to 6896
  145.9779  139.4213  143.0150 H   0  0  0  0  0  0  0  0  0  0  0  0  # atno 7974 bound_to 7965
  155.6486  140.0709  157.2594 H   0  0  0  0  0  0  0  0  0  0  0  0  # atno 8008 bound_to 7997
  154.4167  140.1737  156.1699 H   0  0  0  0  0  0  0  0  0  0  0  0  # atno 8009 bound_to 7997
  155.9796  140.3355  155.6654 H   0  0  0  0  0  0  0  0  0  0  0  0  # atno 8010 bound_to 7997
  140.6378  143.7844  150.7385 H   0  0  0  0  0  0  0  0  0  0  0  0  # atno 10167 bound_to 10162
  156.0877  130.6066  150.8870 H   0  0  0  0  0  0  0  0  0  0  0  0  # atno 10718 bound_to 10713
  154.2797  135.2763  155.2703 H   0  0  0  0  0  0  0  0  0  0  0  0  # atno 10763 bound_to 10752
  154.5229  135.5751  153.6699 H   0  0  0  0  0  0  0  0  0  0  0  0  # atno 10764 bound_to 10752
  152.9931  135.6209  154.2955 H   0  0  0  0  0  0  0  0  0  0  0  0  # atno 10765 bound_to 10752
  140.1851  134.8448  157.2848 H   0  0  0  0  0  0  0  0  0  0  0  0  # atno 11005 bound_to 11000
  145.7813  140.9855  143.1098 LP  0  0  0  0  0  0  0  0  0  0  0  0  # atno 17320 bound_to 7965
  144.6853  139.9567  143.7479 LP  0  0  0  0  0  0  0  0  0  0  0  0  # atno 17321 bound_to 7965
  140.1469  143.4391  152.2157 LP  0  0  0  0  0  0  0  0  0  0  0  0  # atno 17342 bound_to 10162
  139.5588  144.7391  151.4215 LP  0  0  0  0  0  0  0  0  0  0  0  0  # atno 17343 bound_to 10162
  157.6017  131.0941  150.8949 LP  0  0  0  0  0  0  0  0  0  0  0  0  # atno 17370 bound_to 10713
  156.9105  130.5279  149.5280 LP  0  0  0  0  0  0  0  0  0  0  0  0  # atno 17371 bound_to 10713
  140.2223  134.4008  155.7560 LP  0  0  0  0  0  0  0  0  0  0  0  0  # atno 17394 bound_to 11000
  141.2224  133.7172  156.8510 LP  0  0  0  0  0  0  0  0  0  0  0  0  # atno 17395 bound_to 11000

$$$$
