AV-unprocessed.smi:1422|AV-procd|sdf|5793|dock7
  -GOLD-   22720 5443D 1   1.00000     0.00000
 Structure written by MMmdl.
 31 32  0  0  0  0  0  0  0  0  1 V2000
  147.3157  139.1225  153.0255 C   0  0  0  0  0  0  0  0  0  0  0  0
  148.2707  139.7957  153.9503 C   0  0  0  0  0  0  0  0  0  0  0  0
  148.4853  141.1059  154.2732 C   0  0  0  0  0  0  0  0  0  0  0  0
  149.5445  141.0337  155.2168 C   0  0  0  0  0  0  0  0  0  0  0  0
  150.0720  142.2089  155.8098 N   0  0  0  0  0  0  0  0  0  0  0  0
  151.1080  142.3030  156.6606 C   0  0  0  0  0  0  0  0  0  0  0  0
  151.7799  141.3544  157.0669 O   0  0  0  0  0  0  0  0  0  0  0  0
  151.3253  143.5756  157.0233 N   0  0  0  0  0  0  0  0  0  0  0  0
  152.3706  144.0287  157.9360 C   0  0  0  0  0  0  0  0  0  0  0  0
  152.1644  143.4847  159.3621 C   0  0  1  0  0  0  0  0  0  0  0  0
  153.2274  142.5175  159.8473 C   0  0  0  0  0  0  0  0  0  0  0  0
  153.0317  142.5624  161.3601 C   0  0  0  0  0  0  0  0  0  0  0  0
  152.5440  143.8685  161.6541 O   0  0  0  0  0  0  0  0  0  0  0  0
  152.2398  144.5590  160.4462 C   0  0  0  0  0  0  0  0  0  0  0  0
  149.9409  139.7917  155.4487 N   0  0  0  0  0  0  0  0  0  0  0  0
  149.1269  138.9919  154.6378 O   0  0  0  0  0  0  0  0  0  0  0  0
  146.4976  139.7908  152.7563 H   0  0  0  0  0  0  0  0  0  0  0  0
  146.8861  138.2345  153.4898 H   0  0  0  0  0  0  0  0  0  0  0  0
  147.8186  138.8160  152.1082 H   0  0  0  0  0  0  0  0  0  0  0  0
  147.9666  141.9734  153.8931 H   0  0  0  0  0  0  0  0  0  0  0  0
  149.6113  143.0709  155.5587 H   0  0  0  0  0  0  0  0  0  0  0  0
  150.7221  144.2880  156.6389 H   0  0  0  0  0  0  0  0  0  0  0  0
  153.3594  143.7607  157.5595 H   0  0  0  0  0  0  0  0  0  0  0  0
  152.3399  145.1182  157.9568 H   0  0  0  0  0  0  0  0  0  0  0  0
  151.1908  142.9957  159.4272 H   0  0  0  0  0  0  0  0  0  0  0  0
  153.1181  141.5132  159.4369 H   0  0  0  0  0  0  0  0  0  0  0  0
  154.2218  142.8849  159.5887 H   0  0  0  0  0  0  0  0  0  0  0  0
  152.2790  141.8359  161.6680 H   0  0  0  0  0  0  0  0  0  0  0  0
  153.9518  142.3480  161.9040 H   0  0  0  0  0  0  0  0  0  0  0  0
  153.0495  145.2603  160.2391 H   0  0  0  0  0  0  0  0  0  0  0  0
  151.3147  145.1289  160.5357 H   0  0  0  0  0  0  0  0  0  0  0  0
  1  2  1  0  0  0  0
  1 17  1  0  0  0  0
  1 18  1  0  0  0  0
  1 19  1  0  0  0  0
  2 16  1  0  0  0  0
  2  3  2  0  0  0  0
  3  4  1  0  0  0  0
  3 20  1  0  0  0  0
  4  5  1  0  0  0  0
  4 15  2  0  0  0  0
  5  6  1  0  0  0  0
  5 21  1  0  0  0  0
  6  7  2  0  0  0  0
  6  8  1  0  0  0  0
  8  9  1  0  0  0  0
  8 22  1  0  0  0  0
  9 10  1  0  0  0  0
  9 23  1  0  0  0  0
  9 24  1  0  0  0  0
 10 14  1  0  0  0  0
 10 11  1  0  0  0  0
 10 25  1  0  0  0  0
 11 12  1  0  0  0  0
 11 26  1  0  0  0  0
 11 27  1  0  0  0  0
 12 13  1  0  0  0  0
 12 28  1  0  0  0  0
 12 29  1  0  0  0  0
 13 14  1  0  0  0  0
 14 30  1  0  0  0  0
 14 31  1  0  0  0  0
 15 16  1  0  0  0  0
M  END
> <s_m_source_file>
AV-unprocessed.smi

> <i_m_source_file_index>
1422

> <i_lp_mmshare_version>
43012

> <i_f3d_flags>
0

> <s_epik_input>
W0NIM11jMVtjSF1jKG5vMSlbTkhdQyg9TylbTkhdW0NIMl1bQ0BASF0yW0NIMl1bQ0gyXU9bQ0gyXTI=

> <s_epik_cmdline>
J2VwaWtfcHl0aG9uJywgJy1waCcsICc3LjAnLCAnLXRuJywgJzgnLCAnLW1hJywgJzIwMCcsICctbWV0YWxfYmluZGluZycsICctaW1hZScsICc8aW5maWxlLm1hZT4nLCAnLW9tYWUnLCAnPG91dGZpbGUubWFlPic=

> <r_lp_tautomer_probability>
1

> <r_epik_Ionization_Penalty>
2.27275e-05

> <r_epik_Ionization_Penalty_Charging>
0

> <r_epik_Ionization_Penalty_Neutral>
2.27275e-05

> <r_epik_State_Penalty>
-0

> <r_epik_Charging_Adjusted_Penalty>
0

> <i_epik_Tot_Q>
0

> <i_epik_Tot_abs_Q>
0

> <r_epik_Metal_State_Penalty>
-0

> <b_epik_Metal_Only>
0

> <s_lp_Force_Field>
OPLS_2005

> <r_lp_Energy>
16.3124

> <b_lp_Chiralities_Consistent>
1

> <s_lp_Variant>
AV-unprocessed.smi:1422-2

> <Gold.Version>
5.8.1

> <Gold.Id.Protein>
6NUR|6NUR_protein|mol2

> <Gold.PLP.Fitness>
40.7987

> <Gold.PLP.PLP>
-36.4206

> <Gold.PLP.part.hbond>
-2.0000

> <Gold.PLP.part.metal>
0.0000

> <Gold.PLP.part.buried>
-4.2479

> <Gold.PLP.part.nonpolar>
-30.6244

> <Gold.PLP.part.repulsive>
0.4819

> <Gold.PLP.ligand.clash>
0.0000

> <Gold.PLP.ligand.torsion>
0.7297

> <Gold.PLP.Chemscore.Hbond>
1.9440

> <Gold.PLP.Chemscore.CHOScore>
0.0000

> <Gold.PLP.Chemscore.Metal>
0.0000

> <Gold.Chemscore.Hbonds>
donor molecule, donor type, donor heavy atom, donor atom, acceptor molecule, acceptor atom, score
      L1  H     5    21       P1  8028  1.00
      L1  H     8    22       P1  8028  0.80

> <Gold.PLP.Chemscore.Internal.Correction>
0.0054

> <Gold.Rescore>
     Score         DG    S(hbond)    S(metal)    S(lipo)     H(rot)  DE(clash)    DE(int)     intcor
     16.24     -18.26       1.95        0.00      81.80       1.30       0.05       1.98       ----

> <Gold.Chemscore.Fitness>
16.2359

> <Gold.Chemscore.DG>
-18.2590

> <Gold.Chemscore.ZeroCoef>
-5.4800

> <Gold.Chemscore.Hbond>
1.9544

> <Gold.Chemscore.Metal>
0.0000

> <Gold.Chemscore.Lipo>
81.7979

> <Gold.Chemscore.Internal_Hbond>
0.0000

> <Gold.Chemscore.DEClash>
0.0462

> <Gold.Chemscore.DEInternal>
1.9768

> <Gold.Chemscore.Rot>
1.2965

> <Gold.Chemscore.Internal.Correction>
   9.000000E+99

> <Gold.Chemscore.Hbonds>
donor molecule, donor type, donor heavy atom, donor atom, acceptor molecule, acceptor atom, score
      L1  H     5    21       P1  8028  1.00
      L1  H     8    22       P1  8028  0.76

> <Gold.Chemscore.Hbond.Weighted>
-6.5278

> <Gold.Chemscore.Metal.Weighted>
-0.0000

> <Gold.Chemscore.Lipo.Weighted>
-9.5704

> <Gold.Chemscore.Internal_Hbond.Weighted>
0.0000

> <Gold.Chemscore.DEClash.Weighted>
0.0462

> <Gold.Chemscore.DEInternal.Weighted>
1.9768

> <Gold.Chemscore.Rot.Weighted>
3.3192

> <Gold.Chemscore.Internal.Correction.Weighted>
   9.000000E+99

> <Gold.Protein.RotatedTorsions>
[ 6907 6896 6895 6894 ] final   84.43 input  -60.11 | X-H torsion
[ 7974 7965 7964 7962 ] final  147.74 input  175.53 | X-H torsion
[ 8008 7997 7996 7995 ] final -123.08 input   59.86 | X-H torsion
[ 10167 10162 10161 10158 ] final  111.99 input  -65.29 | X-H torsion
[ 10718 10713 10712 10709 ] final  179.65 input   66.30 | X-H torsion
[ 10763 10752 10751 10750 ] final  -14.13 input  -60.55 | X-H torsion
[ 11005 11000 10999 10996 ] final  -51.45 input  -57.11 | X-H torsion

> <Gold.Protein.ActiveResidues>
 VAL166  LYS551  ARG553  GLY616  TRP617  ASP618  TYR619  PRO620  LYS621  CYS622 
 ASP623  PHE694  ASN695  SER759  ASP760  ASP761  ALA762  ILE779  LEU786  VAL792 
 PHE793  MET794  SER795  GLU796  ALA797  LYS798  CYS799  TRP800  GLU811  SER814 

> <Gold.Protein.RotatedAtoms>
  152.5352  134.2743  159.8982 H   0  0  0  0  0  0  0  0  0  0  0  0  # atno 6907 bound_to 6896
  151.2698  133.4254  159.2628 H   0  0  0  0  0  0  0  0  0  0  0  0  # atno 6908 bound_to 6896
  151.0377  134.9600  159.8202 H   0  0  0  0  0  0  0  0  0  0  0  0  # atno 6909 bound_to 6896
  144.8568  139.6067  143.5949 H   0  0  0  0  0  0  0  0  0  0  0  0  # atno 7974 bound_to 7965
  155.1747  140.0409  157.2870 H   0  0  0  0  0  0  0  0  0  0  0  0  # atno 8008 bound_to 7997
  154.6245  140.2509  155.7482 H   0  0  0  0  0  0  0  0  0  0  0  0  # atno 8009 bound_to 7997
  156.2451  140.2888  156.0568 H   0  0  0  0  0  0  0  0  0  0  0  0  # atno 8010 bound_to 7997
  139.6569  144.7129  151.1939 H   0  0  0  0  0  0  0  0  0  0  0  0  # atno 10167 bound_to 10162
  156.8726  130.9789  151.3071 H   0  0  0  0  0  0  0  0  0  0  0  0  # atno 10718 bound_to 10713
  153.5237  135.7015  153.5718 H   0  0  0  0  0  0  0  0  0  0  0  0  # atno 10763 bound_to 10752
  153.3756  135.3933  155.1820 H   0  0  0  0  0  0  0  0  0  0  0  0  # atno 10764 bound_to 10752
  154.8692  135.3822  154.4728 H   0  0  0  0  0  0  0  0  0  0  0  0  # atno 10765 bound_to 10752
  141.0872  133.6640  156.3880 H   0  0  0  0  0  0  0  0  0  0  0  0  # atno 11005 bound_to 11000
  146.2829  139.6925  142.9216 LP  0  0  0  0  0  0  0  0  0  0  0  0  # atno 17320 bound_to 7965
  145.4391  141.0421  143.2867 LP  0  0  0  0  0  0  0  0  0  0  0  0  # atno 17321 bound_to 7965
  140.7563  143.6057  150.8655 LP  0  0  0  0  0  0  0  0  0  0  0  0  # atno 17342 bound_to 10162
  139.9711  143.6055  152.2973 LP  0  0  0  0  0  0  0  0  0  0  0  0  # atno 17343 bound_to 10162
  157.6187  130.8638  149.9071 LP  0  0  0  0  0  0  0  0  0  0  0  0  # atno 17370 bound_to 10713
  156.0718  130.3684  150.0759 LP  0  0  0  0  0  0  0  0  0  0  0  0  # atno 17371 bound_to 10713
  140.5336  134.6188  157.5358 LP  0  0  0  0  0  0  0  0  0  0  0  0  # atno 17394 bound_to 11000
  139.9692  134.7322  156.0076 LP  0  0  0  0  0  0  0  0  0  0  0  0  # atno 17395 bound_to 11000

$$$$
