AV-unprocessed.smi:3167|AV-procd|sdf|12097|dock5
  -GOLD-   2272017533D 1   1.00000     0.00000
 Structure written by MMmdl.
 37 38  0  0  0  0  0  0  0  0  2 V2000
  146.8697  139.5306  151.4484 C   0  0  0  0  0  0  0  0  0  0  0  0
  146.8173  139.4003  152.9873 C   0  0  2  0  0  0  0  0  0  0  0  0
  146.0279  138.1315  153.4044 C   0  0  0  0  0  0  0  0  0  0  0  0
  146.4836  136.9251  152.7203 N   0  0  0  0  0  0  0  0  0  0  0  0
  145.6812  136.0524  152.0941 C   0  0  0  0  0  0  0  0  0  0  0  0
  144.4583  136.1808  152.0329 O   0  0  0  0  0  0  0  0  0  0  0  0
  146.3817  135.0415  151.5560 N   0  0  0  0  0  0  0  0  0  0  0  0
  145.8697  133.9257  150.8479 C   0  0  0  0  0  0  0  0  0  0  0  0
  144.5514  133.6967  150.3549 C   0  0  0  0  0  0  0  0  0  0  0  0
  144.4647  132.5230  149.7450 N   0  0  0  0  0  0  0  0  0  0  0  0
  145.7086  132.0026  149.8434 N   0  0  0  0  0  0  0  0  0  0  0  0
  146.5940  132.8227  150.5073 C   0  0  0  0  0  0  0  0  0  0  0  0
  146.2280  140.6172  153.6170 N   0  3  0  0  0  0  0  0  0  0  0  0
  146.2082  140.6109  155.1025 C   0  0  0  0  0  0  0  0  0  0  0  0
  146.5092  142.0413  155.5708 C   0  0  0  0  0  0  0  0  0  0  0  0
  146.4370  142.8900  154.3070 C   0  0  0  0  0  0  0  0  0  0  0  0
  146.8283  141.9067  153.2101 C   0  0  0  0  0  0  0  0  0  0  0  0
  145.9342  131.0972  149.4565 H   0  0  0  0  0  0  0  0  0  0  0  0
  147.2946  138.6408  150.9838 H   0  0  0  0  0  0  0  0  0  0  0  0
  147.4938  140.3650  151.1288 H   0  0  0  0  0  0  0  0  0  0  0  0
  145.8738  139.6773  151.0293 H   0  0  0  0  0  0  0  0  0  0  0  0
  147.8433  139.3128  153.3487 H   0  0  0  0  0  0  0  0  0  0  0  0
  146.0883  137.9564  154.4792 H   0  0  0  0  0  0  0  0  0  0  0  0
  144.9694  138.2643  153.1790 H   0  0  0  0  0  0  0  0  0  0  0  0
  147.4773  136.7448  152.7216 H   0  0  0  0  0  0  0  0  0  0  0  0
  147.3845  135.0689  151.6680 H   0  0  0  0  0  0  0  0  0  0  0  0
  143.6710  134.3189  150.4138 H   0  0  0  0  0  0  0  0  0  0  0  0
  147.6276  132.5564  150.6723 H   0  0  0  0  0  0  0  0  0  0  0  0
  145.2285  140.2785  155.4473 H   0  0  0  0  0  0  0  0  0  0  0  0
  146.9537  139.9278  155.5131 H   0  0  0  0  0  0  0  0  0  0  0  0
  145.8179  142.3847  156.3412 H   0  0  0  0  0  0  0  0  0  0  0  0
  147.5169  142.0865  155.9865 H   0  0  0  0  0  0  0  0  0  0  0  0
  145.4141  143.2346  154.1487 H   0  0  0  0  0  0  0  0  0  0  0  0
  147.0864  143.7651  154.3449 H   0  0  0  0  0  0  0  0  0  0  0  0
  147.9151  141.8127  153.1718 H   0  0  0  0  0  0  0  0  0  0  0  0
  146.4771  142.2302  152.2297 H   0  0  0  0  0  0  0  0  0  0  0  0
  145.2617  140.6630  153.3268 H   0  0  0  0  0  0  0  0  0  0  0  0
  1  2  1  0  0  0  0
  1 19  1  0  0  0  0
  1 20  1  0  0  0  0
  1 21  1  0  0  0  0
  2  3  1  0  0  0  0
  2 13  1  0  0  0  0
  2 22  1  0  0  0  0
  3  4  1  0  0  0  0
  3 23  1  0  0  0  0
  3 24  1  0  0  0  0
  4  5  1  0  0  0  0
  4 25  1  0  0  0  0
  5  6  2  0  0  0  0
  5  7  1  0  0  0  0
  7  8  1  0  0  0  0
  7 26  1  0  0  0  0
  8 12  2  0  0  0  0
  8  9  1  0  0  0  0
  9 10  2  0  0  0  0
  9 27  1  0  0  0  0
 10 11  1  0  0  0  0
 11 18  1  0  0  0  0
 11 12  1  0  0  0  0
 12 28  1  0  0  0  0
 13 17  1  0  0  0  0
 13 14  1  0  0  0  0
 13 37  1  0  0  0  0
 14 15  1  0  0  0  0
 14 29  1  0  0  0  0
 14 30  1  0  0  0  0
 15 16  1  0  0  0  0
 15 31  1  0  0  0  0
 15 32  1  0  0  0  0
 16 17  1  0  0  0  0
 16 33  1  0  0  0  0
 16 34  1  0  0  0  0
 17 35  1  0  0  0  0
 17 36  1  0  0  0  0
M  CHG  1  13   1
M  END
> <s_m_source_file>
AV-unprocessed.smi

> <i_m_source_file_index>
3167

> <i_lp_mmshare_version>
43012

> <i_f3d_flags>
0

> <s_epik_input>
W0NIMl0xW0NIMl1bQ0gyXVtDSDJdTjFbQ0BIXShbQ0gzXSlbQ0gyXVtOSF1DKD1PKVtOSF1jMltjSF1uW25IXVtjSF0y

> <s_epik_cmdline>
J2VwaWtfcHl0aG9uJywgJy1waCcsICc3LjAnLCAnLXRuJywgJzgnLCAnLW1hJywgJzIwMCcsICctbWV0YWxfYmluZGluZycsICctaW1hZScsICc8aW5maWxlLm1hZT4nLCAnLW9tYWUnLCAnPG91dGZpbGUubWFlPic=

> <r_lp_tautomer_probability>
0.5

> <r_epik_Ionization_Penalty>
0.000801258

> <r_epik_Ionization_Penalty_Charging>
0.000761583

> <r_epik_Ionization_Penalty_Neutral>
3.96747e-05

> <r_epik_State_Penalty>
0.000487427

> <r_epik_Charging_Adjusted_Penalty>
0.00124901

> <i_epik_Tot_Q>
1

> <i_epik_Tot_abs_Q>
1

> <r_epik_Metal_State_Penalty>
-0

> <b_epik_Metal_Only>
0

> <s_lp_Force_Field>
OPLS_2005

> <r_lp_Energy>
32.1126

> <b_lp_Chiralities_Consistent>
1

> <s_lp_Variant>
AV-unprocessed.smi:3167-1

> <Gold.Version>
5.8.1

> <Gold.Id.Protein>
6NUR|6NUR_protein|mol2

> <Gold.PLP.Fitness>
43.9349

> <Gold.PLP.PLP>
-26.7618

> <Gold.PLP.part.hbond>
-3.0000

> <Gold.PLP.part.metal>
0.0000

> <Gold.PLP.part.buried>
-2.7222

> <Gold.PLP.part.nonpolar>
-21.1194

> <Gold.PLP.part.repulsive>
0.6551

> <Gold.PLP.ligand.clash>
0.0000

> <Gold.PLP.ligand.torsion>
0.1302

> <Gold.PLP.Chemscore.Hbond>
3.9516

> <Gold.PLP.Chemscore.CHOScore>
1.8488

> <Gold.PLP.Chemscore.Metal>
0.0000

> <Gold.Chemscore.Hbonds>
donor molecule, donor type, donor heavy atom, donor atom, acceptor molecule, acceptor atom, score
      L1  H     4    25       P1  7948  0.98
      L1  H     7    26       P1  7948  0.93
      L1  H    13    37       P1 10175  2.00
      L1  C     9    27       P1 10186  0.34
      L1  C    12    28       P1 10747  1.00

> <Gold.PLP.Chemscore.Internal.Correction>
0.0322

> <Gold.Rescore>
     Score         DG    S(hbond)    S(metal)    S(lipo)     H(rot)  DE(clash)    DE(int)     intcor
     15.93     -17.95       2.73        0.00      64.42       1.63       1.07       0.94       ----

> <Gold.Chemscore.Fitness>
15.9348

> <Gold.Chemscore.DG>
-17.9467

> <Gold.Chemscore.ZeroCoef>
-5.4800

> <Gold.Chemscore.Hbond>
2.7262

> <Gold.Chemscore.Metal>
0.0000

> <Gold.Chemscore.Lipo>
64.4189

> <Gold.Chemscore.Internal_Hbond>
0.0000

> <Gold.Chemscore.DEClash>
1.0747

> <Gold.Chemscore.DEInternal>
0.9372

> <Gold.Chemscore.Rot>
1.6311

> <Gold.Chemscore.Internal.Correction>
   9.000000E+99

> <Gold.Chemscore.Hbonds>
donor molecule, donor type, donor heavy atom, donor atom, acceptor molecule, acceptor atom, score
      L1  H     4    25       P1  7948  0.93
      L1  H     7    26       P1  7948  0.73
      L1  H    13    37       P1 10175  0.91

> <Gold.Chemscore.Hbond.Weighted>
-9.1053

> <Gold.Chemscore.Metal.Weighted>
-0.0000

> <Gold.Chemscore.Lipo.Weighted>
-7.5370

> <Gold.Chemscore.Internal_Hbond.Weighted>
0.0000

> <Gold.Chemscore.DEClash.Weighted>
1.0747

> <Gold.Chemscore.DEInternal.Weighted>
0.9372

> <Gold.Chemscore.Rot.Weighted>
4.1757

> <Gold.Chemscore.Internal.Correction.Weighted>
   9.000000E+99

> <Gold.Protein.RotatedTorsions>
[ 6907 6896 6895 6894 ] final   67.52 input  -60.11 | X-H torsion
[ 7974 7965 7964 7962 ] final   17.47 input  175.53 | X-H torsion
[ 8008 7997 7996 7995 ] final  -47.09 input   59.86 | X-H torsion
[ 10167 10162 10161 10158 ] final  177.30 input  -65.29 | X-H torsion
[ 10718 10713 10712 10709 ] final  -94.74 input   66.30 | X-H torsion
[ 10763 10752 10751 10750 ] final  170.03 input  -60.55 | X-H torsion
[ 11005 11000 10999 10996 ] final -106.89 input  -57.11 | X-H torsion

> <Gold.Protein.ActiveResidues>
 VAL166  LYS551  ARG553  GLY616  TRP617  ASP618  TYR619  PRO620  LYS621  CYS622 
 ASP623  PHE694  ASN695  SER759  ASP760  ASP761  ALA762  ILE779  LEU786  VAL792 
 PHE793  MET794  SER795  GLU796  ALA797  LYS798  CYS799  TRP800  GLU811  SER814 

> <Gold.Protein.RotatedAtoms>
  152.4557  134.5296  159.9806 H   0  0  0  0  0  0  0  0  0  0  0  0  # atno 6907 bound_to 6896
  151.5358  133.3435  159.2934 H   0  0  0  0  0  0  0  0  0  0  0  0  # atno 6908 bound_to 6896
  150.8501  134.7853  159.7064 H   0  0  0  0  0  0  0  0  0  0  0  0  # atno 6909 bound_to 6896
  146.2217  139.8597  142.8607 H   0  0  0  0  0  0  0  0  0  0  0  0  # atno 7974 bound_to 7965
  154.4013  140.1355  156.4119 H   0  0  0  0  0  0  0  0  0  0  0  0  # atno 8008 bound_to 7997
  155.7726  140.3483  155.5234 H   0  0  0  0  0  0  0  0  0  0  0  0  # atno 8009 bound_to 7997
  155.8752  140.0978  157.1513 H   0  0  0  0  0  0  0  0  0  0  0  0  # atno 8010 bound_to 7997
  139.5248  144.2814  152.0543 H   0  0  0  0  0  0  0  0  0  0  0  0  # atno 10167 bound_to 10162
  156.0032  130.5080  150.5971 H   0  0  0  0  0  0  0  0  0  0  0  0  # atno 10718 bound_to 10713
  154.3917  135.2754  155.2150 H   0  0  0  0  0  0  0  0  0  0  0  0  # atno 10763 bound_to 10752
  154.4213  135.5999  153.6015 H   0  0  0  0  0  0  0  0  0  0  0  0  # atno 10764 bound_to 10752
  152.9832  135.5973  154.4173 H   0  0  0  0  0  0  0  0  0  0  0  0  # atno 10765 bound_to 10752
  141.0982  133.8933  157.1910 H   0  0  0  0  0  0  0  0  0  0  0  0  # atno 11005 bound_to 11000
  145.2717  141.0110  143.3768 LP  0  0  0  0  0  0  0  0  0  0  0  0  # atno 17320 bound_to 7965
  144.9218  139.4402  143.6537 LP  0  0  0  0  0  0  0  0  0  0  0  0  # atno 17321 bound_to 7965
  140.2269  144.4409  150.6317 LP  0  0  0  0  0  0  0  0  0  0  0  0  # atno 17342 bound_to 10162
  140.6381  143.2198  151.6350 LP  0  0  0  0  0  0  0  0  0  0  0  0  # atno 17343 bound_to 10162
  157.3826  131.0783  151.1463 LP  0  0  0  0  0  0  0  0  0  0  0  0  # atno 17370 bound_to 10713
  157.2181  130.6468  149.5800 LP  0  0  0  0  0  0  0  0  0  0  0  0  # atno 17371 bound_to 10713
  139.9825  135.0093  156.9783 LP  0  0  0  0  0  0  0  0  0  0  0  0  # atno 17394 bound_to 11000
  140.5088  134.1022  155.7266 LP  0  0  0  0  0  0  0  0  0  0  0  0  # atno 17395 bound_to 11000

$$$$
