AV-unprocessed.smi:1464|AV-procd|sdf|5946|dock9
  -GOLD-   22720 6 33D 1   1.00000     0.00000
 Structure written by MMmdl.
 41 42  0  0  0  0  0  0  0  0  1 V2000
  151.3035  143.8830  161.1927 C   0  0  0  0  0  0  0  0  0  0  0  0
  152.5929  143.6802  160.3705 C   0  0  1  0  0  0  0  0  0  0  0  0
  153.5700  142.7167  161.0746 C   0  0  0  0  0  0  0  0  0  0  0  0
  153.0918  141.2577  161.0120 C   0  0  0  0  0  0  0  0  0  0  0  0
  152.8540  140.8152  159.5620 C   0  0  0  0  0  0  0  0  0  0  0  0
  151.8758  141.7542  158.8251 C   0  0  2  0  0  0  0  0  0  0  0  0
  151.7524  141.3344  157.4306 N   0  0  0  0  0  0  0  0  0  0  0  0
  150.7210  140.6511  156.9114 C   0  0  0  0  0  0  0  0  0  0  0  0
  149.7534  140.2795  157.5775 O   0  0  0  0  0  0  0  0  0  0  0  0
  150.8192  140.3255  155.4140 C   0  0  0  0  0  0  0  0  0  0  0  0
  149.5140  140.2803  154.7392 N   0  0  0  0  0  0  0  0  0  0  0  0
  148.8147  141.4772  154.7773 N   0  0  0  0  0  0  0  0  0  0  0  0
  147.6623  141.5693  154.2047 C   0  0  0  0  0  0  0  0  0  0  0  0
  147.0058  142.7743  154.2625 O   0  0  0  0  0  0  0  0  0  0  0  0
  147.0739  140.4386  153.5205 C   0  0  0  0  0  0  0  0  0  0  0  0
  147.7600  139.2750  153.4940 C   0  0  0  0  0  0  0  0  0  0  0  0
  149.0703  139.1365  154.1325 C   0  0  0  0  0  0  0  0  0  0  0  0
  149.7165  138.0888  154.1248 O   0  0  0  0  0  0  0  0  0  0  0  0
  152.3484  143.2293  158.9049 C   0  0  1  0  0  0  0  0  0  0  0  0
  151.4252  144.1981  158.1391 C   0  0  0  0  0  0  0  0  0  0  0  0
  147.5867  143.3556  154.7284 H   0  0  0  0  0  0  0  0  0  0  0  0
  150.6983  142.9783  161.2414 H   0  0  0  0  0  0  0  0  0  0  0  0
  150.6818  144.6743  160.7743 H   0  0  0  0  0  0  0  0  0  0  0  0
  151.5387  144.1745  162.2166 H   0  0  0  0  0  0  0  0  0  0  0  0
  153.0854  144.6530  160.3334 H   0  0  0  0  0  0  0  0  0  0  0  0
  154.5495  142.7891  160.6000 H   0  0  0  0  0  0  0  0  0  0  0  0
  153.7167  143.0169  162.1127 H   0  0  0  0  0  0  0  0  0  0  0  0
  153.8312  140.6065  161.4788 H   0  0  0  0  0  0  0  0  0  0  0  0
  152.1743  141.1386  161.5887 H   0  0  0  0  0  0  0  0  0  0  0  0
  153.8086  140.7916  159.0341 H   0  0  0  0  0  0  0  0  0  0  0  0
  152.4737  139.7928  159.5534 H   0  0  0  0  0  0  0  0  0  0  0  0
  150.8955  141.6825  159.2992 H   0  0  0  0  0  0  0  0  0  0  0  0
  152.5067  141.5931  156.8112 H   0  0  0  0  0  0  0  0  0  0  0  0
  151.4658  141.0555  154.9229 H   0  0  0  0  0  0  0  0  0  0  0  0
  151.3302  139.3666  155.3114 H   0  0  0  0  0  0  0  0  0  0  0  0
  146.1083  140.5307  153.0454 H   0  0  0  0  0  0  0  0  0  0  0  0
  147.3326  138.4224  152.9870 H   0  0  0  0  0  0  0  0  0  0  0  0
  153.3177  143.2792  158.4057 H   0  0  0  0  0  0  0  0  0  0  0  0
  150.3943  144.1296  158.4868 H   0  0  0  0  0  0  0  0  0  0  0  0
  151.4223  143.9871  157.0695 H   0  0  0  0  0  0  0  0  0  0  0  0
  151.7522  145.2309  158.2611 H   0  0  0  0  0  0  0  0  0  0  0  0
  1  2  1  0  0  0  0
  1 22  1  0  0  0  0
  1 23  1  0  0  0  0
  1 24  1  0  0  0  0
  2 19  1  0  0  0  0
  2  3  1  0  0  0  0
  2 25  1  0  0  0  0
  3  4  1  0  0  0  0
  3 26  1  0  0  0  0
  3 27  1  0  0  0  0
  4  5  1  0  0  0  0
  4 28  1  0  0  0  0
  4 29  1  0  0  0  0
  5  6  1  0  0  0  0
  5 30  1  0  0  0  0
  5 31  1  0  0  0  0
  6  7  1  0  0  0  0
  6 19  1  0  0  0  0
  6 32  1  0  0  0  0
  7  8  1  0  0  0  0
  7 33  1  0  0  0  0
  8  9  2  0  0  0  0
  8 10  1  0  0  0  0
 10 34  1  0  0  0  0
 10 35  1  0  0  0  0
 10 11  1  0  0  0  0
 11 12  1  0  0  0  0
 11 17  1  0  0  0  0
 12 13  2  0  0  0  0
 13 14  1  0  0  0  0
 13 15  1  0  0  0  0
 14 21  1  0  0  0  0
 15 36  1  0  0  0  0
 15 16  2  0  0  0  0
 16 37  1  0  0  0  0
 16 17  1  0  0  0  0
 17 18  2  0  0  0  0
 19 20  1  0  0  0  0
 19 38  1  0  0  0  0
 20 39  1  0  0  0  0
 20 40  1  0  0  0  0
 20 41  1  0  0  0  0
M  END
> <s_m_source_file>
AV-unprocessed.smi

> <i_m_source_file_index>
1464

> <i_lp_mmshare_version>
43012

> <i_f3d_flags>
0

> <s_epik_input>
W0NIM11bQ0BASF0xW0NIMl1bQ0gyXVtDSDJdW0NASF0oW0NASF0xW0NIM10pW05IXUMoPU8pW0NIMl1uMltuSF1jKD1PKVtjSF1bY0hdYzI9Tw==

> <s_epik_cmdline>
J2VwaWtfcHl0aG9uJywgJy1waCcsICc3LjAnLCAnLXRuJywgJzgnLCAnLW1hJywgJzIwMCcsICctbWV0YWxfYmluZGluZycsICctaW1hZScsICc8aW5maWxlLm1hZT4nLCAnLW9tYWUnLCAnPG91dGZpbGUubWFlPic=

> <r_lp_tautomer_probability>
0.9996

> <r_epik_Ionization_Penalty>
2.10335

> <r_epik_Ionization_Penalty_Charging>
3.98079e-08

> <r_epik_Ionization_Penalty_Neutral>
2.10335

> <r_epik_State_Penalty>
1.67957

> <r_epik_Charging_Adjusted_Penalty>
1.67957

> <i_epik_Tot_Q>
0

> <i_epik_Tot_abs_Q>
0

> <r_epik_Metal_State_Penalty>
1.67957

> <b_epik_Metal_Only>
0

> <s_lp_Force_Field>
OPLS_2005

> <r_lp_Energy>
23.4663

> <b_lp_Chiralities_Consistent>
1

> <s_lp_Variant>
AV-unprocessed.smi:1464-12

> <Gold.Version>
5.8.1

> <Gold.Id.Protein>
6NUR|6NUR_protein|mol2

> <Gold.PLP.Fitness>
40.2282

> <Gold.PLP.PLP>
-38.3739

> <Gold.PLP.part.hbond>
-2.4939

> <Gold.PLP.part.metal>
0.0000

> <Gold.PLP.part.buried>
-2.7604

> <Gold.PLP.part.nonpolar>
-33.4457

> <Gold.PLP.part.repulsive>
0.6070

> <Gold.PLP.ligand.clash>
0.0000

> <Gold.PLP.ligand.torsion>
0.5772

> <Gold.PLP.Chemscore.Hbond>
1.0000

> <Gold.PLP.Chemscore.CHOScore>
0.0000

> <Gold.PLP.Chemscore.Metal>
0.0000

> <Gold.Chemscore.Hbonds>
donor molecule, donor type, donor heavy atom, donor atom, acceptor molecule, acceptor atom, score
      L1  H    14    21       P1  8028  0.94

> <Gold.PLP.Chemscore.Internal.Correction>
0.0087

> <Gold.Rescore>
     Score         DG    S(hbond)    S(metal)    S(lipo)     H(rot)  DE(clash)    DE(int)     intcor
     14.08     -15.18       0.91        0.00     105.49       2.22       0.63       0.47       ----

> <Gold.Chemscore.Fitness>
14.0825

> <Gold.Chemscore.DG>
-15.1813

> <Gold.Chemscore.ZeroCoef>
-5.4800

> <Gold.Chemscore.Hbond>
0.9128

> <Gold.Chemscore.Metal>
0.0000

> <Gold.Chemscore.Lipo>
105.4860

> <Gold.Chemscore.Internal_Hbond>
0.0000

> <Gold.Chemscore.DEClash>
0.6313

> <Gold.Chemscore.DEInternal>
0.4675

> <Gold.Chemscore.Rot>
2.2224

> <Gold.Chemscore.Internal.Correction>
   9.000000E+99

> <Gold.Chemscore.Hbonds>
donor molecule, donor type, donor heavy atom, donor atom, acceptor molecule, acceptor atom, score
      L1  H    14    21       P1  8028  0.36

> <Gold.Chemscore.Hbond.Weighted>
-3.0488

> <Gold.Chemscore.Metal.Weighted>
-0.0000

> <Gold.Chemscore.Lipo.Weighted>
-12.3419

> <Gold.Chemscore.Internal_Hbond.Weighted>
0.0000

> <Gold.Chemscore.DEClash.Weighted>
0.6313

> <Gold.Chemscore.DEInternal.Weighted>
0.4675

> <Gold.Chemscore.Rot.Weighted>
5.6893

> <Gold.Chemscore.Internal.Correction.Weighted>
   9.000000E+99

> <Gold.Protein.RotatedTorsions>
[ 6907 6896 6895 6894 ] final -172.92 input  -60.11 | X-H torsion
[ 7974 7965 7964 7962 ] final  -62.52 input  175.53 | X-H torsion
[ 8008 7997 7996 7995 ] final  127.17 input   59.86 | X-H torsion
[ 10167 10162 10161 10158 ] final   -6.80 input  -65.29 | X-H torsion
[ 10718 10713 10712 10709 ] final  138.95 input   66.30 | X-H torsion
[ 10763 10752 10751 10750 ] final  147.00 input  -60.55 | X-H torsion
[ 11005 11000 10999 10996 ] final  -52.54 input  -57.11 | X-H torsion

> <Gold.Protein.ActiveResidues>
 VAL166  LYS551  ARG553  GLY616  TRP617  ASP618  TYR619  PRO620  LYS621  CYS622 
 ASP623  PHE694  ASN695  SER759  ASP760  ASP761  ALA762  ILE779  LEU786  VAL792 
 PHE793  MET794  SER795  GLU796  ALA797  LYS798  CYS799  TRP800  GLU811  SER814 

> <Gold.Protein.RotatedAtoms>
  151.5479  133.3422  159.2947 H   0  0  0  0  0  0  0  0  0  0  0  0  # atno 6907 bound_to 6896
  150.8496  134.7819  159.7009 H   0  0  0  0  0  0  0  0  0  0  0  0  # atno 6908 bound_to 6896
  152.4546  134.5328  159.9868 H   0  0  0  0  0  0  0  0  0  0  0  0  # atno 6909 bound_to 6896
  145.7903  140.8713  143.0284 H   0  0  0  0  0  0  0  0  0  0  0  0  # atno 7974 bound_to 7965
  156.2884  140.2675  156.2230 H   0  0  0  0  0  0  0  0  0  0  0  0  # atno 8008 bound_to 7997
  155.0149  140.0387  157.2432 H   0  0  0  0  0  0  0  0  0  0  0  0  # atno 8009 bound_to 7997
  154.7486  140.2738  155.6317 H   0  0  0  0  0  0  0  0  0  0  0  0  # atno 8010 bound_to 7997
  140.7009  143.6152  150.8665 H   0  0  0  0  0  0  0  0  0  0  0  0  # atno 10167 bound_to 10162
  157.4197  131.1037  151.0366 H   0  0  0  0  0  0  0  0  0  0  0  0  # atno 10718 bound_to 10713
  154.0312  135.2897  155.3368 H   0  0  0  0  0  0  0  0  0  0  0  0  # atno 10763 bound_to 10752
  154.6987  135.5197  153.8498 H   0  0  0  0  0  0  0  0  0  0  0  0  # atno 10764 bound_to 10752
  153.0639  135.6624  154.0524 H   0  0  0  0  0  0  0  0  0  0  0  0  # atno 10765 bound_to 10752
  141.0930  133.6629  156.4040 H   0  0  0  0  0  0  0  0  0  0  0  0  # atno 11005 bound_to 11000
  144.6783  140.0114  143.7484 LP  0  0  0  0  0  0  0  0  0  0  0  0  # atno 17320 bound_to 7965
  145.9983  139.3071  143.0943 LP  0  0  0  0  0  0  0  0  0  0  0  0  # atno 17321 bound_to 7965
  139.9874  143.5884  152.2922 LP  0  0  0  0  0  0  0  0  0  0  0  0  # atno 17342 bound_to 10162
  139.6527  144.7661  151.2117 LP  0  0  0  0  0  0  0  0  0  0  0  0  # atno 17343 bound_to 10162
  157.1301  130.6098  149.5527 LP  0  0  0  0  0  0  0  0  0  0  0  0  # atno 17370 bound_to 10713
  155.9876  130.4917  150.7135 LP  0  0  0  0  0  0  0  0  0  0  0  0  # atno 17371 bound_to 10713
  140.5207  134.6306  157.5317 LP  0  0  0  0  0  0  0  0  0  0  0  0  # atno 17394 bound_to 11000
  139.9760  134.7215  155.9950 LP  0  0  0  0  0  0  0  0  0  0  0  0  # atno 17395 bound_to 11000

$$$$
