AV-unprocessed.smi:1010|AV-procd|sdf|4418|dock4
  -GOLD-   22720 2363D 1   1.00000     0.00000
 Structure written by MMmdl.
 55 57  0  0  0  0  0  0  0  0  4 V2000
  147.2179  138.2285  155.7271 C   0  0  0  0  0  0  0  0  0  0  0  0
  147.4284  139.5846  155.1457 N   0  3  0  0  0  0  0  0  0  0  0  0
  146.2590  140.4630  155.4409 C   0  0  0  0  0  0  0  0  0  0  0  0
  148.0575  139.6811  153.7604 C   0  0  0  0  0  0  0  0  0  0  0  0
  147.0513  139.3995  152.5735 C   0  0  0  0  0  0  0  0  0  0  0  0
  146.6240  137.9996  152.5224 N   0  5  0  0  0  0  0  0  0  0  0  0
  145.4814  137.5115  153.0731 C   0  0  0  0  0  0  0  0  0  0  0  0
  144.8803  137.9295  154.0688 O   0  0  0  0  0  0  0  0  0  0  0  0
  145.0112  136.4522  152.3945 N   0  0  0  0  0  0  0  0  0  0  0  0
  143.7734  135.7782  152.5768 C   0  0  0  0  0  0  0  0  0  0  0  0
  142.7281  136.3536  153.3408 C   0  0  0  0  0  0  0  0  0  0  0  0
  141.5288  135.6403  153.5336 C   0  0  0  0  0  0  0  0  0  0  0  0
  141.3984  134.3581  152.9690 C   0  0  0  0  0  0  0  0  0  0  0  0
  142.4185  133.8313  152.2592 N   0  3  0  0  0  0  0  0  0  0  0  0
  143.5883  134.4731  152.0407 C   0  0  0  0  0  0  0  0  0  0  0  0
  144.5356  133.7690  151.2779 N   0  0  0  0  0  0  0  0  0  0  0  0
  145.0834  132.5511  151.8679 C   0  0  0  0  0  0  0  0  0  0  0  0
  144.9158  131.4466  150.8200 C   0  0  0  0  0  0  0  0  0  0  0  0
  144.8663  132.2162  149.5046 C   0  0  0  0  0  0  0  0  0  0  0  0
  144.1561  133.5116  149.8944 C   0  0  0  0  0  0  0  0  0  0  0  0
  148.6495  141.1175  153.5798 C   0  0  0  0  0  0  0  0  0  0  0  0
  149.7778  141.4175  154.5849 C   0  0  0  0  0  0  0  0  0  0  0  0
  150.8340  140.4825  154.4148 O   0  0  0  0  0  0  0  0  0  0  0  0
  150.4268  139.1393  154.6355 C   0  0  0  0  0  0  0  0  0  0  0  0
  149.3136  138.7544  153.6409 C   0  0  0  0  0  0  0  0  0  0  0  0
  146.4084  137.6894  155.2384 H   0  0  0  0  0  0  0  0  0  0  0  0
  146.9454  138.3186  156.7790 H   0  0  0  0  0  0  0  0  0  0  0  0
  148.1112  137.6084  155.7047 H   0  0  0  0  0  0  0  0  0  0  0  0
  145.3523  140.1098  154.9483 H   0  0  0  0  0  0  0  0  0  0  0  0
  146.4234  141.4994  155.1544 H   0  0  0  0  0  0  0  0  0  0  0  0
  146.0596  140.4687  156.5127 H   0  0  0  0  0  0  0  0  0  0  0  0
  146.2110  140.0895  152.6615 H   0  0  0  0  0  0  0  0  0  0  0  0
  147.5341  139.6748  151.6356 H   0  0  0  0  0  0  0  0  0  0  0  0
  145.5122  136.2279  151.5472 H   0  0  0  0  0  0  0  0  0  0  0  0
  142.8389  137.3285  153.7919 H   0  0  0  0  0  0  0  0  0  0  0  0
  140.7238  136.0695  154.1119 H   0  0  0  0  0  0  0  0  0  0  0  0
  140.5181  133.7395  153.0674 H   0  0  0  0  0  0  0  0  0  0  0  0
  146.1417  132.7213  152.0663 H   0  0  0  0  0  0  0  0  0  0  0  0
  144.6147  132.2829  152.8155 H   0  0  0  0  0  0  0  0  0  0  0  0
  145.7158  130.7070  150.8524 H   0  0  0  0  0  0  0  0  0  0  0  0
  143.9715  130.9238  150.9752 H   0  0  0  0  0  0  0  0  0  0  0  0
  145.8803  132.4354  149.1675 H   0  0  0  0  0  0  0  0  0  0  0  0
  144.3543  131.6731  148.7099 H   0  0  0  0  0  0  0  0  0  0  0  0
  143.0757  133.3936  149.8041 H   0  0  0  0  0  0  0  0  0  0  0  0
  144.4549  134.3383  149.2496 H   0  0  0  0  0  0  0  0  0  0  0  0
  149.0847  141.2388  152.5841 H   0  0  0  0  0  0  0  0  0  0  0  0
  147.8915  141.8980  153.6487 H   0  0  0  0  0  0  0  0  0  0  0  0
  150.1725  142.4187  154.4115 H   0  0  0  0  0  0  0  0  0  0  0  0
  149.4155  141.3973  155.6135 H   0  0  0  0  0  0  0  0  0  0  0  0
  151.2905  138.4891  154.4952 H   0  0  0  0  0  0  0  0  0  0  0  0
  150.1048  139.0127  155.6695 H   0  0  0  0  0  0  0  0  0  0  0  0
  149.0677  137.6982  153.7586 H   0  0  0  0  0  0  0  0  0  0  0  0
  149.7500  138.8257  152.6413 H   0  0  0  0  0  0  0  0  0  0  0  0
  148.1570  139.9643  155.7326 H   0  0  0  0  0  0  0  0  0  0  0  0
  142.3000  132.8987  151.8631 H   0  0  0  0  0  0  0  0  0  0  0  0
  1  2  1  0  0  0  0
  1 26  1  0  0  0  0
  1 27  1  0  0  0  0
  1 28  1  0  0  0  0
  2  3  1  0  0  0  0
  2  4  1  0  0  0  0
  2 54  1  0  0  0  0
  3 29  1  0  0  0  0
  3 30  1  0  0  0  0
  3 31  1  0  0  0  0
  4 25  1  0  0  0  0
  4  5  1  0  0  0  0
  4 21  1  0  0  0  0
  5  6  1  0  0  0  0
  5 32  1  0  0  0  0
  5 33  1  0  0  0  0
  6  7  1  0  0  0  0
  7  8  2  0  0  0  0
  7  9  1  0  0  0  0
  9 10  1  0  0  0  0
  9 34  1  0  0  0  0
 10 15  1  0  0  0  0
 10 11  2  0  0  0  0
 11 12  1  0  0  0  0
 11 35  1  0  0  0  0
 12 13  2  0  0  0  0
 12 36  1  0  0  0  0
 13 14  1  0  0  0  0
 13 37  1  0  0  0  0
 14 15  2  0  0  0  0
 14 55  1  0  0  0  0
 15 16  1  0  0  0  0
 16 20  1  0  0  0  0
 16 17  1  0  0  0  0
 17 18  1  0  0  0  0
 17 38  1  0  0  0  0
 17 39  1  0  0  0  0
 18 19  1  0  0  0  0
 18 40  1  0  0  0  0
 18 41  1  0  0  0  0
 19 20  1  0  0  0  0
 19 42  1  0  0  0  0
 19 43  1  0  0  0  0
 20 44  1  0  0  0  0
 20 45  1  0  0  0  0
 21 22  1  0  0  0  0
 21 46  1  0  0  0  0
 21 47  1  0  0  0  0
 22 23  1  0  0  0  0
 22 48  1  0  0  0  0
 22 49  1  0  0  0  0
 23 24  1  0  0  0  0
 24 25  1  0  0  0  0
 24 50  1  0  0  0  0
 24 51  1  0  0  0  0
 25 52  1  0  0  0  0
 25 53  1  0  0  0  0
M  CHG  1   2   1
M  CHG  1   6  -1
M  CHG  1  14   1
M  END
> <s_m_source_file>
AV-unprocessed.smi

> <i_m_source_file_index>
1010

> <i_lp_mmshare_version>
43012

> <i_f3d_flags>
0

> <s_epik_input>
W0NIMl0xW0NIMl1PW0NIMl1bQ0gyXUMxKE4oW0NIM10pW0NIM10pW0NIMl1bTkhdQyg9TylbTkhdYzJbY0hdW2NIXVtjSF1uYzJOM1tDSDJdW0NIMl1bQ0gyXVtDSDJdMw==

> <s_epik_cmdline>
J2VwaWtfcHl0aG9uJywgJy1waCcsICc3LjAnLCAnLXRuJywgJzgnLCAnLW1hJywgJzIwMCcsICctbWV0YWxfYmluZGluZycsICctaW1hZScsICc8aW5maWxlLm1hZT4nLCAnLW9tYWUnLCAnPG91dGZpbGUubWFlPic=

> <r_lp_tautomer_probability>
0.999994

> <r_epik_Ionization_Penalty>
8.43521

> <r_epik_Ionization_Penalty_Charging>
8.43521

> <r_epik_Ionization_Penalty_Neutral>
3.38325e-06

> <r_epik_State_Penalty>
7.95094

> <r_epik_Charging_Adjusted_Penalty>
16.3861

> <i_epik_Tot_Q>
1

> <i_epik_Tot_abs_Q>
3

> <r_epik_Metal_State_Penalty>
3.94206

> <b_epik_Metal_Only>
1

> <s_lp_Force_Field>
OPLS_2005

> <r_lp_Energy>
62.009

> <b_lp_Chiralities_Consistent>
1

> <s_lp_Variant>
AV-unprocessed.smi:1010-4

> <Gold.Version>
5.8.1

> <Gold.Id.Protein>
6NUR|6NUR_protein|mol2

> <Gold.PLP.Fitness>
42.1979

> <Gold.PLP.PLP>
-40.1565

> <Gold.PLP.part.hbond>
-2.2626

> <Gold.PLP.part.metal>
0.0000

> <Gold.PLP.part.buried>
-7.2415

> <Gold.PLP.part.nonpolar>
-32.4882

> <Gold.PLP.part.repulsive>
0.8659

> <Gold.PLP.ligand.clash>
0.0000

> <Gold.PLP.ligand.torsion>
0.7555

> <Gold.PLP.Chemscore.Hbond>
1.0000

> <Gold.PLP.Chemscore.CHOScore>
0.0000

> <Gold.PLP.Chemscore.Metal>
0.0000

> <Gold.Chemscore.Hbonds>
donor molecule, donor type, donor heavy atom, donor atom, acceptor molecule, acceptor atom, score
      P1  H  7989  7998       L1    23  0.36

> <Gold.PLP.Chemscore.Internal.Correction>
0.5523

> <Gold.Rescore>
     Score         DG    S(hbond)    S(metal)    S(lipo)     H(rot)  DE(clash)    DE(int)     intcor
     13.73     -15.97       0.91        0.00      98.81       1.60       0.05       2.19       ----

> <Gold.Chemscore.Fitness>
13.7308

> <Gold.Chemscore.DG>
-15.9674

> <Gold.Chemscore.ZeroCoef>
-5.4800

> <Gold.Chemscore.Hbond>
0.9075

> <Gold.Chemscore.Metal>
0.0000

> <Gold.Chemscore.Lipo>
98.8112

> <Gold.Chemscore.Internal_Hbond>
0.0000

> <Gold.Chemscore.DEClash>
0.0504

> <Gold.Chemscore.DEInternal>
2.1863

> <Gold.Chemscore.Rot>
1.6033

> <Gold.Chemscore.Internal.Correction>
   9.000000E+99

> <Gold.Chemscore.Hbonds>
donor molecule, donor type, donor heavy atom, donor atom, acceptor molecule, acceptor atom, score
      P1  H  7989  7998       L1    23  0.26

> <Gold.Chemscore.Hbond.Weighted>
-3.0310

> <Gold.Chemscore.Metal.Weighted>
-0.0000

> <Gold.Chemscore.Lipo.Weighted>
-11.5609

> <Gold.Chemscore.Internal_Hbond.Weighted>
0.0000

> <Gold.Chemscore.DEClash.Weighted>
0.0504

> <Gold.Chemscore.DEInternal.Weighted>
2.1863

> <Gold.Chemscore.Rot.Weighted>
4.1046

> <Gold.Chemscore.Internal.Correction.Weighted>
   9.000000E+99

> <Gold.Protein.RotatedTorsions>
[ 6907 6896 6895 6894 ] final  -52.72 input  -60.11 | X-H torsion
[ 7974 7965 7964 7962 ] final  -95.73 input  175.53 | X-H torsion
[ 8008 7997 7996 7995 ] final  178.54 input   59.86 | X-H torsion
[ 10167 10162 10161 10158 ] final  142.52 input  -65.29 | X-H torsion
[ 10718 10713 10712 10709 ] final  -20.16 input   66.30 | X-H torsion
[ 10763 10752 10751 10750 ] final  -19.21 input  -60.55 | X-H torsion
[ 11005 11000 10999 10996 ] final   39.01 input  -57.11 | X-H torsion

> <Gold.Protein.ActiveResidues>
 VAL166  LYS551  ARG553  GLY616  TRP617  ASP618  TYR619  PRO620  LYS621  CYS622 
 ASP623  PHE694  ASN695  SER759  ASP760  ASP761  ALA762  ILE779  LEU786  VAL792 
 PHE793  MET794  SER795  GLU796  ALA797  LYS798  CYS799  TRP800  GLU811  SER814 

> <Gold.Protein.RotatedAtoms>
  150.8492  134.7811  159.6994 H   0  0  0  0  0  0  0  0  0  0  0  0  # atno 6907 bound_to 6896
  152.4561  134.5285  159.9813 H   0  0  0  0  0  0  0  0  0  0  0  0  # atno 6908 bound_to 6896
  151.5409  133.3395  159.2971 H   0  0  0  0  0  0  0  0  0  0  0  0  # atno 6909 bound_to 6896
  145.3562  140.9484  143.2526 H   0  0  0  0  0  0  0  0  0  0  0  0  # atno 7974 bound_to 7965
  156.0535  140.1331  157.0023 H   0  0  0  0  0  0  0  0  0  0  0  0  # atno 8008 bound_to 7997
  154.4446  140.1006  156.6482 H   0  0  0  0  0  0  0  0  0  0  0  0  # atno 8009 bound_to 7997
  155.5487  140.3462  155.4465 H   0  0  0  0  0  0  0  0  0  0  0  0  # atno 8010 bound_to 7997
  139.4992  144.6101  151.6290 H   0  0  0  0  0  0  0  0  0  0  0  0  # atno 10167 bound_to 10162
  156.5357  130.4666  149.6524 H   0  0  0  0  0  0  0  0  0  0  0  0  # atno 10718 bound_to 10713
  153.6012  135.6999  153.5384 H   0  0  0  0  0  0  0  0  0  0  0  0  # atno 10763 bound_to 10752
  153.3095  135.4105  155.1323 H   0  0  0  0  0  0  0  0  0  0  0  0  # atno 10764 bound_to 10752
  154.8582  135.3668  154.5547 H   0  0  0  0  0  0  0  0  0  0  0  0  # atno 10765 bound_to 10752
  140.2069  134.3802  155.8068 H   0  0  0  0  0  0  0  0  0  0  0  0  # atno 11005 bound_to 11000
  144.8680  139.5079  143.6781 LP  0  0  0  0  0  0  0  0  0  0  0  0  # atno 17320 bound_to 7965
  146.2947  139.7241  142.9135 LP  0  0  0  0  0  0  0  0  0  0  0  0  # atno 17321 bound_to 7965
  140.5774  144.0005  150.6249 LP  0  0  0  0  0  0  0  0  0  0  0  0  # atno 17342 bound_to 10162
  140.3143  143.3178  152.0848 LP  0  0  0  0  0  0  0  0  0  0  0  0  # atno 17343 bound_to 10162
  156.3018  130.7181  151.2054 LP  0  0  0  0  0  0  0  0  0  0  0  0  # atno 17370 bound_to 10713
  157.7414  131.0504  150.5099 LP  0  0  0  0  0  0  0  0  0  0  0  0  # atno 17371 bound_to 10713
  141.2227  133.7123  156.8353 LP  0  0  0  0  0  0  0  0  0  0  0  0  # atno 17394 bound_to 11000
  140.1993  134.8909  157.3150 LP  0  0  0  0  0  0  0  0  0  0  0  0  # atno 17395 bound_to 11000

$$$$
