AV-unprocessed.smi:2440|AV-procd|sdf|9615|dock1
  -GOLD-   2272013243D 1   1.00000     0.00000
 Structure written by MMmdl.
 52 54  0  0  0  0  0  0  0  0  2 V2000
  147.8029  133.0948  152.9355 C   0  0  0  0  0  0  0  0  0  0  0  0
  148.5287  132.6659  154.1986 C   0  0  0  0  0  0  0  0  0  0  0  0
  148.5369  131.3064  154.5788 C   0  0  0  0  0  0  0  0  0  0  0  0
  149.1539  130.8448  155.6862 N   0  0  0  0  0  0  0  0  0  0  0  0
  149.7913  131.7388  156.4695 C   0  0  0  0  0  0  0  0  0  0  0  0
  149.8474  133.1172  156.1859 C   0  0  0  0  0  0  0  0  0  0  0  0
  149.2123  133.5987  155.0158 C   0  0  0  0  0  0  0  0  0  0  0  0
  149.1884  134.9754  154.6560 N   0  0  0  0  0  0  0  0  0  0  0  0
  149.5044  136.0435  155.4083 C   0  0  0  0  0  0  0  0  0  0  0  0
  149.9338  136.0022  156.5613 O   0  0  0  0  0  0  0  0  0  0  0  0
  149.3157  137.1855  154.7314 N   0  0  0  0  0  0  0  0  0  0  0  0
  149.5678  138.5246  155.2550 C   0  0  2  0  0  0  0  0  0  0  0  0
  151.0784  138.7813  155.3277 C   0  0  0  0  0  0  0  0  0  0  0  0
  151.3893  140.1497  155.9584 C   0  0  0  0  0  0  0  0  0  0  0  0
  150.7785  140.2843  157.3132 N   0  3  1  0  0  0  0  0  0  0  0  0
  151.1240  141.5331  158.0685 C   0  0  0  0  0  0  0  0  0  0  0  0
  151.2247  142.8106  157.1925 C   0  0  0  0  0  0  0  0  0  0  0  0
  151.6124  144.0495  158.0157 C   0  0  0  0  0  0  0  0  0  0  0  0
  152.9308  143.8300  158.7677 C   0  0  0  0  0  0  0  0  0  0  0  0
  152.8477  142.5797  159.6524 C   0  0  0  0  0  0  0  0  0  0  0  0
  152.4582  141.3400  158.8311 C   0  0  0  0  0  0  0  0  0  0  0  0
  149.3056  140.0617  157.2498 C   0  0  0  0  0  0  0  0  0  0  0  0
  148.9609  138.6861  156.6573 C   0  0  0  0  0  0  0  0  0  0  0  0
  147.3864  132.2369  152.4070 H   0  0  0  0  0  0  0  0  0  0  0  0
  148.4866  133.6075  152.2582 H   0  0  0  0  0  0  0  0  0  0  0  0
  146.9835  133.7715  153.1794 H   0  0  0  0  0  0  0  0  0  0  0  0
  148.0311  130.5640  153.9791 H   0  0  0  0  0  0  0  0  0  0  0  0
  150.2660  131.3445  157.3560 H   0  0  0  0  0  0  0  0  0  0  0  0
  150.3595  133.7736  156.8726 H   0  0  0  0  0  0  0  0  0  0  0  0
  148.9507  135.1642  153.6933 H   0  0  0  0  0  0  0  0  0  0  0  0
  148.9668  137.1235  153.7859 H   0  0  0  0  0  0  0  0  0  0  0  0
  149.1265  139.2662  154.5857 H   0  0  0  0  0  0  0  0  0  0  0  0
  151.5604  137.9970  155.9138 H   0  0  0  0  0  0  0  0  0  0  0  0
  151.5135  138.7309  154.3286 H   0  0  0  0  0  0  0  0  0  0  0  0
  152.4743  140.2305  156.0112 H   0  0  0  0  0  0  0  0  0  0  0  0
  151.0333  140.9542  155.3128 H   0  0  0  0  0  0  0  0  0  0  0  0
  150.3289  141.7124  158.7947 H   0  0  0  0  0  0  0  0  0  0  0  0
  151.9608  142.6637  156.4005 H   0  0  0  0  0  0  0  0  0  0  0  0
  150.2719  143.0240  156.7073 H   0  0  0  0  0  0  0  0  0  0  0  0
  151.7001  144.9173  157.3612 H   0  0  0  0  0  0  0  0  0  0  0  0
  150.8188  144.2792  158.7279 H   0  0  0  0  0  0  0  0  0  0  0  0
  153.7480  143.7219  158.0532 H   0  0  0  0  0  0  0  0  0  0  0  0
  153.1643  144.7043  159.3761 H   0  0  0  0  0  0  0  0  0  0  0  0
  153.8057  142.4122  160.1457 H   0  0  0  0  0  0  0  0  0  0  0  0
  152.1160  142.7392  160.4453 H   0  0  0  0  0  0  0  0  0  0  0  0
  152.4080  140.4867  159.5060 H   0  0  0  0  0  0  0  0  0  0  0  0
  153.2548  141.1159  158.1200 H   0  0  0  0  0  0  0  0  0  0  0  0
  148.8600  140.1312  158.2408 H   0  0  0  0  0  0  0  0  0  0  0  0
  148.8460  140.8481  156.6489 H   0  0  0  0  0  0  0  0  0  0  0  0
  147.8774  138.5681  156.6134 H   0  0  0  0  0  0  0  0  0  0  0  0
  149.3311  137.9015  157.3191 H   0  0  0  0  0  0  0  0  0  0  0  0
  151.1637  139.5241  157.8553 H   0  0  0  0  0  0  0  0  0  0  0  0
  1  2  1  0  0  0  0
  1 24  1  0  0  0  0
  1 25  1  0  0  0  0
  1 26  1  0  0  0  0
  2  7  1  0  0  0  0
  2  3  2  0  0  0  0
  3  4  1  0  0  0  0
  3 27  1  0  0  0  0
  4  5  2  0  0  0  0
  5  6  1  0  0  0  0
  5 28  1  0  0  0  0
  6  7  2  0  0  0  0
  6 29  1  0  0  0  0
  7  8  1  0  0  0  0
  8  9  1  0  0  0  0
  8 30  1  0  0  0  0
  9 10  2  0  0  0  0
  9 11  1  0  0  0  0
 11 12  1  0  0  0  0
 11 31  1  0  0  0  0
 12 23  1  0  0  0  0
 12 13  1  0  0  0  0
 12 32  1  0  0  0  0
 13 14  1  0  0  0  0
 13 33  1  0  0  0  0
 13 34  1  0  0  0  0
 14 15  1  0  0  0  0
 14 35  1  0  0  0  0
 14 36  1  0  0  0  0
 15 16  1  0  0  0  0
 15 22  1  0  0  0  0
 15 52  1  0  0  0  0
 16 21  1  0  0  0  0
 16 17  1  0  0  0  0
 16 37  1  0  0  0  0
 17 18  1  0  0  0  0
 17 38  1  0  0  0  0
 17 39  1  0  0  0  0
 18 19  1  0  0  0  0
 18 40  1  0  0  0  0
 18 41  1  0  0  0  0
 19 20  1  0  0  0  0
 19 42  1  0  0  0  0
 19 43  1  0  0  0  0
 20 21  1  0  0  0  0
 20 44  1  0  0  0  0
 20 45  1  0  0  0  0
 21 46  1  0  0  0  0
 21 47  1  0  0  0  0
 22 23  1  0  0  0  0
 22 48  1  0  0  0  0
 22 49  1  0  0  0  0
 23 50  1  0  0  0  0
 23 51  1  0  0  0  0
M  CHG  1  15   1
M  END
> <s_m_source_file>
AV-unprocessed.smi

> <i_m_source_file_index>
2440

> <i_lp_mmshare_version>
43012

> <i_f3d_flags>
0

> <s_epik_input>
W0NIM11jMVtjSF1uW2NIXVtjSF1jMVtOSF1DKD1PKVtOSF1bQ0hdMltDSDJdW0NIMl1OKFtDSDJdW0NIMl0yKVtDSF0zW0NIMl1bQ0gyXVtDSDJdW0NIMl1bQ0gyXTM=

> <s_epik_cmdline>
J2VwaWtfcHl0aG9uJywgJy1waCcsICc3LjAnLCAnLXRuJywgJzgnLCAnLW1hJywgJzIwMCcsICctbWV0YWxfYmluZGluZycsICctaW1hZScsICc8aW5maWxlLm1hZT4nLCAnLW9tYWUnLCAnPG91dGZpbGUubWFlPic=

> <r_epik_Ionization_Penalty>
0.180356

> <r_epik_Ionization_Penalty_Charging>
0.00171891

> <r_epik_Ionization_Penalty_Neutral>
0.178637

> <r_epik_State_Penalty>
0.173134

> <r_epik_Charging_Adjusted_Penalty>
0.174853

> <i_epik_Tot_Q>
1

> <i_epik_Tot_abs_Q>
1

> <r_epik_Metal_State_Penalty>
0.131816

> <b_epik_Metal_Only>
0

> <s_lp_Force_Field>
OPLS_2005

> <r_lp_Energy>
33.4917

> <b_lp_Chiralities_Consistent>
1

> <s_lp_Variant>
AV-unprocessed.smi:2440-1

> <Gold.Version>
5.8.1

> <Gold.Id.Protein>
6NUR|6NUR_protein|mol2

> <Gold.PLP.Fitness>
48.5858

> <Gold.PLP.PLP>
-44.5629

> <Gold.PLP.part.hbond>
-2.0000

> <Gold.PLP.part.metal>
0.0000

> <Gold.PLP.part.buried>
-5.3693

> <Gold.PLP.part.nonpolar>
-38.4904

> <Gold.PLP.part.repulsive>
0.1099

> <Gold.PLP.ligand.clash>
0.0000

> <Gold.PLP.ligand.torsion>
0.8775

> <Gold.PLP.Chemscore.Hbond>
1.9100

> <Gold.PLP.Chemscore.CHOScore>
0.0000

> <Gold.PLP.Chemscore.Metal>
0.0000

> <Gold.Chemscore.Hbonds>
donor molecule, donor type, donor heavy atom, donor atom, acceptor molecule, acceptor atom, score
      L1  H     8    30       P1  7948  0.86
      L1  H    11    31       P1  7948  0.81

> <Gold.PLP.Chemscore.Internal.Correction>
0.0478

> <Gold.Rescore>
     Score         DG    S(hbond)    S(metal)    S(lipo)     H(rot)  DE(clash)    DE(int)     intcor
     17.74     -21.13       1.50        0.00     116.58       1.17       0.01       3.37       ----

> <Gold.Chemscore.Fitness>
17.7436

> <Gold.Chemscore.DG>
-21.1271

> <Gold.Chemscore.ZeroCoef>
-5.4800

> <Gold.Chemscore.Hbond>
1.4988

> <Gold.Chemscore.Metal>
0.0000

> <Gold.Chemscore.Lipo>
116.5844

> <Gold.Chemscore.Internal_Hbond>
0.0000

> <Gold.Chemscore.DEClash>
0.0149

> <Gold.Chemscore.DEInternal>
3.3687

> <Gold.Chemscore.Rot>
1.1715

> <Gold.Chemscore.Internal.Correction>
   9.000000E+99

> <Gold.Chemscore.Hbonds>
donor molecule, donor type, donor heavy atom, donor atom, acceptor molecule, acceptor atom, score
      L1  H     8    30       P1  7948  0.50
      L1  H    11    31       P1  7948  0.77

> <Gold.Chemscore.Hbond.Weighted>
-5.0059

> <Gold.Chemscore.Metal.Weighted>
-0.0000

> <Gold.Chemscore.Lipo.Weighted>
-13.6404

> <Gold.Chemscore.Internal_Hbond.Weighted>
0.0000

> <Gold.Chemscore.DEClash.Weighted>
0.0149

> <Gold.Chemscore.DEInternal.Weighted>
3.3687

> <Gold.Chemscore.Rot.Weighted>
2.9991

> <Gold.Chemscore.Internal.Correction.Weighted>
   9.000000E+99

> <Gold.Protein.RotatedTorsions>
[ 6907 6896 6895 6894 ] final  -12.59 input  -60.11 | X-H torsion
[ 7974 7965 7964 7962 ] final   73.06 input  175.53 | X-H torsion
[ 8008 7997 7996 7995 ] final   80.47 input   59.86 | X-H torsion
[ 10167 10162 10161 10158 ] final   27.88 input  -65.29 | X-H torsion
[ 10718 10713 10712 10709 ] final   21.00 input   66.30 | X-H torsion
[ 10763 10752 10751 10750 ] final  -36.97 input  -60.55 | X-H torsion
[ 11005 11000 10999 10996 ] final  173.07 input  -57.11 | X-H torsion

> <Gold.Protein.ActiveResidues>
 VAL166  LYS551  ARG553  GLY616  TRP617  ASP618  TYR619  PRO620  LYS621  CYS622 
 ASP623  PHE694  ASN695  SER759  ASP760  ASP761  ALA762  ILE779  LEU786  VAL792 
 PHE793  MET794  SER795  GLU796  ALA797  LYS798  CYS799  TRP800  GLU811  SER814 

> <Gold.Protein.RotatedAtoms>
  151.3681  135.0917  159.9456 H   0  0  0  0  0  0  0  0  0  0  0  0  # atno 6907 bound_to 6896
  152.5143  133.9192  159.7536 H   0  0  0  0  0  0  0  0  0  0  0  0  # atno 6908 bound_to 6896
  150.9600  133.6401  159.2785 H   0  0  0  0  0  0  0  0  0  0  0  0  # atno 6909 bound_to 6896
  145.7456  139.2739  143.1461 H   0  0  0  0  0  0  0  0  0  0  0  0  # atno 7974 bound_to 7965
  155.8839  140.3442  155.5907 H   0  0  0  0  0  0  0  0  0  0  0  0  # atno 8008 bound_to 7997
  155.7688  140.0842  157.2137 H   0  0  0  0  0  0  0  0  0  0  0  0  # atno 8009 bound_to 7997
  154.4027  140.1522  156.2905 H   0  0  0  0  0  0  0  0  0  0  0  0  # atno 8010 bound_to 7997
  140.4900  144.0482  150.6294 H   0  0  0  0  0  0  0  0  0  0  0  0  # atno 10167 bound_to 10162
  157.1324  130.6597  149.5956 H   0  0  0  0  0  0  0  0  0  0  0  0  # atno 10718 bound_to 10713
  153.8886  135.6814  153.4762 H   0  0  0  0  0  0  0  0  0  0  0  0  # atno 10763 bound_to 10752
  153.1193  135.4747  154.9167 H   0  0  0  0  0  0  0  0  0  0  0  0  # atno 10764 bound_to 10752
  154.7633  135.3217  154.8288 H   0  0  0  0  0  0  0  0  0  0  0  0  # atno 10765 bound_to 10752
  140.3365  134.7313  157.4172 H   0  0  0  0  0  0  0  0  0  0  0  0  # atno 11005 bound_to 11000
  146.0406  140.8169  142.9830 LP  0  0  0  0  0  0  0  0  0  0  0  0  # atno 17320 bound_to 7965
  144.6861  140.2904  143.7279 LP  0  0  0  0  0  0  0  0  0  0  0  0  # atno 17321 bound_to 7965
  140.3748  143.2834  152.0237 LP  0  0  0  0  0  0  0  0  0  0  0  0  # atno 17342 bound_to 10162
  139.4849  144.6201  151.7271 LP  0  0  0  0  0  0  0  0  0  0  0  0  # atno 17343 bound_to 10162
  155.9805  130.4806  150.6776 LP  0  0  0  0  0  0  0  0  0  0  0  0  # atno 17370 bound_to 10713
  157.4380  131.0858  151.0972 LP  0  0  0  0  0  0  0  0  0  0  0  0  # atno 17371 bound_to 10713
  140.0817  134.5722  155.8534 LP  0  0  0  0  0  0  0  0  0  0  0  0  # atno 17394 bound_to 11000
  141.2050  133.6643  156.6153 LP  0  0  0  0  0  0  0  0  0  0  0  0  # atno 17395 bound_to 11000

$$$$
