AV-unprocessed.smi:2721|AV-procd|sdf|10501|dock7
  -GOLD-   2272014543D 1   1.00000     0.00000
 Structure written by MMmdl.
 29 30  0  0  0  0  0  0  0  0  2 V2000
  141.3008  135.3284  154.0210 C   0  0  0  0  0  0  0  0  0  0  0  0
  142.4120  135.3430  153.0939 N   0  0  0  0  0  0  0  0  0  0  0  0
  143.0565  134.2771  152.5058 C   0  0  0  0  0  0  0  0  0  0  0  0
  144.0476  134.7787  151.7047 C   0  0  0  0  0  0  0  0  0  0  0  0
  145.0787  134.0808  150.8377 C   0  0  2  0  0  0  0  0  0  0  0  0
  144.5042  133.1573  149.9096 O   0  0  0  0  0  0  0  0  0  0  0  0
  144.0284  131.9286  150.4565 C   0  0  0  0  0  0  0  0  0  0  0  0
  145.1619  131.1816  151.1755 C   0  0  0  0  0  0  0  0  0  0  0  0
  145.8047  132.0679  152.2467 C   0  0  0  0  0  0  0  0  0  0  0  0
  146.2324  133.4025  151.6193 C   0  0  2  0  0  0  0  0  0  0  0  0
  146.8291  134.3069  152.6201 N   0  3  0  0  0  0  0  0  0  0  0  0
  143.9169  136.1868  151.8824 C   0  0  0  0  0  0  0  0  0  0  0  0
  142.9438  136.5205  152.7128 N   0  0  0  0  0  0  0  0  0  0  0  0
  145.5442  134.8396  150.2070 H   0  0  0  0  0  0  0  0  0  0  0  0
  147.0222  133.1770  150.9013 H   0  0  0  0  0  0  0  0  0  0  0  0
  140.9544  134.3059  154.1743 H   0  0  0  0  0  0  0  0  0  0  0  0
  140.4789  135.9247  153.6233 H   0  0  0  0  0  0  0  0  0  0  0  0
  141.6148  135.7441  154.9788 H   0  0  0  0  0  0  0  0  0  0  0  0
  142.7523  133.2619  152.7111 H   0  0  0  0  0  0  0  0  0  0  0  0
  143.1876  132.1014  151.1261 H   0  0  0  0  0  0  0  0  0  0  0  0
  143.6447  131.3164  149.6404 H   0  0  0  0  0  0  0  0  0  0  0  0
  144.7829  130.2627  151.6242 H   0  0  0  0  0  0  0  0  0  0  0  0
  145.9175  130.8841  150.4473 H   0  0  0  0  0  0  0  0  0  0  0  0
  145.1056  132.2300  153.0662 H   0  0  0  0  0  0  0  0  0  0  0  0
  146.6672  131.5581  152.6778 H   0  0  0  0  0  0  0  0  0  0  0  0
  147.0041  133.7961  153.4739 H   0  0  0  0  0  0  0  0  0  0  0  0
  146.1915  135.0668  152.8101 H   0  0  0  0  0  0  0  0  0  0  0  0
  144.5052  136.9749  151.4359 H   0  0  0  0  0  0  0  0  0  0  0  0
  147.6985  134.6785  152.2649 H   0  0  0  0  0  0  0  0  0  0  0  0
  1  2  1  0  0  0  0
  1 16  1  0  0  0  0
  1 17  1  0  0  0  0
  1 18  1  0  0  0  0
  2 13  1  0  0  0  0
  2  3  1  0  0  0  0
  3  4  2  0  0  0  0
  3 19  1  0  0  0  0
  4  5  1  0  0  0  0
  4 12  1  0  0  0  0
  5 14  1  0  0  0  0
  5 10  1  0  0  0  0
  5  6  1  0  0  0  0
  6  7  1  0  0  0  0
  7  8  1  0  0  0  0
  7 20  1  0  0  0  0
  7 21  1  0  0  0  0
  8  9  1  0  0  0  0
  8 22  1  0  0  0  0
  8 23  1  0  0  0  0
  9 10  1  0  0  0  0
  9 24  1  0  0  0  0
  9 25  1  0  0  0  0
 10 15  1  0  0  0  0
 10 11  1  0  0  0  0
 11 26  1  0  0  0  0
 11 27  1  0  0  0  0
 11 29  1  0  0  0  0
 12 13  2  0  0  0  0
 12 28  1  0  0  0  0
M  CHG  1  11   1
M  END
> <s_m_source_file>
AV-unprocessed.smi

> <i_m_source_file_index>
2721

> <i_lp_mmshare_version>
43012

> <i_f3d_flags>
0

> <s_epik_input>
W0NIM11uMVtjSF1jKFtjSF1uMSlbQ0BIXTJPW0NIMl1bQ0gyXVtDSDJdW0NAQEhdMltOSDJd

> <s_epik_cmdline>
J2VwaWtfcHl0aG9uJywgJy1waCcsICc3LjAnLCAnLXRuJywgJzgnLCAnLW1hJywgJzIwMCcsICctbWV0YWxfYmluZGluZycsICctaW1hZScsICc8aW5maWxlLm1hZT4nLCAnLW9tYWUnLCAnPG91dGZpbGUubWFlPic=

> <r_lp_tautomer_probability>
1

> <r_epik_Ionization_Penalty>
0.0061467

> <r_epik_Ionization_Penalty_Charging>
0.00611941

> <r_epik_Ionization_Penalty_Neutral>
2.72888e-05

> <r_epik_State_Penalty>
0.00451057

> <r_epik_Charging_Adjusted_Penalty>
0.01063

> <i_epik_Tot_Q>
1

> <i_epik_Tot_abs_Q>
1

> <r_epik_Metal_State_Penalty>
-0

> <b_epik_Metal_Only>
0

> <s_lp_Force_Field>
OPLS_2005

> <r_lp_Energy>
14.6487

> <b_lp_Chiralities_Consistent>
1

> <s_lp_Variant>
AV-unprocessed.smi:2721-2

> <Gold.Version>
5.8.1

> <Gold.Id.Protein>
6NUR|6NUR_protein|mol2

> <Gold.PLP.Fitness>
33.5474

> <Gold.PLP.PLP>
-21.9260

> <Gold.PLP.part.hbond>
-1.0000

> <Gold.PLP.part.metal>
0.0000

> <Gold.PLP.part.buried>
-3.1858

> <Gold.PLP.part.nonpolar>
-19.5300

> <Gold.PLP.part.repulsive>
0.3713

> <Gold.PLP.ligand.clash>
0.0000

> <Gold.PLP.ligand.torsion>
0.2155

> <Gold.PLP.Chemscore.Hbond>
2.0000

> <Gold.PLP.Chemscore.CHOScore>
1.9972

> <Gold.PLP.Chemscore.Metal>
0.0000

> <Gold.Chemscore.Hbonds>
donor molecule, donor type, donor heavy atom, donor atom, acceptor molecule, acceptor atom, score
      L1  H    11    29       P1  7948  2.00
      L1  C     3    19       P1 10957  0.97
      L1  C    12    28       P1 10171  0.98

> <Gold.PLP.Chemscore.Internal.Correction>
0.0607

> <Gold.Rescore>
     Score         DG    S(hbond)    S(metal)    S(lipo)     H(rot)  DE(clash)    DE(int)     intcor
     12.72     -13.29       0.99        0.00      60.46       1.00       0.32       0.24       ----

> <Gold.Chemscore.Fitness>
12.7241

> <Gold.Chemscore.DG>
-13.2907

> <Gold.Chemscore.ZeroCoef>
-5.4800

> <Gold.Chemscore.Hbond>
0.9872

> <Gold.Chemscore.Metal>
0.0000

> <Gold.Chemscore.Lipo>
60.4556

> <Gold.Chemscore.Internal_Hbond>
0.0000

> <Gold.Chemscore.DEClash>
0.3249

> <Gold.Chemscore.DEInternal>
0.2416

> <Gold.Chemscore.Rot>
1.0000

> <Gold.Chemscore.Internal.Correction>
   9.000000E+99

> <Gold.Chemscore.Hbonds>
donor molecule, donor type, donor heavy atom, donor atom, acceptor molecule, acceptor atom, score
      L1  H    11    29       P1  7948  0.66

> <Gold.Chemscore.Hbond.Weighted>
-3.2974

> <Gold.Chemscore.Metal.Weighted>
-0.0000

> <Gold.Chemscore.Lipo.Weighted>
-7.0733

> <Gold.Chemscore.Internal_Hbond.Weighted>
0.0000

> <Gold.Chemscore.DEClash.Weighted>
0.3249

> <Gold.Chemscore.DEInternal.Weighted>
0.2416

> <Gold.Chemscore.Rot.Weighted>
2.5600

> <Gold.Chemscore.Internal.Correction.Weighted>
   9.000000E+99

> <Gold.Protein.RotatedTorsions>
[ 6907 6896 6895 6894 ] final   34.82 input  -60.11 | X-H torsion
[ 7974 7965 7964 7962 ] final    1.33 input  175.53 | X-H torsion
[ 8008 7997 7996 7995 ] final   99.52 input   59.86 | X-H torsion
[ 10167 10162 10161 10158 ] final  -56.61 input  -65.29 | X-H torsion
[ 10718 10713 10712 10709 ] final -136.02 input   66.30 | X-H torsion
[ 10763 10752 10751 10750 ] final   85.43 input  -60.55 | X-H torsion
[ 11005 11000 10999 10996 ] final -168.40 input  -57.11 | X-H torsion

> <Gold.Protein.ActiveResidues>
 VAL166  LYS551  ARG553  GLY616  TRP617  ASP618  TYR619  PRO620  LYS621  CYS622 
 ASP623  PHE694  ASN695  SER759  ASP760  ASP761  ALA762  ILE779  LEU786  VAL792 
 PHE793  MET794  SER795  GLU796  ALA797  LYS798  CYS799  TRP800  GLU811  SER814 

> <Gold.Protein.RotatedAtoms>
  152.1076  134.9297  160.0567 H   0  0  0  0  0  0  0  0  0  0  0  0  # atno 6907 bound_to 6896
  152.0487  133.4004  159.4376 H   0  0  0  0  0  0  0  0  0  0  0  0  # atno 6908 bound_to 6896
  150.6842  134.3253  159.4847 H   0  0  0  0  0  0  0  0  0  0  0  0  # atno 6909 bound_to 6896
  146.2439  140.1003  142.8348 H   0  0  0  0  0  0  0  0  0  0  0  0  # atno 7974 bound_to 7965
  156.1113  140.3227  155.8076 H   0  0  0  0  0  0  0  0  0  0  0  0  # atno 8008 bound_to 7997
  155.4668  140.0543  157.3001 H   0  0  0  0  0  0  0  0  0  0  0  0  # atno 8009 bound_to 7997
  154.4762  140.2033  155.9888 H   0  0  0  0  0  0  0  0  0  0  0  0  # atno 8010 bound_to 7997
  140.6307  143.2458  151.5249 H   0  0  0  0  0  0  0  0  0  0  0  0  # atno 10167 bound_to 10162
  156.2725  130.7274  151.1245 H   0  0  0  0  0  0  0  0  0  0  0  0  # atno 10718 bound_to 10713
  153.1474  135.4617  154.9586 H   0  0  0  0  0  0  0  0  0  0  0  0  # atno 10763 bound_to 10752
  154.7797  135.3184  154.8018 H   0  0  0  0  0  0  0  0  0  0  0  0  # atno 10764 bound_to 10752
  153.8530  135.6920  153.4844 H   0  0  0  0  0  0  0  0  0  0  0  0  # atno 10765 bound_to 10752
  140.5424  134.5509  157.5103 H   0  0  0  0  0  0  0  0  0  0  0  0  # atno 11005 bound_to 11000
  145.0574  140.9063  143.4959 LP  0  0  0  0  0  0  0  0  0  0  0  0  # atno 17320 bound_to 7965
  145.1112  139.2756  143.5636 LP  0  0  0  0  0  0  0  0  0  0  0  0  # atno 17321 bound_to 7965
  139.5521  144.2368  152.1549 LP  0  0  0  0  0  0  0  0  0  0  0  0  # atno 17342 bound_to 10162
  140.1611  144.5025  150.6632 LP  0  0  0  0  0  0  0  0  0  0  0  0  # atno 17343 bound_to 10162
  157.7288  131.0629  150.5801 LP  0  0  0  0  0  0  0  0  0  0  0  0  # atno 17370 bound_to 10713
  156.5899  130.4326  149.5941 LP  0  0  0  0  0  0  0  0  0  0  0  0  # atno 17371 bound_to 10713
  139.9497  134.7639  156.0477 LP  0  0  0  0  0  0  0  0  0  0  0  0  # atno 17394 bound_to 11000
  141.1219  133.6610  156.3238 LP  0  0  0  0  0  0  0  0  0  0  0  0  # atno 17395 bound_to 11000

$$$$
