AV-unprocessed.smi:625|AV-procd|sdf|3106|dock2
  -GOLD-   22720 0 23D 1   1.00000     0.00000
 Structure written by MMmdl.
 49 51  0  0  0  0  0  0  0  0  1 V2000
  145.7174  136.0218  150.6468 C   0  0  0  0  0  0  0  0  0  0  0  0
  146.3846  134.9327  151.3441 N   0  0  0  0  0  0  0  0  0  0  0  0
  145.9147  133.6754  151.4207 C   0  0  0  0  0  0  0  0  0  0  0  0
  144.8532  133.3503  150.8870 O   0  0  0  0  0  0  0  0  0  0  0  0
  146.7668  132.7584  152.1836 C   0  0  0  0  0  0  0  0  0  0  0  0
  146.4151  131.3527  152.2453 C   0  0  0  0  0  0  0  0  0  0  0  0
  147.1647  130.4840  152.9516 C   0  0  0  0  0  0  0  0  0  0  0  0
  148.3595  130.9150  153.6819 C   0  0  0  0  0  0  0  0  0  0  0  0
  149.0367  130.1308  154.3469 O   0  0  0  0  0  0  0  0  0  0  0  0
  148.6670  132.2446  153.5865 N   0  0  0  0  0  0  0  0  0  0  0  0
  149.8369  132.8013  154.2917 C   0  0  0  0  0  0  0  0  0  0  0  0
  149.4985  133.8546  155.3610 C   0  0  0  0  0  0  0  0  0  0  0  0
  148.6656  133.5857  156.2256 O   0  0  0  0  0  0  0  0  0  0  0  0
  150.1287  135.0397  155.2976 N   0  0  0  0  0  0  0  0  0  0  0  0
  149.8932  136.1898  156.1641 C   0  0  1  0  0  0  0  0  0  0  0  0
  149.7343  135.7065  157.6166 C   0  0  0  0  0  0  0  0  0  0  0  0
  151.0574  137.1977  156.0037 C   0  0  2  0  0  0  0  0  0  0  0  0
  150.7878  138.5691  156.6687 C   0  0  0  0  0  0  0  0  0  0  0  0
  151.0372  139.5715  155.5277 C   0  0  1  0  0  0  0  0  0  0  0  0
  152.5387  139.6067  155.1887 C   0  0  0  0  0  0  0  0  0  0  0  0
  152.7562  138.2581  154.4777 C   0  0  0  0  0  0  0  0  0  0  0  0
  151.3584  137.6133  154.5390 C   0  0  2  0  0  0  0  0  0  0  0  0
  150.4566  138.8257  154.3338 C   0  0  0  0  0  0  0  0  0  0  0  0
  147.8754  133.1488  152.8504 C   0  0  0  0  0  0  0  0  0  0  0  0
  146.2961  136.9396  150.7509 H   0  0  0  0  0  0  0  0  0  0  0  0
  144.7233  136.1971  151.0606 H   0  0  0  0  0  0  0  0  0  0  0  0
  145.6188  135.7992  149.5835 H   0  0  0  0  0  0  0  0  0  0  0  0
  147.2599  135.1448  151.8009 H   0  0  0  0  0  0  0  0  0  0  0  0
  145.5434  130.9836  151.7240 H   0  0  0  0  0  0  0  0  0  0  0  0
  146.8788  129.4428  152.9815 H   0  0  0  0  0  0  0  0  0  0  0  0
  150.4118  132.0019  154.7627 H   0  0  0  0  0  0  0  0  0  0  0  0
  150.5252  133.2560  153.5779 H   0  0  0  0  0  0  0  0  0  0  0  0
  150.8031  135.1692  154.5573 H   0  0  0  0  0  0  0  0  0  0  0  0
  148.9667  136.6784  155.8580 H   0  0  0  0  0  0  0  0  0  0  0  0
  149.5241  136.5339  158.2939 H   0  0  0  0  0  0  0  0  0  0  0  0
  150.6389  135.2104  157.9705 H   0  0  0  0  0  0  0  0  0  0  0  0
  148.9100  134.9985  157.7080 H   0  0  0  0  0  0  0  0  0  0  0  0
  151.9520  136.7483  156.4387 H   0  0  0  0  0  0  0  0  0  0  0  0
  149.7554  138.6520  157.0109 H   0  0  0  0  0  0  0  0  0  0  0  0
  151.4348  138.7475  157.5283 H   0  0  0  0  0  0  0  0  0  0  0  0
  150.6060  140.5564  155.7099 H   0  0  0  0  0  0  0  0  0  0  0  0
  152.7680  140.4351  154.5172 H   0  0  0  0  0  0  0  0  0  0  0  0
  153.1601  139.7134  156.0786 H   0  0  0  0  0  0  0  0  0  0  0  0
  153.0621  138.4164  153.4428 H   0  0  0  0  0  0  0  0  0  0  0  0
  153.5210  137.6483  154.9601 H   0  0  0  0  0  0  0  0  0  0  0  0
  151.2296  136.8221  153.8004 H   0  0  0  0  0  0  0  0  0  0  0  0
  149.3936  138.6022  154.4356 H   0  0  0  0  0  0  0  0  0  0  0  0
  150.6242  139.3342  153.3826 H   0  0  0  0  0  0  0  0  0  0  0  0
  148.2347  134.1673  152.8859 H   0  0  0  0  0  0  0  0  0  0  0  0
  1  2  1  0  0  0  0
  1 25  1  0  0  0  0
  1 26  1  0  0  0  0
  1 27  1  0  0  0  0
  2  3  1  0  0  0  0
  2 28  1  0  0  0  0
  3  4  2  0  0  0  0
  3  5  1  0  0  0  0
  5 24  2  0  0  0  0
  5  6  1  0  0  0  0
  6  7  2  0  0  0  0
  6 29  1  0  0  0  0
  7  8  1  0  0  0  0
  7 30  1  0  0  0  0
  8  9  2  0  0  0  0
  8 10  1  0  0  0  0
 10 11  1  0  0  0  0
 10 24  1  0  0  0  0
 11 12  1  0  0  0  0
 11 31  1  0  0  0  0
 11 32  1  0  0  0  0
 12 13  2  0  0  0  0
 12 14  1  0  0  0  0
 14 15  1  0  0  0  0
 14 33  1  0  0  0  0
 15 16  1  0  0  0  0
 15 17  1  0  0  0  0
 15 34  1  0  0  0  0
 16 35  1  0  0  0  0
 16 36  1  0  0  0  0
 16 37  1  0  0  0  0
 17 22  1  0  0  0  0
 17 18  1  0  0  0  0
 17 38  1  0  0  0  0
 18 19  1  0  0  0  0
 18 39  1  0  0  0  0
 18 40  1  0  0  0  0
 19 23  1  0  0  0  0
 19 20  1  0  0  0  0
 19 41  1  0  0  0  0
 20 21  1  0  0  0  0
 20 42  1  0  0  0  0
 20 43  1  0  0  0  0
 21 22  1  0  0  0  0
 21 44  1  0  0  0  0
 21 45  1  0  0  0  0
 22 23  1  0  0  0  0
 22 46  1  0  0  0  0
 23 47  1  0  0  0  0
 23 48  1  0  0  0  0
 24 49  1  0  0  0  0
M  END
> <s_m_source_file>
AV-unprocessed.smi

> <i_m_source_file_index>
625

> <i_lp_mmshare_version>
43012

> <i_f3d_flags>
0

> <s_epik_input>
W0NIM11bTkhdQyg9TyljMVtjSF1bY0hdYyg9TyluKFtjSF0xKVtDSDJdQyg9TylbTkhdW0NASF0oW0NIM10pW0NASF0oW0NIMl1bQ0BIXTIzKVtDQEhdKFtDSDJdMylbQ0gyXVtDSDJdMg==

> <s_epik_cmdline>
J2VwaWtfcHl0aG9uJywgJy1waCcsICc3LjAnLCAnLXRuJywgJzgnLCAnLW1hJywgJzIwMCcsICctbWV0YWxfYmluZGluZycsICctaW1hZScsICc8aW5maWxlLm1hZT4nLCAnLW9tYWUnLCAnPG91dGZpbGUubWFlPic=

> <r_lp_tautomer_probability>
1

> <r_epik_Ionization_Penalty>
3.7129e-07

> <r_epik_Ionization_Penalty_Charging>
5.04114e-08

> <r_epik_Ionization_Penalty_Neutral>
3.20879e-07

> <r_epik_State_Penalty>
-0

> <r_epik_Charging_Adjusted_Penalty>
5.04114e-08

> <i_epik_Tot_Q>
0

> <i_epik_Tot_abs_Q>
0

> <r_epik_Metal_State_Penalty>
-0

> <b_epik_Metal_Only>
0

> <s_lp_Force_Field>
OPLS_2005

> <r_lp_Energy>
63.073

> <b_lp_Chiralities_Consistent>
1

> <s_lp_Variant>
AV-unprocessed.smi:625-6

> <Gold.Version>
5.8.1

> <Gold.Id.Protein>
6NUR|6NUR_protein|mol2

> <Gold.PLP.Fitness>
44.5360

> <Gold.PLP.PLP>
-39.3227

> <Gold.PLP.part.hbond>
-1.0000

> <Gold.PLP.part.metal>
0.0000

> <Gold.PLP.part.buried>
-3.2663

> <Gold.PLP.part.nonpolar>
-35.7526

> <Gold.PLP.part.repulsive>
0.3065

> <Gold.PLP.ligand.clash>
0.0000

> <Gold.PLP.ligand.torsion>
0.3598

> <Gold.PLP.Chemscore.Hbond>
0.9675

> <Gold.PLP.Chemscore.CHOScore>
1.0000

> <Gold.PLP.Chemscore.Metal>
0.0000

> <Gold.Chemscore.Hbonds>
donor molecule, donor type, donor heavy atom, donor atom, acceptor molecule, acceptor atom, score
      L1  H     2    28       P1  7948  0.96
      L1  C    24    49       P1  7948  0.97

> <Gold.PLP.Chemscore.Internal.Correction>
0.0305

> <Gold.Rescore>
     Score         DG    S(hbond)    S(metal)    S(lipo)     H(rot)  DE(clash)    DE(int)     intcor
     13.11     -15.04       0.91        0.00      92.34       1.67       0.06       1.88       ----

> <Gold.Chemscore.Fitness>
13.1056

> <Gold.Chemscore.DG>
-15.0402

> <Gold.Chemscore.ZeroCoef>
-5.4800

> <Gold.Chemscore.Hbond>
0.9084

> <Gold.Chemscore.Metal>
0.0000

> <Gold.Chemscore.Lipo>
92.3387

> <Gold.Chemscore.Internal_Hbond>
0.0000

> <Gold.Chemscore.DEClash>
0.0560

> <Gold.Chemscore.DEInternal>
1.8786

> <Gold.Chemscore.Rot>
1.6709

> <Gold.Chemscore.Internal.Correction>
   9.000000E+99

> <Gold.Chemscore.Hbonds>
donor molecule, donor type, donor heavy atom, donor atom, acceptor molecule, acceptor atom, score
      L1  H     2    28       P1  7948  0.87

> <Gold.Chemscore.Hbond.Weighted>
-3.0340

> <Gold.Chemscore.Metal.Weighted>
-0.0000

> <Gold.Chemscore.Lipo.Weighted>
-10.8036

> <Gold.Chemscore.Internal_Hbond.Weighted>
0.0000

> <Gold.Chemscore.DEClash.Weighted>
0.0560

> <Gold.Chemscore.DEInternal.Weighted>
1.8786

> <Gold.Chemscore.Rot.Weighted>
4.2774

> <Gold.Chemscore.Internal.Correction.Weighted>
   9.000000E+99

> <Gold.Protein.RotatedTorsions>
[ 6907 6896 6895 6894 ] final -113.80 input  -60.11 | X-H torsion
[ 7974 7965 7964 7962 ] final   77.92 input  175.53 | X-H torsion
[ 8008 7997 7996 7995 ] final   62.69 input   59.86 | X-H torsion
[ 10167 10162 10161 10158 ] final  -70.59 input  -65.29 | X-H torsion
[ 10718 10713 10712 10709 ] final   17.31 input   66.30 | X-H torsion
[ 10763 10752 10751 10750 ] final  169.67 input  -60.55 | X-H torsion
[ 11005 11000 10999 10996 ] final   42.64 input  -57.11 | X-H torsion

> <Gold.Protein.ActiveResidues>
 VAL166  LYS551  ARG553  GLY616  TRP617  ASP618  TYR619  PRO620  LYS621  CYS622 
 ASP623  PHE694  ASN695  SER759  ASP760  ASP761  ALA762  ILE779  LEU786  VAL792 
 PHE793  MET794  SER795  GLU796  ALA797  LYS798  CYS799  TRP800  GLU811  SER814 

> <Gold.Protein.RotatedAtoms>
  150.7855  133.8893  159.3308 H   0  0  0  0  0  0  0  0  0  0  0  0  # atno 6907 bound_to 6896
  151.6745  135.0969  160.0213 H   0  0  0  0  0  0  0  0  0  0  0  0  # atno 6908 bound_to 6896
  152.3918  133.6651  159.6279 H   0  0  0  0  0  0  0  0  0  0  0  0  # atno 6909 bound_to 6896
  145.6838  139.2531  143.1799 H   0  0  0  0  0  0  0  0  0  0  0  0  # atno 7974 bound_to 7965
  155.6183  140.3495  155.4644 H   0  0  0  0  0  0  0  0  0  0  0  0  # atno 8008 bound_to 7997
  156.0099  140.1231  157.0488 H   0  0  0  0  0  0  0  0  0  0  0  0  # atno 8009 bound_to 7997
  154.4277  140.1083  156.5801 H   0  0  0  0  0  0  0  0  0  0  0  0  # atno 8010 bound_to 7997
  140.5340  143.2319  151.7210 H   0  0  0  0  0  0  0  0  0  0  0  0  # atno 10167 bound_to 10162
  157.0802  130.6385  149.5825 H   0  0  0  0  0  0  0  0  0  0  0  0  # atno 10718 bound_to 10713
  154.3865  135.2753  155.2180 H   0  0  0  0  0  0  0  0  0  0  0  0  # atno 10763 bound_to 10752
  154.4264  135.5987  153.6045 H   0  0  0  0  0  0  0  0  0  0  0  0  # atno 10764 bound_to 10752
  152.9833  135.5985  154.4114 H   0  0  0  0  0  0  0  0  0  0  0  0  # atno 10765 bound_to 10752
  140.1720  134.4210  155.8251 H   0  0  0  0  0  0  0  0  0  0  0  0  # atno 11005 bound_to 11000
  146.0941  140.7621  142.9581 LP  0  0  0  0  0  0  0  0  0  0  0  0  # atno 17320 bound_to 7965
  144.7018  140.3684  143.7150 LP  0  0  0  0  0  0  0  0  0  0  0  0  # atno 17321 bound_to 7965
  139.4964  144.4071  152.0120 LP  0  0  0  0  0  0  0  0  0  0  0  0  # atno 17342 bound_to 10162
  140.3175  144.3467  150.6018 LP  0  0  0  0  0  0  0  0  0  0  0  0  # atno 17343 bound_to 10162
  155.9925  130.4984  150.7345 LP  0  0  0  0  0  0  0  0  0  0  0  0  # atno 17370 bound_to 10713
  157.4806  131.0902  151.0540 LP  0  0  0  0  0  0  0  0  0  0  0  0  # atno 17371 bound_to 10713
  141.2218  133.6960  156.7781 LP  0  0  0  0  0  0  0  0  0  0  0  0  # atno 17394 bound_to 11000
  140.2366  134.8645  157.3531 LP  0  0  0  0  0  0  0  0  0  0  0  0  # atno 17395 bound_to 11000

$$$$
