AV-unprocessed.smi:102|AV-procd|sdf|955|dock8
  -GOLD-   2262017493D 1   1.00000     0.00000
 Structure written by MMmdl.
 44 45  0  0  0  0  0  0  0  0  1 V2000
  142.4860  138.4978  156.1609 C   0  0  0  0  0  0  0  0  0  0  0  0
  143.2768  137.2072  156.3281 C   0  0  0  0  0  0  0  0  0  0  0  0
  142.7589  136.1058  156.1446 O   0  0  0  0  0  0  0  0  0  0  0  0
  144.5490  137.4319  156.6823 O   0  0  0  0  0  0  0  0  0  0  0  0
  145.4551  136.3455  156.8017 C   0  0  0  0  0  0  0  0  0  0  0  0
  146.3947  136.5611  157.9993 C   0  0  2  0  0  0  0  0  0  0  0  0
  147.3050  137.6187  157.7548 O   0  0  0  0  0  0  0  0  0  0  0  0
  148.3626  137.5047  158.6517 C   0  0  2  0  0  0  0  0  0  0  0  0
  149.6035  138.0517  157.9855 N   0  0  0  0  0  0  0  0  0  0  0  0
  149.5033  138.7713  156.8030 C   0  0  0  0  0  0  0  0  0  0  0  0
  150.5809  139.2513  156.1381 C   0  0  0  0  0  0  0  0  0  0  0  0
  150.4039  139.9446  155.0006 F   0  0  0  0  0  0  0  0  0  0  0  0
  151.9314  139.0170  156.6412 C   0  0  0  0  0  0  0  0  0  0  0  0
  152.9679  139.4150  156.1135 O   0  0  0  0  0  0  0  0  0  0  0  0
  151.9859  138.2668  157.8193 N   0  0  0  0  0  0  0  0  0  0  0  0
  150.8843  137.7605  158.5107 C   0  0  0  0  0  0  0  0  0  0  0  0
  151.0564  137.0884  159.5263 O   0  0  0  0  0  0  0  0  0  0  0  0
  148.5037  136.0207  159.0455 C   0  0  1  0  0  0  0  0  0  0  0  0
  148.5411  135.8893  160.4608 O   0  0  0  0  0  0  0  0  0  0  0  0
  147.5648  136.4274  161.2128 C   0  0  0  0  0  0  0  0  0  0  0  0
  147.6413  135.9849  162.6677 C   0  0  0  0  0  0  0  0  0  0  0  0
  146.6910  137.2009  160.8205 O   0  0  0  0  0  0  0  0  0  0  0  0
  147.2499  135.3699  158.4646 C   0  0  2  0  0  0  0  0  0  0  0  0
  147.6521  134.4864  157.4229 O   0  0  0  0  0  0  0  0  0  0  0  0
  148.4989  133.4705  157.6652 C   0  0  0  0  0  0  0  0  0  0  0  0
  148.9343  132.7650  156.3880 C   0  0  0  0  0  0  0  0  0  0  0  0
  148.8997  133.1045  158.7699 O   0  0  0  0  0  0  0  0  0  0  0  0
  152.9006  138.0664  158.1968 H   0  0  0  0  0  0  0  0  0  0  0  0
  143.1177  139.2821  155.7429 H   0  0  0  0  0  0  0  0  0  0  0  0
  142.1067  138.8349  157.1254 H   0  0  0  0  0  0  0  0  0  0  0  0
  141.6405  138.3425  155.4903 H   0  0  0  0  0  0  0  0  0  0  0  0
  144.8858  135.4251  156.9357 H   0  0  0  0  0  0  0  0  0  0  0  0
  146.0430  136.2347  155.8893 H   0  0  0  0  0  0  0  0  0  0  0  0
  145.7869  136.8714  158.8505 H   0  0  0  0  0  0  0  0  0  0  0  0
  148.1584  138.1472  159.5099 H   0  0  0  0  0  0  0  0  0  0  0  0
  148.5268  138.9683  156.3844 H   0  0  0  0  0  0  0  0  0  0  0  0
  149.4106  135.6051  158.6041 H   0  0  0  0  0  0  0  0  0  0  0  0
  147.7224  134.8997  162.7318 H   0  0  0  0  0  0  0  0  0  0  0  0
  146.7485  136.2967  163.2103 H   0  0  0  0  0  0  0  0  0  0  0  0
  148.5119  136.4279  163.1517 H   0  0  0  0  0  0  0  0  0  0  0  0
  146.7174  134.8190  159.2414 H   0  0  0  0  0  0  0  0  0  0  0  0
  148.1107  132.7214  155.6752 H   0  0  0  0  0  0  0  0  0  0  0  0
  149.2555  131.7461  156.6052 H   0  0  0  0  0  0  0  0  0  0  0  0
  149.7645  133.3000  155.9270 H   0  0  0  0  0  0  0  0  0  0  0  0
  1  2  1  0  0  0  0
  1 29  1  0  0  0  0
  1 30  1  0  0  0  0
  1 31  1  0  0  0  0
  2  3  2  0  0  0  0
  2  4  1  0  0  0  0
  4  5  1  0  0  0  0
  5  6  1  0  0  0  0
  5 32  1  0  0  0  0
  5 33  1  0  0  0  0
  6 23  1  0  0  0  0
  6  7  1  0  0  0  0
  6 34  1  0  0  0  0
  7  8  1  0  0  0  0
  8  9  1  0  0  0  0
  8 18  1  0  0  0  0
  8 35  1  0  0  0  0
  9 16  1  0  0  0  0
  9 10  1  0  0  0  0
 10 11  2  0  0  0  0
 10 36  1  0  0  0  0
 11 12  1  0  0  0  0
 11 13  1  0  0  0  0
 13 14  2  0  0  0  0
 13 15  1  0  0  0  0
 15 28  1  0  0  0  0
 15 16  1  0  0  0  0
 16 17  2  0  0  0  0
 18 19  1  0  0  0  0
 18 23  1  0  0  0  0
 18 37  1  0  0  0  0
 19 20  1  0  0  0  0
 20 21  1  0  0  0  0
 20 22  2  0  0  0  0
 21 38  1  0  0  0  0
 21 39  1  0  0  0  0
 21 40  1  0  0  0  0
 23 24  1  0  0  0  0
 23 41  1  0  0  0  0
 24 25  1  0  0  0  0
 25 26  1  0  0  0  0
 25 27  2  0  0  0  0
 26 42  1  0  0  0  0
 26 43  1  0  0  0  0
 26 44  1  0  0  0  0
M  END
> <s_m_source_file>
AV-unprocessed.smi

> <i_m_source_file_index>
102

> <i_lp_mmshare_version>
43012

> <i_f3d_flags>
0

> <s_epik_input>
W0NIM11DKD1PKU9bQ0gyXVtDQEBIXTFPW0NASF0oW0NAQEhdKE9DKD1PKVtDSDNdKVtDQEhdMU9DKD1PKVtDSDNdKW4yW2NIXWMoRiljKD1PKVtuSF1jMj1P

> <s_epik_cmdline>
J2VwaWtfcHl0aG9uJywgJy1waCcsICc3LjAnLCAnLXRuJywgJzgnLCAnLW1hJywgJzIwMCcsICctbWV0YWxfYmluZGluZycsICctaW1hZScsICc8aW5maWxlLm1hZT4nLCAnLW9tYWUnLCAnPG91dGZpbGUubWFlPic=

> <r_lp_tautomer_probability>
0.999537

> <r_epik_Ionization_Penalty>
0.058267

> <r_epik_Ionization_Penalty_Charging>
0.058267

> <r_epik_Ionization_Penalty_Neutral>
6.57791e-16

> <r_epik_State_Penalty>
0.0503774

> <r_epik_Charging_Adjusted_Penalty>
0.108644

> <i_epik_Tot_Q>
0

> <i_epik_Tot_abs_Q>
0

> <r_epik_Metal_State_Penalty>
2.6644

> <b_epik_Metal_Only>
0

> <s_epik_Chemistry_Notes>
This compound has an ester and may undergo hydrolysis at high or low pH. This compound contains an acetal/aminal-like group ( X-CH(R)-Y where X, Y are N, S, or O) that may be acid/base labile, releasing an aldehyde.

> <s_lp_Force_Field>
OPLS_2005

> <r_lp_Energy>
7.073

> <b_lp_Chiralities_Consistent>
1

> <s_lp_Variant>
AV-unprocessed.smi:102-11

> <Gold.Version>
5.8.1

> <Gold.Id.Protein>
6NUR|6NUR_protein|mol2

> <Gold.PLP.Fitness>
34.7540

> <Gold.PLP.PLP>
-24.3976

> <Gold.PLP.part.hbond>
-4.8221

> <Gold.PLP.part.metal>
0.0000

> <Gold.PLP.part.buried>
-3.8370

> <Gold.PLP.part.nonpolar>
-16.0975

> <Gold.PLP.part.repulsive>
0.0840

> <Gold.PLP.ligand.clash>
0.0000

> <Gold.PLP.ligand.torsion>
0.8475

> <Gold.PLP.Chemscore.Hbond>
3.9920

> <Gold.PLP.Chemscore.CHOScore>
0.0000

> <Gold.PLP.Chemscore.Metal>
0.0000

> <Gold.Chemscore.Hbonds>
donor molecule, donor type, donor heavy atom, donor atom, acceptor molecule, acceptor atom, score
      P1  H  6896  6907       L1    27  0.87
      P1  H  6896  6908       L1    17  1.00
      P1  H  6934  6947       L1    22  1.00
      P1  H  7997  8010       L1    14  1.00

> <Gold.PLP.Chemscore.Internal.Correction>
0.0755

> <Gold.Rescore>
     Score         DG    S(hbond)    S(metal)    S(lipo)     H(rot)  DE(clash)    DE(int)     intcor
      5.18     -11.41       3.96        0.00      26.25       4.05       0.00       6.23       ----

> <Gold.Chemscore.Fitness>
5.1815

> <Gold.Chemscore.DG>
-11.4126

> <Gold.Chemscore.ZeroCoef>
-5.4800

> <Gold.Chemscore.Hbond>
3.9624

> <Gold.Chemscore.Metal>
0.0000

> <Gold.Chemscore.Lipo>
26.2508

> <Gold.Chemscore.Internal_Hbond>
0.0000

> <Gold.Chemscore.DEClash>
0.0004

> <Gold.Chemscore.DEInternal>
6.2307

> <Gold.Chemscore.Rot>
4.0520

> <Gold.Chemscore.Internal.Correction>
   9.000000E+99

> <Gold.Chemscore.Hbonds>
donor molecule, donor type, donor heavy atom, donor atom, acceptor molecule, acceptor atom, score
      P1  H  6896  6907       L1    27  0.73
      P1  H  6896  6908       L1    17  0.95
      P1  H  6934  6947       L1    22  0.88
      P1  H  7997  8010       L1    14  0.95

> <Gold.Chemscore.Hbond.Weighted>
-13.2345

> <Gold.Chemscore.Metal.Weighted>
-0.0000

> <Gold.Chemscore.Lipo.Weighted>
-3.0713

> <Gold.Chemscore.Internal_Hbond.Weighted>
0.0000

> <Gold.Chemscore.DEClash.Weighted>
0.0004

> <Gold.Chemscore.DEInternal.Weighted>
6.2307

> <Gold.Chemscore.Rot.Weighted>
10.3732

> <Gold.Chemscore.Internal.Correction.Weighted>
   9.000000E+99

> <Gold.Protein.RotatedTorsions>
[ 6907 6896 6895 6894 ] final -126.38 input  -60.11 | X-H torsion
[ 7974 7965 7964 7962 ] final  -60.90 input  175.53 | X-H torsion
[ 8008 7997 7996 7995 ] final   80.10 input   59.86 | X-H torsion
[ 10167 10162 10161 10158 ] final  -83.49 input  -65.29 | X-H torsion
[ 10718 10713 10712 10709 ] final -151.98 input   66.30 | X-H torsion
[ 10763 10752 10751 10750 ] final  167.40 input  -60.55 | X-H torsion
[ 11005 11000 10999 10996 ] final  137.65 input  -57.11 | X-H torsion

> <Gold.Protein.ActiveResidues>
 VAL166  LYS551  ARG553  GLY616  TRP617  ASP618  TYR619  PRO620  LYS621  CYS622 
 ASP623  PHE694  ASN695  SER759  ASP760  ASP761  ALA762  ILE779  LEU786  VAL792 
 PHE793  MET794  SER795  GLU796  ALA797  LYS798  CYS799  TRP800  GLU811  SER814 

> <Gold.Protein.RotatedAtoms>
  150.8963  133.7176  159.2890 H   0  0  0  0  0  0  0  0  0  0  0  0  # atno 6907 bound_to 6896
  151.4710  135.1044  159.9761 H   0  0  0  0  0  0  0  0  0  0  0  0  # atno 6908 bound_to 6896
  152.4850  133.8303  159.7155 H   0  0  0  0  0  0  0  0  0  0  0  0  # atno 6909 bound_to 6896
  145.8099  140.8605  143.0187 H   0  0  0  0  0  0  0  0  0  0  0  0  # atno 7974 bound_to 7965
  155.8789  140.3445  155.5873 H   0  0  0  0  0  0  0  0  0  0  0  0  # atno 8008 bound_to 7997
  155.7743  140.0849  157.2111 H   0  0  0  0  0  0  0  0  0  0  0  0  # atno 8009 bound_to 7997
  154.4023  140.1512  156.2965 H   0  0  0  0  0  0  0  0  0  0  0  0  # atno 8010 bound_to 7997
  140.4221  143.2580  151.8875 H   0  0  0  0  0  0  0  0  0  0  0  0  # atno 10167 bound_to 10162
  156.4664  130.8238  151.2468 H   0  0  0  0  0  0  0  0  0  0  0  0  # atno 10718 bound_to 10713
  154.3532  135.2753  155.2360 H   0  0  0  0  0  0  0  0  0  0  0  0  # atno 10763 bound_to 10752
  154.4581  135.5914  153.6240 H   0  0  0  0  0  0  0  0  0  0  0  0  # atno 10764 bound_to 10752
  152.9848  135.6058  154.3745 H   0  0  0  0  0  0  0  0  0  0  0  0  # atno 10765 bound_to 10752
  140.0128  134.9431  157.0314 H   0  0  0  0  0  0  0  0  0  0  0  0  # atno 11005 bound_to 11000
  144.6758  140.0381  143.7481 LP  0  0  0  0  0  0  0  0  0  0  0  0  # atno 17320 bound_to 7965
  145.9788  139.2925  143.1054 LP  0  0  0  0  0  0  0  0  0  0  0  0  # atno 17321 bound_to 7965
  139.4783  144.5426  151.8506 LP  0  0  0  0  0  0  0  0  0  0  0  0  # atno 17342 bound_to 10162
  140.4522  144.1840  150.5898 LP  0  0  0  0  0  0  0  0  0  0  0  0  # atno 17343 bound_to 10162
  157.7494  131.0090  150.3251 LP  0  0  0  0  0  0  0  0  0  0  0  0  # atno 17370 bound_to 10713
  156.3663  130.3855  149.7211 LP  0  0  0  0  0  0  0  0  0  0  0  0  # atno 17371 bound_to 10713
  140.4523  134.1569  155.7183 LP  0  0  0  0  0  0  0  0  0  0  0  0  # atno 17394 bound_to 11000
  141.1723  133.8584  157.1532 LP  0  0  0  0  0  0  0  0  0  0  0  0  # atno 17395 bound_to 11000

$$$$
