AV-unprocessed.smi:1231|AV-procd|sdf|5160|dock2
  -GOLD-   22720 4233D 1   1.00000     0.00000
 Structure written by MMmdl.
 42 43  0  0  0  0  0  0  0  0  1 V2000
  151.8894  138.2889  154.5936 C   0  0  0  0  0  0  0  0  0  0  0  0
  150.6709  139.1230  155.0025 C   0  0  2  0  0  0  0  0  0  0  0  0
  149.4887  138.9366  154.0344 C   0  0  0  0  0  0  0  0  0  0  0  0
  148.3596  139.7902  154.3815 N   0  0  0  0  0  0  0  0  0  0  0  0
  147.2360  139.5667  153.4732 C   0  0  0  0  0  0  0  0  0  0  0  0
  146.3018  138.4088  153.8724 C   0  0  0  0  0  0  0  0  0  0  0  0
  146.5911  137.2004  153.1098 N   0  0  0  0  0  0  0  0  0  0  0  0
  145.6702  136.3598  152.6171 C   0  0  0  0  0  0  0  0  0  0  0  0
  144.4584  136.5128  152.7742 O   0  0  0  0  0  0  0  0  0  0  0  0
  146.2469  135.3512  151.9400 N   0  0  0  0  0  0  0  0  0  0  0  0
  145.6171  134.2680  151.2714 C   0  0  0  0  0  0  0  0  0  0  0  0
  146.4989  133.3551  150.6494 C   0  0  0  0  0  0  0  0  0  0  0  0
  145.9740  132.2457  149.9587 C   0  0  0  0  0  0  0  0  0  0  0  0
  144.5789  132.0769  149.9086 C   0  0  0  0  0  0  0  0  0  0  0  0
  143.7716  133.0308  150.5552 C   0  0  0  0  0  0  0  0  0  0  0  0
  144.2725  134.0950  151.2174 N   0  0  0  0  0  0  0  0  0  0  0  0
  148.8031  141.1831  154.3909 C   0  0  0  0  0  0  0  0  0  0  0  0
  150.0126  141.4198  155.3175 C   0  0  1  0  0  0  0  0  0  0  0  0
  149.6485  141.4013  156.8118 C   0  0  0  0  0  0  0  0  0  0  0  0
  151.0586  140.4955  155.0154 O   0  0  0  0  0  0  0  0  0  0  0  0
  151.6523  137.2248  154.5874 H   0  0  0  0  0  0  0  0  0  0  0  0
  152.7157  138.4412  155.2884 H   0  0  0  0  0  0  0  0  0  0  0  0
  152.2374  138.5610  153.5969 H   0  0  0  0  0  0  0  0  0  0  0  0
  150.3707  138.8215  156.0066 H   0  0  0  0  0  0  0  0  0  0  0  0
  149.8135  139.1510  153.0147 H   0  0  0  0  0  0  0  0  0  0  0  0
  149.1780  137.8910  154.0481 H   0  0  0  0  0  0  0  0  0  0  0  0
  146.6578  140.4861  153.3696 H   0  0  0  0  0  0  0  0  0  0  0  0
  147.6306  139.3494  152.4796 H   0  0  0  0  0  0  0  0  0  0  0  0
  146.3822  138.2047  154.9413 H   0  0  0  0  0  0  0  0  0  0  0  0
  145.2605  138.6647  153.6810 H   0  0  0  0  0  0  0  0  0  0  0  0
  147.5643  136.9972  152.9348 H   0  0  0  0  0  0  0  0  0  0  0  0
  147.2547  135.3634  151.8910 H   0  0  0  0  0  0  0  0  0  0  0  0
  147.5684  133.5004  150.6975 H   0  0  0  0  0  0  0  0  0  0  0  0
  146.6311  131.5374  149.4762 H   0  0  0  0  0  0  0  0  0  0  0  0
  144.1389  131.2388  149.3886 H   0  0  0  0  0  0  0  0  0  0  0  0
  142.6958  132.9375  150.5407 H   0  0  0  0  0  0  0  0  0  0  0  0
  149.0748  141.4815  153.3772 H   0  0  0  0  0  0  0  0  0  0  0  0
  147.9924  141.8426  154.6980 H   0  0  0  0  0  0  0  0  0  0  0  0
  150.4097  142.4119  155.1007 H   0  0  0  0  0  0  0  0  0  0  0  0
  148.9318  142.1887  157.0459 H   0  0  0  0  0  0  0  0  0  0  0  0
  150.5322  141.5650  157.4288 H   0  0  0  0  0  0  0  0  0  0  0  0
  149.2004  140.4547  157.1137 H   0  0  0  0  0  0  0  0  0  0  0  0
  1  2  1  0  0  0  0
  1 21  1  0  0  0  0
  1 22  1  0  0  0  0
  1 23  1  0  0  0  0
  2 20  1  0  0  0  0
  2  3  1  0  0  0  0
  2 24  1  0  0  0  0
  3  4  1  0  0  0  0
  3 25  1  0  0  0  0
  3 26  1  0  0  0  0
  4  5  1  0  0  0  0
  4 17  1  0  0  0  0
  5  6  1  0  0  0  0
  5 27  1  0  0  0  0
  5 28  1  0  0  0  0
  6  7  1  0  0  0  0
  6 29  1  0  0  0  0
  6 30  1  0  0  0  0
  7  8  1  0  0  0  0
  7 31  1  0  0  0  0
  8  9  2  0  0  0  0
  8 10  1  0  0  0  0
 10 11  1  0  0  0  0
 10 32  1  0  0  0  0
 11 16  1  0  0  0  0
 11 12  2  0  0  0  0
 12 13  1  0  0  0  0
 12 33  1  0  0  0  0
 13 14  2  0  0  0  0
 13 34  1  0  0  0  0
 14 15  1  0  0  0  0
 14 35  1  0  0  0  0
 15 16  2  0  0  0  0
 15 36  1  0  0  0  0
 17 18  1  0  0  0  0
 17 37  1  0  0  0  0
 17 38  1  0  0  0  0
 18 19  1  0  0  0  0
 18 20  1  0  0  0  0
 18 39  1  0  0  0  0
 19 40  1  0  0  0  0
 19 41  1  0  0  0  0
 19 42  1  0  0  0  0
M  END
> <s_m_source_file>
AV-unprocessed.smi

> <i_m_source_file_index>
1231

> <i_lp_mmshare_version>
43012

> <i_f3d_flags>
0

> <s_epik_input>
W0NIM11bQ0BASF0xW0NIMl1OKFtDSDJdW0NASF0oTzEpW0NIM10pW0NIMl1bQ0gyXVtOSF1DKD1PKVtOSF1jMltjSF1bY0hdW2NIXVtjSF1uMg==

> <s_epik_cmdline>
J2VwaWtfcHl0aG9uJywgJy1waCcsICc3LjAnLCAnLXRuJywgJzgnLCAnLW1hJywgJzIwMCcsICctbWV0YWxfYmluZGluZycsICctaW1hZScsICc8aW5maWxlLm1hZT4nLCAnLW9tYWUnLCAnPG91dGZpbGUubWFlPic=

> <r_epik_Ionization_Penalty>
0.266037

> <r_epik_Ionization_Penalty_Charging>
0

> <r_epik_Ionization_Penalty_Neutral>
0.266037

> <r_epik_State_Penalty>
0.257924

> <r_epik_Charging_Adjusted_Penalty>
0.257924

> <i_epik_Tot_Q>
0

> <i_epik_Tot_abs_Q>
0

> <r_epik_Metal_State_Penalty>
0.257923

> <b_epik_Metal_Only>
0

> <s_lp_Force_Field>
OPLS_2005

> <r_lp_Energy>
23.857

> <b_lp_Chiralities_Consistent>
1

> <s_lp_Variant>
AV-unprocessed.smi:1231-1

> <Gold.Version>
5.8.1

> <Gold.Id.Protein>
6NUR|6NUR_protein|mol2

> <Gold.PLP.Fitness>
48.1104

> <Gold.PLP.PLP>
-37.5690

> <Gold.PLP.part.hbond>
-3.0000

> <Gold.PLP.part.metal>
0.0000

> <Gold.PLP.part.buried>
-4.4453

> <Gold.PLP.part.nonpolar>
-30.5071

> <Gold.PLP.part.repulsive>
0.5199

> <Gold.PLP.ligand.clash>
0.0000

> <Gold.PLP.ligand.torsion>
0.7413

> <Gold.PLP.Chemscore.Hbond>
3.0000

> <Gold.PLP.Chemscore.CHOScore>
1.0000

> <Gold.PLP.Chemscore.Metal>
0.0000

> <Gold.Chemscore.Hbonds>
donor molecule, donor type, donor heavy atom, donor atom, acceptor molecule, acceptor atom, score
      L1  H     7    31       P1  7948  1.00
      L1  H    10    32       P1  7948  1.00
      P1  H  7989  7998       L1    20  1.00
      L1  C    15    36       P1 10186  1.00

> <Gold.PLP.Chemscore.Internal.Correction>
0.0240

> <Gold.Rescore>
     Score         DG    S(hbond)    S(metal)    S(lipo)     H(rot)  DE(clash)    DE(int)     intcor
     18.90     -21.02       2.60        0.00      91.80       1.52       0.12       1.99       ----

> <Gold.Chemscore.Fitness>
18.9046

> <Gold.Chemscore.DG>
-21.0223

> <Gold.Chemscore.ZeroCoef>
-5.4800

> <Gold.Chemscore.Hbond>
2.5996

> <Gold.Chemscore.Metal>
0.0000

> <Gold.Chemscore.Lipo>
91.8046

> <Gold.Chemscore.Internal_Hbond>
0.0000

> <Gold.Chemscore.DEClash>
0.1249

> <Gold.Chemscore.DEInternal>
1.9928

> <Gold.Chemscore.Rot>
1.5162

> <Gold.Chemscore.Internal.Correction>
   9.000000E+99

> <Gold.Chemscore.Hbonds>
donor molecule, donor type, donor heavy atom, donor atom, acceptor molecule, acceptor atom, score
      L1  H     7    31       P1  7948  0.95
      L1  H    10    32       P1  7948  0.98
      P1  H  7989  7998       L1    20  0.38

> <Gold.Chemscore.Hbond.Weighted>
-8.6826

> <Gold.Chemscore.Metal.Weighted>
-0.0000

> <Gold.Chemscore.Lipo.Weighted>
-10.7411

> <Gold.Chemscore.Internal_Hbond.Weighted>
0.0000

> <Gold.Chemscore.DEClash.Weighted>
0.1249

> <Gold.Chemscore.DEInternal.Weighted>
1.9928

> <Gold.Chemscore.Rot.Weighted>
3.8814

> <Gold.Chemscore.Internal.Correction.Weighted>
   9.000000E+99

> <Gold.Protein.RotatedTorsions>
[ 6907 6896 6895 6894 ] final -107.27 input  -60.11 | X-H torsion
[ 7974 7965 7964 7962 ] final  -31.01 input  175.53 | X-H torsion
[ 8008 7997 7996 7995 ] final   91.40 input   59.86 | X-H torsion
[ 10167 10162 10161 10158 ] final -112.54 input  -65.29 | X-H torsion
[ 10718 10713 10712 10709 ] final   74.66 input   66.30 | X-H torsion
[ 10763 10752 10751 10750 ] final -173.48 input  -60.55 | X-H torsion
[ 11005 11000 10999 10996 ] final  -60.61 input  -57.11 | X-H torsion

> <Gold.Protein.ActiveResidues>
 VAL166  LYS551  ARG553  GLY616  TRP617  ASP618  TYR619  PRO620  LYS621  CYS622 
 ASP623  PHE694  ASN695  SER759  ASP760  ASP761  ALA762  ILE779  LEU786  VAL792 
 PHE793  MET794  SER795  GLU796  ALA797  LYS798  CYS799  TRP800  GLU811  SER814 

> <Gold.Protein.RotatedAtoms>
  150.7434  133.9852  159.3588 H   0  0  0  0  0  0  0  0  0  0  0  0  # atno 6907 bound_to 6896
  151.7796  135.0763  160.0381 H   0  0  0  0  0  0  0  0  0  0  0  0  # atno 6908 bound_to 6896
  152.3283  133.5893  159.5828 H   0  0  0  0  0  0  0  0  0  0  0  0  # atno 6909 bound_to 6896
  146.1100  140.5613  142.8782 H   0  0  0  0  0  0  0  0  0  0  0  0  # atno 7974 bound_to 7965
  156.0233  140.3338  155.7062 H   0  0  0  0  0  0  0  0  0  0  0  0  # atno 8008 bound_to 7997
  155.5990  140.0654  157.2756 H   0  0  0  0  0  0  0  0  0  0  0  0  # atno 8009 bound_to 7997
  154.4324  140.1813  156.1141 H   0  0  0  0  0  0  0  0  0  0  0  0  # atno 8010 bound_to 7997
  140.1216  143.4438  152.1687 H   0  0  0  0  0  0  0  0  0  0  0  0  # atno 10167 bound_to 10162
  157.6601  130.9688  150.1242 H   0  0  0  0  0  0  0  0  0  0  0  0  # atno 10718 bound_to 10713
  154.6074  135.2861  155.0470 H   0  0  0  0  0  0  0  0  0  0  0  0  # atno 10763 bound_to 10752
  154.1712  135.6472  153.5014 H   0  0  0  0  0  0  0  0  0  0  0  0  # atno 10764 bound_to 10752
  153.0181  135.5401  154.6814 H   0  0  0  0  0  0  0  0  0  0  0  0  # atno 10765 bound_to 10752
  141.1294  133.6623  156.5250 H   0  0  0  0  0  0  0  0  0  0  0  0  # atno 11005 bound_to 11000
  144.7503  140.5174  143.6806 LP  0  0  0  0  0  0  0  0  0  0  0  0  # atno 17320 bound_to 7965
  145.5683  139.1482  143.3302 LP  0  0  0  0  0  0  0  0  0  0  0  0  # atno 17321 bound_to 7965
  139.5566  144.7377  151.4278 LP  0  0  0  0  0  0  0  0  0  0  0  0  # atno 17342 bound_to 10162
  140.6869  143.7954  150.7198 LP  0  0  0  0  0  0  0  0  0  0  0  0  # atno 17343 bound_to 10162
  156.2106  130.3666  149.8675 LP  0  0  0  0  0  0  0  0  0  0  0  0  # atno 17370 bound_to 10713
  156.6555  130.8761  151.3538 LP  0  0  0  0  0  0  0  0  0  0  0  0  # atno 17371 bound_to 10713
  140.4262  134.7143  157.4917 LP  0  0  0  0  0  0  0  0  0  0  0  0  # atno 17394 bound_to 11000
  140.0326  134.6384  155.9087 LP  0  0  0  0  0  0  0  0  0  0  0  0  # atno 17395 bound_to 11000

$$$$
