AV-unprocessed.smi:1686|AV-procd|sdf|6762|dock4
  -GOLD-   22720 7523D 1   1.00000     0.00000
 Structure written by MMmdl.
 41 43  0  0  0  0  0  0  0  0  1 V2000
  150.3475  130.1371  155.7373 C   0  0  0  0  0  0  0  0  0  0  0  0
  149.9802  131.5314  156.1575 C   0  0  0  0  0  0  0  0  0  0  0  0
  150.2933  131.9462  157.3779 N   0  0  0  0  0  0  0  0  0  0  0  0
  149.8397  133.2667  157.4740 O   0  0  0  0  0  0  0  0  0  0  0  0
  149.2688  133.5768  156.2877 C   0  0  0  0  0  0  0  0  0  0  0  0
  148.5903  135.1238  155.9700 Cl  0  0  0  0  0  0  0  0  0  0  0  0
  149.3131  132.5394  155.4010 C   0  0  0  0  0  0  0  0  0  0  0  0
  148.8109  132.4710  153.9786 C   0  0  0  0  0  0  0  0  0  0  0  0
  147.6560  131.4723  153.8834 C   0  0  0  0  0  0  0  0  0  0  0  0
  147.0875  131.0883  154.9047 O   0  0  0  0  0  0  0  0  0  0  0  0
  147.3124  131.0786  152.6470 N   0  0  0  0  0  0  0  0  0  0  0  0
  146.1593  130.2555  152.2936 C   0  0  2  0  0  0  0  0  0  0  0  0
  146.6612  128.9700  151.6147 C   0  0  0  0  0  0  0  0  0  0  0  0
  145.2080  131.0860  151.3969 C   0  0  2  0  0  0  0  0  0  0  0  0
  145.8703  131.5912  150.0885 C   0  0  0  0  0  0  0  0  0  0  0  0
  145.5949  133.1042  150.1128 C   0  0  1  0  0  0  0  0  0  0  0  0
  144.0921  133.3581  149.8975 C   0  0  0  0  0  0  0  0  0  0  0  0
  143.4784  132.9047  151.2352 C   0  0  0  0  0  0  0  0  0  0  0  0
  144.7069  132.4114  152.0242 C   0  0  2  0  0  0  0  0  0  0  0  0
  145.7658  133.4207  151.5923 C   0  0  0  0  0  0  0  0  0  0  0  0
  150.6005  130.0982  154.6778 H   0  0  0  0  0  0  0  0  0  0  0  0
  149.5194  129.4488  155.9073 H   0  0  0  0  0  0  0  0  0  0  0  0
  151.2092  129.7650  156.2928 H   0  0  0  0  0  0  0  0  0  0  0  0
  148.4626  133.4426  153.6277 H   0  0  0  0  0  0  0  0  0  0  0  0
  149.6053  132.1684  153.2949 H   0  0  0  0  0  0  0  0  0  0  0  0
  147.8518  131.4454  151.8765 H   0  0  0  0  0  0  0  0  0  0  0  0
  145.6197  129.9734  153.1991 H   0  0  0  0  0  0  0  0  0  0  0  0
  145.8453  128.2817  151.3976 H   0  0  0  0  0  0  0  0  0  0  0  0
  147.3634  128.4381  152.2574 H   0  0  0  0  0  0  0  0  0  0  0  0
  147.1716  129.1890  150.6765 H   0  0  0  0  0  0  0  0  0  0  0  0
  144.3518  130.4572  151.1473 H   0  0  0  0  0  0  0  0  0  0  0  0
  146.9472  131.4170  150.0877 H   0  0  0  0  0  0  0  0  0  0  0  0
  145.4606  131.1063  149.2015 H   0  0  0  0  0  0  0  0  0  0  0  0
  146.2368  133.6761  149.4422 H   0  0  0  0  0  0  0  0  0  0  0  0
  143.8953  134.4169  149.7242 H   0  0  0  0  0  0  0  0  0  0  0  0
  143.6982  132.7994  149.0476 H   0  0  0  0  0  0  0  0  0  0  0  0
  143.0063  133.7468  151.7428 H   0  0  0  0  0  0  0  0  0  0  0  0
  142.7228  132.1288  151.1069 H   0  0  0  0  0  0  0  0  0  0  0  0
  144.5285  132.3710  153.0979 H   0  0  0  0  0  0  0  0  0  0  0  0
  146.7641  133.1968  151.9717 H   0  0  0  0  0  0  0  0  0  0  0  0
  145.5105  134.4509  151.8470 H   0  0  0  0  0  0  0  0  0  0  0  0
  1  2  1  0  0  0  0
  1 21  1  0  0  0  0
  1 22  1  0  0  0  0
  1 23  1  0  0  0  0
  2  7  1  0  0  0  0
  2  3  2  0  0  0  0
  3  4  1  0  0  0  0
  4  5  1  0  0  0  0
  5  6  1  0  0  0  0
  5  7  2  0  0  0  0
  7  8  1  0  0  0  0
  8  9  1  0  0  0  0
  8 24  1  0  0  0  0
  8 25  1  0  0  0  0
  9 10  2  0  0  0  0
  9 11  1  0  0  0  0
 11 12  1  0  0  0  0
 11 26  1  0  0  0  0
 12 13  1  0  0  0  0
 12 14  1  0  0  0  0
 12 27  1  0  0  0  0
 13 28  1  0  0  0  0
 13 29  1  0  0  0  0
 13 30  1  0  0  0  0
 14 19  1  0  0  0  0
 14 15  1  0  0  0  0
 14 31  1  0  0  0  0
 15 16  1  0  0  0  0
 15 32  1  0  0  0  0
 15 33  1  0  0  0  0
 16 20  1  0  0  0  0
 16 17  1  0  0  0  0
 16 34  1  0  0  0  0
 17 18  1  0  0  0  0
 17 35  1  0  0  0  0
 17 36  1  0  0  0  0
 18 19  1  0  0  0  0
 18 37  1  0  0  0  0
 18 38  1  0  0  0  0
 19 20  1  0  0  0  0
 19 39  1  0  0  0  0
 20 40  1  0  0  0  0
 20 41  1  0  0  0  0
M  END
> <s_m_source_file>
AV-unprocessed.smi

> <i_m_source_file_index>
1686

> <i_lp_mmshare_version>
43012

> <i_f3d_flags>
0

> <s_epik_input>
W0NIM11jMW5vYyhDbCljMVtDSDJdQyg9TylbTkhdW0NASF0oW0NIM10pW0NASF0oW0NIMl1bQ0BIXTIzKVtDQEhdKFtDSDJdMylbQ0gyXVtDSDJdMg==

> <s_epik_cmdline>
J2VwaWtfcHl0aG9uJywgJy1waCcsICc3LjAnLCAnLXRuJywgJzgnLCAnLW1hJywgJzIwMCcsICctbWV0YWxfYmluZGluZycsICctaW1hZScsICc8aW5maWxlLm1hZT4nLCAnLW9tYWUnLCAnPG91dGZpbGUubWFlPic=

> <r_lp_tautomer_probability>
1

> <r_epik_Ionization_Penalty>
2.01576e-08

> <r_epik_Ionization_Penalty_Charging>
0

> <r_epik_Ionization_Penalty_Neutral>
2.01576e-08

> <r_epik_State_Penalty>
-0

> <r_epik_Charging_Adjusted_Penalty>
0

> <i_epik_Tot_Q>
0

> <i_epik_Tot_abs_Q>
0

> <r_epik_Metal_State_Penalty>
-0

> <b_epik_Metal_Only>
0

> <s_lp_Force_Field>
OPLS_2005

> <r_lp_Energy>
45.7389

> <b_lp_Chiralities_Consistent>
1

> <s_lp_Variant>
AV-unprocessed.smi:1686-5

> <Gold.Version>
5.8.1

> <Gold.Id.Protein>
6NUR|6NUR_protein|mol2

> <Gold.PLP.Fitness>
41.8125

> <Gold.PLP.PLP>
-37.1065

> <Gold.PLP.part.hbond>
-1.9261

> <Gold.PLP.part.metal>
0.0000

> <Gold.PLP.part.buried>
-3.5441

> <Gold.PLP.part.nonpolar>
-31.6921

> <Gold.PLP.part.repulsive>
0.0341

> <Gold.PLP.ligand.clash>
0.0561

> <Gold.PLP.ligand.torsion>
0.2426

> <Gold.PLP.Chemscore.Hbond>
1.7395

> <Gold.PLP.Chemscore.CHOScore>
0.0000

> <Gold.PLP.Chemscore.Metal>
0.0000

> <Gold.Chemscore.Hbonds>
donor molecule, donor type, donor heavy atom, donor atom, acceptor molecule, acceptor atom, score
      L1  H    11    26       P1 10747  0.81
      P1  H  6896  6909       L1     4  0.22

> <Gold.PLP.Chemscore.Internal.Correction>
0.0288

> <Gold.Rescore>
     Score         DG    S(hbond)    S(metal)    S(lipo)     H(rot)  DE(clash)    DE(int)     intcor
     16.44     -17.97       0.99        0.00     110.52       1.46       0.13       1.39       ----

> <Gold.Chemscore.Fitness>
16.4438

> <Gold.Chemscore.DG>
-17.9706

> <Gold.Chemscore.ZeroCoef>
-5.4800

> <Gold.Chemscore.Hbond>
0.9910

> <Gold.Chemscore.Metal>
0.0000

> <Gold.Chemscore.Lipo>
110.5185

> <Gold.Chemscore.Internal_Hbond>
0.0000

> <Gold.Chemscore.DEClash>
0.1326

> <Gold.Chemscore.DEInternal>
1.3943

> <Gold.Chemscore.Rot>
1.4648

> <Gold.Chemscore.Internal.Correction>
   9.000000E+99

> <Gold.Chemscore.Hbonds>
donor molecule, donor type, donor heavy atom, donor atom, acceptor molecule, acceptor atom, score
      L1  H    11    26       P1 10747  0.77

> <Gold.Chemscore.Hbond.Weighted>
-3.3099

> <Gold.Chemscore.Metal.Weighted>
-0.0000

> <Gold.Chemscore.Lipo.Weighted>
-12.9307

> <Gold.Chemscore.Internal_Hbond.Weighted>
0.0000

> <Gold.Chemscore.DEClash.Weighted>
0.1326

> <Gold.Chemscore.DEInternal.Weighted>
1.3943

> <Gold.Chemscore.Rot.Weighted>
3.7500

> <Gold.Chemscore.Internal.Correction.Weighted>
   9.000000E+99

> <Gold.Protein.RotatedTorsions>
[ 6907 6896 6895 6894 ] final  -28.40 input  -60.11 | X-H torsion
[ 7974 7965 7964 7962 ] final  104.58 input  175.53 | X-H torsion
[ 8008 7997 7996 7995 ] final  -88.04 input   59.86 | X-H torsion
[ 10167 10162 10161 10158 ] final   45.87 input  -65.29 | X-H torsion
[ 10718 10713 10712 10709 ] final -126.32 input   66.30 | X-H torsion
[ 10763 10752 10751 10750 ] final  -18.25 input  -60.55 | X-H torsion
[ 11005 11000 10999 10996 ] final -179.63 input  -57.11 | X-H torsion

> <Gold.Protein.ActiveResidues>
 VAL166  LYS551  ARG553  GLY616  TRP617  ASP618  TYR619  PRO620  LYS621  CYS622 
 ASP623  PHE694  ASN695  SER759  ASP760  ASP761  ALA762  ILE779  LEU786  VAL792 
 PHE793  MET794  SER795  GLU796  ALA797  LYS798  CYS799  TRP800  GLU811  SER814 

> <Gold.Protein.RotatedAtoms>
  151.1334  135.0142  159.8592 H   0  0  0  0  0  0  0  0  0  0  0  0  # atno 6907 bound_to 6896
  152.5451  134.1583  159.8557 H   0  0  0  0  0  0  0  0  0  0  0  0  # atno 6908 bound_to 6896
  151.1652  133.4774  159.2627 H   0  0  0  0  0  0  0  0  0  0  0  0  # atno 6909 bound_to 6896
  145.3309  139.2487  143.3661 H   0  0  0  0  0  0  0  0  0  0  0  0  # atno 7974 bound_to 7965
  154.6702  140.0558  157.0157 H   0  0  0  0  0  0  0  0  0  0  0  0  # atno 8008 bound_to 7997
  155.1100  140.3237  155.4505 H   0  0  0  0  0  0  0  0  0  0  0  0  # atno 8009 bound_to 7997
  156.2654  140.2016  156.6224 H   0  0  0  0  0  0  0  0  0  0  0  0  # atno 8010 bound_to 7997
  140.3197  144.2721  150.6185 H   0  0  0  0  0  0  0  0  0  0  0  0  # atno 10167 bound_to 10162
  156.1755  130.6696  151.0236 H   0  0  0  0  0  0  0  0  0  0  0  0  # atno 10718 bound_to 10713
  153.5864  135.7003  153.5441 H   0  0  0  0  0  0  0  0  0  0  0  0  # atno 10763 bound_to 10752
  153.3216  135.4072  155.1421 H   0  0  0  0  0  0  0  0  0  0  0  0  # atno 10764 bound_to 10752
  154.8608  135.3697  154.5394 H   0  0  0  0  0  0  0  0  0  0  0  0  # atno 10765 bound_to 10752
  140.4165  134.6644  157.4642 H   0  0  0  0  0  0  0  0  0  0  0  0  # atno 11005 bound_to 11000
  146.3046  140.3886  142.8692 LP  0  0  0  0  0  0  0  0  0  0  0  0  # atno 17320 bound_to 7965
  144.8865  140.7469  143.5953 LP  0  0  0  0  0  0  0  0  0  0  0  0  # atno 17321 bound_to 7965
  140.5495  143.2209  151.7951 LP  0  0  0  0  0  0  0  0  0  0  0  0  # atno 17342 bound_to 10162
  139.4877  144.4495  151.9670 LP  0  0  0  0  0  0  0  0  0  0  0  0  # atno 17343 bound_to 10162
  157.6832  131.0832  150.7313 LP  0  0  0  0  0  0  0  0  0  0  0  0  # atno 17370 bound_to 10713
  156.7371  130.4727  149.5486 LP  0  0  0  0  0  0  0  0  0  0  0  0  # atno 17371 bound_to 10713
  140.0230  134.6519  155.9212 LP  0  0  0  0  0  0  0  0  0  0  0  0  # atno 17394 bound_to 11000
  141.1801  133.6545  156.4984 LP  0  0  0  0  0  0  0  0  0  0  0  0  # atno 17395 bound_to 11000

$$$$
