AV-unprocessed.smi:2124|AV-procd|sdf|8659|dock8
  -GOLD-   2272011403D 1   1.00000     0.00000
 Structure written by MMmdl.
 47 49  0  0  0  0  0  0  0  0  1 V2000
  146.7239  139.2383  152.2451 C   0  0  0  0  0  0  0  0  0  0  0  0
  147.9124  139.5732  153.1196 C   0  0  0  0  0  0  0  0  0  0  0  0
  148.8978  138.5994  153.1159 N   0  0  0  0  0  0  0  0  0  0  0  0
  150.0252  138.8165  153.8882 C   0  0  0  0  0  0  0  0  0  0  0  0
  151.0589  137.7058  153.8236 C   0  0  0  0  0  0  0  0  0  0  0  0
  150.1631  139.9463  154.6273 C   0  0  0  0  0  0  0  0  0  0  0  0
  151.3948  140.2329  155.4853 C   0  0  0  0  0  0  0  0  0  0  0  0
  151.1414  140.4624  156.9777 C   0  0  0  0  0  0  0  0  0  0  0  0
  150.1136  140.0455  157.5125 O   0  0  0  0  0  0  0  0  0  0  0  0
  152.0988  141.1305  157.6386 N   0  0  0  0  0  0  0  0  0  0  0  0
  152.0756  141.4595  159.0621 C   0  0  1  0  0  0  0  0  0  0  0  0
  153.0806  140.5651  159.8075 C   0  0  0  0  0  0  0  0  0  0  0  0
  152.3787  142.9631  159.2591 C   0  0  2  0  0  0  0  0  0  0  0  0
  152.2693  143.4600  160.7185 C   0  0  0  0  0  0  0  0  0  0  0  0
  151.3787  144.7103  160.5937 C   0  0  2  0  0  0  0  0  0  0  0  0
  149.9264  144.2696  160.3346 C   0  0  0  0  0  0  0  0  0  0  0  0
  149.9789  143.7740  158.8781 C   0  0  0  0  0  0  0  0  0  0  0  0
  151.4644  143.9628  158.5057 C   0  0  1  0  0  0  0  0  0  0  0  0
  151.7879  145.2637  159.2337 C   0  0  0  0  0  0  0  0  0  0  0  0
  149.0777  140.9543  154.5864 C   0  0  0  0  0  0  0  0  0  0  0  0
  149.1509  142.0043  155.2235 O   0  0  0  0  0  0  0  0  0  0  0  0
  147.9530  140.6843  153.7902 N   0  0  0  0  0  0  0  0  0  0  0  0
  148.8359  137.7453  152.5805 H   0  0  0  0  0  0  0  0  0  0  0  0
  146.0024  140.0563  152.2373 H   0  0  0  0  0  0  0  0  0  0  0  0
  146.2215  138.3437  152.6143 H   0  0  0  0  0  0  0  0  0  0  0  0
  147.0446  139.0588  151.2186 H   0  0  0  0  0  0  0  0  0  0  0  0
  152.0227  138.1002  153.5009 H   0  0  0  0  0  0  0  0  0  0  0  0
  150.7655  136.9239  153.1220 H   0  0  0  0  0  0  0  0  0  0  0  0
  151.1843  137.2460  154.8040 H   0  0  0  0  0  0  0  0  0  0  0  0
  151.8950  141.1203  155.0978 H   0  0  0  0  0  0  0  0  0  0  0  0
  152.1254  139.4310  155.3707 H   0  0  0  0  0  0  0  0  0  0  0  0
  152.9075  141.4349  157.1163 H   0  0  0  0  0  0  0  0  0  0  0  0
  151.0842  141.2508  159.4663 H   0  0  0  0  0  0  0  0  0  0  0  0
  153.0701  140.7621  160.8795 H   0  0  0  0  0  0  0  0  0  0  0  0
  154.0983  140.7269  159.4505 H   0  0  0  0  0  0  0  0  0  0  0  0
  152.8443  139.5093  159.6704 H   0  0  0  0  0  0  0  0  0  0  0  0
  153.3997  143.1423  158.9169 H   0  0  0  0  0  0  0  0  0  0  0  0
  151.8322  142.7214  161.3916 H   0  0  0  0  0  0  0  0  0  0  0  0
  153.2547  143.7179  161.1081 H   0  0  0  0  0  0  0  0  0  0  0  0
  151.4822  145.4058  161.4270 H   0  0  0  0  0  0  0  0  0  0  0  0
  149.5991  143.4929  161.0269 H   0  0  0  0  0  0  0  0  0  0  0  0
  149.2401  145.1121  160.4284 H   0  0  0  0  0  0  0  0  0  0  0  0
  149.6308  142.7477  158.7664 H   0  0  0  0  0  0  0  0  0  0  0  0
  149.3474  144.3989  158.2456 H   0  0  0  0  0  0  0  0  0  0  0  0
  151.6423  143.9927  157.4305 H   0  0  0  0  0  0  0  0  0  0  0  0
  151.1774  146.1078  158.9077 H   0  0  0  0  0  0  0  0  0  0  0  0
  152.8415  145.5433  159.1791 H   0  0  0  0  0  0  0  0  0  0  0  0
  1 24  1  0  0  0  0
  1 25  1  0  0  0  0
  1 26  1  0  0  0  0
  1  2  1  0  0  0  0
  2  3  1  0  0  0  0
  2 22  2  0  0  0  0
  3  4  1  0  0  0  0
  3 23  1  0  0  0  0
  4  6  2  0  0  0  0
  4  5  1  0  0  0  0
  5 27  1  0  0  0  0
  5 28  1  0  0  0  0
  5 29  1  0  0  0  0
  6 20  1  0  0  0  0
  6  7  1  0  0  0  0
  7  8  1  0  0  0  0
  7 30  1  0  0  0  0
  7 31  1  0  0  0  0
  8  9  2  0  0  0  0
  8 10  1  0  0  0  0
 10 11  1  0  0  0  0
 10 32  1  0  0  0  0
 11 12  1  0  0  0  0
 11 13  1  0  0  0  0
 11 33  1  0  0  0  0
 12 34  1  0  0  0  0
 12 35  1  0  0  0  0
 12 36  1  0  0  0  0
 13 18  1  0  0  0  0
 13 14  1  0  0  0  0
 13 37  1  0  0  0  0
 14 15  1  0  0  0  0
 14 38  1  0  0  0  0
 14 39  1  0  0  0  0
 15 19  1  0  0  0  0
 15 16  1  0  0  0  0
 15 40  1  0  0  0  0
 16 17  1  0  0  0  0
 16 41  1  0  0  0  0
 16 42  1  0  0  0  0
 17 18  1  0  0  0  0
 17 43  1  0  0  0  0
 17 44  1  0  0  0  0
 18 19  1  0  0  0  0
 18 45  1  0  0  0  0
 19 46  1  0  0  0  0
 19 47  1  0  0  0  0
 20 21  2  0  0  0  0
 20 22  1  0  0  0  0
M  END
> <s_m_source_file>
AV-unprocessed.smi

> <i_m_source_file_index>
2124

> <i_lp_mmshare_version>
43012

> <i_f3d_flags>
0

> <s_epik_input>
W0NIM11jMW5jKFtDSDNdKWMoYyg9TylbbkhdMSlbQ0gyXUMoPU8pW05IXVtDQEhdKFtDSDNdKVtDQEhdKFtDSDJdW0NASF0yMylbQ0BIXShbQ0gyXTMpW0NIMl1bQ0gyXTI=

> <s_epik_cmdline>
J2VwaWtfcHl0aG9uJywgJy1waCcsICc3LjAnLCAnLXRuJywgJzgnLCAnLW1hJywgJzIwMCcsICctbWV0YWxfYmluZGluZycsICctaW1hZScsICc8aW5maWxlLm1hZT4nLCAnLW9tYWUnLCAnPG91dGZpbGUubWFlPic=

> <r_lp_tautomer_probability>
0.156392

> <r_epik_Ionization_Penalty>
0.0139374

> <r_epik_Ionization_Penalty_Charging>
0.0138122

> <r_epik_Ionization_Penalty_Neutral>
0.000125146

> <r_epik_State_Penalty>
1.15342

> <r_epik_Charging_Adjusted_Penalty>
1.16723

> <i_epik_Tot_Q>
0

> <i_epik_Tot_abs_Q>
0

> <r_epik_Metal_State_Penalty>
1.3173

> <b_epik_Metal_Only>
0

> <s_lp_Force_Field>
OPLS_2005

> <r_lp_Energy>
55.6294

> <b_lp_Chiralities_Consistent>
1

> <s_lp_Variant>
AV-unprocessed.smi:2124-10

> <Gold.Version>
5.8.1

> <Gold.Id.Protein>
6NUR|6NUR_protein|mol2

> <Gold.PLP.Fitness>
51.4403

> <Gold.PLP.PLP>
-49.3105

> <Gold.PLP.part.hbond>
-2.0000

> <Gold.PLP.part.metal>
0.0000

> <Gold.PLP.part.buried>
-3.5723

> <Gold.PLP.part.nonpolar>
-46.5208

> <Gold.PLP.part.repulsive>
1.6780

> <Gold.PLP.ligand.clash>
0.0000

> <Gold.PLP.ligand.torsion>
0.4412

> <Gold.PLP.Chemscore.Hbond>
1.0000

> <Gold.PLP.Chemscore.CHOScore>
0.0000

> <Gold.PLP.Chemscore.Metal>
0.0000

> <Gold.Chemscore.Hbonds>
donor molecule, donor type, donor heavy atom, donor atom, acceptor molecule, acceptor atom, score
      L1  H     3    23       P1  7948  1.00

> <Gold.PLP.Chemscore.Internal.Correction>
0.0122

> <Gold.Rescore>
     Score         DG    S(hbond)    S(metal)    S(lipo)     H(rot)  DE(clash)    DE(int)     intcor
     17.27     -20.58       0.98        0.00     137.24       1.65       1.83       1.48       ----

> <Gold.Chemscore.Fitness>
17.2713

> <Gold.Chemscore.DG>
-20.5781

> <Gold.Chemscore.ZeroCoef>
-5.4800

> <Gold.Chemscore.Hbond>
0.9802

> <Gold.Chemscore.Metal>
0.0000

> <Gold.Chemscore.Lipo>
137.2371

> <Gold.Chemscore.Internal_Hbond>
0.0000

> <Gold.Chemscore.DEClash>
1.8312

> <Gold.Chemscore.DEInternal>
1.4756

> <Gold.Chemscore.Rot>
1.6534

> <Gold.Chemscore.Internal.Correction>
   9.000000E+99

> <Gold.Chemscore.Hbonds>
donor molecule, donor type, donor heavy atom, donor atom, acceptor molecule, acceptor atom, score
      L1  H     3    23       P1  7948  1.00

> <Gold.Chemscore.Hbond.Weighted>
-3.2739

> <Gold.Chemscore.Metal.Weighted>
-0.0000

> <Gold.Chemscore.Lipo.Weighted>
-16.0567

> <Gold.Chemscore.Internal_Hbond.Weighted>
0.0000

> <Gold.Chemscore.DEClash.Weighted>
1.8312

> <Gold.Chemscore.DEInternal.Weighted>
1.4756

> <Gold.Chemscore.Rot.Weighted>
4.2326

> <Gold.Chemscore.Internal.Correction.Weighted>
   9.000000E+99

> <Gold.Protein.RotatedTorsions>
[ 6907 6896 6895 6894 ] final -103.82 input  -60.11 | X-H torsion
[ 7974 7965 7964 7962 ] final   26.53 input  175.53 | X-H torsion
[ 8008 7997 7996 7995 ] final  121.26 input   59.86 | X-H torsion
[ 10167 10162 10161 10158 ] final  -97.31 input  -65.29 | X-H torsion
[ 10718 10713 10712 10709 ] final   91.02 input   66.30 | X-H torsion
[ 10763 10752 10751 10750 ] final  117.22 input  -60.55 | X-H torsion
[ 11005 11000 10999 10996 ] final   -9.11 input  -57.11 | X-H torsion

> <Gold.Protein.ActiveResidues>
 VAL166  LYS551  ARG553  GLY616  TRP617  ASP618  TYR619  PRO620  LYS621  CYS622 
 ASP623  PHE694  ASN695  SER759  ASP760  ASP761  ALA762  ILE779  LEU786  VAL792 
 PHE793  MET794  SER795  GLU796  ALA797  LYS798  CYS799  TRP800  GLU811  SER814 

> <Gold.Protein.RotatedAtoms>
  150.7258  134.0371  159.3752 H   0  0  0  0  0  0  0  0  0  0  0  0  # atno 6907 bound_to 6896
  151.8343  135.0609  160.0450 H   0  0  0  0  0  0  0  0  0  0  0  0  # atno 6908 bound_to 6896
  152.2910  133.5525  159.5594 H   0  0  0  0  0  0  0  0  0  0  0  0  # atno 6909 bound_to 6896
  146.1833  139.7316  142.8885 H   0  0  0  0  0  0  0  0  0  0  0  0  # atno 7974 bound_to 7965
  156.2679  140.2812  156.1280 H   0  0  0  0  0  0  0  0  0  0  0  0  # atno 8008 bound_to 7997
  155.1084  140.0390  157.2734 H   0  0  0  0  0  0  0  0  0  0  0  0  # atno 8009 bound_to 7997
  154.6761  140.2598  155.6962 H   0  0  0  0  0  0  0  0  0  0  0  0  # atno 8010 bound_to 7997
  140.2847  143.3259  152.0406 H   0  0  0  0  0  0  0  0  0  0  0  0  # atno 10167 bound_to 10162
  157.6960  131.0392  150.3666 H   0  0  0  0  0  0  0  0  0  0  0  0  # atno 10718 bound_to 10713
  153.5490  135.3543  155.2751 H   0  0  0  0  0  0  0  0  0  0  0  0  # atno 10763 bound_to 10752
  154.8709  135.4109  154.2958 H   0  0  0  0  0  0  0  0  0  0  0  0  # atno 10764 bound_to 10752
  153.3680  135.7063  153.6728 H   0  0  0  0  0  0  0  0  0  0  0  0  # atno 10765 bound_to 10752
  140.7307  133.8751  155.8891 H   0  0  0  0  0  0  0  0  0  0  0  0  # atno 11005 bound_to 11000
  145.4014  141.0385  143.3068 LP  0  0  0  0  0  0  0  0  0  0  0  0  # atno 17320 bound_to 7965
  144.8352  139.5562  143.6925 LP  0  0  0  0  0  0  0  0  0  0  0  0  # atno 17321 bound_to 7965
  139.4953  144.6567  151.6556 LP  0  0  0  0  0  0  0  0  0  0  0  0  # atno 17342 bound_to 10162
  140.5782  143.9991  150.6253 LP  0  0  0  0  0  0  0  0  0  0  0  0  # atno 17343 bound_to 10162
  156.4096  130.3931  149.6901 LP  0  0  0  0  0  0  0  0  0  0  0  0  # atno 17370 bound_to 10713
  156.4190  130.7759  151.2776 LP  0  0  0  0  0  0  0  0  0  0  0  0  # atno 17371 bound_to 10713
  140.9923  134.1261  157.4396 LP  0  0  0  0  0  0  0  0  0  0  0  0  # atno 17394 bound_to 11000
  139.8827  135.0044  156.6248 LP  0  0  0  0  0  0  0  0  0  0  0  0  # atno 17395 bound_to 11000

$$$$
