AV-unprocessed.smi:110|AV-procd|sdf|1068|dock7
  -GOLD-   2262018153D 1   1.00000     0.00000
 Structure written by MMmdl.
 46 50  0  0  0  0  0  0  0  0  1 V2000
  147.2010  137.8458  151.2441 O   0  0  0  0  0  0  0  0  0  0  0  0
  146.2607  138.3548  152.1659 C   0  0  0  0  0  0  0  0  0  0  0  0
  146.8977  138.4735  153.5617 C   0  0  2  0  0  0  0  0  0  0  0  0
  148.2399  138.9510  153.4774 O   0  0  0  0  0  0  0  0  0  0  0  0
  149.0057  138.4580  154.5368 C   0  0  1  0  0  0  0  0  0  0  0  0
  149.5255  139.5996  155.3591 N   0  0  0  0  0  0  0  0  0  0  0  0
  149.0679  140.8975  155.3518 C   0  0  0  0  0  0  0  0  0  0  0  0
  149.6846  141.7136  156.1613 N   0  0  0  0  0  0  0  0  0  0  0  0
  150.6359  140.9194  156.7900 C   0  0  0  0  0  0  0  0  0  0  0  0
  151.6388  141.1543  157.7740 C   0  0  0  0  0  0  0  0  0  0  0  0
  151.8711  142.3495  158.3648 N   0  0  0  0  0  0  0  0  0  0  0  0
  151.3737  143.5783  157.7296 C   0  0  0  0  0  0  0  0  0  0  0  0
  151.3646  144.6847  158.8018 C   0  0  0  0  0  0  0  0  0  0  0  0
  151.9952  143.9708  159.9539 C   0  0  0  0  0  0  0  0  0  0  0  0
  152.3210  144.5053  161.2125 C   0  0  0  0  0  0  0  0  0  0  0  0
  152.9386  143.6562  162.1558 C   0  0  0  0  0  0  0  0  0  0  0  0
  153.2257  142.3109  161.8269 C   0  0  0  0  0  0  0  0  0  0  0  0
  152.8909  141.7961  160.5552 C   0  0  0  0  0  0  0  0  0  0  0  0
  152.2531  142.6435  159.6255 C   0  0  0  0  0  0  0  0  0  0  0  0
  152.4491  140.1178  158.1066 N   0  0  0  0  0  0  0  0  0  0  0  0
  152.2651  138.9178  157.5501 C   0  0  0  0  0  0  0  0  0  0  0  0
  151.3565  138.5495  156.6461 N   0  0  0  0  0  0  0  0  0  0  0  0
  150.5558  139.5915  156.2807 C   0  0  0  0  0  0  0  0  0  0  0  0
  148.1335  137.4697  155.3372 C   0  0  1  0  0  0  0  0  0  0  0  0
  147.6011  138.0091  156.5343 O   0  0  0  0  0  0  0  0  0  0  0  0
  147.0215  137.1605  154.3472 C   0  0  2  0  0  0  0  0  0  0  0  0
  147.3943  136.0886  153.4993 O   0  0  0  0  0  0  0  0  0  0  0  0
  146.3162  139.1657  154.1716 H   0  0  0  0  0  0  0  0  0  0  0  0
  149.9006  137.9881  154.1269 H   0  0  0  0  0  0  0  0  0  0  0  0
  148.7209  136.5880  155.5969 H   0  0  0  0  0  0  0  0  0  0  0  0
  146.0860  136.8902  154.8393 H   0  0  0  0  0  0  0  0  0  0  0  0
  147.6763  137.1412  151.6570 H   0  0  0  0  0  0  0  0  0  0  0  0
  145.9550  139.3387  151.8084 H   0  0  0  0  0  0  0  0  0  0  0  0
  145.3715  137.7239  152.1854 H   0  0  0  0  0  0  0  0  0  0  0  0
  148.2560  141.2245  154.7187 H   0  0  0  0  0  0  0  0  0  0  0  0
  152.0372  143.8498  156.9077 H   0  0  0  0  0  0  0  0  0  0  0  0
  150.3756  143.4258  157.3165 H   0  0  0  0  0  0  0  0  0  0  0  0
  151.9505  145.5549  158.5048 H   0  0  0  0  0  0  0  0  0  0  0  0
  150.3518  144.9978  159.0570 H   0  0  0  0  0  0  0  0  0  0  0  0
  152.1092  145.5374  161.4497 H   0  0  0  0  0  0  0  0  0  0  0  0
  153.2013  144.0383  163.1310 H   0  0  0  0  0  0  0  0  0  0  0  0
  153.7091  141.6727  162.5519 H   0  0  0  0  0  0  0  0  0  0  0  0
  153.1275  140.7723  160.3057 H   0  0  0  0  0  0  0  0  0  0  0  0
  152.9418  138.1415  157.8756 H   0  0  0  0  0  0  0  0  0  0  0  0
  147.2517  138.8670  156.3469 H   0  0  0  0  0  0  0  0  0  0  0  0
  148.1060  136.3756  152.9478 H   0  0  0  0  0  0  0  0  0  0  0  0
  1  2  1  0  0  0  0
  1 32  1  0  0  0  0
  2  3  1  0  0  0  0
  2 33  1  0  0  0  0
  2 34  1  0  0  0  0
  3 28  1  0  0  0  0
  3 26  1  0  0  0  0
  3  4  1  0  0  0  0
  4  5  1  0  0  0  0
  5 29  1  0  0  0  0
  5  6  1  0  0  0  0
  5 24  1  0  0  0  0
  6 23  1  0  0  0  0
  6  7  1  0  0  0  0
  7  8  2  0  0  0  0
  7 35  1  0  0  0  0
  8  9  1  0  0  0  0
  9 23  2  0  0  0  0
  9 10  1  0  0  0  0
 10 11  1  0  0  0  0
 10 20  2  0  0  0  0
 11 19  1  0  0  0  0
 11 12  1  0  0  0  0
 12 13  1  0  0  0  0
 12 36  1  0  0  0  0
 12 37  1  0  0  0  0
 13 14  1  0  0  0  0
 13 38  1  0  0  0  0
 13 39  1  0  0  0  0
 14 19  2  0  0  0  0
 14 15  1  0  0  0  0
 15 16  2  0  0  0  0
 15 40  1  0  0  0  0
 16 17  1  0  0  0  0
 16 41  1  0  0  0  0
 17 18  2  0  0  0  0
 17 42  1  0  0  0  0
 18 19  1  0  0  0  0
 18 43  1  0  0  0  0
 20 21  1  0  0  0  0
 21 22  2  0  0  0  0
 21 44  1  0  0  0  0
 22 23  1  0  0  0  0
 24 30  1  0  0  0  0
 24 25  1  0  0  0  0
 24 26  1  0  0  0  0
 25 45  1  0  0  0  0
 26 31  1  0  0  0  0
 26 27  1  0  0  0  0
 27 46  1  0  0  0  0
M  END
> <s_m_source_file>
AV-unprocessed.smi

> <i_m_source_file_index>
110

> <i_lp_mmshare_version>
43012

> <i_f3d_flags>
0

> <s_epik_input>
W09IXVtDSDJdW0NASF0xT1tDQEhdKFtDQEhdKFtPSF0pW0NAQEhdMVtPSF0pbihbY0hdbjIpYyhjMjMpbltjSF1uYzNOKFtDSDJdW0NIMl00KWMoYzQ1KVtjSF1bY0hdW2NIXVtjSF01

> <s_epik_cmdline>
J2VwaWtfcHl0aG9uJywgJy1waCcsICc3LjAnLCAnLXRuJywgJzgnLCAnLW1hJywgJzIwMCcsICctbWV0YWxfYmluZGluZycsICctaW1hZScsICc8aW5maWxlLm1hZT4nLCAnLW9tYWUnLCAnPG91dGZpbGUubWFlPic=

> <r_lp_tautomer_probability>
1

> <r_epik_Ionization_Penalty>
0.00068475

> <r_epik_Ionization_Penalty_Charging>
0

> <r_epik_Ionization_Penalty_Neutral>
0.00068475

> <r_epik_State_Penalty>
0.000417442

> <r_epik_Charging_Adjusted_Penalty>
0.000417442

> <i_epik_Tot_Q>
0

> <i_epik_Tot_abs_Q>
0

> <r_epik_Metal_State_Penalty>
-0

> <b_epik_Metal_Only>
0

> <s_epik_Chemistry_Notes>
This compound contains an acetal/aminal-like group ( X-CH(R)-Y where X, Y are N, S, or O) that may be acid/base labile, releasing an aldehyde.

> <s_lp_Force_Field>
OPLS_2005

> <r_lp_Energy>
62.6904

> <b_lp_Chiralities_Consistent>
1

> <s_lp_Variant>
AV-unprocessed.smi:110-6

> <Gold.Version>
5.8.1

> <Gold.Id.Protein>
6NUR|6NUR_protein|mol2

> <Gold.PLP.Fitness>
53.4734

> <Gold.PLP.PLP>
-46.7720

> <Gold.PLP.part.hbond>
-2.5921

> <Gold.PLP.part.metal>
0.0000

> <Gold.PLP.part.buried>
-9.0944

> <Gold.PLP.part.nonpolar>
-39.2466

> <Gold.PLP.part.repulsive>
1.6440

> <Gold.PLP.ligand.clash>
0.0000

> <Gold.PLP.ligand.torsion>
0.9507

> <Gold.PLP.Chemscore.Hbond>
2.8460

> <Gold.PLP.Chemscore.CHOScore>
0.0000

> <Gold.PLP.Chemscore.Metal>
0.0000

> <Gold.Chemscore.Hbonds>
donor molecule, donor type, donor heavy atom, donor atom, acceptor molecule, acceptor atom, score
      L1  H     1    32       P1  7948  1.00
      L1  H    27    46       P1  7948  0.63
      P1  H  7954  7966       L1     1  0.70
      P1  H  7997  8009       L1    20  0.02

> <Gold.PLP.Chemscore.Internal.Correction>
0.0648

> <Gold.Rescore>
     Score         DG    S(hbond)    S(metal)    S(lipo)     H(rot)  DE(clash)    DE(int)     intcor
     14.13     -17.45       2.31        0.00     110.50       3.38       0.18       3.14       ----

> <Gold.Chemscore.Fitness>
14.1337

> <Gold.Chemscore.DG>
-17.4481

> <Gold.Chemscore.ZeroCoef>
-5.4800

> <Gold.Chemscore.Hbond>
2.3058

> <Gold.Chemscore.Metal>
0.0000

> <Gold.Chemscore.Lipo>
110.5046

> <Gold.Chemscore.Internal_Hbond>
0.0000

> <Gold.Chemscore.DEClash>
0.1771

> <Gold.Chemscore.DEInternal>
3.1373

> <Gold.Chemscore.Rot>
3.3837

> <Gold.Chemscore.Internal.Correction>
   9.000000E+99

> <Gold.Chemscore.Hbonds>
donor molecule, donor type, donor heavy atom, donor atom, acceptor molecule, acceptor atom, score
      L1  H     1    32       P1  7948  0.91
      L1  H    27    46       P1  7948  0.60
      P1  H  7954  7966       L1     1  0.07

> <Gold.Chemscore.Hbond.Weighted>
-7.7012

> <Gold.Chemscore.Metal.Weighted>
-0.0000

> <Gold.Chemscore.Lipo.Weighted>
-12.9290

> <Gold.Chemscore.Internal_Hbond.Weighted>
0.0000

> <Gold.Chemscore.DEClash.Weighted>
0.1771

> <Gold.Chemscore.DEInternal.Weighted>
3.1373

> <Gold.Chemscore.Rot.Weighted>
8.6622

> <Gold.Chemscore.Internal.Correction.Weighted>
   9.000000E+99

> <Gold.Protein.RotatedTorsions>
[ 6907 6896 6895 6894 ] final -175.61 input  -60.11 | X-H torsion
[ 7974 7965 7964 7962 ] final    6.58 input  175.53 | X-H torsion
[ 8008 7997 7996 7995 ] final  170.15 input   59.86 | X-H torsion
[ 10167 10162 10161 10158 ] final  152.95 input  -65.29 | X-H torsion
[ 10718 10713 10712 10709 ] final   34.29 input   66.30 | X-H torsion
[ 10763 10752 10751 10750 ] final -166.46 input  -60.55 | X-H torsion
[ 11005 11000 10999 10996 ] final   63.66 input  -57.11 | X-H torsion

> <Gold.Protein.ActiveResidues>
 VAL166  LYS551  ARG553  GLY616  TRP617  ASP618  TYR619  PRO620  LYS621  CYS622 
 ASP623  PHE694  ASN695  SER759  ASP760  ASP761  ALA762  ILE779  LEU786  VAL792 
 PHE793  MET794  SER795  GLU796  ALA797  LYS798  CYS799  TRP800  GLU811  SER814 

> <Gold.Protein.RotatedAtoms>
  151.5913  133.3366  159.3028 H   0  0  0  0  0  0  0  0  0  0  0  0  # atno 6907 bound_to 6896
  150.8258  134.7492  159.6823 H   0  0  0  0  0  0  0  0  0  0  0  0  # atno 6908 bound_to 6896
  152.4348  134.5714  159.9974 H   0  0  0  0  0  0  0  0  0  0  0  0  # atno 6909 bound_to 6896
  146.2433  140.0213  142.8398 H   0  0  0  0  0  0  0  0  0  0  0  0  # atno 7974 bound_to 7965
  156.1392  140.1545  156.8947 H   0  0  0  0  0  0  0  0  0  0  0  0  # atno 8008 bound_to 7997
  154.4973  140.0835  156.7762 H   0  0  0  0  0  0  0  0  0  0  0  0  # atno 8009 bound_to 7997
  155.4111  140.3419  155.4266 H   0  0  0  0  0  0  0  0  0  0  0  0  # atno 8010 bound_to 7997
  139.4830  144.5315  151.7715 H   0  0  0  0  0  0  0  0  0  0  0  0  # atno 10167 bound_to 10162
  157.3085  130.7387  149.6710 H   0  0  0  0  0  0  0  0  0  0  0  0  # atno 10718 bound_to 10713
  154.6830  135.2958  154.9586 H   0  0  0  0  0  0  0  0  0  0  0  0  # atno 10763 bound_to 10752
  154.0575  135.6636  153.4811 H   0  0  0  0  0  0  0  0  0  0  0  0  # atno 10764 bound_to 10752
  153.0560  135.5144  154.7883 H   0  0  0  0  0  0  0  0  0  0  0  0  # atno 10765 bound_to 10752
  140.0010  134.6443  155.9931 H   0  0  0  0  0  0  0  0  0  0  0  0  # atno 11005 bound_to 11000
  145.1239  140.9478  143.4584 LP  0  0  0  0  0  0  0  0  0  0  0  0  # atno 17320 bound_to 7965
  145.0454  139.3225  143.5955 LP  0  0  0  0  0  0  0  0  0  0  0  0  # atno 17321 bound_to 7965
  140.4842  144.1406  150.5938 LP  0  0  0  0  0  0  0  0  0  0  0  0  # atno 17342 bound_to 10162
  140.4244  143.2596  151.9675 LP  0  0  0  0  0  0  0  0  0  0  0  0  # atno 17343 bound_to 10162
  155.9676  130.4258  150.4672 LP  0  0  0  0  0  0  0  0  0  0  0  0  # atno 17370 bound_to 10713
  157.2666  131.0578  151.2286 LP  0  0  0  0  0  0  0  0  0  0  0  0  # atno 17371 bound_to 10713
  141.1641  133.6537  156.4420 LP  0  0  0  0  0  0  0  0  0  0  0  0  # atno 17394 bound_to 11000
  140.4728  134.6737  157.5137 LP  0  0  0  0  0  0  0  0  0  0  0  0  # atno 17395 bound_to 11000

$$$$
