AV-unprocessed.smi:2149|AV-procd|sdf|8752|dock7
  -GOLD-   2272011533D 1   1.00000     0.00000
 Structure written by MMmdl.
 42 43  0  0  0  0  0  0  0  0  1 V2000
  153.2631  137.8914  156.8597 C   0  0  0  0  0  0  0  0  0  0  0  0
  153.6517  137.2100  155.1960 S   0  0  0  0  0  0  0  0  0  0  0  0
  154.5392  138.1594  154.5071 O   0  0  0  0  0  0  0  0  0  0  0  0
  154.0701  135.8097  155.3621 O   0  0  0  0  0  0  0  0  0  0  0  0
  152.1214  137.2138  154.3670 N   0  0  0  0  0  0  0  0  0  0  0  0
  151.2756  138.4250  154.3799 C   0  0  0  0  0  0  0  0  0  0  0  0
  150.1153  138.2979  155.3823 C   0  0  0  0  0  0  0  0  0  0  0  0
  149.3049  137.0208  155.1340 C   0  0  0  0  0  0  0  0  0  0  0  0
  150.2340  135.7952  155.1950 C   0  0  1  0  0  0  0  0  0  0  0  0
  149.4534  134.4977  154.9457 C   0  0  0  0  0  0  0  0  0  0  0  0
  149.4373  133.6091  155.7981 O   0  0  0  0  0  0  0  0  0  0  0  0
  148.8121  134.4002  153.7707 N   0  0  0  0  0  0  0  0  0  0  0  0
  148.0238  133.2516  153.3404 C   0  0  0  0  0  0  0  0  0  0  0  0
  146.5174  133.5033  153.5183 C   0  0  0  0  0  0  0  0  0  0  0  0
  145.7224  133.1252  152.2830 C   0  0  0  0  0  0  0  0  0  0  0  0
  146.3784  132.7700  151.0851 C   0  0  0  0  0  0  0  0  0  0  0  0
  145.5938  132.4348  149.9647 C   0  0  0  0  0  0  0  0  0  0  0  0
  144.1911  132.4681  150.0843 C   0  0  0  0  0  0  0  0  0  0  0  0
  143.6327  132.8373  151.3243 C   0  0  0  0  0  0  0  0  0  0  0  0
  144.3762  133.1618  152.4042 N   0  0  0  0  0  0  0  0  0  0  0  0
  151.3841  135.9479  154.1743 C   0  0  0  0  0  0  0  0  0  0  0  0
  154.1822  137.9515  157.4419 H   0  0  0  0  0  0  0  0  0  0  0  0
  152.5632  137.2353  157.3743 H   0  0  0  0  0  0  0  0  0  0  0  0
  152.8403  138.8895  156.7631 H   0  0  0  0  0  0  0  0  0  0  0  0
  151.8753  139.3068  154.6031 H   0  0  0  0  0  0  0  0  0  0  0  0
  150.8741  138.5729  153.3769 H   0  0  0  0  0  0  0  0  0  0  0  0
  150.4978  138.2975  156.4021 H   0  0  0  0  0  0  0  0  0  0  0  0
  149.4644  139.1690  155.3024 H   0  0  0  0  0  0  0  0  0  0  0  0
  148.5114  136.9368  155.8777 H   0  0  0  0  0  0  0  0  0  0  0  0
  148.8171  137.0837  154.1598 H   0  0  0  0  0  0  0  0  0  0  0  0
  150.6586  135.7442  156.1973 H   0  0  0  0  0  0  0  0  0  0  0  0
  148.8758  135.1762  153.1276 H   0  0  0  0  0  0  0  0  0  0  0  0
  148.2532  133.0065  152.3018 H   0  0  0  0  0  0  0  0  0  0  0  0
  148.3283  132.3905  153.9358 H   0  0  0  0  0  0  0  0  0  0  0  0
  146.1428  132.9376  154.3724 H   0  0  0  0  0  0  0  0  0  0  0  0
  146.3344  134.5549  153.7445 H   0  0  0  0  0  0  0  0  0  0  0  0
  147.4568  132.7554  151.0235 H   0  0  0  0  0  0  0  0  0  0  0  0
  146.0595  132.1573  149.0306 H   0  0  0  0  0  0  0  0  0  0  0  0
  143.5578  132.2169  149.2465 H   0  0  0  0  0  0  0  0  0  0  0  0
  142.5610  132.8734  151.4520 H   0  0  0  0  0  0  0  0  0  0  0  0
  150.9881  135.9385  153.1577 H   0  0  0  0  0  0  0  0  0  0  0  0
  152.0691  135.1026  154.2415 H   0  0  0  0  0  0  0  0  0  0  0  0
  1  2  1  0  0  0  0
  1 22  1  0  0  0  0
  1 23  1  0  0  0  0
  1 24  1  0  0  0  0
  2  3  2  0  0  0  0
  2  4  2  0  0  0  0
  2  5  1  0  0  0  0
  5 21  1  0  0  0  0
  5  6  1  0  0  0  0
  6  7  1  0  0  0  0
  6 25  1  0  0  0  0
  6 26  1  0  0  0  0
  7  8  1  0  0  0  0
  7 27  1  0  0  0  0
  7 28  1  0  0  0  0
  8  9  1  0  0  0  0
  8 29  1  0  0  0  0
  8 30  1  0  0  0  0
  9 10  1  0  0  0  0
  9 21  1  0  0  0  0
  9 31  1  0  0  0  0
 10 11  2  0  0  0  0
 10 12  1  0  0  0  0
 12 13  1  0  0  0  0
 12 32  1  0  0  0  0
 13 14  1  0  0  0  0
 13 33  1  0  0  0  0
 13 34  1  0  0  0  0
 14 15  1  0  0  0  0
 14 35  1  0  0  0  0
 14 36  1  0  0  0  0
 15 20  1  0  0  0  0
 15 16  2  0  0  0  0
 16 17  1  0  0  0  0
 16 37  1  0  0  0  0
 17 18  2  0  0  0  0
 17 38  1  0  0  0  0
 18 19  1  0  0  0  0
 18 39  1  0  0  0  0
 19 20  2  0  0  0  0
 19 40  1  0  0  0  0
 21 41  1  0  0  0  0
 21 42  1  0  0  0  0
M  END
> <s_m_source_file>
AV-unprocessed.smi

> <i_m_source_file_index>
2149

> <i_lp_mmshare_version>
43012

> <i_f3d_flags>
0

> <s_epik_input>
W0NIM11TKD1PKSg9TylOMVtDSDJdW0NIMl1bQ0gyXVtDQEhdKFtDSDJdMSlDKD1PKVtOSF1bQ0gyXVtDSDJdYzJbY0hdW2NIXVtjSF1bY0hdbjI=

> <s_epik_cmdline>
J2VwaWtfcHl0aG9uJywgJy1waCcsICc3LjAnLCAnLXRuJywgJzgnLCAnLW1hJywgJzIwMCcsICctbWV0YWxfYmluZGluZycsICctaW1hZScsICc8aW5maWxlLm1hZT4nLCAnLW9tYWUnLCAnPG91dGZpbGUubWFlPic=

> <r_epik_Ionization_Penalty>
0.0273806

> <r_epik_Ionization_Penalty_Charging>
0

> <r_epik_Ionization_Penalty_Neutral>
0.0273806

> <r_epik_State_Penalty>
0.0224071

> <r_epik_Charging_Adjusted_Penalty>
0.0224071

> <i_epik_Tot_Q>
0

> <i_epik_Tot_abs_Q>
0

> <r_epik_Metal_State_Penalty>
0.0214134

> <b_epik_Metal_Only>
0

> <s_lp_Force_Field>
OPLS_2005

> <r_lp_Energy>
-0.402048

> <b_lp_Chiralities_Consistent>
1

> <s_lp_Variant>
AV-unprocessed.smi:2149-1

> <Gold.Version>
5.8.1

> <Gold.Id.Protein>
6NUR|6NUR_protein|mol2

> <Gold.PLP.Fitness>
43.2150

> <Gold.PLP.PLP>
-33.0253

> <Gold.PLP.part.hbond>
-2.8540

> <Gold.PLP.part.metal>
0.0000

> <Gold.PLP.part.buried>
-4.8436

> <Gold.PLP.part.nonpolar>
-26.2019

> <Gold.PLP.part.repulsive>
0.1375

> <Gold.PLP.ligand.clash>
0.0000

> <Gold.PLP.ligand.torsion>
1.6122

> <Gold.PLP.Chemscore.Hbond>
2.7760

> <Gold.PLP.Chemscore.CHOScore>
1.0000

> <Gold.PLP.Chemscore.Metal>
0.0000

> <Gold.Chemscore.Hbonds>
donor molecule, donor type, donor heavy atom, donor atom, acceptor molecule, acceptor atom, score
      L1  H    12    32       P1  7948  1.00
      L1  C    19    40       P1 10186  0.08

> <Gold.PLP.Chemscore.Internal.Correction>
2.0862

> <Gold.Rescore>
     Score         DG    S(hbond)    S(metal)    S(lipo)     H(rot)  DE(clash)    DE(int)     intcor
     18.63     -20.28       2.76        0.00      81.84       1.56       0.06       1.59       ----

> <Gold.Chemscore.Fitness>
18.6287

> <Gold.Chemscore.DG>
-20.2777

> <Gold.Chemscore.ZeroCoef>
-5.4800

> <Gold.Chemscore.Hbond>
2.7626

> <Gold.Chemscore.Metal>
0.0000

> <Gold.Chemscore.Lipo>
81.8405

> <Gold.Chemscore.Internal_Hbond>
0.0000

> <Gold.Chemscore.DEClash>
0.0576

> <Gold.Chemscore.DEInternal>
1.5914

> <Gold.Chemscore.Rot>
1.5643

> <Gold.Chemscore.Internal.Correction>
   9.000000E+99

> <Gold.Chemscore.Hbonds>
donor molecule, donor type, donor heavy atom, donor atom, acceptor molecule, acceptor atom, score
      L1  H    12    32       P1  7948  0.44
      P1  H  7997  8010       L1     3  0.01

> <Gold.Chemscore.Hbond.Weighted>
-9.2269

> <Gold.Chemscore.Metal.Weighted>
-0.0000

> <Gold.Chemscore.Lipo.Weighted>
-9.5753

> <Gold.Chemscore.Internal_Hbond.Weighted>
0.0000

> <Gold.Chemscore.DEClash.Weighted>
0.0576

> <Gold.Chemscore.DEInternal.Weighted>
1.5914

> <Gold.Chemscore.Rot.Weighted>
4.0046

> <Gold.Chemscore.Internal.Correction.Weighted>
   9.000000E+99

> <Gold.Protein.RotatedTorsions>
[ 6907 6896 6895 6894 ] final   29.02 input  -60.11 | X-H torsion
[ 7974 7965 7964 7962 ] final  152.14 input  175.53 | X-H torsion
[ 8008 7997 7996 7995 ] final  102.20 input   59.86 | X-H torsion
[ 10167 10162 10161 10158 ] final -142.73 input  -65.29 | X-H torsion
[ 10718 10713 10712 10709 ] final -173.29 input   66.30 | X-H torsion
[ 10763 10752 10751 10750 ] final -131.62 input  -60.55 | X-H torsion
[ 11005 11000 10999 10996 ] final   18.46 input  -57.11 | X-H torsion

> <Gold.Protein.ActiveResidues>
 VAL166  LYS551  ARG553  GLY616  TRP617  ASP618  TYR619  PRO620  LYS621  CYS622 
 ASP623  PHE694  ASN695  SER759  ASP760  ASP761  ALA762  ILE779  LEU786  VAL792 
 PHE793  MET794  SER795  GLU796  ALA797  LYS798  CYS799  TRP800  GLU811  SER814 

> <Gold.Protein.RotatedAtoms>
  152.0255  134.9798  160.0571 H   0  0  0  0  0  0  0  0  0  0  0  0  # atno 6907 bound_to 6896
  152.1296  133.4395  159.4722 H   0  0  0  0  0  0  0  0  0  0  0  0  # atno 6908 bound_to 6896
  150.6855  134.2355  159.4495 H   0  0  0  0  0  0  0  0  0  0  0  0  # atno 6909 bound_to 6896
  144.8243  139.6630  143.6087 H   0  0  0  0  0  0  0  0  0  0  0  0  # atno 7974 bound_to 7965
  156.1371  140.3185  155.8438 H   0  0  0  0  0  0  0  0  0  0  0  0  # atno 8008 bound_to 7997
  155.4224  140.0513  157.3042 H   0  0  0  0  0  0  0  0  0  0  0  0  # atno 8009 bound_to 7997
  154.4946  140.2105  155.9488 H   0  0  0  0  0  0  0  0  0  0  0  0  # atno 8010 bound_to 7997
  139.8060  143.7767  152.2661 H   0  0  0  0  0  0  0  0  0  0  0  0  # atno 10167 bound_to 10162
  156.7681  130.9438  151.3119 H   0  0  0  0  0  0  0  0  0  0  0  0  # atno 10718 bound_to 10713
  154.8749  135.3824  154.4276 H   0  0  0  0  0  0  0  0  0  0  0  0  # atno 10763 bound_to 10752
  153.4974  135.7030  153.5856 H   0  0  0  0  0  0  0  0  0  0  0  0  # atno 10764 bound_to 10752
  153.4203  135.3903  155.2073 H   0  0  0  0  0  0  0  0  0  0  0  0  # atno 10765 bound_to 10752
  140.4246  134.1483  155.7675 H   0  0  0  0  0  0  0  0  0  0  0  0  # atno 11005 bound_to 11000
  146.2548  139.6279  142.9402 LP  0  0  0  0  0  0  0  0  0  0  0  0  # atno 17320 bound_to 7965
  145.5036  141.0437  143.2527 LP  0  0  0  0  0  0  0  0  0  0  0  0  # atno 17321 bound_to 7965
  139.7902  144.7413  150.9966 LP  0  0  0  0  0  0  0  0  0  0  0  0  # atno 17342 bound_to 10162
  140.7819  143.4450  151.0496 LP  0  0  0  0  0  0  0  0  0  0  0  0  # atno 17343 bound_to 10162
  157.6704  130.9045  150.0026 LP  0  0  0  0  0  0  0  0  0  0  0  0  # atno 17370 bound_to 10713
  156.1295  130.3643  149.9754 LP  0  0  0  0  0  0  0  0  0  0  0  0  # atno 17371 bound_to 10713
  141.1770  133.8493  157.1387 LP  0  0  0  0  0  0  0  0  0  0  0  0  # atno 17394 bound_to 11000
  140.0176  134.9960  157.0526 LP  0  0  0  0  0  0  0  0  0  0  0  0  # atno 17395 bound_to 11000

$$$$
