AV-unprocessed.smi:2142|AV-procd|sdf|8721|dock9
  -GOLD-   2272011493D 1   1.00000     0.00000
 Structure written by MMmdl.
 39 40  0  0  0  0  0  0  0  0  2 V2000
  145.8228  143.2489  154.8393 C   0  0  0  0  0  0  0  0  0  0  0  0
  146.5388  142.5802  153.8158 O   0  0  0  0  0  0  0  0  0  0  0  0
  146.6120  141.1804  154.0300 C   0  0  0  0  0  0  0  0  0  0  0  0
  147.6549  140.8877  155.1130 C   0  0  0  0  0  0  0  0  0  0  0  0
  148.9332  140.7524  154.4991 O   0  0  0  0  0  0  0  0  0  0  0  0
  150.0182  140.4526  155.2977 C   0  0  0  0  0  0  0  0  0  0  0  0
  149.8808  140.5720  156.6937 C   0  0  0  0  0  0  0  0  0  0  0  0
  150.9887  140.2747  157.5094 C   0  0  0  0  0  0  0  0  0  0  0  0
  152.2061  139.8698  156.9191 C   0  0  0  0  0  0  0  0  0  0  0  0
  153.2855  139.5790  157.6624 N   0  5  0  0  0  0  0  0  0  0  0  0
  153.1892  139.5053  159.0174 C   0  0  0  0  0  0  0  0  0  0  0  0
  153.2794  138.4586  159.6637 O   0  0  0  0  0  0  0  0  0  0  0  0
  152.9511  140.7460  159.8094 C   0  0  0  0  0  0  0  0  0  0  0  0
  152.5237  141.8148  159.2127 N   0  0  0  0  0  0  0  0  0  0  0  0
  152.2641  142.9851  159.8956 N   0  0  0  0  0  0  0  0  0  0  0  0
  151.5360  143.9934  159.1282 C   0  0  0  0  0  0  0  0  0  0  0  0
  152.6578  143.2384  161.1680 C   0  0  0  0  0  0  0  0  0  0  0  0
  152.4034  144.2827  161.7683 O   0  0  0  0  0  0  0  0  0  0  0  0
  153.4909  142.1523  161.8532 C   0  0  0  0  0  0  0  0  0  0  0  0
  153.1729  140.7447  161.3117 C   0  0  0  0  0  0  0  0  0  0  0  0
  152.2284  139.7760  155.5089 C   0  0  0  0  0  0  0  0  0  0  0  0
  151.1748  140.0577  154.7129 N   0  0  0  0  0  0  0  0  0  0  0  0
  145.7903  144.3173  154.6257 H   0  0  0  0  0  0  0  0  0  0  0  0
  146.3028  143.1138  155.8095 H   0  0  0  0  0  0  0  0  0  0  0  0
  144.7958  142.8870  154.9032 H   0  0  0  0  0  0  0  0  0  0  0  0
  145.6373  140.8177  154.3593 H   0  0  0  0  0  0  0  0  0  0  0  0
  146.8622  140.6551  153.1069 H   0  0  0  0  0  0  0  0  0  0  0  0
  147.6552  141.6811  155.8621 H   0  0  0  0  0  0  0  0  0  0  0  0
  147.3935  139.9537  155.6132 H   0  0  0  0  0  0  0  0  0  0  0  0
  148.9456  140.8880  157.1313 H   0  0  0  0  0  0  0  0  0  0  0  0
  150.9040  140.3626  158.5829 H   0  0  0  0  0  0  0  0  0  0  0  0
  152.1272  144.9052  159.0327 H   0  0  0  0  0  0  0  0  0  0  0  0
  150.5956  144.2447  159.6204 H   0  0  0  0  0  0  0  0  0  0  0  0
  151.2977  143.6474  158.1210 H   0  0  0  0  0  0  0  0  0  0  0  0
  154.5413  142.3849  161.6743 H   0  0  0  0  0  0  0  0  0  0  0  0
  153.3401  142.1871  162.9326 H   0  0  0  0  0  0  0  0  0  0  0  0
  152.2855  140.3469  161.8051 H   0  0  0  0  0  0  0  0  0  0  0  0
  153.9977  140.0842  161.5814 H   0  0  0  0  0  0  0  0  0  0  0  0
  153.1285  139.4670  154.9975 H   0  0  0  0  0  0  0  0  0  0  0  0
  1  2  1  0  0  0  0
  1 23  1  0  0  0  0
  1 24  1  0  0  0  0
  1 25  1  0  0  0  0
  2  3  1  0  0  0  0
  3  4  1  0  0  0  0
  3 26  1  0  0  0  0
  3 27  1  0  0  0  0
  4  5  1  0  0  0  0
  4 28  1  0  0  0  0
  4 29  1  0  0  0  0
  5  6  1  0  0  0  0
  6 22  1  0  0  0  0
  6  7  2  0  0  0  0
  7  8  1  0  0  0  0
  7 30  1  0  0  0  0
  8  9  2  0  0  0  0
  8 31  1  0  0  0  0
  9 10  1  0  0  0  0
  9 21  1  0  0  0  0
 10 11  1  0  0  0  0
 11 12  2  0  0  0  0
 11 13  1  0  0  0  0
 13 20  1  0  0  0  0
 13 14  2  0  0  0  0
 14 15  1  0  0  0  0
 15 16  1  0  0  0  0
 15 17  1  0  0  0  0
 16 32  1  0  0  0  0
 16 33  1  0  0  0  0
 16 34  1  0  0  0  0
 17 18  2  0  0  0  0
 17 19  1  0  0  0  0
 19 20  1  0  0  0  0
 19 35  1  0  0  0  0
 19 36  1  0  0  0  0
 20 37  1  0  0  0  0
 20 38  1  0  0  0  0
 21 22  2  0  0  0  0
 21 39  1  0  0  0  0
M  CHG  1  10  -1
M  END
> <s_m_source_file>
AV-unprocessed.smi

> <i_m_source_file_index>
2142

> <i_lp_mmshare_version>
43012

> <i_f3d_flags>
0

> <s_epik_input>
W0NIM11PW0NIMl1bQ0gyXU9jMVtjSF1bY0hdYyhbY0hdbjEpW05IXUMoPU8pQzI9Tk4oW0NIM10pQyg9TylbQ0gyXVtDSDJdMg==

> <s_epik_cmdline>
J2VwaWtfcHl0aG9uJywgJy1waCcsICc3LjAnLCAnLXRuJywgJzgnLCAnLW1hJywgJzIwMCcsICctbWV0YWxfYmluZGluZycsICctaW1hZScsICc8aW5maWxlLm1hZT4nLCAnLW9tYWUnLCAnPG91dGZpbGUubWFlPic=

> <r_lp_tautomer_probability>
1

> <r_epik_Ionization_Penalty>
5.98992

> <r_epik_Ionization_Penalty_Charging>
5.98968

> <r_epik_Ionization_Penalty_Neutral>
0.000245408

> <r_epik_State_Penalty>
5.98965

> <r_epik_Charging_Adjusted_Penalty>
11.9793

> <i_epik_Tot_Q>
-1

> <i_epik_Tot_abs_Q>
1

> <r_epik_Metal_State_Penalty>
1.94325

> <b_epik_Metal_Only>
1

> <s_epik_Chemistry_Notes>
This compound has an imine and may undergo hydrolysis.

> <s_lp_Force_Field>
OPLS_2005

> <r_lp_Energy>
19.7207

> <b_lp_Chiralities_Consistent>
1

> <s_lp_Variant>
AV-unprocessed.smi:2142-2

> <Gold.Version>
5.8.1

> <Gold.Id.Protein>
6NUR|6NUR_protein|mol2

> <Gold.PLP.Fitness>
43.6323

> <Gold.PLP.PLP>
-36.2050

> <Gold.PLP.part.hbond>
-1.8966

> <Gold.PLP.part.metal>
0.0000

> <Gold.PLP.part.buried>
-3.5417

> <Gold.PLP.part.nonpolar>
-30.8984

> <Gold.PLP.part.repulsive>
0.5680

> <Gold.PLP.ligand.clash>
0.0642

> <Gold.PLP.ligand.torsion>
1.1690

> <Gold.PLP.Chemscore.Hbond>
3.0000

> <Gold.PLP.Chemscore.CHOScore>
0.0000

> <Gold.PLP.Chemscore.Metal>
0.0000

> <Gold.Chemscore.Hbonds>
donor molecule, donor type, donor heavy atom, donor atom, acceptor molecule, acceptor atom, score
      P1  H  7989  7998       L1    22  0.99
      P1  H  7997  8008       L1    10  2.00

> <Gold.PLP.Chemscore.Internal.Correction>
0.8295

> <Gold.Rescore>
     Score         DG    S(hbond)    S(metal)    S(lipo)     H(rot)  DE(clash)    DE(int)     intcor
     10.09     -14.46       1.35        0.00      75.53       1.71       0.53       3.84       ----

> <Gold.Chemscore.Fitness>
10.0877

> <Gold.Chemscore.DG>
-14.4605

> <Gold.Chemscore.ZeroCoef>
-5.4800

> <Gold.Chemscore.Hbond>
1.3527

> <Gold.Chemscore.Metal>
0.0000

> <Gold.Chemscore.Lipo>
75.5275

> <Gold.Chemscore.Internal_Hbond>
0.0000

> <Gold.Chemscore.DEClash>
0.5346

> <Gold.Chemscore.DEInternal>
3.8382

> <Gold.Chemscore.Rot>
1.7087

> <Gold.Chemscore.Internal.Correction>
   9.000000E+99

> <Gold.Chemscore.Hbonds>
donor molecule, donor type, donor heavy atom, donor atom, acceptor molecule, acceptor atom, score
      P1  H  7989  7998       L1    22  0.66
      P1  H  7997  8008       L1    10  0.82

> <Gold.Chemscore.Hbond.Weighted>
-4.5179

> <Gold.Chemscore.Metal.Weighted>
-0.0000

> <Gold.Chemscore.Lipo.Weighted>
-8.8367

> <Gold.Chemscore.Internal_Hbond.Weighted>
0.0000

> <Gold.Chemscore.DEClash.Weighted>
0.5346

> <Gold.Chemscore.DEInternal.Weighted>
3.8382

> <Gold.Chemscore.Rot.Weighted>
4.3742

> <Gold.Chemscore.Internal.Correction.Weighted>
   9.000000E+99

> <Gold.Protein.RotatedTorsions>
[ 6907 6896 6895 6894 ] final  109.65 input  -60.11 | X-H torsion
[ 7974 7965 7964 7962 ] final  122.65 input  175.53 | X-H torsion
[ 8008 7997 7996 7995 ] final  -93.98 input   59.86 | X-H torsion
[ 10167 10162 10161 10158 ] final  144.20 input  -65.29 | X-H torsion
[ 10718 10713 10712 10709 ] final  -49.99 input   66.30 | X-H torsion
[ 10763 10752 10751 10750 ] final   38.21 input  -60.55 | X-H torsion
[ 11005 11000 10999 10996 ] final   64.18 input  -57.11 | X-H torsion

> <Gold.Protein.ActiveResidues>
 VAL166  LYS551  ARG553  GLY616  TRP617  ASP618  TYR619  PRO620  LYS621  CYS622 
 ASP623  PHE694  ASN695  SER759  ASP760  ASP761  ALA762  ILE779  LEU786  VAL792 
 PHE793  MET794  SER795  GLU796  ALA797  LYS798  CYS799  TRP800  GLU811  SER814 

> <Gold.Protein.RotatedAtoms>
  152.5057  133.8913  159.7394 H   0  0  0  0  0  0  0  0  0  0  0  0  # atno 6907 bound_to 6896
  150.9351  133.6713  159.2809 H   0  0  0  0  0  0  0  0  0  0  0  0  # atno 6908 bound_to 6896
  151.4043  135.0980  159.9618 H   0  0  0  0  0  0  0  0  0  0  0  0  # atno 6909 bound_to 6896
  145.1051  139.3491  143.4792 H   0  0  0  0  0  0  0  0  0  0  0  0  # atno 7974 bound_to 7965
  154.7425  140.0493  157.0823 H   0  0  0  0  0  0  0  0  0  0  0  0  # atno 8008 bound_to 7997
  155.0160  140.3141  155.4792 H   0  0  0  0  0  0  0  0  0  0  0  0  # atno 8009 bound_to 7997
  156.2867  140.2175  156.5276 H   0  0  0  0  0  0  0  0  0  0  0  0  # atno 8010 bound_to 7997
  139.4952  144.5989  151.6524 H   0  0  0  0  0  0  0  0  0  0  0  0  # atno 10167 bound_to 10162
  156.1842  130.4151  149.9463 H   0  0  0  0  0  0  0  0  0  0  0  0  # atno 10718 bound_to 10713
  153.0009  135.6256  154.2268 H   0  0  0  0  0  0  0  0  0  0  0  0  # atno 10763 bound_to 10752
  154.2011  135.2804  155.2992 H   0  0  0  0  0  0  0  0  0  0  0  0  # atno 10764 bound_to 10752
  154.5683  135.5684  153.7130 H   0  0  0  0  0  0  0  0  0  0  0  0  # atno 10765 bound_to 10752
  139.9976  134.6493  155.9984 H   0  0  0  0  0  0  0  0  0  0  0  0  # atno 11005 bound_to 11000
  146.3528  140.0945  142.8611 LP  0  0  0  0  0  0  0  0  0  0  0  0  # atno 17320 bound_to 7965
  145.0911  140.9285  143.4768 LP  0  0  0  0  0  0  0  0  0  0  0  0  # atno 17321 bound_to 7965
  140.5633  144.0232  150.6180 LP  0  0  0  0  0  0  0  0  0  0  0  0  # atno 17342 bound_to 10162
  140.3325  143.3069  152.0672 LP  0  0  0  0  0  0  0  0  0  0  0  0  # atno 17343 bound_to 10162
  156.7224  130.9012  151.3619 LP  0  0  0  0  0  0  0  0  0  0  0  0  # atno 17370 bound_to 10713
  157.6888  130.9212  150.0457 LP  0  0  0  0  0  0  0  0  0  0  0  0  # atno 17371 bound_to 10713
  141.1616  133.6538  156.4339 LP  0  0  0  0  0  0  0  0  0  0  0  0  # atno 17394 bound_to 11000
  140.4789  134.6683  157.5162 LP  0  0  0  0  0  0  0  0  0  0  0  0  # atno 17395 bound_to 11000

$$$$
