AV-unprocessed.smi:1399|AV-procd|sdf|5681|dock4
  -GOLD-   22720 5303D 1   1.00000     0.00000
 Structure written by MMmdl.
 37 38  0  0  0  0  0  0  0  0  1 V2000
  149.5542  142.8567  157.4540 N   0  0  0  0  0  0  0  0  0  0  0  0
  150.5192  141.9349  157.4051 C   0  0  0  0  0  0  0  0  0  0  0  0
  150.8755  141.3015  158.3961 O   0  0  0  0  0  0  0  0  0  0  0  0
  151.1872  141.6954  156.0461 C   0  0  0  0  0  0  0  0  0  0  0  0
  150.4613  140.7614  155.1542 N   0  0  0  0  0  0  0  0  0  0  0  0
  149.1398  141.2733  154.7610 C   0  0  0  0  0  0  0  0  0  0  0  0
  148.4516  140.3043  153.7830 C   0  0  0  0  0  0  0  0  0  0  0  0
  148.3091  138.9010  154.3948 C   0  0  0  0  0  0  0  0  0  0  0  0
  147.7774  137.9553  153.4180 N   0  0  0  0  0  0  0  0  0  0  0  0
  146.5218  137.4860  153.4016 C   0  0  0  0  0  0  0  0  0  0  0  0
  145.6620  137.8112  154.2206 O   0  0  0  0  0  0  0  0  0  0  0  0
  146.3349  136.6283  152.3851 N   0  0  0  0  0  0  0  0  0  0  0  0
  145.1449  135.9331  152.0528 C   0  0  0  0  0  0  0  0  0  0  0  0
  144.1068  135.6202  152.9719 C   0  0  0  0  0  0  0  0  0  0  0  0
  143.1173  134.9668  152.3798 N   0  0  0  0  0  0  0  0  0  0  0  0
  143.5141  134.8589  151.0917 N   0  0  0  0  0  0  0  0  0  0  0  0
  144.7419  135.4328  150.8462 C   0  0  0  0  0  0  0  0  0  0  0  0
  149.6859  138.4300  154.8831 C   0  0  0  0  0  0  0  0  0  0  0  0
  150.3223  139.4653  155.8268 C   0  0  0  0  0  0  0  0  0  0  0  0
  142.9424  134.3962  150.3991 H   0  0  0  0  0  0  0  0  0  0  0  0
  149.0814  143.0432  158.3264 H   0  0  0  0  0  0  0  0  0  0  0  0
  149.2969  143.3582  156.6163 H   0  0  0  0  0  0  0  0  0  0  0  0
  151.2807  142.6666  155.5577 H   0  0  0  0  0  0  0  0  0  0  0  0
  152.2041  141.3331  156.2094 H   0  0  0  0  0  0  0  0  0  0  0  0
  148.5166  141.4245  155.6442 H   0  0  0  0  0  0  0  0  0  0  0  0
  149.2274  142.2417  154.2687 H   0  0  0  0  0  0  0  0  0  0  0  0
  147.4714  140.6965  153.5098 H   0  0  0  0  0  0  0  0  0  0  0  0
  149.0306  140.2513  152.8596 H   0  0  0  0  0  0  0  0  0  0  0  0
  147.6369  138.9504  155.2539 H   0  0  0  0  0  0  0  0  0  0  0  0
  148.4146  137.6338  152.7040 H   0  0  0  0  0  0  0  0  0  0  0  0
  147.1284  136.4518  151.7865 H   0  0  0  0  0  0  0  0  0  0  0  0
  144.0396  135.8416  154.0270 H   0  0  0  0  0  0  0  0  0  0  0  0
  145.1961  135.4298  149.8664 H   0  0  0  0  0  0  0  0  0  0  0  0
  149.5925  137.4723  155.3965 H   0  0  0  0  0  0  0  0  0  0  0  0
  150.3478  138.2615  154.0320 H   0  0  0  0  0  0  0  0  0  0  0  0
  151.3036  139.1016  156.1349 H   0  0  0  0  0  0  0  0  0  0  0  0
  149.7237  139.5688  156.7337 H   0  0  0  0  0  0  0  0  0  0  0  0
  1  2  1  0  0  0  0
  1 21  1  0  0  0  0
  1 22  1  0  0  0  0
  2  3  2  0  0  0  0
  2  4  1  0  0  0  0
  4  5  1  0  0  0  0
  4 23  1  0  0  0  0
  4 24  1  0  0  0  0
  5 19  1  0  0  0  0
  5  6  1  0  0  0  0
  6  7  1  0  0  0  0
  6 25  1  0  0  0  0
  6 26  1  0  0  0  0
  7  8  1  0  0  0  0
  7 27  1  0  0  0  0
  7 28  1  0  0  0  0
  8  9  1  0  0  0  0
  8 18  1  0  0  0  0
  8 29  1  0  0  0  0
  9 10  1  0  0  0  0
  9 30  1  0  0  0  0
 10 11  2  0  0  0  0
 10 12  1  0  0  0  0
 12 13  1  0  0  0  0
 12 31  1  0  0  0  0
 13 17  2  0  0  0  0
 13 14  1  0  0  0  0
 14 15  2  0  0  0  0
 14 32  1  0  0  0  0
 15 16  1  0  0  0  0
 16 20  1  0  0  0  0
 16 17  1  0  0  0  0
 17 33  1  0  0  0  0
 18 19  1  0  0  0  0
 18 34  1  0  0  0  0
 18 35  1  0  0  0  0
 19 36  1  0  0  0  0
 19 37  1  0  0  0  0
M  END
> <s_m_source_file>
AV-unprocessed.smi

> <i_m_source_file_index>
1399

> <i_lp_mmshare_version>
43012

> <i_f3d_flags>
0

> <s_epik_input>
W05IMl1DKD1PKVtDSDJdTjFbQ0gyXVtDSDJdW0NIXShbQ0gyXVtDSDJdMSlbTkhdQyg9TylbTkhdYzJbY0hdbltuSF1bY0hdMg==

> <s_epik_cmdline>
J2VwaWtfcHl0aG9uJywgJy1waCcsICc3LjAnLCAnLXRuJywgJzgnLCAnLW1hJywgJzIwMCcsICctbWV0YWxfYmluZGluZycsICctaW1hZScsICc8aW5maWxlLm1hZT4nLCAnLW9tYWUnLCAnPG91dGZpbGUubWFlPic=

> <r_lp_tautomer_probability>
0.5

> <r_epik_Ionization_Penalty>
0.164786

> <r_epik_Ionization_Penalty_Charging>
0

> <r_epik_Ionization_Penalty_Neutral>
0.164786

> <r_epik_State_Penalty>
0.154069

> <r_epik_Charging_Adjusted_Penalty>
0.154069

> <i_epik_Tot_Q>
0

> <i_epik_Tot_abs_Q>
0

> <r_epik_Metal_State_Penalty>
0.171367

> <b_epik_Metal_Only>
0

> <s_lp_Force_Field>
OPLS_2005

> <r_lp_Energy>
13.9175

> <b_lp_Chiralities_Consistent>
1

> <s_lp_Variant>
AV-unprocessed.smi:1399-1

> <Gold.Version>
5.8.1

> <Gold.Id.Protein>
6NUR|6NUR_protein|mol2

> <Gold.PLP.Fitness>
38.4046

> <Gold.PLP.PLP>
-23.5253

> <Gold.PLP.part.hbond>
-5.0000

> <Gold.PLP.part.metal>
0.0000

> <Gold.PLP.part.buried>
-2.8394

> <Gold.PLP.part.nonpolar>
-16.9970

> <Gold.PLP.part.repulsive>
0.5068

> <Gold.PLP.ligand.clash>
0.0000

> <Gold.PLP.ligand.torsion>
0.6561

> <Gold.PLP.Chemscore.Hbond>
4.3930

> <Gold.PLP.Chemscore.CHOScore>
1.0000

> <Gold.PLP.Chemscore.Metal>
0.0000

> <Gold.Chemscore.Hbonds>
donor molecule, donor type, donor heavy atom, donor atom, acceptor molecule, acceptor atom, score
      L1  H     1    22       P1  8028  1.00
      L1  H     9    30       P1  7948  0.90
      L1  H    12    31       P1  7948  0.85
      L1  H    16    20       P1 10186  0.68
      P1  H  7989  7998       L1     5  0.85
      L1  C    17    33       P1  7921  1.00

> <Gold.PLP.Chemscore.Internal.Correction>
0.0125

> <Gold.Rescore>
     Score         DG    S(hbond)    S(metal)    S(lipo)     H(rot)  DE(clash)    DE(int)     intcor
     15.26     -17.34       3.45        0.00      48.07       2.06       0.20       1.89       ----

> <Gold.Chemscore.Fitness>
15.2609

> <Gold.Chemscore.DG>
-17.3426

> <Gold.Chemscore.ZeroCoef>
-5.4800

> <Gold.Chemscore.Hbond>
3.4483

> <Gold.Chemscore.Metal>
0.0000

> <Gold.Chemscore.Lipo>
48.0688

> <Gold.Chemscore.Internal_Hbond>
0.0000

> <Gold.Chemscore.DEClash>
0.1953

> <Gold.Chemscore.DEInternal>
1.8864

> <Gold.Chemscore.Rot>
2.0620

> <Gold.Chemscore.Internal.Correction>
   9.000000E+99

> <Gold.Chemscore.Hbonds>
donor molecule, donor type, donor heavy atom, donor atom, acceptor molecule, acceptor atom, score
      L1  H     1    22       P1  8028  0.98
      L1  H     9    30       P1  7948  0.88
      L1  H    12    31       P1  7948  0.85
      L1  H    16    20       P1 10186  0.46
      P1  H  7989  7998       L1     5  0.11

> <Gold.Chemscore.Hbond.Weighted>
-11.5174

> <Gold.Chemscore.Metal.Weighted>
-0.0000

> <Gold.Chemscore.Lipo.Weighted>
-5.6240

> <Gold.Chemscore.Internal_Hbond.Weighted>
0.0000

> <Gold.Chemscore.DEClash.Weighted>
0.1953

> <Gold.Chemscore.DEInternal.Weighted>
1.8864

> <Gold.Chemscore.Rot.Weighted>
5.2788

> <Gold.Chemscore.Internal.Correction.Weighted>
   9.000000E+99

> <Gold.Protein.RotatedTorsions>
[ 6907 6896 6895 6894 ] final  106.63 input  -60.11 | X-H torsion
[ 7974 7965 7964 7962 ] final  -86.53 input  175.53 | X-H torsion
[ 8008 7997 7996 7995 ] final   98.10 input   59.86 | X-H torsion
[ 10167 10162 10161 10158 ] final -142.06 input  -65.29 | X-H torsion
[ 10718 10713 10712 10709 ] final -110.57 input   66.30 | X-H torsion
[ 10763 10752 10751 10750 ] final  -22.42 input  -60.55 | X-H torsion
[ 11005 11000 10999 10996 ] final  -59.99 input  -57.11 | X-H torsion

> <Gold.Protein.ActiveResidues>
 VAL166  LYS551  ARG553  GLY616  TRP617  ASP618  TYR619  PRO620  LYS621  CYS622 
 ASP623  PHE694  ASN695  SER759  ASP760  ASP761  ALA762  ILE779  LEU786  VAL792 
 PHE793  MET794  SER795  GLU796  ALA797  LYS798  CYS799  TRP800  GLU811  SER814 

> <Gold.Protein.RotatedAtoms>
  152.5186  133.9353  159.7600 H   0  0  0  0  0  0  0  0  0  0  0  0  # atno 6907 bound_to 6896
  150.9695  133.6351  159.2747 H   0  0  0  0  0  0  0  0  0  0  0  0  # atno 6908 bound_to 6896
  151.3567  135.0901  159.9474 H   0  0  0  0  0  0  0  0  0  0  0  0  # atno 6909 bound_to 6896
  145.4786  140.9557  143.1877 H   0  0  0  0  0  0  0  0  0  0  0  0  # atno 7974 bound_to 7965
  156.0969  140.3249  155.7890 H   0  0  0  0  0  0  0  0  0  0  0  0  # atno 8008 bound_to 7997
  155.4902  140.0561  157.2972 H   0  0  0  0  0  0  0  0  0  0  0  0  # atno 8009 bound_to 7997
  154.4672  140.1995  156.0102 H   0  0  0  0  0  0  0  0  0  0  0  0  # atno 8010 bound_to 7997
  139.8125  143.7684  152.2664 H   0  0  0  0  0  0  0  0  0  0  0  0  # atno 10167 bound_to 10162
  156.0598  130.5822  150.8255 H   0  0  0  0  0  0  0  0  0  0  0  0  # atno 10718 bound_to 10713
  153.6516  135.6980  153.5207 H   0  0  0  0  0  0  0  0  0  0  0  0  # atno 10763 bound_to 10752
  153.2702  135.4217  155.0979 H   0  0  0  0  0  0  0  0  0  0  0  0  # atno 10764 bound_to 10752
  154.8475  135.3576  154.6060 H   0  0  0  0  0  0  0  0  0  0  0  0  # atno 10765 bound_to 10752
  141.1270  133.6619  156.5155 H   0  0  0  0  0  0  0  0  0  0  0  0  # atno 11005 bound_to 11000
  144.7902  139.6343  143.7116 LP  0  0  0  0  0  0  0  0  0  0  0  0  # atno 17320 bound_to 7965
  146.2354  139.5895  142.9527 LP  0  0  0  0  0  0  0  0  0  0  0  0  # atno 17321 bound_to 7965
  139.7837  144.7435  151.0052 LP  0  0  0  0  0  0  0  0  0  0  0  0  # atno 17342 bound_to 10162
  140.7817  143.4515  151.0406 LP  0  0  0  0  0  0  0  0  0  0  0  0  # atno 17343 bound_to 10162
  157.5598  131.0945  150.9576 LP  0  0  0  0  0  0  0  0  0  0  0  0  # atno 17370 bound_to 10713
  156.9816  130.5529  149.5297 LP  0  0  0  0  0  0  0  0  0  0  0  0  # atno 17371 bound_to 10713
  140.4334  134.7081  157.4954 LP  0  0  0  0  0  0  0  0  0  0  0  0  # atno 17394 bound_to 11000
  140.0278  134.6451  155.9148 LP  0  0  0  0  0  0  0  0  0  0  0  0  # atno 17395 bound_to 11000

$$$$
