AV-unprocessed.smi:102|AV-procd|sdf|969|dock4
  -GOLD-   2262017513D 1   1.00000     0.00000
 Structure written by MMmdl.
 43 44  0  0  0  0  0  0  0  0  2 V2000
  146.3767  133.8807  151.3589 C   0  0  0  0  0  0  0  0  0  0  0  0
  146.8212  133.2273  152.6608 C   0  0  0  0  0  0  0  0  0  0  0  0
  146.0055  132.8464  153.5008 O   0  0  0  0  0  0  0  0  0  0  0  0
  148.1557  133.1360  152.7584 O   0  0  0  0  0  0  0  0  0  0  0  0
  148.7351  132.5789  153.9265 C   0  0  0  0  0  0  0  0  0  0  0  0
  148.6720  133.6014  155.0716 C   0  0  2  0  0  0  0  0  0  0  0  0
  149.3025  134.8221  154.6875 O   0  0  0  0  0  0  0  0  0  0  0  0
  150.4496  135.0377  155.4523 C   0  0  1  0  0  0  0  0  0  0  0  0
  150.7931  136.5209  155.4595 N   0  0  0  0  0  0  0  0  0  0  0  0
  149.9415  137.4645  154.9030 C   0  0  0  0  0  0  0  0  0  0  0  0
  150.2245  138.7823  154.9405 C   0  0  0  0  0  0  0  0  0  0  0  0
  149.3742  139.6655  154.3895 F   0  0  0  0  0  0  0  0  0  0  0  0
  151.4437  139.2398  155.6009 C   0  0  0  0  0  0  0  0  0  0  0  0
  151.7211  140.4382  155.5945 O   0  0  0  0  0  0  0  0  0  0  0  0
  152.2232  138.3030  156.2125 N   0  5  0  0  0  0  0  0  0  0  0  0
  151.9266  136.9699  156.1971 C   0  0  0  0  0  0  0  0  0  0  0  0
  152.5945  136.1356  156.8079 O   0  0  0  0  0  0  0  0  0  0  0  0
  150.0847  134.4291  156.8166 C   0  0  1  0  0  0  0  0  0  0  0  0
  149.1843  135.2604  157.5459 O   0  0  0  0  0  0  0  0  0  0  0  0
  149.6538  136.1854  158.4000 C   0  0  0  0  0  0  0  0  0  0  0  0
  148.5457  137.0574  158.9742 C   0  0  0  0  0  0  0  0  0  0  0  0
  150.8324  136.3512  158.7140 O   0  0  0  0  0  0  0  0  0  0  0  0
  149.3617  133.1640  156.3768 C   0  0  2  0  0  0  0  0  0  0  0  0
  150.3086  132.1196  156.1664 O   0  0  0  0  0  0  0  0  0  0  0  0
  151.1374  131.7401  157.1548 C   0  0  0  0  0  0  0  0  0  0  0  0
  152.1475  130.6976  156.6949 C   0  0  0  0  0  0  0  0  0  0  0  0
  151.1268  132.1583  158.3124 O   0  0  0  0  0  0  0  0  0  0  0  0
  146.9051  133.4417  150.5125 H   0  0  0  0  0  0  0  0  0  0  0  0
  146.5871  134.9500  151.3830 H   0  0  0  0  0  0  0  0  0  0  0  0
  145.3060  133.7422  151.2070 H   0  0  0  0  0  0  0  0  0  0  0  0
  148.1736  131.6838  154.1982 H   0  0  0  0  0  0  0  0  0  0  0  0
  149.7667  132.2775  153.7389 H   0  0  0  0  0  0  0  0  0  0  0  0
  147.6295  133.8324  155.2952 H   0  0  0  0  0  0  0  0  0  0  0  0
  151.3106  134.5506  154.9908 H   0  0  0  0  0  0  0  0  0  0  0  0
  149.0144  137.1627  154.4419 H   0  0  0  0  0  0  0  0  0  0  0  0
  150.9935  134.2325  157.3879 H   0  0  0  0  0  0  0  0  0  0  0  0
  148.0082  137.5629  158.1715 H   0  0  0  0  0  0  0  0  0  0  0  0
  148.9592  137.8132  159.6422 H   0  0  0  0  0  0  0  0  0  0  0  0
  147.8375  136.4488  159.5366 H   0  0  0  0  0  0  0  0  0  0  0  0
  148.6163  132.8432  157.1065 H   0  0  0  0  0  0  0  0  0  0  0  0
  151.6426  129.8795  156.1812 H   0  0  0  0  0  0  0  0  0  0  0  0
  152.6905  130.2882  157.5469 H   0  0  0  0  0  0  0  0  0  0  0  0
  152.8668  131.1465  156.0096 H   0  0  0  0  0  0  0  0  0  0  0  0
  1  2  1  0  0  0  0
  1 28  1  0  0  0  0
  1 29  1  0  0  0  0
  1 30  1  0  0  0  0
  2  3  2  0  0  0  0
  2  4  1  0  0  0  0
  4  5  1  0  0  0  0
  5  6  1  0  0  0  0
  5 31  1  0  0  0  0
  5 32  1  0  0  0  0
  6 23  1  0  0  0  0
  6  7  1  0  0  0  0
  6 33  1  0  0  0  0
  7  8  1  0  0  0  0
  8  9  1  0  0  0  0
  8 18  1  0  0  0  0
  8 34  1  0  0  0  0
  9 16  1  0  0  0  0
  9 10  1  0  0  0  0
 10 11  2  0  0  0  0
 10 35  1  0  0  0  0
 11 12  1  0  0  0  0
 11 13  1  0  0  0  0
 13 14  2  0  0  0  0
 13 15  1  0  0  0  0
 15 16  1  0  0  0  0
 16 17  2  0  0  0  0
 18 19  1  0  0  0  0
 18 23  1  0  0  0  0
 18 36  1  0  0  0  0
 19 20  1  0  0  0  0
 20 21  1  0  0  0  0
 20 22  2  0  0  0  0
 21 37  1  0  0  0  0
 21 38  1  0  0  0  0
 21 39  1  0  0  0  0
 23 24  1  0  0  0  0
 23 40  1  0  0  0  0
 24 25  1  0  0  0  0
 25 26  1  0  0  0  0
 25 27  2  0  0  0  0
 26 41  1  0  0  0  0
 26 42  1  0  0  0  0
 26 43  1  0  0  0  0
M  CHG  1  15  -1
M  END
> <s_m_source_file>
AV-unprocessed.smi

> <i_m_source_file_index>
102

> <i_lp_mmshare_version>
43012

> <i_f3d_flags>
0

> <s_epik_input>
W0NIM11DKD1PKU9bQ0gyXVtDQEBIXTFPW0NASF0oW0NAQEhdKE9DKD1PKVtDSDNdKVtDQEhdMU9DKD1PKVtDSDNdKW4yW2NIXWMoRiljKD1PKVtuSF1jMj1P

> <s_epik_cmdline>
J2VwaWtfcHl0aG9uJywgJy1waCcsICc3LjAnLCAnLXRuJywgJzgnLCAnLW1hJywgJzIwMCcsICctbWV0YWxfYmluZGluZycsICctaW1hZScsICc8aW5maWxlLm1hZT4nLCAnLW9tYWUnLCAnPG91dGZpbGUubWFlPic=

> <r_epik_Ionization_Penalty>
1.40304

> <r_epik_Ionization_Penalty_Charging>
1.43915e-08

> <r_epik_Ionization_Penalty_Neutral>
1.40304

> <r_epik_State_Penalty>
1.48536

> <r_epik_Charging_Adjusted_Penalty>
1.48536

> <i_epik_Tot_Q>
-1

> <i_epik_Tot_abs_Q>
1

> <r_epik_Metal_State_Penalty>
0.00663881

> <b_epik_Metal_Only>
0

> <s_epik_Chemistry_Notes>
This compound has an ester and may undergo hydrolysis at high or low pH. This compound contains an acetal/aminal-like group ( X-CH(R)-Y where X, Y are N, S, or O) that may be acid/base labile, releasing an aldehyde.

> <s_lp_Force_Field>
OPLS_2005

> <r_lp_Energy>
30.6684

> <b_lp_Chiralities_Consistent>
1

> <s_lp_Variant>
AV-unprocessed.smi:102-25

> <Gold.Version>
5.8.1

> <Gold.Id.Protein>
6NUR|6NUR_protein|mol2

> <Gold.PLP.Fitness>
45.2221

> <Gold.PLP.PLP>
-32.6427

> <Gold.PLP.part.hbond>
-4.0000

> <Gold.PLP.part.metal>
0.0000

> <Gold.PLP.part.buried>
-3.7693

> <Gold.PLP.part.nonpolar>
-27.8789

> <Gold.PLP.part.repulsive>
2.2325

> <Gold.PLP.ligand.clash>
0.0000

> <Gold.PLP.ligand.torsion>
0.5490

> <Gold.PLP.Chemscore.Hbond>
3.7440

> <Gold.PLP.Chemscore.CHOScore>
0.7557

> <Gold.PLP.Chemscore.Metal>
0.0000

> <Gold.Chemscore.Hbonds>
donor molecule, donor type, donor heavy atom, donor atom, acceptor molecule, acceptor atom, score
      P1  H  6896  6907       L1    27  0.94
      P1  H  6896  6908       L1    22  0.68
      P1  H  7989  7998       L1    14  0.57
      P1  H 10752 10763       L1    17  0.55
      L1  C    10    35       P1  7948  0.41

> <Gold.PLP.Chemscore.Internal.Correction>
0.1784

> <Gold.Rescore>
     Score         DG    S(hbond)    S(metal)    S(lipo)     H(rot)  DE(clash)    DE(int)     intcor
      6.25      -8.07       2.38        0.00      41.60       4.00       0.79       1.02       ----

> <Gold.Chemscore.Fitness>
6.2523

> <Gold.Chemscore.DG>
-8.0652

> <Gold.Chemscore.ZeroCoef>
-5.4800

> <Gold.Chemscore.Hbond>
2.3787

> <Gold.Chemscore.Metal>
0.0000

> <Gold.Chemscore.Lipo>
41.6040

> <Gold.Chemscore.Internal_Hbond>
0.0000

> <Gold.Chemscore.DEClash>
0.7912

> <Gold.Chemscore.DEInternal>
1.0217

> <Gold.Chemscore.Rot>
3.9951

> <Gold.Chemscore.Internal.Correction>
   9.000000E+99

> <Gold.Chemscore.Hbonds>
donor molecule, donor type, donor heavy atom, donor atom, acceptor molecule, acceptor atom, score
      P1  H  6896  6907       L1    27  0.90
      P1  H  6896  6908       L1    22  0.10
      P1  H  7989  7998       L1    14  0.20
      P1  H 10752 10763       L1    17  0.03

> <Gold.Chemscore.Hbond.Weighted>
-7.9450

> <Gold.Chemscore.Metal.Weighted>
-0.0000

> <Gold.Chemscore.Lipo.Weighted>
-4.8677

> <Gold.Chemscore.Internal_Hbond.Weighted>
0.0000

> <Gold.Chemscore.DEClash.Weighted>
0.7912

> <Gold.Chemscore.DEInternal.Weighted>
1.0217

> <Gold.Chemscore.Rot.Weighted>
10.2274

> <Gold.Chemscore.Internal.Correction.Weighted>
   9.000000E+99

> <Gold.Protein.RotatedTorsions>
[ 6907 6896 6895 6894 ] final -162.58 input  -60.11 | X-H torsion
[ 7974 7965 7964 7962 ] final   10.65 input  175.53 | X-H torsion
[ 8008 7997 7996 7995 ] final -167.68 input   59.86 | X-H torsion
[ 10167 10162 10161 10158 ] final   56.92 input  -65.29 | X-H torsion
[ 10718 10713 10712 10709 ] final -100.20 input   66.30 | X-H torsion
[ 10763 10752 10751 10750 ] final   99.60 input  -60.55 | X-H torsion
[ 11005 11000 10999 10996 ] final -135.11 input  -57.11 | X-H torsion

> <Gold.Protein.ActiveResidues>
 VAL166  LYS551  ARG553  GLY616  TRP617  ASP618  TYR619  PRO620  LYS621  CYS622 
 ASP623  PHE694  ASN695  SER759  ASP760  ASP761  ALA762  ILE779  LEU786  VAL792 
 PHE793  MET794  SER795  GLU796  ALA797  LYS798  CYS799  TRP800  GLU811  SER814 

> <Gold.Protein.RotatedAtoms>
  151.3825  133.3816  159.2711 H   0  0  0  0  0  0  0  0  0  0  0  0  # atno 6907 bound_to 6896
  150.9566  134.8961  159.7715 H   0  0  0  0  0  0  0  0  0  0  0  0  # atno 6908 bound_to 6896
  152.5133  134.3783  159.9394 H   0  0  0  0  0  0  0  0  0  0  0  0  # atno 6909 bound_to 6896
  146.2385  139.9603  142.8459 H   0  0  0  0  0  0  0  0  0  0  0  0  # atno 7974 bound_to 7965
  155.8811  140.1009  157.1484 H   0  0  0  0  0  0  0  0  0  0  0  0  # atno 8008 bound_to 7997
  154.4005  140.1329  156.4261 H   0  0  0  0  0  0  0  0  0  0  0  0  # atno 8009 bound_to 7997
  155.7642  140.3462  155.5216 H   0  0  0  0  0  0  0  0  0  0  0  0  # atno 8010 bound_to 7997
  140.2036  144.3963  150.6518 H   0  0  0  0  0  0  0  0  0  0  0  0  # atno 10167 bound_to 10162
  156.0156  130.5317  150.6782 H   0  0  0  0  0  0  0  0  0  0  0  0  # atno 10718 bound_to 10713
  153.3034  135.4108  155.1273 H   0  0  0  0  0  0  0  0  0  0  0  0  # atno 10763 bound_to 10752
  154.8556  135.3547  154.5821 H   0  0  0  0  0  0  0  0  0  0  0  0  # atno 10764 bound_to 10752
  153.6247  135.7063  153.5356 H   0  0  0  0  0  0  0  0  0  0  0  0  # atno 10765 bound_to 10752
  140.8928  134.1790  157.4515 H   0  0  0  0  0  0  0  0  0  0  0  0  # atno 11005 bound_to 11000
  145.1777  140.9752  143.4284 LP  0  0  0  0  0  0  0  0  0  0  0  0  # atno 17320 bound_to 7965
  144.9970  139.3634  143.6186 LP  0  0  0  0  0  0  0  0  0  0  0  0  # atno 17321 bound_to 7965
  140.6373  143.2197  151.6366 LP  0  0  0  0  0  0  0  0  0  0  0  0  # atno 17342 bound_to 10162
  139.5207  144.3213  152.0908 LP  0  0  0  0  0  0  0  0  0  0  0  0  # atno 17343 bound_to 10162
  157.4490  131.0870  151.0866 LP  0  0  0  0  0  0  0  0  0  0  0  0  # atno 17370 bound_to 10713
  157.1387  130.6133  149.5549 LP  0  0  0  0  0  0  0  0  0  0  0  0  # atno 17371 bound_to 10713
  139.8732  134.9866  156.5330 LP  0  0  0  0  0  0  0  0  0  0  0  0  # atno 17394 bound_to 11000
  140.8326  133.8267  155.8998 LP  0  0  0  0  0  0  0  0  0  0  0  0  # atno 17395 bound_to 11000

$$$$
