AV-unprocessed.smi:560|AV-procd|sdf|2932|dock8
  -GOLD-   2262023423D 1   1.00000     0.00000
 Structure written by MMmdl.
 41 42  0  0  0  0  0  0  0  0  3 V2000
  151.7887  144.4119  157.3989 C   0  0  0  0  0  0  0  0  0  0  0  0
  152.1100  143.0328  158.0038 C   0  0  2  0  0  0  0  0  0  0  0  0
  151.0185  141.9899  157.7183 C   0  0  0  0  0  0  0  0  0  0  0  0
  150.3988  141.4591  158.6411 O   0  0  0  0  0  0  0  0  0  0  0  0
  150.8008  141.6983  156.4261 N   0  0  0  0  0  0  0  0  0  0  0  0
  149.8427  140.7135  155.9337 C   0  0  2  0  0  0  0  0  0  0  0  0
  150.5339  139.7670  154.9392 C   0  0  0  0  0  0  0  0  0  0  0  0
  149.5348  138.7644  154.3388 C   0  0  0  0  0  0  0  0  0  0  0  0
  148.3963  139.4664  153.6874 N   0  3  1  0  0  0  0  0  0  0  0  0
  147.4698  138.5488  152.9761 C   0  0  0  0  0  0  0  0  0  0  0  0
  146.8964  139.2227  151.7252 C   0  0  0  0  0  0  0  0  0  0  0  0
  146.7491  138.3608  150.6988 N   0  5  0  0  0  0  0  0  0  0  0  0
  146.6264  140.4211  151.7503 O   0  0  0  0  0  0  0  0  0  0  0  0
  147.6883  140.3609  154.6373 C   0  0  0  0  0  0  0  0  0  0  0  0
  148.6477  141.3977  155.2444 C   0  0  0  0  0  0  0  0  0  0  0  0
  152.3458  143.1316  159.4381 N   0  0  0  0  0  0  0  0  0  0  0  0
  152.8150  142.1660  160.3077 C   0  0  0  0  0  0  0  0  0  0  0  0
  152.8767  142.7290  161.5499 C   0  0  0  0  0  0  0  0  0  0  0  0
  152.4186  144.0593  161.3405 C   0  0  0  0  0  0  0  0  0  0  0  0
  152.1040  144.2977  160.0774 N   0  0  0  0  0  0  0  0  0  0  0  0
  151.6211  144.3425  156.3236 H   0  0  0  0  0  0  0  0  0  0  0  0
  152.6152  145.1055  157.5563 H   0  0  0  0  0  0  0  0  0  0  0  0
  150.8983  144.8553  157.8465 H   0  0  0  0  0  0  0  0  0  0  0  0
  153.0288  142.6790  157.5317 H   0  0  0  0  0  0  0  0  0  0  0  0
  151.3577  142.1798  155.7341 H   0  0  0  0  0  0  0  0  0  0  0  0
  149.4794  140.1212  156.7761 H   0  0  0  0  0  0  0  0  0  0  0  0
  150.9940  140.3429  154.1345 H   0  0  0  0  0  0  0  0  0  0  0  0
  151.3427  139.2282  155.4344 H   0  0  0  0  0  0  0  0  0  0  0  0
  150.0544  138.1361  153.6149 H   0  0  0  0  0  0  0  0  0  0  0  0
  149.1566  138.1004  155.1177 H   0  0  0  0  0  0  0  0  0  0  0  0
  147.9799  137.6204  152.7138 H   0  0  0  0  0  0  0  0  0  0  0  0
  146.6352  138.2715  153.6230 H   0  0  0  0  0  0  0  0  0  0  0  0
  147.3949  137.5668  150.6169 H   0  0  0  0  0  0  0  0  0  0  0  0
  146.8819  140.8824  154.1203 H   0  0  0  0  0  0  0  0  0  0  0  0
  147.2273  139.7640  155.4260 H   0  0  0  0  0  0  0  0  0  0  0  0
  148.1055  142.0217  155.9556 H   0  0  0  0  0  0  0  0  0  0  0  0
  149.0049  142.0644  154.4582 H   0  0  0  0  0  0  0  0  0  0  0  0
  153.0642  141.1697  159.9725 H   0  0  0  0  0  0  0  0  0  0  0  0
  153.1993  142.2613  162.4681 H   0  0  0  0  0  0  0  0  0  0  0  0
  152.3069  144.8537  162.0637 H   0  0  0  0  0  0  0  0  0  0  0  0
  148.7872  140.0616  152.9703 H   0  0  0  0  0  0  0  0  0  0  0  0
  1  2  1  0  0  0  0
  1 21  1  0  0  0  0
  1 22  1  0  0  0  0
  1 23  1  0  0  0  0
  2  3  1  0  0  0  0
  2 16  1  0  0  0  0
  2 24  1  0  0  0  0
  3  4  2  0  0  0  0
  3  5  1  0  0  0  0
  5  6  1  0  0  0  0
  5 25  1  0  0  0  0
  6 15  1  0  0  0  0
  6  7  1  0  0  0  0
  6 26  1  0  0  0  0
  7  8  1  0  0  0  0
  7 27  1  0  0  0  0
  7 28  1  0  0  0  0
  8  9  1  0  0  0  0
  8 29  1  0  0  0  0
  8 30  1  0  0  0  0
  9 10  1  0  0  0  0
  9 14  1  0  0  0  0
  9 41  1  0  0  0  0
 10 11  1  0  0  0  0
 10 31  1  0  0  0  0
 10 32  1  0  0  0  0
 11 12  1  0  0  0  0
 11 13  2  0  0  0  0
 12 33  1  0  0  0  0
 14 15  1  0  0  0  0
 14 34  1  0  0  0  0
 14 35  1  0  0  0  0
 15 36  1  0  0  0  0
 15 37  1  0  0  0  0
 16 20  1  0  0  0  0
 16 17  1  0  0  0  0
 17 18  2  0  0  0  0
 17 38  1  0  0  0  0
 18 19  1  0  0  0  0
 18 39  1  0  0  0  0
 19 20  2  0  0  0  0
 19 40  1  0  0  0  0
M  CHG  1   9   1
M  CHG  1  12  -1
M  END
> <s_m_source_file>
AV-unprocessed.smi

> <i_m_source_file_index>
560

> <i_lp_mmshare_version>
43012

> <i_f3d_flags>
0

> <s_epik_input>
bjFbY0hdW2NIXVtjSF1uMVtDQEhdKFtDSDNdKUMoPU8pW05IXVtDSF0yW0NIMl1bQ0gyXU4oW0NIMl1bQ0gyXTIpW0NIMl1DKD1PKVtOSDJd

> <s_epik_cmdline>
J2VwaWtfcHl0aG9uJywgJy1waCcsICc3LjAnLCAnLXRuJywgJzgnLCAnLW1hJywgJzIwMCcsICctbWV0YWxfYmluZGluZycsICctaW1hZScsICc8aW5maWxlLm1hZT4nLCAnLW9tYWUnLCAnPG91dGZpbGUubWFlPic=

> <r_lp_tautomer_probability>
1

> <r_epik_Ionization_Penalty>
5.71084

> <r_epik_Ionization_Penalty_Charging>
5.71081

> <r_epik_Ionization_Penalty_Neutral>
3.04611e-05

> <r_epik_State_Penalty>
6.71277

> <r_epik_Charging_Adjusted_Penalty>
12.4236

> <i_epik_Tot_Q>
0

> <i_epik_Tot_abs_Q>
2

> <r_epik_Metal_State_Penalty>
2.67562

> <b_epik_Metal_Only>
1

> <s_lp_Force_Field>
OPLS_2005

> <r_lp_Energy>
10.6989

> <b_lp_Chiralities_Consistent>
1

> <s_lp_Variant>
AV-unprocessed.smi:560-7

> <Gold.Version>
5.8.1

> <Gold.Id.Protein>
6NUR|6NUR_protein|mol2

> <Gold.PLP.Fitness>
44.0088

> <Gold.PLP.PLP>
-39.9647

> <Gold.PLP.part.hbond>
-3.8468

> <Gold.PLP.part.metal>
0.0000

> <Gold.PLP.part.buried>
-2.6195

> <Gold.PLP.part.nonpolar>
-35.5452

> <Gold.PLP.part.repulsive>
2.1841

> <Gold.PLP.ligand.clash>
0.0000

> <Gold.PLP.ligand.torsion>
0.9196

> <Gold.PLP.Chemscore.Hbond>
1.9353

> <Gold.PLP.Chemscore.CHOScore>
0.0000

> <Gold.PLP.Chemscore.Metal>
0.0000

> <Gold.Chemscore.Hbonds>
donor molecule, donor type, donor heavy atom, donor atom, acceptor molecule, acceptor atom, score
      L1  H     9    41       P1  7957  0.86
      L1  H    12    33       P1  7948  0.20

> <Gold.PLP.Chemscore.Internal.Correction>
0.0774

> <Gold.Rescore>
     Score         DG    S(hbond)    S(metal)    S(lipo)     H(rot)  DE(clash)    DE(int)     intcor
     12.85     -16.24       1.76        0.00      95.98       2.47       2.31       1.08       ----

> <Gold.Chemscore.Fitness>
12.8543

> <Gold.Chemscore.DG>
-16.2408

> <Gold.Chemscore.ZeroCoef>
-5.4800

> <Gold.Chemscore.Hbond>
1.7555

> <Gold.Chemscore.Metal>
0.0000

> <Gold.Chemscore.Lipo>
95.9760

> <Gold.Chemscore.Internal_Hbond>
0.0000

> <Gold.Chemscore.DEClash>
2.3096

> <Gold.Chemscore.DEInternal>
1.0768

> <Gold.Chemscore.Rot>
2.4734

> <Gold.Chemscore.Internal.Correction>
   9.000000E+99

> <Gold.Chemscore.Hbonds>
donor molecule, donor type, donor heavy atom, donor atom, acceptor molecule, acceptor atom, score
      L1  H     9    41       P1  7957  0.83
      L1  H    12    33       P1  7948  0.19

> <Gold.Chemscore.Hbond.Weighted>
-5.8634

> <Gold.Chemscore.Metal.Weighted>
-0.0000

> <Gold.Chemscore.Lipo.Weighted>
-11.2292

> <Gold.Chemscore.Internal_Hbond.Weighted>
0.0000

> <Gold.Chemscore.DEClash.Weighted>
2.3096

> <Gold.Chemscore.DEInternal.Weighted>
1.0768

> <Gold.Chemscore.Rot.Weighted>
6.3318

> <Gold.Chemscore.Internal.Correction.Weighted>
   9.000000E+99

> <Gold.Protein.RotatedTorsions>
[ 6907 6896 6895 6894 ] final  160.36 input  -60.11 | X-H torsion
[ 7974 7965 7964 7962 ] final  134.18 input  175.53 | X-H torsion
[ 8008 7997 7996 7995 ] final   90.62 input   59.86 | X-H torsion
[ 10167 10162 10161 10158 ] final  -55.75 input  -65.29 | X-H torsion
[ 10718 10713 10712 10709 ] final    6.02 input   66.30 | X-H torsion
[ 10763 10752 10751 10750 ] final  122.67 input  -60.55 | X-H torsion
[ 11005 11000 10999 10996 ] final -117.56 input  -57.11 | X-H torsion

> <Gold.Protein.ActiveResidues>
 VAL166  LYS551  ARG553  GLY616  TRP617  ASP618  TYR619  PRO620  LYS621  CYS622 
 ASP623  PHE694  ASN695  SER759  ASP760  ASP761  ALA762  ILE779  LEU786  VAL792 
 PHE793  MET794  SER795  GLU796  ALA797  LYS798  CYS799  TRP800  GLU811  SER814 

> <Gold.Protein.RotatedAtoms>
  151.9718  133.3728  159.4073 H   0  0  0  0  0  0  0  0  0  0  0  0  # atno 6907 bound_to 6896
  150.6948  134.4131  159.5180 H   0  0  0  0  0  0  0  0  0  0  0  0  # atno 6908 bound_to 6896
  152.1837  134.8732  160.0575 H   0  0  0  0  0  0  0  0  0  0  0  0  # atno 6909 bound_to 6896
  144.9789  139.4525  143.5396 H   0  0  0  0  0  0  0  0  0  0  0  0  # atno 7974 bound_to 7965
  156.0141  140.3347  155.6971 H   0  0  0  0  0  0  0  0  0  0  0  0  # atno 8008 bound_to 7997
  155.6115  140.0666  157.2722 H   0  0  0  0  0  0  0  0  0  0  0  0  # atno 8009 bound_to 7997
  154.4292  140.1792  156.1265 H   0  0  0  0  0  0  0  0  0  0  0  0  # atno 8010 bound_to 7997
  140.6357  143.2481  151.5125 H   0  0  0  0  0  0  0  0  0  0  0  0  # atno 10167 bound_to 10162
  156.9160  130.5773  149.5647 H   0  0  0  0  0  0  0  0  0  0  0  0  # atno 10718 bound_to 10713
  153.6334  135.3392  155.3049 H   0  0  0  0  0  0  0  0  0  0  0  0  # atno 10763 bound_to 10752
  154.8575  135.4301  154.2081 H   0  0  0  0  0  0  0  0  0  0  0  0  # atno 10764 bound_to 10752
  153.2982  135.7022  153.7301 H   0  0  0  0  0  0  0  0  0  0  0  0  # atno 10765 bound_to 10752
  141.0346  133.9929  157.3090 H   0  0  0  0  0  0  0  0  0  0  0  0  # atno 11005 bound_to 11000
  146.3403  139.9050  142.8789 LP  0  0  0  0  0  0  0  0  0  0  0  0  # atno 17320 bound_to 7965
  145.2449  141.0023  143.3914 LP  0  0  0  0  0  0  0  0  0  0  0  0  # atno 17321 bound_to 7965
  139.5567  144.2257  152.1624 LP  0  0  0  0  0  0  0  0  0  0  0  0  # atno 17342 bound_to 10162
  140.1513  144.5112  150.6686 LP  0  0  0  0  0  0  0  0  0  0  0  0  # atno 17343 bound_to 10162
  156.0513  130.5582  150.8996 LP  0  0  0  0  0  0  0  0  0  0  0  0  # atno 17370 bound_to 10713
  157.5938  131.0943  150.9075 LP  0  0  0  0  0  0  0  0  0  0  0  0  # atno 17371 bound_to 10713
  139.9232  135.0201  156.8139 LP  0  0  0  0  0  0  0  0  0  0  0  0  # atno 17394 bound_to 11000
  140.6345  133.9875  155.7678 LP  0  0  0  0  0  0  0  0  0  0  0  0  # atno 17395 bound_to 11000

$$$$
