AV-unprocessed.smi:1346|AV-procd|sdf|5515|dock9
  -GOLD-   22720 5103D 1   1.00000     0.00000
 Structure written by MMmdl.
 47 48  0  0  0  0  0  0  0  0  1 V2000
  150.4277  138.1261  154.3758 C   0  0  0  0  0  0  0  0  0  0  0  0
  149.7470  139.4634  154.4434 C   0  0  0  0  0  0  0  0  0  0  0  0
  150.4062  140.4978  154.9373 N   0  0  0  0  0  0  0  0  0  0  0  0
  149.5215  141.5788  154.8822 O   0  0  0  0  0  0  0  0  0  0  0  0
  148.3484  141.1467  154.3539 C   0  0  0  0  0  0  0  0  0  0  0  0
  147.2619  142.1588  154.2175 C   0  0  0  0  0  0  0  0  0  0  0  0
  148.4223  139.8153  154.0498 C   0  0  0  0  0  0  0  0  0  0  0  0
  147.3560  138.9336  153.4508 C   0  0  0  0  0  0  0  0  0  0  0  0
  147.0478  137.7820  154.4073 C   0  0  0  0  0  0  0  0  0  0  0  0
  146.2150  137.9264  155.3020 O   0  0  0  0  0  0  0  0  0  0  0  0
  147.7416  136.6519  154.2166 N   0  0  0  0  0  0  0  0  0  0  0  0
  147.6710  135.4748  155.0697 C   0  0  0  0  0  0  0  0  0  0  0  0
  147.3111  134.2423  154.2337 C   0  0  0  0  0  0  0  0  0  0  0  0
  146.2419  134.5843  153.3634 O   0  0  0  0  0  0  0  0  0  0  0  0
  146.1066  133.7457  152.2233 C   0  0  1  0  0  0  0  0  0  0  0  0
  145.9698  132.2753  152.6755 C   0  0  0  0  0  0  0  0  0  0  0  0
  145.6732  131.3438  151.4913 C   0  0  0  0  0  0  0  0  0  0  0  0
  144.4183  131.7991  150.7343 C   0  0  0  0  0  0  0  0  0  0  0  0
  144.5546  133.2570  150.2707 C   0  0  0  0  0  0  0  0  0  0  0  0
  144.8503  134.2066  151.4490 C   0  0  2  0  0  0  0  0  0  0  0  0
  144.9844  135.6565  150.9554 C   0  0  0  0  0  0  0  0  0  0  0  0
  149.9802  137.4897  153.6128 H   0  0  0  0  0  0  0  0  0  0  0  0
  150.3502  137.6048  155.3297 H   0  0  0  0  0  0  0  0  0  0  0  0
  151.4867  138.2283  154.1379 H   0  0  0  0  0  0  0  0  0  0  0  0
  146.2965  141.7275  154.4831 H   0  0  0  0  0  0  0  0  0  0  0  0
  147.2001  142.5209  153.1916 H   0  0  0  0  0  0  0  0  0  0  0  0
  147.4383  143.0144  154.8698 H   0  0  0  0  0  0  0  0  0  0  0  0
  146.4368  139.4903  153.2649 H   0  0  0  0  0  0  0  0  0  0  0  0
  147.6653  138.5347  152.4839 H   0  0  0  0  0  0  0  0  0  0  0  0
  148.4062  136.6240  153.4570 H   0  0  0  0  0  0  0  0  0  0  0  0
  148.6266  135.3177  155.5727 H   0  0  0  0  0  0  0  0  0  0  0  0
  146.9192  135.6364  155.8431 H   0  0  0  0  0  0  0  0  0  0  0  0
  148.1754  133.9261  153.6481 H   0  0  0  0  0  0  0  0  0  0  0  0
  147.0405  133.4152  154.8901 H   0  0  0  0  0  0  0  0  0  0  0  0
  146.9765  133.8528  151.5722 H   0  0  0  0  0  0  0  0  0  0  0  0
  146.8779  131.9380  153.1738 H   0  0  0  0  0  0  0  0  0  0  0  0
  145.1677  132.1916  153.4096 H   0  0  0  0  0  0  0  0  0  0  0  0
  146.5272  131.3306  150.8129 H   0  0  0  0  0  0  0  0  0  0  0  0
  145.5428  130.3210  151.8460 H   0  0  0  0  0  0  0  0  0  0  0  0
  144.2458  131.1499  149.8755 H   0  0  0  0  0  0  0  0  0  0  0  0
  143.5442  131.6995  151.3792 H   0  0  0  0  0  0  0  0  0  0  0  0
  145.3526  133.3282  149.5303 H   0  0  0  0  0  0  0  0  0  0  0  0
  143.6381  133.5641  149.7655 H   0  0  0  0  0  0  0  0  0  0  0  0
  143.9984  134.1669  152.1299 H   0  0  0  0  0  0  0  0  0  0  0  0
  145.8315  135.7675  150.2778 H   0  0  0  0  0  0  0  0  0  0  0  0
  145.1302  136.3478  151.7858 H   0  0  0  0  0  0  0  0  0  0  0  0
  144.0879  135.9737  150.4223 H   0  0  0  0  0  0  0  0  0  0  0  0
  1  2  1  0  0  0  0
  1 22  1  0  0  0  0
  1 23  1  0  0  0  0
  1 24  1  0  0  0  0
  2  7  1  0  0  0  0
  2  3  2  0  0  0  0
  3  4  1  0  0  0  0
  4  5  1  0  0  0  0
  5  6  1  0  0  0  0
  5  7  2  0  0  0  0
  6 25  1  0  0  0  0
  6 26  1  0  0  0  0
  6 27  1  0  0  0  0
  7  8  1  0  0  0  0
  8  9  1  0  0  0  0
  8 28  1  0  0  0  0
  8 29  1  0  0  0  0
  9 10  2  0  0  0  0
  9 11  1  0  0  0  0
 11 12  1  0  0  0  0
 11 30  1  0  0  0  0
 12 13  1  0  0  0  0
 12 31  1  0  0  0  0
 12 32  1  0  0  0  0
 13 14  1  0  0  0  0
 13 33  1  0  0  0  0
 13 34  1  0  0  0  0
 14 15  1  0  0  0  0
 15 20  1  0  0  0  0
 15 16  1  0  0  0  0
 15 35  1  0  0  0  0
 16 17  1  0  0  0  0
 16 36  1  0  0  0  0
 16 37  1  0  0  0  0
 17 18  1  0  0  0  0
 17 38  1  0  0  0  0
 17 39  1  0  0  0  0
 18 19  1  0  0  0  0
 18 40  1  0  0  0  0
 18 41  1  0  0  0  0
 19 20  1  0  0  0  0
 19 42  1  0  0  0  0
 19 43  1  0  0  0  0
 20 21  1  0  0  0  0
 20 44  1  0  0  0  0
 21 45  1  0  0  0  0
 21 46  1  0  0  0  0
 21 47  1  0  0  0  0
M  END
> <s_m_source_file>
AV-unprocessed.smi

> <i_m_source_file_index>
1346

> <i_lp_mmshare_version>
43012

> <i_f3d_flags>
0

> <s_epik_input>
W0NIM11jMW5vYyhbQ0gzXSljMVtDSDJdQyg9TylbTkhdW0NIMl1bQ0gyXU9bQ0BASF0yW0NIMl1bQ0gyXVtDSDJdW0NIMl1bQ0BIXTJbQ0gzXQ==

> <s_epik_cmdline>
J2VwaWtfcHl0aG9uJywgJy1waCcsICc3LjAnLCAnLXRuJywgJzgnLCAnLW1hJywgJzIwMCcsICctbWV0YWxfYmluZGluZycsICctaW1hZScsICc8aW5maWxlLm1hZT4nLCAnLW9tYWUnLCAnPG91dGZpbGUubWFlPic=

> <r_lp_tautomer_probability>
1

> <r_epik_Ionization_Penalty>
3.26154e-08

> <r_epik_Ionization_Penalty_Charging>
0

> <r_epik_Ionization_Penalty_Neutral>
3.26154e-08

> <r_epik_State_Penalty>
-0

> <r_epik_Charging_Adjusted_Penalty>
0

> <i_epik_Tot_Q>
0

> <i_epik_Tot_abs_Q>
0

> <r_epik_Metal_State_Penalty>
-0

> <b_epik_Metal_Only>
0

> <s_lp_Force_Field>
OPLS_2005

> <r_lp_Energy>
4.3429

> <b_lp_Chiralities_Consistent>
1

> <s_lp_Variant>
AV-unprocessed.smi:1346-4

> <Gold.Version>
5.8.1

> <Gold.Id.Protein>
6NUR|6NUR_protein|mol2

> <Gold.PLP.Fitness>
42.1720

> <Gold.PLP.PLP>
-37.2920

> <Gold.PLP.part.hbond>
-2.7504

> <Gold.PLP.part.metal>
0.0000

> <Gold.PLP.part.buried>
-4.6702

> <Gold.PLP.part.nonpolar>
-30.2593

> <Gold.PLP.part.repulsive>
0.3758

> <Gold.PLP.ligand.clash>
0.0000

> <Gold.PLP.ligand.torsion>
0.5461

> <Gold.PLP.Chemscore.Hbond>
1.9760

> <Gold.PLP.Chemscore.CHOScore>
0.0000

> <Gold.PLP.Chemscore.Metal>
0.0000

> <Gold.Chemscore.Hbonds>
donor molecule, donor type, donor heavy atom, donor atom, acceptor molecule, acceptor atom, score
      L1  H    11    30       P1  7948  1.00
      P1  H  7989  7998       L1     3  0.99

> <Gold.PLP.Chemscore.Internal.Correction>
0.0443

> <Gold.Rescore>
     Score         DG    S(hbond)    S(metal)    S(lipo)     H(rot)  DE(clash)    DE(int)     intcor
     15.84     -16.55       1.36        0.00      93.89       1.74       0.17       0.55       ----

> <Gold.Chemscore.Fitness>
15.8376

> <Gold.Chemscore.DG>
-16.5539

> <Gold.Chemscore.ZeroCoef>
-5.4800

> <Gold.Chemscore.Hbond>
1.3564

> <Gold.Chemscore.Metal>
0.0000

> <Gold.Chemscore.Lipo>
93.8943

> <Gold.Chemscore.Internal_Hbond>
0.0000

> <Gold.Chemscore.DEClash>
0.1658

> <Gold.Chemscore.DEInternal>
0.5505

> <Gold.Chemscore.Rot>
1.7352

> <Gold.Chemscore.Internal.Correction>
   9.000000E+99

> <Gold.Chemscore.Hbonds>
donor molecule, donor type, donor heavy atom, donor atom, acceptor molecule, acceptor atom, score
      L1  H    11    30       P1  7948  0.99
      P1  H  7989  7998       L1     3  0.10

> <Gold.Chemscore.Hbond.Weighted>
-4.5303

> <Gold.Chemscore.Metal.Weighted>
-0.0000

> <Gold.Chemscore.Lipo.Weighted>
-10.9856

> <Gold.Chemscore.Internal_Hbond.Weighted>
0.0000

> <Gold.Chemscore.DEClash.Weighted>
0.1658

> <Gold.Chemscore.DEInternal.Weighted>
0.5505

> <Gold.Chemscore.Rot.Weighted>
4.4420

> <Gold.Chemscore.Internal.Correction.Weighted>
   9.000000E+99

> <Gold.Protein.RotatedTorsions>
[ 6907 6896 6895 6894 ] final   42.58 input  -60.11 | X-H torsion
[ 7974 7965 7964 7962 ] final  166.75 input  175.53 | X-H torsion
[ 8008 7997 7996 7995 ] final    2.58 input   59.86 | X-H torsion
[ 10167 10162 10161 10158 ] final -157.40 input  -65.29 | X-H torsion
[ 10718 10713 10712 10709 ] final  -28.96 input   66.30 | X-H torsion
[ 10763 10752 10751 10750 ] final  179.51 input  -60.55 | X-H torsion
[ 11005 11000 10999 10996 ] final   44.90 input  -57.11 | X-H torsion

> <Gold.Protein.ActiveResidues>
 VAL166  LYS551  ARG553  GLY616  TRP617  ASP618  TYR619  PRO620  LYS621  CYS622 
 ASP623  PHE694  ASN695  SER759  ASP760  ASP761  ALA762  ILE779  LEU786  VAL792 
 PHE793  MET794  SER795  GLU796  ALA797  LYS798  CYS799  TRP800  GLU811  SER814 

> <Gold.Protein.RotatedAtoms>
  152.2096  134.8513  160.0498 H   0  0  0  0  0  0  0  0  0  0  0  0  # atno 6907 bound_to 6896
  151.9337  133.3613  159.3948 H   0  0  0  0  0  0  0  0  0  0  0  0  # atno 6908 bound_to 6896
  150.6973  134.4436  159.5347 H   0  0  0  0  0  0  0  0  0  0  0  0  # atno 6909 bound_to 6896
  144.7450  139.8661  143.6385 H   0  0  0  0  0  0  0  0  0  0  0  0  # atno 7974 bound_to 7965
  154.6933  140.2657  155.6791 H   0  0  0  0  0  0  0  0  0  0  0  0  # atno 8008 bound_to 7997
  156.2739  140.2787  156.1442 H   0  0  0  0  0  0  0  0  0  0  0  0  # atno 8009 bound_to 7997
  155.0866  140.0373  157.2646 H   0  0  0  0  0  0  0  0  0  0  0  0  # atno 8010 bound_to 7997
  139.6774  143.9641  152.2318 H   0  0  0  0  0  0  0  0  0  0  0  0  # atno 10167 bound_to 10162
  156.4185  130.4422  149.7200 H   0  0  0  0  0  0  0  0  0  0  0  0  # atno 10718 bound_to 10713
  154.5216  135.2794  155.1257 H   0  0  0  0  0  0  0  0  0  0  0  0  # atno 10763 bound_to 10752
  154.2813  135.6285  153.5352 H   0  0  0  0  0  0  0  0  0  0  0  0  # atno 10764 bound_to 10752
  152.9938  135.5652  154.5706 H   0  0  0  0  0  0  0  0  0  0  0  0  # atno 10765 bound_to 10752
  140.1509  134.4463  155.8383 H   0  0  0  0  0  0  0  0  0  0  0  0  # atno 11005 bound_to 11000
  146.1313  139.4350  143.0166 LP  0  0  0  0  0  0  0  0  0  0  0  0  # atno 17320 bound_to 7965
  145.7158  141.0091  143.1429 LP  0  0  0  0  0  0  0  0  0  0  0  0  # atno 17321 bound_to 7965
  139.9421  144.6675  150.8256 LP  0  0  0  0  0  0  0  0  0  0  0  0  # atno 17342 bound_to 10162
  140.7640  143.3237  151.2563 LP  0  0  0  0  0  0  0  0  0  0  0  0  # atno 17343 bound_to 10162
  156.4151  130.7741  151.2756 LP  0  0  0  0  0  0  0  0  0  0  0  0  # atno 17370 bound_to 10713
  157.7508  131.0200  150.3689 LP  0  0  0  0  0  0  0  0  0  0  0  0  # atno 17371 bound_to 10713
  141.2199  133.6872  156.7419 LP  0  0  0  0  0  0  0  0  0  0  0  0  # atno 17394 bound_to 11000
  140.2606  134.8469  157.3755 LP  0  0  0  0  0  0  0  0  0  0  0  0  # atno 17395 bound_to 11000

$$$$
