AV-unprocessed.smi:2889|AV-procd|sdf|11110|dock6
  -GOLD-   2272015573D 1   1.00000     0.00000
 Structure written by MMmdl.
 36 37  0  0  0  0  0  0  0  0  1 V2000
  154.8435  140.3371  161.8217 C   0  0  0  0  0  0  0  0  0  0  0  0
  153.7096  140.3725  160.4072 S   0  0  0  0  0  0  0  0  0  0  0  0
  153.2774  142.1413  160.3499 C   0  0  2  0  0  0  0  0  0  0  0  0
  152.6980  142.6050  161.6996 C   0  0  0  0  0  0  0  0  0  0  0  0
  152.3326  144.0965  161.6803 C   0  0  0  0  0  0  0  0  0  0  0  0
  151.3428  144.4054  160.5491 C   0  0  0  0  0  0  0  0  0  0  0  0
  151.8987  143.9719  159.1826 C   0  0  0  0  0  0  0  0  0  0  0  0
  152.3402  142.4944  159.1683 C   0  0  2  0  0  0  0  0  0  0  0  0
  151.1684  141.6114  159.1350 N   0  0  0  0  0  0  0  0  0  0  0  0
  150.6727  140.9519  157.6211 S   0  0  0  0  0  0  0  0  0  0  0  0
  149.6421  139.9371  157.8911 O   0  0  0  0  0  0  0  0  0  0  0  0
  150.3757  142.0789  156.7240 O   0  0  0  0  0  0  0  0  0  0  0  0
  152.1981  140.1005  157.0386 C   0  0  0  0  0  0  0  0  0  0  0  0
  151.8402  139.0947  155.9820 C   0  0  0  0  0  0  0  0  0  0  0  0
  151.1198  139.2995  154.7726 C   0  0  0  0  0  0  0  0  0  0  0  0
  151.0892  138.0582  154.2055 C   0  0  0  0  0  0  0  0  0  0  0  0
  151.7294  137.1594  154.9951 O   0  0  0  0  0  0  0  0  0  0  0  0
  152.2044  137.8305  156.1277 N   0  0  0  0  0  0  0  0  0  0  0  0
  155.1528  139.3121  162.0243 H   0  0  0  0  0  0  0  0  0  0  0  0
  154.3557  140.7326  162.7125 H   0  0  0  0  0  0  0  0  0  0  0  0
  155.7367  140.9274  161.6206 H   0  0  0  0  0  0  0  0  0  0  0  0
  154.2138  142.6815  160.2039 H   0  0  0  0  0  0  0  0  0  0  0  0
  151.8119  142.0173  161.9432 H   0  0  0  0  0  0  0  0  0  0  0  0
  153.4188  142.4171  162.4962 H   0  0  0  0  0  0  0  0  0  0  0  0
  151.9010  144.3847  162.6391 H   0  0  0  0  0  0  0  0  0  0  0  0
  153.2353  144.6957  161.5545 H   0  0  0  0  0  0  0  0  0  0  0  0
  150.3993  143.8926  160.7400 H   0  0  0  0  0  0  0  0  0  0  0  0
  151.1152  145.4716  160.5354 H   0  0  0  0  0  0  0  0  0  0  0  0
  151.1632  144.1604  158.3996 H   0  0  0  0  0  0  0  0  0  0  0  0
  152.7595  144.5971  158.9424 H   0  0  0  0  0  0  0  0  0  0  0  0
  152.8970  142.3338  158.2449 H   0  0  0  0  0  0  0  0  0  0  0  0
  151.2484  140.8808  159.8423 H   0  0  0  0  0  0  0  0  0  0  0  0
  152.8864  140.8541  156.6548 H   0  0  0  0  0  0  0  0  0  0  0  0
  152.6731  139.6203  157.8939 H   0  0  0  0  0  0  0  0  0  0  0  0
  150.6973  140.2129  154.3815 H   0  0  0  0  0  0  0  0  0  0  0  0
  150.6696  137.6710  153.2889 H   0  0  0  0  0  0  0  0  0  0  0  0
  1  2  1  0  0  0  0
  1 19  1  0  0  0  0
  1 20  1  0  0  0  0
  1 21  1  0  0  0  0
  2  3  1  0  0  0  0
  3  8  1  0  0  0  0
  3  4  1  0  0  0  0
  3 22  1  0  0  0  0
  4  5  1  0  0  0  0
  4 23  1  0  0  0  0
  4 24  1  0  0  0  0
  5  6  1  0  0  0  0
  5 25  1  0  0  0  0
  5 26  1  0  0  0  0
  6  7  1  0  0  0  0
  6 27  1  0  0  0  0
  6 28  1  0  0  0  0
  7  8  1  0  0  0  0
  7 29  1  0  0  0  0
  7 30  1  0  0  0  0
  8  9  1  0  0  0  0
  8 31  1  0  0  0  0
  9 10  1  0  0  0  0
  9 32  1  0  0  0  0
 10 11  2  0  0  0  0
 10 12  2  0  0  0  0
 10 13  1  0  0  0  0
 13 14  1  0  0  0  0
 13 33  1  0  0  0  0
 13 34  1  0  0  0  0
 14 18  2  0  0  0  0
 14 15  1  0  0  0  0
 15 16  2  0  0  0  0
 15 35  1  0  0  0  0
 16 17  1  0  0  0  0
 16 36  1  0  0  0  0
 17 18  1  0  0  0  0
M  END
> <s_m_source_file>
AV-unprocessed.smi

> <i_m_source_file_index>
2889

> <i_lp_mmshare_version>
43012

> <i_f3d_flags>
0

> <s_epik_input>
W0NIM11TW0NAQEhdMVtDSDJdW0NIMl1bQ0gyXVtDSDJdW0NASF0xW05IXVMoPU8pKD1PKVtDSDJdYzJbY0hdW2NIXW9uMg==

> <s_epik_cmdline>
J2VwaWtfcHl0aG9uJywgJy1waCcsICc3LjAnLCAnLXRuJywgJzgnLCAnLW1hJywgJzIwMCcsICctbWV0YWxfYmluZGluZycsICctaW1hZScsICc8aW5maWxlLm1hZT4nLCAnLW9tYWUnLCAnPG91dGZpbGUubWFlPic=

> <r_lp_tautomer_probability>
1

> <r_epik_Ionization_Penalty>
0.000229547

> <r_epik_Ionization_Penalty_Charging>
0

> <r_epik_Ionization_Penalty_Neutral>
0.000229547

> <r_epik_State_Penalty>
-0

> <r_epik_Charging_Adjusted_Penalty>
0

> <i_epik_Tot_Q>
0

> <i_epik_Tot_abs_Q>
0

> <r_epik_Metal_State_Penalty>
0.145979

> <b_epik_Metal_Only>
0

> <s_lp_Force_Field>
OPLS_2005

> <r_lp_Energy>
4.93405

> <b_lp_Chiralities_Consistent>
1

> <s_lp_Variant>
AV-unprocessed.smi:2889-3

> <Gold.Version>
5.8.1

> <Gold.Id.Protein>
6NUR|6NUR_protein|mol2

> <Gold.PLP.Fitness>
45.7693

> <Gold.PLP.PLP>
-41.3253

> <Gold.PLP.part.hbond>
-1.1193

> <Gold.PLP.part.metal>
0.0000

> <Gold.PLP.part.buried>
-3.9296

> <Gold.PLP.part.nonpolar>
-35.9770

> <Gold.PLP.part.repulsive>
0.2191

> <Gold.PLP.ligand.clash>
0.0000

> <Gold.PLP.ligand.torsion>
1.0514

> <Gold.PLP.Chemscore.Hbond>
1.0000

> <Gold.PLP.Chemscore.CHOScore>
1.1243

> <Gold.PLP.Chemscore.Metal>
0.0000

> <Gold.Chemscore.Hbonds>
donor molecule, donor type, donor heavy atom, donor atom, acceptor molecule, acceptor atom, score
      P1  H 10752 10765       L1    17  1.00
      L1  C    16    36       P1  7948  0.42
      L1  C    16    36       P1  7949  0.71

> <Gold.PLP.Chemscore.Internal.Correction>
0.1740

> <Gold.Rescore>
     Score         DG    S(hbond)    S(metal)    S(lipo)     H(rot)  DE(clash)    DE(int)     intcor
     16.05     -17.18       0.90        0.00     113.76       1.81       0.03       1.10       ----

> <Gold.Chemscore.Fitness>
16.0518

> <Gold.Chemscore.DG>
-17.1846

> <Gold.Chemscore.ZeroCoef>
-5.4800

> <Gold.Chemscore.Hbond>
0.9034

> <Gold.Chemscore.Metal>
0.0000

> <Gold.Chemscore.Lipo>
113.7617

> <Gold.Chemscore.Internal_Hbond>
0.0000

> <Gold.Chemscore.DEClash>
0.0324

> <Gold.Chemscore.DEInternal>
1.1004

> <Gold.Chemscore.Rot>
1.8058

> <Gold.Chemscore.Internal.Correction>
   9.000000E+99

> <Gold.Chemscore.Hbonds>
donor molecule, donor type, donor heavy atom, donor atom, acceptor molecule, acceptor atom, score
      P1  H 10752 10765       L1    17  0.75

> <Gold.Chemscore.Hbond.Weighted>
-3.0173

> <Gold.Chemscore.Metal.Weighted>
-0.0000

> <Gold.Chemscore.Lipo.Weighted>
-13.3101

> <Gold.Chemscore.Internal_Hbond.Weighted>
0.0000

> <Gold.Chemscore.DEClash.Weighted>
0.0324

> <Gold.Chemscore.DEInternal.Weighted>
1.1004

> <Gold.Chemscore.Rot.Weighted>
4.6228

> <Gold.Chemscore.Internal.Correction.Weighted>
   9.000000E+99

> <Gold.Protein.RotatedTorsions>
[ 6907 6896 6895 6894 ] final  -57.96 input  -60.11 | X-H torsion
[ 7974 7965 7964 7962 ] final  138.29 input  175.53 | X-H torsion
[ 8008 7997 7996 7995 ] final   53.69 input   59.86 | X-H torsion
[ 10167 10162 10161 10158 ] final  121.54 input  -65.29 | X-H torsion
[ 10718 10713 10712 10709 ] final  -13.21 input   66.30 | X-H torsion
[ 10763 10752 10751 10750 ] final  169.51 input  -60.55 | X-H torsion
[ 11005 11000 10999 10996 ] final  162.07 input  -57.11 | X-H torsion

> <Gold.Protein.ActiveResidues>
 VAL166  LYS551  ARG553  GLY616  TRP617  ASP618  TYR619  PRO620  LYS621  CYS622 
 ASP623  PHE694  ASN695  SER759  ASP760  ASP761  ALA762  ILE779  LEU786  VAL792 
 PHE793  MET794  SER795  GLU796  ALA797  LYS798  CYS799  TRP800  GLU811  SER814 

> <Gold.Protein.RotatedAtoms>
  150.8044  134.7160  159.6630 H   0  0  0  0  0  0  0  0  0  0  0  0  # atno 6907 bound_to 6896
  152.4163  134.6032  160.0015 H   0  0  0  0  0  0  0  0  0  0  0  0  # atno 6908 bound_to 6896
  151.6260  133.3298  159.3134 H   0  0  0  0  0  0  0  0  0  0  0  0  # atno 6909 bound_to 6896
  144.9386  139.4958  143.5583 H   0  0  0  0  0  0  0  0  0  0  0  0  # atno 7974 bound_to 7965
  155.4725  140.3465  155.4328 H   0  0  0  0  0  0  0  0  0  0  0  0  # atno 8008 bound_to 7997
  156.1091  140.1456  156.9392 H   0  0  0  0  0  0  0  0  0  0  0  0  # atno 8009 bound_to 7997
  154.4744  140.0890  156.7205 H   0  0  0  0  0  0  0  0  0  0  0  0  # atno 8010 bound_to 7997
  139.5913  144.7026  151.3283 H   0  0  0  0  0  0  0  0  0  0  0  0  # atno 10167 bound_to 10162
  156.6335  130.4908  149.6120 H   0  0  0  0  0  0  0  0  0  0  0  0  # atno 10718 bound_to 10713
  154.3841  135.2753  155.2193 H   0  0  0  0  0  0  0  0  0  0  0  0  # atno 10763 bound_to 10752
  154.4287  135.5982  153.6059 H   0  0  0  0  0  0  0  0  0  0  0  0  # atno 10764 bound_to 10752
  152.9833  135.5990  154.4088 H   0  0  0  0  0  0  0  0  0  0  0  0  # atno 10765 bound_to 10752
  140.2220  134.8188  157.3230 H   0  0  0  0  0  0  0  0  0  0  0  0  # atno 11005 bound_to 11000
  146.3277  139.8389  142.8894 LP  0  0  0  0  0  0  0  0  0  0  0  0  # atno 17320 bound_to 7965
  145.3026  141.0198  143.3600 LP  0  0  0  0  0  0  0  0  0  0  0  0  # atno 17321 bound_to 7965
  140.7175  143.7226  150.7684 LP  0  0  0  0  0  0  0  0  0  0  0  0  # atno 17342 bound_to 10162
  140.0782  143.4994  152.2544 LP  0  0  0  0  0  0  0  0  0  0  0  0  # atno 17343 bound_to 10162
  156.2215  130.6740  151.1373 LP  0  0  0  0  0  0  0  0  0  0  0  0  # atno 17370 bound_to 10713
  157.7192  131.0691  150.6203 LP  0  0  0  0  0  0  0  0  0  0  0  0  # atno 17371 bound_to 10713
  140.1839  134.4455  155.7755 LP  0  0  0  0  0  0  0  0  0  0  0  0  # atno 17394 bound_to 11000
  141.2222  133.6996  156.7915 LP  0  0  0  0  0  0  0  0  0  0  0  0  # atno 17395 bound_to 11000

$$$$
