AV-unprocessed.smi:3338|AV-procd|sdf|12874|dock8
  -GOLD-   2272019273D 1   1.00000     0.00000
 Structure written by MMmdl.
 44 45  0  0  0  0  0  0  0  0  2 V2000
  151.2442  144.1523  160.5511 C   0  0  0  0  0  0  0  0  0  0  0  0
  152.3098  144.2359  159.4443 C   0  0  1  0  0  0  0  0  0  0  0  0
  153.5452  143.3639  159.7360 C   0  0  0  0  0  0  0  0  0  0  0  0
  153.2406  141.8747  159.5207 C   0  0  0  0  0  0  0  0  0  0  0  0
  152.6493  141.6281  158.1240 C   0  0  0  0  0  0  0  0  0  0  0  0
  151.4358  142.4561  157.9037 N   0  3  2  0  0  0  0  0  0  0  0  0
  150.7557  142.1289  156.6261 C   0  0  0  0  0  0  0  0  0  0  0  0
  150.2580  140.6711  156.5871 C   0  0  0  0  0  0  0  0  0  0  0  0
  151.2196  139.7977  155.9258 N   0  0  0  0  0  0  0  0  0  0  0  0
  151.2410  139.5398  154.6081 C   0  0  0  0  0  0  0  0  0  0  0  0
  150.4226  140.0184  153.8215 O   0  0  0  0  0  0  0  0  0  0  0  0
  152.3561  138.6028  154.1136 C   0  0  1  0  0  0  0  0  0  0  0  0
  153.7582  139.0354  154.5875 C   0  0  0  0  0  0  0  0  0  0  0  0
  152.0651  137.2203  154.4765 N   0  0  0  0  0  0  0  0  0  0  0  0
  150.9066  136.5068  154.2431 C   0  0  0  0  0  0  0  0  0  0  0  0
  151.0778  135.2602  154.7733 C   0  0  0  0  0  0  0  0  0  0  0  0
  152.3885  135.3043  155.3242 C   0  0  0  0  0  0  0  0  0  0  0  0
  152.9737  136.4783  155.1525 N   0  0  0  0  0  0  0  0  0  0  0  0
  151.7311  143.9076  158.0523 C   0  0  0  0  0  0  0  0  0  0  0  0
  150.8223  143.1510  160.6371 H   0  0  0  0  0  0  0  0  0  0  0  0
  150.4214  144.8399  160.3527 H   0  0  0  0  0  0  0  0  0  0  0  0
  151.6652  144.4195  161.5209 H   0  0  0  0  0  0  0  0  0  0  0  0
  152.6448  145.2737  159.4212 H   0  0  0  0  0  0  0  0  0  0  0  0
  154.3574  143.6594  159.0706 H   0  0  0  0  0  0  0  0  0  0  0  0
  153.9056  143.5346  160.7511 H   0  0  0  0  0  0  0  0  0  0  0  0
  154.1519  141.2889  159.6458 H   0  0  0  0  0  0  0  0  0  0  0  0
  152.5448  141.5221  160.2827 H   0  0  0  0  0  0  0  0  0  0  0  0
  153.3894  141.8516  157.3538 H   0  0  0  0  0  0  0  0  0  0  0  0
  152.3992  140.5708  158.0268 H   0  0  0  0  0  0  0  0  0  0  0  0
  149.9387  142.8326  156.4573 H   0  0  0  0  0  0  0  0  0  0  0  0
  151.4525  142.2660  155.7979 H   0  0  0  0  0  0  0  0  0  0  0  0
  150.1088  140.3034  157.6026 H   0  0  0  0  0  0  0  0  0  0  0  0
  149.2943  140.5880  156.0840 H   0  0  0  0  0  0  0  0  0  0  0  0
  151.9226  139.3640  156.5069 H   0  0  0  0  0  0  0  0  0  0  0  0
  152.3554  138.6559  153.0237 H   0  0  0  0  0  0  0  0  0  0  0  0
  153.9934  140.0454  154.2499 H   0  0  0  0  0  0  0  0  0  0  0  0
  154.5249  138.3717  154.1873 H   0  0  0  0  0  0  0  0  0  0  0  0
  153.8462  139.0205  155.6746 H   0  0  0  0  0  0  0  0  0  0  0  0
  150.0652  136.9401  153.7225 H   0  0  0  0  0  0  0  0  0  0  0  0
  150.3738  134.4413  154.7682 H   0  0  0  0  0  0  0  0  0  0  0  0
  152.9274  134.5248  155.8426 H   0  0  0  0  0  0  0  0  0  0  0  0
  150.8333  144.5023  157.8870 H   0  0  0  0  0  0  0  0  0  0  0  0
  152.4422  144.2055  157.2799 H   0  0  0  0  0  0  0  0  0  0  0  0
  150.7915  142.2087  158.6411 H   0  0  0  0  0  0  0  0  0  0  0  0
  1  2  1  0  0  0  0
  1 20  1  0  0  0  0
  1 21  1  0  0  0  0
  1 22  1  0  0  0  0
  2 19  1  0  0  0  0
  2  3  1  0  0  0  0
  2 23  1  0  0  0  0
  3  4  1  0  0  0  0
  3 24  1  0  0  0  0
  3 25  1  0  0  0  0
  4  5  1  0  0  0  0
  4 26  1  0  0  0  0
  4 27  1  0  0  0  0
  5  6  1  0  0  0  0
  5 28  1  0  0  0  0
  5 29  1  0  0  0  0
  6  7  1  0  0  0  0
  6 19  1  0  0  0  0
  6 44  1  0  0  0  0
  7  8  1  0  0  0  0
  7 30  1  0  0  0  0
  7 31  1  0  0  0  0
  8  9  1  0  0  0  0
  8 32  1  0  0  0  0
  8 33  1  0  0  0  0
  9 10  1  0  0  0  0
  9 34  1  0  0  0  0
 10 11  2  0  0  0  0
 10 12  1  0  0  0  0
 12 13  1  0  0  0  0
 12 14  1  0  0  0  0
 12 35  1  0  0  0  0
 13 36  1  0  0  0  0
 13 37  1  0  0  0  0
 13 38  1  0  0  0  0
 14 18  1  0  0  0  0
 14 15  1  0  0  0  0
 15 16  2  0  0  0  0
 15 39  1  0  0  0  0
 16 17  1  0  0  0  0
 16 40  1  0  0  0  0
 17 18  2  0  0  0  0
 17 41  1  0  0  0  0
 19 42  1  0  0  0  0
 19 43  1  0  0  0  0
M  CHG  1   6   1
M  END
> <s_m_source_file>
AV-unprocessed.smi

> <i_m_source_file_index>
3338

> <i_lp_mmshare_version>
43012

> <i_f3d_flags>
0

> <s_epik_input>
W0NIM11bQ0BASF0xW0NIMl1bQ0gyXVtDSDJdTihbQ0gyXTEpW0NIMl1bQ0gyXVtOSF1DKD1PKVtDQEhdKFtDSDNdKW4yW2NIXVtjSF1bY0hdbjI=

> <s_epik_cmdline>
J2VwaWtfcHl0aG9uJywgJy1waCcsICc3LjAnLCAnLXRuJywgJzgnLCAnLW1hJywgJzIwMCcsICctbWV0YWxfYmluZGluZycsICctaW1hZScsICc8aW5maWxlLm1hZT4nLCAnLW9tYWUnLCAnPG91dGZpbGUubWFlPic=

> <r_lp_tautomer_probability>
1

> <r_epik_Ionization_Penalty>
0.00225707

> <r_epik_Ionization_Penalty_Charging>
0.00223709

> <r_epik_Ionization_Penalty_Neutral>
1.99775e-05

> <r_epik_State_Penalty>
0.00153978

> <r_epik_Charging_Adjusted_Penalty>
0.00377687

> <i_epik_Tot_Q>
1

> <i_epik_Tot_abs_Q>
1

> <r_epik_Metal_State_Penalty>
-0

> <b_epik_Metal_Only>
0

> <s_lp_Force_Field>
OPLS_2005

> <r_lp_Energy>
22.3922

> <b_lp_Chiralities_Consistent>
1

> <s_lp_Variant>
AV-unprocessed.smi:3338-6

> <Gold.Version>
5.8.1

> <Gold.Id.Protein>
6NUR|6NUR_protein|mol2

> <Gold.PLP.Fitness>
45.8601

> <Gold.PLP.PLP>
-39.1775

> <Gold.PLP.part.hbond>
-2.0000

> <Gold.PLP.part.metal>
0.0000

> <Gold.PLP.part.buried>
-2.1906

> <Gold.PLP.part.nonpolar>
-36.1491

> <Gold.PLP.part.repulsive>
1.1240

> <Gold.PLP.ligand.clash>
0.0000

> <Gold.PLP.ligand.torsion>
0.7509

> <Gold.PLP.Chemscore.Hbond>
1.6880

> <Gold.PLP.Chemscore.CHOScore>
0.9997

> <Gold.PLP.Chemscore.Metal>
0.0000

> <Gold.Chemscore.Hbonds>
donor molecule, donor type, donor heavy atom, donor atom, acceptor molecule, acceptor atom, score
      P1  H  7989  7998       L1    11  0.04
      L1  C    15    39       P1  7948  0.99
      L1  C    15    39       P1  7949  0.01

> <Gold.PLP.Chemscore.Internal.Correction>
0.1212

> <Gold.Rescore>
     Score         DG    S(hbond)    S(metal)    S(lipo)     H(rot)  DE(clash)    DE(int)     intcor
     15.98     -16.71       0.98        0.00     106.36       1.76       0.01       0.72       ----

> <Gold.Chemscore.Fitness>
15.9848

> <Gold.Chemscore.DG>
-16.7096

> <Gold.Chemscore.ZeroCoef>
-5.4800

> <Gold.Chemscore.Hbond>
0.9831

> <Gold.Chemscore.Metal>
0.0000

> <Gold.Chemscore.Lipo>
106.3590

> <Gold.Chemscore.Internal_Hbond>
0.0000

> <Gold.Chemscore.DEClash>
0.0098

> <Gold.Chemscore.DEInternal>
0.7151

> <Gold.Chemscore.Rot>
1.7570

> <Gold.Chemscore.Internal.Correction>
   9.000000E+99

> <Gold.Chemscore.Hbond.Weighted>
-3.2835

> <Gold.Chemscore.Metal.Weighted>
-0.0000

> <Gold.Chemscore.Lipo.Weighted>
-12.4440

> <Gold.Chemscore.Internal_Hbond.Weighted>
0.0000

> <Gold.Chemscore.DEClash.Weighted>
0.0098

> <Gold.Chemscore.DEInternal.Weighted>
0.7151

> <Gold.Chemscore.Rot.Weighted>
4.4979

> <Gold.Chemscore.Internal.Correction.Weighted>
   9.000000E+99

> <Gold.Protein.RotatedTorsions>
[ 6907 6896 6895 6894 ] final    7.44 input  -60.11 | X-H torsion
[ 7974 7965 7964 7962 ] final  -93.60 input  175.53 | X-H torsion
[ 8008 7997 7996 7995 ] final -126.40 input   59.86 | X-H torsion
[ 10167 10162 10161 10158 ] final   65.96 input  -65.29 | X-H torsion
[ 10718 10713 10712 10709 ] final   15.23 input   66.30 | X-H torsion
[ 10763 10752 10751 10750 ] final    4.94 input  -60.55 | X-H torsion
[ 11005 11000 10999 10996 ] final  -68.43 input  -57.11 | X-H torsion

> <Gold.Protein.ActiveResidues>
 VAL166  LYS551  ARG553  GLY616  TRP617  ASP618  TYR619  PRO620  LYS621  CYS622 
 ASP623  PHE694  ASN695  SER759  ASP760  ASP761  ALA762  ILE779  LEU786  VAL792 
 PHE793  MET794  SER795  GLU796  ALA797  LYS798  CYS799  TRP800  GLU811  SER814 

> <Gold.Protein.RotatedAtoms>
  151.6899  135.0948  160.0231 H   0  0  0  0  0  0  0  0  0  0  0  0  # atno 6907 bound_to 6896
  152.3785  133.6509  159.6150 H   0  0  0  0  0  0  0  0  0  0  0  0  # atno 6908 bound_to 6896
  150.7728  133.9070  159.3399 H   0  0  0  0  0  0  0  0  0  0  0  0  # atno 6909 bound_to 6896
  145.3844  140.9521  143.2375 H   0  0  0  0  0  0  0  0  0  0  0  0  # atno 7974 bound_to 7965
  155.2292  140.0424  157.2959 H   0  0  0  0  0  0  0  0  0  0  0  0  # atno 8008 bound_to 7997
  154.5900  140.2424  155.7905 H   0  0  0  0  0  0  0  0  0  0  0  0  # atno 8009 bound_to 7997
  156.2252  140.2957  156.0058 H   0  0  0  0  0  0  0  0  0  0  0  0  # atno 8010 bound_to 7997
  140.1056  144.4865  150.7010 H   0  0  0  0  0  0  0  0  0  0  0  0  # atno 10167 bound_to 10162
  157.0505  130.6268  149.5767 H   0  0  0  0  0  0  0  0  0  0  0  0  # atno 10718 bound_to 10713
  153.2652  135.6927  153.7537 H   0  0  0  0  0  0  0  0  0  0  0  0  # atno 10763 bound_to 10752
  153.6580  135.3365  155.3120 H   0  0  0  0  0  0  0  0  0  0  0  0  # atno 10764 bound_to 10752
  154.8445  135.4470  154.1657 H   0  0  0  0  0  0  0  0  0  0  0  0  # atno 10765 bound_to 10752
  141.1531  133.6740  156.6444 H   0  0  0  0  0  0  0  0  0  0  0  0  # atno 11005 bound_to 11000
  144.8484  139.5360  143.6867 LP  0  0  0  0  0  0  0  0  0  0  0  0  # atno 17320 bound_to 7965
  146.2827  139.6920  142.9217 LP  0  0  0  0  0  0  0  0  0  0  0  0  # atno 17321 bound_to 7965
  140.6954  143.2400  151.5015 LP  0  0  0  0  0  0  0  0  0  0  0  0  # atno 17342 bound_to 10162
  139.5647  144.2071  152.1746 LP  0  0  0  0  0  0  0  0  0  0  0  0  # atno 17343 bound_to 10162
  156.0009  130.5088  150.7659 LP  0  0  0  0  0  0  0  0  0  0  0  0  # atno 17370 bound_to 10713
  157.5034  131.0920  151.0287 LP  0  0  0  0  0  0  0  0  0  0  0  0  # atno 17371 bound_to 10713
  140.3368  134.7882  157.4368 LP  0  0  0  0  0  0  0  0  0  0  0  0  # atno 17394 bound_to 11000
  140.0971  134.5523  155.8388 LP  0  0  0  0  0  0  0  0  0  0  0  0  # atno 17395 bound_to 11000

$$$$
