AV-unprocessed.smi:3270|AV-procd|sdf|12512|dock5
  -GOLD-   2272018423D 1   1.00000     0.00000
 Structure written by MMmdl.
 38 39  0  0  0  0  0  0  0  0  1 V2000
  147.3714  139.4884  153.5141 C   0  0  0  0  0  0  0  0  0  0  0  0
  147.7477  140.9409  153.8734 C   0  0  2  0  0  0  0  0  0  0  0  0
  149.0687  141.0370  154.6533 C   0  0  0  0  0  0  0  0  0  0  0  0
  150.0327  140.3342  154.3472 O   0  0  0  0  0  0  0  0  0  0  0  0
  149.0977  141.9182  155.6659 N   0  0  0  0  0  0  0  0  0  0  0  0
  150.2384  142.1513  156.5428 C   0  0  0  0  0  0  0  0  0  0  0  0
  149.8780  141.8909  158.0177 C   0  0  0  0  0  0  0  0  0  0  0  0
  150.8082  142.4631  158.9898 N   0  0  0  0  0  0  0  0  0  0  0  0
  152.0818  141.7508  158.9748 C   0  0  0  0  0  0  0  0  0  0  0  0
  153.0810  142.3340  159.9889 C   0  0  0  0  0  0  0  0  0  0  0  0
  153.2753  143.7190  159.7229 O   0  0  0  0  0  0  0  0  0  0  0  0
  152.0620  144.4620  159.7746 C   0  0  0  0  0  0  0  0  0  0  0  0
  151.0571  143.8850  158.7617 C   0  0  0  0  0  0  0  0  0  0  0  0
  146.6831  141.6271  154.5968 N   0  0  0  0  0  0  0  0  0  0  0  0
  145.9094  142.6850  154.1635 C   0  0  0  0  0  0  0  0  0  0  0  0
  145.0715  143.0283  155.1853 C   0  0  0  0  0  0  0  0  0  0  0  0
  145.4180  142.1215  156.2247 C   0  0  0  0  0  0  0  0  0  0  0  0
  146.3866  141.2917  155.8743 N   0  0  0  0  0  0  0  0  0  0  0  0
  148.1578  139.0131  152.9270 H   0  0  0  0  0  0  0  0  0  0  0  0
  146.4586  139.4604  152.9185 H   0  0  0  0  0  0  0  0  0  0  0  0
  147.2056  138.8743  154.4005 H   0  0  0  0  0  0  0  0  0  0  0  0
  147.8888  141.4747  152.9320 H   0  0  0  0  0  0  0  0  0  0  0  0
  148.2641  142.4570  155.8501 H   0  0  0  0  0  0  0  0  0  0  0  0
  151.0360  141.4857  156.2150 H   0  0  0  0  0  0  0  0  0  0  0  0
  150.6078  143.1700  156.4134 H   0  0  0  0  0  0  0  0  0  0  0  0
  148.8875  142.3105  158.1987 H   0  0  0  0  0  0  0  0  0  0  0  0
  149.7826  140.8173  158.1869 H   0  0  0  0  0  0  0  0  0  0  0  0
  151.9183  140.6961  159.1989 H   0  0  0  0  0  0  0  0  0  0  0  0
  152.5181  141.7932  157.9756 H   0  0  0  0  0  0  0  0  0  0  0  0
  152.7197  142.1987  161.0094 H   0  0  0  0  0  0  0  0  0  0  0  0
  154.0391  141.8191  159.9169 H   0  0  0  0  0  0  0  0  0  0  0  0
  151.6518  144.4311  160.7853 H   0  0  0  0  0  0  0  0  0  0  0  0
  152.2732  145.5066  159.5462 H   0  0  0  0  0  0  0  0  0  0  0  0
  151.4367  144.0371  157.7501 H   0  0  0  0  0  0  0  0  0  0  0  0
  150.1285  144.4496  158.8362 H   0  0  0  0  0  0  0  0  0  0  0  0
  146.0187  143.1022  153.1734 H   0  0  0  0  0  0  0  0  0  0  0  0
  144.3276  143.8111  155.1914 H   0  0  0  0  0  0  0  0  0  0  0  0
  145.0009  142.0450  157.2178 H   0  0  0  0  0  0  0  0  0  0  0  0
  1  2  1  0  0  0  0
  1 19  1  0  0  0  0
  1 20  1  0  0  0  0
  1 21  1  0  0  0  0
  2  3  1  0  0  0  0
  2 14  1  0  0  0  0
  2 22  1  0  0  0  0
  3  4  2  0  0  0  0
  3  5  1  0  0  0  0
  5  6  1  0  0  0  0
  5 23  1  0  0  0  0
  6  7  1  0  0  0  0
  6 24  1  0  0  0  0
  6 25  1  0  0  0  0
  7  8  1  0  0  0  0
  7 26  1  0  0  0  0
  7 27  1  0  0  0  0
  8 13  1  0  0  0  0
  8  9  1  0  0  0  0
  9 10  1  0  0  0  0
  9 28  1  0  0  0  0
  9 29  1  0  0  0  0
 10 11  1  0  0  0  0
 10 30  1  0  0  0  0
 10 31  1  0  0  0  0
 11 12  1  0  0  0  0
 12 13  1  0  0  0  0
 12 32  1  0  0  0  0
 12 33  1  0  0  0  0
 13 34  1  0  0  0  0
 13 35  1  0  0  0  0
 14 18  1  0  0  0  0
 14 15  1  0  0  0  0
 15 16  2  0  0  0  0
 15 36  1  0  0  0  0
 16 17  1  0  0  0  0
 16 37  1  0  0  0  0
 17 18  2  0  0  0  0
 17 38  1  0  0  0  0
M  END
> <s_m_source_file>
AV-unprocessed.smi

> <i_m_source_file_index>
3270

> <i_lp_mmshare_version>
43012

> <i_f3d_flags>
0

> <s_epik_input>
bjFbY0hdW2NIXVtjSF1uMVtDQEhdKFtDSDNdKUMoPU8pW05IXVtDSDJdW0NIMl1OMltDSDJdW0NIMl1PW0NIMl1bQ0gyXTI=

> <s_epik_cmdline>
J2VwaWtfcHl0aG9uJywgJy1waCcsICc3LjAnLCAnLXRuJywgJzgnLCAnLW1hJywgJzIwMCcsICctbWV0YWxfYmluZGluZycsICctaW1hZScsICc8aW5maWxlLm1hZT4nLCAnLW9tYWUnLCAnPG91dGZpbGUubWFlPic=

> <r_lp_tautomer_probability>
1

> <r_epik_Ionization_Penalty>
0.203323

> <r_epik_Ionization_Penalty_Charging>
0

> <r_epik_Ionization_Penalty_Neutral>
0.203323

> <r_epik_State_Penalty>
0.193192

> <r_epik_Charging_Adjusted_Penalty>
0.193192

> <i_epik_Tot_Q>
0

> <i_epik_Tot_abs_Q>
0

> <r_epik_Metal_State_Penalty>
0.193187

> <b_epik_Metal_Only>
0

> <s_lp_Force_Field>
OPLS_2005

> <r_lp_Energy>
25.3297

> <b_lp_Chiralities_Consistent>
1

> <s_lp_Variant>
AV-unprocessed.smi:3270-1

> <Gold.Version>
5.8.1

> <Gold.Id.Protein>
6NUR|6NUR_protein|mol2

> <Gold.PLP.Fitness>
41.8785

> <Gold.PLP.PLP>
-39.2823

> <Gold.PLP.part.hbond>
-2.0000

> <Gold.PLP.part.metal>
0.0000

> <Gold.PLP.part.buried>
-4.1285

> <Gold.PLP.part.nonpolar>
-32.8850

> <Gold.PLP.part.repulsive>
0.4051

> <Gold.PLP.ligand.clash>
0.0000

> <Gold.PLP.ligand.torsion>
0.6215

> <Gold.PLP.Chemscore.Hbond>
1.2411

> <Gold.PLP.Chemscore.CHOScore>
0.0000

> <Gold.PLP.Chemscore.Metal>
0.0000

> <Gold.Chemscore.Hbonds>
donor molecule, donor type, donor heavy atom, donor atom, acceptor molecule, acceptor atom, score
      L1  H     5    23       P1  8028  0.03
      P1  H  7989  7998       L1     4  0.91

> <Gold.PLP.Chemscore.Internal.Correction>
0.1162

> <Gold.Rescore>
     Score         DG    S(hbond)    S(metal)    S(lipo)     H(rot)  DE(clash)    DE(int)     intcor
     13.35     -14.82       1.23        0.00      84.85       1.83       0.61       0.86       ----

> <Gold.Chemscore.Fitness>
13.3520

> <Gold.Chemscore.DG>
-14.8207

> <Gold.Chemscore.ZeroCoef>
-5.4800

> <Gold.Chemscore.Hbond>
1.2260

> <Gold.Chemscore.Metal>
0.0000

> <Gold.Chemscore.Lipo>
84.8544

> <Gold.Chemscore.Internal_Hbond>
0.0000

> <Gold.Chemscore.DEClash>
0.6054

> <Gold.Chemscore.DEInternal>
0.8632

> <Gold.Chemscore.Rot>
1.8290

> <Gold.Chemscore.Internal.Correction>
   9.000000E+99

> <Gold.Chemscore.Hbonds>
donor molecule, donor type, donor heavy atom, donor atom, acceptor molecule, acceptor atom, score
      L1  H     5    23       P1  8028  0.03
      P1  H  7989  7998       L1     4  0.89

> <Gold.Chemscore.Hbond.Weighted>
-4.0949

> <Gold.Chemscore.Metal.Weighted>
-0.0000

> <Gold.Chemscore.Lipo.Weighted>
-9.9280

> <Gold.Chemscore.Internal_Hbond.Weighted>
0.0000

> <Gold.Chemscore.DEClash.Weighted>
0.6054

> <Gold.Chemscore.DEInternal.Weighted>
0.8632

> <Gold.Chemscore.Rot.Weighted>
4.6821

> <Gold.Chemscore.Internal.Correction.Weighted>
   9.000000E+99

> <Gold.Protein.RotatedTorsions>
[ 6907 6896 6895 6894 ] final -119.20 input  -60.11 | X-H torsion
[ 7974 7965 7964 7962 ] final  -14.46 input  175.53 | X-H torsion
[ 8008 7997 7996 7995 ] final -152.55 input   59.86 | X-H torsion
[ 10167 10162 10161 10158 ] final  -99.42 input  -65.29 | X-H torsion
[ 10718 10713 10712 10709 ] final -156.57 input   66.30 | X-H torsion
[ 10763 10752 10751 10750 ] final  145.33 input  -60.55 | X-H torsion
[ 11005 11000 10999 10996 ] final -175.80 input  -57.11 | X-H torsion

> <Gold.Protein.ActiveResidues>
 VAL166  LYS551  ARG553  GLY616  TRP617  ASP618  TYR619  PRO620  LYS621  CYS622 
 ASP623  PHE694  ASN695  SER759  ASP760  ASP761  ALA762  ILE779  LEU786  VAL792 
 PHE793  MET794  SER795  GLU796  ALA797  LYS798  CYS799  TRP800  GLU811  SER814 

> <Gold.Protein.RotatedAtoms>
  150.8285  133.8131  159.3108 H   0  0  0  0  0  0  0  0  0  0  0  0  # atno 6907 bound_to 6896
  151.5868  135.1054  160.0039 H   0  0  0  0  0  0  0  0  0  0  0  0  # atno 6908 bound_to 6896
  152.4367  133.7333  159.6656 H   0  0  0  0  0  0  0  0  0  0  0  0  # atno 6909 bound_to 6896
  146.2073  140.3351  142.8402 H   0  0  0  0  0  0  0  0  0  0  0  0  # atno 7974 bound_to 7965
  155.6569  140.0718  157.2568 H   0  0  0  0  0  0  0  0  0  0  0  0  # atno 8008 bound_to 7997
  154.4150  140.1723  156.1784 H   0  0  0  0  0  0  0  0  0  0  0  0  # atno 8009 bound_to 7997
  155.9730  140.3360  155.6596 H   0  0  0  0  0  0  0  0  0  0  0  0  # atno 8010 bound_to 7997
  140.2626  143.3397  152.0611 H   0  0  0  0  0  0  0  0  0  0  0  0  # atno 10167 bound_to 10162
  156.5284  130.8509  151.2707 H   0  0  0  0  0  0  0  0  0  0  0  0  # atno 10718 bound_to 10713
  154.0035  135.2921  155.3400 H   0  0  0  0  0  0  0  0  0  0  0  0  # atno 10763 bound_to 10752
  154.7145  135.5135  153.8720 H   0  0  0  0  0  0  0  0  0  0  0  0  # atno 10764 bound_to 10752
  153.0755  135.6662  154.0274 H   0  0  0  0  0  0  0  0  0  0  0  0  # atno 10765 bound_to 10752
  140.4593  134.6270  157.4835 H   0  0  0  0  0  0  0  0  0  0  0  0  # atno 11005 bound_to 11000
  144.8825  140.7419  143.5978 LP  0  0  0  0  0  0  0  0  0  0  0  0  # atno 17320 bound_to 7965
  145.3271  139.1770  143.4556 LP  0  0  0  0  0  0  0  0  0  0  0  0  # atno 17321 bound_to 7965
  139.5012  144.6709  151.6246 LP  0  0  0  0  0  0  0  0  0  0  0  0  # atno 17342 bound_to 10162
  140.5953  143.9706  150.6351 LP  0  0  0  0  0  0  0  0  0  0  0  0  # atno 17343 bound_to 10162
  157.7426  130.9893  150.2526 LP  0  0  0  0  0  0  0  0  0  0  0  0  # atno 17370 bound_to 10713
  156.3083  130.3768  149.7685 LP  0  0  0  0  0  0  0  0  0  0  0  0  # atno 17371 bound_to 10713
  139.9956  134.6917  155.9616 LP  0  0  0  0  0  0  0  0  0  0  0  0  # atno 17394 bound_to 11000
  141.1629  133.6538  156.4378 LP  0  0  0  0  0  0  0  0  0  0  0  0  # atno 17395 bound_to 11000

$$$$
