AV-unprocessed.smi:1840|AV-procd|sdf|7491|dock10
  -GOLD-   22720 9193D 1   1.00000     0.00000
 Structure written by MMmdl.
 43 44  0  0  0  0  0  0  0  0  1 V2000
  151.1837  136.0238  156.1364 C   0  0  0  0  0  0  0  0  0  0  0  0
  150.1667  136.9723  155.4874 C   0  0  1  0  0  0  0  0  0  0  0  0
  150.8663  138.1671  154.8027 C   0  0  0  0  0  0  0  0  0  0  0  0
  149.9831  139.3063  154.6208 N   0  0  0  0  0  0  0  0  0  0  0  0
  148.6971  139.3225  154.1216 C   0  0  0  0  0  0  0  0  0  0  0  0
  148.2590  140.6146  154.1693 C   0  0  0  0  0  0  0  0  0  0  0  0
  149.3647  141.3256  154.7137 C   0  0  0  0  0  0  0  0  0  0  0  0
  150.3965  140.5406  154.9795 N   0  0  0  0  0  0  0  0  0  0  0  0
  149.3654  136.2240  154.5197 N   0  0  0  0  0  0  0  0  0  0  0  0
  148.1742  135.6605  154.7678 C   0  0  0  0  0  0  0  0  0  0  0  0
  147.6424  135.6207  155.8773 O   0  0  0  0  0  0  0  0  0  0  0  0
  147.6098  135.1881  153.6487 N   0  0  0  0  0  0  0  0  0  0  0  0
  146.2657  134.6174  153.5541 C   0  0  1  0  0  0  0  0  0  0  0  0
  145.2048  135.7238  153.3513 C   0  0  0  0  0  0  0  0  0  0  0  0
  145.3150  136.3840  151.9668 C   0  0  0  0  0  0  0  0  0  0  0  0
  145.2327  135.3360  150.8472 C   0  0  0  0  0  0  0  0  0  0  0  0
  146.2901  134.2348  151.0297 C   0  0  0  0  0  0  0  0  0  0  0  0
  146.1862  133.5678  152.4179 C   0  0  1  0  0  0  0  0  0  0  0  0
  147.2135  132.4339  152.5792 C   0  0  0  0  0  0  0  0  0  0  0  0
  151.7818  136.5441  156.8850 H   0  0  0  0  0  0  0  0  0  0  0  0
  151.8671  135.6056  155.3966 H   0  0  0  0  0  0  0  0  0  0  0  0
  150.6829  135.1935  156.6358 H   0  0  0  0  0  0  0  0  0  0  0  0
  149.5264  137.3528  156.2854 H   0  0  0  0  0  0  0  0  0  0  0  0
  151.7219  138.4928  155.3963 H   0  0  0  0  0  0  0  0  0  0  0  0
  151.2591  137.8729  153.8285 H   0  0  0  0  0  0  0  0  0  0  0  0
  148.2025  138.4218  153.7894 H   0  0  0  0  0  0  0  0  0  0  0  0
  147.2947  140.9936  153.8653 H   0  0  0  0  0  0  0  0  0  0  0  0
  149.4474  142.3820  154.9232 H   0  0  0  0  0  0  0  0  0  0  0  0
  149.7134  136.1940  153.5727 H   0  0  0  0  0  0  0  0  0  0  0  0
  148.1271  135.2688  152.7857 H   0  0  0  0  0  0  0  0  0  0  0  0
  146.0532  134.1090  154.4965 H   0  0  0  0  0  0  0  0  0  0  0  0
  144.2108  135.2878  153.4589 H   0  0  0  0  0  0  0  0  0  0  0  0
  145.2822  136.4826  154.1310 H   0  0  0  0  0  0  0  0  0  0  0  0
  144.5215  137.1216  151.8440 H   0  0  0  0  0  0  0  0  0  0  0  0
  146.2559  136.9308  151.8915 H   0  0  0  0  0  0  0  0  0  0  0  0
  144.2382  134.8881  150.8401 H   0  0  0  0  0  0  0  0  0  0  0  0
  145.3612  135.8176  149.8774 H   0  0  0  0  0  0  0  0  0  0  0  0
  146.1692  133.4847  150.2475 H   0  0  0  0  0  0  0  0  0  0  0  0
  147.2853  134.6600  150.8933 H   0  0  0  0  0  0  0  0  0  0  0  0
  145.1997  133.1054  152.4793 H   0  0  0  0  0  0  0  0  0  0  0  0
  148.2369  132.7963  152.4778 H   0  0  0  0  0  0  0  0  0  0  0  0
  147.0631  131.6614  151.8247 H   0  0  0  0  0  0  0  0  0  0  0  0
  147.1228  131.9598  153.5568 H   0  0  0  0  0  0  0  0  0  0  0  0
  1  2  1  0  0  0  0
  1 20  1  0  0  0  0
  1 21  1  0  0  0  0
  1 22  1  0  0  0  0
  2  3  1  0  0  0  0
  2  9  1  0  0  0  0
  2 23  1  0  0  0  0
  3  4  1  0  0  0  0
  3 24  1  0  0  0  0
  3 25  1  0  0  0  0
  4  8  1  0  0  0  0
  4  5  1  0  0  0  0
  5  6  2  0  0  0  0
  5 26  1  0  0  0  0
  6  7  1  0  0  0  0
  6 27  1  0  0  0  0
  7  8  2  0  0  0  0
  7 28  1  0  0  0  0
  9 10  1  0  0  0  0
  9 29  1  0  0  0  0
 10 11  2  0  0  0  0
 10 12  1  0  0  0  0
 12 13  1  0  0  0  0
 12 30  1  0  0  0  0
 13 18  1  0  0  0  0
 13 14  1  0  0  0  0
 13 31  1  0  0  0  0
 14 15  1  0  0  0  0
 14 32  1  0  0  0  0
 14 33  1  0  0  0  0
 15 16  1  0  0  0  0
 15 34  1  0  0  0  0
 15 35  1  0  0  0  0
 16 17  1  0  0  0  0
 16 36  1  0  0  0  0
 16 37  1  0  0  0  0
 17 18  1  0  0  0  0
 17 38  1  0  0  0  0
 17 39  1  0  0  0  0
 18 19  1  0  0  0  0
 18 40  1  0  0  0  0
 19 41  1  0  0  0  0
 19 42  1  0  0  0  0
 19 43  1  0  0  0  0
M  END
> <s_m_source_file>
AV-unprocessed.smi

> <i_m_source_file_index>
1840

> <i_lp_mmshare_version>
43012

> <i_f3d_flags>
0

> <s_epik_input>
bjFbY0hdW2NIXVtjSF1uMVtDSDJdW0NAQEhdKFtDSDNdKVtOSF1DKD1PKVtOSF1bQ0BASF0yW0NIMl1bQ0gyXVtDSDJdW0NIMl1bQ0BIXTJbQ0gzXQ==

> <s_epik_cmdline>
J2VwaWtfcHl0aG9uJywgJy1waCcsICc3LjAnLCAnLXRuJywgJzgnLCAnLW1hJywgJzIwMCcsICctbWV0YWxfYmluZGluZycsICctaW1hZScsICc8aW5maWxlLm1hZT4nLCAnLW9tYWUnLCAnPG91dGZpbGUubWFlPic=

> <r_lp_tautomer_probability>
1

> <r_epik_Ionization_Penalty>
7.38659e-05

> <r_epik_Ionization_Penalty_Charging>
0

> <r_epik_Ionization_Penalty_Neutral>
7.38659e-05

> <r_epik_State_Penalty>
-0

> <r_epik_Charging_Adjusted_Penalty>
0

> <i_epik_Tot_Q>
0

> <i_epik_Tot_abs_Q>
0

> <r_epik_Metal_State_Penalty>
-0

> <b_epik_Metal_Only>
0

> <s_lp_Force_Field>
OPLS_2005

> <r_lp_Energy>
6.83703

> <b_lp_Chiralities_Consistent>
1

> <s_lp_Variant>
AV-unprocessed.smi:1840-4

> <Gold.Version>
5.8.1

> <Gold.Id.Protein>
6NUR|6NUR_protein|mol2

> <Gold.PLP.Fitness>
39.6240

> <Gold.PLP.PLP>
-30.3713

> <Gold.PLP.part.hbond>
-2.8169

> <Gold.PLP.part.metal>
0.0000

> <Gold.PLP.part.buried>
-2.1043

> <Gold.PLP.part.nonpolar>
-25.3579

> <Gold.PLP.part.repulsive>
0.1309

> <Gold.PLP.ligand.clash>
0.0000

> <Gold.PLP.ligand.torsion>
1.0380

> <Gold.PLP.Chemscore.Hbond>
2.7680

> <Gold.PLP.Chemscore.CHOScore>
1.0000

> <Gold.PLP.Chemscore.Metal>
0.0000

> <Gold.Chemscore.Hbonds>
donor molecule, donor type, donor heavy atom, donor atom, acceptor molecule, acceptor atom, score
      L1  H     9    29       P1  7948  0.75
      L1  H    12    30       P1  7948  0.94
      P1  H  7989  7998       L1     8  0.93
      L1  C     7    28       P1  8028  1.00

> <Gold.PLP.Chemscore.Internal.Correction>
0.0246

> <Gold.Rescore>
     Score         DG    S(hbond)    S(metal)    S(lipo)     H(rot)  DE(clash)    DE(int)     intcor
     15.95     -17.15       2.45        0.00      63.91       1.56       0.01       1.20       ----

> <Gold.Chemscore.Fitness>
15.9515

> <Gold.Chemscore.DG>
-17.1542

> <Gold.Chemscore.ZeroCoef>
-5.4800

> <Gold.Chemscore.Hbond>
2.4502

> <Gold.Chemscore.Metal>
0.0000

> <Gold.Chemscore.Lipo>
63.9149

> <Gold.Chemscore.Internal_Hbond>
0.0000

> <Gold.Chemscore.DEClash>
0.0073

> <Gold.Chemscore.DEInternal>
1.1953

> <Gold.Chemscore.Rot>
1.5576

> <Gold.Chemscore.Internal.Correction>
   9.000000E+99

> <Gold.Chemscore.Hbonds>
donor molecule, donor type, donor heavy atom, donor atom, acceptor molecule, acceptor atom, score
      L1  H     9    29       P1  7948  0.23
      L1  H    12    30       P1  7948  0.85
      P1  H  7989  7998       L1     8  0.08

> <Gold.Chemscore.Hbond.Weighted>
-8.1836

> <Gold.Chemscore.Metal.Weighted>
-0.0000

> <Gold.Chemscore.Lipo.Weighted>
-7.4780

> <Gold.Chemscore.Internal_Hbond.Weighted>
0.0000

> <Gold.Chemscore.DEClash.Weighted>
0.0073

> <Gold.Chemscore.DEInternal.Weighted>
1.1953

> <Gold.Chemscore.Rot.Weighted>
3.9875

> <Gold.Chemscore.Internal.Correction.Weighted>
   9.000000E+99

> <Gold.Protein.RotatedTorsions>
[ 6907 6896 6895 6894 ] final   85.13 input  -60.11 | X-H torsion
[ 7974 7965 7964 7962 ] final  -85.06 input  175.53 | X-H torsion
[ 8008 7997 7996 7995 ] final  -90.88 input   59.86 | X-H torsion
[ 10167 10162 10161 10158 ] final -173.88 input  -65.29 | X-H torsion
[ 10718 10713 10712 10709 ] final -159.19 input   66.30 | X-H torsion
[ 10763 10752 10751 10750 ] final  107.40 input  -60.55 | X-H torsion
[ 11005 11000 10999 10996 ] final  -50.49 input  -57.11 | X-H torsion

> <Gold.Protein.ActiveResidues>
 VAL166  LYS551  ARG553  GLY616  TRP617  ASP618  TYR619  PRO620  LYS621  CYS622 
 ASP623  PHE694  ASN695  SER759  ASP760  ASP761  ALA762  ILE779  LEU786  VAL792 
 PHE793  MET794  SER795  GLU796  ALA797  LYS798  CYS799  TRP800  GLU811  SER814 

> <Gold.Protein.RotatedAtoms>
  152.5368  134.2634  159.8943 H   0  0  0  0  0  0  0  0  0  0  0  0  # atno 6907 bound_to 6896
  151.2593  133.4303  159.2623 H   0  0  0  0  0  0  0  0  0  0  0  0  # atno 6908 bound_to 6896
  151.0467  134.9659  159.8246 H   0  0  0  0  0  0  0  0  0  0  0  0  # atno 6909 bound_to 6896
  145.4983  140.9548  143.1774 H   0  0  0  0  0  0  0  0  0  0  0  0  # atno 7974 bound_to 7965
  154.7039  140.0525  157.0485 H   0  0  0  0  0  0  0  0  0  0  0  0  # atno 8008 bound_to 7997
  155.0647  140.3193  155.4630 H   0  0  0  0  0  0  0  0  0  0  0  0  # atno 8009 bound_to 7997
  156.2768  140.2092  156.5774 H   0  0  0  0  0  0  0  0  0  0  0  0  # atno 8010 bound_to 7997
  139.5664  144.1746  152.1318 H   0  0  0  0  0  0  0  0  0  0  0  0  # atno 10167 bound_to 10162
  156.5647  130.8662  151.2820 H   0  0  0  0  0  0  0  0  0  0  0  0  # atno 10718 bound_to 10713
  153.4062  135.3845  155.2020 H   0  0  0  0  0  0  0  0  0  0  0  0  # atno 10763 bound_to 10752
  154.8734  135.3783  154.4557 H   0  0  0  0  0  0  0  0  0  0  0  0  # atno 10764 bound_to 10752
  153.5060  135.7088  153.5868 H   0  0  0  0  0  0  0  0  0  0  0  0  # atno 10765 bound_to 10752
  141.0818  133.6651  156.3738 H   0  0  0  0  0  0  0  0  0  0  0  0  # atno 11005 bound_to 11000
  144.7794  139.6558  143.7161 LP  0  0  0  0  0  0  0  0  0  0  0  0  # atno 17320 bound_to 7965
  146.2241  139.5691  142.9598 LP  0  0  0  0  0  0  0  0  0  0  0  0  # atno 17321 bound_to 7965
  140.1270  144.5323  150.6827 LP  0  0  0  0  0  0  0  0  0  0  0  0  # atno 17342 bound_to 10162
  140.6947  143.2397  151.5033 LP  0  0  0  0  0  0  0  0  0  0  0  0  # atno 17343 bound_to 10162
  157.7361  130.9773  150.2118 LP  0  0  0  0  0  0  0  0  0  0  0  0  # atno 17370 bound_to 10713
  156.2768  130.3728  149.7975 LP  0  0  0  0  0  0  0  0  0  0  0  0  # atno 17371 bound_to 10713
  140.5450  134.6083  157.5391 LP  0  0  0  0  0  0  0  0  0  0  0  0  # atno 17394 bound_to 11000
  139.9633  134.7415  156.0191 LP  0  0  0  0  0  0  0  0  0  0  0  0  # atno 17395 bound_to 11000

$$$$
