AV-unprocessed.smi:1236|AV-procd|sdf|5182|dock9
  -GOLD-   22720 4263D 1   1.00000     0.00000
 Structure written by MMmdl.
 40 41  0  0  0  0  0  0  0  0  2 V2000
  147.3391  141.7076  154.4564 C   0  0  0  0  0  0  0  0  0  0  0  0
  148.4741  141.0773  155.2748 C   0  0  1  0  0  0  0  0  0  0  0  0
  149.4634  140.3130  154.3639 C   0  0  0  0  0  0  0  0  0  0  0  0
  150.2006  139.2384  155.0760 N   0  3  0  0  0  0  0  0  0  0  0  0
  149.7460  137.8723  154.7213 C   0  0  0  0  0  0  0  0  0  0  0  0
  150.4944  136.8306  155.5688 C   0  0  0  0  0  0  0  0  0  0  0  0
  151.8950  136.9722  155.3640 O   0  0  0  0  0  0  0  0  0  0  0  0
  152.3663  138.2532  155.7654 C   0  0  0  0  0  0  0  0  0  0  0  0
  151.6712  139.3468  154.9358 C   0  0  0  0  0  0  0  0  0  0  0  0
  149.1495  142.1282  156.0381 N   0  0  0  0  0  0  0  0  0  0  0  0
  149.7019  141.9882  157.2531 C   0  0  0  0  0  0  0  0  0  0  0  0
  149.7232  140.9215  157.8676 O   0  0  0  0  0  0  0  0  0  0  0  0
  150.2278  143.1467  157.6876 N   0  0  0  0  0  0  0  0  0  0  0  0
  150.9435  143.3863  158.8910 C   0  0  0  0  0  0  0  0  0  0  0  0
  151.1241  144.7487  159.2201 C   0  0  0  0  0  0  0  0  0  0  0  0
  151.8240  145.0912  160.3935 C   0  0  0  0  0  0  0  0  0  0  0  0
  152.3270  144.0609  161.2078 C   0  0  0  0  0  0  0  0  0  0  0  0
  152.1049  142.7305  160.8071 C   0  0  0  0  0  0  0  0  0  0  0  0
  151.4352  142.4002  159.6824 N   0  0  0  0  0  0  0  0  0  0  0  0
  146.7866  140.9481  153.9023 H   0  0  0  0  0  0  0  0  0  0  0  0
  147.7210  142.4315  153.7357 H   0  0  0  0  0  0  0  0  0  0  0  0
  146.6279  142.2238  155.1023 H   0  0  0  0  0  0  0  0  0  0  0  0
  148.0086  140.3760  155.9685 H   0  0  0  0  0  0  0  0  0  0  0  0
  148.9472  139.8901  153.5007 H   0  0  0  0  0  0  0  0  0  0  0  0
  150.1794  141.0329  153.9643 H   0  0  0  0  0  0  0  0  0  0  0  0
  148.6739  137.7718  154.8878 H   0  0  0  0  0  0  0  0  0  0  0  0
  149.9230  137.6882  153.6605 H   0  0  0  0  0  0  0  0  0  0  0  0
  150.2535  136.9434  156.6273 H   0  0  0  0  0  0  0  0  0  0  0  0
  150.1942  135.8234  155.2791 H   0  0  0  0  0  0  0  0  0  0  0  0
  152.1877  138.4012  156.8318 H   0  0  0  0  0  0  0  0  0  0  0  0
  153.4451  138.2954  155.6139 H   0  0  0  0  0  0  0  0  0  0  0  0
  151.9475  139.2559  153.8843 H   0  0  0  0  0  0  0  0  0  0  0  0
  152.0059  140.3284  155.2741 H   0  0  0  0  0  0  0  0  0  0  0  0
  149.1803  143.0427  155.6111 H   0  0  0  0  0  0  0  0  0  0  0  0
  150.1165  143.9474  157.0832 H   0  0  0  0  0  0  0  0  0  0  0  0
  150.7312  145.5284  158.5837 H   0  0  0  0  0  0  0  0  0  0  0  0
  151.9715  146.1266  160.6629 H   0  0  0  0  0  0  0  0  0  0  0  0
  152.8687  144.2842  162.1152 H   0  0  0  0  0  0  0  0  0  0  0  0
  152.4751  141.9096  161.4033 H   0  0  0  0  0  0  0  0  0  0  0  0
  150.0021  139.3638  156.0587 H   0  0  0  0  0  0  0  0  0  0  0  0
  1  2  1  0  0  0  0
  1 20  1  0  0  0  0
  1 21  1  0  0  0  0
  1 22  1  0  0  0  0
  2  3  1  0  0  0  0
  2 10  1  0  0  0  0
  2 23  1  0  0  0  0
  3  4  1  0  0  0  0
  3 24  1  0  0  0  0
  3 25  1  0  0  0  0
  4  9  1  0  0  0  0
  4  5  1  0  0  0  0
  4 40  1  0  0  0  0
  5  6  1  0  0  0  0
  5 26  1  0  0  0  0
  5 27  1  0  0  0  0
  6  7  1  0  0  0  0
  6 28  1  0  0  0  0
  6 29  1  0  0  0  0
  7  8  1  0  0  0  0
  8  9  1  0  0  0  0
  8 30  1  0  0  0  0
  8 31  1  0  0  0  0
  9 32  1  0  0  0  0
  9 33  1  0  0  0  0
 10 11  1  0  0  0  0
 10 34  1  0  0  0  0
 11 12  2  0  0  0  0
 11 13  1  0  0  0  0
 13 14  1  0  0  0  0
 13 35  1  0  0  0  0
 14 19  1  0  0  0  0
 14 15  2  0  0  0  0
 15 16  1  0  0  0  0
 15 36  1  0  0  0  0
 16 17  2  0  0  0  0
 16 37  1  0  0  0  0
 17 18  1  0  0  0  0
 17 38  1  0  0  0  0
 18 19  2  0  0  0  0
 18 39  1  0  0  0  0
M  CHG  1   4   1
M  END
> <s_m_source_file>
AV-unprocessed.smi

> <i_m_source_file_index>
1236

> <i_lp_mmshare_version>
43012

> <i_f3d_flags>
0

> <s_epik_input>
W0NIMl0xW0NIMl1PW0NIMl1bQ0gyXU4xW0NIMl1bQ0BASF0oW0NIM10pW05IXUMoPU8pW05IXWMyW2NIXVtjSF1bY0hdW2NIXW4y

> <s_epik_cmdline>
J2VwaWtfcHl0aG9uJywgJy1waCcsICc3LjAnLCAnLXRuJywgJzgnLCAnLW1hJywgJzIwMCcsICctbWV0YWxfYmluZGluZycsICctaW1hZScsICc8aW5maWxlLm1hZT4nLCAnLW9tYWUnLCAnPG91dGZpbGUubWFlPic=

> <r_epik_Ionization_Penalty>
0.602564

> <r_epik_Ionization_Penalty_Charging>
0.602531

> <r_epik_Ionization_Penalty_Neutral>
3.36306e-05

> <r_epik_State_Penalty>
0.617039

> <r_epik_Charging_Adjusted_Penalty>
1.21957

> <i_epik_Tot_Q>
1

> <i_epik_Tot_abs_Q>
1

> <r_epik_Metal_State_Penalty>
0.617041

> <b_epik_Metal_Only>
0

> <s_lp_Force_Field>
OPLS_2005

> <r_lp_Energy>
24.274

> <b_lp_Chiralities_Consistent>
1

> <s_lp_Variant>
AV-unprocessed.smi:1236-4

> <Gold.Version>
5.8.1

> <Gold.Id.Protein>
6NUR|6NUR_protein|mol2

> <Gold.PLP.Fitness>
43.5486

> <Gold.PLP.PLP>
-37.7207

> <Gold.PLP.part.hbond>
-3.1996

> <Gold.PLP.part.metal>
0.0000

> <Gold.PLP.part.buried>
-4.0856

> <Gold.PLP.part.nonpolar>
-30.2109

> <Gold.PLP.part.repulsive>
0.2809

> <Gold.PLP.ligand.clash>
0.0000

> <Gold.PLP.ligand.torsion>
1.3609

> <Gold.PLP.Chemscore.Hbond>
2.8406

> <Gold.PLP.Chemscore.CHOScore>
0.0000

> <Gold.PLP.Chemscore.Metal>
0.0000

> <Gold.Chemscore.Hbonds>
donor molecule, donor type, donor heavy atom, donor atom, acceptor molecule, acceptor atom, score
      L1  H    10    34       P1  8028  1.00
      L1  H    13    35       P1  8028  0.86
      P1  H 10752 10765       L1     7  1.00

> <Gold.PLP.Chemscore.Internal.Correction>
0.0281

> <Gold.Rescore>
     Score         DG    S(hbond)    S(metal)    S(lipo)     H(rot)  DE(clash)    DE(int)     intcor
     18.87     -21.52       2.88        0.00      89.05       1.56       0.02       2.63       ----

> <Gold.Chemscore.Fitness>
18.8686

> <Gold.Chemscore.DG>
-21.5192

> <Gold.Chemscore.ZeroCoef>
-5.4800

> <Gold.Chemscore.Hbond>
2.8772

> <Gold.Chemscore.Metal>
0.0000

> <Gold.Chemscore.Lipo>
89.0503

> <Gold.Chemscore.Internal_Hbond>
0.0000

> <Gold.Chemscore.DEClash>
0.0222

> <Gold.Chemscore.DEInternal>
2.6284

> <Gold.Chemscore.Rot>
1.5584

> <Gold.Chemscore.Internal.Correction>
   9.000000E+99

> <Gold.Chemscore.Hbonds>
donor molecule, donor type, donor heavy atom, donor atom, acceptor molecule, acceptor atom, score
      L1  H    10    34       P1  8028  0.95
      L1  H    13    35       P1  8028  0.76
      P1  H 10752 10765       L1     7  0.96

> <Gold.Chemscore.Hbond.Weighted>
-9.6099

> <Gold.Chemscore.Metal.Weighted>
-0.0000

> <Gold.Chemscore.Lipo.Weighted>
-10.4189

> <Gold.Chemscore.Internal_Hbond.Weighted>
0.0000

> <Gold.Chemscore.DEClash.Weighted>
0.0222

> <Gold.Chemscore.DEInternal.Weighted>
2.6284

> <Gold.Chemscore.Rot.Weighted>
3.9896

> <Gold.Chemscore.Internal.Correction.Weighted>
   9.000000E+99

> <Gold.Protein.RotatedTorsions>
[ 6907 6896 6895 6894 ] final  -68.33 input  -60.11 | X-H torsion
[ 7974 7965 7964 7962 ] final -106.33 input  175.53 | X-H torsion
[ 8008 7997 7996 7995 ] final  -90.76 input   59.86 | X-H torsion
[ 10167 10162 10161 10158 ] final  -89.93 input  -65.29 | X-H torsion
[ 10718 10713 10712 10709 ] final -175.25 input   66.30 | X-H torsion
[ 10763 10752 10751 10750 ] final -174.22 input  -60.55 | X-H torsion
[ 11005 11000 10999 10996 ] final   96.74 input  -57.11 | X-H torsion

> <Gold.Protein.ActiveResidues>
 VAL166  LYS551  ARG553  GLY616  TRP617  ASP618  TYR619  PRO620  LYS621  CYS622 
 ASP623  PHE694  ASN695  SER759  ASP760  ASP761  ALA762  ILE779  LEU786  VAL792 
 PHE793  MET794  SER795  GLU796  ALA797  LYS798  CYS799  TRP800  GLU811  SER814 

> <Gold.Protein.RotatedAtoms>
  150.7362  134.5754  159.5911 H   0  0  0  0  0  0  0  0  0  0  0  0  # atno 6907 bound_to 6896
  152.3182  134.7410  160.0329 H   0  0  0  0  0  0  0  0  0  0  0  0  # atno 6908 bound_to 6896
  151.7935  133.3326  159.3542 H   0  0  0  0  0  0  0  0  0  0  0  0  # atno 6909 bound_to 6896
  145.2191  140.9127  143.3270 H   0  0  0  0  0  0  0  0  0  0  0  0  # atno 7974 bound_to 7965
  154.7025  140.0527  157.0472 H   0  0  0  0  0  0  0  0  0  0  0  0  # atno 8008 bound_to 7997
  155.0665  140.3195  155.4625 H   0  0  0  0  0  0  0  0  0  0  0  0  # atno 8009 bound_to 7997
  156.2764  140.2089  156.5792 H   0  0  0  0  0  0  0  0  0  0  0  0  # atno 8010 bound_to 7997
  140.3600  143.2847  151.9626 H   0  0  0  0  0  0  0  0  0  0  0  0  # atno 10167 bound_to 10162
  156.7971  130.9539  151.3119 H   0  0  0  0  0  0  0  0  0  0  0  0  # atno 10718 bound_to 10713
  154.5988  135.2852  155.0557 H   0  0  0  0  0  0  0  0  0  0  0  0  # atno 10763 bound_to 10752
  154.1830  135.6453  153.5043 H   0  0  0  0  0  0  0  0  0  0  0  0  # atno 10764 bound_to 10752
  153.0149  135.5428  154.6700 H   0  0  0  0  0  0  0  0  0  0  0  0  # atno 10765 bound_to 10752
  139.8780  134.8966  156.4203 H   0  0  0  0  0  0  0  0  0  0  0  0  # atno 11005 bound_to 11000
  144.9782  139.3810  143.6275 LP  0  0  0  0  0  0  0  0  0  0  0  0  # atno 17320 bound_to 7965
  146.3380  139.8911  142.8809 LP  0  0  0  0  0  0  0  0  0  0  0  0  # atno 17321 bound_to 7965
  139.4815  144.6001  151.7620 LP  0  0  0  0  0  0  0  0  0  0  0  0  # atno 17342 bound_to 10162
  140.5136  144.0987  150.6002 LP  0  0  0  0  0  0  0  0  0  0  0  0  # atno 17343 bound_to 10162
  157.6572  130.8935  149.9754 LP  0  0  0  0  0  0  0  0  0  0  0  0  # atno 17370 bound_to 10713
  156.1124  130.3649  150.0027 LP  0  0  0  0  0  0  0  0  0  0  0  0  # atno 17371 bound_to 10713
  140.9138  133.7693  155.9823 LP  0  0  0  0  0  0  0  0  0  0  0  0  # atno 17394 bound_to 11000
  140.8516  134.2947  157.5273 LP  0  0  0  0  0  0  0  0  0  0  0  0  # atno 17395 bound_to 11000

$$$$
