AV-unprocessed.smi:1944|AV-procd|sdf|7856|dock5
  -GOLD-   2272010 03D 1   1.00000     0.00000
 Structure written by MMmdl.
 46 47  0  0  0  0  0  0  0  0  2 V2000
  151.8190  138.3711  154.7020 C   0  0  0  0  0  0  0  0  0  0  0  0
  150.4823  138.3347  154.2141 O   0  0  0  0  0  0  0  0  0  0  0  0
  149.6947  139.4605  154.3635 C   0  0  0  0  0  0  0  0  0  0  0  0
  150.2744  140.5967  154.8259 N   0  0  0  0  0  0  0  0  0  0  0  0
  149.5062  141.6946  154.9782 C   0  0  0  0  0  0  0  0  0  0  0  0
  148.1300  141.7177  154.6875 C   0  0  0  0  0  0  0  0  0  0  0  0
  147.5264  140.5408  154.2068 C   0  0  0  0  0  0  0  0  0  0  0  0
  148.3229  139.3837  154.0268 C   0  0  0  0  0  0  0  0  0  0  0  0
  147.8152  138.1377  153.5650 N   0  0  0  0  0  0  0  0  0  0  0  0
  146.5377  137.7304  153.4803 C   0  0  0  0  0  0  0  0  0  0  0  0
  145.5520  138.3983  153.7919 O   0  0  0  0  0  0  0  0  0  0  0  0
  146.4566  136.4853  152.9899 N   0  0  0  0  0  0  0  0  0  0  0  0
  145.2119  135.7635  152.7511 C   0  0  0  0  0  0  0  0  0  0  0  0
  145.1102  134.5011  153.6323 C   0  0  0  0  0  0  0  0  0  0  0  0
  144.8486  133.2651  152.8399 N   0  3  1  0  0  0  0  0  0  0  0  0
  143.9569  133.5474  151.6778 C   0  0  0  0  0  0  0  0  0  0  0  0
  143.5662  132.2698  150.9231 C   0  0  0  0  0  0  0  0  0  0  0  0
  144.8155  131.5354  150.4393 C   0  0  0  0  0  0  0  0  0  0  0  0
  145.7218  131.2432  151.6370 C   0  0  0  0  0  0  0  0  0  0  0  0
  146.0855  132.5227  152.4248 C   0  0  2  0  0  0  0  0  0  0  0  0
  146.9815  132.1171  153.6151 C   0  0  0  0  0  0  0  0  0  0  0  0
  152.2988  137.4114  154.5111 H   0  0  0  0  0  0  0  0  0  0  0  0
  151.8468  138.5458  155.7786 H   0  0  0  0  0  0  0  0  0  0  0  0
  152.4064  139.1404  154.1988 H   0  0  0  0  0  0  0  0  0  0  0  0
  150.0022  142.5794  155.3490 H   0  0  0  0  0  0  0  0  0  0  0  0
  147.5493  142.6164  154.8343 H   0  0  0  0  0  0  0  0  0  0  0  0
  146.4673  140.5473  154.0020 H   0  0  0  0  0  0  0  0  0  0  0  0
  148.5089  137.5054  153.1925 H   0  0  0  0  0  0  0  0  0  0  0  0
  147.3153  136.0097  152.7529 H   0  0  0  0  0  0  0  0  0  0  0  0
  144.3608  136.4233  152.9284 H   0  0  0  0  0  0  0  0  0  0  0  0
  145.1935  135.5107  151.6922 H   0  0  0  0  0  0  0  0  0  0  0  0
  146.0147  134.3724  154.2289 H   0  0  0  0  0  0  0  0  0  0  0  0
  144.3083  134.6812  154.3424 H   0  0  0  0  0  0  0  0  0  0  0  0
  143.0411  134.0367  152.0043 H   0  0  0  0  0  0  0  0  0  0  0  0
  144.4553  134.2404  150.9980 H   0  0  0  0  0  0  0  0  0  0  0  0
  142.9801  131.6191  151.5735 H   0  0  0  0  0  0  0  0  0  0  0  0
  142.9280  132.5179  150.0745 H   0  0  0  0  0  0  0  0  0  0  0  0
  144.5391  130.6070  149.9386 H   0  0  0  0  0  0  0  0  0  0  0  0
  145.3479  132.1430  149.7063 H   0  0  0  0  0  0  0  0  0  0  0  0
  145.2244  130.5327  152.2991 H   0  0  0  0  0  0  0  0  0  0  0  0
  146.6289  130.7495  151.2858 H   0  0  0  0  0  0  0  0  0  0  0  0
  146.6644  133.1745  151.7684 H   0  0  0  0  0  0  0  0  0  0  0  0
  147.7584  131.4208  153.2975 H   0  0  0  0  0  0  0  0  0  0  0  0
  146.4047  131.6260  154.3996 H   0  0  0  0  0  0  0  0  0  0  0  0
  147.5068  132.9639  154.0545 H   0  0  0  0  0  0  0  0  0  0  0  0
  144.3442  132.6385  153.4508 H   0  0  0  0  0  0  0  0  0  0  0  0
  1  2  1  0  0  0  0
  1 22  1  0  0  0  0
  1 23  1  0  0  0  0
  1 24  1  0  0  0  0
  2  3  1  0  0  0  0
  3  8  1  0  0  0  0
  3  4  2  0  0  0  0
  4  5  1  0  0  0  0
  5  6  2  0  0  0  0
  5 25  1  0  0  0  0
  6  7  1  0  0  0  0
  6 26  1  0  0  0  0
  7  8  2  0  0  0  0
  7 27  1  0  0  0  0
  8  9  1  0  0  0  0
  9 10  1  0  0  0  0
  9 28  1  0  0  0  0
 10 11  2  0  0  0  0
 10 12  1  0  0  0  0
 12 13  1  0  0  0  0
 12 29  1  0  0  0  0
 13 14  1  0  0  0  0
 13 30  1  0  0  0  0
 13 31  1  0  0  0  0
 14 15  1  0  0  0  0
 14 32  1  0  0  0  0
 14 33  1  0  0  0  0
 15 20  1  0  0  0  0
 15 16  1  0  0  0  0
 15 46  1  0  0  0  0
 16 17  1  0  0  0  0
 16 34  1  0  0  0  0
 16 35  1  0  0  0  0
 17 18  1  0  0  0  0
 17 36  1  0  0  0  0
 17 37  1  0  0  0  0
 18 19  1  0  0  0  0
 18 38  1  0  0  0  0
 18 39  1  0  0  0  0
 19 20  1  0  0  0  0
 19 40  1  0  0  0  0
 19 41  1  0  0  0  0
 20 21  1  0  0  0  0
 20 42  1  0  0  0  0
 21 43  1  0  0  0  0
 21 44  1  0  0  0  0
 21 45  1  0  0  0  0
M  CHG  1  15   1
M  END
> <s_m_source_file>
AV-unprocessed.smi

> <i_m_source_file_index>
1944

> <i_lp_mmshare_version>
43012

> <i_f3d_flags>
0

> <s_epik_input>
W0NIM11PYzFuW2NIXVtjSF1bY0hdYzFbTkhdQyg9TylbTkhdW0NIMl1bQ0gyXU4yW0NIMl1bQ0gyXVtDSDJdW0NIMl1bQ0BIXTJbQ0gzXQ==

> <s_epik_cmdline>
J2VwaWtfcHl0aG9uJywgJy1waCcsICc3LjAnLCAnLXRuJywgJzgnLCAnLW1hJywgJzIwMCcsICctbWV0YWxfYmluZGluZycsICctaW1hZScsICc8aW5maWxlLm1hZT4nLCAnLW9tYWUnLCAnPG91dGZpbGUubWFlPic=

> <r_lp_tautomer_probability>
1

> <r_epik_Ionization_Penalty>
0.00219525

> <r_epik_Ionization_Penalty_Charging>
0.00211816

> <r_epik_Ionization_Penalty_Neutral>
7.7088e-05

> <r_epik_State_Penalty>
0.00145254

> <r_epik_Charging_Adjusted_Penalty>
0.0035707

> <i_epik_Tot_Q>
1

> <i_epik_Tot_abs_Q>
1

> <r_epik_Metal_State_Penalty>
-0

> <b_epik_Metal_Only>
0

> <s_lp_Force_Field>
OPLS_2005

> <r_lp_Energy>
21.9876

> <b_lp_Chiralities_Consistent>
1

> <s_lp_Variant>
AV-unprocessed.smi:1944-4

> <Gold.Version>
5.8.1

> <Gold.Id.Protein>
6NUR|6NUR_protein|mol2

> <Gold.PLP.Fitness>
47.5512

> <Gold.PLP.PLP>
-33.2098

> <Gold.PLP.part.hbond>
-3.8263

> <Gold.PLP.part.metal>
0.0000

> <Gold.PLP.part.buried>
-6.3244

> <Gold.PLP.part.nonpolar>
-26.0932

> <Gold.PLP.part.repulsive>
1.0054

> <Gold.PLP.ligand.clash>
0.0000

> <Gold.PLP.ligand.torsion>
0.8243

> <Gold.PLP.Chemscore.Hbond>
4.5136

> <Gold.PLP.Chemscore.CHOScore>
0.7984

> <Gold.PLP.Chemscore.Metal>
0.0000

> <Gold.Chemscore.Hbonds>
donor molecule, donor type, donor heavy atom, donor atom, acceptor molecule, acceptor atom, score
      L1  H     9    28       P1  7948  0.96
      L1  H    12    29       P1  7948  0.86
      L1  H    15    46       P1 10957  0.65
      P1  H  7989  7998       L1     4  0.91
      L1  C     5    25       P1  8028  0.87

> <Gold.PLP.Chemscore.Internal.Correction>
0.0539

> <Gold.Rescore>
     Score         DG    S(hbond)    S(metal)    S(lipo)     H(rot)  DE(clash)    DE(int)     intcor
     16.40     -18.66       2.20        0.00      87.15       1.71       0.47       1.79       ----

> <Gold.Chemscore.Fitness>
16.4049

> <Gold.Chemscore.DG>
-18.6610

> <Gold.Chemscore.ZeroCoef>
-5.4800

> <Gold.Chemscore.Hbond>
2.2049

> <Gold.Chemscore.Metal>
0.0000

> <Gold.Chemscore.Lipo>
87.1464

> <Gold.Chemscore.Internal_Hbond>
0.0000

> <Gold.Chemscore.DEClash>
0.4651

> <Gold.Chemscore.DEInternal>
1.7910

> <Gold.Chemscore.Rot>
1.7107

> <Gold.Chemscore.Internal.Correction>
   9.000000E+99

> <Gold.Chemscore.Hbonds>
donor molecule, donor type, donor heavy atom, donor atom, acceptor molecule, acceptor atom, score
      L1  H     9    28       P1  7948  0.92
      L1  H    12    29       P1  7948  0.85
      L1  H    15    46       P1 10957  0.13
      P1  H  7989  7998       L1     4  0.21

> <Gold.Chemscore.Hbond.Weighted>
-7.3643

> <Gold.Chemscore.Metal.Weighted>
-0.0000

> <Gold.Chemscore.Lipo.Weighted>
-10.1961

> <Gold.Chemscore.Internal_Hbond.Weighted>
0.0000

> <Gold.Chemscore.DEClash.Weighted>
0.4651

> <Gold.Chemscore.DEInternal.Weighted>
1.7910

> <Gold.Chemscore.Rot.Weighted>
4.3794

> <Gold.Chemscore.Internal.Correction.Weighted>
   9.000000E+99

> <Gold.Protein.RotatedTorsions>
[ 6907 6896 6895 6894 ] final  -46.27 input  -60.11 | X-H torsion
[ 7974 7965 7964 7962 ] final  111.35 input  175.53 | X-H torsion
[ 8008 7997 7996 7995 ] final   74.57 input   59.86 | X-H torsion
[ 10167 10162 10161 10158 ] final  -42.95 input  -65.29 | X-H torsion
[ 10718 10713 10712 10709 ] final   79.98 input   66.30 | X-H torsion
[ 10763 10752 10751 10750 ] final -178.10 input  -60.55 | X-H torsion
[ 11005 11000 10999 10996 ] final  -91.12 input  -57.11 | X-H torsion

> <Gold.Protein.ActiveResidues>
 VAL166  LYS551  ARG553  GLY616  TRP617  ASP618  TYR619  PRO620  LYS621  CYS622 
 ASP623  PHE694  ASN695  SER759  ASP760  ASP761  ALA762  ILE779  LEU786  VAL792 
 PHE793  MET794  SER795  GLU796  ALA797  LYS798  CYS799  TRP800  GLU811  SER814 

> <Gold.Protein.RotatedAtoms>
  150.9130  134.8548  159.7438 H   0  0  0  0  0  0  0  0  0  0  0  0  # atno 6907 bound_to 6896
  152.4954  134.4330  159.9528 H   0  0  0  0  0  0  0  0  0  0  0  0  # atno 6908 bound_to 6896
  151.4371  133.3614  159.2812 H   0  0  0  0  0  0  0  0  0  0  0  0  # atno 6909 bound_to 6896
  145.2433  139.2769  143.4106 H   0  0  0  0  0  0  0  0  0  0  0  0  # atno 7974 bound_to 7965
  155.8003  140.3476  155.5399 H   0  0  0  0  0  0  0  0  0  0  0  0  # atno 8008 bound_to 7997
  155.8545  140.0961  157.1674 H   0  0  0  0  0  0  0  0  0  0  0  0  # atno 8009 bound_to 7997
  154.4009  140.1370  156.3872 H   0  0  0  0  0  0  0  0  0  0  0  0  # atno 8010 bound_to 7997
  140.6951  143.3009  151.3283 H   0  0  0  0  0  0  0  0  0  0  0  0  # atno 10167 bound_to 10162
  157.6793  130.9939  150.2012 H   0  0  0  0  0  0  0  0  0  0  0  0  # atno 10718 bound_to 10713
  154.5519  135.2813  155.1001 H   0  0  0  0  0  0  0  0  0  0  0  0  # atno 10763 bound_to 10752
  154.2443  135.6351  153.5222 H   0  0  0  0  0  0  0  0  0  0  0  0  # atno 10764 bound_to 10752
  153.0005  135.5567  154.6087 H   0  0  0  0  0  0  0  0  0  0  0  0  # atno 10765 bound_to 10752
  141.1551  133.7735  156.9834 H   0  0  0  0  0  0  0  0  0  0  0  0  # atno 11005 bound_to 11000
  146.3322  140.2803  142.8610 LP  0  0  0  0  0  0  0  0  0  0  0  0  # atno 17320 bound_to 7965
  144.9569  140.8235  143.5537 LP  0  0  0  0  0  0  0  0  0  0  0  0  # atno 17321 bound_to 7965
  139.6397  144.0563  152.2544 LP  0  0  0  0  0  0  0  0  0  0  0  0  # atno 17342 bound_to 10162
  140.0065  144.6255  150.7685 LP  0  0  0  0  0  0  0  0  0  0  0  0  # atno 17343 bound_to 10162
  156.2703  130.3721  149.8039 LP  0  0  0  0  0  0  0  0  0  0  0  0  # atno 17370 bound_to 10713
  156.5758  130.8444  151.3369 LP  0  0  0  0  0  0  0  0  0  0  0  0  # atno 17371 bound_to 10713
  140.1050  134.9512  157.1981 LP  0  0  0  0  0  0  0  0  0  0  0  0  # atno 17394 bound_to 11000
  140.3268  134.2855  155.7235 LP  0  0  0  0  0  0  0  0  0  0  0  0  # atno 17395 bound_to 11000

$$$$
