AV-unprocessed.smi:2569|AV-procd|sdf|10103|dock6
  -GOLD-   2272014123D 1   1.00000     0.00000
 Structure written by MMmdl.
 39 41  0  0  0  0  0  0  0  0  1 V2000
  152.5722  143.2890  161.6347 C   0  0  0  0  0  0  0  0  0  0  0  0
  152.1189  142.8402  160.2565 C   0  0  0  0  0  0  0  0  0  0  0  0
  152.1109  141.4604  159.9510 C   0  0  0  0  0  0  0  0  0  0  0  0
  151.6973  141.0024  158.6809 C   0  0  0  0  0  0  0  0  0  0  0  0
  151.6079  139.7173  158.1740 N   0  0  0  0  0  0  0  0  0  0  0  0
  151.1605  139.9453  156.9426 C   0  0  0  0  0  0  0  0  0  0  0  0
  150.9475  141.2280  156.5918 N   0  0  0  0  0  0  0  0  0  0  0  0
  150.4658  141.7132  155.3109 C   0  0  0  0  0  0  0  0  0  0  0  0
  149.0128  141.2795  155.0223 C   0  0  1  0  0  0  0  0  0  0  0  0
  148.4035  142.1907  154.1291 O   0  0  0  0  0  0  0  0  0  0  0  0
  148.8971  139.8685  154.4130 C   0  0  0  0  0  0  0  0  0  0  0  0
  147.5820  139.2794  154.6036 N   0  0  0  0  0  0  0  0  0  0  0  0
  147.0630  139.1139  155.8456 N   0  0  0  0  0  0  0  0  0  0  0  0
  145.8866  138.5777  155.6909 N   0  0  0  0  0  0  0  0  0  0  0  0
  145.5994  138.3723  154.3544 N   0  0  0  0  0  0  0  0  0  0  0  0
  146.6794  138.8196  153.7274 C   0  0  0  0  0  0  0  0  0  0  0  0
  146.8797  138.8263  152.2477 C   0  0  0  0  0  0  0  0  0  0  0  0
  151.2911  141.9703  157.7164 C   0  0  0  0  0  0  0  0  0  0  0  0
  151.2945  143.3457  158.0084 C   0  0  0  0  0  0  0  0  0  0  0  0
  151.7078  143.7861  159.2831 C   0  0  0  0  0  0  0  0  0  0  0  0
  151.7033  145.2732  159.5900 C   0  0  0  0  0  0  0  0  0  0  0  0
  152.8464  142.4393  162.2605 H   0  0  0  0  0  0  0  0  0  0  0  0
  151.7750  143.8333  162.1413 H   0  0  0  0  0  0  0  0  0  0  0  0
  153.4424  143.9411  161.5564 H   0  0  0  0  0  0  0  0  0  0  0  0
  152.4228  140.7396  160.6923 H   0  0  0  0  0  0  0  0  0  0  0  0
  150.9759  139.1329  156.2549 H   0  0  0  0  0  0  0  0  0  0  0  0
  150.5508  142.8006  155.2943 H   0  0  0  0  0  0  0  0  0  0  0  0
  151.1386  141.3379  154.5391 H   0  0  0  0  0  0  0  0  0  0  0  0
  148.4455  141.3109  155.9530 H   0  0  0  0  0  0  0  0  0  0  0  0
  148.2677  143.0096  154.5812 H   0  0  0  0  0  0  0  0  0  0  0  0
  149.1076  139.8982  153.3434 H   0  0  0  0  0  0  0  0  0  0  0  0
  149.6434  139.2061  154.8549 H   0  0  0  0  0  0  0  0  0  0  0  0
  146.1206  138.2143  151.7596 H   0  0  0  0  0  0  0  0  0  0  0  0
  147.8612  138.4250  151.9944 H   0  0  0  0  0  0  0  0  0  0  0  0
  146.8038  139.8438  151.8645 H   0  0  0  0  0  0  0  0  0  0  0  0
  150.9781  144.0547  157.2576 H   0  0  0  0  0  0  0  0  0  0  0  0
  151.3690  145.8557  158.7309 H   0  0  0  0  0  0  0  0  0  0  0  0
  152.7048  145.6124  159.8550 H   0  0  0  0  0  0  0  0  0  0  0  0
  151.0320  145.4893  160.4217 H   0  0  0  0  0  0  0  0  0  0  0  0
  1  2  1  0  0  0  0
  1 22  1  0  0  0  0
  1 23  1  0  0  0  0
  1 24  1  0  0  0  0
  2 20  1  0  0  0  0
  2  3  2  0  0  0  0
  3  4  1  0  0  0  0
  3 25  1  0  0  0  0
  4 18  2  0  0  0  0
  4  5  1  0  0  0  0
  5  6  2  0  0  0  0
  6  7  1  0  0  0  0
  6 26  1  0  0  0  0
  7  8  1  0  0  0  0
  7 18  1  0  0  0  0
  8  9  1  0  0  0  0
  8 27  1  0  0  0  0
  8 28  1  0  0  0  0
  9 10  1  0  0  0  0
  9 11  1  0  0  0  0
  9 29  1  0  0  0  0
 10 30  1  0  0  0  0
 11 12  1  0  0  0  0
 11 31  1  0  0  0  0
 11 32  1  0  0  0  0
 12 16  1  0  0  0  0
 12 13  1  0  0  0  0
 13 14  2  0  0  0  0
 14 15  1  0  0  0  0
 15 16  2  0  0  0  0
 16 17  1  0  0  0  0
 17 33  1  0  0  0  0
 17 34  1  0  0  0  0
 17 35  1  0  0  0  0
 18 19  1  0  0  0  0
 19 20  2  0  0  0  0
 19 36  1  0  0  0  0
 20 21  1  0  0  0  0
 21 37  1  0  0  0  0
 21 38  1  0  0  0  0
 21 39  1  0  0  0  0
M  END
> <s_m_source_file>
AV-unprocessed.smi

> <i_m_source_file_index>
2569

> <i_lp_mmshare_version>
43012

> <i_f3d_flags>
0

> <s_epik_input>
W0NIM11jKFtjSF0xKWMoW0NIM10pW2NIXWMoYzEyKW4oW2NIXW4yKVtDSDJdW0NASF0oW09IXSlbQ0gyXW4zbm5uYzNbQ0gzXQ==

> <s_epik_cmdline>
J2VwaWtfcHl0aG9uJywgJy1waCcsICc3LjAnLCAnLXRuJywgJzgnLCAnLW1hJywgJzIwMCcsICctbWV0YWxfYmluZGluZycsICctaW1hZScsICc8aW5maWxlLm1hZT4nLCAnLW9tYWUnLCAnPG91dGZpbGUubWFlPic=

> <r_lp_tautomer_probability>
1

> <r_epik_Ionization_Penalty>
0.0946713

> <r_epik_Ionization_Penalty_Charging>
0

> <r_epik_Ionization_Penalty_Neutral>
0.0946713

> <r_epik_State_Penalty>
0.0848712

> <r_epik_Charging_Adjusted_Penalty>
0.0848712

> <i_epik_Tot_Q>
0

> <i_epik_Tot_abs_Q>
0

> <r_epik_Metal_State_Penalty>
0.0730911

> <b_epik_Metal_Only>
0

> <s_lp_Force_Field>
OPLS_2005

> <r_lp_Energy>
9.51249

> <b_lp_Chiralities_Consistent>
1

> <s_lp_Variant>
AV-unprocessed.smi:2569-2

> <Gold.Version>
5.8.1

> <Gold.Id.Protein>
6NUR|6NUR_protein|mol2

> <Gold.PLP.Fitness>
43.3754

> <Gold.PLP.PLP>
-40.9651

> <Gold.PLP.part.hbond>
-2.0000

> <Gold.PLP.part.metal>
0.0000

> <Gold.PLP.part.buried>
-3.1551

> <Gold.PLP.part.nonpolar>
-35.7242

> <Gold.PLP.part.repulsive>
0.1467

> <Gold.PLP.ligand.clash>
0.0000

> <Gold.PLP.ligand.torsion>
0.5078

> <Gold.PLP.Chemscore.Hbond>
1.1404

> <Gold.PLP.Chemscore.CHOScore>
0.0000

> <Gold.PLP.Chemscore.Metal>
0.0000

> <Gold.Chemscore.Hbonds>
donor molecule, donor type, donor heavy atom, donor atom, acceptor molecule, acceptor atom, score
      L1  H    10    30       P1  8028  0.88
      P1  H  8011  8017       L1    10  0.12

> <Gold.PLP.Chemscore.Internal.Correction>
0.0047

> <Gold.Rescore>
     Score         DG    S(hbond)    S(metal)    S(lipo)     H(rot)  DE(clash)    DE(int)     intcor
     14.60     -15.01       1.02        0.00     107.51       2.53       0.01       0.40       ----

> <Gold.Chemscore.Fitness>
14.5951

> <Gold.Chemscore.DG>
-15.0088

> <Gold.Chemscore.ZeroCoef>
-5.4800

> <Gold.Chemscore.Hbond>
1.0239

> <Gold.Chemscore.Metal>
0.0000

> <Gold.Chemscore.Lipo>
107.5067

> <Gold.Chemscore.Internal_Hbond>
0.0000

> <Gold.Chemscore.DEClash>
0.0135

> <Gold.Chemscore.DEInternal>
0.4002

> <Gold.Chemscore.Rot>
2.5270

> <Gold.Chemscore.Internal.Correction>
   9.000000E+99

> <Gold.Chemscore.Hbonds>
donor molecule, donor type, donor heavy atom, donor atom, acceptor molecule, acceptor atom, score
      L1  H    10    30       P1  8028  0.82
      P1  H  8011  8017       L1    10  0.06

> <Gold.Chemscore.Hbond.Weighted>
-3.4197

> <Gold.Chemscore.Metal.Weighted>
-0.0000

> <Gold.Chemscore.Lipo.Weighted>
-12.5783

> <Gold.Chemscore.Internal_Hbond.Weighted>
0.0000

> <Gold.Chemscore.DEClash.Weighted>
0.0135

> <Gold.Chemscore.DEInternal.Weighted>
0.4002

> <Gold.Chemscore.Rot.Weighted>
6.4691

> <Gold.Chemscore.Internal.Correction.Weighted>
   9.000000E+99

> <Gold.Protein.RotatedTorsions>
[ 6907 6896 6895 6894 ] final -159.80 input  -60.11 | X-H torsion
[ 7974 7965 7964 7962 ] final   34.59 input  175.53 | X-H torsion
[ 8008 7997 7996 7995 ] final  -91.12 input   59.86 | X-H torsion
[ 10167 10162 10161 10158 ] final  112.43 input  -65.29 | X-H torsion
[ 10718 10713 10712 10709 ] final  125.84 input   66.30 | X-H torsion
[ 10763 10752 10751 10750 ] final  110.50 input  -60.55 | X-H torsion
[ 11005 11000 10999 10996 ] final -129.02 input  -57.11 | X-H torsion

> <Gold.Protein.ActiveResidues>
 VAL166  LYS551  ARG553  GLY616  TRP617  ASP618  TYR619  PRO620  LYS621  CYS622 
 ASP623  PHE694  ASN695  SER759  ASP760  ASP761  ALA762  ILE779  LEU786  VAL792 
 PHE793  MET794  SER795  GLU796  ALA797  LYS798  CYS799  TRP800  GLU811  SER814 

> <Gold.Protein.RotatedAtoms>
  151.3392  133.3969  159.2669 H   0  0  0  0  0  0  0  0  0  0  0  0  # atno 6907 bound_to 6896
  150.9892  134.9231  159.7900 H   0  0  0  0  0  0  0  0  0  0  0  0  # atno 6908 bound_to 6896
  152.5242  134.3356  159.9251 H   0  0  0  0  0  0  0  0  0  0  0  0  # atno 6909 bound_to 6896
  146.1342  139.6249  142.9206 H   0  0  0  0  0  0  0  0  0  0  0  0  # atno 7974 bound_to 7965
  154.7069  140.0523  157.0512 H   0  0  0  0  0  0  0  0  0  0  0  0  # atno 8008 bound_to 7997
  155.0608  140.3189  155.4642 H   0  0  0  0  0  0  0  0  0  0  0  0  # atno 8009 bound_to 7997
  156.2777  140.2099  156.5735 H   0  0  0  0  0  0  0  0  0  0  0  0  # atno 8010 bound_to 7997
  139.6536  144.7129  151.2000 H   0  0  0  0  0  0  0  0  0  0  0  0  # atno 10167 bound_to 10162
  157.5469  131.1095  150.8766 H   0  0  0  0  0  0  0  0  0  0  0  0  # atno 10718 bound_to 10713
  153.4498  135.3746  155.2277 H   0  0  0  0  0  0  0  0  0  0  0  0  # atno 10763 bound_to 10752
  154.8756  135.3883  154.4052 H   0  0  0  0  0  0  0  0  0  0  0  0  # atno 10764 bound_to 10752
  153.4609  135.7086  153.6114 H   0  0  0  0  0  0  0  0  0  0  0  0  # atno 10765 bound_to 10752
  140.9467  134.1120  157.4100 H   0  0  0  0  0  0  0  0  0  0  0  0  # atno 11005 bound_to 11000
  145.5193  141.0432  143.2444 LP  0  0  0  0  0  0  0  0  0  0  0  0  # atno 17320 bound_to 7965
  144.7722  139.6709  143.7190 LP  0  0  0  0  0  0  0  0  0  0  0  0  # atno 17321 bound_to 7965
  140.7549  143.6109  150.8607 LP  0  0  0  0  0  0  0  0  0  0  0  0  # atno 17342 bound_to 10162
  139.9759  143.6004  152.2958 LP  0  0  0  0  0  0  0  0  0  0  0  0  # atno 17343 bound_to 10162
  156.9303  130.5347  149.5279 LP  0  0  0  0  0  0  0  0  0  0  0  0  # atno 17370 bound_to 10713
  156.0543  130.5607  150.9058 LP  0  0  0  0  0  0  0  0  0  0  0  0  # atno 17371 bound_to 10713
  139.8835  135.0053  156.6308 LP  0  0  0  0  0  0  0  0  0  0  0  0  # atno 17394 bound_to 11000
  140.7659  133.8779  155.8454 LP  0  0  0  0  0  0  0  0  0  0  0  0  # atno 17395 bound_to 11000

$$$$
