AV-unprocessed.smi:997|AV-procd|sdf|4348|dock3
  -GOLD-   22720 2243D 1   1.00000     0.00000
 Structure written by MMmdl.
 33 35  0  0  0  0  0  0  0  0  2 V2000
  152.3549  138.3522  155.7285 C   0  0  0  0  0  0  0  0  0  0  0  0
  151.6726  139.6618  155.9866 C   0  0  0  0  0  0  0  0  0  0  0  0
  150.8519  140.1440  155.0812 N   0  0  0  0  0  0  0  0  0  0  0  0
  150.3526  141.2997  155.5809 N   0  0  0  0  0  0  0  0  0  0  0  0
  149.4073  142.0577  154.7817 C   0  0  0  0  0  0  0  0  0  0  0  0
  148.0991  141.2824  154.5775 C   0  0  0  0  0  0  0  0  0  0  0  0
  148.2418  140.3753  153.5059 O   0  0  0  0  0  0  0  0  0  0  0  0
  150.8516  141.5976  156.8355 C   0  0  0  0  0  0  0  0  0  0  0  0
  150.5426  142.6786  157.6068 N   0  0  0  0  0  0  0  0  0  0  0  0
  151.1664  142.7152  158.8019 C   0  0  0  0  0  0  0  0  0  0  0  0
  150.8276  143.9013  159.6506 C   0  0  0  0  0  0  0  0  0  0  0  0
  151.0531  145.3128  159.1550 C   0  0  0  0  0  0  0  0  0  0  0  0
  151.9164  144.7556  160.2592 C   0  0  0  0  0  0  0  0  0  0  0  0
  152.0891  141.7411  159.2344 C   0  0  0  0  0  0  0  0  0  0  0  0
  152.4048  140.6389  158.4035 C   0  0  0  0  0  0  0  0  0  0  0  0
  153.4172  139.6345  158.8876 C   0  0  0  0  0  0  0  0  0  0  0  0
  154.0017  138.8980  158.0660 O   0  0  0  0  0  0  0  0  0  0  0  0
  153.6695  139.5851  160.1125 O   0  5  0  0  0  0  0  0  0  0  0  0
  151.7514  140.5361  157.1384 C   0  0  0  0  0  0  0  0  0  0  0  0
  152.2394  137.6727  156.5730 H   0  0  0  0  0  0  0  0  0  0  0  0
  153.4201  138.4914  155.5444 H   0  0  0  0  0  0  0  0  0  0  0  0
  151.9417  137.8464  154.8550 H   0  0  0  0  0  0  0  0  0  0  0  0
  149.2133  143.0139  155.2704 H   0  0  0  0  0  0  0  0  0  0  0  0
  149.8704  142.2847  153.8206 H   0  0  0  0  0  0  0  0  0  0  0  0
  147.8358  140.7281  155.4790 H   0  0  0  0  0  0  0  0  0  0  0  0
  147.2766  141.9644  154.3599 H   0  0  0  0  0  0  0  0  0  0  0  0
  148.9557  140.6664  152.9594 H   0  0  0  0  0  0  0  0  0  0  0  0
  149.9380  143.7124  160.2483 H   0  0  0  0  0  0  0  0  0  0  0  0
  151.5201  145.4492  158.1814 H   0  0  0  0  0  0  0  0  0  0  0  0
  150.3261  146.0716  159.4360 H   0  0  0  0  0  0  0  0  0  0  0  0
  151.7521  145.1512  161.2592 H   0  0  0  0  0  0  0  0  0  0  0  0
  152.9491  144.5159  160.0132 H   0  0  0  0  0  0  0  0  0  0  0  0
  152.5628  141.8532  160.1992 H   0  0  0  0  0  0  0  0  0  0  0  0
  1  2  1  0  0  0  0
  1 20  1  0  0  0  0
  1 21  1  0  0  0  0
  1 22  1  0  0  0  0
  2 19  1  0  0  0  0
  2  3  2  0  0  0  0
  3  4  1  0  0  0  0
  4  5  1  0  0  0  0
  4  8  1  0  0  0  0
  5  6  1  0  0  0  0
  5 23  1  0  0  0  0
  5 24  1  0  0  0  0
  6  7  1  0  0  0  0
  6 25  1  0  0  0  0
  6 26  1  0  0  0  0
  7 27  1  0  0  0  0
  8 19  1  0  0  0  0
  8  9  2  0  0  0  0
  9 10  1  0  0  0  0
 10 11  1  0  0  0  0
 10 14  2  0  0  0  0
 11 13  1  0  0  0  0
 11 12  1  0  0  0  0
 11 28  1  0  0  0  0
 12 13  1  0  0  0  0
 12 29  1  0  0  0  0
 12 30  1  0  0  0  0
 13 31  1  0  0  0  0
 13 32  1  0  0  0  0
 14 15  1  0  0  0  0
 14 33  1  0  0  0  0
 15 16  1  0  0  0  0
 15 19  2  0  0  0  0
 16 17  2  0  0  0  0
 16 18  1  0  0  0  0
M  CHG  1  18  -1
M  END
> <s_m_source_file>
AV-unprocessed.smi

> <i_m_source_file_index>
997

> <i_lp_mmshare_version>
43012

> <i_f3d_flags>
0

> <s_epik_input>
W09IXVtDSDJdW0NIMl1uMW5jKFtDSDNdKWMoYzEyKWMoQyg9TylbT0hdKVtjSF1jKG4yKVtDSF0zW0NIMl1bQ0gyXTM=

> <s_epik_cmdline>
J2VwaWtfcHl0aG9uJywgJy1waCcsICc3LjAnLCAnLXRuJywgJzgnLCAnLW1hJywgJzIwMCcsICctbWV0YWxfYmluZGluZycsICctaW1hZScsICc8aW5maWxlLm1hZT4nLCAnLW9tYWUnLCAnPG91dGZpbGUubWFlPic=

> <r_epik_Ionization_Penalty>
0.00209497

> <r_epik_Ionization_Penalty_Charging>
0.0019185

> <r_epik_Ionization_Penalty_Neutral>
0.000176473

> <r_epik_State_Penalty>
0.00130684

> <r_epik_Charging_Adjusted_Penalty>
0.00322534

> <i_epik_Tot_Q>
-1

> <i_epik_Tot_abs_Q>
1

> <r_epik_Metal_State_Penalty>
-0

> <b_epik_Metal_Only>
0

> <s_lp_Force_Field>
OPLS_2005

> <r_lp_Energy>
10.3232

> <b_lp_Chiralities_Consistent>
1

> <s_lp_Variant>
AV-unprocessed.smi:997-1

> <Gold.Version>
5.8.1

> <Gold.Id.Protein>
6NUR|6NUR_protein|mol2

> <Gold.PLP.Fitness>
45.6750

> <Gold.PLP.PLP>
-35.6849

> <Gold.PLP.part.hbond>
-3.0000

> <Gold.PLP.part.metal>
0.0000

> <Gold.PLP.part.buried>
-1.7801

> <Gold.PLP.part.nonpolar>
-30.3188

> <Gold.PLP.part.repulsive>
0.1767

> <Gold.PLP.ligand.clash>
0.0000

> <Gold.PLP.ligand.torsion>
0.4086

> <Gold.PLP.Chemscore.Hbond>
3.5560

> <Gold.PLP.Chemscore.CHOScore>
0.0000

> <Gold.PLP.Chemscore.Metal>
0.0000

> <Gold.Chemscore.Hbonds>
donor molecule, donor type, donor heavy atom, donor atom, acceptor molecule, acceptor atom, score
      L1  H     7    27       P1  7957  0.64
      P1  H  7989  7998       L1     3  0.85
      P1  H  7997  8009       L1    17  2.00

> <Gold.PLP.Chemscore.Internal.Correction>
0.1393

> <Gold.Rescore>
     Score         DG    S(hbond)    S(metal)    S(lipo)     H(rot)  DE(clash)    DE(int)     intcor
     14.82     -16.58       1.84        0.00      86.94       2.04       0.05       1.71       ----

> <Gold.Chemscore.Fitness>
14.8175

> <Gold.Chemscore.DG>
-16.5833

> <Gold.Chemscore.ZeroCoef>
-5.4800

> <Gold.Chemscore.Hbond>
1.8402

> <Gold.Chemscore.Metal>
0.0000

> <Gold.Chemscore.Lipo>
86.9425

> <Gold.Chemscore.Internal_Hbond>
0.0000

> <Gold.Chemscore.DEClash>
0.0515

> <Gold.Chemscore.DEInternal>
1.7143

> <Gold.Chemscore.Rot>
2.0372

> <Gold.Chemscore.Internal.Correction>
   9.000000E+99

> <Gold.Chemscore.Hbonds>
donor molecule, donor type, donor heavy atom, donor atom, acceptor molecule, acceptor atom, score
      L1  H     7    27       P1  7957  0.61
      P1  H  7989  7998       L1     3  0.14
      P1  H  7997  8009       L1    17  0.29

> <Gold.Chemscore.Hbond.Weighted>
-6.1462

> <Gold.Chemscore.Metal.Weighted>
-0.0000

> <Gold.Chemscore.Lipo.Weighted>
-10.1723

> <Gold.Chemscore.Internal_Hbond.Weighted>
0.0000

> <Gold.Chemscore.DEClash.Weighted>
0.0515

> <Gold.Chemscore.DEInternal.Weighted>
1.7143

> <Gold.Chemscore.Rot.Weighted>
5.2152

> <Gold.Chemscore.Internal.Correction.Weighted>
   9.000000E+99

> <Gold.Protein.RotatedTorsions>
[ 6907 6896 6895 6894 ] final  -55.15 input  -60.11 | X-H torsion
[ 7974 7965 7964 7962 ] final   48.87 input  175.53 | X-H torsion
[ 8008 7997 7996 7995 ] final  126.18 input   59.86 | X-H torsion
[ 10167 10162 10161 10158 ] final   77.03 input  -65.29 | X-H torsion
[ 10718 10713 10712 10709 ] final -164.33 input   66.30 | X-H torsion
[ 10763 10752 10751 10750 ] final   17.91 input  -60.55 | X-H torsion
[ 11005 11000 10999 10996 ] final  102.40 input  -57.11 | X-H torsion

> <Gold.Protein.ActiveResidues>
 VAL166  LYS551  ARG553  GLY616  TRP617  ASP618  TYR619  PRO620  LYS621  CYS622 
 ASP623  PHE694  ASN695  SER759  ASP760  ASP761  ALA762  ILE779  LEU786  VAL792 
 PHE793  MET794  SER795  GLU796  ALA797  LYS798  CYS799  TRP800  GLU811  SER814 

> <Gold.Protein.RotatedAtoms>
  150.8276  134.7514  159.6825 H   0  0  0  0  0  0  0  0  0  0  0  0  # atno 6907 bound_to 6896
  152.4385  134.5636  159.9911 H   0  0  0  0  0  0  0  0  0  0  0  0  # atno 6908 bound_to 6896
  151.5804  133.3341  159.3043 H   0  0  0  0  0  0  0  0  0  0  0  0  # atno 6909 bound_to 6896
  146.0163  139.4600  142.9924 H   0  0  0  0  0  0  0  0  0  0  0  0  # atno 7974 bound_to 7965
  156.2856  140.2699  156.2070 H   0  0  0  0  0  0  0  0  0  0  0  0  # atno 8008 bound_to 7997
  155.0303  140.0386  157.2489 H   0  0  0  0  0  0  0  0  0  0  0  0  # atno 8009 bound_to 7997
  154.7360  140.2716  155.6420 H   0  0  0  0  0  0  0  0  0  0  0  0  # atno 8010 bound_to 7997
  139.9859  144.5792  150.7860 H   0  0  0  0  0  0  0  0  0  0  0  0  # atno 10167 bound_to 10162
  156.6375  130.8955  151.2989 H   0  0  0  0  0  0  0  0  0  0  0  0  # atno 10718 bound_to 10713
  153.1296  135.6737  153.9200 H   0  0  0  0  0  0  0  0  0  0  0  0  # atno 10763 bound_to 10752
  153.8691  135.3072  155.3442 H   0  0  0  0  0  0  0  0  0  0  0  0  # atno 10764 bound_to 10752
  154.7695  135.4946  153.9702 H   0  0  0  0  0  0  0  0  0  0  0  0  # atno 10765 bound_to 10752
  139.8777  134.9222  156.5052 H   0  0  0  0  0  0  0  0  0  0  0  0  # atno 11005 bound_to 11000
  145.7263  141.0058  143.1376 LP  0  0  0  0  0  0  0  0  0  0  0  0  # atno 17320 bound_to 7965
  144.6972  139.8930  143.7454 LP  0  0  0  0  0  0  0  0  0  0  0  0  # atno 17321 bound_to 7965
  140.7472  143.2903  151.3349 LP  0  0  0  0  0  0  0  0  0  0  0  0  # atno 17342 bound_to 10162
  139.6375  144.0602  152.2528 LP  0  0  0  0  0  0  0  0  0  0  0  0  # atno 17343 bound_to 10162
  157.7181  130.9523  150.1333 LP  0  0  0  0  0  0  0  0  0  0  0  0  # atno 17370 bound_to 10713
  156.2186  130.3672  149.8583 LP  0  0  0  0  0  0  0  0  0  0  0  0  # atno 17371 bound_to 10713
  140.8560  133.8095  155.9217 LP  0  0  0  0  0  0  0  0  0  0  0  0  # atno 17394 bound_to 11000
  140.9097  134.2276  157.4993 LP  0  0  0  0  0  0  0  0  0  0  0  0  # atno 17395 bound_to 11000

$$$$
