AV-unprocessed.smi:1615|AV-procd|sdf|6481|dock7
  -GOLD-   22720 7143D 1   1.00000     0.00000
 Structure written by MMmdl.
 32 33  0  0  0  0  0  0  0  0  1 V2000
  151.2354  140.8033  155.5486 O   0  0  0  0  0  0  0  0  0  0  0  0
  150.3852  141.6908  155.6077 C   0  0  0  0  0  0  0  0  0  0  0  0
  149.1633  141.6382  154.6901 C   0  0  0  0  0  0  0  0  0  0  0  0
  148.3746  140.4448  154.9407 N   0  0  0  0  0  0  0  0  0  0  0  0
  148.0752  139.4187  154.0642 C   0  0  0  0  0  0  0  0  0  0  0  0
  147.3071  138.5476  154.7741 C   0  0  0  0  0  0  0  0  0  0  0  0
  146.5599  136.9153  154.1447 Br  0  0  0  0  0  0  0  0  0  0  0  0
  147.1733  139.0979  156.0741 C   0  0  0  0  0  0  0  0  0  0  0  0
  147.8245  140.2481  156.1670 N   0  0  0  0  0  0  0  0  0  0  0  0
  150.4515  142.7336  156.4507 N   0  0  0  0  0  0  0  0  0  0  0  0
  151.4988  142.9723  157.4394 C   0  0  0  0  0  0  0  0  0  0  0  0
  151.3871  141.9306  158.5687 C   0  0  0  0  0  0  0  0  0  0  0  0
  152.4108  142.1965  159.6842 C   0  0  0  0  0  0  0  0  0  0  0  0
  152.2758  143.6245  160.2354 C   0  0  0  0  0  0  0  0  0  0  0  0
  152.4008  144.6647  159.1112 C   0  0  0  0  0  0  0  0  0  0  0  0
  151.3771  144.4047  157.9940 C   0  0  0  0  0  0  0  0  0  0  0  0
  148.5355  142.5166  154.8467 H   0  0  0  0  0  0  0  0  0  0  0  0
  149.4796  141.6526  153.6458 H   0  0  0  0  0  0  0  0  0  0  0  0
  148.4234  139.4006  153.0419 H   0  0  0  0  0  0  0  0  0  0  0  0
  146.6406  138.7129  156.9310 H   0  0  0  0  0  0  0  0  0  0  0  0
  149.7049  143.4124  156.4158 H   0  0  0  0  0  0  0  0  0  0  0  0
  152.4845  142.8694  156.9819 H   0  0  0  0  0  0  0  0  0  0  0  0
  150.3816  141.9490  158.9915 H   0  0  0  0  0  0  0  0  0  0  0  0
  151.5343  140.9273  158.1665 H   0  0  0  0  0  0  0  0  0  0  0  0
  152.2797  141.4730  160.4891 H   0  0  0  0  0  0  0  0  0  0  0  0
  153.4197  142.0486  159.2968 H   0  0  0  0  0  0  0  0  0  0  0  0
  151.3112  143.7359  160.7324 H   0  0  0  0  0  0  0  0  0  0  0  0
  153.0375  143.8039  160.9949 H   0  0  0  0  0  0  0  0  0  0  0  0
  152.2631  145.6679  159.5155 H   0  0  0  0  0  0  0  0  0  0  0  0
  153.4092  144.6344  158.6965 H   0  0  0  0  0  0  0  0  0  0  0  0
  151.5181  145.1292  157.1908 H   0  0  0  0  0  0  0  0  0  0  0  0
  150.3710  144.5667  158.3835 H   0  0  0  0  0  0  0  0  0  0  0  0
  1  2  2  0  0  0  0
  2  3  1  0  0  0  0
  2 10  1  0  0  0  0
  3  4  1  0  0  0  0
  3 17  1  0  0  0  0
  3 18  1  0  0  0  0
  4  9  1  0  0  0  0
  4  5  1  0  0  0  0
  5  6  2  0  0  0  0
  5 19  1  0  0  0  0
  6  7  1  0  0  0  0
  6  8  1  0  0  0  0
  8  9  2  0  0  0  0
  8 20  1  0  0  0  0
 10 11  1  0  0  0  0
 10 21  1  0  0  0  0
 11 16  1  0  0  0  0
 11 12  1  0  0  0  0
 11 22  1  0  0  0  0
 12 13  1  0  0  0  0
 12 23  1  0  0  0  0
 12 24  1  0  0  0  0
 13 14  1  0  0  0  0
 13 25  1  0  0  0  0
 13 26  1  0  0  0  0
 14 15  1  0  0  0  0
 14 27  1  0  0  0  0
 14 28  1  0  0  0  0
 15 16  1  0  0  0  0
 15 29  1  0  0  0  0
 15 30  1  0  0  0  0
 16 31  1  0  0  0  0
 16 32  1  0  0  0  0
M  END
> <s_m_source_file>
AV-unprocessed.smi

> <i_m_source_file_index>
1615

> <i_lp_mmshare_version>
43012

> <i_f3d_flags>
0

> <s_epik_input>
bjFbY0hdYyhCcilbY0hdbjFbQ0gyXUMoPU8pW05IXVtDSF0yW0NIMl1bQ0gyXVtDSDJdW0NIMl1bQ0gyXTI=

> <s_epik_cmdline>
J2VwaWtfcHl0aG9uJywgJy1waCcsICc3LjAnLCAnLXRuJywgJzgnLCAnLW1hJywgJzIwMCcsICctbWV0YWxfYmluZGluZycsICctaW1hZScsICc8aW5maWxlLm1hZT4nLCAnLW9tYWUnLCAnPG91dGZpbGUubWFlPic=

> <r_lp_tautomer_probability>
1

> <r_epik_Ionization_Penalty>
2.45271e-07

> <r_epik_Ionization_Penalty_Charging>
0

> <r_epik_Ionization_Penalty_Neutral>
2.45271e-07

> <r_epik_State_Penalty>
-0

> <r_epik_Charging_Adjusted_Penalty>
0

> <i_epik_Tot_Q>
0

> <i_epik_Tot_abs_Q>
0

> <r_epik_Metal_State_Penalty>
-0

> <b_epik_Metal_Only>
0

> <s_lp_Force_Field>
OPLS_2005

> <r_lp_Energy>
11.9835

> <b_lp_Chiralities_Consistent>
1

> <s_lp_Variant>
AV-unprocessed.smi:1615-1

> <Gold.Version>
5.8.1

> <Gold.Id.Protein>
6NUR|6NUR_protein|mol2

> <Gold.PLP.Fitness>
38.8760

> <Gold.PLP.PLP>
-31.1876

> <Gold.PLP.part.hbond>
-2.0000

> <Gold.PLP.part.metal>
0.0000

> <Gold.PLP.part.buried>
-2.3769

> <Gold.PLP.part.nonpolar>
-25.3032

> <Gold.PLP.part.repulsive>
0.1282

> <Gold.PLP.ligand.clash>
0.0000

> <Gold.PLP.ligand.torsion>
0.1117

> <Gold.PLP.Chemscore.Hbond>
1.6363

> <Gold.PLP.Chemscore.CHOScore>
1.0000

> <Gold.PLP.Chemscore.Metal>
0.0000

> <Gold.Chemscore.Hbonds>
donor molecule, donor type, donor heavy atom, donor atom, acceptor molecule, acceptor atom, score
      L1  H    10    21       P1  8028  1.00
      P1  H  7989  7998       L1     1  0.61
      L1  C     5    19       P1  7957  1.00

> <Gold.PLP.Chemscore.Internal.Correction>
0.0030

> <Gold.Rescore>
     Score         DG    S(hbond)    S(metal)    S(lipo)     H(rot)  DE(clash)    DE(int)     intcor
     15.97     -16.15       1.36        0.00      82.99       1.40       0.05       0.13       ----

> <Gold.Chemscore.Fitness>
15.9714

> <Gold.Chemscore.DG>
-16.1506

> <Gold.Chemscore.ZeroCoef>
-5.4800

> <Gold.Chemscore.Hbond>
1.3580

> <Gold.Chemscore.Metal>
0.0000

> <Gold.Chemscore.Lipo>
82.9887

> <Gold.Chemscore.Internal_Hbond>
0.0000

> <Gold.Chemscore.DEClash>
0.0534

> <Gold.Chemscore.DEInternal>
0.1259

> <Gold.Chemscore.Rot>
1.3963

> <Gold.Chemscore.Internal.Correction>
   9.000000E+99

> <Gold.Chemscore.Hbonds>
donor molecule, donor type, donor heavy atom, donor atom, acceptor molecule, acceptor atom, score
      L1  H    10    21       P1  8028  0.96
      P1  H  7989  7998       L1     1  0.14

> <Gold.Chemscore.Hbond.Weighted>
-4.5356

> <Gold.Chemscore.Metal.Weighted>
-0.0000

> <Gold.Chemscore.Lipo.Weighted>
-9.7097

> <Gold.Chemscore.Internal_Hbond.Weighted>
0.0000

> <Gold.Chemscore.DEClash.Weighted>
0.0534

> <Gold.Chemscore.DEInternal.Weighted>
0.1259

> <Gold.Chemscore.Rot.Weighted>
3.5746

> <Gold.Chemscore.Internal.Correction.Weighted>
   9.000000E+99

> <Gold.Protein.RotatedTorsions>
[ 6907 6896 6895 6894 ] final -152.70 input  -60.11 | X-H torsion
[ 7974 7965 7964 7962 ] final  -60.27 input  175.53 | X-H torsion
[ 8008 7997 7996 7995 ] final   32.20 input   59.86 | X-H torsion
[ 10167 10162 10161 10158 ] final  129.02 input  -65.29 | X-H torsion
[ 10718 10713 10712 10709 ] final   88.57 input   66.30 | X-H torsion
[ 10763 10752 10751 10750 ] final  -69.65 input  -60.55 | X-H torsion
[ 11005 11000 10999 10996 ] final -156.58 input  -57.11 | X-H torsion

> <Gold.Protein.ActiveResidues>
 VAL166  LYS551  ARG553  GLY616  TRP617  ASP618  TYR619  PRO620  LYS621  CYS622 
 ASP623  PHE694  ASN695  SER759  ASP760  ASP761  ALA762  ILE779  LEU786  VAL792 
 PHE793  MET794  SER795  GLU796  ALA797  LYS798  CYS799  TRP800  GLU811  SER814 

> <Gold.Protein.RotatedAtoms>
  151.2316  133.4447  159.2603 H   0  0  0  0  0  0  0  0  0  0  0  0  # atno 6907 bound_to 6896
  151.0789  134.9846  159.8356 H   0  0  0  0  0  0  0  0  0  0  0  0  # atno 6908 bound_to 6896
  152.5422  134.2257  159.8858 H   0  0  0  0  0  0  0  0  0  0  0  0  # atno 6909 bound_to 6896
  145.8175  140.8561  143.0150 H   0  0  0  0  0  0  0  0  0  0  0  0  # atno 7974 bound_to 7965
  155.1187  140.3246  155.4503 H   0  0  0  0  0  0  0  0  0  0  0  0  # atno 8008 bound_to 7997
  156.2669  140.2031  156.6257 H   0  0  0  0  0  0  0  0  0  0  0  0  # atno 8009 bound_to 7997
  154.6700  140.0537  157.0142 H   0  0  0  0  0  0  0  0  0  0  0  0  # atno 8010 bound_to 7997
  139.5498  144.6804  151.4359 H   0  0  0  0  0  0  0  0  0  0  0  0  # atno 10167 bound_to 10162
  157.6950  131.0300  150.3294 H   0  0  0  0  0  0  0  0  0  0  0  0  # atno 10718 bound_to 10713
  154.4064  135.6019  153.5927 H   0  0  0  0  0  0  0  0  0  0  0  0  # atno 10763 bound_to 10752
  152.9789  135.5919  154.4123 H   0  0  0  0  0  0  0  0  0  0  0  0  # atno 10764 bound_to 10752
  154.3929  135.2842  155.2122 H   0  0  0  0  0  0  0  0  0  0  0  0  # atno 10765 bound_to 10752
  140.6740  134.4216  157.5230 H   0  0  0  0  0  0  0  0  0  0  0  0  # atno 11005 bound_to 11000
  144.6751  140.0485  143.7479 LP  0  0  0  0  0  0  0  0  0  0  0  0  # atno 17320 bound_to 7965
  145.9711  139.2870  143.1098 LP  0  0  0  0  0  0  0  0  0  0  0  0  # atno 17321 bound_to 7965
  140.6757  143.8194  150.7056 LP  0  0  0  0  0  0  0  0  0  0  0  0  # atno 17342 bound_to 10162
  140.1632  143.4257  152.2052 LP  0  0  0  0  0  0  0  0  0  0  0  0  # atno 17343 bound_to 10162
  156.3770  130.3873  149.7131 LP  0  0  0  0  0  0  0  0  0  0  0  0  # atno 17370 bound_to 10713
  156.4526  130.7914  151.2935 LP  0  0  0  0  0  0  0  0  0  0  0  0  # atno 17371 bound_to 10713
  139.8972  134.8641  156.2053 LP  0  0  0  0  0  0  0  0  0  0  0  0  # atno 17394 bound_to 11000
  141.0370  133.6958  156.1529 LP  0  0  0  0  0  0  0  0  0  0  0  0  # atno 17395 bound_to 11000

$$$$
