AV-unprocessed.smi:1994|AV-procd|sdf|8075|dock5
  -GOLD-   2272010283D 1   1.00000     0.00000
 Structure written by MMmdl.
 40 42  0  0  0  0  0  0  0  0  2 V2000
  149.6527  141.5896  154.9680 C   0  0  0  0  0  0  0  0  0  0  0  0
  150.3805  141.9071  156.2311 C   0  0  0  0  0  0  0  0  0  0  0  0
  150.3998  143.1147  156.8633 N   0  3  0  0  0  0  0  0  0  0  0  0
  151.1899  143.0344  158.0113 C   0  0  0  0  0  0  0  0  0  0  0  0
  151.5087  143.9930  158.9682 C   0  0  0  0  0  0  0  0  0  0  0  0
  152.3488  143.5790  160.0231 C   0  0  0  0  0  0  0  0  0  0  0  0
  152.8377  142.2585  160.0978 C   0  0  0  0  0  0  0  0  0  0  0  0
  152.5083  141.2954  159.1210 C   0  0  0  0  0  0  0  0  0  0  0  0
  151.6762  141.7131  158.0829 C   0  0  0  0  0  0  0  0  0  0  0  0
  151.1484  141.0540  156.9676 N   0  0  0  0  0  0  0  0  0  0  0  0
  151.4779  139.6373  156.7503 C   0  0  0  0  0  0  0  0  0  0  0  0
  151.6743  139.2854  155.2616 C   0  0  1  0  0  0  0  0  0  0  0  0
  152.9963  139.5933  154.8676 O   0  0  0  0  0  0  0  0  0  0  0  0
  151.4091  137.8013  154.9734 C   0  0  0  0  0  0  0  0  0  0  0  0
  150.5269  137.2962  155.9667 O   0  0  0  0  0  0  0  0  0  0  0  0
  150.1791  135.9632  155.9172 C   0  0  0  0  0  0  0  0  0  0  0  0
  150.4557  135.1093  154.8189 C   0  0  0  0  0  0  0  0  0  0  0  0
  150.0647  133.7566  154.8509 C   0  0  0  0  0  0  0  0  0  0  0  0
  149.3939  133.2410  155.9752 C   0  0  0  0  0  0  0  0  0  0  0  0
  149.1140  134.0809  157.0687 C   0  0  0  0  0  0  0  0  0  0  0  0
  149.5048  135.4336  157.0383 C   0  0  0  0  0  0  0  0  0  0  0  0
  149.2311  136.2312  158.0984 F   0  0  0  0  0  0  0  0  0  0  0  0
  149.0140  142.4228  154.6737 H   0  0  0  0  0  0  0  0  0  0  0  0
  149.0284  140.7061  155.1022 H   0  0  0  0  0  0  0  0  0  0  0  0
  150.3631  141.3955  154.1642 H   0  0  0  0  0  0  0  0  0  0  0  0
  151.1360  145.0053  158.9128 H   0  0  0  0  0  0  0  0  0  0  0  0
  152.6235  144.2884  160.7904 H   0  0  0  0  0  0  0  0  0  0  0  0
  153.4785  141.9778  160.9210 H   0  0  0  0  0  0  0  0  0  0  0  0
  152.8879  140.2861  159.1861 H   0  0  0  0  0  0  0  0  0  0  0  0
  152.3847  139.4159  157.3147 H   0  0  0  0  0  0  0  0  0  0  0  0
  150.6868  139.0316  157.1944 H   0  0  0  0  0  0  0  0  0  0  0  0
  151.0040  139.8868  154.6470 H   0  0  0  0  0  0  0  0  0  0  0  0
  153.2048  139.0860  154.0986 H   0  0  0  0  0  0  0  0  0  0  0  0
  150.9488  137.6943  153.9894 H   0  0  0  0  0  0  0  0  0  0  0  0
  152.3491  137.2463  154.9714 H   0  0  0  0  0  0  0  0  0  0  0  0
  150.9660  135.4686  153.9383 H   0  0  0  0  0  0  0  0  0  0  0  0
  150.2799  133.1135  154.0103 H   0  0  0  0  0  0  0  0  0  0  0  0
  149.0944  132.2036  155.9985 H   0  0  0  0  0  0  0  0  0  0  0  0
  148.5991  133.6875  157.9328 H   0  0  0  0  0  0  0  0  0  0  0  0
  149.9086  143.9341  156.5297 H   0  0  0  0  0  0  0  0  0  0  0  0
  1  2  1  0  0  0  0
  1 23  1  0  0  0  0
  1 24  1  0  0  0  0
  1 25  1  0  0  0  0
  2 10  1  0  0  0  0
  2  3  2  0  0  0  0
  3  4  1  0  0  0  0
  3 40  1  0  0  0  0
  4  9  2  0  0  0  0
  4  5  1  0  0  0  0
  5  6  2  0  0  0  0
  5 26  1  0  0  0  0
  6  7  1  0  0  0  0
  6 27  1  0  0  0  0
  7  8  2  0  0  0  0
  7 28  1  0  0  0  0
  8  9  1  0  0  0  0
  8 29  1  0  0  0  0
  9 10  1  0  0  0  0
 10 11  1  0  0  0  0
 11 12  1  0  0  0  0
 11 30  1  0  0  0  0
 11 31  1  0  0  0  0
 12 13  1  0  0  0  0
 12 14  1  0  0  0  0
 12 32  1  0  0  0  0
 13 33  1  0  0  0  0
 14 15  1  0  0  0  0
 14 34  1  0  0  0  0
 14 35  1  0  0  0  0
 15 16  1  0  0  0  0
 16 21  1  0  0  0  0
 16 17  2  0  0  0  0
 17 18  1  0  0  0  0
 17 36  1  0  0  0  0
 18 19  2  0  0  0  0
 18 37  1  0  0  0  0
 19 20  1  0  0  0  0
 19 38  1  0  0  0  0
 20 21  2  0  0  0  0
 20 39  1  0  0  0  0
 21 22  1  0  0  0  0
M  CHG  1   3   1
M  END
> <s_m_source_file>
AV-unprocessed.smi

> <i_m_source_file_index>
1994

> <i_lp_mmshare_version>
43012

> <i_f3d_flags>
0

> <s_epik_input>
W2NIXTFbY0hdW2NIXVtjSF1jKGMxMiluKGMobjIpW0NIM10pW0NIMl1bQ0BIXShbT0hdKVtDSDJdT2MzW2NIXVtjSF1bY0hdW2NIXWMzRg==

> <s_epik_cmdline>
J2VwaWtfcHl0aG9uJywgJy1waCcsICc3LjAnLCAnLXRuJywgJzgnLCAnLW1hJywgJzIwMCcsICctbWV0YWxfYmluZGluZycsICctaW1hZScsICc8aW5maWxlLm1hZT4nLCAnLW9tYWUnLCAnPG91dGZpbGUubWFlPic=

> <r_lp_tautomer_probability>
1

> <r_epik_Ionization_Penalty>
1.03916

> <r_epik_Ionization_Penalty_Charging>
1.03916

> <r_epik_Ionization_Penalty_Neutral>
2.3993e-06

> <r_epik_State_Penalty>
1.09101

> <r_epik_Charging_Adjusted_Penalty>
2.13018

> <i_epik_Tot_Q>
1

> <i_epik_Tot_abs_Q>
1

> <r_epik_Metal_State_Penalty>
5.08156

> <b_epik_Metal_Only>
0

> <s_lp_Force_Field>
OPLS_2005

> <r_lp_Energy>
18.0159

> <b_lp_Chiralities_Consistent>
1

> <s_lp_Variant>
AV-unprocessed.smi:1994-4

> <Gold.Version>
5.8.1

> <Gold.Id.Protein>
6NUR|6NUR_protein|mol2

> <Gold.PLP.Fitness>
51.7688

> <Gold.PLP.PLP>
-45.0680

> <Gold.PLP.part.hbond>
-3.0000

> <Gold.PLP.part.metal>
0.0000

> <Gold.PLP.part.buried>
-4.7733

> <Gold.PLP.part.nonpolar>
-37.0061

> <Gold.PLP.part.repulsive>
0.0651

> <Gold.PLP.ligand.clash>
0.0000

> <Gold.PLP.ligand.torsion>
1.1649

> <Gold.PLP.Chemscore.Hbond>
3.0000

> <Gold.PLP.Chemscore.CHOScore>
0.0000

> <Gold.PLP.Chemscore.Metal>
0.0000

> <Gold.Chemscore.Hbonds>
donor molecule, donor type, donor heavy atom, donor atom, acceptor molecule, acceptor atom, score
      L1  H     3    40       P1  8028  2.00
      P1  H  7997  8010       L1    13  1.00

> <Gold.PLP.Chemscore.Internal.Correction>
0.0307

> <Gold.Rescore>
     Score         DG    S(hbond)    S(metal)    S(lipo)     H(rot)  DE(clash)    DE(int)     intcor
     18.98     -20.05       1.96        0.00     118.24       2.27       0.02       1.06       ----

> <Gold.Chemscore.Fitness>
18.9795

> <Gold.Chemscore.DG>
-20.0525

> <Gold.Chemscore.ZeroCoef>
-5.4800

> <Gold.Chemscore.Hbond>
1.9615

> <Gold.Chemscore.Metal>
0.0000

> <Gold.Chemscore.Lipo>
118.2388

> <Gold.Chemscore.Internal_Hbond>
0.0000

> <Gold.Chemscore.DEClash>
0.0174

> <Gold.Chemscore.DEInternal>
1.0557

> <Gold.Chemscore.Rot>
2.2706

> <Gold.Chemscore.Internal.Correction>
   9.000000E+99

> <Gold.Chemscore.Hbonds>
donor molecule, donor type, donor heavy atom, donor atom, acceptor molecule, acceptor atom, score
      L1  H     3    40       P1  8028  0.93
      P1  H  7997  8010       L1    13  0.93

> <Gold.Chemscore.Hbond.Weighted>
-6.5514

> <Gold.Chemscore.Metal.Weighted>
-0.0000

> <Gold.Chemscore.Lipo.Weighted>
-13.8339

> <Gold.Chemscore.Internal_Hbond.Weighted>
0.0000

> <Gold.Chemscore.DEClash.Weighted>
0.0174

> <Gold.Chemscore.DEInternal.Weighted>
1.0557

> <Gold.Chemscore.Rot.Weighted>
5.8128

> <Gold.Chemscore.Internal.Correction.Weighted>
   9.000000E+99

> <Gold.Protein.RotatedTorsions>
[ 6907 6896 6895 6894 ] final   64.77 input  -60.11 | X-H torsion
[ 7974 7965 7964 7962 ] final -141.92 input  175.53 | X-H torsion
[ 8008 7997 7996 7995 ] final  105.72 input   59.86 | X-H torsion
[ 10167 10162 10161 10158 ] final  109.90 input  -65.29 | X-H torsion
[ 10718 10713 10712 10709 ] final -151.09 input   66.30 | X-H torsion
[ 10763 10752 10751 10750 ] final  127.75 input  -60.55 | X-H torsion
[ 11005 11000 10999 10996 ] final   15.94 input  -57.11 | X-H torsion

> <Gold.Protein.ActiveResidues>
 VAL166  LYS551  ARG553  GLY616  TRP617  ASP618  TYR619  PRO620  LYS621  CYS622 
 ASP623  PHE694  ASN695  SER759  ASP760  ASP761  ALA762  ILE779  LEU786  VAL792 
 PHE793  MET794  SER795  GLU796  ALA797  LYS798  CYS799  TRP800  GLU811  SER814 

> <Gold.Protein.RotatedAtoms>
  152.4357  134.5691  159.9915 H   0  0  0  0  0  0  0  0  0  0  0  0  # atno 6907 bound_to 6896
  151.5802  133.3373  159.3015 H   0  0  0  0  0  0  0  0  0  0  0  0  # atno 6908 bound_to 6896
  150.8255  134.7519  159.6873 H   0  0  0  0  0  0  0  0  0  0  0  0  # atno 6909 bound_to 6896
  144.8482  140.6021  143.5407 H   0  0  0  0  0  0  0  0  0  0  0  0  # atno 7974 bound_to 7965
  156.1683  140.3125  155.8928 H   0  0  0  0  0  0  0  0  0  0  0  0  # atno 8008 bound_to 7997
  155.3640  140.0478  157.3063 H   0  0  0  0  0  0  0  0  0  0  0  0  # atno 8009 bound_to 7997
  154.5215  140.2200  155.8978 H   0  0  0  0  0  0  0  0  0  0  0  0  # atno 8010 bound_to 7997
  139.6730  144.7124  151.1653 H   0  0  0  0  0  0  0  0  0  0  0  0  # atno 10167 bound_to 10162
  156.4546  130.8184  151.2415 H   0  0  0  0  0  0  0  0  0  0  0  0  # atno 10718 bound_to 10713
  153.7145  135.3263  155.3253 H   0  0  0  0  0  0  0  0  0  0  0  0  # atno 10763 bound_to 10752
  154.8375  135.4485  154.1280 H   0  0  0  0  0  0  0  0  0  0  0  0  # atno 10764 bound_to 10752
  153.2383  135.6968  153.7891 H   0  0  0  0  0  0  0  0  0  0  0  0  # atno 10765 bound_to 10752
  140.4527  134.1208  155.7704 H   0  0  0  0  0  0  0  0  0  0  0  0  # atno 11005 bound_to 11000
  145.4553  139.1519  143.3896 LP  0  0  0  0  0  0  0  0  0  0  0  0  # atno 17320 bound_to 7965
  146.2763  140.4681  142.8794 LP  0  0  0  0  0  0  0  0  0  0  0  0  # atno 17321 bound_to 7965
  140.7625  143.5815  150.8890 LP  0  0  0  0  0  0  0  0  0  0  0  0  # atno 17342 bound_to 10162
  139.9482  143.6303  152.3036 LP  0  0  0  0  0  0  0  0  0  0  0  0  # atno 17343 bound_to 10162
  157.7501  131.0127  150.3393 LP  0  0  0  0  0  0  0  0  0  0  0  0  # atno 17370 bound_to 10713
  156.3780  130.3875  149.7124 LP  0  0  0  0  0  0  0  0  0  0  0  0  # atno 17371 bound_to 10713
  141.1657  133.8708  157.1722 LP  0  0  0  0  0  0  0  0  0  0  0  0  # atno 17394 bound_to 11000
  139.9996  135.0033  157.0161 LP  0  0  0  0  0  0  0  0  0  0  0  0  # atno 17395 bound_to 11000

$$$$
