AV-unprocessed.smi:3029|AV-procd|sdf|11525|dock5
  -GOLD-   2272016463D 1   1.00000     0.00000
 Structure written by MMmdl.
 42 43  0  0  0  0  0  0  0  0  4 V2000
  150.9623  145.1571  160.4006 O   0  0  0  0  0  0  0  0  0  0  0  0
  151.6040  144.1104  160.3158 C   0  0  0  0  0  0  0  0  0  0  0  0
  152.5543  143.6925  161.3513 C   0  0  0  0  0  0  0  0  0  0  0  0
  153.2685  142.5552  161.2398 C   0  0  0  0  0  0  0  0  0  0  0  0
  153.1155  141.7021  160.0776 C   0  0  0  0  0  0  0  0  0  0  0  0
  153.8967  140.4939  159.9328 N   0  3  0  0  0  0  0  0  0  0  0  0
  153.6598  139.7423  158.9918 O   0  0  0  0  0  0  0  0  0  0  0  0
  154.7770  140.2608  160.7542 O   0  5  0  0  0  0  0  0  0  0  0  0
  152.2328  142.0822  159.1331 C   0  0  0  0  0  0  0  0  0  0  0  0
  151.4814  143.2687  159.2451 N   0  0  0  0  0  0  0  0  0  0  0  0
  150.5669  143.5939  158.1383 C   0  0  0  0  0  0  0  0  0  0  0  0
  150.9595  142.8937  156.8224 C   0  0  0  0  0  0  0  0  0  0  0  0
  149.7702  142.5093  156.0315 N   0  3  0  0  0  0  0  0  0  0  0  0
  149.4592  141.0626  156.0012 C   0  0  2  0  0  0  0  0  0  0  0  0
  150.7702  140.2463  155.9528 C   0  0  0  0  0  0  0  0  0  0  0  0
  150.5084  138.7384  155.8583 C   0  0  0  0  0  0  0  0  0  0  0  0
  149.6353  138.4169  154.6417 C   0  0  0  0  0  0  0  0  0  0  0  0
  148.3155  139.1969  154.6991 C   0  0  0  0  0  0  0  0  0  0  0  0
  148.5360  140.7251  154.7945 C   0  0  1  0  0  0  0  0  0  0  0  0
  147.1707  141.4589  154.8445 C   0  0  0  0  0  0  0  0  0  0  0  0
  147.3443  142.7782  154.7631 F   0  0  0  0  0  0  0  0  0  0  0  0
  146.3738  141.0714  153.8488 F   0  0  0  0  0  0  0  0  0  0  0  0
  146.5448  141.1794  155.9875 F   0  0  0  0  0  0  0  0  0  0  0  0
  152.6838  144.3131  162.2259 H   0  0  0  0  0  0  0  0  0  0  0  0
  153.9556  142.2881  162.0293 H   0  0  0  0  0  0  0  0  0  0  0  0
  152.0523  141.5193  158.2287 H   0  0  0  0  0  0  0  0  0  0  0  0
  149.5442  143.3191  158.4014 H   0  0  0  0  0  0  0  0  0  0  0  0
  150.5331  144.6738  157.9839 H   0  0  0  0  0  0  0  0  0  0  0  0
  151.5974  143.5525  156.2334 H   0  0  0  0  0  0  0  0  0  0  0  0
  151.5467  142.0019  157.0447 H   0  0  0  0  0  0  0  0  0  0  0  0
  148.9774  142.9729  156.4529 H   0  0  0  0  0  0  0  0  0  0  0  0
  148.9208  140.8065  156.9151 H   0  0  0  0  0  0  0  0  0  0  0  0
  151.3686  140.5611  155.0965 H   0  0  0  0  0  0  0  0  0  0  0  0
  151.3756  140.4414  156.8381 H   0  0  0  0  0  0  0  0  0  0  0  0
  151.4543  138.1999  155.7907 H   0  0  0  0  0  0  0  0  0  0  0  0
  150.0170  138.3908  156.7680 H   0  0  0  0  0  0  0  0  0  0  0  0
  150.1716  138.6659  153.7249 H   0  0  0  0  0  0  0  0  0  0  0  0
  149.4333  137.3461  154.6016 H   0  0  0  0  0  0  0  0  0  0  0  0
  147.7267  138.9564  153.8135 H   0  0  0  0  0  0  0  0  0  0  0  0
  147.7328  138.8541  155.5552 H   0  0  0  0  0  0  0  0  0  0  0  0
  149.0458  141.0379  153.8814 H   0  0  0  0  0  0  0  0  0  0  0  0
  149.8700  142.8485  155.0853 H   0  0  0  0  0  0  0  0  0  0  0  0
  1  2  2  0  0  0  0
  2 10  1  0  0  0  0
  2  3  1  0  0  0  0
  3  4  2  0  0  0  0
  3 24  1  0  0  0  0
  4  5  1  0  0  0  0
  4 25  1  0  0  0  0
  5  6  1  0  0  0  0
  5  9  2  0  0  0  0
  6  7  2  0  0  0  0
  6  8  1  0  0  0  0
  9 10  1  0  0  0  0
  9 26  1  0  0  0  0
 10 11  1  0  0  0  0
 11 12  1  0  0  0  0
 11 27  1  0  0  0  0
 11 28  1  0  0  0  0
 12 13  1  0  0  0  0
 12 29  1  0  0  0  0
 12 30  1  0  0  0  0
 13 14  1  0  0  0  0
 13 31  1  0  0  0  0
 13 42  1  0  0  0  0
 14 19  1  0  0  0  0
 14 15  1  0  0  0  0
 14 32  1  0  0  0  0
 15 16  1  0  0  0  0
 15 33  1  0  0  0  0
 15 34  1  0  0  0  0
 16 17  1  0  0  0  0
 16 35  1  0  0  0  0
 16 36  1  0  0  0  0
 17 18  1  0  0  0  0
 17 37  1  0  0  0  0
 17 38  1  0  0  0  0
 18 19  1  0  0  0  0
 18 39  1  0  0  0  0
 18 40  1  0  0  0  0
 19 20  1  0  0  0  0
 19 41  1  0  0  0  0
 20 21  1  0  0  0  0
 20 22  1  0  0  0  0
 20 23  1  0  0  0  0
M  CHG  1   6   1
M  CHG  1   8  -1
M  CHG  1  13   1
M  END
> <s_m_source_file>
AV-unprocessed.smi

> <i_m_source_file_index>
3029

> <i_lp_mmshare_version>
43012

> <i_f3d_flags>
0

> <s_epik_input>
Tz1jMVtjSF1bY0hdYyhbTitdKD1PKVtPLV0pW2NIXW4xW0NIMl1bQ0gyXVtOSF1bQ0BASF0yW0NIMl1bQ0gyXVtDSDJdW0NIMl1bQ0BIXTJDKEYpKEYpRg==

> <s_epik_cmdline>
J2VwaWtfcHl0aG9uJywgJy1waCcsICc3LjAnLCAnLXRuJywgJzgnLCAnLW1hJywgJzIwMCcsICctbWV0YWxfYmluZGluZycsICctaW1hZScsICc8aW5maWxlLm1hZT4nLCAnLW9tYWUnLCAnPG91dGZpbGUubWFlPic=

> <r_lp_tautomer_probability>
1

> <r_epik_Ionization_Penalty>
0.037386

> <r_epik_Ionization_Penalty_Charging>
0.037386

> <r_epik_Ionization_Penalty_Neutral>
0

> <r_epik_State_Penalty>
0.0312892

> <r_epik_Charging_Adjusted_Penalty>
0.0686752

> <i_epik_Tot_Q>
1

> <i_epik_Tot_abs_Q>
3

> <r_epik_Metal_State_Penalty>
0.0312892

> <b_epik_Metal_Only>
0

> <s_lp_Force_Field>
OPLS_2005

> <r_lp_Energy>
38.6527

> <b_lp_Chiralities_Consistent>
1

> <s_lp_Variant>
AV-unprocessed.smi:3029-1

> <Gold.Version>
5.8.1

> <Gold.Id.Protein>
6NUR|6NUR_protein|mol2

> <Gold.PLP.Fitness>
51.6620

> <Gold.PLP.PLP>
-48.8656

> <Gold.PLP.part.hbond>
-2.0000

> <Gold.PLP.part.metal>
0.0000

> <Gold.PLP.part.buried>
-0.1359

> <Gold.PLP.part.nonpolar>
-45.6164

> <Gold.PLP.part.repulsive>
0.3513

> <Gold.PLP.ligand.clash>
0.0000

> <Gold.PLP.ligand.torsion>
1.1749

> <Gold.PLP.Chemscore.Hbond>
1.6978

> <Gold.PLP.Chemscore.CHOScore>
0.0000

> <Gold.PLP.Chemscore.Metal>
0.0000

> <Gold.Chemscore.Hbonds>
donor molecule, donor type, donor heavy atom, donor atom, acceptor molecule, acceptor atom, score
      L1  H    13    31       P1  8028  0.29
      P1  H  7997  8010       L1     7  0.59

> <Gold.PLP.Chemscore.Internal.Correction>
0.0528

> <Gold.Rescore>
     Score         DG    S(hbond)    S(metal)    S(lipo)     H(rot)  DE(clash)    DE(int)     intcor
     13.98     -16.96       0.96        0.00     112.41       1.90       0.33       2.64       ----

> <Gold.Chemscore.Fitness>
13.9820

> <Gold.Chemscore.DG>
-16.9566

> <Gold.Chemscore.ZeroCoef>
-5.4800

> <Gold.Chemscore.Hbond>
0.9577

> <Gold.Chemscore.Metal>
0.0000

> <Gold.Chemscore.Lipo>
112.4059

> <Gold.Chemscore.Internal_Hbond>
0.0000

> <Gold.Chemscore.DEClash>
0.3343

> <Gold.Chemscore.DEInternal>
2.6403

> <Gold.Chemscore.Rot>
1.9037

> <Gold.Chemscore.Internal.Correction>
   9.000000E+99

> <Gold.Chemscore.Hbonds>
donor molecule, donor type, donor heavy atom, donor atom, acceptor molecule, acceptor atom, score
      L1  H    13    31       P1  8028  0.15
      P1  H  7997  8010       L1     7  0.48

> <Gold.Chemscore.Hbond.Weighted>
-3.1987

> <Gold.Chemscore.Metal.Weighted>
-0.0000

> <Gold.Chemscore.Lipo.Weighted>
-13.1515

> <Gold.Chemscore.Internal_Hbond.Weighted>
0.0000

> <Gold.Chemscore.DEClash.Weighted>
0.3343

> <Gold.Chemscore.DEInternal.Weighted>
2.6403

> <Gold.Chemscore.Rot.Weighted>
4.8736

> <Gold.Chemscore.Internal.Correction.Weighted>
   9.000000E+99

> <Gold.Protein.RotatedTorsions>
[ 6907 6896 6895 6894 ] final  -97.55 input  -60.11 | X-H torsion
[ 7974 7965 7964 7962 ] final  -47.48 input  175.53 | X-H torsion
[ 8008 7997 7996 7995 ] final    2.39 input   59.86 | X-H torsion
[ 10167 10162 10161 10158 ] final -100.68 input  -65.29 | X-H torsion
[ 10718 10713 10712 10709 ] final   75.01 input   66.30 | X-H torsion
[ 10763 10752 10751 10750 ] final  157.44 input  -60.55 | X-H torsion
[ 11005 11000 10999 10996 ] final  149.66 input  -57.11 | X-H torsion

> <Gold.Protein.ActiveResidues>
 VAL166  LYS551  ARG553  GLY616  TRP617  ASP618  TYR619  PRO620  LYS621  CYS622 
 ASP623  PHE694  ASN695  SER759  ASP760  ASP761  ALA762  ILE779  LEU786  VAL792 
 PHE793  MET794  SER795  GLU796  ALA797  LYS798  CYS799  TRP800  GLU811  SER814 

> <Gold.Protein.RotatedAtoms>
  150.7020  134.1331  159.4076 H   0  0  0  0  0  0  0  0  0  0  0  0  # atno 6907 bound_to 6896
  151.9316  135.0251  160.0539 H   0  0  0  0  0  0  0  0  0  0  0  0  # atno 6908 bound_to 6896
  152.2170  133.4919  159.5178 H   0  0  0  0  0  0  0  0  0  0  0  0  # atno 6909 bound_to 6896
  145.9612  140.7477  142.9456 H   0  0  0  0  0  0  0  0  0  0  0  0  # atno 7974 bound_to 7965
  154.6911  140.2653  155.6812 H   0  0  0  0  0  0  0  0  0  0  0  0  # atno 8008 bound_to 7997
  156.2732  140.2791  156.1412 H   0  0  0  0  0  0  0  0  0  0  0  0  # atno 8009 bound_to 7997
  155.0896  140.0373  157.2654 H   0  0  0  0  0  0  0  0  0  0  0  0  # atno 8010 bound_to 7997
  140.2493  143.3483  152.0729 H   0  0  0  0  0  0  0  0  0  0  0  0  # atno 10167 bound_to 10162
  157.6616  130.9705  150.1292 H   0  0  0  0  0  0  0  0  0  0  0  0  # atno 10718 bound_to 10713
  154.2003  135.2790  155.2993 H   0  0  0  0  0  0  0  0  0  0  0  0  # atno 10763 bound_to 10752
  154.5859  135.5575  153.7234 H   0  0  0  0  0  0  0  0  0  0  0  0  # atno 10764 bound_to 10752
  153.0089  135.6356  154.2142 H   0  0  0  0  0  0  0  0  0  0  0  0  # atno 10765 bound_to 10752
  140.1063  134.8952  157.1871 H   0  0  0  0  0  0  0  0  0  0  0  0  # atno 11005 bound_to 11000
  144.6815  140.2594  143.7321 LP  0  0  0  0  0  0  0  0  0  0  0  0  # atno 17320 bound_to 7965
  145.8037  139.1975  143.2033 LP  0  0  0  0  0  0  0  0  0  0  0  0  # atno 17321 bound_to 7965
  139.5051  144.6789  151.6059 LP  0  0  0  0  0  0  0  0  0  0  0  0  # atno 17342 bound_to 10162
  140.6053  143.9536  150.6414 LP  0  0  0  0  0  0  0  0  0  0  0  0  # atno 17343 bound_to 10162
  156.2143  130.3669  149.8632 LP  0  0  0  0  0  0  0  0  0  0  0  0  # atno 17370 bound_to 10713
  156.6502  130.8740  151.3530 LP  0  0  0  0  0  0  0  0  0  0  0  0  # atno 17371 bound_to 10713
  140.3151  134.2980  155.7258 LP  0  0  0  0  0  0  0  0  0  0  0  0  # atno 17394 bound_to 11000
  141.2119  133.7674  156.9831 LP  0  0  0  0  0  0  0  0  0  0  0  0  # atno 17395 bound_to 11000

$$$$
