AV-unprocessed.smi:227|AV-procd|sdf|1736|dock6
  -GOLD-   2262020233D 1   1.00000     0.00000
 Structure written by MMmdl.
 54 58  0  0  0  0  0  0  0  0  1 V2000
  138.3139  137.2844  153.5578 O   0  0  0  0  0  0  0  0  0  0  0  0
  139.6444  137.5363  153.1540 C   0  0  0  0  0  0  0  0  0  0  0  0
  140.5454  137.9348  154.3520 C   0  0  1  0  0  0  0  0  0  0  0  0
  142.0442  138.0246  153.9605 C   0  0  0  0  0  0  0  0  0  0  0  0
  142.5882  136.7836  153.4386 N   0  0  0  0  0  0  0  0  0  0  0  0
  141.9552  135.5640  153.4022 C   0  0  0  0  0  0  0  0  0  0  0  0
  142.6518  134.5949  152.8759 N   0  0  0  0  0  0  0  0  0  0  0  0
  143.8576  135.1873  152.5140 C   0  0  0  0  0  0  0  0  0  0  0  0
  145.0550  134.7298  151.8853 C   0  0  0  0  0  0  0  0  0  0  0  0
  145.2838  133.4550  151.4617 N   0  0  0  0  0  0  0  0  0  0  0  0
  144.3144  132.3878  151.6638 C   0  0  2  0  0  0  0  0  0  0  0  0
  145.0921  131.1446  151.1982 C   0  0  0  0  0  0  0  0  0  0  0  0
  145.9312  131.7256  150.0515 C   0  0  0  0  0  0  0  0  0  0  0  0
  145.4524  133.1896  150.0386 C   0  0  1  0  0  0  0  0  0  0  0  0
  144.0089  133.3132  149.4854 C   0  0  1  0  0  0  0  0  0  0  0  0
  143.7557  132.7008  148.0955 C   0  0  0  0  0  0  0  0  0  0  0  0
  143.8761  133.6970  147.1026 O   0  0  0  0  0  0  0  0  0  0  0  0
  143.2008  132.6883  150.6392 C   0  0  0  0  0  0  0  0  0  0  0  0
  146.0508  135.6395  151.7146 N   0  0  0  0  0  0  0  0  0  0  0  0
  145.8927  136.9058  152.1071 C   0  0  0  0  0  0  0  0  0  0  0  0
  144.8358  137.4713  152.6901 N   0  0  0  0  0  0  0  0  0  0  0  0
  143.8340  136.5659  152.8771 C   0  0  0  0  0  0  0  0  0  0  0  0
  140.0684  139.2674  154.9856 C   0  0  1  0  0  0  0  0  0  0  0  0
  140.9667  139.8058  156.1001 C   0  0  0  0  0  0  0  0  0  0  0  0
  140.9494  141.3272  155.9231 C   0  0  0  0  0  0  0  0  0  0  0  0
  140.0008  141.5759  154.8978 O   0  0  0  0  0  0  0  0  0  0  0  0
  140.0201  140.4599  154.0265 C   0  0  0  0  0  0  0  0  0  0  0  0
  137.9504  136.6179  152.9949 H   0  0  0  0  0  0  0  0  0  0  0  0
  140.0455  136.6609  152.6422 H   0  0  0  0  0  0  0  0  0  0  0  0
  139.5930  138.3314  152.4115 H   0  0  0  0  0  0  0  0  0  0  0  0
  140.4447  137.1642  155.1182 H   0  0  0  0  0  0  0  0  0  0  0  0
  142.1919  138.8090  153.2170 H   0  0  0  0  0  0  0  0  0  0  0  0
  142.6509  138.3026  154.8221 H   0  0  0  0  0  0  0  0  0  0  0  0
  140.9526  135.4168  153.7764 H   0  0  0  0  0  0  0  0  0  0  0  0
  143.9505  132.2662  152.6822 H   0  0  0  0  0  0  0  0  0  0  0  0
  145.7384  130.7672  151.9916 H   0  0  0  0  0  0  0  0  0  0  0  0
  144.4383  130.3326  150.8781 H   0  0  0  0  0  0  0  0  0  0  0  0
  146.9919  131.6763  150.3009 H   0  0  0  0  0  0  0  0  0  0  0  0
  145.7943  131.2032  149.1059 H   0  0  0  0  0  0  0  0  0  0  0  0
  146.1607  133.8463  149.5326 H   0  0  0  0  0  0  0  0  0  0  0  0
  143.7675  134.3765  149.4288 H   0  0  0  0  0  0  0  0  0  0  0  0
  144.4827  131.9153  147.8887 H   0  0  0  0  0  0  0  0  0  0  0  0
  142.7630  132.2572  148.0233 H   0  0  0  0  0  0  0  0  0  0  0  0
  143.0995  133.6790  146.5644 H   0  0  0  0  0  0  0  0  0  0  0  0
  142.6522  131.7913  150.3496 H   0  0  0  0  0  0  0  0  0  0  0  0
  142.4820  133.4061  151.0362 H   0  0  0  0  0  0  0  0  0  0  0  0
  146.7333  137.5595  151.9271 H   0  0  0  0  0  0  0  0  0  0  0  0
  139.0659  139.1303  155.3943 H   0  0  0  0  0  0  0  0  0  0  0  0
  140.5927  139.5120  157.0814 H   0  0  0  0  0  0  0  0  0  0  0  0
  141.9891  139.4358  156.0109 H   0  0  0  0  0  0  0  0  0  0  0  0
  140.6771  141.8521  156.8390 H   0  0  0  0  0  0  0  0  0  0  0  0
  141.9281  141.6872  155.6026 H   0  0  0  0  0  0  0  0  0  0  0  0
  140.9098  140.5022  153.3954 H   0  0  0  0  0  0  0  0  0  0  0  0
  139.1395  140.4528  153.3840 H   0  0  0  0  0  0  0  0  0  0  0  0
  1  2  1  0  0  0  0
  1 28  1  0  0  0  0
  2  3  1  0  0  0  0
  2 29  1  0  0  0  0
  2 30  1  0  0  0  0
  3  4  1  0  0  0  0
  3 23  1  0  0  0  0
  3 31  1  0  0  0  0
  4  5  1  0  0  0  0
  4 32  1  0  0  0  0
  4 33  1  0  0  0  0
  5 22  1  0  0  0  0
  5  6  1  0  0  0  0
  6  7  2  0  0  0  0
  6 34  1  0  0  0  0
  7  8  1  0  0  0  0
  8 22  2  0  0  0  0
  8  9  1  0  0  0  0
  9 10  1  0  0  0  0
  9 19  2  0  0  0  0
 10 14  1  0  0  0  0
 10 11  1  0  0  0  0
 11 18  1  0  0  0  0
 11 12  1  0  0  0  0
 11 35  1  0  0  0  0
 12 13  1  0  0  0  0
 12 36  1  0  0  0  0
 12 37  1  0  0  0  0
 13 14  1  0  0  0  0
 13 38  1  0  0  0  0
 13 39  1  0  0  0  0
 14 15  1  0  0  0  0
 14 40  1  0  0  0  0
 15 16  1  0  0  0  0
 15 18  1  0  0  0  0
 15 41  1  0  0  0  0
 16 17  1  0  0  0  0
 16 42  1  0  0  0  0
 16 43  1  0  0  0  0
 17 44  1  0  0  0  0
 18 45  1  0  0  0  0
 18 46  1  0  0  0  0
 19 20  1  0  0  0  0
 20 21  2  0  0  0  0
 20 47  1  0  0  0  0
 21 22  1  0  0  0  0
 23 27  1  0  0  0  0
 23 24  1  0  0  0  0
 23 48  1  0  0  0  0
 24 25  1  0  0  0  0
 24 49  1  0  0  0  0
 24 50  1  0  0  0  0
 25 26  1  0  0  0  0
 25 51  1  0  0  0  0
 25 52  1  0  0  0  0
 26 27  1  0  0  0  0
 27 53  1  0  0  0  0
 27 54  1  0  0  0  0
M  END
> <s_m_source_file>
AV-unprocessed.smi

> <i_m_source_file_index>
227

> <i_lp_mmshare_version>
43012

> <i_f3d_flags>
0

> <s_epik_input>
W0NIMl0xT1tDSDJdW0NIMl1bQ0BIXTFbQ0BIXShbQ0gyXVtPSF0pW0NIMl1uKFtjSF1uMiljKGMyMyluW2NIXW5jM04oW0NASF00NSlbQ0BASF0oW0NIMl1bQ0gyXTQpW0NASF0oW0NIMl01KVtDSDJdW09IXQ==

> <s_epik_cmdline>
J2VwaWtfcHl0aG9uJywgJy1waCcsICc3LjAnLCAnLXRuJywgJzgnLCAnLW1hJywgJzIwMCcsICctbWV0YWxfYmluZGluZycsICctaW1hZScsICc8aW5maWxlLm1hZT4nLCAnLW9tYWUnLCAnPG91dGZpbGUubWFlPic=

> <r_lp_tautomer_probability>
1

> <r_epik_Ionization_Penalty>
0.0055791

> <r_epik_Ionization_Penalty_Charging>
0

> <r_epik_Ionization_Penalty_Neutral>
0.0055791

> <r_epik_State_Penalty>
0.00401299

> <r_epik_Charging_Adjusted_Penalty>
0.00401299

> <i_epik_Tot_Q>
0

> <i_epik_Tot_abs_Q>
0

> <r_epik_Metal_State_Penalty>
-0

> <b_epik_Metal_Only>
0

> <s_lp_Force_Field>
OPLS_2005

> <r_lp_Energy>
88.8293

> <b_lp_Chiralities_Consistent>
1

> <s_lp_Variant>
AV-unprocessed.smi:227-10

> <Gold.Version>
5.8.1

> <Gold.Id.Protein>
6NUR|6NUR_protein|mol2

> <Gold.PLP.Fitness>
47.7244

> <Gold.PLP.PLP>
-41.1156

> <Gold.PLP.part.hbond>
-3.2467

> <Gold.PLP.part.metal>
0.0000

> <Gold.PLP.part.buried>
-2.4134

> <Gold.PLP.part.nonpolar>
-35.1502

> <Gold.PLP.part.repulsive>
2.0640

> <Gold.PLP.ligand.clash>
0.0000

> <Gold.PLP.ligand.torsion>
0.6193

> <Gold.PLP.Chemscore.Hbond>
2.0000

> <Gold.PLP.Chemscore.CHOScore>
0.5627

> <Gold.PLP.Chemscore.Metal>
0.0000

> <Gold.Chemscore.Hbonds>
donor molecule, donor type, donor heavy atom, donor atom, acceptor molecule, acceptor atom, score
      L1  H    17    44       P1 10195  1.00
      P1  H  7918  7932       L1    17  1.00
      L1  C    20    47       P1  7948  0.58

> <Gold.PLP.Chemscore.Internal.Correction>
0.1593

> <Gold.Rescore>
     Score         DG    S(hbond)    S(metal)    S(lipo)     H(rot)  DE(clash)    DE(int)     intcor
      9.56     -13.55       1.72        0.00      98.90       3.61       1.62       2.37       ----

> <Gold.Chemscore.Fitness>
9.5595

> <Gold.Chemscore.DG>
-13.5501

> <Gold.Chemscore.ZeroCoef>
-5.4800

> <Gold.Chemscore.Hbond>
1.7166

> <Gold.Chemscore.Metal>
0.0000

> <Gold.Chemscore.Lipo>
98.8959

> <Gold.Chemscore.Internal_Hbond>
0.0000

> <Gold.Chemscore.DEClash>
1.6184

> <Gold.Chemscore.DEInternal>
2.3723

> <Gold.Chemscore.Rot>
3.6071

> <Gold.Chemscore.Internal.Correction>
   9.000000E+99

> <Gold.Chemscore.Hbonds>
donor molecule, donor type, donor heavy atom, donor atom, acceptor molecule, acceptor atom, score
      L1  H    17    44       P1 10195  1.00
      P1  H  7918  7932       L1    17  0.32

> <Gold.Chemscore.Hbond.Weighted>
-5.7335

> <Gold.Chemscore.Metal.Weighted>
-0.0000

> <Gold.Chemscore.Lipo.Weighted>
-11.5708

> <Gold.Chemscore.Internal_Hbond.Weighted>
0.0000

> <Gold.Chemscore.DEClash.Weighted>
1.6184

> <Gold.Chemscore.DEInternal.Weighted>
2.3723

> <Gold.Chemscore.Rot.Weighted>
9.2342

> <Gold.Chemscore.Internal.Correction.Weighted>
   9.000000E+99

> <Gold.Protein.RotatedTorsions>
[ 6907 6896 6895 6894 ] final   33.88 input  -60.11 | X-H torsion
[ 7974 7965 7964 7962 ] final  -42.49 input  175.53 | X-H torsion
[ 8008 7997 7996 7995 ] final   12.39 input   59.86 | X-H torsion
[ 10167 10162 10161 10158 ] final  -81.64 input  -65.29 | X-H torsion
[ 10718 10713 10712 10709 ] final   70.03 input   66.30 | X-H torsion
[ 10763 10752 10751 10750 ] final   82.35 input  -60.55 | X-H torsion
[ 11005 11000 10999 10996 ] final -144.22 input  -57.11 | X-H torsion

> <Gold.Protein.ActiveResidues>
 VAL166  LYS551  ARG553  GLY616  TRP617  ASP618  TYR619  PRO620  LYS621  CYS622 
 ASP623  PHE694  ASN695  SER759  ASP760  ASP761  ALA762  ILE779  LEU786  VAL792 
 PHE793  MET794  SER795  GLU796  ALA797  LYS798  CYS799  TRP800  GLU811  SER814 

> <Gold.Protein.RotatedAtoms>
  152.0947  134.9383  160.0570 H   0  0  0  0  0  0  0  0  0  0  0  0  # atno 6907 bound_to 6896
  152.0620  133.4062  159.4430 H   0  0  0  0  0  0  0  0  0  0  0  0  # atno 6908 bound_to 6896
  150.6837  134.3109  159.4789 H   0  0  0  0  0  0  0  0  0  0  0  0  # atno 6909 bound_to 6896
  146.0110  140.6964  142.9224 H   0  0  0  0  0  0  0  0  0  0  0  0  # atno 7974 bound_to 7965
  154.8200  140.2882  155.5793 H   0  0  0  0  0  0  0  0  0  0  0  0  # atno 8008 bound_to 7997
  156.2996  140.2552  156.3035 H   0  0  0  0  0  0  0  0  0  0  0  0  # atno 8009 bound_to 7997
  154.9350  140.0382  157.2057 H   0  0  0  0  0  0  0  0  0  0  0  0  # atno 8010 bound_to 7997
  140.4393  143.2520  151.8648 H   0  0  0  0  0  0  0  0  0  0  0  0  # atno 10167 bound_to 10162
  157.6378  130.9456  150.0594 H   0  0  0  0  0  0  0  0  0  0  0  0  # atno 10718 bound_to 10713
  153.1195  135.4731  154.9172 H   0  0  0  0  0  0  0  0  0  0  0  0  # atno 10763 bound_to 10752
  154.7562  135.3119  154.8468 H   0  0  0  0  0  0  0  0  0  0  0  0  # atno 10764 bound_to 10752
  153.9036  135.6872  153.4808 H   0  0  0  0  0  0  0  0  0  0  0  0  # atno 10765 bound_to 10752
  140.8047  134.2816  157.4965 H   0  0  0  0  0  0  0  0  0  0  0  0  # atno 11005 bound_to 11000
  144.6953  140.3399  143.7201 LP  0  0  0  0  0  0  0  0  0  0  0  0  # atno 17320 bound_to 7965
  145.7342  139.1745  143.2413 LP  0  0  0  0  0  0  0  0  0  0  0  0  # atno 17321 bound_to 7965
  139.4788  144.5247  151.8752 LP  0  0  0  0  0  0  0  0  0  0  0  0  # atno 17342 bound_to 10162
  140.4337  144.2081  150.5888 LP  0  0  0  0  0  0  0  0  0  0  0  0  # atno 17343 bound_to 10162
  156.1631  130.3644  149.9270 LP  0  0  0  0  0  0  0  0  0  0  0  0  # atno 17370 bound_to 10713
  156.7264  130.9026  151.3622 LP  0  0  0  0  0  0  0  0  0  0  0  0  # atno 17371 bound_to 10713
  139.8719  134.9449  156.3895 LP  0  0  0  0  0  0  0  0  0  0  0  0  # atno 17394 bound_to 11000
  140.9259  133.7612  155.9964 LP  0  0  0  0  0  0  0  0  0  0  0  0  # atno 17395 bound_to 11000

$$$$
