AV-unprocessed.smi:2201|AV-procd|sdf|8927|dock4
  -GOLD-   2272012143D 1   1.00000     0.00000
 Structure written by MMmdl.
 31 31  0  0  0  0  0  0  0  0  1 V2000
  149.7981  144.5172  159.4500 C   0  0  0  0  0  0  0  0  0  0  0  0
  151.2687  144.1033  159.2347 C   0  0  0  0  0  0  0  0  0  0  0  0
  151.9958  145.2192  158.4560 C   0  0  0  0  0  0  0  0  0  0  0  0
  151.9475  143.9343  160.6153 C   0  0  0  0  0  0  0  0  0  0  0  0
  151.3001  142.8057  158.3887 C   0  0  0  0  0  0  0  0  0  0  0  0
  151.8705  141.8123  158.8423 O   0  0  0  0  0  0  0  0  0  0  0  0
  150.6944  142.8287  157.1842 N   0  0  0  0  0  0  0  0  0  0  0  0
  150.5845  141.7862  156.2272 C   0  0  0  0  0  0  0  0  0  0  0  0
  151.4886  140.8145  156.0604 N   0  0  0  0  0  0  0  0  0  0  0  0
  151.1287  139.9233  155.0437 C   0  0  0  0  0  0  0  0  0  0  0  0
  152.0230  138.7640  154.7112 C   0  0  0  0  0  0  0  0  0  0  0  0
  151.2243  137.4586  154.7091 C   0  0  0  0  0  0  0  0  0  0  0  0
  150.2688  137.3277  153.7844 N   0  0  0  0  0  0  0  0  0  0  0  0
  151.4627  136.5798  155.5348 O   0  0  0  0  0  0  0  0  0  0  0  0
  149.9283  140.2354  154.4513 C   0  0  0  0  0  0  0  0  0  0  0  0
  149.2109  141.6674  155.1391 S   0  0  0  0  0  0  0  0  0  0  0  0
  149.7282  145.4344  160.0358 H   0  0  0  0  0  0  0  0  0  0  0  0
  149.2418  143.7464  159.9847 H   0  0  0  0  0  0  0  0  0  0  0  0
  149.2833  144.6993  158.5056 H   0  0  0  0  0  0  0  0  0  0  0  0
  151.5256  145.4160  157.4912 H   0  0  0  0  0  0  0  0  0  0  0  0
  153.0382  144.9589  158.2672 H   0  0  0  0  0  0  0  0  0  0  0  0
  151.9905  146.1567  159.0130 H   0  0  0  0  0  0  0  0  0  0  0  0
  151.9091  144.8629  161.1858 H   0  0  0  0  0  0  0  0  0  0  0  0
  152.9999  143.6628  160.5195 H   0  0  0  0  0  0  0  0  0  0  0  0
  151.4562  143.1694  161.2186 H   0  0  0  0  0  0  0  0  0  0  0  0
  150.2601  143.7021  156.9242 H   0  0  0  0  0  0  0  0  0  0  0  0
  152.4867  138.9016  153.7332 H   0  0  0  0  0  0  0  0  0  0  0  0
  152.8407  138.6891  155.4291 H   0  0  0  0  0  0  0  0  0  0  0  0
  149.7140  136.4853  153.7462 H   0  0  0  0  0  0  0  0  0  0  0  0
  150.1036  138.0764  153.1273 H   0  0  0  0  0  0  0  0  0  0  0  0
  149.4255  139.7120  153.6519 H   0  0  0  0  0  0  0  0  0  0  0  0
  1  2  1  0  0  0  0
  1 17  1  0  0  0  0
  1 18  1  0  0  0  0
  1 19  1  0  0  0  0
  2  3  1  0  0  0  0
  2  4  1  0  0  0  0
  2  5  1  0  0  0  0
  3 20  1  0  0  0  0
  3 21  1  0  0  0  0
  3 22  1  0  0  0  0
  4 23  1  0  0  0  0
  4 24  1  0  0  0  0
  4 25  1  0  0  0  0
  5  6  2  0  0  0  0
  5  7  1  0  0  0  0
  7  8  1  0  0  0  0
  7 26  1  0  0  0  0
  8 16  1  0  0  0  0
  8  9  2  0  0  0  0
  9 10  1  0  0  0  0
 10 11  1  0  0  0  0
 10 15  2  0  0  0  0
 11 12  1  0  0  0  0
 11 27  1  0  0  0  0
 11 28  1  0  0  0  0
 12 13  1  0  0  0  0
 12 14  2  0  0  0  0
 13 29  1  0  0  0  0
 13 30  1  0  0  0  0
 15 16  1  0  0  0  0
 15 31  1  0  0  0  0
M  END
> <s_m_source_file>
AV-unprocessed.smi

> <i_m_source_file_index>
2201

> <i_lp_mmshare_version>
43012

> <i_f3d_flags>
0

> <s_epik_input>
W0NIM11DKFtDSDNdKShbQ0gzXSlDKD1PKVtOSF1jMW5jKFtjSF1zMSlbQ0gyXUMoPU8pW05IMl0=

> <s_epik_cmdline>
J2VwaWtfcHl0aG9uJywgJy1waCcsICc3LjAnLCAnLXRuJywgJzgnLCAnLW1hJywgJzIwMCcsICctbWV0YWxfYmluZGluZycsICctaW1hZScsICc8aW5maWxlLm1hZT4nLCAnLW9tYWUnLCAnPG91dGZpbGUubWFlPic=

> <r_lp_tautomer_probability>
1

> <r_epik_Ionization_Penalty>
0.000136028

> <r_epik_Ionization_Penalty_Charging>
0

> <r_epik_Ionization_Penalty_Neutral>
0.000136028

> <r_epik_State_Penalty>
-0

> <r_epik_Charging_Adjusted_Penalty>
0

> <i_epik_Tot_Q>
0

> <i_epik_Tot_abs_Q>
0

> <r_epik_Metal_State_Penalty>
0.0818114

> <b_epik_Metal_Only>
0

> <s_lp_Force_Field>
OPLS_2005

> <r_lp_Energy>
8.92215

> <b_lp_Chiralities_Consistent>
1

> <s_lp_Variant>
AV-unprocessed.smi:2201-1

> <Gold.Version>
5.8.1

> <Gold.Id.Protein>
6NUR|6NUR_protein|mol2

> <Gold.PLP.Fitness>
41.2664

> <Gold.PLP.PLP>
-33.2622

> <Gold.PLP.part.hbond>
-3.8814

> <Gold.PLP.part.metal>
0.0000

> <Gold.PLP.part.buried>
2.1281

> <Gold.PLP.part.nonpolar>
-30.4339

> <Gold.PLP.part.repulsive>
0.1563

> <Gold.PLP.ligand.clash>
0.0000

> <Gold.PLP.ligand.torsion>
0.2988

> <Gold.PLP.Chemscore.Hbond>
1.8622

> <Gold.PLP.Chemscore.CHOScore>
1.0000

> <Gold.PLP.Chemscore.Metal>
0.0000

> <Gold.Chemscore.Hbonds>
donor molecule, donor type, donor heavy atom, donor atom, acceptor molecule, acceptor atom, score
      L1  H     7    26       P1  8028  0.78
      L1  H    13    29       P1  7948  0.19
      P1  H 10752 10763       L1    14  0.90
      L1  C    15    31       P1  7957  0.99

> <Gold.PLP.Chemscore.Internal.Correction>
0.0153

> <Gold.Rescore>
     Score         DG    S(hbond)    S(metal)    S(lipo)     H(rot)  DE(clash)    DE(int)     intcor
     11.65     -15.76       1.89        0.00      75.75       1.91       1.57       2.54       ----

> <Gold.Chemscore.Fitness>
11.6506

> <Gold.Chemscore.DG>
-15.7634

> <Gold.Chemscore.ZeroCoef>
-5.4800

> <Gold.Chemscore.Hbond>
1.8888

> <Gold.Chemscore.Metal>
0.0000

> <Gold.Chemscore.Lipo>
75.7489

> <Gold.Chemscore.Internal_Hbond>
0.0000

> <Gold.Chemscore.DEClash>
1.5712

> <Gold.Chemscore.DEInternal>
2.5416

> <Gold.Chemscore.Rot>
1.9092

> <Gold.Chemscore.Internal.Correction>
   9.000000E+99

> <Gold.Chemscore.Hbonds>
donor molecule, donor type, donor heavy atom, donor atom, acceptor molecule, acceptor atom, score
      L1  H     7    26       P1  8028  0.73
      L1  H    13    29       P1  7948  0.09
      P1  H 10752 10763       L1    14  0.68

> <Gold.Chemscore.Hbond.Weighted>
-6.3085

> <Gold.Chemscore.Metal.Weighted>
-0.0000

> <Gold.Chemscore.Lipo.Weighted>
-8.8626

> <Gold.Chemscore.Internal_Hbond.Weighted>
0.0000

> <Gold.Chemscore.DEClash.Weighted>
1.5712

> <Gold.Chemscore.DEInternal.Weighted>
2.5416

> <Gold.Chemscore.Rot.Weighted>
4.8877

> <Gold.Chemscore.Internal.Correction.Weighted>
   9.000000E+99

> <Gold.Protein.RotatedTorsions>
[ 6907 6896 6895 6894 ] final   71.54 input  -60.11 | X-H torsion
[ 7974 7965 7964 7962 ] final  -26.01 input  175.53 | X-H torsion
[ 8008 7997 7996 7995 ] final -141.49 input   59.86 | X-H torsion
[ 10167 10162 10161 10158 ] final  -77.42 input  -65.29 | X-H torsion
[ 10718 10713 10712 10709 ] final   93.59 input   66.30 | X-H torsion
[ 10763 10752 10751 10750 ] final   90.75 input  -60.55 | X-H torsion
[ 11005 11000 10999 10996 ] final  153.02 input  -57.11 | X-H torsion

> <Gold.Protein.ActiveResidues>
 VAL166  LYS551  ARG553  GLY616  TRP617  ASP618  TYR619  PRO620  LYS621  CYS622 
 ASP623  PHE694  ASN695  SER759  ASP760  ASP761  ALA762  ILE779  LEU786  VAL792 
 PHE793  MET794  SER795  GLU796  ALA797  LYS798  CYS799  TRP800  GLU811  SER814 

> <Gold.Protein.RotatedAtoms>
  152.4816  134.4706  159.9633 H   0  0  0  0  0  0  0  0  0  0  0  0  # atno 6907 bound_to 6896
  151.4710  133.3563  159.2831 H   0  0  0  0  0  0  0  0  0  0  0  0  # atno 6908 bound_to 6896
  150.8892  134.8319  159.7342 H   0  0  0  0  0  0  0  0  0  0  0  0  # atno 6909 bound_to 6896
  146.1453  140.4963  142.8634 H   0  0  0  0  0  0  0  0  0  0  0  0  # atno 7974 bound_to 7965
  155.4787  140.0558  157.2970 H   0  0  0  0  0  0  0  0  0  0  0  0  # atno 8008 bound_to 7997
  154.4669  140.2022  156.0048 H   0  0  0  0  0  0  0  0  0  0  0  0  # atno 8009 bound_to 7997
  156.0990  140.3222  155.7920 H   0  0  0  0  0  0  0  0  0  0  0  0  # atno 8010 bound_to 7997
  140.4772  143.2411  151.8115 H   0  0  0  0  0  0  0  0  0  0  0  0  # atno 10167 bound_to 10162
  157.6953  131.0483  150.4057 H   0  0  0  0  0  0  0  0  0  0  0  0  # atno 10718 bound_to 10713
  153.2008  135.4423  155.0264 H   0  0  0  0  0  0  0  0  0  0  0  0  # atno 10763 bound_to 10752
  154.8146  135.3309  154.7215 H   0  0  0  0  0  0  0  0  0  0  0  0  # atno 10764 bound_to 10752
  153.7660  135.6988  153.4971 H   0  0  0  0  0  0  0  0  0  0  0  0  # atno 10765 bound_to 10752
  140.1360  134.8771  157.2267 H   0  0  0  0  0  0  0  0  0  0  0  0  # atno 11005 bound_to 11000
  144.7839  140.5897  143.6587 LP  0  0  0  0  0  0  0  0  0  0  0  0  # atno 17320 bound_to 7965
  145.4951  139.1486  143.3688 LP  0  0  0  0  0  0  0  0  0  0  0  0  # atno 17321 bound_to 7965
  139.4827  144.4819  151.9296 LP  0  0  0  0  0  0  0  0  0  0  0  0  # atno 17342 bound_to 10162
  140.3904  144.2623  150.5900 LP  0  0  0  0  0  0  0  0  0  0  0  0  # atno 17343 bound_to 10162
  156.4446  130.3998  149.6675 LP  0  0  0  0  0  0  0  0  0  0  0  0  # atno 17370 bound_to 10713
  156.3846  130.7596  151.2592 LP  0  0  0  0  0  0  0  0  0  0  0  0  # atno 17371 bound_to 10713
  140.2782  134.3381  155.7351 LP  0  0  0  0  0  0  0  0  0  0  0  0  # atno 17394 bound_to 11000
  141.2178  133.7463  156.9324 LP  0  0  0  0  0  0  0  0  0  0  0  0  # atno 17395 bound_to 11000

$$$$
