AV-unprocessed.smi:297|AV-procd|sdf|2260|dock1
  -GOLD-   2262022143D 1   1.00000     0.00000
 Structure written by MMmdl.
 29 30  0  0  0  0  0  0  0  0  1 V2000
  154.2185  135.5932  160.6769 N   0  0  0  0  0  0  0  0  0  0  0  0
  154.0536  136.7150  160.4446 C   0  0  0  0  0  0  0  0  0  0  0  0
  153.8462  138.1254  160.1526 C   0  0  0  0  0  0  0  0  0  0  0  0
  153.2399  138.4191  158.9811 N   0  0  0  0  0  0  0  0  0  0  0  0
  153.0132  139.7140  158.6491 C   0  0  0  0  0  0  0  0  0  0  0  0
  152.3755  139.9882  157.4197 N   0  0  0  0  0  0  0  0  0  0  0  0
  151.3262  141.0026  157.4621 C   0  0  0  0  0  0  0  0  0  0  0  0
  150.9473  141.4353  156.0369 C   0  0  0  0  0  0  0  0  0  0  0  0
  150.5769  140.2938  155.2720 O   0  0  0  0  0  0  0  0  0  0  0  0
  151.6481  139.3589  155.1394 C   0  0  2  0  0  0  0  0  0  0  0  0
  151.1967  138.2125  154.2224 C   0  0  0  0  0  0  0  0  0  0  0  0
  150.0625  138.3861  153.5378 N   0  0  0  0  0  0  0  0  0  0  0  0
  151.8676  137.1876  154.1139 O   0  0  0  0  0  0  0  0  0  0  0  0
  152.0615  138.8610  156.5427 C   0  0  0  0  0  0  0  0  0  0  0  0
  153.4066  140.7733  159.4994 C   0  0  0  0  0  0  0  0  0  0  0  0
  154.0385  140.4725  160.7201 C   0  0  0  0  0  0  0  0  0  0  0  0
  154.2647  139.1262  161.0619 C   0  0  0  0  0  0  0  0  0  0  0  0
  155.0417  138.7498  162.5619 Cl  0  0  0  0  0  0  0  0  0  0  0  0
  150.4549  140.5865  157.9695 H   0  0  0  0  0  0  0  0  0  0  0  0
  151.6330  141.8807  158.0286 H   0  0  0  0  0  0  0  0  0  0  0  0
  150.1072  142.1290  156.0668 H   0  0  0  0  0  0  0  0  0  0  0  0
  151.7752  141.9581  155.5550 H   0  0  0  0  0  0  0  0  0  0  0  0
  152.4951  139.8504  154.6574 H   0  0  0  0  0  0  0  0  0  0  0  0
  149.7348  137.6589  152.9184 H   0  0  0  0  0  0  0  0  0  0  0  0
  149.5417  139.2454  153.6368 H   0  0  0  0  0  0  0  0  0  0  0  0
  152.9330  138.2103  156.4554 H   0  0  0  0  0  0  0  0  0  0  0  0
  151.2578  138.2727  156.9891 H   0  0  0  0  0  0  0  0  0  0  0  0
  153.2461  141.8054  159.2260 H   0  0  0  0  0  0  0  0  0  0  0  0
  154.3480  141.2665  161.3835 H   0  0  0  0  0  0  0  0  0  0  0  0
  1  2  3  0  0  0  0
  2  3  1  0  0  0  0
  3 17  1  0  0  0  0
  3  4  2  0  0  0  0
  4  5  1  0  0  0  0
  5  6  1  0  0  0  0
  5 15  2  0  0  0  0
  6 14  1  0  0  0  0
  6  7  1  0  0  0  0
  7  8  1  0  0  0  0
  7 19  1  0  0  0  0
  7 20  1  0  0  0  0
  8  9  1  0  0  0  0
  8 21  1  0  0  0  0
  8 22  1  0  0  0  0
  9 10  1  0  0  0  0
 10 11  1  0  0  0  0
 10 14  1  0  0  0  0
 10 23  1  0  0  0  0
 11 12  1  0  0  0  0
 11 13  2  0  0  0  0
 12 24  1  0  0  0  0
 12 25  1  0  0  0  0
 14 26  1  0  0  0  0
 14 27  1  0  0  0  0
 15 16  1  0  0  0  0
 15 28  1  0  0  0  0
 16 17  2  0  0  0  0
 16 29  1  0  0  0  0
 17 18  1  0  0  0  0
M  END
> <s_m_source_file>
AV-unprocessed.smi

> <i_m_source_file_index>
297

> <i_lp_mmshare_version>
43012

> <i_f3d_flags>
0

> <s_epik_input>
TiNDYzFuYyhbY0hdW2NIXWMxQ2wpTjJbQ0gyXVtDSDJdT1tDQEhdKFtDSDJdMilDKD1PKVtOSDJd

> <s_epik_cmdline>
J2VwaWtfcHl0aG9uJywgJy1waCcsICc3LjAnLCAnLXRuJywgJzgnLCAnLW1hJywgJzIwMCcsICctbWV0YWxfYmluZGluZycsICctaW1hZScsICc8aW5maWxlLm1hZT4nLCAnLW9tYWUnLCAnPG91dGZpbGUubWFlPic=

> <r_lp_tautomer_probability>
1

> <r_epik_Ionization_Penalty>
8.82403e-08

> <r_epik_Ionization_Penalty_Charging>
0

> <r_epik_Ionization_Penalty_Neutral>
8.82403e-08

> <r_epik_State_Penalty>
-0

> <r_epik_Charging_Adjusted_Penalty>
0

> <i_epik_Tot_Q>
0

> <i_epik_Tot_abs_Q>
0

> <r_epik_Metal_State_Penalty>
-0

> <b_epik_Metal_Only>
0

> <s_lp_Force_Field>
OPLS_2005

> <r_lp_Energy>
18.7144

> <b_lp_Chiralities_Consistent>
1

> <s_lp_Variant>
AV-unprocessed.smi:297-2

> <Gold.Version>
5.8.1

> <Gold.Id.Protein>
6NUR|6NUR_protein|mol2

> <Gold.PLP.Fitness>
38.8560

> <Gold.PLP.PLP>
-30.4764

> <Gold.PLP.part.hbond>
-5.9066

> <Gold.PLP.part.metal>
0.0000

> <Gold.PLP.part.buried>
-3.7098

> <Gold.PLP.part.nonpolar>
-21.1957

> <Gold.PLP.part.repulsive>
1.3304

> <Gold.PLP.ligand.clash>
0.0000

> <Gold.PLP.ligand.torsion>
0.4734

> <Gold.PLP.Chemscore.Hbond>
2.9913

> <Gold.PLP.Chemscore.CHOScore>
0.0000

> <Gold.PLP.Chemscore.Metal>
0.0000

> <Gold.Chemscore.Hbonds>
donor molecule, donor type, donor heavy atom, donor atom, acceptor molecule, acceptor atom, score
      L1  H    12    24       P1  7948  1.00
      P1  H  6896  6907       L1     1  0.83
      P1  H 10752 10763       L1    13  1.00

> <Gold.PLP.Chemscore.Internal.Correction>
0.3527

> <Gold.Rescore>
     Score         DG    S(hbond)    S(metal)    S(lipo)     H(rot)  DE(clash)    DE(int)     intcor
     16.88     -17.99       2.74        0.00      61.43       1.50       0.83       0.28       ----

> <Gold.Chemscore.Fitness>
16.8815

> <Gold.Chemscore.DG>
-17.9942

> <Gold.Chemscore.ZeroCoef>
-5.4800

> <Gold.Chemscore.Hbond>
2.7450

> <Gold.Chemscore.Metal>
0.0000

> <Gold.Chemscore.Lipo>
61.4319

> <Gold.Chemscore.Internal_Hbond>
0.0000

> <Gold.Chemscore.DEClash>
0.8328

> <Gold.Chemscore.DEInternal>
0.2798

> <Gold.Chemscore.Rot>
1.5006

> <Gold.Chemscore.Internal.Correction>
   9.000000E+99

> <Gold.Chemscore.Hbonds>
donor molecule, donor type, donor heavy atom, donor atom, acceptor molecule, acceptor atom, score
      L1  H    12    24       P1  7948  0.55
      P1  H  6896  6907       L1     1  0.33
      P1  H 10752 10763       L1    13  0.97

> <Gold.Chemscore.Hbond.Weighted>
-9.1682

> <Gold.Chemscore.Metal.Weighted>
-0.0000

> <Gold.Chemscore.Lipo.Weighted>
-7.1875

> <Gold.Chemscore.Internal_Hbond.Weighted>
0.0000

> <Gold.Chemscore.DEClash.Weighted>
0.8328

> <Gold.Chemscore.DEInternal.Weighted>
0.2798

> <Gold.Chemscore.Rot.Weighted>
3.8416

> <Gold.Chemscore.Internal.Correction.Weighted>
   9.000000E+99

> <Gold.Protein.RotatedTorsions>
[ 6907 6896 6895 6894 ] final   57.10 input  -60.11 | X-H torsion
[ 7974 7965 7964 7962 ] final  179.17 input  175.53 | X-H torsion
[ 8008 7997 7996 7995 ] final  149.33 input   59.86 | X-H torsion
[ 10167 10162 10161 10158 ] final -108.75 input  -65.29 | X-H torsion
[ 10718 10713 10712 10709 ] final  -45.70 input   66.30 | X-H torsion
[ 10763 10752 10751 10750 ] final   40.45 input  -60.55 | X-H torsion
[ 11005 11000 10999 10996 ] final  140.62 input  -57.11 | X-H torsion

> <Gold.Protein.ActiveResidues>
 VAL166  LYS551  ARG553  GLY616  TRP617  ASP618  TYR619  PRO620  LYS621  CYS622 
 ASP623  PHE694  ASN695  SER759  ASP760  ASP761  ALA762  ILE779  LEU786  VAL792 
 PHE793  MET794  SER795  GLU796  ALA797  LYS798  CYS799  TRP800  GLU811  SER814 

> <Gold.Protein.RotatedAtoms>
  152.3699  134.6749  160.0179 H   0  0  0  0  0  0  0  0  0  0  0  0  # atno 6907 bound_to 6896
  151.7045  133.3306  159.3283 H   0  0  0  0  0  0  0  0  0  0  0  0  # atno 6908 bound_to 6896
  150.7666  134.6521  159.6338 H   0  0  0  0  0  0  0  0  0  0  0  0  # atno 6909 bound_to 6896
  144.7148  140.0508  143.6435 H   0  0  0  0  0  0  0  0  0  0  0  0  # atno 7974 bound_to 7965
  156.2759  140.2105  156.5840 H   0  0  0  0  0  0  0  0  0  0  0  0  # atno 8008 bound_to 7997
  154.7035  140.0518  157.0505 H   0  0  0  0  0  0  0  0  0  0  0  0  # atno 8009 bound_to 7997
  155.0702  140.3176  155.4636 H   0  0  0  0  0  0  0  0  0  0  0  0  # atno 8010 bound_to 7997
  140.1627  143.4107  152.1413 H   0  0  0  0  0  0  0  0  0  0  0  0  # atno 10167 bound_to 10162
  156.2257  130.4169  149.8937 H   0  0  0  0  0  0  0  0  0  0  0  0  # atno 10718 bound_to 10713
  152.9936  135.6191  154.2627 H   0  0  0  0  0  0  0  0  0  0  0  0  # atno 10763 bound_to 10752
  154.2363  135.2790  155.2872 H   0  0  0  0  0  0  0  0  0  0  0  0  # atno 10764 bound_to 10752
  154.5407  135.5762  153.6895 H   0  0  0  0  0  0  0  0  0  0  0  0  # atno 10765 bound_to 10752
  140.0340  134.9338  157.0718 H   0  0  0  0  0  0  0  0  0  0  0  0  # atno 11005 bound_to 11000
  145.9945  139.3041  143.0965 LP  0  0  0  0  0  0  0  0  0  0  0  0  # atno 17320 bound_to 7965
  145.8864  140.9331  143.0574 LP  0  0  0  0  0  0  0  0  0  0  0  0  # atno 17321 bound_to 7965
  139.5373  144.7223  151.4849 LP  0  0  0  0  0  0  0  0  0  0  0  0  # atno 17342 bound_to 10162
  140.6632  143.8453  150.6912 LP  0  0  0  0  0  0  0  0  0  0  0  0  # atno 17343 bound_to 10162
  156.6569  130.8766  151.3541 LP  0  0  0  0  0  0  0  0  0  0  0  0  # atno 17370 bound_to 10713
  157.7109  130.9439  150.1086 LP  0  0  0  0  0  0  0  0  0  0  0  0  # atno 17371 bound_to 10713
  140.4178  134.1913  155.7164 LP  0  0  0  0  0  0  0  0  0  0  0  0  # atno 17394 bound_to 11000
  141.1847  133.8338  157.1130 LP  0  0  0  0  0  0  0  0  0  0  0  0  # atno 17395 bound_to 11000

$$$$
