AV-unprocessed.smi:2822|AV-procd|sdf|10879|dock1
  -GOLD-   2272015323D 1   1.00000     0.00000
 Structure written by MMmdl.
 40 42  0  0  0  0  0  0  0  0  2 V2000
  149.0302  136.9102  158.0094 Cl  0  0  0  0  0  0  0  0  0  0  0  0
  149.9093  137.4343  156.6157 C   0  0  0  0  0  0  0  0  0  0  0  0
  149.4677  137.0409  155.3355 C   0  0  0  0  0  0  0  0  0  0  0  0
  150.1408  137.4409  154.2358 N   0  3  0  0  0  0  0  0  0  0  0  0
  151.2434  138.2169  154.2984 C   0  0  0  0  0  0  0  0  0  0  0  0
  151.7340  138.6421  155.5496 C   0  0  0  0  0  0  0  0  0  0  0  0
  151.0619  138.2500  156.7346 C   0  0  0  0  0  0  0  0  0  0  0  0
  151.5010  138.6390  158.0093 N   0  0  0  0  0  0  0  0  0  0  0  0
  152.9104  138.8798  158.2797 C   0  0  0  0  0  0  0  0  0  0  0  0
  153.1532  140.3173  158.7584 C   0  0  1  0  0  0  0  0  0  0  0  0
  152.1599  141.3065  158.1212 C   0  0  0  0  0  0  0  0  0  0  0  0
  152.3431  142.6606  158.6273 N   0  0  0  0  0  0  0  0  0  0  0  0
  151.3934  143.5897  158.0172 C   0  0  0  0  0  0  0  0  0  0  0  0
  151.5886  145.0330  158.5075 C   0  0  0  0  0  0  0  0  0  0  0  0
  151.4862  145.0950  160.0383 C   0  0  0  0  0  0  0  0  0  0  0  0
  152.4458  144.0772  160.6743 C   0  0  0  0  0  0  0  0  0  0  0  0
  152.2235  142.6673  160.0886 C   0  0  2  0  0  0  0  0  0  0  0  0
  153.1974  141.6535  160.7238 C   0  0  0  0  0  0  0  0  0  0  0  0
  152.9791  140.3586  160.1725 O   0  0  0  0  0  0  0  0  0  0  0  0
  148.6004  136.4212  155.1597 H   0  0  0  0  0  0  0  0  0  0  0  0
  151.6984  138.4726  153.3526 H   0  0  0  0  0  0  0  0  0  0  0  0
  152.6189  139.2600  155.5797 H   0  0  0  0  0  0  0  0  0  0  0  0
  150.8239  138.9524  158.6911 H   0  0  0  0  0  0  0  0  0  0  0  0
  153.2370  138.1826  159.0523 H   0  0  0  0  0  0  0  0  0  0  0  0
  153.5013  138.6765  157.3856 H   0  0  0  0  0  0  0  0  0  0  0  0
  154.1725  140.6170  158.5067 H   0  0  0  0  0  0  0  0  0  0  0  0
  152.2857  141.3004  157.0378 H   0  0  0  0  0  0  0  0  0  0  0  0
  151.1394  140.9740  158.3183 H   0  0  0  0  0  0  0  0  0  0  0  0
  151.5040  143.5651  156.9325 H   0  0  0  0  0  0  0  0  0  0  0  0
  150.3725  143.2693  158.2307 H   0  0  0  0  0  0  0  0  0  0  0  0
  152.5648  145.4000  158.1876 H   0  0  0  0  0  0  0  0  0  0  0  0
  150.8443  145.6880  158.0542 H   0  0  0  0  0  0  0  0  0  0  0  0
  151.7098  146.1013  160.3935 H   0  0  0  0  0  0  0  0  0  0  0  0
  150.4632  144.8741  160.3453 H   0  0  0  0  0  0  0  0  0  0  0  0
  153.4762  144.3908  160.5003 H   0  0  0  0  0  0  0  0  0  0  0  0
  152.3035  144.0637  161.7555 H   0  0  0  0  0  0  0  0  0  0  0  0
  151.2112  142.3559  160.3528 H   0  0  0  0  0  0  0  0  0  0  0  0
  154.2339  141.9518  160.5586 H   0  0  0  0  0  0  0  0  0  0  0  0
  153.0473  141.6045  161.8025 H   0  0  0  0  0  0  0  0  0  0  0  0
  149.8021  137.1438  153.3201 H   0  0  0  0  0  0  0  0  0  0  0  0
  1  2  1  0  0  0  0
  2  7  1  0  0  0  0
  2  3  2  0  0  0  0
  3  4  1  0  0  0  0
  3 20  1  0  0  0  0
  4  5  2  0  0  0  0
  4 40  1  0  0  0  0
  5  6  1  0  0  0  0
  5 21  1  0  0  0  0
  6  7  2  0  0  0  0
  6 22  1  0  0  0  0
  7  8  1  0  0  0  0
  8  9  1  0  0  0  0
  8 23  1  0  0  0  0
  9 10  1  0  0  0  0
  9 24  1  0  0  0  0
  9 25  1  0  0  0  0
 10 19  1  0  0  0  0
 10 11  1  0  0  0  0
 10 26  1  0  0  0  0
 11 12  1  0  0  0  0
 11 27  1  0  0  0  0
 11 28  1  0  0  0  0
 12 17  1  0  0  0  0
 12 13  1  0  0  0  0
 13 14  1  0  0  0  0
 13 29  1  0  0  0  0
 13 30  1  0  0  0  0
 14 15  1  0  0  0  0
 14 31  1  0  0  0  0
 14 32  1  0  0  0  0
 15 16  1  0  0  0  0
 15 33  1  0  0  0  0
 15 34  1  0  0  0  0
 16 17  1  0  0  0  0
 16 35  1  0  0  0  0
 16 36  1  0  0  0  0
 17 18  1  0  0  0  0
 17 37  1  0  0  0  0
 18 19  1  0  0  0  0
 18 38  1  0  0  0  0
 18 39  1  0  0  0  0
M  CHG  1   4   1
M  END
> <s_m_source_file>
AV-unprocessed.smi

> <i_m_source_file_index>
2822

> <i_lp_mmshare_version>
43012

> <i_f3d_flags>
0

> <s_epik_input>
Q2xjMVtjSF1uW2NIXVtjSF1jMVtOSF1bQ0gyXVtDQEhdKFtDSDJdMilPW0NIMl1bQ0BASF0oTjIzKVtDSDJdW0NIMl1bQ0gyXVtDSDJdMw==

> <s_epik_cmdline>
J2VwaWtfcHl0aG9uJywgJy1waCcsICc3LjAnLCAnLXRuJywgJzgnLCAnLW1hJywgJzIwMCcsICctbWV0YWxfYmluZGluZycsICctaW1hZScsICc8aW5maWxlLm1hZT4nLCAnLW9tYWUnLCAnPG91dGZpbGUubWFlPic=

> <r_epik_Ionization_Penalty>
1.37653

> <r_epik_Ionization_Penalty_Charging>
0.152973

> <r_epik_Ionization_Penalty_Neutral>
1.22356

> <r_epik_State_Penalty>
1.42693

> <r_epik_Charging_Adjusted_Penalty>
1.5799

> <i_epik_Tot_Q>
1

> <i_epik_Tot_abs_Q>
1

> <r_epik_Metal_State_Penalty>
4.59822

> <b_epik_Metal_Only>
0

> <s_lp_Force_Field>
OPLS_2005

> <r_lp_Energy>
43.1838

> <b_lp_Chiralities_Consistent>
1

> <s_lp_Variant>
AV-unprocessed.smi:2822-20

> <Gold.Version>
5.8.1

> <Gold.Id.Protein>
6NUR|6NUR_protein|mol2

> <Gold.PLP.Fitness>
39.4537

> <Gold.PLP.PLP>
-34.4734

> <Gold.PLP.part.hbond>
-1.3884

> <Gold.PLP.part.metal>
0.0000

> <Gold.PLP.part.buried>
-5.5208

> <Gold.PLP.part.nonpolar>
-27.5244

> <Gold.PLP.part.repulsive>
0.1117

> <Gold.PLP.ligand.clash>
0.0000

> <Gold.PLP.ligand.torsion>
0.5131

> <Gold.PLP.Chemscore.Hbond>
2.0000

> <Gold.PLP.Chemscore.CHOScore>
0.0000

> <Gold.PLP.Chemscore.Metal>
0.0000

> <Gold.Chemscore.Hbonds>
donor molecule, donor type, donor heavy atom, donor atom, acceptor molecule, acceptor atom, score
      L1  H     4    40       P1  7948  2.00

> <Gold.PLP.Chemscore.Internal.Correction>
0.0066

> <Gold.Rescore>
     Score         DG    S(hbond)    S(metal)    S(lipo)     H(rot)  DE(clash)    DE(int)     intcor
     18.46     -19.02       0.94        0.00     114.69       1.18       0.10       0.46       ----

> <Gold.Chemscore.Fitness>
18.4587

> <Gold.Chemscore.DG>
-19.0160

> <Gold.Chemscore.ZeroCoef>
-5.4800

> <Gold.Chemscore.Hbond>
0.9386

> <Gold.Chemscore.Metal>
0.0000

> <Gold.Chemscore.Lipo>
114.6894

> <Gold.Chemscore.Internal_Hbond>
0.0000

> <Gold.Chemscore.DEClash>
0.0961

> <Gold.Chemscore.DEInternal>
0.4613

> <Gold.Chemscore.Rot>
1.1788

> <Gold.Chemscore.Internal.Correction>
   9.000000E+99

> <Gold.Chemscore.Hbonds>
donor molecule, donor type, donor heavy atom, donor atom, acceptor molecule, acceptor atom, score
      L1  H     4    40       P1  7948  0.50

> <Gold.Chemscore.Hbond.Weighted>
-3.1350

> <Gold.Chemscore.Metal.Weighted>
-0.0000

> <Gold.Chemscore.Lipo.Weighted>
-13.4187

> <Gold.Chemscore.Internal_Hbond.Weighted>
0.0000

> <Gold.Chemscore.DEClash.Weighted>
0.0961

> <Gold.Chemscore.DEInternal.Weighted>
0.4613

> <Gold.Chemscore.Rot.Weighted>
3.0177

> <Gold.Chemscore.Internal.Correction.Weighted>
   9.000000E+99

> <Gold.Protein.RotatedTorsions>
[ 6907 6896 6895 6894 ] final -150.50 input  -60.11 | X-H torsion
[ 7974 7965 7964 7962 ] final   -1.59 input  175.53 | X-H torsion
[ 8008 7997 7996 7995 ] final   75.84 input   59.86 | X-H torsion
[ 10167 10162 10161 10158 ] final  -53.86 input  -65.29 | X-H torsion
[ 10718 10713 10712 10709 ] final   98.35 input   66.30 | X-H torsion
[ 10763 10752 10751 10750 ] final   94.38 input  -60.55 | X-H torsion
[ 11005 11000 10999 10996 ] final  -90.58 input  -57.11 | X-H torsion

> <Gold.Protein.ActiveResidues>
 VAL166  LYS551  ARG553  GLY616  TRP617  ASP618  TYR619  PRO620  LYS621  CYS622 
 ASP623  PHE694  ASN695  SER759  ASP760  ASP761  ALA762  ILE779  LEU786  VAL792 
 PHE793  MET794  SER795  GLU796  ALA797  LYS798  CYS799  TRP800  GLU811  SER814 

> <Gold.Protein.RotatedAtoms>
  151.1994  133.4620  159.2595 H   0  0  0  0  0  0  0  0  0  0  0  0  # atno 6907 bound_to 6896
  151.1084  135.0013  159.8492 H   0  0  0  0  0  0  0  0  0  0  0  0  # atno 6908 bound_to 6896
  152.5448  134.1915  159.8729 H   0  0  0  0  0  0  0  0  0  0  0  0  # atno 6909 bound_to 6896
  146.2415  140.1444  142.8335 H   0  0  0  0  0  0  0  0  0  0  0  0  # atno 7974 bound_to 7965
  155.8187  140.3470  155.5501 H   0  0  0  0  0  0  0  0  0  0  0  0  # atno 8008 bound_to 7997
  155.8364  140.0935  157.1781 H   0  0  0  0  0  0  0  0  0  0  0  0  # atno 8009 bound_to 7997
  154.4004  140.1402  156.3664 H   0  0  0  0  0  0  0  0  0  0  0  0  # atno 8010 bound_to 7997
  140.6462  143.2537  151.4853 H   0  0  0  0  0  0  0  0  0  0  0  0  # atno 10167 bound_to 10162
  157.6897  131.0637  150.4783 H   0  0  0  0  0  0  0  0  0  0  0  0  # atno 10718 bound_to 10713
  153.2410  135.4291  155.0698 H   0  0  0  0  0  0  0  0  0  0  0  0  # atno 10763 bound_to 10752
  154.8340  135.3402  154.6649 H   0  0  0  0  0  0  0  0  0  0  0  0  # atno 10764 bound_to 10752
  153.7073  135.7025  153.5103 H   0  0  0  0  0  0  0  0  0  0  0  0  # atno 10765 bound_to 10752
  141.1563  133.7701  156.9758 H   0  0  0  0  0  0  0  0  0  0  0  0  # atno 11005 bound_to 11000
  145.0220  140.8801  143.5161 LP  0  0  0  0  0  0  0  0  0  0  0  0  # atno 17320 bound_to 7965
  145.1494  139.2524  143.5449 LP  0  0  0  0  0  0  0  0  0  0  0  0  # atno 17321 bound_to 7965
  139.5673  144.2012  152.1784 LP  0  0  0  0  0  0  0  0  0  0  0  0  # atno 17342 bound_to 10162
  140.1298  144.5299  150.6810 LP  0  0  0  0  0  0  0  0  0  0  0  0  # atno 17343 bound_to 10162
  156.5116  130.4141  149.6298 LP  0  0  0  0  0  0  0  0  0  0  0  0  # atno 17370 bound_to 10713
  156.3235  130.7293  151.2209 LP  0  0  0  0  0  0  0  0  0  0  0  0  # atno 17371 bound_to 10713
  140.1099  134.9483  157.2050 LP  0  0  0  0  0  0  0  0  0  0  0  0  # atno 17394 bound_to 11000
  140.3207  134.2919  155.7247 LP  0  0  0  0  0  0  0  0  0  0  0  0  # atno 17395 bound_to 11000

$$$$
