AV-unprocessed.smi:1194|AV-procd|sdf|4993|dock5
  -GOLD-   22720 3593D 1   1.00000     0.00000
 Structure written by MMmdl.
 48 49  0  0  0  0  0  0  0  0  2 V2000
  152.8653  141.4057  161.1015 C   0  0  0  0  0  0  0  0  0  0  0  0
  152.7038  142.2435  159.8282 C   0  0  0  0  0  0  0  0  0  0  0  0
  151.7936  141.5624  158.7881 C   0  0  0  0  0  0  0  0  0  0  0  0
  152.2982  140.1855  158.3172 C   0  0  0  0  0  0  0  0  0  0  0  0
  153.2307  139.6615  158.9290 O   0  0  0  0  0  0  0  0  0  0  0  0
  151.6972  139.5822  157.2573 N   0  0  0  0  0  0  0  0  0  0  0  0
  150.6179  140.1985  156.4575 C   0  0  0  0  0  0  0  0  0  0  0  0
  151.1237  140.4737  155.0306 C   0  0  0  0  0  0  0  0  0  0  0  0
  151.6749  139.1928  154.3821 C   0  0  0  0  0  0  0  0  0  0  0  0
  152.7216  138.5286  155.2942 C   0  0  0  0  0  0  0  0  0  0  0  0
  152.1790  138.2844  156.7243 C   0  0  2  0  0  0  0  0  0  0  0  0
  151.1463  137.1409  156.8294 C   0  0  0  0  0  0  0  0  0  0  0  0
  150.7574  136.7525  157.9310 O   0  0  0  0  0  0  0  0  0  0  0  0
  150.6982  136.6119  155.6798 N   0  0  0  0  0  0  0  0  0  0  0  0
  149.7259  135.5331  155.5928 C   0  0  0  0  0  0  0  0  0  0  0  0
  149.2974  135.3094  154.1370 C   0  0  0  0  0  0  0  0  0  0  0  0
  149.2554  133.8373  153.7759 C   0  0  0  0  0  0  0  0  0  0  0  0
  149.5238  132.8514  154.7512 C   0  0  0  0  0  0  0  0  0  0  0  0
  149.4859  131.4893  154.3864 C   0  0  0  0  0  0  0  0  0  0  0  0
  149.1811  131.1441  153.0538 C   0  0  0  0  0  0  0  0  0  0  0  0
  148.9304  132.1150  152.1480 N   0  3  0  0  0  0  0  0  0  0  0  0
  148.9566  133.4301  152.4576 C   0  0  0  0  0  0  0  0  0  0  0  0
  153.5079  141.9134  161.8212 H   0  0  0  0  0  0  0  0  0  0  0  0
  153.3138  140.4366  160.8809 H   0  0  0  0  0  0  0  0  0  0  0  0
  151.9026  141.2290  161.5819 H   0  0  0  0  0  0  0  0  0  0  0  0
  152.2963  143.2194  160.0963 H   0  0  0  0  0  0  0  0  0  0  0  0
  153.6897  142.4256  159.3981 H   0  0  0  0  0  0  0  0  0  0  0  0
  150.7985  141.4411  159.2181 H   0  0  0  0  0  0  0  0  0  0  0  0
  151.6985  142.2163  157.9201 H   0  0  0  0  0  0  0  0  0  0  0  0
  149.7621  139.5247  156.4153 H   0  0  0  0  0  0  0  0  0  0  0  0
  150.2202  141.1210  156.8751 H   0  0  0  0  0  0  0  0  0  0  0  0
  150.3191  140.8839  154.4199 H   0  0  0  0  0  0  0  0  0  0  0  0
  151.9064  141.2328  155.0627 H   0  0  0  0  0  0  0  0  0  0  0  0
  150.8563  138.4982  154.1903 H   0  0  0  0  0  0  0  0  0  0  0  0
  152.1162  139.4236  153.4122 H   0  0  0  0  0  0  0  0  0  0  0  0
  153.0706  137.5978  154.8453 H   0  0  0  0  0  0  0  0  0  0  0  0
  153.5994  139.1737  155.3541 H   0  0  0  0  0  0  0  0  0  0  0  0
  153.0273  137.9128  157.3001 H   0  0  0  0  0  0  0  0  0  0  0  0
  151.0552  136.9861  154.8125 H   0  0  0  0  0  0  0  0  0  0  0  0
  150.1638  134.6210  156.0017 H   0  0  0  0  0  0  0  0  0  0  0  0
  148.8569  135.7788  156.2056 H   0  0  0  0  0  0  0  0  0  0  0  0
  148.3115  135.7442  153.9662 H   0  0  0  0  0  0  0  0  0  0  0  0
  149.9823  135.8236  153.4612 H   0  0  0  0  0  0  0  0  0  0  0  0
  149.7591  133.1344  155.7671 H   0  0  0  0  0  0  0  0  0  0  0  0
  149.6894  130.7210  155.1180 H   0  0  0  0  0  0  0  0  0  0  0  0
  149.1314  130.1288  152.6877 H   0  0  0  0  0  0  0  0  0  0  0  0
  148.7418  134.1106  151.6464 H   0  0  0  0  0  0  0  0  0  0  0  0
  148.7127  131.8434  151.1887 H   0  0  0  0  0  0  0  0  0  0  0  0
  1  2  1  0  0  0  0
  1 23  1  0  0  0  0
  1 24  1  0  0  0  0
  1 25  1  0  0  0  0
  2  3  1  0  0  0  0
  2 26  1  0  0  0  0
  2 27  1  0  0  0  0
  3  4  1  0  0  0  0
  3 28  1  0  0  0  0
  3 29  1  0  0  0  0
  4  5  2  0  0  0  0
  4  6  1  0  0  0  0
  6 11  1  0  0  0  0
  6  7  1  0  0  0  0
  7  8  1  0  0  0  0
  7 30  1  0  0  0  0
  7 31  1  0  0  0  0
  8  9  1  0  0  0  0
  8 32  1  0  0  0  0
  8 33  1  0  0  0  0
  9 10  1  0  0  0  0
  9 34  1  0  0  0  0
  9 35  1  0  0  0  0
 10 11  1  0  0  0  0
 10 36  1  0  0  0  0
 10 37  1  0  0  0  0
 11 12  1  0  0  0  0
 11 38  1  0  0  0  0
 12 13  2  0  0  0  0
 12 14  1  0  0  0  0
 14 15  1  0  0  0  0
 14 39  1  0  0  0  0
 15 16  1  0  0  0  0
 15 40  1  0  0  0  0
 15 41  1  0  0  0  0
 16 17  1  0  0  0  0
 16 42  1  0  0  0  0
 16 43  1  0  0  0  0
 17 22  1  0  0  0  0
 17 18  2  0  0  0  0
 18 19  1  0  0  0  0
 18 44  1  0  0  0  0
 19 20  2  0  0  0  0
 19 45  1  0  0  0  0
 20 21  1  0  0  0  0
 20 46  1  0  0  0  0
 21 22  2  0  0  0  0
 21 48  1  0  0  0  0
 22 47  1  0  0  0  0
M  CHG  1  21   1
M  END
> <s_m_source_file>
AV-unprocessed.smi

> <i_m_source_file_index>
1194

> <i_lp_mmshare_version>
43012

> <i_f3d_flags>
0

> <s_epik_input>
W0NIM11bQ0gyXVtDSDJdQyg9TylOMVtDSDJdW0NIMl1bQ0gyXVtDSDJdW0NASF0xQyg9TylbTkhdW0NIMl1bQ0gyXWMyW2NIXVtjSF1bY0hdbltjSF0y

> <s_epik_cmdline>
J2VwaWtfcHl0aG9uJywgJy1waCcsICc3LjAnLCAnLXRuJywgJzgnLCAnLW1hJywgJzIwMCcsICctbWV0YWxfYmluZGluZycsICctaW1hZScsICc8aW5maWxlLm1hZT4nLCAnLW9tYWUnLCAnPG91dGZpbGUubWFlPic=

> <r_epik_Ionization_Penalty>
2.26523

> <r_epik_Ionization_Penalty_Charging>
2.26523

> <r_epik_Ionization_Penalty_Neutral>
5.33649e-08

> <r_epik_State_Penalty>
2.41338

> <r_epik_Charging_Adjusted_Penalty>
4.67861

> <i_epik_Tot_Q>
1

> <i_epik_Tot_abs_Q>
1

> <r_epik_Metal_State_Penalty>
2.42628

> <b_epik_Metal_Only>
0

> <s_lp_Force_Field>
OPLS_2005

> <r_lp_Energy>
33.0292

> <b_lp_Chiralities_Consistent>
1

> <s_lp_Variant>
AV-unprocessed.smi:1194-4

> <Gold.Version>
5.8.1

> <Gold.Id.Protein>
6NUR|6NUR_protein|mol2

> <Gold.PLP.Fitness>
45.8982

> <Gold.PLP.PLP>
-41.3926

> <Gold.PLP.part.hbond>
-3.0000

> <Gold.PLP.part.metal>
0.0000

> <Gold.PLP.part.buried>
-2.5598

> <Gold.PLP.part.nonpolar>
-35.2819

> <Gold.PLP.part.repulsive>
0.1124

> <Gold.PLP.ligand.clash>
0.0000

> <Gold.PLP.ligand.torsion>
0.5470

> <Gold.PLP.Chemscore.Hbond>
1.8206

> <Gold.PLP.Chemscore.CHOScore>
0.0000

> <Gold.PLP.Chemscore.Metal>
0.0000

> <Gold.Chemscore.Hbonds>
donor molecule, donor type, donor heavy atom, donor atom, acceptor molecule, acceptor atom, score
      L1  H    21    48       P1 10747  0.44
      P1  H  7997  8010       L1     5  0.11

> <Gold.PLP.Chemscore.Internal.Correction>
0.1380

> <Gold.Rescore>
     Score         DG    S(hbond)    S(metal)    S(lipo)     H(rot)  DE(clash)    DE(int)     intcor
     16.51     -17.99       1.71        0.00      97.52       1.80       0.10       1.38       ----

> <Gold.Chemscore.Fitness>
16.5119

> <Gold.Chemscore.DG>
-17.9924

> <Gold.Chemscore.ZeroCoef>
-5.4800

> <Gold.Chemscore.Hbond>
1.7086

> <Gold.Chemscore.Metal>
0.0000

> <Gold.Chemscore.Lipo>
97.5206

> <Gold.Chemscore.Internal_Hbond>
0.0000

> <Gold.Chemscore.DEClash>
0.0988

> <Gold.Chemscore.DEInternal>
1.3817

> <Gold.Chemscore.Rot>
1.7985

> <Gold.Chemscore.Internal.Correction>
   9.000000E+99

> <Gold.Chemscore.Hbonds>
donor molecule, donor type, donor heavy atom, donor atom, acceptor molecule, acceptor atom, score
      L1  H    21    48       P1 10747  0.45
      P1  H  7997  8010       L1     5  0.01

> <Gold.Chemscore.Hbond.Weighted>
-5.7067

> <Gold.Chemscore.Metal.Weighted>
-0.0000

> <Gold.Chemscore.Lipo.Weighted>
-11.4099

> <Gold.Chemscore.Internal_Hbond.Weighted>
0.0000

> <Gold.Chemscore.DEClash.Weighted>
0.0988

> <Gold.Chemscore.DEInternal.Weighted>
1.3817

> <Gold.Chemscore.Rot.Weighted>
4.6041

> <Gold.Chemscore.Internal.Correction.Weighted>
   9.000000E+99

> <Gold.Protein.RotatedTorsions>
[ 6907 6896 6895 6894 ] final   18.32 input  -60.11 | X-H torsion
[ 7974 7965 7964 7962 ] final  -58.42 input  175.53 | X-H torsion
[ 8008 7997 7996 7995 ] final   28.47 input   59.86 | X-H torsion
[ 10167 10162 10161 10158 ] final  -46.14 input  -65.29 | X-H torsion
[ 10718 10713 10712 10709 ] final   60.03 input   66.30 | X-H torsion
[ 10763 10752 10751 10750 ] final  143.34 input  -60.55 | X-H torsion
[ 11005 11000 10999 10996 ] final  -98.94 input  -57.11 | X-H torsion

> <Gold.Protein.ActiveResidues>
 VAL166  LYS551  ARG553  GLY616  TRP617  ASP618  TYR619  PRO620  LYS621  CYS622 
 ASP623  PHE694  ASN695  SER759  ASP760  ASP761  ALA762  ILE779  LEU786  VAL792 
 PHE793  MET794  SER795  GLU796  ALA797  LYS798  CYS799  TRP800  GLU811  SER814 

> <Gold.Protein.RotatedAtoms>
  151.8634  135.0516  160.0471 H   0  0  0  0  0  0  0  0  0  0  0  0  # atno 6907 bound_to 6896
  152.2645  133.5322  159.5410 H   0  0  0  0  0  0  0  0  0  0  0  0  # atno 6908 bound_to 6896
  150.7128  134.0700  159.3903 H   0  0  0  0  0  0  0  0  0  0  0  0  # atno 6909 bound_to 6896
  145.8395  140.8427  143.0042 H   0  0  0  0  0  0  0  0  0  0  0  0  # atno 7974 bound_to 7965
  155.0592  140.3188  155.4666 H   0  0  0  0  0  0  0  0  0  0  0  0  # atno 8008 bound_to 7997
  156.2817  140.2132  156.5663 H   0  0  0  0  0  0  0  0  0  0  0  0  # atno 8009 bound_to 7997
  154.7146  140.0495  157.0570 H   0  0  0  0  0  0  0  0  0  0  0  0  # atno 8010 bound_to 7997
  140.6830  143.2845  151.3739 H   0  0  0  0  0  0  0  0  0  0  0  0  # atno 10167 bound_to 10162
  157.5721  130.8916  149.9285 H   0  0  0  0  0  0  0  0  0  0  0  0  # atno 10718 bound_to 10713
  153.9707  135.2951  155.3427 H   0  0  0  0  0  0  0  0  0  0  0  0  # atno 10763 bound_to 10752
  154.7324  135.5062  153.8988 H   0  0  0  0  0  0  0  0  0  0  0  0  # atno 10764 bound_to 10752
  153.0901  135.6705  153.9982 H   0  0  0  0  0  0  0  0  0  0  0  0  # atno 10765 bound_to 10752
  141.1327  133.8283  157.0905 H   0  0  0  0  0  0  0  0  0  0  0  0  # atno 11005 bound_to 11000
  144.6734  140.0791  143.7470 LP  0  0  0  0  0  0  0  0  0  0  0  0  # atno 17320 bound_to 7965
  145.9481  139.2715  143.1228 LP  0  0  0  0  0  0  0  0  0  0  0  0  # atno 17321 bound_to 7965
  139.6166  144.0991  152.2351 LP  0  0  0  0  0  0  0  0  0  0  0  0  # atno 17342 bound_to 10162
  140.0422  144.5999  150.7402 LP  0  0  0  0  0  0  0  0  0  0  0  0  # atno 17343 bound_to 10162
  156.0766  130.3678  150.0664 LP  0  0  0  0  0  0  0  0  0  0  0  0  # atno 17370 bound_to 10713
  156.8816  130.9558  151.3599 LP  0  0  0  0  0  0  0  0  0  0  0  0  # atno 17371 bound_to 10713
  140.0395  134.9861  157.0934 LP  0  0  0  0  0  0  0  0  0  0  0  0  # atno 17394 bound_to 11000
  140.4158  134.1933  155.7163 LP  0  0  0  0  0  0  0  0  0  0  0  0  # atno 17395 bound_to 11000

$$$$
