AV-unprocessed.smi:1763|AV-procd|sdf|7131|dock9
  -GOLD-   22720 8363D 1   1.00000     0.00000
 Structure written by MMmdl.
 42 43  0  0  0  0  0  0  0  0  3 V2000
  143.5017  145.4065  153.8938 C   0  0  0  0  0  0  0  0  0  0  0  0
  144.1678  145.2464  155.1812 N   0  5  0  0  0  0  0  0  0  0  0  0
  144.1947  144.0729  155.8716 C   0  0  0  0  0  0  0  0  0  0  0  0
  144.4734  143.8385  157.0517 O   0  0  0  0  0  0  0  0  0  0  0  0
  143.8061  142.8941  154.9705 C   0  0  0  0  0  0  0  0  0  0  0  0
  145.0060  142.1136  154.5727 N   0  3  2  0  0  0  0  0  0  0  0  0
  145.6262  141.4032  155.7189 C   0  0  0  0  0  0  0  0  0  0  0  0
  146.7671  140.4808  155.2520 C   0  0  0  0  0  0  0  0  0  0  0  0
  147.8289  141.2383  154.4357 C   0  0  2  0  0  0  0  0  0  0  0  0
  148.6174  142.1127  155.3038 N   0  0  0  0  0  0  0  0  0  0  0  0
  149.5075  141.6984  156.2178 C   0  0  0  0  0  0  0  0  0  0  0  0
  149.7652  140.5119  156.4228 O   0  0  0  0  0  0  0  0  0  0  0  0
  150.0659  142.7389  156.8614 N   0  0  0  0  0  0  0  0  0  0  0  0
  151.0486  142.7111  157.8871 C   0  0  0  0  0  0  0  0  0  0  0  0
  151.4434  143.9784  158.3726 C   0  0  0  0  0  0  0  0  0  0  0  0
  152.4133  144.0584  159.3907 C   0  0  0  0  0  0  0  0  0  0  0  0
  152.9640  142.8679  159.8978 C   0  0  0  0  0  0  0  0  0  0  0  0
  152.5160  141.6478  159.3587 C   0  0  0  0  0  0  0  0  0  0  0  0
  151.5869  141.5688  158.3829 N   0  0  0  0  0  0  0  0  0  0  0  0
  147.1478  142.0238  153.2972 C   0  0  0  0  0  0  0  0  0  0  0  0
  146.0041  142.9135  153.8142 C   0  0  0  0  0  0  0  0  0  0  0  0
  143.6239  146.4145  153.4978 H   0  0  0  0  0  0  0  0  0  0  0  0
  142.4279  145.2287  153.9578 H   0  0  0  0  0  0  0  0  0  0  0  0
  143.8906  144.7267  153.1350 H   0  0  0  0  0  0  0  0  0  0  0  0
  143.0809  142.2486  155.4687 H   0  0  0  0  0  0  0  0  0  0  0  0
  143.3068  143.2998  154.0888 H   0  0  0  0  0  0  0  0  0  0  0  0
  145.9945  142.1315  156.4430 H   0  0  0  0  0  0  0  0  0  0  0  0
  144.8718  140.8034  156.2294 H   0  0  0  0  0  0  0  0  0  0  0  0
  147.2276  139.9893  156.1100 H   0  0  0  0  0  0  0  0  0  0  0  0
  146.3470  139.6838  154.6369 H   0  0  0  0  0  0  0  0  0  0  0  0
  148.5045  140.5009  153.9981 H   0  0  0  0  0  0  0  0  0  0  0  0
  148.4665  143.1062  155.2070 H   0  0  0  0  0  0  0  0  0  0  0  0
  149.7527  143.6578  156.5866 H   0  0  0  0  0  0  0  0  0  0  0  0
  151.0101  144.8836  157.9723 H   0  0  0  0  0  0  0  0  0  0  0  0
  152.7286  145.0171  159.7754 H   0  0  0  0  0  0  0  0  0  0  0  0
  153.7102  142.8889  160.6783 H   0  0  0  0  0  0  0  0  0  0  0  0
  152.9135  140.7106  159.7198 H   0  0  0  0  0  0  0  0  0  0  0  0
  147.8767  142.6280  152.7558 H   0  0  0  0  0  0  0  0  0  0  0  0
  146.7444  141.3183  152.5695 H   0  0  0  0  0  0  0  0  0  0  0  0
  145.5265  143.4038  152.9654 H   0  0  0  0  0  0  0  0  0  0  0  0
  146.3987  143.7063  154.4516 H   0  0  0  0  0  0  0  0  0  0  0  0
  144.6607  141.3999  153.9458 H   0  0  0  0  0  0  0  0  0  0  0  0
  1  2  1  0  0  0  0
  1 22  1  0  0  0  0
  1 23  1  0  0  0  0
  1 24  1  0  0  0  0
  2  3  1  0  0  0  0
  3  4  2  0  0  0  0
  3  5  1  0  0  0  0
  5  6  1  0  0  0  0
  5 25  1  0  0  0  0
  5 26  1  0  0  0  0
  6 21  1  0  0  0  0
  6  7  1  0  0  0  0
  6 42  1  0  0  0  0
  7  8  1  0  0  0  0
  7 27  1  0  0  0  0
  7 28  1  0  0  0  0
  8  9  1  0  0  0  0
  8 29  1  0  0  0  0
  8 30  1  0  0  0  0
  9 10  1  0  0  0  0
  9 20  1  0  0  0  0
  9 31  1  0  0  0  0
 10 11  1  0  0  0  0
 10 32  1  0  0  0  0
 11 12  2  0  0  0  0
 11 13  1  0  0  0  0
 13 14  1  0  0  0  0
 13 33  1  0  0  0  0
 14 19  1  0  0  0  0
 14 15  2  0  0  0  0
 15 16  1  0  0  0  0
 15 34  1  0  0  0  0
 16 17  2  0  0  0  0
 16 35  1  0  0  0  0
 17 18  1  0  0  0  0
 17 36  1  0  0  0  0
 18 19  2  0  0  0  0
 18 37  1  0  0  0  0
 20 21  1  0  0  0  0
 20 38  1  0  0  0  0
 20 39  1  0  0  0  0
 21 40  1  0  0  0  0
 21 41  1  0  0  0  0
M  CHG  1   2  -1
M  CHG  1   6   1
M  END
> <s_m_source_file>
AV-unprocessed.smi

> <i_m_source_file_index>
1763

> <i_lp_mmshare_version>
43012

> <i_f3d_flags>
0

> <s_epik_input>
W0NIM11bTkhdQyg9TylbQ0gyXU4xW0NIMl1bQ0gyXVtDSF0oW0NIMl1bQ0gyXTEpW05IXUMoPU8pW05IXWMyW2NIXVtjSF1bY0hdW2NIXW4y

> <s_epik_cmdline>
J2VwaWtfcHl0aG9uJywgJy1waCcsICc3LjAnLCAnLXRuJywgJzgnLCAnLW1hJywgJzIwMCcsICctbWV0YWxfYmluZGluZycsICctaW1hZScsICc8aW5maWxlLm1hZT4nLCAnLW9tYWUnLCAnPG91dGZpbGUubWFlPic=

> <r_epik_Ionization_Penalty>
6.1395

> <r_epik_Ionization_Penalty_Charging>
6.13946

> <r_epik_Ionization_Penalty_Neutral>
3.77655e-05

> <r_epik_State_Penalty>
6.9595

> <r_epik_Charging_Adjusted_Penalty>
13.099

> <i_epik_Tot_Q>
0

> <i_epik_Tot_abs_Q>
2

> <r_epik_Metal_State_Penalty>
2.8914

> <b_epik_Metal_Only>
1

> <s_lp_Force_Field>
OPLS_2005

> <r_lp_Energy>
12.7162

> <b_lp_Chiralities_Consistent>
1

> <s_lp_Variant>
AV-unprocessed.smi:1763-5

> <Gold.Version>
5.8.1

> <Gold.Id.Protein>
6NUR|6NUR_protein|mol2

> <Gold.PLP.Fitness>
46.5846

> <Gold.PLP.PLP>
-35.4150

> <Gold.PLP.part.hbond>
-3.0000

> <Gold.PLP.part.metal>
0.0000

> <Gold.PLP.part.buried>
-5.9403

> <Gold.PLP.part.nonpolar>
-28.5271

> <Gold.PLP.part.repulsive>
0.3653

> <Gold.PLP.ligand.clash>
0.0000

> <Gold.PLP.ligand.torsion>
0.4066

> <Gold.PLP.Chemscore.Hbond>
3.9825

> <Gold.PLP.Chemscore.CHOScore>
0.0000

> <Gold.PLP.Chemscore.Metal>
0.0000

> <Gold.Chemscore.Hbonds>
donor molecule, donor type, donor heavy atom, donor atom, acceptor molecule, acceptor atom, score
      L1  H     6    42       P1 10175  2.00
      L1  H    10    32       P1  8028  1.00
      L1  H    13    33       P1  8028  1.00

> <Gold.PLP.Chemscore.Internal.Correction>
0.0353

> <Gold.Rescore>
     Score         DG    S(hbond)    S(metal)    S(lipo)     H(rot)  DE(clash)    DE(int)     intcor
     16.82     -19.91       2.65        0.00      84.40       1.67       1.37       1.72       ----

> <Gold.Chemscore.Fitness>
16.8219

> <Gold.Chemscore.DG>
-19.9105

> <Gold.Chemscore.ZeroCoef>
-5.4800

> <Gold.Chemscore.Hbond>
2.6462

> <Gold.Chemscore.Metal>
0.0000

> <Gold.Chemscore.Lipo>
84.4036

> <Gold.Chemscore.Internal_Hbond>
0.0000

> <Gold.Chemscore.DEClash>
1.3653

> <Gold.Chemscore.DEInternal>
1.7232

> <Gold.Chemscore.Rot>
1.6730

> <Gold.Chemscore.Internal.Correction>
   9.000000E+99

> <Gold.Chemscore.Hbonds>
donor molecule, donor type, donor heavy atom, donor atom, acceptor molecule, acceptor atom, score
      L1  H     6    42       P1 10175  0.34
      L1  H    10    32       P1  8028  0.95
      L1  H    13    33       P1  8028  0.98

> <Gold.Chemscore.Hbond.Weighted>
-8.8383

> <Gold.Chemscore.Metal.Weighted>
-0.0000

> <Gold.Chemscore.Lipo.Weighted>
-9.8752

> <Gold.Chemscore.Internal_Hbond.Weighted>
0.0000

> <Gold.Chemscore.DEClash.Weighted>
1.3653

> <Gold.Chemscore.DEInternal.Weighted>
1.7232

> <Gold.Chemscore.Rot.Weighted>
4.2830

> <Gold.Chemscore.Internal.Correction.Weighted>
   9.000000E+99

> <Gold.Protein.RotatedTorsions>
[ 6907 6896 6895 6894 ] final  170.72 input  -60.11 | X-H torsion
[ 7974 7965 7964 7962 ] final  124.97 input  175.53 | X-H torsion
[ 8008 7997 7996 7995 ] final  146.36 input   59.86 | X-H torsion
[ 10167 10162 10161 10158 ] final -176.98 input  -65.29 | X-H torsion
[ 10718 10713 10712 10709 ] final   18.55 input   66.30 | X-H torsion
[ 10763 10752 10751 10750 ] final  109.26 input  -60.55 | X-H torsion
[ 11005 11000 10999 10996 ] final    0.36 input  -57.11 | X-H torsion

> <Gold.Protein.ActiveResidues>
 VAL166  LYS551  ARG553  GLY616  TRP617  ASP618  TYR619  PRO620  LYS621  CYS622 
 ASP623  PHE694  ASN695  SER759  ASP760  ASP761  ALA762  ILE779  LEU786  VAL792 
 PHE793  MET794  SER795  GLU796  ALA797  LYS798  CYS799  TRP800  GLU811  SER814 

> <Gold.Protein.RotatedAtoms>
  151.8116  133.3382  159.3556 H   0  0  0  0  0  0  0  0  0  0  0  0  # atno 6907 bound_to 6896
  150.7324  134.5658  159.5875 H   0  0  0  0  0  0  0  0  0  0  0  0  # atno 6908 bound_to 6896
  152.3071  134.7543  160.0396 H   0  0  0  0  0  0  0  0  0  0  0  0  # atno 6909 bound_to 6896
  145.0783  139.3676  143.4922 H   0  0  0  0  0  0  0  0  0  0  0  0  # atno 7974 bound_to 7965
  156.2857  140.2184  156.5365 H   0  0  0  0  0  0  0  0  0  0  0  0  # atno 8008 bound_to 7997
  154.7406  140.0488  157.0829 H   0  0  0  0  0  0  0  0  0  0  0  0  # atno 8009 bound_to 7997
  155.0236  140.3127  155.4787 H   0  0  0  0  0  0  0  0  0  0  0  0  # atno 8010 bound_to 7997
  139.5502  144.2128  152.1063 H   0  0  0  0  0  0  0  0  0  0  0  0  # atno 10167 bound_to 10162
  157.0980  130.6456  149.5865 H   0  0  0  0  0  0  0  0  0  0  0  0  # atno 10718 bound_to 10713
  153.4322  135.3786  155.2177 H   0  0  0  0  0  0  0  0  0  0  0  0  # atno 10763 bound_to 10752
  154.8750  135.3842  154.4254 H   0  0  0  0  0  0  0  0  0  0  0  0  # atno 10764 bound_to 10752
  153.4788  135.7088  153.6013 H   0  0  0  0  0  0  0  0  0  0  0  0  # atno 10765 bound_to 10752
  140.6274  133.9606  155.8256 H   0  0  0  0  0  0  0  0  0  0  0  0  # atno 11005 bound_to 11000
  146.3530  140.0562  142.8632 LP  0  0  0  0  0  0  0  0  0  0  0  0  # atno 17320 bound_to 7965
  145.1208  140.9461  143.4601 LP  0  0  0  0  0  0  0  0  0  0  0  0  # atno 17321 bound_to 7965
  140.1622  144.5015  150.6626 LP  0  0  0  0  0  0  0  0  0  0  0  0  # atno 17342 bound_to 10162
  140.6763  143.2306  151.5499 LP  0  0  0  0  0  0  0  0  0  0  0  0  # atno 17343 bound_to 10162
  155.9881  130.4923  150.7154 LP  0  0  0  0  0  0  0  0  0  0  0  0  # atno 17370 bound_to 10713
  157.4665  131.0889  151.0689 LP  0  0  0  0  0  0  0  0  0  0  0  0  # atno 17371 bound_to 10713
  141.0699  134.0220  157.3540 LP  0  0  0  0  0  0  0  0  0  0  0  0  # atno 17394 bound_to 11000
  139.9129  135.0193  156.7766 LP  0  0  0  0  0  0  0  0  0  0  0  0  # atno 17395 bound_to 11000

$$$$
