AV-unprocessed.smi:1605|AV-procd|sdf|6458|dock4
  -GOLD-   22720 7113D 1   1.00000     0.00000
 Structure written by MMmdl.
 52 54  0  0  0  0  0  0  0  0  3 V2000
  146.0142  137.8683  157.0551 C   0  0  0  0  0  0  0  0  0  0  0  0
  146.5082  138.6921  156.0101 O   0  0  0  0  0  0  0  0  0  0  0  0
  146.5385  138.0688  154.7310 C   0  0  2  0  0  0  0  0  0  0  0  0
  147.3792  136.7781  154.7471 C   0  0  0  0  0  0  0  0  0  0  0  0
  148.8604  137.0766  155.0344 C   0  0  0  0  0  0  0  0  0  0  0  0
  149.4157  138.0427  154.0487 N   0  3  2  0  0  0  0  0  0  0  0  0
  150.8744  138.2690  154.2138 C   0  0  0  0  0  0  0  0  0  0  0  0
  151.3282  138.1655  155.6869 C   0  0  1  0  0  0  0  0  0  0  0  0
  152.0053  136.9400  155.8763 O   0  0  0  0  0  0  0  0  0  0  0  0
  152.2922  139.2928  156.1115 C   0  0  0  0  0  0  0  0  0  0  0  0
  151.6070  140.5501  156.4380 N   0  0  0  0  0  0  0  0  0  0  0  0
  150.6777  141.2522  155.7334 C   0  0  0  0  0  0  0  0  0  0  0  0
  150.3566  142.3554  156.4644 N   0  3  0  0  0  0  0  0  0  0  0  0
  151.1005  142.3648  157.6464 C   0  0  0  0  0  0  0  0  0  0  0  0
  151.1282  143.2716  158.6993 C   0  0  0  0  0  0  0  0  0  0  0  0
  152.0124  142.9944  159.7665 C   0  0  0  0  0  0  0  0  0  0  0  0
  152.0698  143.9670  160.9322 C   0  0  0  0  0  0  0  0  0  0  0  0
  152.8323  141.8361  159.7535 C   0  0  0  0  0  0  0  0  0  0  0  0
  153.7807  141.5485  160.9050 C   0  0  0  0  0  0  0  0  0  0  0  0
  152.7897  140.9261  158.6732 C   0  0  0  0  0  0  0  0  0  0  0  0
  151.9106  141.2129  157.6319 C   0  0  0  0  0  0  0  0  0  0  0  0
  148.6462  139.3135  154.0368 C   0  0  0  0  0  0  0  0  0  0  0  0
  147.1574  139.0636  153.7376 C   0  0  0  0  0  0  0  0  0  0  0  0
  145.9765  138.4435  157.9800 H   0  0  0  0  0  0  0  0  0  0  0  0
  146.6548  137.0045  157.2303 H   0  0  0  0  0  0  0  0  0  0  0  0
  145.0041  137.5184  156.8396 H   0  0  0  0  0  0  0  0  0  0  0  0
  145.5196  137.8469  154.4091 H   0  0  0  0  0  0  0  0  0  0  0  0
  146.9919  136.0670  155.4761 H   0  0  0  0  0  0  0  0  0  0  0  0
  147.2958  136.2846  153.7779 H   0  0  0  0  0  0  0  0  0  0  0  0
  148.9708  137.4781  156.0431 H   0  0  0  0  0  0  0  0  0  0  0  0
  149.4201  136.1425  155.0087 H   0  0  0  0  0  0  0  0  0  0  0  0
  151.4374  137.5400  153.6284 H   0  0  0  0  0  0  0  0  0  0  0  0
  151.1212  139.2440  153.7924 H   0  0  0  0  0  0  0  0  0  0  0  0
  150.4677  138.1733  156.3540 H   0  0  0  0  0  0  0  0  0  0  0  0
  151.6949  136.5340  156.6709 H   0  0  0  0  0  0  0  0  0  0  0  0
  152.8835  138.9957  156.9791 H   0  0  0  0  0  0  0  0  0  0  0  0
  153.0019  139.5066  155.3107 H   0  0  0  0  0  0  0  0  0  0  0  0
  150.2670  140.9829  154.7708 H   0  0  0  0  0  0  0  0  0  0  0  0
  150.5029  144.1526  158.7016 H   0  0  0  0  0  0  0  0  0  0  0  0
  153.0850  144.3374  161.0745 H   0  0  0  0  0  0  0  0  0  0  0  0
  151.7466  143.4802  161.8525 H   0  0  0  0  0  0  0  0  0  0  0  0
  151.4227  144.8286  160.7654 H   0  0  0  0  0  0  0  0  0  0  0  0
  154.2966  140.5976  160.7692 H   0  0  0  0  0  0  0  0  0  0  0  0
  153.2368  141.4988  161.8485 H   0  0  0  0  0  0  0  0  0  0  0  0
  154.5370  142.3301  160.9809 H   0  0  0  0  0  0  0  0  0  0  0  0
  153.4182  140.0477  158.6604 H   0  0  0  0  0  0  0  0  0  0  0  0
  148.7608  139.8192  154.9971 H   0  0  0  0  0  0  0  0  0  0  0  0
  149.0530  139.9822  153.2772 H   0  0  0  0  0  0  0  0  0  0  0  0
  147.0539  138.6749  152.7235 H   0  0  0  0  0  0  0  0  0  0  0  0
  146.6079  140.0055  153.7612 H   0  0  0  0  0  0  0  0  0  0  0  0
  149.2919  137.6367  153.1323 H   0  0  0  0  0  0  0  0  0  0  0  0
  149.6842  143.0534  156.1725 H   0  0  0  0  0  0  0  0  0  0  0  0
  1  2  1  0  0  0  0
  1 24  1  0  0  0  0
  1 25  1  0  0  0  0
  1 26  1  0  0  0  0
  2  3  1  0  0  0  0
  3 23  1  0  0  0  0
  3  4  1  0  0  0  0
  3 27  1  0  0  0  0
  4  5  1  0  0  0  0
  4 28  1  0  0  0  0
  4 29  1  0  0  0  0
  5  6  1  0  0  0  0
  5 30  1  0  0  0  0
  5 31  1  0  0  0  0
  6  7  1  0  0  0  0
  6 22  1  0  0  0  0
  6 51  1  0  0  0  0
  7  8  1  0  0  0  0
  7 32  1  0  0  0  0
  7 33  1  0  0  0  0
  8  9  1  0  0  0  0
  8 10  1  0  0  0  0
  8 34  1  0  0  0  0
  9 35  1  0  0  0  0
 10 11  1  0  0  0  0
 10 36  1  0  0  0  0
 10 37  1  0  0  0  0
 11 21  1  0  0  0  0
 11 12  1  0  0  0  0
 12 13  2  0  0  0  0
 12 38  1  0  0  0  0
 13 14  1  0  0  0  0
 13 52  1  0  0  0  0
 14 21  2  0  0  0  0
 14 15  1  0  0  0  0
 15 16  2  0  0  0  0
 15 39  1  0  0  0  0
 16 17  1  0  0  0  0
 16 18  1  0  0  0  0
 17 40  1  0  0  0  0
 17 41  1  0  0  0  0
 17 42  1  0  0  0  0
 18 19  1  0  0  0  0
 18 20  2  0  0  0  0
 19 43  1  0  0  0  0
 19 44  1  0  0  0  0
 19 45  1  0  0  0  0
 20 21  1  0  0  0  0
 20 46  1  0  0  0  0
 22 23  1  0  0  0  0
 22 47  1  0  0  0  0
 22 48  1  0  0  0  0
 23 49  1  0  0  0  0
 23 50  1  0  0  0  0
M  CHG  1   6   1
M  CHG  1  13   1
M  END
> <s_m_source_file>
AV-unprocessed.smi

> <i_m_source_file_index>
1605

> <i_lp_mmshare_version>
43012

> <i_f3d_flags>
0

> <s_epik_input>
W0NIM11PW0NIXTFbQ0gyXVtDSDJdTihbQ0gyXVtDSDJdMSlbQ0gyXVtDQEhdKFtPSF0pW0NIMl1uKFtjSF1uMiljKGMyMylbY0hdYyhbQ0gzXSljKFtjSF0zKVtDSDNd

> <s_epik_cmdline>
J2VwaWtfcHl0aG9uJywgJy1waCcsICc3LjAnLCAnLXRuJywgJzgnLCAnLW1hJywgJzIwMCcsICctbWV0YWxfYmluZGluZycsICctaW1hZScsICc8aW5maWxlLm1hZT4nLCAnLW9tYWUnLCAnPG91dGZpbGUubWFlPic=

> <r_epik_Ionization_Penalty>
1.19848

> <r_epik_Ionization_Penalty_Charging>
1.19848

> <r_epik_Ionization_Penalty_Neutral>
1.67134e-06

> <r_epik_State_Penalty>
1.2782

> <r_epik_Charging_Adjusted_Penalty>
2.47668

> <i_epik_Tot_Q>
2

> <i_epik_Tot_abs_Q>
2

> <r_epik_Metal_State_Penalty>
5.29544

> <b_epik_Metal_Only>
0

> <s_lp_Force_Field>
OPLS_2005

> <r_lp_Energy>
34.9642

> <b_lp_Chiralities_Consistent>
1

> <s_lp_Variant>
AV-unprocessed.smi:1605-8

> <Gold.Version>
5.8.1

> <Gold.Id.Protein>
6NUR|6NUR_protein|mol2

> <Gold.PLP.Fitness>
53.3835

> <Gold.PLP.PLP>
-41.0010

> <Gold.PLP.part.hbond>
-3.0000

> <Gold.PLP.part.metal>
0.0000

> <Gold.PLP.part.buried>
-4.8257

> <Gold.PLP.part.nonpolar>
-32.8301

> <Gold.PLP.part.repulsive>
0.0912

> <Gold.PLP.ligand.clash>
0.0000

> <Gold.PLP.ligand.torsion>
1.3372

> <Gold.PLP.Chemscore.Hbond>
5.0000

> <Gold.PLP.Chemscore.CHOScore>
0.0000

> <Gold.PLP.Chemscore.Metal>
0.0000

> <Gold.Chemscore.Hbonds>
donor molecule, donor type, donor heavy atom, donor atom, acceptor molecule, acceptor atom, score
      L1  H     6    51       P1  7948  2.00
      L1  H    13    52       P1  8028  2.00
      P1  H 10752 10765       L1     9  1.00

> <Gold.PLP.Chemscore.Internal.Correction>
0.0569

> <Gold.Rescore>
     Score         DG    S(hbond)    S(metal)    S(lipo)     H(rot)  DE(clash)    DE(int)     intcor
     20.71     -22.06       2.79        0.00     112.00       2.28       0.16       1.20       ----

> <Gold.Chemscore.Fitness>
20.7056

> <Gold.Chemscore.DG>
-22.0637

> <Gold.Chemscore.ZeroCoef>
-5.4800

> <Gold.Chemscore.Hbond>
2.7923

> <Gold.Chemscore.Metal>
0.0000

> <Gold.Chemscore.Lipo>
112.0019

> <Gold.Chemscore.Internal_Hbond>
0.0000

> <Gold.Chemscore.DEClash>
0.1556

> <Gold.Chemscore.DEInternal>
1.2024

> <Gold.Chemscore.Rot>
2.2839

> <Gold.Chemscore.Internal.Correction>
   9.000000E+99

> <Gold.Chemscore.Hbonds>
donor molecule, donor type, donor heavy atom, donor atom, acceptor molecule, acceptor atom, score
      L1  H     6    51       P1  7948  0.97
      L1  H    13    52       P1  8028  0.99
      P1  H 10752 10765       L1     9  0.52

> <Gold.Chemscore.Hbond.Weighted>
-9.3263

> <Gold.Chemscore.Metal.Weighted>
-0.0000

> <Gold.Chemscore.Lipo.Weighted>
-13.1042

> <Gold.Chemscore.Internal_Hbond.Weighted>
0.0000

> <Gold.Chemscore.DEClash.Weighted>
0.1556

> <Gold.Chemscore.DEInternal.Weighted>
1.2024

> <Gold.Chemscore.Rot.Weighted>
5.8469

> <Gold.Chemscore.Internal.Correction.Weighted>
   9.000000E+99

> <Gold.Protein.RotatedTorsions>
[ 6907 6896 6895 6894 ] final -146.69 input  -60.11 | X-H torsion
[ 7974 7965 7964 7962 ] final   36.80 input  175.53 | X-H torsion
[ 8008 7997 7996 7995 ] final   77.09 input   59.86 | X-H torsion
[ 10167 10162 10161 10158 ] final  -83.58 input  -65.29 | X-H torsion
[ 10718 10713 10712 10709 ] final   49.59 input   66.30 | X-H torsion
[ 10763 10752 10751 10750 ] final -158.35 input  -60.55 | X-H torsion
[ 11005 11000 10999 10996 ] final  -19.08 input  -57.11 | X-H torsion

> <Gold.Protein.ActiveResidues>
 VAL166  LYS551  ARG553  GLY616  TRP617  ASP618  TYR619  PRO620  LYS621  CYS622 
 ASP623  PHE694  ASN695  SER759  ASP760  ASP761  ALA762  ILE779  LEU786  VAL792 
 PHE793  MET794  SER795  GLU796  ALA797  LYS798  CYS799  TRP800  GLU811  SER814 

> <Gold.Protein.RotatedAtoms>
  151.1452  133.4944  159.2595 H   0  0  0  0  0  0  0  0  0  0  0  0  # atno 6907 bound_to 6896
  151.1612  135.0274  159.8721 H   0  0  0  0  0  0  0  0  0  0  0  0  # atno 6908 bound_to 6896
  152.5463  134.1326  159.8498 H   0  0  0  0  0  0  0  0  0  0  0  0  # atno 6909 bound_to 6896
  146.1184  139.5972  142.9306 H   0  0  0  0  0  0  0  0  0  0  0  0  # atno 7974 bound_to 7965
  155.8366  140.3464  155.5606 H   0  0  0  0  0  0  0  0  0  0  0  0  # atno 8008 bound_to 7997
  155.8185  140.0909  157.1882 H   0  0  0  0  0  0  0  0  0  0  0  0  # atno 8009 bound_to 7997
  154.4004  140.1434  156.3459 H   0  0  0  0  0  0  0  0  0  0  0  0  # atno 8010 bound_to 7997
  140.4213  143.2583  151.8886 H   0  0  0  0  0  0  0  0  0  0  0  0  # atno 10167 bound_to 10162
  157.4801  130.8310  149.8084 H   0  0  0  0  0  0  0  0  0  0  0  0  # atno 10718 bound_to 10713
  154.7563  135.3106  154.8463 H   0  0  0  0  0  0  0  0  0  0  0  0  # atno 10763 bound_to 10752
  153.9236  135.6793  153.4751 H   0  0  0  0  0  0  0  0  0  0  0  0  # atno 10764 bound_to 10752
  153.1161  135.4844  154.9048 H   0  0  0  0  0  0  0  0  0  0  0  0  # atno 10765 bound_to 10752
  140.8331  133.7982  155.9780 H   0  0  0  0  0  0  0  0  0  0  0  0  # atno 11005 bound_to 11000
  145.5517  141.0412  143.2275 LP  0  0  0  0  0  0  0  0  0  0  0  0  # atno 17320 bound_to 7965
  144.7575  139.7039  143.7248 LP  0  0  0  0  0  0  0  0  0  0  0  0  # atno 17321 bound_to 7965
  139.4782  144.5434  151.8494 LP  0  0  0  0  0  0  0  0  0  0  0  0  # atno 17342 bound_to 10162
  140.4530  144.1828  150.5899 LP  0  0  0  0  0  0  0  0  0  0  0  0  # atno 17343 bound_to 10162
  156.0117  130.3830  150.2242 LP  0  0  0  0  0  0  0  0  0  0  0  0  # atno 17370 bound_to 10713
  157.0428  131.0040  151.3278 LP  0  0  0  0  0  0  0  0  0  0  0  0  # atno 17371 bound_to 10713
  140.8976  134.2418  157.5060 LP  0  0  0  0  0  0  0  0  0  0  0  0  # atno 17394 bound_to 11000
  139.8704  134.9691  156.4655 LP  0  0  0  0  0  0  0  0  0  0  0  0  # atno 17395 bound_to 11000

$$$$
