AV-unprocessed.smi:199|AV-procd|sdf|1567|dock5
  -GOLD-   2262019443D 1   1.00000     0.00000
 Structure written by MMmdl.
 51 55  0  0  0  0  0  0  0  0  1 V2000
  145.3139  136.8530  161.0329 C   0  0  0  0  0  0  0  0  0  0  0  0
  145.3992  135.8429  162.1876 C   0  0  1  0  0  0  0  0  0  0  0  0
  144.0658  135.5505  162.5987 O   0  0  0  0  0  0  0  0  0  0  0  0
  144.0075  134.2130  163.0619 C   0  0  0  0  0  0  0  0  0  0  0  0
  144.9081  133.4854  162.0760 C   0  0  0  0  0  0  0  0  0  0  0  0
  146.0559  134.4695  161.8690 C   0  0  2  0  0  0  0  0  0  0  0  0
  147.0288  134.2191  162.8703 O   0  0  0  0  0  0  0  0  0  0  0  0
  146.7488  134.3371  160.4868 C   0  0  0  0  0  0  0  0  0  0  0  0
  147.5854  135.4789  160.1476 N   0  0  0  0  0  0  0  0  0  0  0  0
  148.2938  136.2681  161.0235 C   0  0  0  0  0  0  0  0  0  0  0  0
  148.9737  137.2351  160.4728 N   0  0  0  0  0  0  0  0  0  0  0  0
  148.7191  137.1099  159.1114 C   0  0  0  0  0  0  0  0  0  0  0  0
  149.1351  137.8156  157.9423 C   0  0  0  0  0  0  0  0  0  0  0  0
  149.9761  138.8877  157.9324 N   0  0  0  0  0  0  0  0  0  0  0  0
  151.2186  138.8817  157.1737 C   0  0  2  0  0  0  0  0  0  0  0  0
  151.8841  140.1941  157.6218 C   0  0  0  0  0  0  0  0  0  0  0  0
  150.6617  141.1035  157.8100 C   0  0  0  0  0  0  0  0  0  0  0  0
  149.5175  140.1614  157.3921 C   0  0  1  0  0  0  0  0  0  0  0  0
  149.5130  139.9127  155.8610 C   0  0  1  0  0  0  0  0  0  0  0  0
  149.4759  141.1642  154.9647 C   0  0  0  0  0  0  0  0  0  0  0  0
  149.6805  140.7974  153.6169 O   0  0  0  0  0  0  0  0  0  0  0  0
  150.7666  139.0299  155.7065 C   0  0  0  0  0  0  0  0  0  0  0  0
  148.6324  137.3921  156.7524 N   0  0  0  0  0  0  0  0  0  0  0  0
  147.8035  136.3470  156.6953 C   0  0  0  0  0  0  0  0  0  0  0  0
  147.3460  135.5919  157.6939 N   0  0  0  0  0  0  0  0  0  0  0  0
  147.8339  136.0134  158.8952 C   0  0  0  0  0  0  0  0  0  0  0  0
  146.3037  137.1318  160.6716 H   0  0  0  0  0  0  0  0  0  0  0  0
  144.8182  137.7673  161.3599 H   0  0  0  0  0  0  0  0  0  0  0  0
  144.7422  136.4546  160.1943 H   0  0  0  0  0  0  0  0  0  0  0  0
  145.9068  136.3227  163.0267 H   0  0  0  0  0  0  0  0  0  0  0  0
  144.4028  134.1544  164.0772 H   0  0  0  0  0  0  0  0  0  0  0  0
  142.9865  133.8312  163.0631 H   0  0  0  0  0  0  0  0  0  0  0  0
  145.2254  132.5016  162.4248 H   0  0  0  0  0  0  0  0  0  0  0  0
  144.3599  133.3470  161.1435 H   0  0  0  0  0  0  0  0  0  0  0  0
  146.6206  133.7310  163.5688 H   0  0  0  0  0  0  0  0  0  0  0  0
  147.3766  133.4463  160.4567 H   0  0  0  0  0  0  0  0  0  0  0  0
  146.0052  134.2167  159.6975 H   0  0  0  0  0  0  0  0  0  0  0  0
  148.2947  136.0999  162.0906 H   0  0  0  0  0  0  0  0  0  0  0  0
  151.8741  138.0299  157.3431 H   0  0  0  0  0  0  0  0  0  0  0  0
  152.4117  140.0618  158.5672 H   0  0  0  0  0  0  0  0  0  0  0  0
  152.5930  140.5797  156.8881 H   0  0  0  0  0  0  0  0  0  0  0  0
  150.5592  141.3811  158.8599 H   0  0  0  0  0  0  0  0  0  0  0  0
  150.7135  142.0255  157.2329 H   0  0  0  0  0  0  0  0  0  0  0  0
  148.5523  140.4974  157.7732 H   0  0  0  0  0  0  0  0  0  0  0  0
  148.6330  139.3104  155.6266 H   0  0  0  0  0  0  0  0  0  0  0  0
  148.5086  141.6607  155.0466 H   0  0  0  0  0  0  0  0  0  0  0  0
  150.2417  141.8861  155.2464 H   0  0  0  0  0  0  0  0  0  0  0  0
  149.4311  139.8920  153.5115 H   0  0  0  0  0  0  0  0  0  0  0  0
  151.5387  139.4768  155.0790 H   0  0  0  0  0  0  0  0  0  0  0  0
  150.5032  138.0635  155.2749 H   0  0  0  0  0  0  0  0  0  0  0  0
  147.4577  136.0781  155.7083 H   0  0  0  0  0  0  0  0  0  0  0  0
  1  2  1  0  0  0  0
  1 27  1  0  0  0  0
  1 28  1  0  0  0  0
  1 29  1  0  0  0  0
  2  6  1  0  0  0  0
  2  3  1  0  0  0  0
  2 30  1  0  0  0  0
  3  4  1  0  0  0  0
  4  5  1  0  0  0  0
  4 31  1  0  0  0  0
  4 32  1  0  0  0  0
  5  6  1  0  0  0  0
  5 33  1  0  0  0  0
  5 34  1  0  0  0  0
  6  7  1  0  0  0  0
  6  8  1  0  0  0  0
  7 35  1  0  0  0  0
  8  9  1  0  0  0  0
  8 36  1  0  0  0  0
  8 37  1  0  0  0  0
  9 26  1  0  0  0  0
  9 10  1  0  0  0  0
 10 11  2  0  0  0  0
 10 38  1  0  0  0  0
 11 12  1  0  0  0  0
 12 26  2  0  0  0  0
 12 13  1  0  0  0  0
 13 14  1  0  0  0  0
 13 23  2  0  0  0  0
 14 18  1  0  0  0  0
 14 15  1  0  0  0  0
 15 22  1  0  0  0  0
 15 16  1  0  0  0  0
 15 39  1  0  0  0  0
 16 17  1  0  0  0  0
 16 40  1  0  0  0  0
 16 41  1  0  0  0  0
 17 18  1  0  0  0  0
 17 42  1  0  0  0  0
 17 43  1  0  0  0  0
 18 19  1  0  0  0  0
 18 44  1  0  0  0  0
 19 20  1  0  0  0  0
 19 22  1  0  0  0  0
 19 45  1  0  0  0  0
 20 21  1  0  0  0  0
 20 46  1  0  0  0  0
 20 47  1  0  0  0  0
 21 48  1  0  0  0  0
 22 49  1  0  0  0  0
 22 50  1  0  0  0  0
 23 24  1  0  0  0  0
 24 25  2  0  0  0  0
 24 51  1  0  0  0  0
 25 26  1  0  0  0  0
M  END
> <s_m_source_file>
AV-unprocessed.smi

> <i_m_source_file_index>
199

> <i_lp_mmshare_version>
43012

> <i_f3d_flags>
0

> <s_epik_input>
W0NIMl0xW0NIMl1PW0NAQEhdKFtDSDNdKVtDQEBdMShbT0hdKVtDSDJdbihbY0hdbjIpYyhjMjMpbltjSF1uYzNOKFtDQEBIXTQ1KVtDQEhdKFtDSDJdW0NIMl00KVtDQEhdKFtDSDJdNSlbQ0gyXVtPSF0=

> <s_epik_cmdline>
J2VwaWtfcHl0aG9uJywgJy1waCcsICc3LjAnLCAnLXRuJywgJzgnLCAnLW1hJywgJzIwMCcsICctbWV0YWxfYmluZGluZycsICctaW1hZScsICc8aW5maWxlLm1hZT4nLCAnLW9tYWUnLCAnPG91dGZpbGUubWFlPic=

> <r_lp_tautomer_probability>
1

> <r_epik_Ionization_Penalty>
0.00583903

> <r_epik_Ionization_Penalty_Charging>
0

> <r_epik_Ionization_Penalty_Neutral>
0.00583903

> <r_epik_State_Penalty>
-0

> <r_epik_Charging_Adjusted_Penalty>
0

> <i_epik_Tot_Q>
0

> <i_epik_Tot_abs_Q>
0

> <r_epik_Metal_State_Penalty>
-0

> <b_epik_Metal_Only>
0

> <s_lp_Force_Field>
OPLS_2005

> <r_lp_Energy>
84.1045

> <b_lp_Chiralities_Consistent>
1

> <s_lp_Variant>
AV-unprocessed.smi:199-8

> <Gold.Version>
5.8.1

> <Gold.Id.Protein>
6NUR|6NUR_protein|mol2

> <Gold.PLP.Fitness>
39.4135

> <Gold.PLP.PLP>
-34.8135

> <Gold.PLP.part.hbond>
-4.8484

> <Gold.PLP.part.metal>
0.0000

> <Gold.PLP.part.buried>
-6.5094

> <Gold.PLP.part.nonpolar>
-23.7426

> <Gold.PLP.part.repulsive>
0.0425

> <Gold.PLP.ligand.clash>
0.0000

> <Gold.PLP.ligand.torsion>
0.5760

> <Gold.PLP.Chemscore.Hbond>
1.9062

> <Gold.PLP.Chemscore.CHOScore>
0.0000

> <Gold.PLP.Chemscore.Metal>
0.0000

> <Gold.Chemscore.Hbonds>
donor molecule, donor type, donor heavy atom, donor atom, acceptor molecule, acceptor atom, score
      P1  H  6931  6943       L1    11  0.50
      P1  H  7989  7998       L1    21  0.40
      P1  H  8011  8017       L1    21  0.91

> <Gold.PLP.Chemscore.Internal.Correction>
0.0334

> <Gold.Rescore>
     Score         DG    S(hbond)    S(metal)    S(lipo)     H(rot)  DE(clash)    DE(int)     intcor
      4.37      -9.98       1.23        0.00      70.71       3.07       0.01       5.60       ----

> <Gold.Chemscore.Fitness>
4.3703

> <Gold.Chemscore.DG>
-9.9812

> <Gold.Chemscore.ZeroCoef>
-5.4800

> <Gold.Chemscore.Hbond>
1.2260

> <Gold.Chemscore.Metal>
0.0000

> <Gold.Chemscore.Lipo>
70.7100

> <Gold.Chemscore.Internal_Hbond>
0.0000

> <Gold.Chemscore.DEClash>
0.0106

> <Gold.Chemscore.DEInternal>
5.6002

> <Gold.Chemscore.Rot>
3.0729

> <Gold.Chemscore.Internal.Correction>
   9.000000E+99

> <Gold.Chemscore.Hbonds>
donor molecule, donor type, donor heavy atom, donor atom, acceptor molecule, acceptor atom, score
      P1  H  6931  6943       L1    11  0.09
      P1  H  7989  7998       L1    21  0.09
      P1  H  8011  8017       L1    21  0.76

> <Gold.Chemscore.Hbond.Weighted>
-4.0948

> <Gold.Chemscore.Metal.Weighted>
-0.0000

> <Gold.Chemscore.Lipo.Weighted>
-8.2731

> <Gold.Chemscore.Internal_Hbond.Weighted>
0.0000

> <Gold.Chemscore.DEClash.Weighted>
0.0106

> <Gold.Chemscore.DEInternal.Weighted>
5.6002

> <Gold.Chemscore.Rot.Weighted>
7.8667

> <Gold.Chemscore.Internal.Correction.Weighted>
   9.000000E+99

> <Gold.Protein.RotatedTorsions>
[ 6907 6896 6895 6894 ] final  139.17 input  -60.11 | X-H torsion
[ 7974 7965 7964 7962 ] final  146.90 input  175.53 | X-H torsion
[ 8008 7997 7996 7995 ] final -149.56 input   59.86 | X-H torsion
[ 10167 10162 10161 10158 ] final   30.99 input  -65.29 | X-H torsion
[ 10718 10713 10712 10709 ] final    4.67 input   66.30 | X-H torsion
[ 10763 10752 10751 10750 ] final  -36.00 input  -60.55 | X-H torsion
[ 11005 11000 10999 10996 ] final  100.54 input  -57.11 | X-H torsion

> <Gold.Protein.ActiveResidues>
 VAL166  LYS551  ARG553  GLY616  TRP617  ASP618  TYR619  PRO620  LYS621  CYS622 
 ASP623  PHE694  ASN695  SER759  ASP760  ASP761  ALA762  ILE779  LEU786  VAL792 
 PHE793  MET794  SER795  GLU796  ALA797  LYS798  CYS799  TRP800  GLU811  SER814 

> <Gold.Protein.RotatedAtoms>
  152.2580  133.5273  159.5364 H   0  0  0  0  0  0  0  0  0  0  0  0  # atno 6907 bound_to 6896
  150.7115  134.0868  159.3926 H   0  0  0  0  0  0  0  0  0  0  0  0  # atno 6908 bound_to 6896
  151.8787  135.0462  160.0537 H   0  0  0  0  0  0  0  0  0  0  0  0  # atno 6909 bound_to 6896
  144.8634  139.5962  143.5920 H   0  0  0  0  0  0  0  0  0  0  0  0  # atno 7974 bound_to 7965
  155.6096  140.0670  157.2710 H   0  0  0  0  0  0  0  0  0  0  0  0  # atno 8008 bound_to 7997
  154.4257  140.1804  156.1306 H   0  0  0  0  0  0  0  0  0  0  0  0  # atno 8009 bound_to 7997
  156.0095  140.3328  155.6930 H   0  0  0  0  0  0  0  0  0  0  0  0  # atno 8010 bound_to 7997
  140.4629  144.0879  150.6217 H   0  0  0  0  0  0  0  0  0  0  0  0  # atno 10167 bound_to 10162
  156.8960  130.5705  149.5649 H   0  0  0  0  0  0  0  0  0  0  0  0  # atno 10718 bound_to 10713
  153.8726  135.6829  153.4773 H   0  0  0  0  0  0  0  0  0  0  0  0  # atno 10763 bound_to 10752
  153.1279  135.4711  154.9299 H   0  0  0  0  0  0  0  0  0  0  0  0  # atno 10764 bound_to 10752
  154.7707  135.3238  154.8146 H   0  0  0  0  0  0  0  0  0  0  0  0  # atno 10765 bound_to 10752
  139.8771  134.9144  156.4771 H   0  0  0  0  0  0  0  0  0  0  0  0  # atno 11005 bound_to 11000
  146.2877  139.7051  142.9183 LP  0  0  0  0  0  0  0  0  0  0  0  0  # atno 17320 bound_to 7965
  145.4268  141.0411  143.2933 LP  0  0  0  0  0  0  0  0  0  0  0  0  # atno 17321 bound_to 7965
  140.4071  143.2675  151.9877 LP  0  0  0  0  0  0  0  0  0  0  0  0  # atno 17342 bound_to 10162
  139.4808  144.5947  151.7710 LP  0  0  0  0  0  0  0  0  0  0  0  0  # atno 17343 bound_to 10162
  156.0605  130.5658  150.9183 LP  0  0  0  0  0  0  0  0  0  0  0  0  # atno 17370 bound_to 10713
  157.6055  131.0939  150.8887 LP  0  0  0  0  0  0  0  0  0  0  0  0  # atno 17371 bound_to 10713
  140.8754  133.7957  155.9409 LP  0  0  0  0  0  0  0  0  0  0  0  0  # atno 17394 bound_to 11000
  140.8910  134.2496  157.5094 LP  0  0  0  0  0  0  0  0  0  0  0  0  # atno 17395 bound_to 11000

$$$$
