AV-unprocessed.smi:1762|AV-procd|sdf|7119|dock6
  -GOLD-   22720 8353D 1   1.00000     0.00000
 Structure written by MMmdl.
 52 53  0  0  0  0  0  0  0  0  3 V2000
  145.5853  132.7174  162.1306 C   0  0  0  0  0  0  0  0  0  0  0  0
  146.0474  134.1400  161.7956 C   0  0  2  0  0  0  0  0  0  0  0  0
  147.1189  134.1526  160.6895 C   0  0  0  0  0  0  0  0  0  0  0  0
  147.6145  135.5340  160.4423 N   0  3  2  0  0  0  0  0  0  0  0  0
  148.5954  135.6702  159.3130 C   0  0  2  0  0  0  0  0  0  0  0  0
  149.2107  137.0912  159.2935 C   0  0  0  0  0  0  0  0  0  0  0  0
  148.4502  138.0651  159.2697 O   0  0  0  0  0  0  0  0  0  0  0  0
  150.5692  137.0394  159.3405 N   0  5  0  0  0  0  0  0  0  0  0  0
  151.4409  138.2102  159.2640 C   0  0  0  0  0  0  0  0  0  0  0  0
  150.9116  139.2049  158.2047 C   0  0  0  0  0  0  0  0  0  0  0  0
  151.2770  140.6686  158.4430 C   0  0  0  0  0  0  0  0  0  0  0  0
  152.1602  141.0289  159.4865 C   0  0  0  0  0  0  0  0  0  0  0  0
  152.4606  142.3909  159.6779 C   0  0  0  0  0  0  0  0  0  0  0  0
  151.8643  143.3427  158.8293 C   0  0  0  0  0  0  0  0  0  0  0  0
  150.9901  142.8873  157.8226 C   0  0  0  0  0  0  0  0  0  0  0  0
  150.6948  141.5839  157.6302 N   0  0  0  0  0  0  0  0  0  0  0  0
  148.0342  135.2786  157.9033 C   0  0  0  0  0  0  0  0  0  0  0  0
  146.8534  136.1656  157.4613 C   0  0  0  0  0  0  0  0  0  0  0  0
  147.6627  133.7883  157.7518 C   0  0  0  0  0  0  0  0  0  0  0  0
  148.1231  136.0986  161.7261 C   0  0  0  0  0  0  0  0  0  0  0  0
  147.0561  136.0479  162.8338 C   0  0  1  0  0  0  0  0  0  0  0  0
  145.9211  137.0691  162.6391 C   0  0  0  0  0  0  0  0  0  0  0  0
  146.5733  134.7158  162.9858 O   0  0  0  0  0  0  0  0  0  0  0  0
  145.1536  132.2278  161.2573 H   0  0  0  0  0  0  0  0  0  0  0  0
  144.8260  132.7288  162.9131 H   0  0  0  0  0  0  0  0  0  0  0  0
  146.4160  132.1045  162.4818 H   0  0  0  0  0  0  0  0  0  0  0  0
  145.1762  134.7067  161.4662 H   0  0  0  0  0  0  0  0  0  0  0  0
  147.9577  133.5088  160.9596 H   0  0  0  0  0  0  0  0  0  0  0  0
  146.6619  133.7280  159.7984 H   0  0  0  0  0  0  0  0  0  0  0  0
  149.3821  134.9428  159.5304 H   0  0  0  0  0  0  0  0  0  0  0  0
  151.5216  138.7149  160.2271 H   0  0  0  0  0  0  0  0  0  0  0  0
  152.4609  137.9376  158.9888 H   0  0  0  0  0  0  0  0  0  0  0  0
  151.2972  138.9149  157.2264 H   0  0  0  0  0  0  0  0  0  0  0  0
  149.8268  139.1184  158.1280 H   0  0  0  0  0  0  0  0  0  0  0  0
  152.6043  140.2743  160.1192 H   0  0  0  0  0  0  0  0  0  0  0  0
  153.1364  142.6993  160.4618 H   0  0  0  0  0  0  0  0  0  0  0  0
  152.0708  144.3960  158.9468 H   0  0  0  0  0  0  0  0  0  0  0  0
  150.5133  143.5892  157.1548 H   0  0  0  0  0  0  0  0  0  0  0  0
  148.8110  135.4934  157.1707 H   0  0  0  0  0  0  0  0  0  0  0  0
  145.9599  135.9845  158.0594 H   0  0  0  0  0  0  0  0  0  0  0  0
  146.5903  135.9758  156.4205 H   0  0  0  0  0  0  0  0  0  0  0  0
  147.1020  137.2239  157.5480 H   0  0  0  0  0  0  0  0  0  0  0  0
  146.7815  133.5295  158.3385 H   0  0  0  0  0  0  0  0  0  0  0  0
  148.4717  133.1285  158.0637 H   0  0  0  0  0  0  0  0  0  0  0  0
  147.4347  133.5524  156.7121 H   0  0  0  0  0  0  0  0  0  0  0  0
  149.0004  135.5297  162.0383 H   0  0  0  0  0  0  0  0  0  0  0  0
  148.4517  137.1316  161.6161 H   0  0  0  0  0  0  0  0  0  0  0  0
  147.5453  136.2979  163.7757 H   0  0  0  0  0  0  0  0  0  0  0  0
  146.3104  138.0873  162.6659 H   0  0  0  0  0  0  0  0  0  0  0  0
  145.1777  136.9804  163.4313 H   0  0  0  0  0  0  0  0  0  0  0  0
  145.4108  136.9458  161.6841 H   0  0  0  0  0  0  0  0  0  0  0  0
  146.8127  136.0876  160.1766 H   0  0  0  0  0  0  0  0  0  0  0  0
  1  2  1  0  0  0  0
  1 24  1  0  0  0  0
  1 25  1  0  0  0  0
  1 26  1  0  0  0  0
  2 23  1  0  0  0  0
  2  3  1  0  0  0  0
  2 27  1  0  0  0  0
  3  4  1  0  0  0  0
  3 28  1  0  0  0  0
  3 29  1  0  0  0  0
  4  5  1  0  0  0  0
  4 20  1  0  0  0  0
  4 52  1  0  0  0  0
  5  6  1  0  0  0  0
  5 17  1  0  0  0  0
  5 30  1  0  0  0  0
  6  7  2  0  0  0  0
  6  8  1  0  0  0  0
  8  9  1  0  0  0  0
  9 10  1  0  0  0  0
  9 31  1  0  0  0  0
  9 32  1  0  0  0  0
 10 11  1  0  0  0  0
 10 33  1  0  0  0  0
 10 34  1  0  0  0  0
 11 16  1  0  0  0  0
 11 12  2  0  0  0  0
 12 13  1  0  0  0  0
 12 35  1  0  0  0  0
 13 14  2  0  0  0  0
 13 36  1  0  0  0  0
 14 15  1  0  0  0  0
 14 37  1  0  0  0  0
 15 16  2  0  0  0  0
 15 38  1  0  0  0  0
 17 18  1  0  0  0  0
 17 19  1  0  0  0  0
 17 39  1  0  0  0  0
 18 40  1  0  0  0  0
 18 41  1  0  0  0  0
 18 42  1  0  0  0  0
 19 43  1  0  0  0  0
 19 44  1  0  0  0  0
 19 45  1  0  0  0  0
 20 21  1  0  0  0  0
 20 46  1  0  0  0  0
 20 47  1  0  0  0  0
 21 22  1  0  0  0  0
 21 23  1  0  0  0  0
 21 48  1  0  0  0  0
 22 49  1  0  0  0  0
 22 50  1  0  0  0  0
 22 51  1  0  0  0  0
M  CHG  1   4   1
M  CHG  1   8  -1
M  END
> <s_m_source_file>
AV-unprocessed.smi

> <i_m_source_file_index>
1762

> <i_lp_mmshare_version>
43012

> <i_f3d_flags>
0

> <s_epik_input>
W0NIM11bQ0BASF0xW0NIMl1OKFtDSDJdW0NASF0oTzEpW0NIM10pW0NAQEhdKFtDSF0oW0NIM10pW0NIM10pQyg9TylbTkhdW0NIMl1bQ0gyXWMyW2NIXVtjSF1bY0hdW2NIXW4y

> <s_epik_cmdline>
J2VwaWtfcHl0aG9uJywgJy1waCcsICc3LjAnLCAnLXRuJywgJzgnLCAnLW1hJywgJzIwMCcsICctbWV0YWxfYmluZGluZycsICctaW1hZScsICc8aW5maWxlLm1hZT4nLCAnLW9tYWUnLCAnPG91dGZpbGUubWFlPic=

> <r_epik_Ionization_Penalty>
7.82966

> <r_epik_Ionization_Penalty_Charging>
7.7461

> <r_epik_Ionization_Penalty_Neutral>
0.0835571

> <r_epik_State_Penalty>
8.52273

> <r_epik_Charging_Adjusted_Penalty>
16.2688

> <i_epik_Tot_Q>
0

> <i_epik_Tot_abs_Q>
2

> <r_epik_Metal_State_Penalty>
4.47451

> <b_epik_Metal_Only>
1

> <s_lp_Force_Field>
OPLS_2005

> <r_lp_Energy>
24.7252

> <b_lp_Chiralities_Consistent>
1

> <s_lp_Variant>
AV-unprocessed.smi:1762-21

> <Gold.Version>
5.8.1

> <Gold.Id.Protein>
6NUR|6NUR_protein|mol2

> <Gold.PLP.Fitness>
46.4559

> <Gold.PLP.PLP>
-38.4619

> <Gold.PLP.part.hbond>
-2.8931

> <Gold.PLP.part.metal>
0.0000

> <Gold.PLP.part.buried>
-5.9093

> <Gold.PLP.part.nonpolar>
-30.8879

> <Gold.PLP.part.repulsive>
0.1497

> <Gold.PLP.ligand.clash>
0.0000

> <Gold.PLP.ligand.torsion>
0.6910

> <Gold.PLP.Chemscore.Hbond>
2.0078

> <Gold.PLP.Chemscore.CHOScore>
1.0000

> <Gold.PLP.Chemscore.Metal>
0.0000

> <Gold.Chemscore.Hbonds>
donor molecule, donor type, donor heavy atom, donor atom, acceptor molecule, acceptor atom, score
      P1  H  6896  6909       L1     8  1.69
      P1  H  6934  6947       L1     7  0.08
      L1  C    15    38       P1  8028  1.00

> <Gold.PLP.Chemscore.Internal.Correction>
0.3526

> <Gold.Rescore>
     Score         DG    S(hbond)    S(metal)    S(lipo)     H(rot)  DE(clash)    DE(int)     intcor
     15.33     -17.37       0.94        0.00     109.75       1.60       0.14       1.90       ----

> <Gold.Chemscore.Fitness>
15.3349

> <Gold.Chemscore.DG>
-17.3733

> <Gold.Chemscore.ZeroCoef>
-5.4800

> <Gold.Chemscore.Hbond>
0.9437

> <Gold.Chemscore.Metal>
0.0000

> <Gold.Chemscore.Lipo>
109.7467

> <Gold.Chemscore.Internal_Hbond>
0.0000

> <Gold.Chemscore.DEClash>
0.1371

> <Gold.Chemscore.DEInternal>
1.9013

> <Gold.Chemscore.Rot>
1.6012

> <Gold.Chemscore.Internal.Correction>
   9.000000E+99

> <Gold.Chemscore.Hbonds>
donor molecule, donor type, donor heavy atom, donor atom, acceptor molecule, acceptor atom, score
      P1  H  6896  6909       L1     8  0.61
      P1  H  6934  6947       L1     7  0.08

> <Gold.Chemscore.Hbond.Weighted>
-3.1519

> <Gold.Chemscore.Metal.Weighted>
-0.0000

> <Gold.Chemscore.Lipo.Weighted>
-12.8404

> <Gold.Chemscore.Internal_Hbond.Weighted>
0.0000

> <Gold.Chemscore.DEClash.Weighted>
0.1371

> <Gold.Chemscore.DEInternal.Weighted>
1.9013

> <Gold.Chemscore.Rot.Weighted>
4.0990

> <Gold.Chemscore.Internal.Correction.Weighted>
   9.000000E+99

> <Gold.Protein.RotatedTorsions>
[ 6907 6896 6895 6894 ] final   97.50 input  -60.11 | X-H torsion
[ 7974 7965 7964 7962 ] final   -3.86 input  175.53 | X-H torsion
[ 8008 7997 7996 7995 ] final  135.95 input   59.86 | X-H torsion
[ 10167 10162 10161 10158 ] final -152.91 input  -65.29 | X-H torsion
[ 10718 10713 10712 10709 ] final -144.50 input   66.30 | X-H torsion
[ 10763 10752 10751 10750 ] final -163.39 input  -60.55 | X-H torsion
[ 11005 11000 10999 10996 ] final   24.17 input  -57.11 | X-H torsion

> <Gold.Protein.ActiveResidues>
 VAL166  LYS551  ARG553  GLY616  TRP617  ASP618  TYR619  PRO620  LYS621  CYS622 
 ASP623  PHE694  ASN695  SER759  ASP760  ASP761  ALA762  ILE779  LEU786  VAL792 
 PHE793  MET794  SER795  GLU796  ALA797  LYS798  CYS799  TRP800  GLU811  SER814 

> <Gold.Protein.RotatedAtoms>
  152.5422  134.0723  159.8199 H   0  0  0  0  0  0  0  0  0  0  0  0  # atno 6907 bound_to 6896
  151.0836  133.5363  159.2626 H   0  0  0  0  0  0  0  0  0  0  0  0  # atno 6908 bound_to 6896
  151.2181  135.0516  159.8992 H   0  0  0  0  0  0  0  0  0  0  0  0  # atno 6909 bound_to 6896
  146.2382  140.1784  142.8332 H   0  0  0  0  0  0  0  0  0  0  0  0  # atno 7974 bound_to 7965
  156.3004  140.2458  156.3665 H   0  0  0  0  0  0  0  0  0  0  0  0  # atno 8008 bound_to 7997
  154.8829  140.0412  157.1812 H   0  0  0  0  0  0  0  0  0  0  0  0  # atno 8009 bound_to 7997
  154.8677  140.2930  155.5504 H   0  0  0  0  0  0  0  0  0  0  0  0  # atno 8010 bound_to 7997
  139.7141  143.9061  152.2479 H   0  0  0  0  0  0  0  0  0  0  0  0  # atno 10167 bound_to 10162
  156.3709  130.7787  151.1967 H   0  0  0  0  0  0  0  0  0  0  0  0  # atno 10718 bound_to 10713
  154.7126  135.3009  154.9173 H   0  0  0  0  0  0  0  0  0  0  0  0  # atno 10763 bound_to 10752
  154.0069  135.6700  153.4767 H   0  0  0  0  0  0  0  0  0  0  0  0  # atno 10764 bound_to 10752
  153.0768  135.5030  154.8334 H   0  0  0  0  0  0  0  0  0  0  0  0  # atno 10765 bound_to 10752
  140.3616  134.2119  155.7672 H   0  0  0  0  0  0  0  0  0  0  0  0  # atno 11005 bound_to 11000
  144.9954  140.8584  143.5314 LP  0  0  0  0  0  0  0  0  0  0  0  0  # atno 17320 bound_to 7965
  145.1796  139.2359  143.5299 LP  0  0  0  0  0  0  0  0  0  0  0  0  # atno 17321 bound_to 7965
  139.8938  144.6950  150.8740 LP  0  0  0  0  0  0  0  0  0  0  0  0  # atno 17342 bound_to 10162
  140.7740  143.3565  151.1910 LP  0  0  0  0  0  0  0  0  0  0  0  0  # atno 17343 bound_to 10162
  157.7483  131.0372  150.4447 LP  0  0  0  0  0  0  0  0  0  0  0  0  # atno 17370 bound_to 10713
  156.4674  130.4045  149.6539 LP  0  0  0  0  0  0  0  0  0  0  0  0  # atno 17371 bound_to 10713
  141.1982  133.8041  157.0593 LP  0  0  0  0  0  0  0  0  0  0  0  0  # atno 17394 bound_to 11000
  140.0622  134.9748  157.1324 LP  0  0  0  0  0  0  0  0  0  0  0  0  # atno 17395 bound_to 11000

$$$$
