AV-unprocessed.smi:265|AV-procd|sdf|2029|dock10
  -GOLD-   2262021233D 1   1.00000     0.00000
 Structure written by MMmdl.
 52 56  0  0  0  0  0  0  0  0  1 V2000
  143.7095  137.2749  152.7856 C   0  0  0  0  0  0  0  0  0  0  0  0
  143.5580  137.5868  154.2825 C   0  0  2  0  0  0  0  0  0  0  0  0
  142.3390  138.2793  154.5477 O   0  0  0  0  0  0  0  0  0  0  0  0
  142.5677  139.3700  155.4328 C   0  0  0  0  0  0  0  0  0  0  0  0
  143.9312  139.1017  156.0617 C   0  0  0  0  0  0  0  0  0  0  0  0
  144.6880  138.4173  154.9316 C   0  0  2  0  0  0  0  0  0  0  0  0
  145.1475  139.4125  154.0322 O   0  0  0  0  0  0  0  0  0  0  0  0
  145.9448  137.6188  155.3657 C   0  0  0  0  0  0  0  0  0  0  0  0
  147.0249  138.4226  155.9166 N   0  0  0  0  0  0  0  0  0  0  0  0
  147.0208  139.1043  157.1139 C   0  0  0  0  0  0  0  0  0  0  0  0
  148.1159  139.7603  157.3872 N   0  0  0  0  0  0  0  0  0  0  0  0
  148.9282  139.5280  156.2852 C   0  0  0  0  0  0  0  0  0  0  0  0
  150.2374  139.9360  155.9219 C   0  0  0  0  0  0  0  0  0  0  0  0
  150.9896  140.7191  156.7230 N   0  0  0  0  0  0  0  0  0  0  0  0
  151.4750  140.0361  157.9228 C   0  0  0  0  0  0  0  0  0  0  0  0
  152.4853  140.9115  158.6887 C   0  0  0  0  0  0  0  0  0  0  0  0
  151.8641  142.2834  158.9857 C   0  0  1  0  0  0  0  0  0  0  0  0
  152.7917  143.1682  159.5954 O   0  0  0  0  0  0  0  0  0  0  0  0
  152.2029  144.3998  160.0288 C   0  0  0  0  0  0  0  0  0  0  0  0
  151.2924  145.0391  158.9581 C   0  0  0  0  0  0  0  0  0  0  0  0
  150.9146  146.2009  159.0909 O   0  0  0  0  0  0  0  0  0  0  0  0
  150.9022  144.2795  157.9211 N   0  0  0  0  0  0  0  0  0  0  0  0
  151.4285  142.9450  157.6683 C   0  0  2  0  0  0  0  0  0  0  0  0
  150.4154  142.0465  156.9411 C   0  0  0  0  0  0  0  0  0  0  0  0
  150.7313  139.5128  154.7287 N   0  0  0  0  0  0  0  0  0  0  0  0
  149.9841  138.7357  153.9379 C   0  0  0  0  0  0  0  0  0  0  0  0
  148.7482  138.2751  154.1459 N   0  0  0  0  0  0  0  0  0  0  0  0
  148.2555  138.6983  155.3459 C   0  0  0  0  0  0  0  0  0  0  0  0
  151.0071  142.1441  159.6485 H   0  0  0  0  0  0  0  0  0  0  0  0
  152.3035  143.0696  157.0274 H   0  0  0  0  0  0  0  0  0  0  0  0
  144.6431  136.7477  152.5889 H   0  0  0  0  0  0  0  0  0  0  0  0
  143.7003  138.1824  152.1818 H   0  0  0  0  0  0  0  0  0  0  0  0
  142.8927  136.6422  152.4385 H   0  0  0  0  0  0  0  0  0  0  0  0
  143.4537  136.6431  154.8156 H   0  0  0  0  0  0  0  0  0  0  0  0
  142.5884  140.2932  154.8525 H   0  0  0  0  0  0  0  0  0  0  0  0
  141.7734  139.4550  156.1747 H   0  0  0  0  0  0  0  0  0  0  0  0
  144.4177  140.0047  156.4325 H   0  0  0  0  0  0  0  0  0  0  0  0
  143.7927  138.4271  156.9057 H   0  0  0  0  0  0  0  0  0  0  0  0
  144.4281  139.6723  153.4774 H   0  0  0  0  0  0  0  0  0  0  0  0
  145.6689  136.8718  156.1116 H   0  0  0  0  0  0  0  0  0  0  0  0
  146.3435  137.0622  154.5163 H   0  0  0  0  0  0  0  0  0  0  0  0
  146.1758  139.0937  157.7870 H   0  0  0  0  0  0  0  0  0  0  0  0
  150.6303  139.7969  158.5707 H   0  0  0  0  0  0  0  0  0  0  0  0
  151.9419  139.0902  157.6444 H   0  0  0  0  0  0  0  0  0  0  0  0
  152.7818  140.4206  159.6159 H   0  0  0  0  0  0  0  0  0  0  0  0
  153.3915  141.0343  158.0941 H   0  0  0  0  0  0  0  0  0  0  0  0
  151.6110  144.2181  160.9266 H   0  0  0  0  0  0  0  0  0  0  0  0
  152.9963  145.0959  160.3019 H   0  0  0  0  0  0  0  0  0  0  0  0
  150.2776  144.6771  157.2348 H   0  0  0  0  0  0  0  0  0  0  0  0
  150.1429  142.4907  155.9824 H   0  0  0  0  0  0  0  0  0  0  0  0
  149.5001  141.9588  157.5287 H   0  0  0  0  0  0  0  0  0  0  0  0
  150.4422  138.4393  153.0058 H   0  0  0  0  0  0  0  0  0  0  0  0
  1  2  1  0  0  0  0
  1 31  1  0  0  0  0
  1 32  1  0  0  0  0
  1 33  1  0  0  0  0
  2  6  1  0  0  0  0
  2  3  1  0  0  0  0
  2 34  1  0  0  0  0
  3  4  1  0  0  0  0
  4  5  1  0  0  0  0
  4 35  1  0  0  0  0
  4 36  1  0  0  0  0
  5  6  1  0  0  0  0
  5 37  1  0  0  0  0
  5 38  1  0  0  0  0
  6  7  1  0  0  0  0
  6  8  1  0  0  0  0
  7 39  1  0  0  0  0
  8  9  1  0  0  0  0
  8 40  1  0  0  0  0
  8 41  1  0  0  0  0
  9 28  1  0  0  0  0
  9 10  1  0  0  0  0
 10 11  2  0  0  0  0
 10 42  1  0  0  0  0
 11 12  1  0  0  0  0
 12 28  2  0  0  0  0
 12 13  1  0  0  0  0
 13 14  1  0  0  0  0
 13 25  2  0  0  0  0
 14 24  1  0  0  0  0
 14 15  1  0  0  0  0
 15 16  1  0  0  0  0
 15 43  1  0  0  0  0
 15 44  1  0  0  0  0
 16 17  1  0  0  0  0
 16 45  1  0  0  0  0
 16 46  1  0  0  0  0
 17 29  1  0  0  0  0
 17 23  1  0  0  0  0
 17 18  1  0  0  0  0
 18 19  1  0  0  0  0
 19 20  1  0  0  0  0
 19 47  1  0  0  0  0
 19 48  1  0  0  0  0
 20 21  2  0  0  0  0
 20 22  1  0  0  0  0
 22 23  1  0  0  0  0
 22 49  1  0  0  0  0
 23 30  1  0  0  0  0
 23 24  1  0  0  0  0
 24 50  1  0  0  0  0
 24 51  1  0  0  0  0
 25 26  1  0  0  0  0
 26 27  2  0  0  0  0
 26 52  1  0  0  0  0
 27 28  1  0  0  0  0
M  END
> <s_m_source_file>
AV-unprocessed.smi

> <i_m_source_file_index>
265

> <i_lp_mmshare_version>
43012

> <i_f3d_flags>
0

> <s_epik_input>
W0NIMl0xW0NIMl1PW0NAQEhdKFtDSDNdKVtDQEBdMShbT0hdKVtDSDJdbihbY0hdbjIpYyhjMjMpbltjSF1uYzNOKFtDSDJdW0NIMl00KVtDSDJdW0NAQEhdKFtDQEhdNDUpW05IXUMoPU8pW0NIMl1PNQ==

> <s_epik_cmdline>
J2VwaWtfcHl0aG9uJywgJy1waCcsICc3LjAnLCAnLXRuJywgJzgnLCAnLW1hJywgJzIwMCcsICctbWV0YWxfYmluZGluZycsICctaW1hZScsICc8aW5maWxlLm1hZT4nLCAnLW9tYWUnLCAnPG91dGZpbGUubWFlPic=

> <r_lp_tautomer_probability>
1

> <r_epik_Ionization_Penalty>
0.00221504

> <r_epik_Ionization_Penalty_Charging>
0

> <r_epik_Ionization_Penalty_Neutral>
0.00221504

> <r_epik_State_Penalty>
-0

> <r_epik_Charging_Adjusted_Penalty>
0

> <i_epik_Tot_Q>
0

> <i_epik_Tot_abs_Q>
0

> <r_epik_Metal_State_Penalty>
-0

> <b_epik_Metal_Only>
0

> <s_lp_Force_Field>
OPLS_2005

> <r_lp_Energy>
49.142

> <b_lp_Chiralities_Consistent>
1

> <s_lp_Variant>
AV-unprocessed.smi:265-15

> <Gold.Version>
5.8.1

> <Gold.Id.Protein>
6NUR|6NUR_protein|mol2

> <Gold.PLP.Fitness>
39.7413

> <Gold.PLP.PLP>
-29.2267

> <Gold.PLP.part.hbond>
-4.6645

> <Gold.PLP.part.metal>
0.0000

> <Gold.PLP.part.buried>
-2.7668

> <Gold.PLP.part.nonpolar>
-23.6776

> <Gold.PLP.part.repulsive>
1.1660

> <Gold.PLP.ligand.clash>
0.0000

> <Gold.PLP.ligand.torsion>
0.2257

> <Gold.PLP.Chemscore.Hbond>
2.8613

> <Gold.PLP.Chemscore.CHOScore>
0.7230

> <Gold.PLP.Chemscore.Metal>
0.0000

> <Gold.Chemscore.Hbonds>
donor molecule, donor type, donor heavy atom, donor atom, acceptor molecule, acceptor atom, score
      L1  H     7    39       P1 10175  0.88
      L1  H    22    49       P1  8028  0.93
      P1  H  7989  7998       L1    25  0.98
      L1  C    26    52       P1  7948  0.11
      L1  C    26    52       P1  7957  0.54

> <Gold.PLP.Chemscore.Internal.Correction>
0.2132

> <Gold.Rescore>
     Score         DG    S(hbond)    S(metal)    S(lipo)     H(rot)  DE(clash)    DE(int)     intcor
      8.98     -13.90       2.09        0.00      61.30       2.25       4.57       0.34       ----

> <Gold.Chemscore.Fitness>
8.9831

> <Gold.Chemscore.DG>
-13.8955

> <Gold.Chemscore.ZeroCoef>
-5.4800

> <Gold.Chemscore.Hbond>
2.0932

> <Gold.Chemscore.Metal>
0.0000

> <Gold.Chemscore.Lipo>
61.3001

> <Gold.Chemscore.Internal_Hbond>
0.0000

> <Gold.Chemscore.DEClash>
4.5697

> <Gold.Chemscore.DEInternal>
0.3426

> <Gold.Chemscore.Rot>
2.2453

> <Gold.Chemscore.Internal.Correction>
   9.000000E+99

> <Gold.Chemscore.Hbonds>
donor molecule, donor type, donor heavy atom, donor atom, acceptor molecule, acceptor atom, score
      L1  H     7    39       P1 10175  0.85
      L1  H    22    49       P1  8028  0.35
      P1  H  7989  7998       L1    25  0.49

> <Gold.Chemscore.Hbond.Weighted>
-6.9913

> <Gold.Chemscore.Metal.Weighted>
-0.0000

> <Gold.Chemscore.Lipo.Weighted>
-7.1721

> <Gold.Chemscore.Internal_Hbond.Weighted>
0.0000

> <Gold.Chemscore.DEClash.Weighted>
4.5697

> <Gold.Chemscore.DEInternal.Weighted>
0.3426

> <Gold.Chemscore.Rot.Weighted>
5.7479

> <Gold.Chemscore.Internal.Correction.Weighted>
   9.000000E+99

> <Gold.Protein.RotatedTorsions>
[ 6907 6896 6895 6894 ] final   99.47 input  -60.11 | X-H torsion
[ 7974 7965 7964 7962 ] final   41.94 input  175.53 | X-H torsion
[ 8008 7997 7996 7995 ] final  151.28 input   59.86 | X-H torsion
[ 10167 10162 10161 10158 ] final  169.26 input  -65.29 | X-H torsion
[ 10718 10713 10712 10709 ] final  146.26 input   66.30 | X-H torsion
[ 10763 10752 10751 10750 ] final  -14.95 input  -60.55 | X-H torsion
[ 11005 11000 10999 10996 ] final   56.06 input  -57.11 | X-H torsion

> <Gold.Protein.ActiveResidues>
 VAL166  LYS551  ARG553  GLY616  TRP617  ASP618  TYR619  PRO620  LYS621  CYS622 
 ASP623  PHE694  ASN695  SER759  ASP760  ASP761  ALA762  ILE779  LEU786  VAL792 
 PHE793  MET794  SER795  GLU796  ALA797  LYS798  CYS799  TRP800  GLU811  SER814 

> <Gold.Protein.RotatedAtoms>
  152.5391  134.0424  159.8072 H   0  0  0  0  0  0  0  0  0  0  0  0  # atno 6907 bound_to 6896
  151.0578  133.5562  159.2644 H   0  0  0  0  0  0  0  0  0  0  0  0  # atno 6908 bound_to 6896
  151.2473  135.0617  159.9102 H   0  0  0  0  0  0  0  0  0  0  0  0  # atno 6909 bound_to 6896
  146.0782  139.5357  142.9554 H   0  0  0  0  0  0  0  0  0  0  0  0  # atno 7974 bound_to 7965
  156.2680  140.2052  156.6151 H   0  0  0  0  0  0  0  0  0  0  0  0  # atno 8008 bound_to 7997
  154.6801  140.0541  157.0280 H   0  0  0  0  0  0  0  0  0  0  0  0  # atno 8009 bound_to 7997
  155.1013  140.3206  155.4549 H   0  0  0  0  0  0  0  0  0  0  0  0  # atno 8010 bound_to 7997
  139.4988  144.3725  151.9709 H   0  0  0  0  0  0  0  0  0  0  0  0  # atno 10167 bound_to 10162
  157.3354  131.0927  151.1128 H   0  0  0  0  0  0  0  0  0  0  0  0  # atno 10718 bound_to 10713
  153.5360  135.7014  153.5660 H   0  0  0  0  0  0  0  0  0  0  0  0  # atno 10763 bound_to 10752
  153.3647  135.3960  155.1744 H   0  0  0  0  0  0  0  0  0  0  0  0  # atno 10764 bound_to 10752
  154.8679  135.3797  154.4860 H   0  0  0  0  0  0  0  0  0  0  0  0  # atno 10765 bound_to 10752
  140.0558  134.5672  155.9209 H   0  0  0  0  0  0  0  0  0  0  0  0  # atno 11005 bound_to 11000
  145.6267  141.0312  143.1885 LP  0  0  0  0  0  0  0  0  0  0  0  0  # atno 17320 bound_to 7965
  144.7275  139.7828  143.7359 LP  0  0  0  0  0  0  0  0  0  0  0  0  # atno 17321 bound_to 7965
  140.3161  144.3482  150.6021 LP  0  0  0  0  0  0  0  0  0  0  0  0  # atno 17342 bound_to 10162
  140.5760  143.2176  151.7514 LP  0  0  0  0  0  0  0  0  0  0  0  0  # atno 17343 bound_to 10162
  157.2360  130.6547  149.5869 LP  0  0  0  0  0  0  0  0  0  0  0  0  # atno 17370 bound_to 10713
  155.9701  130.4583  150.5996 LP  0  0  0  0  0  0  0  0  0  0  0  0  # atno 17371 bound_to 10713
  141.1951  133.6586  156.5629 LP  0  0  0  0  0  0  0  0  0  0  0  0  # atno 17394 bound_to 11000
  140.3846  134.7494  157.4683 LP  0  0  0  0  0  0  0  0  0  0  0  0  # atno 17395 bound_to 11000

$$$$
