AV-unprocessed.smi:1824|AV-procd|sdf|7394|dock3
  -GOLD-   22720 9 63D 1   1.00000     0.00000
 Structure written by MMmdl.
 44 46  0  0  0  0  0  0  0  0  1 V2000
  150.4942  135.0536  155.5857 C   0  0  0  0  0  0  0  0  0  0  0  0
  150.2498  136.4253  156.2234 C   0  0  1  0  0  0  0  0  0  0  0  0
  150.1638  137.5490  155.1731 C   0  0  0  0  0  0  0  0  0  0  0  0
  149.8564  138.8412  155.7760 N   0  0  0  0  0  0  0  0  0  0  0  0
  149.7908  139.8909  154.7589 C   0  0  0  0  0  0  0  0  0  0  0  0
  149.4700  141.3040  155.2905 C   0  0  2  0  0  0  0  0  0  0  0  0
  148.7770  142.0273  154.2909 O   0  0  0  0  0  0  0  0  0  0  0  0
  150.7479  142.0828  155.6606 C   0  0  0  0  0  0  0  0  0  0  0  0
  151.4756  141.4687  156.7573 N   0  0  0  0  0  0  0  0  0  0  0  0
  152.0044  140.2303  156.7909 C   0  0  0  0  0  0  0  0  0  0  0  0
  152.6354  139.8674  157.9043 N   0  0  0  0  0  0  0  0  0  0  0  0
  152.4996  141.0023  158.6851 C   0  0  0  0  0  0  0  0  0  0  0  0
  152.9520  141.2735  159.9962 C   0  0  0  0  0  0  0  0  0  0  0  0
  152.6922  142.5223  160.5984 C   0  0  0  0  0  0  0  0  0  0  0  0
  153.1327  142.7652  161.8556 F   0  0  0  0  0  0  0  0  0  0  0  0
  151.9769  143.5175  159.8994 C   0  0  0  0  0  0  0  0  0  0  0  0
  151.7326  144.7140  160.4843 F   0  0  0  0  0  0  0  0  0  0  0  0
  151.5153  143.2700  158.5923 C   0  0  0  0  0  0  0  0  0  0  0  0
  151.7774  142.0229  157.9959 C   0  0  0  0  0  0  0  0  0  0  0  0
  148.6204  138.7219  156.5448 C   0  0  0  0  0  0  0  0  0  0  0  0
  148.6993  137.5977  157.5957 C   0  0  1  0  0  0  0  0  0  0  0  0
  147.3759  137.4123  158.3447 C   0  0  0  0  0  0  0  0  0  0  0  0
  149.0229  136.3719  156.9457 O   0  0  0  0  0  0  0  0  0  0  0  0
  151.4301  135.0424  155.0265 H   0  0  0  0  0  0  0  0  0  0  0  0
  149.6900  134.7889  154.8988 H   0  0  0  0  0  0  0  0  0  0  0  0
  150.5525  134.2749  156.3466 H   0  0  0  0  0  0  0  0  0  0  0  0
  151.0620  136.6374  156.9208 H   0  0  0  0  0  0  0  0  0  0  0  0
  151.1104  137.6099  154.6347 H   0  0  0  0  0  0  0  0  0  0  0  0
  149.4012  137.2970  154.4341 H   0  0  0  0  0  0  0  0  0  0  0  0
  150.7693  139.9395  154.2793 H   0  0  0  0  0  0  0  0  0  0  0  0
  149.0958  139.6134  153.9645 H   0  0  0  0  0  0  0  0  0  0  0  0
  148.8355  141.2316  156.1751 H   0  0  0  0  0  0  0  0  0  0  0  0
  148.6263  142.9046  154.6079 H   0  0  0  0  0  0  0  0  0  0  0  0
  151.4179  142.1379  154.8017 H   0  0  0  0  0  0  0  0  0  0  0  0
  150.5041  143.1109  155.9331 H   0  0  0  0  0  0  0  0  0  0  0  0
  151.9240  139.5581  155.9489 H   0  0  0  0  0  0  0  0  0  0  0  0
  153.5007  140.5194  160.5404 H   0  0  0  0  0  0  0  0  0  0  0  0
  150.9680  144.0297  158.0545 H   0  0  0  0  0  0  0  0  0  0  0  0
  148.4057  139.6599  157.0562 H   0  0  0  0  0  0  0  0  0  0  0  0
  147.7836  138.5329  155.8705 H   0  0  0  0  0  0  0  0  0  0  0  0
  149.4820  137.8298  158.3200 H   0  0  0  0  0  0  0  0  0  0  0  0
  147.0913  138.3244  158.8698 H   0  0  0  0  0  0  0  0  0  0  0  0
  147.4552  136.6148  159.0838 H   0  0  0  0  0  0  0  0  0  0  0  0
  146.5678  137.1531  157.6602 H   0  0  0  0  0  0  0  0  0  0  0  0
  1  2  1  0  0  0  0
  1 24  1  0  0  0  0
  1 25  1  0  0  0  0
  1 26  1  0  0  0  0
  2 23  1  0  0  0  0
  2  3  1  0  0  0  0
  2 27  1  0  0  0  0
  3  4  1  0  0  0  0
  3 28  1  0  0  0  0
  3 29  1  0  0  0  0
  4  5  1  0  0  0  0
  4 20  1  0  0  0  0
  5  6  1  0  0  0  0
  5 30  1  0  0  0  0
  5 31  1  0  0  0  0
  6  7  1  0  0  0  0
  6  8  1  0  0  0  0
  6 32  1  0  0  0  0
  7 33  1  0  0  0  0
  8  9  1  0  0  0  0
  8 34  1  0  0  0  0
  8 35  1  0  0  0  0
  9 19  1  0  0  0  0
  9 10  1  0  0  0  0
 10 11  2  0  0  0  0
 10 36  1  0  0  0  0
 11 12  1  0  0  0  0
 12 19  2  0  0  0  0
 12 13  1  0  0  0  0
 13 14  2  0  0  0  0
 13 37  1  0  0  0  0
 14 15  1  0  0  0  0
 14 16  1  0  0  0  0
 16 17  1  0  0  0  0
 16 18  2  0  0  0  0
 18 19  1  0  0  0  0
 18 38  1  0  0  0  0
 20 21  1  0  0  0  0
 20 39  1  0  0  0  0
 20 40  1  0  0  0  0
 21 22  1  0  0  0  0
 21 23  1  0  0  0  0
 21 41  1  0  0  0  0
 22 42  1  0  0  0  0
 22 43  1  0  0  0  0
 22 44  1  0  0  0  0
M  END
> <s_m_source_file>
AV-unprocessed.smi

> <i_m_source_file_index>
1824

> <i_lp_mmshare_version>
43012

> <i_f3d_flags>
0

> <s_epik_input>
W0NIM11bQ0BASF0xW0NIMl1OKFtDSDJdW0NASF0oTzEpW0NIM10pW0NIMl1bQ0BIXShbT0hdKVtDSDJdbihbY0hdbjIpYyhjMjMpW2NIXWMoRiljKEYpW2NIXTM=

> <s_epik_cmdline>
J2VwaWtfcHl0aG9uJywgJy1waCcsICc3LjAnLCAnLXRuJywgJzgnLCAnLW1hJywgJzIwMCcsICctbWV0YWxfYmluZGluZycsICctaW1hZScsICc8aW5maWxlLm1hZT4nLCAnLW9tYWUnLCAnPG91dGZpbGUubWFlPic=

> <r_epik_Ionization_Penalty>
0.273778

> <r_epik_Ionization_Penalty_Charging>
0

> <r_epik_Ionization_Penalty_Neutral>
0.273778

> <r_epik_State_Penalty>
0.246794

> <r_epik_Charging_Adjusted_Penalty>
0.246794

> <i_epik_Tot_Q>
0

> <i_epik_Tot_abs_Q>
0

> <r_epik_Metal_State_Penalty>
0.238234

> <b_epik_Metal_Only>
0

> <s_lp_Force_Field>
OPLS_2005

> <r_lp_Energy>
27.3836

> <b_lp_Chiralities_Consistent>
1

> <s_lp_Variant>
AV-unprocessed.smi:1824-2

> <Gold.Version>
5.8.1

> <Gold.Id.Protein>
6NUR|6NUR_protein|mol2

> <Gold.PLP.Fitness>
46.1000

> <Gold.PLP.PLP>
-40.6369

> <Gold.PLP.part.hbond>
-3.0000

> <Gold.PLP.part.metal>
0.0000

> <Gold.PLP.part.buried>
-4.2248

> <Gold.PLP.part.nonpolar>
-32.6943

> <Gold.PLP.part.repulsive>
0.0654

> <Gold.PLP.ligand.clash>
0.0000

> <Gold.PLP.ligand.torsion>
0.3852

> <Gold.PLP.Chemscore.Hbond>
2.0575

> <Gold.PLP.Chemscore.CHOScore>
0.0000

> <Gold.PLP.Chemscore.Metal>
0.0000

> <Gold.Chemscore.Hbonds>
donor molecule, donor type, donor heavy atom, donor atom, acceptor molecule, acceptor atom, score
      L1  H     7    33       P1  8028  0.86
      P1  H  7997  8010       L1    11  0.35
      P1  H  8011  8017       L1     7  0.19

> <Gold.PLP.Chemscore.Internal.Correction>
0.0612

> <Gold.Rescore>
     Score         DG    S(hbond)    S(metal)    S(lipo)     H(rot)  DE(clash)    DE(int)     intcor
     12.44     -14.63       1.03        0.00      98.39       2.26       0.36       1.83       ----

> <Gold.Chemscore.Fitness>
12.4394

> <Gold.Chemscore.DG>
-14.6302

> <Gold.Chemscore.ZeroCoef>
-5.4800

> <Gold.Chemscore.Hbond>
1.0268

> <Gold.Chemscore.Metal>
0.0000

> <Gold.Chemscore.Lipo>
98.3853

> <Gold.Chemscore.Internal_Hbond>
0.0000

> <Gold.Chemscore.DEClash>
0.3621

> <Gold.Chemscore.DEInternal>
1.8287

> <Gold.Chemscore.Rot>
2.2619

> <Gold.Chemscore.Internal.Correction>
   9.000000E+99

> <Gold.Chemscore.Hbonds>
donor molecule, donor type, donor heavy atom, donor atom, acceptor molecule, acceptor atom, score
      L1  H     7    33       P1  8028  0.84
      P1  H  7997  8010       L1    11  0.01
      P1  H  8011  8017       L1     7  0.06

> <Gold.Chemscore.Hbond.Weighted>
-3.4295

> <Gold.Chemscore.Metal.Weighted>
-0.0000

> <Gold.Chemscore.Lipo.Weighted>
-11.5111

> <Gold.Chemscore.Internal_Hbond.Weighted>
0.0000

> <Gold.Chemscore.DEClash.Weighted>
0.3621

> <Gold.Chemscore.DEInternal.Weighted>
1.8287

> <Gold.Chemscore.Rot.Weighted>
5.7904

> <Gold.Chemscore.Internal.Correction.Weighted>
   9.000000E+99

> <Gold.Protein.RotatedTorsions>
[ 6907 6896 6895 6894 ] final -172.60 input  -60.11 | X-H torsion
[ 7974 7965 7964 7962 ] final  -69.29 input  175.53 | X-H torsion
[ 8008 7997 7996 7995 ] final   43.97 input   59.86 | X-H torsion
[ 10167 10162 10161 10158 ] final  -34.74 input  -65.29 | X-H torsion
[ 10718 10713 10712 10709 ] final -175.23 input   66.30 | X-H torsion
[ 10763 10752 10751 10750 ] final  150.33 input  -60.55 | X-H torsion
[ 11005 11000 10999 10996 ] final  -29.20 input  -57.11 | X-H torsion

> <Gold.Protein.ActiveResidues>
 VAL166  LYS551  ARG553  GLY616  TRP617  ASP618  TYR619  PRO620  LYS621  CYS622 
 ASP623  PHE694  ASN695  SER759  ASP760  ASP761  ALA762  ILE779  LEU786  VAL792 
 PHE793  MET794  SER795  GLU796  ALA797  LYS798  CYS799  TRP800  GLU811  SER814 

> <Gold.Protein.RotatedAtoms>
  151.5426  133.3430  159.2937 H   0  0  0  0  0  0  0  0  0  0  0  0  # atno 6907 bound_to 6896
  150.8526  134.7858  159.7032 H   0  0  0  0  0  0  0  0  0  0  0  0  # atno 6908 bound_to 6896
  152.4568  134.5281  159.9854 H   0  0  0  0  0  0  0  0  0  0  0  0  # atno 6909 bound_to 6896
  145.7056  140.9099  143.0707 H   0  0  0  0  0  0  0  0  0  0  0  0  # atno 7974 bound_to 7965
  155.3115  140.3391  155.4244 H   0  0  0  0  0  0  0  0  0  0  0  0  # atno 8008 bound_to 7997
  156.1953  140.1713  156.8048 H   0  0  0  0  0  0  0  0  0  0  0  0  # atno 8009 bound_to 7997
  154.5491  140.0709  156.8622 H   0  0  0  0  0  0  0  0  0  0  0  0  # atno 8010 bound_to 7997
  140.7179  143.3527  151.2123 H   0  0  0  0  0  0  0  0  0  0  0  0  # atno 10167 bound_to 10162
  156.7968  130.9538  151.3119 H   0  0  0  0  0  0  0  0  0  0  0  0  # atno 10718 bound_to 10713
  154.0857  135.2856  155.3281 H   0  0  0  0  0  0  0  0  0  0  0  0  # atno 10763 bound_to 10752
  154.6653  135.5319  153.8073 H   0  0  0  0  0  0  0  0  0  0  0  0  # atno 10764 bound_to 10752
  153.0432  135.6544  154.1030 H   0  0  0  0  0  0  0  0  0  0  0  0  # atno 10765 bound_to 10752
  140.9275  133.7359  156.0889 H   0  0  0  0  0  0  0  0  0  0  0  0  # atno 11005 bound_to 11000
  144.6956  139.9006  143.7458 LP  0  0  0  0  0  0  0  0  0  0  0  0  # atno 17320 bound_to 7965
  146.0758  139.3746  143.0495 LP  0  0  0  0  0  0  0  0  0  0  0  0  # atno 17321 bound_to 7965
  139.7061  143.9453  152.2927 LP  0  0  0  0  0  0  0  0  0  0  0  0  # atno 17342 bound_to 10162
  139.9162  144.6827  150.8509 LP  0  0  0  0  0  0  0  0  0  0  0  0  # atno 17343 bound_to 10162
  157.6573  130.8936  149.9756 LP  0  0  0  0  0  0  0  0  0  0  0  0  # atno 17370 bound_to 10713
  156.1125  130.3649  150.0024 LP  0  0  0  0  0  0  0  0  0  0  0  0  # atno 17371 bound_to 10713
  140.7906  134.3622  157.5465 LP  0  0  0  0  0  0  0  0  0  0  0  0  # atno 17394 bound_to 11000
  139.8789  134.9138  156.3092 LP  0  0  0  0  0  0  0  0  0  0  0  0  # atno 17395 bound_to 11000

$$$$
