AV-unprocessed.smi:2194|AV-procd|sdf|8902|dock8
  -GOLD-   2272012113D 1   1.00000     0.00000
 Structure written by MMmdl.
 45 47  0  0  0  0  0  0  0  0  1 V2000
  151.7991  145.4832  159.9549 C   0  0  0  0  0  0  0  0  0  0  0  0
  152.0165  144.0900  159.4013 C   0  0  0  0  0  0  0  0  0  0  0  0
  153.0826  143.2938  159.8649 C   0  0  0  0  0  0  0  0  0  0  0  0
  153.2761  142.0001  159.3435 C   0  0  0  0  0  0  0  0  0  0  0  0
  152.4121  141.4811  158.3575 C   0  0  0  0  0  0  0  0  0  0  0  0
  152.6741  140.2061  157.9046 O   0  0  0  0  0  0  0  0  0  0  0  0
  151.6533  139.5204  157.1896 C   0  0  0  0  0  0  0  0  0  0  0  0
  152.1726  138.1533  156.7151 C   0  0  2  0  0  0  0  0  0  0  0  0
  153.0486  138.3424  155.6212 O   0  0  0  0  0  0  0  0  0  0  0  0
  151.0518  137.1437  156.3920 C   0  0  0  0  0  0  0  0  0  0  0  0
  151.5056  135.7637  156.4787 N   0  0  0  0  0  0  0  0  0  0  0  0
  152.5487  135.3164  157.2070 C   0  0  0  0  0  0  0  0  0  0  0  0
  152.7867  134.0066  157.1287 N   0  0  0  0  0  0  0  0  0  0  0  0
  151.7865  133.5821  156.2614 C   0  0  0  0  0  0  0  0  0  0  0  0
  151.0086  134.6165  155.8608 C   0  0  0  0  0  0  0  0  0  0  0  0
  149.8809  134.4519  154.9390 C   0  0  0  0  0  0  0  0  0  0  0  0
  149.1934  135.4105  154.5840 O   0  0  0  0  0  0  0  0  0  0  0  0
  149.6820  133.1612  154.5267 N   0  0  0  0  0  0  0  0  0  0  0  0
  148.5507  132.9565  153.6018 C   0  0  0  0  0  0  0  0  0  0  0  0
  150.4488  132.0721  154.9098 C   0  0  0  0  0  0  0  0  0  0  0  0
  150.2028  130.9378  154.4928 O   0  0  0  0  0  0  0  0  0  0  0  0
  151.4989  132.2840  155.7712 N   0  0  0  0  0  0  0  0  0  0  0  0
  152.3681  131.1929  156.2227 C   0  0  0  0  0  0  0  0  0  0  0  0
  151.3420  142.2881  157.8950 C   0  0  0  0  0  0  0  0  0  0  0  0
  151.1486  143.5828  158.4147 C   0  0  0  0  0  0  0  0  0  0  0  0
  152.5102  145.7117  160.7494 H   0  0  0  0  0  0  0  0  0  0  0  0
  150.7922  145.5748  160.3631 H   0  0  0  0  0  0  0  0  0  0  0  0
  151.9192  146.2258  159.1657 H   0  0  0  0  0  0  0  0  0  0  0  0
  153.7555  143.6699  160.6214 H   0  0  0  0  0  0  0  0  0  0  0  0
  154.0961  141.3978  159.7065 H   0  0  0  0  0  0  0  0  0  0  0  0
  150.7602  139.3933  157.8043 H   0  0  0  0  0  0  0  0  0  0  0  0
  151.3735  140.1108  156.3155 H   0  0  0  0  0  0  0  0  0  0  0  0
  152.7850  137.7388  157.5168 H   0  0  0  0  0  0  0  0  0  0  0  0
  153.3477  137.4963  155.3252 H   0  0  0  0  0  0  0  0  0  0  0  0
  150.2298  137.2728  157.0973 H   0  0  0  0  0  0  0  0  0  0  0  0
  150.6263  137.3231  155.4059 H   0  0  0  0  0  0  0  0  0  0  0  0
  153.1556  135.9742  157.8119 H   0  0  0  0  0  0  0  0  0  0  0  0
  148.4065  131.9295  153.2658 H   0  0  0  0  0  0  0  0  0  0  0  0
  148.6812  133.5587  152.7010 H   0  0  0  0  0  0  0  0  0  0  0  0
  147.6151  133.2609  154.0740 H   0  0  0  0  0  0  0  0  0  0  0  0
  152.0955  130.2095  155.8391 H   0  0  0  0  0  0  0  0  0  0  0  0
  152.3513  131.1302  157.3113 H   0  0  0  0  0  0  0  0  0  0  0  0
  153.3962  131.3872  155.9155 H   0  0  0  0  0  0  0  0  0  0  0  0
  150.6549  141.9378  157.1402 H   0  0  0  0  0  0  0  0  0  0  0  0
  150.3296  144.1869  158.0530 H   0  0  0  0  0  0  0  0  0  0  0  0
  1  2  1  0  0  0  0
  1 26  1  0  0  0  0
  1 27  1  0  0  0  0
  1 28  1  0  0  0  0
  2 25  1  0  0  0  0
  2  3  2  0  0  0  0
  3  4  1  0  0  0  0
  3 29  1  0  0  0  0
  4  5  2  0  0  0  0
  4 30  1  0  0  0  0
  5  6  1  0  0  0  0
  5 24  1  0  0  0  0
  6  7  1  0  0  0  0
  7  8  1  0  0  0  0
  7 31  1  0  0  0  0
  7 32  1  0  0  0  0
  8  9  1  0  0  0  0
  8 10  1  0  0  0  0
  8 33  1  0  0  0  0
  9 34  1  0  0  0  0
 10 11  1  0  0  0  0
 10 35  1  0  0  0  0
 10 36  1  0  0  0  0
 11 15  1  0  0  0  0
 11 12  1  0  0  0  0
 12 13  2  0  0  0  0
 12 37  1  0  0  0  0
 13 14  1  0  0  0  0
 14 22  1  0  0  0  0
 14 15  2  0  0  0  0
 15 16  1  0  0  0  0
 16 17  2  0  0  0  0
 16 18  1  0  0  0  0
 18 19  1  0  0  0  0
 18 20  1  0  0  0  0
 19 38  1  0  0  0  0
 19 39  1  0  0  0  0
 19 40  1  0  0  0  0
 20 21  2  0  0  0  0
 20 22  1  0  0  0  0
 22 23  1  0  0  0  0
 23 41  1  0  0  0  0
 23 42  1  0  0  0  0
 23 43  1  0  0  0  0
 24 25  2  0  0  0  0
 24 44  1  0  0  0  0
 25 45  1  0  0  0  0
M  END
> <s_m_source_file>
AV-unprocessed.smi

> <i_m_source_file_index>
2194

> <i_lp_mmshare_version>
43012

> <i_f3d_flags>
0

> <s_epik_input>
W0NIM11jMVtjSF1bY0hdYyhbY0hdW2NIXTEpT1tDSDJdW0NASF0oW09IXSlbQ0gyXW4oW2NIXW4yKWMoYzIzKWMoPU8pbihbQ0gzXSljKD1PKW4zW0NIM10=

> <s_epik_cmdline>
J2VwaWtfcHl0aG9uJywgJy1waCcsICc3LjAnLCAnLXRuJywgJzgnLCAnLW1hJywgJzIwMCcsICctbWV0YWxfYmluZGluZycsICctaW1hZScsICc8aW5maWxlLm1hZT4nLCAnLW9tYWUnLCAnPG91dGZpbGUubWFlPic=

> <r_lp_tautomer_probability>
1

> <r_epik_Ionization_Penalty>
1.06124e-06

> <r_epik_Ionization_Penalty_Charging>
3.25921e-09

> <r_epik_Ionization_Penalty_Neutral>
1.05798e-06

> <r_epik_State_Penalty>
-0

> <r_epik_Charging_Adjusted_Penalty>
3.25921e-09

> <i_epik_Tot_Q>
0

> <i_epik_Tot_abs_Q>
0

> <r_epik_Metal_State_Penalty>
-0

> <b_epik_Metal_Only>
0

> <s_lp_Force_Field>
OPLS_2005

> <r_lp_Energy>
41.6396

> <b_lp_Chiralities_Consistent>
1

> <s_lp_Variant>
AV-unprocessed.smi:2194-1

> <Gold.Version>
5.8.1

> <Gold.Id.Protein>
6NUR|6NUR_protein|mol2

> <Gold.PLP.Fitness>
42.8098

> <Gold.PLP.PLP>
-41.3269

> <Gold.PLP.part.hbond>
-2.3783

> <Gold.PLP.part.metal>
0.0000

> <Gold.PLP.part.buried>
-3.9936

> <Gold.PLP.part.nonpolar>
-35.6334

> <Gold.PLP.part.repulsive>
1.7373

> <Gold.PLP.ligand.clash>
0.0000

> <Gold.PLP.ligand.torsion>
0.9169

> <Gold.PLP.Chemscore.Hbond>
1.0988

> <Gold.PLP.Chemscore.CHOScore>
0.0000

> <Gold.PLP.Chemscore.Metal>
0.0000

> <Gold.Chemscore.Hbonds>
donor molecule, donor type, donor heavy atom, donor atom, acceptor molecule, acceptor atom, score
      P1  H  7997  8009       L1     6  0.87

> <Gold.PLP.Chemscore.Internal.Correction>
0.0204

> <Gold.Rescore>
     Score         DG    S(hbond)    S(metal)    S(lipo)     H(rot)  DE(clash)    DE(int)     intcor
     11.75     -13.14       0.68        0.00     104.91       2.69       0.55       0.83       ----

> <Gold.Chemscore.Fitness>
11.7536

> <Gold.Chemscore.DG>
-13.1359

> <Gold.Chemscore.ZeroCoef>
-5.4800

> <Gold.Chemscore.Hbond>
0.6779

> <Gold.Chemscore.Metal>
0.0000

> <Gold.Chemscore.Lipo>
104.9078

> <Gold.Chemscore.Internal_Hbond>
0.0000

> <Gold.Chemscore.DEClash>
0.5549

> <Gold.Chemscore.DEInternal>
0.8274

> <Gold.Chemscore.Rot>
2.6885

> <Gold.Chemscore.Internal.Correction>
   9.000000E+99

> <Gold.Chemscore.Hbonds>
donor molecule, donor type, donor heavy atom, donor atom, acceptor molecule, acceptor atom, score
      P1  H  7997  8009       L1     6  0.51

> <Gold.Chemscore.Hbond.Weighted>
-2.2641

> <Gold.Chemscore.Metal.Weighted>
-0.0000

> <Gold.Chemscore.Lipo.Weighted>
-12.2742

> <Gold.Chemscore.Internal_Hbond.Weighted>
0.0000

> <Gold.Chemscore.DEClash.Weighted>
0.5549

> <Gold.Chemscore.DEInternal.Weighted>
0.8274

> <Gold.Chemscore.Rot.Weighted>
6.8825

> <Gold.Chemscore.Internal.Correction.Weighted>
   9.000000E+99

> <Gold.Protein.RotatedTorsions>
[ 6907 6896 6895 6894 ] final  151.72 input  -60.11 | X-H torsion
[ 7974 7965 7964 7962 ] final  -47.17 input  175.53 | X-H torsion
[ 8008 7997 7996 7995 ] final  162.71 input   59.86 | X-H torsion
[ 10167 10162 10161 10158 ] final    4.64 input  -65.29 | X-H torsion
[ 10718 10713 10712 10709 ] final -127.46 input   66.30 | X-H torsion
[ 10763 10752 10751 10750 ] final   13.07 input  -60.55 | X-H torsion
[ 11005 11000 10999 10996 ] final  169.90 input  -57.11 | X-H torsion

> <Gold.Protein.ActiveResidues>
 VAL166  LYS551  ARG553  GLY616  TRP617  ASP618  TYR619  PRO620  LYS621  CYS622 
 ASP623  PHE694  ASN695  SER759  ASP760  ASP761  ALA762  ILE779  LEU786  VAL792 
 PHE793  MET794  SER795  GLU796  ALA797  LYS798  CYS799  TRP800  GLU811  SER814 

> <Gold.Protein.RotatedAtoms>
  152.0967  133.4228  159.4568 H   0  0  0  0  0  0  0  0  0  0  0  0  # atno 6907 bound_to 6896
  150.6863  134.2809  159.4636 H   0  0  0  0  0  0  0  0  0  0  0  0  # atno 6908 bound_to 6896
  152.0665  134.9560  160.0625 H   0  0  0  0  0  0  0  0  0  0  0  0  # atno 6909 bound_to 6896
  145.9644  140.7447  142.9441 H   0  0  0  0  0  0  0  0  0  0  0  0  # atno 7974 bound_to 7965
  156.2011  140.1743  156.7897 H   0  0  0  0  0  0  0  0  0  0  0  0  # atno 8008 bound_to 7997
  154.5593  140.0702  156.8824 H   0  0  0  0  0  0  0  0  0  0  0  0  # atno 8009 bound_to 7997
  155.2879  140.3353  155.4256 H   0  0  0  0  0  0  0  0  0  0  0  0  # atno 8010 bound_to 7997
  140.6524  143.7511  150.7597 H   0  0  0  0  0  0  0  0  0  0  0  0  # atno 10167 bound_to 10162
  156.1859  130.6763  151.0364 H   0  0  0  0  0  0  0  0  0  0  0  0  # atno 10718 bound_to 10713
  153.1758  135.6820  153.8545 H   0  0  0  0  0  0  0  0  0  0  0  0  # atno 10763 bound_to 10752
  153.7893  135.3171  155.3377 H   0  0  0  0  0  0  0  0  0  0  0  0  # atno 10764 bound_to 10752
  154.8028  135.4767  154.0411 H   0  0  0  0  0  0  0  0  0  0  0  0  # atno 10765 bound_to 10752
  140.3027  134.7582  157.3929 H   0  0  0  0  0  0  0  0  0  0  0  0  # atno 11005 bound_to 11000
  144.6822  140.2644  143.7314 LP  0  0  0  0  0  0  0  0  0  0  0  0  # atno 17320 bound_to 7965
  145.7995  139.1958  143.2056 LP  0  0  0  0  0  0  0  0  0  0  0  0  # atno 17321 bound_to 7965
  140.1164  143.4651  152.2339 LP  0  0  0  0  0  0  0  0  0  0  0  0  # atno 17342 bound_to 10162
  139.5741  144.7478  151.3811 LP  0  0  0  0  0  0  0  0  0  0  0  0  # atno 17343 bound_to 10162
  157.6898  131.0813  150.7139 LP  0  0  0  0  0  0  0  0  0  0  0  0  # atno 17370 bound_to 10713
  156.7195  130.4676  149.5526 LP  0  0  0  0  0  0  0  0  0  0  0  0  # atno 17371 bound_to 10713
  140.1095  134.5365  155.8279 LP  0  0  0  0  0  0  0  0  0  0  0  0  # atno 17394 bound_to 11000
  141.2125  133.6720  156.6662 LP  0  0  0  0  0  0  0  0  0  0  0  0  # atno 17395 bound_to 11000

$$$$
