AV-unprocessed.smi:3313|AV-procd|sdf|12730|dock2
  -GOLD-   2272019 73D 1   1.00000     0.00000
 Structure written by MMmdl.
 43 43  0  0  0  0  0  0  0  0  2 V2000
  147.4196  140.5911  153.4849 C   0  0  0  0  0  0  0  0  0  0  0  0
  147.7977  141.3311  154.7789 C   0  0  1  0  0  0  0  0  0  0  0  0
  149.3013  141.6694  154.7937 C   0  0  0  0  0  0  0  0  0  0  0  0
  150.1334  140.4858  154.9197 N   0  0  0  0  0  0  0  0  0  0  0  0
  150.1241  139.3466  154.1427 C   0  0  0  0  0  0  0  0  0  0  0  0
  151.0775  138.5065  154.6426 C   0  0  0  0  0  0  0  0  0  0  0  0
  151.6250  139.2296  155.7390 C   0  0  0  0  0  0  0  0  0  0  0  0
  151.0560  140.4130  155.9041 N   0  0  0  0  0  0  0  0  0  0  0  0
  146.9951  142.5657  154.9325 N   0  3  0  0  0  0  0  0  0  0  0  0
  146.2092  142.6616  156.1824 C   0  0  0  0  0  0  0  0  0  0  0  0
  147.0109  142.1709  157.4042 C   0  0  0  0  0  0  0  0  0  0  0  0
  146.4279  142.6000  158.7567 C   0  0  0  0  0  0  0  0  0  0  0  0
  145.7703  141.8080  159.4324 O   0  0  0  0  0  0  0  0  0  0  0  0
  146.6828  143.8679  159.1255 N   0  0  0  0  0  0  0  0  0  0  0  0
  146.2560  144.5682  160.3431 C   0  0  0  0  0  0  0  0  0  0  0  0
  144.7512  144.8521  160.1905 C   0  0  0  0  0  0  0  0  0  0  0  0
  147.0063  145.9086  160.4939 C   0  0  0  0  0  0  0  0  0  0  0  0
  146.4747  143.6803  161.5864 C   0  0  0  0  0  0  0  0  0  0  0  0
  148.0269  139.6946  153.3566 H   0  0  0  0  0  0  0  0  0  0  0  0
  147.5724  141.2221  152.6085 H   0  0  0  0  0  0  0  0  0  0  0  0
  146.3775  140.2728  153.4889 H   0  0  0  0  0  0  0  0  0  0  0  0
  147.5927  140.6755  155.6268 H   0  0  0  0  0  0  0  0  0  0  0  0
  149.5806  142.1747  153.8680 H   0  0  0  0  0  0  0  0  0  0  0  0
  149.5369  142.3597  155.6056 H   0  0  0  0  0  0  0  0  0  0  0  0
  149.4477  139.2294  153.3086 H   0  0  0  0  0  0  0  0  0  0  0  0
  151.3453  137.5255  154.2791 H   0  0  0  0  0  0  0  0  0  0  0  0
  152.4128  138.9315  156.4152 H   0  0  0  0  0  0  0  0  0  0  0  0
  147.6360  143.3469  154.9179 H   0  0  0  0  0  0  0  0  0  0  0  0
  145.8800  143.6885  156.3420 H   0  0  0  0  0  0  0  0  0  0  0  0
  145.3075  142.0569  156.0788 H   0  0  0  0  0  0  0  0  0  0  0  0
  147.0598  141.0816  157.3901 H   0  0  0  0  0  0  0  0  0  0  0  0
  148.0396  142.5273  157.3304 H   0  0  0  0  0  0  0  0  0  0  0  0
  147.2387  144.4183  158.4867 H   0  0  0  0  0  0  0  0  0  0  0  0
  144.3544  145.3718  161.0633 H   0  0  0  0  0  0  0  0  0  0  0  0
  144.1812  143.9296  160.0729 H   0  0  0  0  0  0  0  0  0  0  0  0
  144.5497  145.4766  159.3190 H   0  0  0  0  0  0  0  0  0  0  0  0
  146.8874  146.5323  159.6071 H   0  0  0  0  0  0  0  0  0  0  0  0
  148.0747  145.7665  160.6569 H   0  0  0  0  0  0  0  0  0  0  0  0
  146.6277  146.4755  161.3450 H   0  0  0  0  0  0  0  0  0  0  0  0
  146.0741  144.1556  162.4823 H   0  0  0  0  0  0  0  0  0  0  0  0
  147.5309  143.4880  161.7744 H   0  0  0  0  0  0  0  0  0  0  0  0
  145.9773  142.7158  161.4785 H   0  0  0  0  0  0  0  0  0  0  0  0
  146.3722  142.6507  154.1416 H   0  0  0  0  0  0  0  0  0  0  0  0
  1  2  1  0  0  0  0
  1 19  1  0  0  0  0
  1 20  1  0  0  0  0
  1 21  1  0  0  0  0
  2  3  1  0  0  0  0
  2  9  1  0  0  0  0
  2 22  1  0  0  0  0
  3  4  1  0  0  0  0
  3 23  1  0  0  0  0
  3 24  1  0  0  0  0
  4  8  1  0  0  0  0
  4  5  1  0  0  0  0
  5  6  2  0  0  0  0
  5 25  1  0  0  0  0
  6  7  1  0  0  0  0
  6 26  1  0  0  0  0
  7  8  2  0  0  0  0
  7 27  1  0  0  0  0
  9 10  1  0  0  0  0
  9 28  1  0  0  0  0
  9 43  1  0  0  0  0
 10 11  1  0  0  0  0
 10 29  1  0  0  0  0
 10 30  1  0  0  0  0
 11 12  1  0  0  0  0
 11 31  1  0  0  0  0
 11 32  1  0  0  0  0
 12 13  2  0  0  0  0
 12 14  1  0  0  0  0
 14 15  1  0  0  0  0
 14 33  1  0  0  0  0
 15 16  1  0  0  0  0
 15 17  1  0  0  0  0
 15 18  1  0  0  0  0
 16 34  1  0  0  0  0
 16 35  1  0  0  0  0
 16 36  1  0  0  0  0
 17 37  1  0  0  0  0
 17 38  1  0  0  0  0
 17 39  1  0  0  0  0
 18 40  1  0  0  0  0
 18 41  1  0  0  0  0
 18 42  1  0  0  0  0
M  CHG  1   9   1
M  END
> <s_m_source_file>
AV-unprocessed.smi

> <i_m_source_file_index>
3313

> <i_lp_mmshare_version>
43012

> <i_f3d_flags>
0

> <s_epik_input>
bjFbY0hdW2NIXVtjSF1uMVtDSDJdW0NAQEhdKFtDSDNdKVtOSF1bQ0gyXVtDSDJdQyg9TylbTkhdQyhbQ0gzXSkoW0NIM10pW0NIM10=

> <s_epik_cmdline>
J2VwaWtfcHl0aG9uJywgJy1waCcsICc3LjAnLCAnLXRuJywgJzgnLCAnLW1hJywgJzIwMCcsICctbWV0YWxfYmluZGluZycsICctaW1hZScsICc8aW5maWxlLm1hZT4nLCAnLW9tYWUnLCAnPG91dGZpbGUubWFlPic=

> <r_lp_tautomer_probability>
1

> <r_epik_Ionization_Penalty>
0.0056766

> <r_epik_Ionization_Penalty_Charging>
0.00567288

> <r_epik_Ionization_Penalty_Neutral>
3.71277e-06

> <r_epik_State_Penalty>
0.0041598

> <r_epik_Charging_Adjusted_Penalty>
0.00983268

> <i_epik_Tot_Q>
1

> <i_epik_Tot_abs_Q>
1

> <r_epik_Metal_State_Penalty>
-0

> <b_epik_Metal_Only>
0

> <s_lp_Force_Field>
OPLS_2005

> <r_lp_Energy>
4.0528

> <b_lp_Chiralities_Consistent>
1

> <s_lp_Variant>
AV-unprocessed.smi:3313-2

> <Gold.Version>
5.8.1

> <Gold.Id.Protein>
6NUR|6NUR_protein|mol2

> <Gold.PLP.Fitness>
45.5465

> <Gold.PLP.PLP>
-33.2587

> <Gold.PLP.part.hbond>
-3.0000

> <Gold.PLP.part.metal>
0.0000

> <Gold.PLP.part.buried>
-1.6809

> <Gold.PLP.part.nonpolar>
-27.6980

> <Gold.PLP.part.repulsive>
0.1753

> <Gold.PLP.ligand.clash>
0.0000

> <Gold.PLP.ligand.torsion>
1.4584

> <Gold.PLP.Chemscore.Hbond>
4.0000

> <Gold.PLP.Chemscore.CHOScore>
0.9703

> <Gold.PLP.Chemscore.Metal>
0.0000

> <Gold.Chemscore.Hbonds>
donor molecule, donor type, donor heavy atom, donor atom, acceptor molecule, acceptor atom, score
      L1  H     9    28       P1  8028  2.00
      L1  H    14    33       P1  8029  0.98
      P1  H  6934  6946       L1    13  1.00
      L1  C     5    25       P1  7957  1.00

> <Gold.PLP.Chemscore.Internal.Correction>
0.2937

> <Gold.Rescore>
     Score         DG    S(hbond)    S(metal)    S(lipo)     H(rot)  DE(clash)    DE(int)     intcor
     13.84     -16.46       2.68        0.00      65.61       2.20       0.07       2.55       ----

> <Gold.Chemscore.Fitness>
13.8389

> <Gold.Chemscore.DG>
-16.4582

> <Gold.Chemscore.ZeroCoef>
-5.4800

> <Gold.Chemscore.Hbond>
2.6767

> <Gold.Chemscore.Metal>
0.0000

> <Gold.Chemscore.Lipo>
65.6142

> <Gold.Chemscore.Internal_Hbond>
0.0000

> <Gold.Chemscore.DEClash>
0.0670

> <Gold.Chemscore.DEInternal>
2.5523

> <Gold.Chemscore.Rot>
2.2027

> <Gold.Chemscore.Internal.Correction>
   9.000000E+99

> <Gold.Chemscore.Hbonds>
donor molecule, donor type, donor heavy atom, donor atom, acceptor molecule, acceptor atom, score
      L1  H     9    28       P1  8028  0.39
      L1  H    14    33       P1  8029  0.82
      P1  H  6934  6946       L1    13  0.80

> <Gold.Chemscore.Hbond.Weighted>
-8.9403

> <Gold.Chemscore.Metal.Weighted>
-0.0000

> <Gold.Chemscore.Lipo.Weighted>
-7.6769

> <Gold.Chemscore.Internal_Hbond.Weighted>
0.0000

> <Gold.Chemscore.DEClash.Weighted>
0.0670

> <Gold.Chemscore.DEInternal.Weighted>
2.5523

> <Gold.Chemscore.Rot.Weighted>
5.6390

> <Gold.Chemscore.Internal.Correction.Weighted>
   9.000000E+99

> <Gold.Protein.RotatedTorsions>
[ 6907 6896 6895 6894 ] final  -35.35 input  -60.11 | X-H torsion
[ 7974 7965 7964 7962 ] final  -82.24 input  175.53 | X-H torsion
[ 8008 7997 7996 7995 ] final  -25.24 input   59.86 | X-H torsion
[ 10167 10162 10161 10158 ] final  -74.69 input  -65.29 | X-H torsion
[ 10718 10713 10712 10709 ] final   72.71 input   66.30 | X-H torsion
[ 10763 10752 10751 10750 ] final -177.51 input  -60.55 | X-H torsion
[ 11005 11000 10999 10996 ] final  -62.82 input  -57.11 | X-H torsion

> <Gold.Protein.ActiveResidues>
 VAL166  LYS551  ARG553  GLY616  TRP617  ASP618  TYR619  PRO620  LYS621  CYS622 
 ASP623  PHE694  ASN695  SER759  ASP760  ASP761  ALA762  ILE779  LEU786  VAL792 
 PHE793  MET794  SER795  GLU796  ALA797  LYS798  CYS799  TRP800  GLU811  SER814 

> <Gold.Protein.RotatedAtoms>
  151.0410  134.9607  159.8161 H   0  0  0  0  0  0  0  0  0  0  0  0  # atno 6907 bound_to 6896
  152.5364  134.2658  159.8963 H   0  0  0  0  0  0  0  0  0  0  0  0  # atno 6908 bound_to 6896
  151.2671  133.4231  159.2653 H   0  0  0  0  0  0  0  0  0  0  0  0  # atno 6909 bound_to 6896
  145.5359  140.9515  143.1577 H   0  0  0  0  0  0  0  0  0  0  0  0  # atno 7974 bound_to 7965
  154.4486  140.1932  156.0588 H   0  0  0  0  0  0  0  0  0  0  0  0  # atno 8008 bound_to 7997
  156.0598  140.3298  155.7421 H   0  0  0  0  0  0  0  0  0  0  0  0  # atno 8009 bound_to 7997
  155.5429  140.0588  157.2857 H   0  0  0  0  0  0  0  0  0  0  0  0  # atno 8010 bound_to 7997
  140.5006  143.2362  151.7759 H   0  0  0  0  0  0  0  0  0  0  0  0  # atno 10167 bound_to 10162
  157.6514  130.9592  150.0967 H   0  0  0  0  0  0  0  0  0  0  0  0  # atno 10718 bound_to 10713
  154.5592  135.2819  155.0936 H   0  0  0  0  0  0  0  0  0  0  0  0  # atno 10763 bound_to 10752
  154.2351  135.6367  153.5192 H   0  0  0  0  0  0  0  0  0  0  0  0  # atno 10764 bound_to 10752
  153.0024  135.5546  154.6181 H   0  0  0  0  0  0  0  0  0  0  0  0  # atno 10765 bound_to 10752
  141.1373  133.6644  156.5586 H   0  0  0  0  0  0  0  0  0  0  0  0  # atno 11005 bound_to 11000
  144.7602  139.6976  143.7237 LP  0  0  0  0  0  0  0  0  0  0  0  0  # atno 17320 bound_to 7965
  146.2013  139.5310  142.9741 LP  0  0  0  0  0  0  0  0  0  0  0  0  # atno 17321 bound_to 7965
  139.4871  144.4527  151.9634 LP  0  0  0  0  0  0  0  0  0  0  0  0  # atno 17342 bound_to 10162
  140.3616  144.2966  150.5932 LP  0  0  0  0  0  0  0  0  0  0  0  0  # atno 17343 bound_to 10162
  156.1901  130.3654  149.8921 LP  0  0  0  0  0  0  0  0  0  0  0  0  # atno 17370 bound_to 10713
  156.6852  130.8874  151.3581 LP  0  0  0  0  0  0  0  0  0  0  0  0  # atno 17371 bound_to 10713
  140.4006  134.7360  157.4777 LP  0  0  0  0  0  0  0  0  0  0  0  0  # atno 17394 bound_to 11000
  140.0499  134.6146  155.8875 LP  0  0  0  0  0  0  0  0  0  0  0  0  # atno 17395 bound_to 11000

$$$$
