AV-unprocessed.smi:2087|AV-procd|sdf|8521|dock2
  -GOLD-   2272011233D 1   1.00000     0.00000
 Structure written by MMmdl.
 51 52  0  0  0  0  0  0  0  0  2 V2000
  146.7105  133.1708  151.7031 C   0  0  0  0  0  0  0  0  0  0  0  0
  145.3367  132.5185  151.4863 C   0  0  0  0  0  0  0  0  0  0  0  0
  145.3047  131.7703  150.1428 C   0  0  0  0  0  0  0  0  0  0  0  0
  144.2133  133.5735  151.5857 C   0  0  0  0  0  0  0  0  0  0  0  0
  143.8203  133.8764  152.9891 N   0  3  2  0  0  0  0  0  0  0  0  0
  142.7360  134.8818  153.0982 C   0  0  0  0  0  0  0  0  0  0  0  0
  143.2767  136.3059  152.8832 C   0  0  0  0  0  0  0  0  0  0  0  0
  144.3080  136.5644  153.8273 O   0  0  0  0  0  0  0  0  0  0  0  0
  145.4200  135.6876  153.6804 C   0  0  1  0  0  0  0  0  0  0  0  0
  146.4863  136.1209  154.6987 C   0  0  0  0  0  0  0  0  0  0  0  0
  147.3039  137.2116  154.1820 N   0  0  0  0  0  0  0  0  0  0  0  0
  147.0227  138.5122  154.3418 C   0  0  0  0  0  0  0  0  0  0  0  0
  146.0391  138.9167  154.9628 O   0  0  0  0  0  0  0  0  0  0  0  0
  148.0217  139.4977  153.7202 C   0  0  0  0  0  0  0  0  0  0  0  0
  149.3377  139.4740  154.3718 N   0  0  0  0  0  0  0  0  0  0  0  0
  150.2591  138.5053  154.0170 C   0  0  0  0  0  0  0  0  0  0  0  0
  151.4843  138.4022  154.5761 C   0  0  0  0  0  0  0  0  0  0  0  0
  151.9135  139.3345  155.6109 C   0  0  0  0  0  0  0  0  0  0  0  0
  153.0143  139.2763  156.1611 O   0  0  0  0  0  0  0  0  0  0  0  0
  150.9582  140.3207  155.9484 N   0  0  0  0  0  0  0  0  0  0  0  0
  151.3366  141.2619  156.9819 C   0  0  0  0  0  0  0  0  0  0  0  0
  149.6718  140.4173  155.3683 C   0  0  0  0  0  0  0  0  0  0  0  0
  148.8565  141.2785  155.7069 O   0  0  0  0  0  0  0  0  0  0  0  0
  144.9462  134.2291  153.8923 C   0  0  0  0  0  0  0  0  0  0  0  0
  146.9235  133.9153  150.9351 H   0  0  0  0  0  0  0  0  0  0  0  0
  147.5078  132.4274  151.6750 H   0  0  0  0  0  0  0  0  0  0  0  0
  146.7621  133.6682  152.6721 H   0  0  0  0  0  0  0  0  0  0  0  0
  145.2122  131.7840  152.2810 H   0  0  0  0  0  0  0  0  0  0  0  0
  145.4219  132.4562  149.3030 H   0  0  0  0  0  0  0  0  0  0  0  0
  144.3660  131.2329  150.0060 H   0  0  0  0  0  0  0  0  0  0  0  0
  146.1084  131.0356  150.0847 H   0  0  0  0  0  0  0  0  0  0  0  0
  144.5069  134.4904  151.0747 H   0  0  0  0  0  0  0  0  0  0  0  0
  143.3466  133.1944  151.0422 H   0  0  0  0  0  0  0  0  0  0  0  0
  141.9303  134.6605  152.3972 H   0  0  0  0  0  0  0  0  0  0  0  0
  142.3003  134.8095  154.0956 H   0  0  0  0  0  0  0  0  0  0  0  0
  143.6487  136.4418  151.8665 H   0  0  0  0  0  0  0  0  0  0  0  0
  142.4789  137.0345  153.0280 H   0  0  0  0  0  0  0  0  0  0  0  0
  145.8336  135.8102  152.6782 H   0  0  0  0  0  0  0  0  0  0  0  0
  146.0061  136.4544  155.6198 H   0  0  0  0  0  0  0  0  0  0  0  0
  147.1157  135.2683  154.9593 H   0  0  0  0  0  0  0  0  0  0  0  0
  148.1307  136.9633  153.6583 H   0  0  0  0  0  0  0  0  0  0  0  0
  148.1265  139.2521  152.6627 H   0  0  0  0  0  0  0  0  0  0  0  0
  147.6095  140.5081  153.7478 H   0  0  0  0  0  0  0  0  0  0  0  0
  149.9855  137.7879  153.2568 H   0  0  0  0  0  0  0  0  0  0  0  0
  152.1545  137.6179  154.2559 H   0  0  0  0  0  0  0  0  0  0  0  0
  150.6335  142.0928  157.0342 H   0  0  0  0  0  0  0  0  0  0  0  0
  152.3241  141.6545  156.7320 H   0  0  0  0  0  0  0  0  0  0  0  0
  151.3531  140.7106  157.9233 H   0  0  0  0  0  0  0  0  0  0  0  0
  144.5992  134.1106  154.9197 H   0  0  0  0  0  0  0  0  0  0  0  0
  145.7717  133.5291  153.7732 H   0  0  0  0  0  0  0  0  0  0  0  0
  143.4289  133.0137  153.3398 H   0  0  0  0  0  0  0  0  0  0  0  0
  1  2  1  0  0  0  0
  1 25  1  0  0  0  0
  1 26  1  0  0  0  0
  1 27  1  0  0  0  0
  2  3  1  0  0  0  0
  2  4  1  0  0  0  0
  2 28  1  0  0  0  0
  3 29  1  0  0  0  0
  3 30  1  0  0  0  0
  3 31  1  0  0  0  0
  4  5  1  0  0  0  0
  4 32  1  0  0  0  0
  4 33  1  0  0  0  0
  5 24  1  0  0  0  0
  5  6  1  0  0  0  0
  5 51  1  0  0  0  0
  6  7  1  0  0  0  0
  6 34  1  0  0  0  0
  6 35  1  0  0  0  0
  7  8  1  0  0  0  0
  7 36  1  0  0  0  0
  7 37  1  0  0  0  0
  8  9  1  0  0  0  0
  9 10  1  0  0  0  0
  9 24  1  0  0  0  0
  9 38  1  0  0  0  0
 10 11  1  0  0  0  0
 10 39  1  0  0  0  0
 10 40  1  0  0  0  0
 11 12  1  0  0  0  0
 11 41  1  0  0  0  0
 12 13  2  0  0  0  0
 12 14  1  0  0  0  0
 14 15  1  0  0  0  0
 14 42  1  0  0  0  0
 14 43  1  0  0  0  0
 15 22  1  0  0  0  0
 15 16  1  0  0  0  0
 16 17  2  0  0  0  0
 16 44  1  0  0  0  0
 17 18  1  0  0  0  0
 17 45  1  0  0  0  0
 18 19  2  0  0  0  0
 18 20  1  0  0  0  0
 20 21  1  0  0  0  0
 20 22  1  0  0  0  0
 21 46  1  0  0  0  0
 21 47  1  0  0  0  0
 21 48  1  0  0  0  0
 22 23  2  0  0  0  0
 24 49  1  0  0  0  0
 24 50  1  0  0  0  0
M  CHG  1   5   1
M  END
> <s_m_source_file>
AV-unprocessed.smi

> <i_m_source_file_index>
2087

> <i_lp_mmshare_version>
43012

> <i_f3d_flags>
0

> <s_epik_input>
W0NIM11bQ0hdKFtDSDNdKVtDSDJdTjFbQ0gyXVtDSDJdT1tDQEhdKFtDSDJdMSlbQ0gyXVtOSF1DKD1PKVtDSDJdbjJbY0hdW2NIXWMoPU8pbihbQ0gzXSljMj1P

> <s_epik_cmdline>
J2VwaWtfcHl0aG9uJywgJy1waCcsICc3LjAnLCAnLXRuJywgJzgnLCAnLW1hJywgJzIwMCcsICctbWV0YWxfYmluZGluZycsICctaW1hZScsICc8aW5maWxlLm1hZT4nLCAnLW9tYWUnLCAnPG91dGZpbGUubWFlPic=

> <r_lp_tautomer_probability>
1

> <r_epik_Ionization_Penalty>
0.097593

> <r_epik_Ionization_Penalty_Charging>
0.097593

> <r_epik_Ionization_Penalty_Neutral>
6.27044e-08

> <r_epik_State_Penalty>
0.0877056

> <r_epik_Charging_Adjusted_Penalty>
0.185299

> <i_epik_Tot_Q>
1

> <i_epik_Tot_abs_Q>
1

> <r_epik_Metal_State_Penalty>
0.0877109

> <b_epik_Metal_Only>
0

> <s_lp_Force_Field>
OPLS_2005

> <r_lp_Energy>
29.4179

> <b_lp_Chiralities_Consistent>
1

> <s_lp_Variant>
AV-unprocessed.smi:2087-2

> <Gold.Version>
5.8.1

> <Gold.Id.Protein>
6NUR|6NUR_protein|mol2

> <Gold.PLP.Fitness>
50.4722

> <Gold.PLP.PLP>
-37.5379

> <Gold.PLP.part.hbond>
-2.9735

> <Gold.PLP.part.metal>
0.0000

> <Gold.PLP.part.buried>
-4.9681

> <Gold.PLP.part.nonpolar>
-30.9191

> <Gold.PLP.part.repulsive>
0.2068

> <Gold.PLP.ligand.clash>
0.0000

> <Gold.PLP.ligand.torsion>
1.0914

> <Gold.PLP.Chemscore.Hbond>
3.9745

> <Gold.PLP.Chemscore.CHOScore>
1.0150

> <Gold.PLP.Chemscore.Metal>
0.0000

> <Gold.Chemscore.Hbonds>
donor molecule, donor type, donor heavy atom, donor atom, acceptor molecule, acceptor atom, score
      L1  H     5    51       P1 10957  1.92
      L1  H    11    41       P1  7948  0.78
      P1  H  7997  8010       L1    19  1.00
      L1  C    16    44       P1  7948  1.00
      L1  C    16    44       P1  7949  0.01

> <Gold.PLP.Chemscore.Internal.Correction>
0.1485

> <Gold.Rescore>
     Score         DG    S(hbond)    S(metal)    S(lipo)     H(rot)  DE(clash)    DE(int)     intcor
     16.25     -17.55       2.82        0.00      71.47       2.22       0.06       1.25       ----

> <Gold.Chemscore.Fitness>
16.2455

> <Gold.Chemscore.DG>
-17.5545

> <Gold.Chemscore.ZeroCoef>
-5.4800

> <Gold.Chemscore.Hbond>
2.8167

> <Gold.Chemscore.Metal>
0.0000

> <Gold.Chemscore.Lipo>
71.4742

> <Gold.Chemscore.Internal_Hbond>
0.0000

> <Gold.Chemscore.DEClash>
0.0625

> <Gold.Chemscore.DEInternal>
1.2465

> <Gold.Chemscore.Rot>
2.2249

> <Gold.Chemscore.Internal.Correction>
   9.000000E+99

> <Gold.Chemscore.Hbonds>
donor molecule, donor type, donor heavy atom, donor atom, acceptor molecule, acceptor atom, score
      L1  H     5    51       P1 10957  0.70
      L1  H    11    41       P1  7948  0.74
      P1  H  7997  8010       L1    19  0.97

> <Gold.Chemscore.Hbond.Weighted>
-9.4077

> <Gold.Chemscore.Metal.Weighted>
-0.0000

> <Gold.Chemscore.Lipo.Weighted>
-8.3625

> <Gold.Chemscore.Internal_Hbond.Weighted>
0.0000

> <Gold.Chemscore.DEClash.Weighted>
0.0625

> <Gold.Chemscore.DEInternal.Weighted>
1.2465

> <Gold.Chemscore.Rot.Weighted>
5.6957

> <Gold.Chemscore.Internal.Correction.Weighted>
   9.000000E+99

> <Gold.Protein.RotatedTorsions>
[ 6907 6896 6895 6894 ] final -125.01 input  -60.11 | X-H torsion
[ 7974 7965 7964 7962 ] final   -1.46 input  175.53 | X-H torsion
[ 8008 7997 7996 7995 ] final   79.22 input   59.86 | X-H torsion
[ 10167 10162 10161 10158 ] final  165.94 input  -65.29 | X-H torsion
[ 10718 10713 10712 10709 ] final   -8.53 input   66.30 | X-H torsion
[ 10763 10752 10751 10750 ] final  -40.72 input  -60.55 | X-H torsion
[ 11005 11000 10999 10996 ] final  160.57 input  -57.11 | X-H torsion

> <Gold.Protein.ActiveResidues>
 VAL166  LYS551  ARG553  GLY616  TRP617  ASP618  TYR619  PRO620  LYS621  CYS622 
 ASP623  PHE694  ASN695  SER759  ASP760  ASP761  ALA762  ILE779  LEU786  VAL792 
 PHE793  MET794  SER795  GLU796  ALA797  LYS798  CYS799  TRP800  GLU811  SER814 

> <Gold.Protein.RotatedAtoms>
  150.8825  133.7352  159.2927 H   0  0  0  0  0  0  0  0  0  0  0  0  # atno 6907 bound_to 6896
  151.4929  135.1057  159.9818 H   0  0  0  0  0  0  0  0  0  0  0  0  # atno 6908 bound_to 6896
  152.4769  133.8113  159.7060 H   0  0  0  0  0  0  0  0  0  0  0  0  # atno 6909 bound_to 6896
  146.2417  140.1423  142.8335 H   0  0  0  0  0  0  0  0  0  0  0  0  # atno 7974 bound_to 7965
  155.8666  140.3451  155.5792 H   0  0  0  0  0  0  0  0  0  0  0  0  # atno 8008 bound_to 7997
  155.7874  140.0867  157.2046 H   0  0  0  0  0  0  0  0  0  0  0  0  # atno 8009 bound_to 7997
  154.4015  140.1489  156.3110 H   0  0  0  0  0  0  0  0  0  0  0  0  # atno 8010 bound_to 7997
  139.4915  144.4080  151.9333 H   0  0  0  0  0  0  0  0  0  0  0  0  # atno 10167 bound_to 10162
  156.7013  130.5094  149.5916 H   0  0  0  0  0  0  0  0  0  0  0  0  # atno 10718 bound_to 10713
  153.9506  135.6751  153.4744 H   0  0  0  0  0  0  0  0  0  0  0  0  # atno 10763 bound_to 10752
  153.0886  135.4886  154.8643 H   0  0  0  0  0  0  0  0  0  0  0  0  # atno 10764 bound_to 10752
  154.7327  135.3142  154.8822 H   0  0  0  0  0  0  0  0  0  0  0  0  # atno 10765 bound_to 10752
  140.2073  134.8294  157.3082 H   0  0  0  0  0  0  0  0  0  0  0  0  # atno 11005 bound_to 11000
  145.0236  140.8814  143.5152 LP  0  0  0  0  0  0  0  0  0  0  0  0  # atno 17320 bound_to 7965
  145.1476  139.2534  143.5458 LP  0  0  0  0  0  0  0  0  0  0  0  0  # atno 17321 bound_to 7965
  140.3520  144.3077  150.5947 LP  0  0  0  0  0  0  0  0  0  0  0  0  # atno 17342 bound_to 10162
  140.5477  143.2212  151.7980 LP  0  0  0  0  0  0  0  0  0  0  0  0  # atno 17343 bound_to 10162
  156.1727  130.6447  151.0857 LP  0  0  0  0  0  0  0  0  0  0  0  0  # atno 17370 bound_to 10713
  157.6972  131.0789  150.6933 LP  0  0  0  0  0  0  0  0  0  0  0  0  # atno 17371 bound_to 10713
  140.1989  134.4279  155.7673 LP  0  0  0  0  0  0  0  0  0  0  0  0  # atno 17394 bound_to 11000
  141.2227  133.7062  156.8151 LP  0  0  0  0  0  0  0  0  0  0  0  0  # atno 17395 bound_to 11000

$$$$
