AV-unprocessed.smi:2593|AV-procd|sdf|10163|dock4
  -GOLD-   2272014173D 1   1.00000     0.00000
 Structure written by MMmdl.
 40 42  0  0  0  0  0  0  0  0  1 V2000
  152.9536  138.5966  154.4762 C   0  0  0  0  0  0  0  0  0  0  0  0
  152.9287  138.9941  155.8354 O   0  0  0  0  0  0  0  0  0  0  0  0
  151.6192  139.2941  156.2908 C   0  0  0  0  0  0  0  0  0  0  0  0
  151.6672  139.6910  157.7727 C   0  0  0  0  0  0  0  0  0  0  0  0
  151.0420  140.9830  158.0129 N   0  0  0  0  0  0  0  0  0  0  0  0
  149.7961  141.3815  157.6604 C   0  0  0  0  0  0  0  0  0  0  0  0
  148.6788  140.3183  156.8131 S   0  0  0  0  0  0  0  0  0  0  0  0
  148.6437  141.2230  155.2428 C   0  0  0  0  0  0  0  0  0  0  0  0
  147.3039  141.9113  155.0814 C   0  0  0  0  0  0  0  0  0  0  0  0
  146.9802  142.5794  153.8814 C   0  0  0  0  0  0  0  0  0  0  0  0
  145.7246  143.2088  153.7831 C   0  0  0  0  0  0  0  0  0  0  0  0
  144.8467  143.1476  154.8826 C   0  0  0  0  0  0  0  0  0  0  0  0
  145.2648  142.4568  156.0384 C   0  0  0  0  0  0  0  0  0  0  0  0
  144.4248  142.3773  157.1462 N   0  0  0  0  0  0  0  0  0  0  0  0
  146.4664  141.8494  156.1414 N   0  0  0  0  0  0  0  0  0  0  0  0
  149.4688  142.6287  157.9974 N   0  0  0  0  0  0  0  0  0  0  0  0
  150.6068  143.0788  158.6379 C   0  0  0  0  0  0  0  0  0  0  0  0
  150.8920  144.3283  159.2339 C   0  0  0  0  0  0  0  0  0  0  0  0
  152.1434  144.5603  159.8413 C   0  0  0  0  0  0  0  0  0  0  0  0
  153.1248  143.5483  159.8631 C   0  0  0  0  0  0  0  0  0  0  0  0
  152.8617  142.2967  159.2738 C   0  0  0  0  0  0  0  0  0  0  0  0
  151.6117  142.0708  158.6670 C   0  0  0  0  0  0  0  0  0  0  0  0
  153.9792  138.3815  154.1765 H   0  0  0  0  0  0  0  0  0  0  0  0
  152.5715  139.3858  153.8276 H   0  0  0  0  0  0  0  0  0  0  0  0
  152.3607  137.6948  154.3188 H   0  0  0  0  0  0  0  0  0  0  0  0
  151.1974  140.1108  155.7032 H   0  0  0  0  0  0  0  0  0  0  0  0
  150.9694  138.4279  156.1569 H   0  0  0  0  0  0  0  0  0  0  0  0
  151.1574  138.9392  158.3756 H   0  0  0  0  0  0  0  0  0  0  0  0
  152.6973  139.7193  158.1284 H   0  0  0  0  0  0  0  0  0  0  0  0
  149.4452  141.9624  155.2270 H   0  0  0  0  0  0  0  0  0  0  0  0
  148.8207  140.5311  154.4181 H   0  0  0  0  0  0  0  0  0  0  0  0
  147.6777  142.6105  153.0573 H   0  0  0  0  0  0  0  0  0  0  0  0
  145.4404  143.7307  152.8813 H   0  0  0  0  0  0  0  0  0  0  0  0
  143.8770  143.6212  154.8358 H   0  0  0  0  0  0  0  0  0  0  0  0
  143.5105  142.8057  157.1480 H   0  0  0  0  0  0  0  0  0  0  0  0
  144.7151  141.9101  157.9931 H   0  0  0  0  0  0  0  0  0  0  0  0
  150.1462  145.1093  159.2244 H   0  0  0  0  0  0  0  0  0  0  0  0
  152.3509  145.5188  160.2940 H   0  0  0  0  0  0  0  0  0  0  0  0
  154.0798  143.7330  160.3327 H   0  0  0  0  0  0  0  0  0  0  0  0
  153.6102  141.5187  159.2913 H   0  0  0  0  0  0  0  0  0  0  0  0
  1  2  1  0  0  0  0
  1 23  1  0  0  0  0
  1 24  1  0  0  0  0
  1 25  1  0  0  0  0
  2  3  1  0  0  0  0
  3  4  1  0  0  0  0
  3 26  1  0  0  0  0
  3 27  1  0  0  0  0
  4  5  1  0  0  0  0
  4 28  1  0  0  0  0
  4 29  1  0  0  0  0
  5 22  1  0  0  0  0
  5  6  1  0  0  0  0
  6  7  1  0  0  0  0
  6 16  2  0  0  0  0
  7  8  1  0  0  0  0
  8  9  1  0  0  0  0
  8 30  1  0  0  0  0
  8 31  1  0  0  0  0
  9 15  1  0  0  0  0
  9 10  2  0  0  0  0
 10 11  1  0  0  0  0
 10 32  1  0  0  0  0
 11 12  2  0  0  0  0
 11 33  1  0  0  0  0
 12 13  1  0  0  0  0
 12 34  1  0  0  0  0
 13 14  1  0  0  0  0
 13 15  2  0  0  0  0
 14 35  1  0  0  0  0
 14 36  1  0  0  0  0
 16 17  1  0  0  0  0
 17 22  2  0  0  0  0
 17 18  1  0  0  0  0
 18 19  2  0  0  0  0
 18 37  1  0  0  0  0
 19 20  1  0  0  0  0
 19 38  1  0  0  0  0
 20 21  2  0  0  0  0
 20 39  1  0  0  0  0
 21 22  1  0  0  0  0
 21 40  1  0  0  0  0
M  END
> <s_m_source_file>
AV-unprocessed.smi

> <i_m_source_file_index>
2593

> <i_lp_mmshare_version>
43012

> <i_f3d_flags>
0

> <s_epik_input>
W2NIXTFbY0hdW2NIXVtjSF1jKGMxMiluKFtDSDJdW0NIMl1PW0NIM10pYyhuMilTW0NIMl1jM1tjSF1bY0hdW2NIXWMobjMpW05IMl0=

> <s_epik_cmdline>
J2VwaWtfcHl0aG9uJywgJy1waCcsICc3LjAnLCAnLXRuJywgJzgnLCAnLW1hJywgJzIwMCcsICctbWV0YWxfYmluZGluZycsICctaW1hZScsICc8aW5maWxlLm1hZT4nLCAnLW9tYWUnLCAnPG91dGZpbGUubWFlPic=

> <r_lp_tautomer_probability>
1

> <r_epik_Ionization_Penalty>
0.0555631

> <r_epik_Ionization_Penalty_Charging>
0

> <r_epik_Ionization_Penalty_Neutral>
0.0555631

> <r_epik_State_Penalty>
0.0451694

> <r_epik_Charging_Adjusted_Penalty>
0.0451694

> <i_epik_Tot_Q>
0

> <i_epik_Tot_abs_Q>
0

> <r_epik_Metal_State_Penalty>
0.0431775

> <b_epik_Metal_Only>
0

> <s_lp_Force_Field>
OPLS_2005

> <r_lp_Energy>
6.83129

> <b_lp_Chiralities_Consistent>
1

> <s_lp_Variant>
AV-unprocessed.smi:2593-1

> <Gold.Version>
5.8.1

> <Gold.Id.Protein>
6NUR|6NUR_protein|mol2

> <Gold.PLP.Fitness>
45.0337

> <Gold.PLP.PLP>
-43.6246

> <Gold.PLP.part.hbond>
-1.0000

> <Gold.PLP.part.metal>
0.0000

> <Gold.PLP.part.buried>
-7.6238

> <Gold.PLP.part.nonpolar>
-35.3780

> <Gold.PLP.part.repulsive>
0.2710

> <Gold.PLP.ligand.clash>
0.0000

> <Gold.PLP.ligand.torsion>
0.8415

> <Gold.PLP.Chemscore.Hbond>
1.0000

> <Gold.PLP.Chemscore.CHOScore>
0.0000

> <Gold.PLP.Chemscore.Metal>
0.0000

> <Gold.Chemscore.Hbonds>
donor molecule, donor type, donor heavy atom, donor atom, acceptor molecule, acceptor atom, score
      P1  H  7997  8008       L1     2  1.00

> <Gold.PLP.Chemscore.Internal.Correction>
0.0920

> <Gold.Rescore>
     Score         DG    S(hbond)    S(metal)    S(lipo)     H(rot)  DE(clash)    DE(int)     intcor
     15.83     -16.93       0.97        0.00     116.57       2.13       0.03       1.07       ----

> <Gold.Chemscore.Fitness>
15.8322

> <Gold.Chemscore.DG>
-16.9310

> <Gold.Chemscore.ZeroCoef>
-5.4800

> <Gold.Chemscore.Hbond>
0.9745

> <Gold.Chemscore.Metal>
0.0000

> <Gold.Chemscore.Lipo>
116.5707

> <Gold.Chemscore.Internal_Hbond>
0.0000

> <Gold.Chemscore.DEClash>
0.0262

> <Gold.Chemscore.DEInternal>
1.0726

> <Gold.Chemscore.Rot>
2.1260

> <Gold.Chemscore.Internal.Correction>
   9.000000E+99

> <Gold.Chemscore.Hbonds>
donor molecule, donor type, donor heavy atom, donor atom, acceptor molecule, acceptor atom, score
      P1  H  7997  8008       L1     2  0.49

> <Gold.Chemscore.Hbond.Weighted>
-3.2547

> <Gold.Chemscore.Metal.Weighted>
-0.0000

> <Gold.Chemscore.Lipo.Weighted>
-13.6388

> <Gold.Chemscore.Internal_Hbond.Weighted>
0.0000

> <Gold.Chemscore.DEClash.Weighted>
0.0262

> <Gold.Chemscore.DEInternal.Weighted>
1.0726

> <Gold.Chemscore.Rot.Weighted>
5.4425

> <Gold.Chemscore.Internal.Correction.Weighted>
   9.000000E+99

> <Gold.Protein.RotatedTorsions>
[ 6907 6896 6895 6894 ] final   24.23 input  -60.11 | X-H torsion
[ 7974 7965 7964 7962 ] final    9.67 input  175.53 | X-H torsion
[ 8008 7997 7996 7995 ] final  -24.39 input   59.86 | X-H torsion
[ 10167 10162 10161 10158 ] final -161.27 input  -65.29 | X-H torsion
[ 10718 10713 10712 10709 ] final  -25.69 input   66.30 | X-H torsion
[ 10763 10752 10751 10750 ] final   16.71 input  -60.55 | X-H torsion
[ 11005 11000 10999 10996 ] final  177.07 input  -57.11 | X-H torsion

> <Gold.Protein.ActiveResidues>
 VAL166  LYS551  ARG553  GLY616  TRP617  ASP618  TYR619  PRO620  LYS621  CYS622 
 ASP623  PHE694  ASN695  SER759  ASP760  ASP761  ALA762  ILE779  LEU786  VAL792 
 PHE793  MET794  SER795  GLU796  ALA797  LYS798  CYS799  TRP800  GLU811  SER814 

> <Gold.Protein.RotatedAtoms>
  151.9544  135.0154  160.0543 H   0  0  0  0  0  0  0  0  0  0  0  0  # atno 6907 bound_to 6896
  152.1925  133.4778  159.5023 H   0  0  0  0  0  0  0  0  0  0  0  0  # atno 6908 bound_to 6896
  150.6938  134.1612  159.4219 H   0  0  0  0  0  0  0  0  0  0  0  0  # atno 6909 bound_to 6896
  146.2400  139.9749  142.8443 H   0  0  0  0  0  0  0  0  0  0  0  0  # atno 7974 bound_to 7965
  154.4532  140.1955  156.0457 H   0  0  0  0  0  0  0  0  0  0  0  0  # atno 8008 bound_to 7997
  156.0691  140.3287  155.7526 H   0  0  0  0  0  0  0  0  0  0  0  0  # atno 8009 bound_to 7997
  155.5291  140.0576  157.2883 H   0  0  0  0  0  0  0  0  0  0  0  0  # atno 8010 bound_to 7997
  139.6477  144.0141  152.2139 H   0  0  0  0  0  0  0  0  0  0  0  0  # atno 10167 bound_to 10162
  156.4610  130.4504  149.6929 H   0  0  0  0  0  0  0  0  0  0  0  0  # atno 10718 bound_to 10713
  153.1405  135.6759  153.9034 H   0  0  0  0  0  0  0  0  0  0  0  0  # atno 10763 bound_to 10752
  153.8492  135.3095  155.3432 H   0  0  0  0  0  0  0  0  0  0  0  0  # atno 10764 bound_to 10752
  154.7784  135.4902  153.9875 H   0  0  0  0  0  0  0  0  0  0  0  0  # atno 10765 bound_to 10752
  140.3800  134.6954  157.4445 H   0  0  0  0  0  0  0  0  0  0  0  0  # atno 11005 bound_to 11000
  145.1646  140.9690  143.4357 LP  0  0  0  0  0  0  0  0  0  0  0  0  # atno 17320 bound_to 7965
  145.0084  139.3532  143.6132 LP  0  0  0  0  0  0  0  0  0  0  0  0  # atno 17321 bound_to 7965
  139.9847  144.6403  150.7868 LP  0  0  0  0  0  0  0  0  0  0  0  0  # atno 17342 bound_to 10162
  140.7523  143.2987  151.3137 LP  0  0  0  0  0  0  0  0  0  0  0  0  # atno 17343 bound_to 10162
  156.3717  130.7533  151.2517 LP  0  0  0  0  0  0  0  0  0  0  0  0  # atno 17370 bound_to 10713
  157.7498  131.0321  150.4212 LP  0  0  0  0  0  0  0  0  0  0  0  0  # atno 17371 bound_to 10713
  140.0485  134.6164  155.8890 LP  0  0  0  0  0  0  0  0  0  0  0  0  # atno 17394 bound_to 11000
  141.1926  133.6576  156.5511 LP  0  0  0  0  0  0  0  0  0  0  0  0  # atno 17395 bound_to 11000

$$$$
