AV-unprocessed.smi:970|AV-procd|sdf|4293|dock5
  -GOLD-   22720 2203D 1   1.00000     0.00000
 Structure written by MMmdl.
 31 31  0  0  0  0  0  0  0  0  1 V2000
  148.8428  141.0769  156.3922 C   0  0  0  0  0  0  0  0  0  0  0  0
  148.0560  142.2212  156.8252 N   0  0  0  0  0  0  0  0  0  0  0  0
  147.0701  142.1587  157.7314 C   0  0  0  0  0  0  0  0  0  0  0  0
  146.7420  141.1143  158.2977 O   0  0  0  0  0  0  0  0  0  0  0  0
  146.3593  143.4831  158.0565 C   0  0  2  0  0  0  0  0  0  0  0  0
  145.7622  144.0361  156.7520 C   0  0  0  0  0  0  0  0  0  0  0  0
  147.3195  144.4610  158.5636 N   0  0  0  0  0  0  0  0  0  0  0  0
  147.4860  144.7878  159.8557 C   0  0  0  0  0  0  0  0  0  0  0  0
  146.7899  144.3260  160.7608 O   0  0  0  0  0  0  0  0  0  0  0  0
  148.6217  145.7756  160.1622 C   0  0  1  0  0  0  0  0  0  0  0  0
  148.4255  146.5143  161.5021 C   0  0  0  0  0  0  0  0  0  0  0  0
  149.9068  145.0907  160.0875 N   0  0  0  0  0  0  0  0  0  0  0  0
  150.5221  144.5362  159.0405 C   0  0  0  0  0  0  0  0  0  0  0  0
  151.6672  143.9402  159.3411 N   0  0  0  0  0  0  0  0  0  0  0  0
  151.6944  144.1662  160.6879 C   0  0  0  0  0  0  0  0  0  0  0  0
  150.6599  144.8415  161.1879 N   0  0  0  0  0  0  0  0  0  0  0  0
  149.5675  141.3873  155.6392 H   0  0  0  0  0  0  0  0  0  0  0  0
  148.2037  140.3091  155.9542 H   0  0  0  0  0  0  0  0  0  0  0  0
  149.3874  140.6408  157.2307 H   0  0  0  0  0  0  0  0  0  0  0  0
  148.2683  143.1150  156.4061 H   0  0  0  0  0  0  0  0  0  0  0  0
  145.5634  143.3205  158.7860 H   0  0  0  0  0  0  0  0  0  0  0  0
  145.0340  143.3452  156.3255 H   0  0  0  0  0  0  0  0  0  0  0  0
  146.5295  144.2182  155.9978 H   0  0  0  0  0  0  0  0  0  0  0  0
  145.2465  144.9799  156.9306 H   0  0  0  0  0  0  0  0  0  0  0  0
  147.9360  144.8837  157.8849 H   0  0  0  0  0  0  0  0  0  0  0  0
  148.6171  146.5317  159.3751 H   0  0  0  0  0  0  0  0  0  0  0  0
  147.4837  147.0640  161.5126 H   0  0  0  0  0  0  0  0  0  0  0  0
  149.2257  147.2363  161.6677 H   0  0  0  0  0  0  0  0  0  0  0  0
  148.4174  145.8305  162.3518 H   0  0  0  0  0  0  0  0  0  0  0  0
  150.1205  144.5634  158.0381 H   0  0  0  0  0  0  0  0  0  0  0  0
  152.4977  143.8171  161.3198 H   0  0  0  0  0  0  0  0  0  0  0  0
  1  2  1  0  0  0  0
  1 17  1  0  0  0  0
  1 18  1  0  0  0  0
  1 19  1  0  0  0  0
  2  3  1  0  0  0  0
  2 20  1  0  0  0  0
  3  4  2  0  0  0  0
  3  5  1  0  0  0  0
  5  6  1  0  0  0  0
  5  7  1  0  0  0  0
  5 21  1  0  0  0  0
  6 22  1  0  0  0  0
  6 23  1  0  0  0  0
  6 24  1  0  0  0  0
  7  8  1  0  0  0  0
  7 25  1  0  0  0  0
  8  9  2  0  0  0  0
  8 10  1  0  0  0  0
 10 11  1  0  0  0  0
 10 12  1  0  0  0  0
 10 26  1  0  0  0  0
 11 27  1  0  0  0  0
 11 28  1  0  0  0  0
 11 29  1  0  0  0  0
 12 16  1  0  0  0  0
 12 13  1  0  0  0  0
 13 14  2  0  0  0  0
 13 30  1  0  0  0  0
 14 15  1  0  0  0  0
 15 16  2  0  0  0  0
 15 31  1  0  0  0  0
M  END
> <s_m_source_file>
AV-unprocessed.smi

> <i_m_source_file_index>
970

> <i_lp_mmshare_version>
43012

> <i_f3d_flags>
0

> <s_epik_input>
W0NIM11bTkhdQyg9TylbQ0BIXShbQ0gzXSlbTkhdQyg9TylbQ0BIXShbQ0gzXSluMVtjSF1uW2NIXW4x

> <s_epik_cmdline>
J2VwaWtfcHl0aG9uJywgJy1waCcsICc3LjAnLCAnLXRuJywgJzgnLCAnLW1hJywgJzIwMCcsICctbWV0YWxfYmluZGluZycsICctaW1hZScsICc8aW5maWxlLm1hZT4nLCAnLW9tYWUnLCAnPG91dGZpbGUubWFlPic=

> <r_lp_tautomer_probability>
1

> <r_epik_Ionization_Penalty>
1.07271e-05

> <r_epik_Ionization_Penalty_Charging>
0

> <r_epik_Ionization_Penalty_Neutral>
1.07271e-05

> <r_epik_State_Penalty>
-0

> <r_epik_Charging_Adjusted_Penalty>
0

> <i_epik_Tot_Q>
0

> <i_epik_Tot_abs_Q>
0

> <r_epik_Metal_State_Penalty>
-0

> <b_epik_Metal_Only>
0

> <s_lp_Force_Field>
OPLS_2005

> <r_lp_Energy>
8.21169

> <b_lp_Chiralities_Consistent>
1

> <s_lp_Variant>
AV-unprocessed.smi:970-3

> <Gold.Version>
5.8.1

> <Gold.Id.Protein>
6NUR|6NUR_protein|mol2

> <Gold.PLP.Fitness>
36.4848

> <Gold.PLP.PLP>
-23.9909

> <Gold.PLP.part.hbond>
-4.4498

> <Gold.PLP.part.metal>
0.0000

> <Gold.PLP.part.buried>
-4.4370

> <Gold.PLP.part.nonpolar>
-16.8541

> <Gold.PLP.part.repulsive>
0.9657

> <Gold.PLP.ligand.clash>
0.0000

> <Gold.PLP.ligand.torsion>
1.0393

> <Gold.PLP.Chemscore.Hbond>
3.6920

> <Gold.PLP.Chemscore.CHOScore>
1.1266

> <Gold.PLP.Chemscore.Metal>
0.0000

> <Gold.Chemscore.Hbonds>
donor molecule, donor type, donor heavy atom, donor atom, acceptor molecule, acceptor atom, score
      L1  H     2    20       P1  8028  1.00
      L1  H     7    25       P1  8029  0.15
      P1  H  6934  6946       L1     4  0.02
      L1  C    13    30       P1  8028  0.52
      L1  C    13    30       P1  8029  0.29

> <Gold.PLP.Chemscore.Internal.Correction>
0.1169

> <Gold.Rescore>
     Score         DG    S(hbond)    S(metal)    S(lipo)     H(rot)  DE(clash)    DE(int)     intcor
      7.89      -9.22       2.33        0.00      22.10       2.59       0.07       1.27       ----

> <Gold.Chemscore.Fitness>
7.8871

> <Gold.Chemscore.DG>
-9.2183

> <Gold.Chemscore.ZeroCoef>
-5.4800

> <Gold.Chemscore.Hbond>
2.3265

> <Gold.Chemscore.Metal>
0.0000

> <Gold.Chemscore.Lipo>
22.1010

> <Gold.Chemscore.Internal_Hbond>
0.0000

> <Gold.Chemscore.DEClash>
0.0651

> <Gold.Chemscore.DEInternal>
1.2661

> <Gold.Chemscore.Rot>
2.5852

> <Gold.Chemscore.Internal.Correction>
   9.000000E+99

> <Gold.Chemscore.Hbonds>
donor molecule, donor type, donor heavy atom, donor atom, acceptor molecule, acceptor atom, score
      L1  H     2    20       P1  8028  0.60
      L1  H     7    25       P1  8029  0.07
      P1  H  6934  6946       L1     4  0.04

> <Gold.Chemscore.Hbond.Weighted>
-7.7706

> <Gold.Chemscore.Metal.Weighted>
-0.0000

> <Gold.Chemscore.Lipo.Weighted>
-2.5858

> <Gold.Chemscore.Internal_Hbond.Weighted>
0.0000

> <Gold.Chemscore.DEClash.Weighted>
0.0651

> <Gold.Chemscore.DEInternal.Weighted>
1.2661

> <Gold.Chemscore.Rot.Weighted>
6.6182

> <Gold.Chemscore.Internal.Correction.Weighted>
   9.000000E+99

> <Gold.Protein.RotatedTorsions>
[ 6907 6896 6895 6894 ] final   61.76 input  -60.11 | X-H torsion
[ 7974 7965 7964 7962 ] final   16.03 input  175.53 | X-H torsion
[ 8008 7997 7996 7995 ] final -100.79 input   59.86 | X-H torsion
[ 10167 10162 10161 10158 ] final  178.88 input  -65.29 | X-H torsion
[ 10718 10713 10712 10709 ] final -167.85 input   66.30 | X-H torsion
[ 10763 10752 10751 10750 ] final   66.35 input  -60.55 | X-H torsion
[ 11005 11000 10999 10996 ] final -150.30 input  -57.11 | X-H torsion

> <Gold.Protein.ActiveResidues>
 VAL166  LYS551  ARG553  GLY616  TRP617  ASP618  TYR619  PRO620  LYS621  CYS622 
 ASP623  PHE694  ASN695  SER759  ASP760  ASP761  ALA762  ILE779  LEU786  VAL792 
 PHE793  MET794  SER795  GLU796  ALA797  LYS798  CYS799  TRP800  GLU811  SER814 

> <Gold.Protein.RotatedAtoms>
  152.4116  134.6115  160.0026 H   0  0  0  0  0  0  0  0  0  0  0  0  # atno 6907 bound_to 6896
  151.6291  133.3328  159.3113 H   0  0  0  0  0  0  0  0  0  0  0  0  # atno 6908 bound_to 6896
  150.8006  134.7137  159.6663 H   0  0  0  0  0  0  0  0  0  0  0  0  # atno 6909 bound_to 6896
  146.2261  139.8807  142.8571 H   0  0  0  0  0  0  0  0  0  0  0  0  # atno 7974 bound_to 7965
  154.8335  140.0438  157.1493 H   0  0  0  0  0  0  0  0  0  0  0  0  # atno 8008 bound_to 7997
  154.9125  140.3015  155.5238 H   0  0  0  0  0  0  0  0  0  0  0  0  # atno 8009 bound_to 7997
  156.2988  140.2355  156.4166 H   0  0  0  0  0  0  0  0  0  0  0  0  # atno 8010 bound_to 7997
  139.5313  144.2627  152.0693 H   0  0  0  0  0  0  0  0  0  0  0  0  # atno 10167 bound_to 10162
  156.6884  130.9149  151.3066 H   0  0  0  0  0  0  0  0  0  0  0  0  # atno 10718 bound_to 10713
  153.0136  135.5323  154.6810 H   0  0  0  0  0  0  0  0  0  0  0  0  # atno 10763 bound_to 10752
  154.5970  135.2864  155.0578 H   0  0  0  0  0  0  0  0  0  0  0  0  # atno 10764 bound_to 10752
  154.1649  135.6541  153.5047 H   0  0  0  0  0  0  0  0  0  0  0  0  # atno 10765 bound_to 10752
  140.7416  134.3507  157.5146 H   0  0  0  0  0  0  0  0  0  0  0  0  # atno 11005 bound_to 11000
  145.2516  141.0046  143.3878 LP  0  0  0  0  0  0  0  0  0  0  0  0  # atno 17320 bound_to 7965
  144.9370  139.4232  143.6467 LP  0  0  0  0  0  0  0  0  0  0  0  0  # atno 17321 bound_to 7965
  140.2091  144.4581  150.6394 LP  0  0  0  0  0  0  0  0  0  0  0  0  # atno 17342 bound_to 10162
  140.6492  143.2221  151.6116 LP  0  0  0  0  0  0  0  0  0  0  0  0  # atno 17343 bound_to 10162
  157.7018  130.9341  150.0809 LP  0  0  0  0  0  0  0  0  0  0  0  0  # atno 17370 bound_to 10713
  156.1816  130.3650  149.9028 LP  0  0  0  0  0  0  0  0  0  0  0  0  # atno 17371 bound_to 10713
  139.8805  134.9085  156.2968 LP  0  0  0  0  0  0  0  0  0  0  0  0  # atno 17394 bound_to 11000
  140.9831  133.7255  156.0701 LP  0  0  0  0  0  0  0  0  0  0  0  0  # atno 17395 bound_to 11000

$$$$
