AV-unprocessed.smi:2489|AV-procd|sdf|9796|dock4
  -GOLD-   2272013433D 1   1.00000     0.00000
 Structure written by MMmdl.
 33 34  0  0  0  0  0  0  0  0  1 V2000
  153.0447  142.2860  161.7161 C   0  0  0  0  0  0  0  0  0  0  0  0
  152.8292  141.6797  160.4503 O   0  0  0  0  0  0  0  0  0  0  0  0
  152.3720  142.4764  159.4231 C   0  0  0  0  0  0  0  0  0  0  0  0
  152.6543  143.8534  159.4895 C   0  0  0  0  0  0  0  0  0  0  0  0
  152.2008  144.6894  158.4535 C   0  0  0  0  0  0  0  0  0  0  0  0
  151.5035  144.2368  157.3921 N   0  0  0  0  0  0  0  0  0  0  0  0
  151.2194  142.9143  157.3069 C   0  0  0  0  0  0  0  0  0  0  0  0
  150.4933  142.3330  156.2339 N   0  0  0  0  0  0  0  0  0  0  0  0
  150.6618  141.1244  155.6632 C   0  0  0  0  0  0  0  0  0  0  0  0
  151.5317  140.3172  155.9914 O   0  0  0  0  0  0  0  0  0  0  0  0
  149.7059  140.7714  154.5132 C   0  0  1  0  0  0  0  0  0  0  0  0
  148.7754  139.5789  154.8080 C   0  0  0  0  0  0  0  0  0  0  0  0
  147.3802  140.1681  154.7048 C   0  0  0  0  0  0  0  0  0  0  0  0
  147.5941  141.3646  153.7847 C   0  0  1  0  0  0  0  0  0  0  0  0
  146.5049  142.4377  153.8853 C   0  0  0  0  0  0  0  0  0  0  0  0
  148.8388  141.8721  154.2357 O   0  0  0  0  0  0  0  0  0  0  0  0
  151.6388  142.0057  158.3051 C   0  0  0  0  0  0  0  0  0  0  0  0
  153.4033  141.5342  162.4190 H   0  0  0  0  0  0  0  0  0  0  0  0
  152.1212  142.7019  162.1210 H   0  0  0  0  0  0  0  0  0  0  0  0
  153.8001  143.0709  161.6585 H   0  0  0  0  0  0  0  0  0  0  0  0
  153.2096  144.2629  160.3205 H   0  0  0  0  0  0  0  0  0  0  0  0
  152.4032  145.7499  158.4774 H   0  0  0  0  0  0  0  0  0  0  0  0
  149.7455  142.8968  155.8568 H   0  0  0  0  0  0  0  0  0  0  0  0
  150.2966  140.5629  153.6200 H   0  0  0  0  0  0  0  0  0  0  0  0
  148.9163  138.8057  154.0519 H   0  0  0  0  0  0  0  0  0  0  0  0
  148.9362  139.1160  155.7827 H   0  0  0  0  0  0  0  0  0  0  0  0
  146.6455  139.4602  154.3199 H   0  0  0  0  0  0  0  0  0  0  0  0
  147.0484  140.5023  155.6891 H   0  0  0  0  0  0  0  0  0  0  0  0
  147.7018  141.0291  152.7517 H   0  0  0  0  0  0  0  0  0  0  0  0
  145.5369  142.0420  153.5771 H   0  0  0  0  0  0  0  0  0  0  0  0
  146.7370  143.2887  153.2445 H   0  0  0  0  0  0  0  0  0  0  0  0
  146.4067  142.8071  154.9065 H   0  0  0  0  0  0  0  0  0  0  0  0
  151.3912  140.9603  158.1965 H   0  0  0  0  0  0  0  0  0  0  0  0
  1  2  1  0  0  0  0
  1 18  1  0  0  0  0
  1 19  1  0  0  0  0
  1 20  1  0  0  0  0
  2  3  1  0  0  0  0
  3 17  1  0  0  0  0
  3  4  2  0  0  0  0
  4  5  1  0  0  0  0
  4 21  1  0  0  0  0
  5  6  2  0  0  0  0
  5 22  1  0  0  0  0
  6  7  1  0  0  0  0
  7  8  1  0  0  0  0
  7 17  2  0  0  0  0
  8  9  1  0  0  0  0
  8 23  1  0  0  0  0
  9 10  2  0  0  0  0
  9 11  1  0  0  0  0
 11 16  1  0  0  0  0
 11 12  1  0  0  0  0
 11 24  1  0  0  0  0
 12 13  1  0  0  0  0
 12 25  1  0  0  0  0
 12 26  1  0  0  0  0
 13 14  1  0  0  0  0
 13 27  1  0  0  0  0
 13 28  1  0  0  0  0
 14 15  1  0  0  0  0
 14 16  1  0  0  0  0
 14 29  1  0  0  0  0
 15 30  1  0  0  0  0
 15 31  1  0  0  0  0
 15 32  1  0  0  0  0
 17 33  1  0  0  0  0
M  END
> <s_m_source_file>
AV-unprocessed.smi

> <i_m_source_file_index>
2489

> <i_lp_mmshare_version>
43012

> <i_f3d_flags>
0

> <s_epik_input>
W0NIM11PYzFbY0hdW2NIXW5jKFtjSF0xKVtOSF1DKD1PKVtDQEBIXTJbQ0gyXVtDSDJdW0NASF0oTzIpW0NIM10=

> <s_epik_cmdline>
J2VwaWtfcHl0aG9uJywgJy1waCcsICc3LjAnLCAnLXRuJywgJzgnLCAnLW1hJywgJzIwMCcsICctbWV0YWxfYmluZGluZycsICctaW1hZScsICc8aW5maWxlLm1hZT4nLCAnLW9tYWUnLCAnPG91dGZpbGUubWFlPic=

> <r_epik_Ionization_Penalty>
0.0871917

> <r_epik_Ionization_Penalty_Charging>
0

> <r_epik_Ionization_Penalty_Neutral>
0.0871917

> <r_epik_State_Penalty>
0.146479

> <r_epik_Charging_Adjusted_Penalty>
0.146479

> <i_epik_Tot_Q>
0

> <i_epik_Tot_abs_Q>
0

> <r_epik_Metal_State_Penalty>
0.067489

> <b_epik_Metal_Only>
0

> <s_lp_Force_Field>
OPLS_2005

> <r_lp_Energy>
22.1586

> <b_lp_Chiralities_Consistent>
1

> <s_lp_Variant>
AV-unprocessed.smi:2489-2

> <Gold.Version>
5.8.1

> <Gold.Id.Protein>
6NUR|6NUR_protein|mol2

> <Gold.PLP.Fitness>
42.0118

> <Gold.PLP.PLP>
-39.4471

> <Gold.PLP.part.hbond>
-2.0000

> <Gold.PLP.part.metal>
0.0000

> <Gold.PLP.part.buried>
-5.1351

> <Gold.PLP.part.nonpolar>
-31.3700

> <Gold.PLP.part.repulsive>
0.4428

> <Gold.PLP.ligand.clash>
0.0000

> <Gold.PLP.ligand.torsion>
0.6384

> <Gold.PLP.Chemscore.Hbond>
1.2785

> <Gold.PLP.Chemscore.CHOScore>
0.0000

> <Gold.PLP.Chemscore.Metal>
0.0000

> <Gold.Chemscore.Hbonds>
donor molecule, donor type, donor heavy atom, donor atom, acceptor molecule, acceptor atom, score
      L1  H     8    23       P1  8028  0.98
      P1  H  8011  8017       L1    16  0.22

> <Gold.PLP.Chemscore.Internal.Correction>
0.0061

> <Gold.Rescore>
     Score         DG    S(hbond)    S(metal)    S(lipo)     H(rot)  DE(clash)    DE(int)     intcor
     13.87     -15.89       0.95        0.00      88.74       1.23       0.09       1.94       ----

> <Gold.Chemscore.Fitness>
13.8651

> <Gold.Chemscore.DG>
-15.8937

> <Gold.Chemscore.ZeroCoef>
-5.4800

> <Gold.Chemscore.Hbond>
0.9493

> <Gold.Chemscore.Metal>
0.0000

> <Gold.Chemscore.Lipo>
88.7399

> <Gold.Chemscore.Internal_Hbond>
0.0000

> <Gold.Chemscore.DEClash>
0.0907

> <Gold.Chemscore.DEInternal>
1.9379

> <Gold.Chemscore.Rot>
1.2264

> <Gold.Chemscore.Internal.Correction>
   9.000000E+99

> <Gold.Chemscore.Hbonds>
donor molecule, donor type, donor heavy atom, donor atom, acceptor molecule, acceptor atom, score
      L1  H     8    23       P1  8028  0.87
      P1  H  8011  8017       L1    16  0.01

> <Gold.Chemscore.Hbond.Weighted>
-3.1707

> <Gold.Chemscore.Metal.Weighted>
-0.0000

> <Gold.Chemscore.Lipo.Weighted>
-10.3826

> <Gold.Chemscore.Internal_Hbond.Weighted>
0.0000

> <Gold.Chemscore.DEClash.Weighted>
0.0907

> <Gold.Chemscore.DEInternal.Weighted>
1.9379

> <Gold.Chemscore.Rot.Weighted>
3.1396

> <Gold.Chemscore.Internal.Correction.Weighted>
   9.000000E+99

> <Gold.Protein.RotatedTorsions>
[ 6907 6896 6895 6894 ] final  116.50 input  -60.11 | X-H torsion
[ 7974 7965 7964 7962 ] final -105.10 input  175.53 | X-H torsion
[ 8008 7997 7996 7995 ] final   80.30 input   59.86 | X-H torsion
[ 10167 10162 10161 10158 ] final  -73.83 input  -65.29 | X-H torsion
[ 10718 10713 10712 10709 ] final -159.43 input   66.30 | X-H torsion
[ 10763 10752 10751 10750 ] final  -73.10 input  -60.55 | X-H torsion
[ 11005 11000 10999 10996 ] final -146.13 input  -57.11 | X-H torsion

> <Gold.Protein.ActiveResidues>
 VAL166  LYS551  ARG553  GLY616  TRP617  ASP618  TYR619  PRO620  LYS621  CYS622 
 ASP623  PHE694  ASN695  SER759  ASP760  ASP761  ALA762  ILE779  LEU786  VAL792 
 PHE793  MET794  SER795  GLU796  ALA797  LYS798  CYS799  TRP800  GLU811  SER814 

> <Gold.Protein.RotatedAtoms>
  152.4674  133.7953  159.6923 H   0  0  0  0  0  0  0  0  0  0  0  0  # atno 6907 bound_to 6896
  150.8645  133.7585  159.2987 H   0  0  0  0  0  0  0  0  0  0  0  0  # atno 6908 bound_to 6896
  151.5139  135.1069  159.9913 H   0  0  0  0  0  0  0  0  0  0  0  0  # atno 6909 bound_to 6896
  145.2347  140.9183  143.3184 H   0  0  0  0  0  0  0  0  0  0  0  0  # atno 7974 bound_to 7965
  155.8816  140.3444  155.5891 H   0  0  0  0  0  0  0  0  0  0  0  0  # atno 8008 bound_to 7997
  155.7714  140.0846  157.2125 H   0  0  0  0  0  0  0  0  0  0  0  0  # atno 8009 bound_to 7997
  154.4025  140.1517  156.2933 H   0  0  0  0  0  0  0  0  0  0  0  0  # atno 8010 bound_to 7997
  140.5078  143.2350  151.7645 H   0  0  0  0  0  0  0  0  0  0  0  0  # atno 10167 bound_to 10162
  156.5680  130.8676  151.2829 H   0  0  0  0  0  0  0  0  0  0  0  0  # atno 10718 bound_to 10713
  154.4548  135.5908  153.6216 H   0  0  0  0  0  0  0  0  0  0  0  0  # atno 10763 bound_to 10752
  152.9817  135.6029  154.3560 H   0  0  0  0  0  0  0  0  0  0  0  0  # atno 10764 bound_to 10752
  154.3425  135.2841  155.2394 H   0  0  0  0  0  0  0  0  0  0  0  0  # atno 10765 bound_to 10752
  140.7851  134.3034  157.5032 H   0  0  0  0  0  0  0  0  0  0  0  0  # atno 11005 bound_to 11000
  144.9644  139.3946  143.6340 LP  0  0  0  0  0  0  0  0  0  0  0  0  # atno 17320 bound_to 7965
  146.3344  139.8712  142.8839 LP  0  0  0  0  0  0  0  0  0  0  0  0  # atno 17321 bound_to 7965
  139.4888  144.4433  151.9739 LP  0  0  0  0  0  0  0  0  0  0  0  0  # atno 17342 bound_to 10162
  140.3525  144.3072  150.5947 LP  0  0  0  0  0  0  0  0  0  0  0  0  # atno 17343 bound_to 10162
  157.7354  130.9762  150.2082 LP  0  0  0  0  0  0  0  0  0  0  0  0  # atno 17370 bound_to 10713
  156.2740  130.3725  149.8002 LP  0  0  0  0  0  0  0  0  0  0  0  0  # atno 17371 bound_to 10713
  139.8738  134.9341  156.3599 LP  0  0  0  0  0  0  0  0  0  0  0  0  # atno 17394 bound_to 11000
  140.9444  133.7492  156.0189 LP  0  0  0  0  0  0  0  0  0  0  0  0  # atno 17395 bound_to 11000

$$$$
