AV-unprocessed.smi:1206|AV-procd|sdf|5047|dock1
  -GOLD-   22720 4 73D 1   1.00000     0.00000
 Structure written by MMmdl.
 41 42  0  0  0  0  0  0  0  0  2 V2000
  146.8605  138.9203  151.2561 C   0  0  0  0  0  0  0  0  0  0  0  0
  146.1526  138.7880  152.5553 N   0  3  0  0  0  0  0  0  0  0  0  0
  145.7775  137.3683  152.7884 C   0  0  0  0  0  0  0  0  0  0  0  0
  146.7686  139.4985  153.7395 C   0  0  0  0  0  0  0  0  0  0  0  0
  145.7103  139.5405  154.8900 C   0  0  0  0  0  0  0  0  0  0  0  0
  144.3275  139.5870  154.4131 N   0  0  0  0  0  0  0  0  0  0  0  0
  143.3526  138.7256  154.7364 C   0  0  0  0  0  0  0  0  0  0  0  0
  143.5229  137.7571  155.4756 O   0  0  0  0  0  0  0  0  0  0  0  0
  142.1954  139.0553  154.1411 N   0  0  0  0  0  0  0  0  0  0  0  0
  140.9500  138.3837  154.2258 C   0  0  0  0  0  0  0  0  0  0  0  0
  140.8427  137.3673  155.0894 N   0  0  0  0  0  0  0  0  0  0  0  0
  139.5743  136.8005  155.0709 N   0  0  0  0  0  0  0  0  0  0  0  0
  138.7740  137.4117  154.1922 C   0  0  0  0  0  0  0  0  0  0  0  0
  139.4892  138.7435  153.3007 S   0  0  0  0  0  0  0  0  0  0  0  0
  148.0505  138.7547  154.2245 C   0  0  0  0  0  0  0  0  0  0  0  0
  148.8277  139.4947  155.3316 C   0  0  0  0  0  0  0  0  0  0  0  0
  149.1765  140.9324  154.9248 C   0  0  0  0  0  0  0  0  0  0  0  0
  147.9247  141.7074  154.4936 C   0  0  0  0  0  0  0  0  0  0  0  0
  147.1833  140.9622  153.3696 C   0  0  0  0  0  0  0  0  0  0  0  0
  147.8942  138.5808  151.3289 H   0  0  0  0  0  0  0  0  0  0  0  0
  146.8485  139.9479  150.8937 H   0  0  0  0  0  0  0  0  0  0  0  0
  146.3688  138.3247  150.4861 H   0  0  0  0  0  0  0  0  0  0  0  0
  146.6560  136.7225  152.8110 H   0  0  0  0  0  0  0  0  0  0  0  0
  145.1331  137.0156  151.9825 H   0  0  0  0  0  0  0  0  0  0  0  0
  145.2250  137.2243  153.7149 H   0  0  0  0  0  0  0  0  0  0  0  0
  145.8400  138.7084  155.5818 H   0  0  0  0  0  0  0  0  0  0  0  0
  145.8430  140.4214  155.5144 H   0  0  0  0  0  0  0  0  0  0  0  0
  144.0913  140.3543  153.8005 H   0  0  0  0  0  0  0  0  0  0  0  0
  142.2031  139.8787  153.5570 H   0  0  0  0  0  0  0  0  0  0  0  0
  137.7549  137.0761  154.0685 H   0  0  0  0  0  0  0  0  0  0  0  0
  147.8034  137.7608  154.5982 H   0  0  0  0  0  0  0  0  0  0  0  0
  148.7242  138.6008  153.3808 H   0  0  0  0  0  0  0  0  0  0  0  0
  148.2519  139.5040  156.2568 H   0  0  0  0  0  0  0  0  0  0  0  0
  149.7441  138.9493  155.5592 H   0  0  0  0  0  0  0  0  0  0  0  0
  149.6681  141.4460  155.7516 H   0  0  0  0  0  0  0  0  0  0  0  0
  149.8942  140.9130  154.1036 H   0  0  0  0  0  0  0  0  0  0  0  0
  147.2702  141.8767  155.3483 H   0  0  0  0  0  0  0  0  0  0  0  0
  148.2157  142.6979  154.1425 H   0  0  0  0  0  0  0  0  0  0  0  0
  147.8707  140.9641  152.5241 H   0  0  0  0  0  0  0  0  0  0  0  0
  146.3176  141.5445  153.0520 H   0  0  0  0  0  0  0  0  0  0  0  0
  145.2739  139.2649  152.4106 H   0  0  0  0  0  0  0  0  0  0  0  0
  1  2  1  0  0  0  0
  1 20  1  0  0  0  0
  1 21  1  0  0  0  0
  1 22  1  0  0  0  0
  2  3  1  0  0  0  0
  2  4  1  0  0  0  0
  2 41  1  0  0  0  0
  3 23  1  0  0  0  0
  3 24  1  0  0  0  0
  3 25  1  0  0  0  0
  4 19  1  0  0  0  0
  4  5  1  0  0  0  0
  4 15  1  0  0  0  0
  5  6  1  0  0  0  0
  5 26  1  0  0  0  0
  5 27  1  0  0  0  0
  6  7  1  0  0  0  0
  6 28  1  0  0  0  0
  7  8  2  0  0  0  0
  7  9  1  0  0  0  0
  9 10  1  0  0  0  0
  9 29  1  0  0  0  0
 10 14  1  0  0  0  0
 10 11  2  0  0  0  0
 11 12  1  0  0  0  0
 12 13  2  0  0  0  0
 13 14  1  0  0  0  0
 13 30  1  0  0  0  0
 15 16  1  0  0  0  0
 15 31  1  0  0  0  0
 15 32  1  0  0  0  0
 16 17  1  0  0  0  0
 16 33  1  0  0  0  0
 16 34  1  0  0  0  0
 17 18  1  0  0  0  0
 17 35  1  0  0  0  0
 17 36  1  0  0  0  0
 18 19  1  0  0  0  0
 18 37  1  0  0  0  0
 18 38  1  0  0  0  0
 19 39  1  0  0  0  0
 19 40  1  0  0  0  0
M  CHG  1   2   1
M  END
> <s_m_source_file>
AV-unprocessed.smi

> <i_m_source_file_index>
1206

> <i_lp_mmshare_version>
43012

> <i_f3d_flags>
0

> <s_epik_input>
W0NIMl0xW0NIMl1bQ0gyXVtDSDJdW0NIMl1DMShOKFtDSDNdKVtDSDNdKVtDSDJdW05IXUMoPU8pW05IXWMybm5bY0hdczI=

> <s_epik_cmdline>
J2VwaWtfcHl0aG9uJywgJy1waCcsICc3LjAnLCAnLXRuJywgJzgnLCAnLW1hJywgJzIwMCcsICctbWV0YWxfYmluZGluZycsICctaW1hZScsICc8aW5maWxlLm1hZT4nLCAnLW9tYWUnLCAnPG91dGZpbGUubWFlPic=

> <r_lp_tautomer_probability>
1

> <r_epik_Ionization_Penalty>
0.00322257

> <r_epik_Ionization_Penalty_Charging>
0.00246239

> <r_epik_Ionization_Penalty_Neutral>
0.000760187

> <r_epik_State_Penalty>
-0

> <r_epik_Charging_Adjusted_Penalty>
0.00246239

> <i_epik_Tot_Q>
1

> <i_epik_Tot_abs_Q>
1

> <r_epik_Metal_State_Penalty>
0.262153

> <b_epik_Metal_Only>
0

> <s_lp_Force_Field>
OPLS_2005

> <r_lp_Energy>
30.8997

> <b_lp_Chiralities_Consistent>
1

> <s_lp_Variant>
AV-unprocessed.smi:1206-1

> <Gold.Version>
5.8.1

> <Gold.Id.Protein>
6NUR|6NUR_protein|mol2

> <Gold.PLP.Fitness>
38.8683

> <Gold.PLP.PLP>
-27.0488

> <Gold.PLP.part.hbond>
-4.0229

> <Gold.PLP.part.metal>
0.0000

> <Gold.PLP.part.buried>
-0.5607

> <Gold.PLP.part.nonpolar>
-22.5210

> <Gold.PLP.part.repulsive>
0.1206

> <Gold.PLP.ligand.clash>
0.0000

> <Gold.PLP.ligand.torsion>
0.7164

> <Gold.PLP.Chemscore.Hbond>
4.3817

> <Gold.PLP.Chemscore.CHOScore>
0.0000

> <Gold.PLP.Chemscore.Metal>
0.0000

> <Gold.Chemscore.Hbonds>
donor molecule, donor type, donor heavy atom, donor atom, acceptor molecule, acceptor atom, score
      L1  H     2    41       P1 10175  2.00
      L1  H     6    28       P1 10175  0.43
      L1  H     9    29       P1 10175  0.54
      P1  H 11000 11005       L1    12  0.31

> <Gold.PLP.Chemscore.Internal.Correction>
0.1071

> <Gold.Rescore>
     Score         DG    S(hbond)    S(metal)    S(lipo)     H(rot)  DE(clash)    DE(int)     intcor
     16.53     -19.12       2.93        0.00      69.39       1.66       0.48       2.11       ----

> <Gold.Chemscore.Fitness>
16.5287

> <Gold.Chemscore.DG>
-19.1175

> <Gold.Chemscore.ZeroCoef>
-5.4800

> <Gold.Chemscore.Hbond>
2.9261

> <Gold.Chemscore.Metal>
0.0000

> <Gold.Chemscore.Lipo>
69.3949

> <Gold.Chemscore.Internal_Hbond>
0.0000

> <Gold.Chemscore.DEClash>
0.4793

> <Gold.Chemscore.DEInternal>
2.1096

> <Gold.Chemscore.Rot>
1.6621

> <Gold.Chemscore.Internal.Correction>
   9.000000E+99

> <Gold.Chemscore.Hbonds>
donor molecule, donor type, donor heavy atom, donor atom, acceptor molecule, acceptor atom, score
      L1  H     2    41       P1 10175  0.97
      L1  H     6    28       P1 10175  0.43
      L1  H     9    29       P1 10175  0.49
      P1  H 11000 11005       L1    12  0.10

> <Gold.Chemscore.Hbond.Weighted>
-9.7732

> <Gold.Chemscore.Metal.Weighted>
-0.0000

> <Gold.Chemscore.Lipo.Weighted>
-8.1192

> <Gold.Chemscore.Internal_Hbond.Weighted>
0.0000

> <Gold.Chemscore.DEClash.Weighted>
0.4793

> <Gold.Chemscore.DEInternal.Weighted>
2.1096

> <Gold.Chemscore.Rot.Weighted>
4.2549

> <Gold.Chemscore.Internal.Correction.Weighted>
   9.000000E+99

> <Gold.Protein.RotatedTorsions>
[ 6907 6896 6895 6894 ] final   -5.08 input  -60.11 | X-H torsion
[ 7974 7965 7964 7962 ] final  162.49 input  175.53 | X-H torsion
[ 8008 7997 7996 7995 ] final -108.87 input   59.86 | X-H torsion
[ 10167 10162 10161 10158 ] final -121.29 input  -65.29 | X-H torsion
[ 10718 10713 10712 10709 ] final -113.82 input   66.30 | X-H torsion
[ 10763 10752 10751 10750 ] final   55.64 input  -60.55 | X-H torsion
[ 11005 11000 10999 10996 ] final   64.64 input  -57.11 | X-H torsion

> <Gold.Protein.ActiveResidues>
 VAL166  LYS551  ARG553  GLY616  TRP617  ASP618  TYR619  PRO620  LYS621  CYS622 
 ASP623  PHE694  ASN695  SER759  ASP760  ASP761  ALA762  ILE779  LEU786  VAL792 
 PHE793  MET794  SER795  GLU796  ALA797  LYS798  CYS799  TRP800  GLU811  SER814 

> <Gold.Protein.RotatedAtoms>
  151.4874  135.1055  159.9793 H   0  0  0  0  0  0  0  0  0  0  0  0  # atno 6907 bound_to 6896
  152.4755  133.8124  159.7021 H   0  0  0  0  0  0  0  0  0  0  0  0  # atno 6908 bound_to 6896
  150.8790  133.7337  159.2964 H   0  0  0  0  0  0  0  0  0  0  0  0  # atno 6909 bound_to 6896
  144.7634  139.8048  143.6324 H   0  0  0  0  0  0  0  0  0  0  0  0  # atno 7974 bound_to 7965
  154.9508  140.0401  157.2143 H   0  0  0  0  0  0  0  0  0  0  0  0  # atno 8008 bound_to 7997
  154.7980  140.2847  155.5920 H   0  0  0  0  0  0  0  0  0  0  0  0  # atno 8009 bound_to 7997
  156.2958  140.2560  156.2842 H   0  0  0  0  0  0  0  0  0  0  0  0  # atno 8010 bound_to 7997
  140.0266  143.5290  152.2196 H   0  0  0  0  0  0  0  0  0  0  0  0  # atno 10167 bound_to 10162
  156.0791  130.5994  150.8694 H   0  0  0  0  0  0  0  0  0  0  0  0  # atno 10718 bound_to 10713
  152.9820  135.5703  154.5100 H   0  0  0  0  0  0  0  0  0  0  0  0  # atno 10763 bound_to 10752
  154.4606  135.2781  155.1718 H   0  0  0  0  0  0  0  0  0  0  0  0  # atno 10764 bound_to 10752
  154.3307  135.6250  153.5603 H   0  0  0  0  0  0  0  0  0  0  0  0  # atno 10765 bound_to 10752
  139.9946  134.6538  156.0033 H   0  0  0  0  0  0  0  0  0  0  0  0  # atno 11005 bound_to 11000
  146.1719  139.4873  142.9922 LP  0  0  0  0  0  0  0  0  0  0  0  0  # atno 17320 bound_to 7965
  145.6547  141.0255  143.1741 LP  0  0  0  0  0  0  0  0  0  0  0  0  # atno 17321 bound_to 7965
  139.6104  144.7607  151.2966 LP  0  0  0  0  0  0  0  0  0  0  0  0  # atno 17342 bound_to 10162
  140.7320  143.6836  150.7980 LP  0  0  0  0  0  0  0  0  0  0  0  0  # atno 17343 bound_to 10162
  157.5900  131.0944  150.9134 LP  0  0  0  0  0  0  0  0  0  0  0  0  # atno 17370 bound_to 10713
  156.9312  130.5350  149.5279 LP  0  0  0  0  0  0  0  0  0  0  0  0  # atno 17371 bound_to 10713
  141.1594  133.6540  156.4267 LP  0  0  0  0  0  0  0  0  0  0  0  0  # atno 17394 bound_to 11000
  140.4843  134.6635  157.5184 LP  0  0  0  0  0  0  0  0  0  0  0  0  # atno 17395 bound_to 11000

$$$$
