AV-unprocessed.smi:1320|AV-procd|sdf|5460|dock3
  -GOLD-   22720 5 33D 1   1.00000     0.00000
 Structure written by MMmdl.
 36 37  0  0  0  0  0  0  0  0  1 V2000
  151.3654  141.0630  156.6751 O   0  0  0  0  0  0  0  0  0  0  0  0
  150.7307  142.0796  156.4004 C   0  0  0  0  0  0  0  0  0  0  0  0
  149.7233  142.1098  155.5103 N   0  0  0  0  0  0  0  0  0  0  0  0
  149.2643  140.9792  154.7072 C   0  0  0  0  0  0  0  0  0  0  0  0
  148.0438  141.3301  153.8331 C   0  0  0  0  0  0  0  0  0  0  0  0
  146.9920  142.1631  154.5474 C   0  0  0  0  0  0  0  0  0  0  0  0
  146.0530  142.9156  153.8107 C   0  0  0  0  0  0  0  0  0  0  0  0
  145.1193  143.6992  154.5160 C   0  0  0  0  0  0  0  0  0  0  0  0
  145.1604  143.7006  155.9236 C   0  0  0  0  0  0  0  0  0  0  0  0
  146.1374  142.9145  156.5661 C   0  0  0  0  0  0  0  0  0  0  0  0
  147.0365  142.1590  155.8997 N   0  0  0  0  0  0  0  0  0  0  0  0
  151.0033  143.2624  156.9796 N   0  0  0  0  0  0  0  0  0  0  0  0
  152.0297  143.5625  157.9805 C   0  0  0  0  0  0  0  0  0  0  0  0
  151.8332  142.6939  159.2380 C   0  0  0  0  0  0  0  0  0  0  0  0
  151.9320  143.6461  160.4307 C   0  0  0  0  0  0  0  0  0  0  0  0
  151.4219  144.9781  159.8917 C   0  0  0  0  0  0  0  0  0  0  0  0
  151.9485  145.0276  158.4568 C   0  0  0  0  0  0  0  0  0  0  0  0
  149.2603  142.9936  155.3549 H   0  0  0  0  0  0  0  0  0  0  0  0
  150.0714  140.5990  154.0789 H   0  0  0  0  0  0  0  0  0  0  0  0
  149.0036  140.1668  155.3857 H   0  0  0  0  0  0  0  0  0  0  0  0
  148.3752  141.8692  152.9449 H   0  0  0  0  0  0  0  0  0  0  0  0
  147.5804  140.4119  153.4692 H   0  0  0  0  0  0  0  0  0  0  0  0
  146.0537  142.9011  152.7306 H   0  0  0  0  0  0  0  0  0  0  0  0
  144.3869  144.2909  153.9869 H   0  0  0  0  0  0  0  0  0  0  0  0
  144.4614  144.2909  156.4973 H   0  0  0  0  0  0  0  0  0  0  0  0
  146.1995  142.8924  157.6440 H   0  0  0  0  0  0  0  0  0  0  0  0
  150.4112  144.0367  156.7159 H   0  0  0  0  0  0  0  0  0  0  0  0
  153.0212  143.3651  157.5689 H   0  0  0  0  0  0  0  0  0  0  0  0
  150.8445  142.2316  159.2365 H   0  0  0  0  0  0  0  0  0  0  0  0
  152.5639  141.8868  159.2996 H   0  0  0  0  0  0  0  0  0  0  0  0
  151.3666  143.2969  161.2952 H   0  0  0  0  0  0  0  0  0  0  0  0
  152.9749  143.7489  160.7339 H   0  0  0  0  0  0  0  0  0  0  0  0
  150.3311  144.9771  159.8836 H   0  0  0  0  0  0  0  0  0  0  0  0
  151.7509  145.8281  160.4901 H   0  0  0  0  0  0  0  0  0  0  0  0
  152.9499  145.4601  158.4558 H   0  0  0  0  0  0  0  0  0  0  0  0
  151.3281  145.6595  157.8194 H   0  0  0  0  0  0  0  0  0  0  0  0
  1  2  2  0  0  0  0
  2  3  1  0  0  0  0
  2 12  1  0  0  0  0
  3  4  1  0  0  0  0
  3 18  1  0  0  0  0
  4  5  1  0  0  0  0
  4 19  1  0  0  0  0
  4 20  1  0  0  0  0
  5  6  1  0  0  0  0
  5 21  1  0  0  0  0
  5 22  1  0  0  0  0
  6 11  1  0  0  0  0
  6  7  2  0  0  0  0
  7  8  1  0  0  0  0
  7 23  1  0  0  0  0
  8  9  2  0  0  0  0
  8 24  1  0  0  0  0
  9 10  1  0  0  0  0
  9 25  1  0  0  0  0
 10 11  2  0  0  0  0
 10 26  1  0  0  0  0
 12 13  1  0  0  0  0
 12 27  1  0  0  0  0
 13 17  1  0  0  0  0
 13 14  1  0  0  0  0
 13 28  1  0  0  0  0
 14 15  1  0  0  0  0
 14 29  1  0  0  0  0
 14 30  1  0  0  0  0
 15 16  1  0  0  0  0
 15 31  1  0  0  0  0
 15 32  1  0  0  0  0
 16 17  1  0  0  0  0
 16 33  1  0  0  0  0
 16 34  1  0  0  0  0
 17 35  1  0  0  0  0
 17 36  1  0  0  0  0
M  END
> <s_m_source_file>
AV-unprocessed.smi

> <i_m_source_file_index>
1320

> <i_lp_mmshare_version>
43012

> <i_f3d_flags>
0

> <s_epik_input>
W0NIMl0xW0NIMl1bQ0gyXVtDSDJdW0NIXTFbTkhdQyg9TylbTkhdW0NIMl1bQ0gyXWMyW2NIXVtjSF1bY0hdW2NIXW4y

> <s_epik_cmdline>
J2VwaWtfcHl0aG9uJywgJy1waCcsICc3LjAnLCAnLXRuJywgJzgnLCAnLW1hJywgJzIwMCcsICctbWV0YWxfYmluZGluZycsICctaW1hZScsICc8aW5maWxlLm1hZT4nLCAnLW9tYWUnLCAnPG91dGZpbGUubWFlPic=

> <r_epik_Ionization_Penalty>
0.0441051

> <r_epik_Ionization_Penalty_Charging>
0

> <r_epik_Ionization_Penalty_Neutral>
0.0441051

> <r_epik_State_Penalty>
0.0373009

> <r_epik_Charging_Adjusted_Penalty>
0.0373009

> <i_epik_Tot_Q>
0

> <i_epik_Tot_abs_Q>
0

> <r_epik_Metal_State_Penalty>
0.0347078

> <b_epik_Metal_Only>
0

> <s_lp_Force_Field>
OPLS_2005

> <r_lp_Energy>
26.6462

> <b_lp_Chiralities_Consistent>
1

> <s_lp_Variant>
AV-unprocessed.smi:1320-1

> <Gold.Version>
5.8.1

> <Gold.Id.Protein>
6NUR|6NUR_protein|mol2

> <Gold.PLP.Fitness>
47.2770

> <Gold.PLP.PLP>
-41.9827

> <Gold.PLP.part.hbond>
-2.0000

> <Gold.PLP.part.metal>
0.0000

> <Gold.PLP.part.buried>
-7.3775

> <Gold.PLP.part.nonpolar>
-33.6039

> <Gold.PLP.part.repulsive>
0.3651

> <Gold.PLP.ligand.clash>
0.0000

> <Gold.PLP.ligand.torsion>
0.3600

> <Gold.PLP.Chemscore.Hbond>
2.0000

> <Gold.PLP.Chemscore.CHOScore>
0.0000

> <Gold.PLP.Chemscore.Metal>
0.0000

> <Gold.Chemscore.Hbonds>
donor molecule, donor type, donor heavy atom, donor atom, acceptor molecule, acceptor atom, score
      L1  H     3    18       P1  8028  1.00
      L1  H    12    27       P1  8028  1.00

> <Gold.PLP.Chemscore.Internal.Correction>
0.0144

> <Gold.Rescore>
     Score         DG    S(hbond)    S(metal)    S(lipo)     H(rot)  DE(clash)    DE(int)     intcor
     17.08     -19.11       1.92        0.00      94.67       1.51       0.03       2.00       ----

> <Gold.Chemscore.Fitness>
17.0781

> <Gold.Chemscore.DG>
-19.1058

> <Gold.Chemscore.ZeroCoef>
-5.4800

> <Gold.Chemscore.Hbond>
1.9176

> <Gold.Chemscore.Metal>
0.0000

> <Gold.Chemscore.Lipo>
94.6694

> <Gold.Chemscore.Internal_Hbond>
0.0000

> <Gold.Chemscore.DEClash>
0.0291

> <Gold.Chemscore.DEInternal>
1.9987

> <Gold.Chemscore.Rot>
1.5060

> <Gold.Chemscore.Internal.Correction>
   9.000000E+99

> <Gold.Chemscore.Hbonds>
donor molecule, donor type, donor heavy atom, donor atom, acceptor molecule, acceptor atom, score
      L1  H     3    18       P1  8028  0.99
      L1  H    12    27       P1  8028  0.93

> <Gold.Chemscore.Hbond.Weighted>
-6.4048

> <Gold.Chemscore.Metal.Weighted>
-0.0000

> <Gold.Chemscore.Lipo.Weighted>
-11.0763

> <Gold.Chemscore.Internal_Hbond.Weighted>
0.0000

> <Gold.Chemscore.DEClash.Weighted>
0.0291

> <Gold.Chemscore.DEInternal.Weighted>
1.9987

> <Gold.Chemscore.Rot.Weighted>
3.8553

> <Gold.Chemscore.Internal.Correction.Weighted>
   9.000000E+99

> <Gold.Protein.RotatedTorsions>
[ 6907 6896 6895 6894 ] final -169.90 input  -60.11 | X-H torsion
[ 7974 7965 7964 7962 ] final   13.01 input  175.53 | X-H torsion
[ 8008 7997 7996 7995 ] final   57.75 input   59.86 | X-H torsion
[ 10167 10162 10161 10158 ] final -121.79 input  -65.29 | X-H torsion
[ 10718 10713 10712 10709 ] final  121.60 input   66.30 | X-H torsion
[ 10763 10752 10751 10750 ] final -101.09 input  -60.55 | X-H torsion
[ 11005 11000 10999 10996 ] final -168.69 input  -57.11 | X-H torsion

> <Gold.Protein.ActiveResidues>
 VAL166  LYS551  ARG553  GLY616  TRP617  ASP618  TYR619  PRO620  LYS621  CYS622 
 ASP623  PHE694  ASN695  SER759  ASP760  ASP761  ALA762  ILE779  LEU786  VAL792 
 PHE793  MET794  SER795  GLU796  ALA797  LYS798  CYS799  TRP800  GLU811  SER814 

> <Gold.Protein.RotatedAtoms>
  151.4990  133.3508  159.2865 H   0  0  0  0  0  0  0  0  0  0  0  0  # atno 6907 bound_to 6896
  150.8785  134.8174  159.7218 H   0  0  0  0  0  0  0  0  0  0  0  0  # atno 6908 bound_to 6896
  152.4747  134.4885  159.9739 H   0  0  0  0  0  0  0  0  0  0  0  0  # atno 6909 bound_to 6896
  146.2339  139.9252  142.8504 H   0  0  0  0  0  0  0  0  0  0  0  0  # atno 7974 bound_to 7965
  155.5388  140.3484  155.4442 H   0  0  0  0  0  0  0  0  0  0  0  0  # atno 8008 bound_to 7997
  156.0666  140.1353  156.9905 H   0  0  0  0  0  0  0  0  0  0  0  0  # atno 8009 bound_to 7997
  154.4506  140.0974  156.6581 H   0  0  0  0  0  0  0  0  0  0  0  0  # atno 8010 bound_to 7997
  140.0213  143.5341  152.2219 H   0  0  0  0  0  0  0  0  0  0  0  0  # atno 10167 bound_to 10162
  157.5805  131.1075  150.8196 H   0  0  0  0  0  0  0  0  0  0  0  0  # atno 10718 bound_to 10713
  154.7630  135.4911  153.9501 H   0  0  0  0  0  0  0  0  0  0  0  0  # atno 10763 bound_to 10752
  153.1274  135.6745  153.9241 H   0  0  0  0  0  0  0  0  0  0  0  0  # atno 10764 bound_to 10752
  153.8955  135.3116  155.3427 H   0  0  0  0  0  0  0  0  0  0  0  0  # atno 10765 bound_to 10752
  140.5392  134.5539  157.5095 H   0  0  0  0  0  0  0  0  0  0  0  0  # atno 11005 bound_to 11000
  145.2098  140.9891  143.4107 LP  0  0  0  0  0  0  0  0  0  0  0  0  # atno 17320 bound_to 7965
  144.9701  139.3889  143.6313 LP  0  0  0  0  0  0  0  0  0  0  0  0  # atno 17321 bound_to 7965
  139.6138  144.7615  151.2892 LP  0  0  0  0  0  0  0  0  0  0  0  0  # atno 17342 bound_to 10162
  140.7341  143.6775  150.8029 LP  0  0  0  0  0  0  0  0  0  0  0  0  # atno 17343 bound_to 10162
  156.8643  130.5124  149.5301 LP  0  0  0  0  0  0  0  0  0  0  0  0  # atno 17370 bound_to 10713
  156.0851  130.5851  150.9633 LP  0  0  0  0  0  0  0  0  0  0  0  0  # atno 17371 bound_to 10713
  139.9513  134.7612  156.0442 LP  0  0  0  0  0  0  0  0  0  0  0  0  # atno 17394 bound_to 11000
  141.1237  133.6605  156.3281 LP  0  0  0  0  0  0  0  0  0  0  0  0  # atno 17395 bound_to 11000

$$$$
