AV-unprocessed.smi:1724|AV-procd|sdf|6951|dock4
  -GOLD-   22720 8163D 1   1.00000     0.00000
 Structure written by MMmdl.
 37 38  0  0  0  0  0  0  0  0  2 V2000
  147.0670  132.5823  154.1872 O   0  0  0  0  0  0  0  0  0  0  0  0
  147.5889  133.5430  153.6222 C   0  0  0  0  0  0  0  0  0  0  0  0
  146.9104  134.3856  152.8297 N   0  0  0  0  0  0  0  0  0  0  0  0
  145.4900  134.2895  152.5033 C   0  0  0  0  0  0  0  0  0  0  0  0
  145.2062  133.2372  151.4115 C   0  0  2  0  0  0  0  0  0  0  0  0
  146.2008  133.2998  150.2363 C   0  0  0  0  0  0  0  0  0  0  0  0
  145.8022  132.2968  149.1479 C   0  0  0  0  0  0  0  0  0  0  0  0
  144.3353  132.4992  148.7413 C   0  0  0  0  0  0  0  0  0  0  0  0
  143.4997  132.3870  149.8877 O   0  0  0  0  0  0  0  0  0  0  0  0
  143.7684  133.3813  150.8712 C   0  0  0  0  0  0  0  0  0  0  0  0
  148.8803  133.9106  153.7123 N   0  0  0  0  0  0  0  0  0  0  0  0
  149.9414  133.3089  154.4119 C   0  0  0  0  0  0  0  0  0  0  0  0
  150.3629  132.0249  154.2415 C   0  0  0  0  0  0  0  0  0  0  0  0
  151.4801  131.4639  154.9907 C   0  0  0  0  0  0  0  0  0  0  0  0
  151.9115  130.0111  154.8965 C   0  0  0  0  0  0  0  0  0  0  0  0
  151.7999  129.3997  156.0760 F   0  0  0  0  0  0  0  0  0  0  0  0
  151.1704  129.3492  154.0078 F   0  0  0  0  0  0  0  0  0  0  0  0
  153.1846  129.9403  154.5106 F   0  0  0  0  0  0  0  0  0  0  0  0
  152.0293  132.3734  155.8733 C   0  0  0  0  0  0  0  0  0  0  0  0
  151.6911  133.6641  156.0844 N   0  5  0  0  0  0  0  0  0  0  0  0
  150.6450  134.1785  155.3781 C   0  0  0  0  0  0  0  0  0  0  0  0
  150.2796  135.3452  155.5279 O   0  0  0  0  0  0  0  0  0  0  0  0
  147.4191  135.1520  152.4141 H   0  0  0  0  0  0  0  0  0  0  0  0
  144.9673  134.0126  153.4193 H   0  0  0  0  0  0  0  0  0  0  0  0
  145.0869  135.2605  152.2097 H   0  0  0  0  0  0  0  0  0  0  0  0
  145.2882  132.2497  151.8689 H   0  0  0  0  0  0  0  0  0  0  0  0
  146.2171  134.3074  149.8182 H   0  0  0  0  0  0  0  0  0  0  0  0
  147.2151  133.0845  150.5731 H   0  0  0  0  0  0  0  0  0  0  0  0
  146.4534  132.4046  148.2800 H   0  0  0  0  0  0  0  0  0  0  0  0
  145.9399  131.2802  149.5184 H   0  0  0  0  0  0  0  0  0  0  0  0
  144.1921  133.4709  148.2659 H   0  0  0  0  0  0  0  0  0  0  0  0
  144.0400  131.7423  148.0143 H   0  0  0  0  0  0  0  0  0  0  0  0
  143.0492  133.2624  151.6821 H   0  0  0  0  0  0  0  0  0  0  0  0
  143.6062  134.3744  150.4489 H   0  0  0  0  0  0  0  0  0  0  0  0
  149.1381  134.7568  153.2258 H   0  0  0  0  0  0  0  0  0  0  0  0
  149.8907  131.3743  153.5251 H   0  0  0  0  0  0  0  0  0  0  0  0
  152.8635  132.0073  156.5091 H   0  0  0  0  0  0  0  0  0  0  0  0
  1  2  2  0  0  0  0
  2  3  1  0  0  0  0
  2 11  1  0  0  0  0
  3  4  1  0  0  0  0
  3 23  1  0  0  0  0
  4  5  1  0  0  0  0
  4 24  1  0  0  0  0
  4 25  1  0  0  0  0
  5 10  1  0  0  0  0
  5  6  1  0  0  0  0
  5 26  1  0  0  0  0
  6  7  1  0  0  0  0
  6 27  1  0  0  0  0
  6 28  1  0  0  0  0
  7  8  1  0  0  0  0
  7 29  1  0  0  0  0
  7 30  1  0  0  0  0
  8  9  1  0  0  0  0
  8 31  1  0  0  0  0
  8 32  1  0  0  0  0
  9 10  1  0  0  0  0
 10 33  1  0  0  0  0
 10 34  1  0  0  0  0
 11 12  1  0  0  0  0
 11 35  1  0  0  0  0
 12 21  1  0  0  0  0
 12 13  2  0  0  0  0
 13 14  1  0  0  0  0
 13 36  1  0  0  0  0
 14 15  1  0  0  0  0
 14 19  2  0  0  0  0
 15 16  1  0  0  0  0
 15 17  1  0  0  0  0
 15 18  1  0  0  0  0
 19 20  1  0  0  0  0
 19 37  1  0  0  0  0
 20 21  1  0  0  0  0
 21 22  2  0  0  0  0
M  CHG  1  20  -1
M  END
> <s_m_source_file>
AV-unprocessed.smi

> <i_m_source_file_index>
1724

> <i_lp_mmshare_version>
43012

> <i_f3d_flags>
0

> <s_epik_input>
Tz1jMVtuSF1bY0hdYyhDKEYpKEYpRilbY0hdYzFbTkhdQyg9TylbTkhdW0NIMl1bQ0BASF0yW0NIMl1bQ0gyXVtDSDJdT1tDSDJdMg==

> <s_epik_cmdline>
J2VwaWtfcHl0aG9uJywgJy1waCcsICc3LjAnLCAnLXRuJywgJzgnLCAnLW1hJywgJzIwMCcsICctbWV0YWxfYmluZGluZycsICctaW1hZScsICc8aW5maWxlLm1hZT4nLCAnLW9tYWUnLCAnPG91dGZpbGUubWFlPic=

> <r_lp_tautomer_probability>
1

> <r_epik_Ionization_Penalty>
3.16025

> <r_epik_Ionization_Penalty_Charging>
0.171172

> <r_epik_Ionization_Penalty_Neutral>
2.98908

> <r_epik_State_Penalty>
2.98521

> <r_epik_Charging_Adjusted_Penalty>
3.15638

> <i_epik_Tot_Q>
-1

> <i_epik_Tot_abs_Q>
1

> <r_epik_Metal_State_Penalty>
0.452642

> <b_epik_Metal_Only>
1

> <s_lp_Force_Field>
OPLS_2005

> <r_lp_Energy>
24.3751

> <b_lp_Chiralities_Consistent>
1

> <s_lp_Variant>
AV-unprocessed.smi:1724-3

> <Gold.Version>
5.8.1

> <Gold.Id.Protein>
6NUR|6NUR_protein|mol2

> <Gold.PLP.Fitness>
39.0618

> <Gold.PLP.PLP>
-34.7306

> <Gold.PLP.part.hbond>
-2.0000

> <Gold.PLP.part.metal>
0.0000

> <Gold.PLP.part.buried>
-3.3072

> <Gold.PLP.part.nonpolar>
-27.9683

> <Gold.PLP.part.repulsive>
0.3580

> <Gold.PLP.ligand.clash>
0.0000

> <Gold.PLP.ligand.torsion>
0.7861

> <Gold.PLP.Chemscore.Hbond>
1.9500

> <Gold.PLP.Chemscore.CHOScore>
0.0000

> <Gold.PLP.Chemscore.Metal>
0.0000

> <Gold.Chemscore.Hbonds>
donor molecule, donor type, donor heavy atom, donor atom, acceptor molecule, acceptor atom, score
      L1  H     3    23       P1  7948  1.00
      L1  H    11    35       P1  7948  0.65

> <Gold.PLP.Chemscore.Internal.Correction>
0.0534

> <Gold.Rescore>
     Score         DG    S(hbond)    S(metal)    S(lipo)     H(rot)  DE(clash)    DE(int)     intcor
     15.41     -16.26       1.66        0.00      73.63       1.32       0.08       0.78       ----

> <Gold.Chemscore.Fitness>
15.4057

> <Gold.Chemscore.DG>
-16.2645

> <Gold.Chemscore.ZeroCoef>
-5.4800

> <Gold.Chemscore.Hbond>
1.6649

> <Gold.Chemscore.Metal>
0.0000

> <Gold.Chemscore.Lipo>
73.6333

> <Gold.Chemscore.Internal_Hbond>
0.0000

> <Gold.Chemscore.DEClash>
0.0754

> <Gold.Chemscore.DEInternal>
0.7834

> <Gold.Chemscore.Rot>
1.3248

> <Gold.Chemscore.Internal.Correction>
   9.000000E+99

> <Gold.Chemscore.Hbonds>
donor molecule, donor type, donor heavy atom, donor atom, acceptor molecule, acceptor atom, score
      L1  H     3    23       P1  7948  0.98
      L1  H    11    35       P1  7948  0.05

> <Gold.Chemscore.Hbond.Weighted>
-5.5609

> <Gold.Chemscore.Metal.Weighted>
-0.0000

> <Gold.Chemscore.Lipo.Weighted>
-8.6151

> <Gold.Chemscore.Internal_Hbond.Weighted>
0.0000

> <Gold.Chemscore.DEClash.Weighted>
0.0754

> <Gold.Chemscore.DEInternal.Weighted>
0.7834

> <Gold.Chemscore.Rot.Weighted>
3.3915

> <Gold.Chemscore.Internal.Correction.Weighted>
   9.000000E+99

> <Gold.Protein.RotatedTorsions>
[ 6907 6896 6895 6894 ] final   73.76 input  -60.11 | X-H torsion
[ 7974 7965 7964 7962 ] final  -30.24 input  175.53 | X-H torsion
[ 8008 7997 7996 7995 ] final   82.42 input   59.86 | X-H torsion
[ 10167 10162 10161 10158 ] final -174.83 input  -65.29 | X-H torsion
[ 10718 10713 10712 10709 ] final  -28.85 input   66.30 | X-H torsion
[ 10763 10752 10751 10750 ] final   12.10 input  -60.55 | X-H torsion
[ 11005 11000 10999 10996 ] final  124.04 input  -57.11 | X-H torsion

> <Gold.Protein.ActiveResidues>
 VAL166  LYS551  ARG553  GLY616  TRP617  ASP618  TYR619  PRO620  LYS621  CYS622 
 ASP623  PHE694  ASN695  SER759  ASP760  ASP761  ALA762  ILE779  LEU786  VAL792 
 PHE793  MET794  SER795  GLU796  ALA797  LYS798  CYS799  TRP800  GLU811  SER814 

> <Gold.Protein.RotatedAtoms>
  152.4940  134.4373  159.9531 H   0  0  0  0  0  0  0  0  0  0  0  0  # atno 6907 bound_to 6896
  151.4355  133.3652  159.2782 H   0  0  0  0  0  0  0  0  0  0  0  0  # atno 6908 bound_to 6896
  150.9124  134.8564  159.7494 H   0  0  0  0  0  0  0  0  0  0  0  0  # atno 6909 bound_to 6896
  146.1157  140.5515  142.8758 H   0  0  0  0  0  0  0  0  0  0  0  0  # atno 7974 bound_to 7965
  155.9103  140.3428  155.6094 H   0  0  0  0  0  0  0  0  0  0  0  0  # atno 8008 bound_to 7997
  155.7395  140.0806  157.2271 H   0  0  0  0  0  0  0  0  0  0  0  0  # atno 8009 bound_to 7997
  154.4055  140.1573  156.2587 H   0  0  0  0  0  0  0  0  0  0  0  0  # atno 8010 bound_to 7997
  139.5613  144.1863  152.1243 H   0  0  0  0  0  0  0  0  0  0  0  0  # atno 10167 bound_to 10162
  156.4199  130.4424  149.7191 H   0  0  0  0  0  0  0  0  0  0  0  0  # atno 10718 bound_to 10713
  153.1857  135.6835  153.8418 H   0  0  0  0  0  0  0  0  0  0  0  0  # atno 10763 bound_to 10752
  153.7734  135.3192  155.3356 H   0  0  0  0  0  0  0  0  0  0  0  0  # atno 10764 bound_to 10752
  154.8087  135.4731  154.0556 H   0  0  0  0  0  0  0  0  0  0  0  0  # atno 10765 bound_to 10752
  139.9340  134.9640  156.8350 H   0  0  0  0  0  0  0  0  0  0  0  0  # atno 11005 bound_to 11000
  144.7551  140.5287  143.6774 LP  0  0  0  0  0  0  0  0  0  0  0  0  # atno 17320 bound_to 7965
  145.5571  139.1478  143.3362 LP  0  0  0  0  0  0  0  0  0  0  0  0  # atno 17321 bound_to 7965
  140.1377  144.5230  150.6763 LP  0  0  0  0  0  0  0  0  0  0  0  0  # atno 17342 bound_to 10162
  140.6893  143.2367  151.5176 LP  0  0  0  0  0  0  0  0  0  0  0  0  # atno 17343 bound_to 10162
  156.4136  130.7734  151.2748 LP  0  0  0  0  0  0  0  0  0  0  0  0  # atno 17370 bound_to 10713
  157.7508  131.0204  150.3707 LP  0  0  0  0  0  0  0  0  0  0  0  0  # atno 17371 bound_to 10713
  140.6125  134.0069  155.7583 LP  0  0  0  0  0  0  0  0  0  0  0  0  # atno 17394 bound_to 11000
  141.0944  133.9866  157.3184 LP  0  0  0  0  0  0  0  0  0  0  0  0  # atno 17395 bound_to 11000

$$$$
