AV-unprocessed.smi:408|AV-procd|sdf|2503|dock8
  -GOLD-   2262022453D 1   1.00000     0.00000
 Structure written by MMmdl.
 41 42  0  0  0  0  0  0  0  0  1 V2000
  152.1008  145.3210  159.4050 C   0  0  0  0  0  0  0  0  0  0  0  0
  151.7887  143.8159  159.3585 C   0  0  0  0  0  0  0  0  0  0  0  0
  152.8328  143.0280  160.1645 C   0  0  0  0  0  0  0  0  0  0  0  0
  151.6938  143.2758  157.9169 C   0  0  0  0  0  0  0  0  0  0  0  0
  150.6285  142.1801  157.7231 C   0  0  0  0  0  0  0  0  0  0  0  0
  150.9922  140.9526  158.4216 N   0  0  0  0  0  0  0  0  0  0  0  0
  151.1805  139.7588  157.8375 C   0  0  0  0  0  0  0  0  0  0  0  0
  151.0686  139.5791  156.6237 O   0  0  0  0  0  0  0  0  0  0  0  0
  151.5317  138.5950  158.7719 C   0  0  0  0  0  0  0  0  0  0  0  0
  150.4877  137.5157  158.7183 C   0  0  0  0  0  0  0  0  0  0  0  0
  150.0782  136.8149  157.6098 C   0  0  0  0  0  0  0  0  0  0  0  0
  148.8405  135.6486  157.9941 S   0  0  0  0  0  0  0  0  0  0  0  0
  148.9127  136.1773  159.6679 C   0  0  0  0  0  0  0  0  0  0  0  0
  148.0887  135.5988  160.6716 N   0  0  0  0  0  0  0  0  0  0  0  0
  147.8106  136.0140  161.9250 C   0  0  0  0  0  0  0  0  0  0  0  0
  148.2956  137.0621  162.3482 O   0  0  0  0  0  0  0  0  0  0  0  0
  146.8938  135.1910  162.7733 C   0  0  0  0  0  0  0  0  0  0  0  0
  146.4547  133.8463  162.2247 C   0  0  0  0  0  0  0  0  0  0  0  0
  145.4751  134.9884  162.2797 C   0  0  0  0  0  0  0  0  0  0  0  0
  149.8305  137.1237  159.8886 N   0  0  0  0  0  0  0  0  0  0  0  0
  153.0338  145.5486  158.8887 H   0  0  0  0  0  0  0  0  0  0  0  0
  152.1987  145.6686  160.4339 H   0  0  0  0  0  0  0  0  0  0  0  0
  151.3097  145.9108  158.9428 H   0  0  0  0  0  0  0  0  0  0  0  0
  150.8234  143.6594  159.8420 H   0  0  0  0  0  0  0  0  0  0  0  0
  153.8283  143.1313  159.7315 H   0  0  0  0  0  0  0  0  0  0  0  0
  152.5902  141.9654  160.1916 H   0  0  0  0  0  0  0  0  0  0  0  0
  152.8808  143.3780  161.1962 H   0  0  0  0  0  0  0  0  0  0  0  0
  151.5035  144.0995  157.2272 H   0  0  0  0  0  0  0  0  0  0  0  0
  152.6657  142.8680  157.6352 H   0  0  0  0  0  0  0  0  0  0  0  0
  149.6517  142.5289  158.0628 H   0  0  0  0  0  0  0  0  0  0  0  0
  150.5215  141.9350  156.6670 H   0  0  0  0  0  0  0  0  0  0  0  0
  151.0999  141.0137  159.4238 H   0  0  0  0  0  0  0  0  0  0  0  0
  152.5078  138.1876  158.5037 H   0  0  0  0  0  0  0  0  0  0  0  0
  151.6295  138.9850  159.7856 H   0  0  0  0  0  0  0  0  0  0  0  0
  150.4279  136.9152  156.5932 H   0  0  0  0  0  0  0  0  0  0  0  0
  147.6037  134.7607  160.3857 H   0  0  0  0  0  0  0  0  0  0  0  0
  147.0764  135.2183  163.8459 H   0  0  0  0  0  0  0  0  0  0  0  0
  146.8046  133.5406  161.2402 H   0  0  0  0  0  0  0  0  0  0  0  0
  146.3333  133.0365  162.9412 H   0  0  0  0  0  0  0  0  0  0  0  0
  144.6921  134.9620  163.0348 H   0  0  0  0  0  0  0  0  0  0  0  0
  145.1897  135.4508  161.3362 H   0  0  0  0  0  0  0  0  0  0  0  0
  1  2  1  0  0  0  0
  1 21  1  0  0  0  0
  1 22  1  0  0  0  0
  1 23  1  0  0  0  0
  2  3  1  0  0  0  0
  2  4  1  0  0  0  0
  2 24  1  0  0  0  0
  3 25  1  0  0  0  0
  3 26  1  0  0  0  0
  3 27  1  0  0  0  0
  4  5  1  0  0  0  0
  4 28  1  0  0  0  0
  4 29  1  0  0  0  0
  5  6  1  0  0  0  0
  5 30  1  0  0  0  0
  5 31  1  0  0  0  0
  6  7  1  0  0  0  0
  6 32  1  0  0  0  0
  7  8  2  0  0  0  0
  7  9  1  0  0  0  0
  9 10  1  0  0  0  0
  9 33  1  0  0  0  0
  9 34  1  0  0  0  0
 10 20  1  0  0  0  0
 10 11  2  0  0  0  0
 11 12  1  0  0  0  0
 11 35  1  0  0  0  0
 12 13  1  0  0  0  0
 13 14  1  0  0  0  0
 13 20  2  0  0  0  0
 14 15  1  0  0  0  0
 14 36  1  0  0  0  0
 15 16  2  0  0  0  0
 15 17  1  0  0  0  0
 17 19  1  0  0  0  0
 17 18  1  0  0  0  0
 17 37  1  0  0  0  0
 18 19  1  0  0  0  0
 18 38  1  0  0  0  0
 18 39  1  0  0  0  0
 19 40  1  0  0  0  0
 19 41  1  0  0  0  0
M  END
> <s_m_source_file>
AV-unprocessed.smi

> <i_m_source_file_index>
408

> <i_lp_mmshare_version>
43012

> <i_f3d_flags>
0

> <s_epik_input>
W0NIM11bQ0hdKFtDSDNdKVtDSDJdW0NIMl1bTkhdQyg9TylbQ0gyXWMxW2NIXXNjKG4xKVtOSF1DKD1PKVtDSF0yW0NIMl1bQ0gyXTI=

> <s_epik_cmdline>
J2VwaWtfcHl0aG9uJywgJy1waCcsICc3LjAnLCAnLXRuJywgJzgnLCAnLW1hJywgJzIwMCcsICctbWV0YWxfYmluZGluZycsICctaW1hZScsICc8aW5maWxlLm1hZT4nLCAnLW9tYWUnLCAnPG91dGZpbGUubWFlPic=

> <r_lp_tautomer_probability>
1

> <r_epik_Ionization_Penalty>
0.000153743

> <r_epik_Ionization_Penalty_Charging>
0

> <r_epik_Ionization_Penalty_Neutral>
0.000153743

> <r_epik_State_Penalty>
-0

> <r_epik_Charging_Adjusted_Penalty>
0

> <i_epik_Tot_Q>
0

> <i_epik_Tot_abs_Q>
0

> <r_epik_Metal_State_Penalty>
0.0946566

> <b_epik_Metal_Only>
0

> <s_lp_Force_Field>
OPLS_2005

> <r_lp_Energy>
15.0159

> <b_lp_Chiralities_Consistent>
1

> <s_lp_Variant>
AV-unprocessed.smi:408-1

> <Gold.Version>
5.8.1

> <Gold.Id.Protein>
6NUR|6NUR_protein|mol2

> <Gold.PLP.Fitness>
43.8532

> <Gold.PLP.PLP>
-41.8808

> <Gold.PLP.part.hbond>
-2.0616

> <Gold.PLP.part.metal>
0.0000

> <Gold.PLP.part.buried>
-6.9414

> <Gold.PLP.part.nonpolar>
-33.8195

> <Gold.PLP.part.repulsive>
0.2894

> <Gold.PLP.ligand.clash>
0.0000

> <Gold.PLP.ligand.torsion>
0.5673

> <Gold.PLP.Chemscore.Hbond>
1.0000

> <Gold.PLP.Chemscore.CHOScore>
0.0000

> <Gold.PLP.Chemscore.Metal>
0.0000

> <Gold.Chemscore.Hbonds>
donor molecule, donor type, donor heavy atom, donor atom, acceptor molecule, acceptor atom, score
      P1  H  6931  6943       L1    16  0.81

> <Gold.PLP.Chemscore.Internal.Correction>
0.1070

> <Gold.Rescore>
     Score         DG    S(hbond)    S(metal)    S(lipo)     H(rot)  DE(clash)    DE(int)     intcor
     13.91     -15.88       1.71        0.00      83.65       1.99       0.00       1.97       ----

> <Gold.Chemscore.Fitness>
13.9111

> <Gold.Chemscore.DG>
-15.8782

> <Gold.Chemscore.ZeroCoef>
-5.4800

> <Gold.Chemscore.Hbond>
1.7082

> <Gold.Chemscore.Metal>
0.0000

> <Gold.Chemscore.Lipo>
83.6482

> <Gold.Chemscore.Internal_Hbond>
0.0000

> <Gold.Chemscore.DEClash>
0.0000

> <Gold.Chemscore.DEInternal>
1.9671

> <Gold.Chemscore.Rot>
1.9899

> <Gold.Chemscore.Internal.Correction>
   9.000000E+99

> <Gold.Chemscore.Hbonds>
donor molecule, donor type, donor heavy atom, donor atom, acceptor molecule, acceptor atom, score
      P1  H  6931  6943       L1    16  0.77

> <Gold.Chemscore.Hbond.Weighted>
-5.7054

> <Gold.Chemscore.Metal.Weighted>
-0.0000

> <Gold.Chemscore.Lipo.Weighted>
-9.7868

> <Gold.Chemscore.Internal_Hbond.Weighted>
0.0000

> <Gold.Chemscore.DEClash.Weighted>
0.0000

> <Gold.Chemscore.DEInternal.Weighted>
1.9671

> <Gold.Chemscore.Rot.Weighted>
5.0941

> <Gold.Chemscore.Internal.Correction.Weighted>
   9.000000E+99

> <Gold.Protein.RotatedTorsions>
[ 6907 6896 6895 6894 ] final -151.20 input  -60.11 | X-H torsion
[ 7974 7965 7964 7962 ] final -120.11 input  175.53 | X-H torsion
[ 8008 7997 7996 7995 ] final  171.46 input   59.86 | X-H torsion
[ 10167 10162 10161 10158 ] final  122.88 input  -65.29 | X-H torsion
[ 10718 10713 10712 10709 ] final -137.18 input   66.30 | X-H torsion
[ 10763 10752 10751 10750 ] final  -78.84 input  -60.55 | X-H torsion
[ 11005 11000 10999 10996 ] final  -48.16 input  -57.11 | X-H torsion

> <Gold.Protein.ActiveResidues>
 VAL166  LYS551  ARG553  GLY616  TRP617  ASP618  TYR619  PRO620  LYS621  CYS622 
 ASP623  PHE694  ASN695  SER759  ASP760  ASP761  ALA762  ILE779  LEU786  VAL792 
 PHE793  MET794  SER795  GLU796  ALA797  LYS798  CYS799  TRP800  GLU811  SER814 

> <Gold.Protein.RotatedAtoms>
  151.2096  133.4564  159.2597 H   0  0  0  0  0  0  0  0  0  0  0  0  # atno 6907 bound_to 6896
  151.0990  134.9961  159.8449 H   0  0  0  0  0  0  0  0  0  0  0  0  # atno 6908 bound_to 6896
  152.5441  134.2024  159.8770 H   0  0  0  0  0  0  0  0  0  0  0  0  # atno 6909 bound_to 6896
  145.0550  140.8248  143.4186 H   0  0  0  0  0  0  0  0  0  0  0  0  # atno 7974 bound_to 7965
  156.1268  140.1511  156.9124 H   0  0  0  0  0  0  0  0  0  0  0  0  # atno 8008 bound_to 7997
  154.4878  140.0860  156.7566 H   0  0  0  0  0  0  0  0  0  0  0  0  # atno 8009 bound_to 7997
  155.4328  140.3428  155.4284 H   0  0  0  0  0  0  0  0  0  0  0  0  # atno 8010 bound_to 7997
  139.5832  144.6995  151.3475 H   0  0  0  0  0  0  0  0  0  0  0  0  # atno 10167 bound_to 10162
  156.2853  130.7344  151.1354 H   0  0  0  0  0  0  0  0  0  0  0  0  # atno 10718 bound_to 10713
  154.5311  135.5716  153.6759 H   0  0  0  0  0  0  0  0  0  0  0  0  # atno 10763 bound_to 10752
  152.9939  135.6205  154.2628 H   0  0  0  0  0  0  0  0  0  0  0  0  # atno 10764 bound_to 10752
  154.2554  135.2858  155.2779 H   0  0  0  0  0  0  0  0  0  0  0  0  # atno 10765 bound_to 10752
  141.0684  133.6686  156.3401 H   0  0  0  0  0  0  0  0  0  0  0  0  # atno 11005 bound_to 11000
  145.1479  139.2532  143.5456 LP  0  0  0  0  0  0  0  0  0  0  0  0  # atno 17320 bound_to 7965
  146.3521  140.1174  142.8601 LP  0  0  0  0  0  0  0  0  0  0  0  0  # atno 17321 bound_to 7965
  140.7108  143.7396  150.7563 LP  0  0  0  0  0  0  0  0  0  0  0  0  # atno 17342 bound_to 10162
  140.0934  143.4856  152.2466 LP  0  0  0  0  0  0  0  0  0  0  0  0  # atno 17343 bound_to 10162
  157.7327  131.0598  150.5617 LP  0  0  0  0  0  0  0  0  0  0  0  0  # atno 17370 bound_to 10713
  156.5727  130.4284  149.6012 LP  0  0  0  0  0  0  0  0  0  0  0  0  # atno 17371 bound_to 10713
  140.5725  134.5826  157.5461 LP  0  0  0  0  0  0  0  0  0  0  0  0  # atno 17394 bound_to 11000
  139.9499  134.7635  156.0473 LP  0  0  0  0  0  0  0  0  0  0  0  0  # atno 17395 bound_to 11000

$$$$
