AV-unprocessed.smi:1406|AV-procd|sdf|5715|dock4
  -GOLD-   22720 5343D 1   1.00000     0.00000
 Structure written by MMmdl.
 41 43  0  0  0  0  0  0  0  0  2 V2000
  150.1959  141.3487  155.9172 C   0  0  0  0  0  0  0  0  0  0  0  0
  149.9531  140.4347  154.6991 C   0  0  2  0  0  0  0  0  0  0  0  0
  148.4836  140.0082  154.5489 C   0  0  0  0  0  0  0  0  0  0  0  0
  147.7245  139.9983  155.5185 O   0  0  0  0  0  0  0  0  0  0  0  0
  148.1043  139.6221  153.3197 N   0  0  0  0  0  0  0  0  0  0  0  0
  146.8051  139.0497  152.9757 C   0  0  1  0  0  0  0  0  0  0  0  0
  146.6169  138.8572  151.4584 C   0  0  0  0  0  0  0  0  0  0  0  0
  145.9376  137.4906  151.3214 C   0  0  0  0  0  0  0  0  0  0  0  0
  146.4992  136.7306  152.4439 N   0  3  2  0  0  0  0  0  0  0  0  0
  145.8951  135.4273  152.7879 C   0  0  0  0  0  0  0  0  0  0  0  0
  146.7717  134.7523  153.8645 C   0  0  0  0  0  0  0  0  0  0  0  0
  147.0271  135.6773  155.0760 C   0  0  0  0  0  0  0  0  0  0  0  0
  147.5348  137.0680  154.6391 C   0  0  0  0  0  0  0  0  0  0  0  0
  146.5656  137.6502  153.5927 C   0  0  1  0  0  0  0  0  0  0  0  0
  150.8128  139.2567  154.7237 N   0  0  0  0  0  0  0  0  0  0  0  0
  150.8642  138.2138  153.8920 C   0  0  0  0  0  0  0  0  0  0  0  0
  151.7317  137.2790  154.2531 N   0  0  0  0  0  0  0  0  0  0  0  0
  152.2161  137.8468  155.3974 C   0  0  0  0  0  0  0  0  0  0  0  0
  151.6906  139.0250  155.7317 N   0  0  0  0  0  0  0  0  0  0  0  0
  149.5915  142.2544  155.8566 H   0  0  0  0  0  0  0  0  0  0  0  0
  151.2404  141.6575  155.9679 H   0  0  0  0  0  0  0  0  0  0  0  0
  149.9535  140.8513  156.8571 H   0  0  0  0  0  0  0  0  0  0  0  0
  150.2134  141.0057  153.8064 H   0  0  0  0  0  0  0  0  0  0  0  0
  148.7890  139.6740  152.5794 H   0  0  0  0  0  0  0  0  0  0  0  0
  146.0176  139.7194  153.3278 H   0  0  0  0  0  0  0  0  0  0  0  0
  146.0349  139.6587  151.0020 H   0  0  0  0  0  0  0  0  0  0  0  0
  147.5853  138.8280  150.9563 H   0  0  0  0  0  0  0  0  0  0  0  0
  144.8573  137.5842  151.4427 H   0  0  0  0  0  0  0  0  0  0  0  0
  146.1399  137.0130  150.3625 H   0  0  0  0  0  0  0  0  0  0  0  0
  144.8748  135.5686  153.1473 H   0  0  0  0  0  0  0  0  0  0  0  0
  145.8419  134.7991  151.8982 H   0  0  0  0  0  0  0  0  0  0  0  0
  146.3080  133.8224  154.1952 H   0  0  0  0  0  0  0  0  0  0  0  0
  147.7297  134.4759  153.4224 H   0  0  0  0  0  0  0  0  0  0  0  0
  146.1001  135.7942  155.6389 H   0  0  0  0  0  0  0  0  0  0  0  0
  147.7426  135.2150  155.7567 H   0  0  0  0  0  0  0  0  0  0  0  0
  147.6016  137.7229  155.5082 H   0  0  0  0  0  0  0  0  0  0  0  0
  148.5406  136.9855  154.2246 H   0  0  0  0  0  0  0  0  0  0  0  0
  145.5713  137.6826  154.0432 H   0  0  0  0  0  0  0  0  0  0  0  0
  150.2460  138.1312  153.0100 H   0  0  0  0  0  0  0  0  0  0  0  0
  152.9711  137.3734  156.0075 H   0  0  0  0  0  0  0  0  0  0  0  0
  147.4569  136.5403  152.1853 H   0  0  0  0  0  0  0  0  0  0  0  0
  1  2  1  0  0  0  0
  1 20  1  0  0  0  0
  1 21  1  0  0  0  0
  1 22  1  0  0  0  0
  2  3  1  0  0  0  0
  2 15  1  0  0  0  0
  2 23  1  0  0  0  0
  3  4  2  0  0  0  0
  3  5  1  0  0  0  0
  5  6  1  0  0  0  0
  5 24  1  0  0  0  0
  6 14  1  0  0  0  0
  6  7  1  0  0  0  0
  6 25  1  0  0  0  0
  7  8  1  0  0  0  0
  7 26  1  0  0  0  0
  7 27  1  0  0  0  0
  8  9  1  0  0  0  0
  8 28  1  0  0  0  0
  8 29  1  0  0  0  0
  9 14  1  0  0  0  0
  9 10  1  0  0  0  0
  9 41  1  0  0  0  0
 10 11  1  0  0  0  0
 10 30  1  0  0  0  0
 10 31  1  0  0  0  0
 11 12  1  0  0  0  0
 11 32  1  0  0  0  0
 11 33  1  0  0  0  0
 12 13  1  0  0  0  0
 12 34  1  0  0  0  0
 12 35  1  0  0  0  0
 13 14  1  0  0  0  0
 13 36  1  0  0  0  0
 13 37  1  0  0  0  0
 14 38  1  0  0  0  0
 15 19  1  0  0  0  0
 15 16  1  0  0  0  0
 16 17  2  0  0  0  0
 16 39  1  0  0  0  0
 17 18  1  0  0  0  0
 18 19  2  0  0  0  0
 18 40  1  0  0  0  0
M  CHG  1   9   1
M  END
> <s_m_source_file>
AV-unprocessed.smi

> <i_m_source_file_index>
1406

> <i_lp_mmshare_version>
43012

> <i_f3d_flags>
0

> <s_epik_input>
bjFbY0hdbltjSF1uMVtDQEhdKFtDSDNdKUMoPU8pW05IXVtDQEhdKFtDSDJdW0NIMl0yKVtDQEBIXShOMjMpW0NIMl1bQ0gyXVtDSDJdW0NIMl0z

> <s_epik_cmdline>
J2VwaWtfcHl0aG9uJywgJy1waCcsICc3LjAnLCAnLXRuJywgJzgnLCAnLW1hJywgJzIwMCcsICctbWV0YWxfYmluZGluZycsICctaW1hZScsICc8aW5maWxlLm1hZT4nLCAnLW9tYWUnLCAnPG91dGZpbGUubWFlPic=

> <r_lp_tautomer_probability>
1

> <r_epik_Ionization_Penalty>
0.00197066

> <r_epik_Ionization_Penalty_Charging>
0.00196223

> <r_epik_Ionization_Penalty_Neutral>
8.43107e-06

> <r_epik_State_Penalty>
0.00133866

> <r_epik_Charging_Adjusted_Penalty>
0.00330089

> <i_epik_Tot_Q>
1

> <i_epik_Tot_abs_Q>
1

> <r_epik_Metal_State_Penalty>
-0

> <b_epik_Metal_Only>
0

> <s_lp_Force_Field>
OPLS_2005

> <r_lp_Energy>
45.8752

> <b_lp_Chiralities_Consistent>
1

> <s_lp_Variant>
AV-unprocessed.smi:1406-7

> <Gold.Version>
5.8.1

> <Gold.Id.Protein>
6NUR|6NUR_protein|mol2

> <Gold.PLP.Fitness>
42.6253

> <Gold.PLP.PLP>
-27.6062

> <Gold.PLP.part.hbond>
-3.0000

> <Gold.PLP.part.metal>
0.0000

> <Gold.PLP.part.buried>
2.3981

> <Gold.PLP.part.nonpolar>
-28.8239

> <Gold.PLP.part.repulsive>
0.3232

> <Gold.PLP.ligand.clash>
0.0000

> <Gold.PLP.ligand.torsion>
0.6636

> <Gold.PLP.Chemscore.Hbond>
3.9750

> <Gold.PLP.Chemscore.CHOScore>
1.4406

> <Gold.PLP.Chemscore.Metal>
0.0000

> <Gold.Chemscore.Hbonds>
donor molecule, donor type, donor heavy atom, donor atom, acceptor molecule, acceptor atom, score
      L1  H     5    24       P1  7957  1.00
      L1  H     9    41       P1  7948  2.00
      P1  H 10752 10764       L1    17  0.85
      L1  C    16    39       P1  7948  0.89
      L1  C    16    39       P1  7949  0.06
      L1  C    16    39       P1  7957  0.52

> <Gold.PLP.Chemscore.Internal.Correction>
0.0996

> <Gold.Rescore>
     Score         DG    S(hbond)    S(metal)    S(lipo)     H(rot)  DE(clash)    DE(int)     intcor
     14.54     -15.66       2.83        0.00      47.63       1.89       0.29       0.83       ----

> <Gold.Chemscore.Fitness>
14.5406

> <Gold.Chemscore.DG>
-15.6593

> <Gold.Chemscore.ZeroCoef>
-5.4800

> <Gold.Chemscore.Hbond>
2.8253

> <Gold.Chemscore.Metal>
0.0000

> <Gold.Chemscore.Lipo>
47.6256

> <Gold.Chemscore.Internal_Hbond>
0.0000

> <Gold.Chemscore.DEClash>
0.2906

> <Gold.Chemscore.DEInternal>
0.8282

> <Gold.Chemscore.Rot>
1.8865

> <Gold.Chemscore.Internal.Correction>
   9.000000E+99

> <Gold.Chemscore.Hbonds>
donor molecule, donor type, donor heavy atom, donor atom, acceptor molecule, acceptor atom, score
      L1  H     5    24       P1  7957  1.00
      L1  H     9    41       P1  7948  0.95
      P1  H 10752 10764       L1    17  0.13

> <Gold.Chemscore.Hbond.Weighted>
-9.4367

> <Gold.Chemscore.Metal.Weighted>
-0.0000

> <Gold.Chemscore.Lipo.Weighted>
-5.5722

> <Gold.Chemscore.Internal_Hbond.Weighted>
0.0000

> <Gold.Chemscore.DEClash.Weighted>
0.2906

> <Gold.Chemscore.DEInternal.Weighted>
0.8282

> <Gold.Chemscore.Rot.Weighted>
4.8295

> <Gold.Chemscore.Internal.Correction.Weighted>
   9.000000E+99

> <Gold.Protein.RotatedTorsions>
[ 6907 6896 6895 6894 ] final  175.19 input  -60.11 | X-H torsion
[ 7974 7965 7964 7962 ] final -100.63 input  175.53 | X-H torsion
[ 8008 7997 7996 7995 ] final -111.65 input   59.86 | X-H torsion
[ 10167 10162 10161 10158 ] final  111.58 input  -65.29 | X-H torsion
[ 10718 10713 10712 10709 ] final   43.22 input   66.30 | X-H torsion
[ 10763 10752 10751 10750 ] final  -81.54 input  -60.55 | X-H torsion
[ 11005 11000 10999 10996 ] final  -54.56 input  -57.11 | X-H torsion

> <Gold.Protein.ActiveResidues>
 VAL166  LYS551  ARG553  GLY616  TRP617  ASP618  TYR619  PRO620  LYS621  CYS622 
 ASP623  PHE694  ASN695  SER759  ASP760  ASP761  ALA762  ILE779  LEU786  VAL792 
 PHE793  MET794  SER795  GLU796  ALA797  LYS798  CYS799  TRP800  GLU811  SER814 

> <Gold.Protein.RotatedAtoms>
  151.7402  133.3321  159.3363 H   0  0  0  0  0  0  0  0  0  0  0  0  # atno 6907 bound_to 6896
  150.7576  134.6285  159.6183 H   0  0  0  0  0  0  0  0  0  0  0  0  # atno 6908 bound_to 6896
  152.3535  134.6974  160.0281 H   0  0  0  0  0  0  0  0  0  0  0  0  # atno 6909 bound_to 6896
  145.2921  140.9355  143.2872 H   0  0  0  0  0  0  0  0  0  0  0  0  # atno 7974 bound_to 7965
  154.9931  140.0395  157.2328 H   0  0  0  0  0  0  0  0  0  0  0  0  # atno 8008 bound_to 7997
  154.7611  140.2784  155.6191 H   0  0  0  0  0  0  0  0  0  0  0  0  # atno 8009 bound_to 7997
  156.2904  140.2628  156.2389 H   0  0  0  0  0  0  0  0  0  0  0  0  # atno 8010 bound_to 7997
  139.6600  144.7129  151.1883 H   0  0  0  0  0  0  0  0  0  0  0  0  # atno 10167 bound_to 10162
  157.4135  130.7928  149.7451 H   0  0  0  0  0  0  0  0  0  0  0  0  # atno 10718 bound_to 10713
  154.5648  135.5623  153.7040 H   0  0  0  0  0  0  0  0  0  0  0  0  # atno 10763 bound_to 10752
  153.0029  135.6282  154.2195 H   0  0  0  0  0  0  0  0  0  0  0  0  # atno 10764 bound_to 10752
  154.2134  135.2872  155.2930 H   0  0  0  0  0  0  0  0  0  0  0  0  # atno 10765 bound_to 10752
  141.1032  133.6616  156.4339 H   0  0  0  0  0  0  0  0  0  0  0  0  # atno 11005 bound_to 11000
  144.9164  139.4465  143.6562 LP  0  0  0  0  0  0  0  0  0  0  0  0  # atno 17320 bound_to 7965
  146.3181  139.8001  142.8967 LP  0  0  0  0  0  0  0  0  0  0  0  0  # atno 17321 bound_to 7965
  140.7576  143.6009  150.8700 LP  0  0  0  0  0  0  0  0  0  0  0  0  # atno 17342 bound_to 10162
  139.9666  143.6104  152.2986 LP  0  0  0  0  0  0  0  0  0  0  0  0  # atno 17343 bound_to 10162
  155.9858  130.3980  150.3245 LP  0  0  0  0  0  0  0  0  0  0  0  0  # atno 17370 bound_to 10713
  157.1385  131.0290  151.2938 LP  0  0  0  0  0  0  0  0  0  0  0  0  # atno 17371 bound_to 10713
  140.4970  134.6522  157.5233 LP  0  0  0  0  0  0  0  0  0  0  0  0  # atno 17394 bound_to 11000
  139.9891  134.7014  155.9721 LP  0  0  0  0  0  0  0  0  0  0  0  0  # atno 17395 bound_to 11000

$$$$
