AV-unprocessed.smi:236|AV-procd|sdf|1812|dock6
  -GOLD-   2262020393D 1   1.00000     0.00000
 Structure written by MMmdl.
 58 62  0  0  0  0  0  0  0  0  1 V2000
  146.4085  129.9798  152.8676 C   0  0  0  0  0  0  0  0  0  0  0  0
  146.1709  131.1255  151.8729 C   0  0  1  0  0  0  0  0  0  0  0  0
  144.7766  131.3651  151.7007 O   0  0  0  0  0  0  0  0  0  0  0  0
  144.5428  132.7496  151.4578 C   0  0  0  0  0  0  0  0  0  0  0  0
  145.9236  133.3894  151.3443 C   0  0  0  0  0  0  0  0  0  0  0  0
  146.7804  132.4939  152.2315 C   0  0  2  0  0  0  0  0  0  0  0  0
  148.1233  132.5655  151.7914 O   0  0  0  0  0  0  0  0  0  0  0  0
  146.7036  132.8438  153.7437 C   0  0  0  0  0  0  0  0  0  0  0  0
  147.5860  133.9278  154.1459 N   0  0  0  0  0  0  0  0  0  0  0  0
  148.9080  133.8207  154.5152 C   0  0  0  0  0  0  0  0  0  0  0  0
  149.4877  134.9432  154.8420 N   0  0  0  0  0  0  0  0  0  0  0  0
  148.4961  135.9008  154.6650 C   0  0  0  0  0  0  0  0  0  0  0  0
  148.4319  137.3132  154.8348 C   0  0  0  0  0  0  0  0  0  0  0  0
  149.4475  138.0876  155.2705 N   0  0  0  0  0  0  0  0  0  0  0  0
  150.6412  137.9796  154.4435 C   0  0  0  0  0  0  0  0  0  0  0  0
  151.7994  138.7514  155.0956 C   0  0  0  0  0  0  0  0  0  0  0  0
  151.3999  140.0990  155.3263 O   0  0  0  0  0  0  0  0  0  0  0  0
  150.2876  140.1941  156.2150 C   0  0  1  0  0  0  0  0  0  0  0  0
  149.9918  141.6803  156.4515 C   0  0  0  0  0  0  0  0  0  0  0  0
  151.0932  142.2697  157.1222 O   0  0  0  0  0  0  0  0  0  0  0  0
  150.7396  143.4514  157.8195 C   0  0  0  0  0  0  0  0  0  0  0  0
  151.9854  144.2778  158.0567 C   0  0  0  0  0  0  0  0  0  0  0  0
  153.1007  143.7675  158.9413 C   0  0  0  0  0  0  0  0  0  0  0  0
  152.2322  144.9068  159.4093 C   0  0  0  0  0  0  0  0  0  0  0  0
  149.0895  139.4681  155.5726 C   0  0  0  0  0  0  0  0  0  0  0  0
  147.2574  137.9340  154.5664 N   0  0  0  0  0  0  0  0  0  0  0  0
  146.2063  137.2226  154.1478 C   0  0  0  0  0  0  0  0  0  0  0  0
  146.1161  135.9064  153.9430 N   0  0  0  0  0  0  0  0  0  0  0  0
  147.2948  135.2787  154.2222 C   0  0  0  0  0  0  0  0  0  0  0  0
  147.4743  129.8132  153.0259 H   0  0  0  0  0  0  0  0  0  0  0  0
  145.9806  129.0504  152.4918 H   0  0  0  0  0  0  0  0  0  0  0  0
  145.9487  130.1814  153.8350 H   0  0  0  0  0  0  0  0  0  0  0  0
  146.5480  130.8178  150.8956 H   0  0  0  0  0  0  0  0  0  0  0  0
  143.9431  132.8997  150.5599 H   0  0  0  0  0  0  0  0  0  0  0  0
  143.9944  133.1652  152.3039 H   0  0  0  0  0  0  0  0  0  0  0  0
  146.2569  133.3215  150.3070 H   0  0  0  0  0  0  0  0  0  0  0  0
  145.9313  134.4448  151.6128 H   0  0  0  0  0  0  0  0  0  0  0  0
  148.2552  131.9111  151.1222 H   0  0  0  0  0  0  0  0  0  0  0  0
  145.6853  133.1218  154.0170 H   0  0  0  0  0  0  0  0  0  0  0  0
  146.9518  131.9715  154.3494 H   0  0  0  0  0  0  0  0  0  0  0  0
  149.4292  132.8748  154.5460 H   0  0  0  0  0  0  0  0  0  0  0  0
  150.9156  136.9317  154.3167 H   0  0  0  0  0  0  0  0  0  0  0  0
  150.4373  138.3836  153.4507 H   0  0  0  0  0  0  0  0  0  0  0  0
  152.0996  138.2833  156.0344 H   0  0  0  0  0  0  0  0  0  0  0  0
  152.6713  138.7445  154.4417 H   0  0  0  0  0  0  0  0  0  0  0  0
  150.5325  139.7209  157.1678 H   0  0  0  0  0  0  0  0  0  0  0  0
  149.7962  142.1845  155.5037 H   0  0  0  0  0  0  0  0  0  0  0  0
  149.1001  141.7877  157.0712 H   0  0  0  0  0  0  0  0  0  0  0  0
  150.0345  144.0399  157.2310 H   0  0  0  0  0  0  0  0  0  0  0  0
  150.2648  143.2114  158.7722 H   0  0  0  0  0  0  0  0  0  0  0  0
  152.2830  144.8798  157.1998 H   0  0  0  0  0  0  0  0  0  0  0  0
  152.9649  142.8014  159.4235 H   0  0  0  0  0  0  0  0  0  0  0  0
  154.1216  144.0009  158.6462 H   0  0  0  0  0  0  0  0  0  0  0  0
  152.6725  145.9016  159.4267 H   0  0  0  0  0  0  0  0  0  0  0  0
  151.5182  144.6990  160.2038 H   0  0  0  0  0  0  0  0  0  0  0  0
  148.7960  139.9882  154.6605 H   0  0  0  0  0  0  0  0  0  0  0  0
  148.2317  139.4864  156.2464 H   0  0  0  0  0  0  0  0  0  0  0  0
  145.3079  137.7890  153.9517 H   0  0  0  0  0  0  0  0  0  0  0  0
  1  2  1  0  0  0  0
  1 30  1  0  0  0  0
  1 31  1  0  0  0  0
  1 32  1  0  0  0  0
  2  6  1  0  0  0  0
  2  3  1  0  0  0  0
  2 33  1  0  0  0  0
  3  4  1  0  0  0  0
  4  5  1  0  0  0  0
  4 34  1  0  0  0  0
  4 35  1  0  0  0  0
  5  6  1  0  0  0  0
  5 36  1  0  0  0  0
  5 37  1  0  0  0  0
  6  7  1  0  0  0  0
  6  8  1  0  0  0  0
  7 38  1  0  0  0  0
  8  9  1  0  0  0  0
  8 39  1  0  0  0  0
  8 40  1  0  0  0  0
  9 29  1  0  0  0  0
  9 10  1  0  0  0  0
 10 11  2  0  0  0  0
 10 41  1  0  0  0  0
 11 12  1  0  0  0  0
 12 29  2  0  0  0  0
 12 13  1  0  0  0  0
 13 14  1  0  0  0  0
 13 26  2  0  0  0  0
 14 25  1  0  0  0  0
 14 15  1  0  0  0  0
 15 16  1  0  0  0  0
 15 42  1  0  0  0  0
 15 43  1  0  0  0  0
 16 17  1  0  0  0  0
 16 44  1  0  0  0  0
 16 45  1  0  0  0  0
 17 18  1  0  0  0  0
 18 19  1  0  0  0  0
 18 25  1  0  0  0  0
 18 46  1  0  0  0  0
 19 20  1  0  0  0  0
 19 47  1  0  0  0  0
 19 48  1  0  0  0  0
 20 21  1  0  0  0  0
 21 22  1  0  0  0  0
 21 49  1  0  0  0  0
 21 50  1  0  0  0  0
 22 24  1  0  0  0  0
 22 23  1  0  0  0  0
 22 51  1  0  0  0  0
 23 24  1  0  0  0  0
 23 52  1  0  0  0  0
 23 53  1  0  0  0  0
 24 54  1  0  0  0  0
 24 55  1  0  0  0  0
 25 56  1  0  0  0  0
 25 57  1  0  0  0  0
 26 27  1  0  0  0  0
 27 28  2  0  0  0  0
 27 58  1  0  0  0  0
 28 29  1  0  0  0  0
M  END
> <s_m_source_file>
AV-unprocessed.smi

> <i_m_source_file_index>
236

> <i_lp_mmshare_version>
43012

> <i_f3d_flags>
0

> <s_epik_input>
W0NIMl0xW0NIMl1PW0NAQEhdKFtDSDNdKVtDQEBdMShbT0hdKVtDSDJdbihbY0hdbjIpYyhjMjMpbltjSF1uYzNONFtDSDJdW0NIMl1PW0NASF0oW0NIMl00KVtDSDJdT1tDSDJdW0NIXTVbQ0gyXVtDSDJdNQ==

> <s_epik_cmdline>
J2VwaWtfcHl0aG9uJywgJy1waCcsICc3LjAnLCAnLXRuJywgJzgnLCAnLW1hJywgJzIwMCcsICctbWV0YWxfYmluZGluZycsICctaW1hZScsICc8aW5maWxlLm1hZT4nLCAnLW9tYWUnLCAnPG91dGZpbGUubWFlPic=

> <r_lp_tautomer_probability>
1

> <r_epik_Ionization_Penalty>
7.21838e-05

> <r_epik_Ionization_Penalty_Charging>
0

> <r_epik_Ionization_Penalty_Neutral>
7.21838e-05

> <r_epik_State_Penalty>
-0

> <r_epik_Charging_Adjusted_Penalty>
0

> <i_epik_Tot_Q>
0

> <i_epik_Tot_abs_Q>
0

> <r_epik_Metal_State_Penalty>
-0

> <b_epik_Metal_Only>
0

> <s_lp_Force_Field>
OPLS_2005

> <r_lp_Energy>
49.6686

> <b_lp_Chiralities_Consistent>
1

> <s_lp_Variant>
AV-unprocessed.smi:236-4

> <Gold.Version>
5.8.1

> <Gold.Id.Protein>
6NUR|6NUR_protein|mol2

> <Gold.PLP.Fitness>
45.1217

> <Gold.PLP.PLP>
-40.8684

> <Gold.PLP.part.hbond>
-1.6706

> <Gold.PLP.part.metal>
0.0000

> <Gold.PLP.part.buried>
-1.4179

> <Gold.PLP.part.nonpolar>
-38.3535

> <Gold.PLP.part.repulsive>
0.7006

> <Gold.PLP.ligand.clash>
0.0000

> <Gold.PLP.ligand.torsion>
1.2798

> <Gold.PLP.Chemscore.Hbond>
2.0000

> <Gold.PLP.Chemscore.CHOScore>
0.0000

> <Gold.PLP.Chemscore.Metal>
0.0000

> <Gold.Chemscore.Hbonds>
donor molecule, donor type, donor heavy atom, donor atom, acceptor molecule, acceptor atom, score
      L1  H     7    38       P1 10747  0.99
      P1  H  7989  7998       L1    17  1.00

> <Gold.PLP.Chemscore.Internal.Correction>
0.8129

> <Gold.Rescore>
     Score         DG    S(hbond)    S(metal)    S(lipo)     H(rot)  DE(clash)    DE(int)     intcor
     14.91     -16.91       1.44        0.00     119.20       2.87       0.68       1.32       ----

> <Gold.Chemscore.Fitness>
14.9120

> <Gold.Chemscore.DG>
-16.9148

> <Gold.Chemscore.ZeroCoef>
-5.4800

> <Gold.Chemscore.Hbond>
1.4445

> <Gold.Chemscore.Metal>
0.0000

> <Gold.Chemscore.Lipo>
119.1952

> <Gold.Chemscore.Internal_Hbond>
0.0000

> <Gold.Chemscore.DEClash>
0.6781

> <Gold.Chemscore.DEInternal>
1.3247

> <Gold.Chemscore.Rot>
2.8655

> <Gold.Chemscore.Internal.Correction>
   9.000000E+99

> <Gold.Chemscore.Hbonds>
donor molecule, donor type, donor heavy atom, donor atom, acceptor molecule, acceptor atom, score
      L1  H     7    38       P1 10747  0.92
      P1  H  7989  7998       L1    17  0.28

> <Gold.Chemscore.Hbond.Weighted>
-4.8248

> <Gold.Chemscore.Metal.Weighted>
-0.0000

> <Gold.Chemscore.Lipo.Weighted>
-13.9458

> <Gold.Chemscore.Internal_Hbond.Weighted>
0.0000

> <Gold.Chemscore.DEClash.Weighted>
0.6781

> <Gold.Chemscore.DEInternal.Weighted>
1.3247

> <Gold.Chemscore.Rot.Weighted>
7.3358

> <Gold.Chemscore.Internal.Correction.Weighted>
   9.000000E+99

> <Gold.Protein.RotatedTorsions>
[ 6907 6896 6895 6894 ] final  -98.55 input  -60.11 | X-H torsion
[ 7974 7965 7964 7962 ] final    3.42 input  175.53 | X-H torsion
[ 8008 7997 7996 7995 ] final  151.89 input   59.86 | X-H torsion
[ 10167 10162 10161 10158 ] final   -7.14 input  -65.29 | X-H torsion
[ 10718 10713 10712 10709 ] final  -99.42 input   66.30 | X-H torsion
[ 10763 10752 10751 10750 ] final -150.34 input  -60.55 | X-H torsion
[ 11005 11000 10999 10996 ] final   73.73 input  -57.11 | X-H torsion

> <Gold.Protein.ActiveResidues>
 VAL166  LYS551  ARG553  GLY616  TRP617  ASP618  TYR619  PRO620  LYS621  CYS622 
 ASP623  PHE694  ASN695  SER759  ASP760  ASP761  ALA762  ILE779  LEU786  VAL792 
 PHE793  MET794  SER795  GLU796  ALA797  LYS798  CYS799  TRP800  GLU811  SER814 

> <Gold.Protein.RotatedAtoms>
  150.7050  134.1177  159.4023 H   0  0  0  0  0  0  0  0  0  0  0  0  # atno 6907 bound_to 6896
  151.9164  135.0315  160.0528 H   0  0  0  0  0  0  0  0  0  0  0  0  # atno 6908 bound_to 6896
  152.2293  133.5010  159.5243 H   0  0  0  0  0  0  0  0  0  0  0  0  # atno 6909 bound_to 6896
  146.2445  140.0688  142.8364 H   0  0  0  0  0  0  0  0  0  0  0  0  # atno 7974 bound_to 7965
  156.2654  140.2035  156.6247 H   0  0  0  0  0  0  0  0  0  0  0  0  # atno 8008 bound_to 7997
  154.6729  140.0548  157.0209 H   0  0  0  0  0  0  0  0  0  0  0  0  # atno 8009 bound_to 7997
  155.1111  140.3215  155.4524 H   0  0  0  0  0  0  0  0  0  0  0  0  # atno 8010 bound_to 7997
  140.7019  143.6114  150.8700 H   0  0  0  0  0  0  0  0  0  0  0  0  # atno 10167 bound_to 10162
  156.0133  130.5281  150.6667 H   0  0  0  0  0  0  0  0  0  0  0  0  # atno 10718 bound_to 10713
  154.8125  135.3287  154.7267 H   0  0  0  0  0  0  0  0  0  0  0  0  # atno 10763 bound_to 10752
  153.7914  135.6911  153.4875 H   0  0  0  0  0  0  0  0  0  0  0  0  # atno 10764 bound_to 10752
  153.1914  135.4549  155.0100 H   0  0  0  0  0  0  0  0  0  0  0  0  # atno 10765 bound_to 10752
  139.9426  134.7372  156.1061 H   0  0  0  0  0  0  0  0  0  0  0  0  # atno 11005 bound_to 11000
  145.0834  140.9236  143.4812 LP  0  0  0  0  0  0  0  0  0  0  0  0  # atno 17320 bound_to 7965
  145.0846  139.2934  143.5766 LP  0  0  0  0  0  0  0  0  0  0  0  0  # atno 17321 bound_to 7965
  139.9837  143.5923  152.2934 LP  0  0  0  0  0  0  0  0  0  0  0  0  # atno 17342 bound_to 10162
  139.6553  144.7662  151.2067 LP  0  0  0  0  0  0  0  0  0  0  0  0  # atno 17343 bound_to 10162
  157.4398  131.0860  151.0955 LP  0  0  0  0  0  0  0  0  0  0  0  0  # atno 17370 bound_to 10713
  157.1502  130.6181  149.5580 LP  0  0  0  0  0  0  0  0  0  0  0  0  # atno 17371 bound_to 10713
  141.1065  133.6658  156.2877 LP  0  0  0  0  0  0  0  0  0  0  0  0  # atno 17394 bound_to 11000
  140.5915  134.5646  157.5500 LP  0  0  0  0  0  0  0  0  0  0  0  0  # atno 17395 bound_to 11000

$$$$
