AV-unprocessed.smi:2528|AV-procd|sdf|9949|dock3
  -GOLD-   2272013593D 1   1.00000     0.00000
 Structure written by MMmdl.
 44 46  0  0  0  0  0  0  0  0  2 V2000
  144.5629  136.8692  151.8238 O   0  0  0  0  0  0  0  0  0  0  0  0
  145.7523  136.6333  151.6095 C   0  0  0  0  0  0  0  0  0  0  0  0
  146.7153  137.5606  151.7143 N   0  0  0  0  0  0  0  0  0  0  0  0
  146.4906  138.9536  152.0850 C   0  0  0  0  0  0  0  0  0  0  0  0
  147.3629  139.3722  153.2906 C   0  0  1  0  0  0  0  0  0  0  0  0
  147.3821  140.8933  153.5324 C   0  0  0  0  0  0  0  0  0  0  0  0
  146.0976  141.3681  154.0973 N   0  3  2  0  0  0  0  0  0  0  0  0
  146.0863  142.8393  154.3007 C   0  0  0  0  0  0  0  0  0  0  0  0
  144.7181  143.3198  154.8081 C   0  0  0  0  0  0  0  0  0  0  0  0
  144.3325  142.5885  156.0996 C   0  0  0  0  0  0  0  0  0  0  0  0
  144.3697  141.0717  155.8719 C   0  0  0  0  0  0  0  0  0  0  0  0
  145.7403  140.6157  155.3307 C   0  0  1  0  0  0  0  0  0  0  0  0
  145.7449  139.1024  155.0425 C   0  0  0  0  0  0  0  0  0  0  0  0
  146.9971  138.7011  154.4967 O   0  0  0  0  0  0  0  0  0  0  0  0
  146.2565  135.4423  151.2413 N   0  0  0  0  0  0  0  0  0  0  0  0
  145.5614  134.2192  151.0427 C   0  0  0  0  0  0  0  0  0  0  0  0
  146.3700  133.1274  150.6540 C   0  0  0  0  0  0  0  0  0  0  0  0
  145.7766  131.8691  150.4346 C   0  0  0  0  0  0  0  0  0  0  0  0
  144.3879  131.7345  150.6102 C   0  0  0  0  0  0  0  0  0  0  0  0
  143.6555  132.8714  150.9978 C   0  0  0  0  0  0  0  0  0  0  0  0
  144.2222  134.0785  151.2087 N   0  0  0  0  0  0  0  0  0  0  0  0
  147.6672  137.2859  151.5193 H   0  0  0  0  0  0  0  0  0  0  0  0
  146.7053  139.5965  151.2295 H   0  0  0  0  0  0  0  0  0  0  0  0
  145.4301  139.0885  152.2942 H   0  0  0  0  0  0  0  0  0  0  0  0
  148.3882  139.0704  153.0736 H   0  0  0  0  0  0  0  0  0  0  0  0
  148.1875  141.1403  154.2261 H   0  0  0  0  0  0  0  0  0  0  0  0
  147.5981  141.4188  152.6012 H   0  0  0  0  0  0  0  0  0  0  0  0
  146.8668  143.1169  155.0112 H   0  0  0  0  0  0  0  0  0  0  0  0
  146.3212  143.3388  153.3600 H   0  0  0  0  0  0  0  0  0  0  0  0
  144.7405  144.3962  154.9809 H   0  0  0  0  0  0  0  0  0  0  0  0
  143.9595  143.1436  154.0442 H   0  0  0  0  0  0  0  0  0  0  0  0
  145.0237  142.8598  156.8987 H   0  0  0  0  0  0  0  0  0  0  0  0
  143.3390  142.8978  156.4261 H   0  0  0  0  0  0  0  0  0  0  0  0
  144.1461  140.5552  156.8060 H   0  0  0  0  0  0  0  0  0  0  0  0
  143.5826  140.7927  155.1697 H   0  0  0  0  0  0  0  0  0  0  0  0
  146.5003  140.8249  156.0859 H   0  0  0  0  0  0  0  0  0  0  0  0
  145.5828  138.5474  155.9668 H   0  0  0  0  0  0  0  0  0  0  0  0
  144.9297  138.8253  154.3740 H   0  0  0  0  0  0  0  0  0  0  0  0
  147.2534  135.4028  151.0905 H   0  0  0  0  0  0  0  0  0  0  0  0
  147.4357  133.2477  150.5240 H   0  0  0  0  0  0  0  0  0  0  0  0
  146.3776  131.0223  150.1377 H   0  0  0  0  0  0  0  0  0  0  0  0
  143.8971  130.7855  150.4520 H   0  0  0  0  0  0  0  0  0  0  0  0
  142.5872  132.8109  151.1434 H   0  0  0  0  0  0  0  0  0  0  0  0
  145.3832  141.1635  153.4133 H   0  0  0  0  0  0  0  0  0  0  0  0
  1  2  2  0  0  0  0
  2  3  1  0  0  0  0
  2 15  1  0  0  0  0
  3  4  1  0  0  0  0
  3 22  1  0  0  0  0
  4  5  1  0  0  0  0
  4 23  1  0  0  0  0
  4 24  1  0  0  0  0
  5 14  1  0  0  0  0
  5  6  1  0  0  0  0
  5 25  1  0  0  0  0
  6  7  1  0  0  0  0
  6 26  1  0  0  0  0
  6 27  1  0  0  0  0
  7 12  1  0  0  0  0
  7  8  1  0  0  0  0
  7 44  1  0  0  0  0
  8  9  1  0  0  0  0
  8 28  1  0  0  0  0
  8 29  1  0  0  0  0
  9 10  1  0  0  0  0
  9 30  1  0  0  0  0
  9 31  1  0  0  0  0
 10 11  1  0  0  0  0
 10 32  1  0  0  0  0
 10 33  1  0  0  0  0
 11 12  1  0  0  0  0
 11 34  1  0  0  0  0
 11 35  1  0  0  0  0
 12 13  1  0  0  0  0
 12 36  1  0  0  0  0
 13 14  1  0  0  0  0
 13 37  1  0  0  0  0
 13 38  1  0  0  0  0
 15 16  1  0  0  0  0
 15 39  1  0  0  0  0
 16 21  1  0  0  0  0
 16 17  2  0  0  0  0
 17 18  1  0  0  0  0
 17 40  1  0  0  0  0
 18 19  2  0  0  0  0
 18 41  1  0  0  0  0
 19 20  1  0  0  0  0
 19 42  1  0  0  0  0
 20 21  2  0  0  0  0
 20 43  1  0  0  0  0
M  CHG  1   7   1
M  END
> <s_m_source_file>
AV-unprocessed.smi

> <i_m_source_file_index>
2528

> <i_lp_mmshare_version>
43012

> <i_f3d_flags>
0

> <s_epik_input>
bjFbY0hdW2NIXVtjSF1bY0hdYzFbTkhdQyg9TylbTkhdW0NIMl1bQ0BIXShbQ0gyXTIpT1tDSDJdW0NAQEhdKE4yMylbQ0gyXVtDSDJdW0NIMl1bQ0gyXTM=

> <s_epik_cmdline>
J2VwaWtfcHl0aG9uJywgJy1waCcsICc3LjAnLCAnLXRuJywgJzgnLCAnLW1hJywgJzIwMCcsICctbWV0YWxfYmluZGluZycsICctaW1hZScsICc8aW5maWxlLm1hZT4nLCAnLW9tYWUnLCAnPG91dGZpbGUubWFlPic=

> <r_epik_Ionization_Penalty>
0.0932337

> <r_epik_Ionization_Penalty_Charging>
0.0931942

> <r_epik_Ionization_Penalty_Neutral>
3.9565e-05

> <r_epik_State_Penalty>
0.0834605

> <r_epik_Charging_Adjusted_Penalty>
0.176655

> <i_epik_Tot_Q>
1

> <i_epik_Tot_abs_Q>
1

> <r_epik_Metal_State_Penalty>
0.0834607

> <b_epik_Metal_Only>
0

> <s_lp_Force_Field>
OPLS_2005

> <r_lp_Energy>
28.0782

> <b_lp_Chiralities_Consistent>
1

> <s_lp_Variant>
AV-unprocessed.smi:2528-2

> <Gold.Version>
5.8.1

> <Gold.Id.Protein>
6NUR|6NUR_protein|mol2

> <Gold.PLP.Fitness>
48.1008

> <Gold.PLP.PLP>
-34.2657

> <Gold.PLP.part.hbond>
-3.0000

> <Gold.PLP.part.metal>
0.0000

> <Gold.PLP.part.buried>
-5.1725

> <Gold.PLP.part.nonpolar>
-31.2362

> <Gold.PLP.part.repulsive>
3.8036

> <Gold.PLP.ligand.clash>
0.0000

> <Gold.PLP.ligand.torsion>
0.0626

> <Gold.PLP.Chemscore.Hbond>
3.8465

> <Gold.PLP.Chemscore.CHOScore>
0.8036

> <Gold.PLP.Chemscore.Metal>
0.0000

> <Gold.Chemscore.Hbonds>
donor molecule, donor type, donor heavy atom, donor atom, acceptor molecule, acceptor atom, score
      L1  H     3    22       P1  7948  0.99
      L1  H     7    44       P1 10175  1.92
      L1  H    15    39       P1  7948  0.82
      L1  C    20    43       P1 10186  0.33

> <Gold.PLP.Chemscore.Internal.Correction>
0.0098

> <Gold.Rescore>
     Score         DG    S(hbond)    S(metal)    S(lipo)     H(rot)  DE(clash)    DE(int)     intcor
     16.26     -17.87       2.26        0.00      69.66       1.29       0.28       1.33       ----

> <Gold.Chemscore.Fitness>
16.2606

> <Gold.Chemscore.DG>
-17.8733

> <Gold.Chemscore.ZeroCoef>
-5.4800

> <Gold.Chemscore.Hbond>
2.2570

> <Gold.Chemscore.Metal>
0.0000

> <Gold.Chemscore.Lipo>
69.6574

> <Gold.Chemscore.Internal_Hbond>
0.0000

> <Gold.Chemscore.DEClash>
0.2826

> <Gold.Chemscore.DEInternal>
1.3301

> <Gold.Chemscore.Rot>
1.2870

> <Gold.Chemscore.Internal.Correction>
   9.000000E+99

> <Gold.Chemscore.Hbonds>
donor molecule, donor type, donor heavy atom, donor atom, acceptor molecule, acceptor atom, score
      L1  H     3    22       P1  7948  0.93
      L1  H     7    44       P1 10175  0.36
      L1  H    15    39       P1  7948  0.54

> <Gold.Chemscore.Hbond.Weighted>
-7.5383

> <Gold.Chemscore.Metal.Weighted>
-0.0000

> <Gold.Chemscore.Lipo.Weighted>
-8.1499

> <Gold.Chemscore.Internal_Hbond.Weighted>
0.0000

> <Gold.Chemscore.DEClash.Weighted>
0.2826

> <Gold.Chemscore.DEInternal.Weighted>
1.3301

> <Gold.Chemscore.Rot.Weighted>
3.2948

> <Gold.Chemscore.Internal.Correction.Weighted>
   9.000000E+99

> <Gold.Protein.RotatedTorsions>
[ 6907 6896 6895 6894 ] final   89.04 input  -60.11 | X-H torsion
[ 7974 7965 7964 7962 ] final  -11.19 input  175.53 | X-H torsion
[ 8008 7997 7996 7995 ] final   83.21 input   59.86 | X-H torsion
[ 10167 10162 10161 10158 ] final -141.18 input  -65.29 | X-H torsion
[ 10718 10713 10712 10709 ] final  148.06 input   66.30 | X-H torsion
[ 10763 10752 10751 10750 ] final  142.71 input  -60.55 | X-H torsion
[ 11005 11000 10999 10996 ] final -167.18 input  -57.11 | X-H torsion

> <Gold.Protein.ActiveResidues>
 VAL166  LYS551  ARG553  GLY616  TRP617  ASP618  TYR619  PRO620  LYS621  CYS622 
 ASP623  PHE694  ASN695  SER759  ASP760  ASP761  ALA762  ILE779  LEU786  VAL792 
 PHE793  MET794  SER795  GLU796  ALA797  LYS798  CYS799  TRP800  GLU811  SER814 

> <Gold.Protein.RotatedAtoms>
  152.5432  134.2029  159.8718 H   0  0  0  0  0  0  0  0  0  0  0  0  # atno 6907 bound_to 6896
  151.2016  133.4600  159.2604 H   0  0  0  0  0  0  0  0  0  0  0  0  # atno 6908 bound_to 6896
  151.0984  134.9970  159.8492 H   0  0  0  0  0  0  0  0  0  0  0  0  # atno 6909 bound_to 6896
  146.2196  140.2875  142.8366 H   0  0  0  0  0  0  0  0  0  0  0  0  # atno 7974 bound_to 7965
  155.9209  140.3421  155.6172 H   0  0  0  0  0  0  0  0  0  0  0  0  # atno 8008 bound_to 7997
  155.7275  140.0791  157.2322 H   0  0  0  0  0  0  0  0  0  0  0  0  # atno 8009 bound_to 7997
  154.4069  140.1594  156.2458 H   0  0  0  0  0  0  0  0  0  0  0  0  # atno 8010 bound_to 7997
  139.8210  143.7574  152.2666 H   0  0  0  0  0  0  0  0  0  0  0  0  # atno 10167 bound_to 10162
  157.3133  131.0891  151.1299 H   0  0  0  0  0  0  0  0  0  0  0  0  # atno 10718 bound_to 10713
  153.9602  135.2961  155.3434 H   0  0  0  0  0  0  0  0  0  0  0  0  # atno 10763 bound_to 10752
  154.7379  135.5038  153.9075 H   0  0  0  0  0  0  0  0  0  0  0  0  # atno 10764 bound_to 10752
  153.0950  135.6718  153.9891 H   0  0  0  0  0  0  0  0  0  0  0  0  # atno 10765 bound_to 10752
  140.5562  134.5379  157.5133 H   0  0  0  0  0  0  0  0  0  0  0  0  # atno 11005 bound_to 11000
  144.9151  140.7803  143.5783 LP  0  0  0  0  0  0  0  0  0  0  0  0  # atno 17320 bound_to 7965
  145.2808  139.1919  143.4792 LP  0  0  0  0  0  0  0  0  0  0  0  0  # atno 17321 bound_to 7965
  139.7752  144.7463  151.0166 LP  0  0  0  0  0  0  0  0  0  0  0  0  # atno 17342 bound_to 10162
  140.7813  143.4601  151.0290 LP  0  0  0  0  0  0  0  0  0  0  0  0  # atno 17343 bound_to 10162
  157.2612  130.6660  149.5976 LP  0  0  0  0  0  0  0  0  0  0  0  0  # atno 17370 bound_to 10713
  155.9679  130.4508  150.5710 LP  0  0  0  0  0  0  0  0  0  0  0  0  # atno 17371 bound_to 10713
  139.9430  134.7752  156.0630 LP  0  0  0  0  0  0  0  0  0  0  0  0  # atno 17394 bound_to 11000
  141.1142  133.6633  156.3053 LP  0  0  0  0  0  0  0  0  0  0  0  0  # atno 17395 bound_to 11000

$$$$
