AV-unprocessed.smi:102|AV-procd|sdf|952|dock6
  -GOLD-   2262017483D 1   1.00000     0.00000
 Structure written by MMmdl.
 44 45  0  0  0  0  0  0  0  0  1 V2000
  150.6298  145.0869  159.9026 C   0  0  0  0  0  0  0  0  0  0  0  0
  151.8391  144.2084  159.6088 C   0  0  0  0  0  0  0  0  0  0  0  0
  152.4654  144.3172  158.5550 O   0  0  0  0  0  0  0  0  0  0  0  0
  152.1063  143.3484  160.6082 O   0  0  0  0  0  0  0  0  0  0  0  0
  152.8063  142.1365  160.3586 C   0  0  0  0  0  0  0  0  0  0  0  0
  151.9800  141.2063  159.4537 C   0  0  1  0  0  0  0  0  0  0  0  0
  151.8762  141.7267  158.1350 O   0  0  0  0  0  0  0  0  0  0  0  0
  151.5391  140.6982  157.2499 C   0  0  2  0  0  0  0  0  0  0  0  0
  150.0976  140.8510  156.8008 N   0  0  0  0  0  0  0  0  0  0  0  0
  149.0935  141.3090  157.6458 C   0  0  0  0  0  0  0  0  0  0  0  0
  147.8034  141.4350  157.2540 C   0  0  0  0  0  0  0  0  0  0  0  0
  146.8860  141.8842  158.1273 F   0  0  0  0  0  0  0  0  0  0  0  0
  147.3987  141.0883  155.8947 C   0  0  0  0  0  0  0  0  0  0  0  0
  146.2558  141.1678  155.4488 O   0  0  0  0  0  0  0  0  0  0  0  0
  148.4404  140.6341  155.0811 N   0  0  0  0  0  0  0  0  0  0  0  0
  149.7731  140.4988  155.4718 C   0  0  0  0  0  0  0  0  0  0  0  0
  150.6103  140.0776  154.6748 O   0  0  0  0  0  0  0  0  0  0  0  0
  151.8066  139.3547  157.9721 C   0  0  2  0  0  0  0  0  0  0  0  0
  150.6017  138.6692  158.3049 O   0  0  0  0  0  0  0  0  0  0  0  0
  150.6420  137.4825  158.9314 C   0  0  0  0  0  0  0  0  0  0  0  0
  149.2533  136.8942  159.1402 C   0  0  0  0  0  0  0  0  0  0  0  0
  151.6543  136.8940  159.3103 O   0  0  0  0  0  0  0  0  0  0  0  0
  152.5162  139.7889  159.2486 C   0  0  1  0  0  0  0  0  0  0  0  0
  153.9257  139.7853  159.0512 O   0  0  0  0  0  0  0  0  0  0  0  0
  154.5814  138.6275  158.8542 C   0  0  0  0  0  0  0  0  0  0  0  0
  156.0860  138.8273  158.7350 C   0  0  0  0  0  0  0  0  0  0  0  0
  154.0721  137.5100  158.7748 O   0  0  0  0  0  0  0  0  0  0  0  0
  148.2081  140.3802  154.1318 H   0  0  0  0  0  0  0  0  0  0  0  0
  150.9520  146.0949  160.1635 H   0  0  0  0  0  0  0  0  0  0  0  0
  150.0472  144.6840  160.7315 H   0  0  0  0  0  0  0  0  0  0  0  0
  149.9843  145.1461  159.0261 H   0  0  0  0  0  0  0  0  0  0  0  0
  153.7221  142.4087  159.8339 H   0  0  0  0  0  0  0  0  0  0  0  0
  153.1216  141.6372  161.2758 H   0  0  0  0  0  0  0  0  0  0  0  0
  150.9666  141.1391  159.8523 H   0  0  0  0  0  0  0  0  0  0  0  0
  152.1435  140.8296  156.3506 H   0  0  0  0  0  0  0  0  0  0  0  0
  149.3243  141.5837  158.6634 H   0  0  0  0  0  0  0  0  0  0  0  0
  152.4426  138.7378  157.3353 H   0  0  0  0  0  0  0  0  0  0  0  0
  148.7757  136.7048  158.1785 H   0  0  0  0  0  0  0  0  0  0  0  0
  148.6298  137.5856  159.7074 H   0  0  0  0  0  0  0  0  0  0  0  0
  149.3136  135.9535  159.6877 H   0  0  0  0  0  0  0  0  0  0  0  0
  152.2590  139.1580  160.1012 H   0  0  0  0  0  0  0  0  0  0  0  0
  156.4779  139.2915  159.6402 H   0  0  0  0  0  0  0  0  0  0  0  0
  156.3170  139.4705  157.8858 H   0  0  0  0  0  0  0  0  0  0  0  0
  156.5893  137.8709  158.5917 H   0  0  0  0  0  0  0  0  0  0  0  0
  1  2  1  0  0  0  0
  1 29  1  0  0  0  0
  1 30  1  0  0  0  0
  1 31  1  0  0  0  0
  2  3  2  0  0  0  0
  2  4  1  0  0  0  0
  4  5  1  0  0  0  0
  5  6  1  0  0  0  0
  5 32  1  0  0  0  0
  5 33  1  0  0  0  0
  6 23  1  0  0  0  0
  6  7  1  0  0  0  0
  6 34  1  0  0  0  0
  7  8  1  0  0  0  0
  8  9  1  0  0  0  0
  8 18  1  0  0  0  0
  8 35  1  0  0  0  0
  9 16  1  0  0  0  0
  9 10  1  0  0  0  0
 10 11  2  0  0  0  0
 10 36  1  0  0  0  0
 11 12  1  0  0  0  0
 11 13  1  0  0  0  0
 13 14  2  0  0  0  0
 13 15  1  0  0  0  0
 15 28  1  0  0  0  0
 15 16  1  0  0  0  0
 16 17  2  0  0  0  0
 18 19  1  0  0  0  0
 18 23  1  0  0  0  0
 18 37  1  0  0  0  0
 19 20  1  0  0  0  0
 20 21  1  0  0  0  0
 20 22  2  0  0  0  0
 21 38  1  0  0  0  0
 21 39  1  0  0  0  0
 21 40  1  0  0  0  0
 23 24  1  0  0  0  0
 23 41  1  0  0  0  0
 24 25  1  0  0  0  0
 25 26  1  0  0  0  0
 25 27  2  0  0  0  0
 26 42  1  0  0  0  0
 26 43  1  0  0  0  0
 26 44  1  0  0  0  0
M  END
> <s_m_source_file>
AV-unprocessed.smi

> <i_m_source_file_index>
102

> <i_lp_mmshare_version>
43012

> <i_f3d_flags>
0

> <s_epik_input>
W0NIM11DKD1PKU9bQ0gyXVtDQEBIXTFPW0NASF0oW0NAQEhdKE9DKD1PKVtDSDNdKVtDQEhdMU9DKD1PKVtDSDNdKW4yW2NIXWMoRiljKD1PKVtuSF1jMj1P

> <s_epik_cmdline>
J2VwaWtfcHl0aG9uJywgJy1waCcsICc3LjAnLCAnLXRuJywgJzgnLCAnLW1hJywgJzIwMCcsICctbWV0YWxfYmluZGluZycsICctaW1hZScsICc8aW5maWxlLm1hZT4nLCAnLW9tYWUnLCAnPG91dGZpbGUubWFlPic=

> <r_lp_tautomer_probability>
0.999537

> <r_epik_Ionization_Penalty>
0.058267

> <r_epik_Ionization_Penalty_Charging>
0.058267

> <r_epik_Ionization_Penalty_Neutral>
6.57791e-16

> <r_epik_State_Penalty>
0.0503774

> <r_epik_Charging_Adjusted_Penalty>
0.108644

> <i_epik_Tot_Q>
0

> <i_epik_Tot_abs_Q>
0

> <r_epik_Metal_State_Penalty>
2.6644

> <b_epik_Metal_Only>
0

> <s_epik_Chemistry_Notes>
This compound has an ester and may undergo hydrolysis at high or low pH. This compound contains an acetal/aminal-like group ( X-CH(R)-Y where X, Y are N, S, or O) that may be acid/base labile, releasing an aldehyde.

> <s_lp_Force_Field>
OPLS_2005

> <r_lp_Energy>
12.8015

> <b_lp_Chiralities_Consistent>
1

> <s_lp_Variant>
AV-unprocessed.smi:102-8

> <Gold.Version>
5.8.1

> <Gold.Id.Protein>
6NUR|6NUR_protein|mol2

> <Gold.PLP.Fitness>
43.0154

> <Gold.PLP.PLP>
-39.1020

> <Gold.PLP.part.hbond>
-2.3197

> <Gold.PLP.part.metal>
0.0000

> <Gold.PLP.part.buried>
-8.3646

> <Gold.PLP.part.nonpolar>
-28.9194

> <Gold.PLP.part.repulsive>
0.4161

> <Gold.PLP.ligand.clash>
0.0000

> <Gold.PLP.ligand.torsion>
1.1055

> <Gold.PLP.Chemscore.Hbond>
2.0000

> <Gold.PLP.Chemscore.CHOScore>
0.0000

> <Gold.PLP.Chemscore.Metal>
0.0000

> <Gold.Chemscore.Hbonds>
donor molecule, donor type, donor heavy atom, donor atom, acceptor molecule, acceptor atom, score
      P1  H  6896  6907       L1    22  0.91
      P1  H  7989  7998       L1    17  1.00

> <Gold.PLP.Chemscore.Internal.Correction>
0.1243

> <Gold.Rescore>
     Score         DG    S(hbond)    S(metal)    S(lipo)     H(rot)  DE(clash)    DE(int)     intcor
      4.35      -7.52       1.95        0.00      50.54       4.05       0.00       3.17       ----

> <Gold.Chemscore.Fitness>
4.3526

> <Gold.Chemscore.DG>
-7.5241

> <Gold.Chemscore.ZeroCoef>
-5.4800

> <Gold.Chemscore.Hbond>
1.9472

> <Gold.Chemscore.Metal>
0.0000

> <Gold.Chemscore.Lipo>
50.5445

> <Gold.Chemscore.Internal_Hbond>
0.0000

> <Gold.Chemscore.DEClash>
0.0000

> <Gold.Chemscore.DEInternal>
3.1715

> <Gold.Chemscore.Rot>
4.0520

> <Gold.Chemscore.Internal.Correction>
   9.000000E+99

> <Gold.Chemscore.Hbonds>
donor molecule, donor type, donor heavy atom, donor atom, acceptor molecule, acceptor atom, score
      P1  H  6896  6907       L1    22  0.70
      P1  H  7989  7998       L1    17  1.00

> <Gold.Chemscore.Hbond.Weighted>
-6.5036

> <Gold.Chemscore.Metal.Weighted>
-0.0000

> <Gold.Chemscore.Lipo.Weighted>
-5.9137

> <Gold.Chemscore.Internal_Hbond.Weighted>
0.0000

> <Gold.Chemscore.DEClash.Weighted>
0.0000

> <Gold.Chemscore.DEInternal.Weighted>
3.1715

> <Gold.Chemscore.Rot.Weighted>
10.3732

> <Gold.Chemscore.Internal.Correction.Weighted>
   9.000000E+99

> <Gold.Protein.RotatedTorsions>
[ 6907 6896 6895 6894 ] final  -22.56 input  -60.11 | X-H torsion
[ 7974 7965 7964 7962 ] final  148.67 input  175.53 | X-H torsion
[ 8008 7997 7996 7995 ] final   79.50 input   59.86 | X-H torsion
[ 10167 10162 10161 10158 ] final -178.98 input  -65.29 | X-H torsion
[ 10718 10713 10712 10709 ] final   70.49 input   66.30 | X-H torsion
[ 10763 10752 10751 10750 ] final  -88.09 input  -60.55 | X-H torsion
[ 11005 11000 10999 10996 ] final   -3.94 input  -57.11 | X-H torsion

> <Gold.Protein.ActiveResidues>
 VAL166  LYS551  ARG553  GLY616  TRP617  ASP618  TYR619  PRO620  LYS621  CYS622 
 ASP623  PHE694  ASN695  SER759  ASP760  ASP761  ALA762  ILE779  LEU786  VAL792 
 PHE793  MET794  SER795  GLU796  ALA797  LYS798  CYS799  TRP800  GLU811  SER814 

> <Gold.Protein.RotatedAtoms>
  151.2168  135.0503  159.8933 H   0  0  0  0  0  0  0  0  0  0  0  0  # atno 6907 bound_to 6896
  152.5419  134.0684  159.8193 H   0  0  0  0  0  0  0  0  0  0  0  0  # atno 6908 bound_to 6896
  151.0845  133.5316  159.2650 H   0  0  0  0  0  0  0  0  0  0  0  0  # atno 6909 bound_to 6896
  144.8496  139.6183  143.5980 H   0  0  0  0  0  0  0  0  0  0  0  0  # atno 7974 bound_to 7965
  155.8705  140.3449  155.5818 H   0  0  0  0  0  0  0  0  0  0  0  0  # atno 8008 bound_to 7997
  155.7832  140.0861  157.2067 H   0  0  0  0  0  0  0  0  0  0  0  0  # atno 8009 bound_to 7997
  154.4017  140.1497  156.3064 H   0  0  0  0  0  0  0  0  0  0  0  0  # atno 8010 bound_to 7997
  139.5407  144.2371  152.0889 H   0  0  0  0  0  0  0  0  0  0  0  0  # atno 10167 bound_to 10162
  157.6403  130.9480  150.0658 H   0  0  0  0  0  0  0  0  0  0  0  0  # atno 10718 bound_to 10713
  154.6407  135.5390  153.7786 H   0  0  0  0  0  0  0  0  0  0  0  0  # atno 10763 bound_to 10752
  153.0332  135.6458  154.1163 H   0  0  0  0  0  0  0  0  0  0  0  0  # atno 10764 bound_to 10752
  154.1088  135.2928  155.3215 H   0  0  0  0  0  0  0  0  0  0  0  0  # atno 10765 bound_to 10752
  140.6748  133.9205  155.8517 H   0  0  0  0  0  0  0  0  0  0  0  0  # atno 11005 bound_to 11000
  146.2773  139.6786  142.9254 LP  0  0  0  0  0  0  0  0  0  0  0  0  # atno 17320 bound_to 7965
  145.4527  141.0429  143.2795 LP  0  0  0  0  0  0  0  0  0  0  0  0  # atno 17321 bound_to 7965
  140.1849  144.4809  150.6509 LP  0  0  0  0  0  0  0  0  0  0  0  0  # atno 17342 bound_to 10162
  140.6636  143.2260  151.5797 LP  0  0  0  0  0  0  0  0  0  0  0  0  # atno 17343 bound_to 10162
  156.1677  130.3645  149.9209 LP  0  0  0  0  0  0  0  0  0  0  0  0  # atno 17370 bound_to 10713
  156.7192  130.9000  151.3616 LP  0  0  0  0  0  0  0  0  0  0  0  0  # atno 17371 bound_to 10713
  141.0364  134.0684  157.3955 LP  0  0  0  0  0  0  0  0  0  0  0  0  # atno 17394 bound_to 11000
  139.8970  135.0148  156.7079 LP  0  0  0  0  0  0  0  0  0  0  0  0  # atno 17395 bound_to 11000

$$$$
