AV-unprocessed.smi:787|AV-procd|sdf|3730|dock2
  -GOLD-   22720 1163D 1   1.00000     0.00000
 Structure written by MMmdl.
 46 48  0  0  0  0  0  0  0  0  1 V2000
  147.2155  134.2896  154.3921 C   0  0  0  0  0  0  0  0  0  0  0  0
  148.5447  134.8538  154.2204 N   0  0  0  0  0  0  0  0  0  0  0  0
  149.6131  134.4241  155.0200 C   0  0  0  0  0  0  0  0  0  0  0  0
  149.7283  133.1153  155.3440 N   0  0  0  0  0  0  0  0  0  0  0  0
  150.7659  132.7476  156.1071 C   0  0  0  0  0  0  0  0  0  0  0  0
  151.7486  133.5040  156.6197 N   0  0  0  0  0  0  0  0  0  0  0  0
  151.6439  134.8021  156.3041 C   0  0  0  0  0  0  0  0  0  0  0  0
  152.5155  135.8045  156.6937 N   0  0  0  0  0  0  0  0  0  0  0  0
  151.9671  136.8751  156.1251 C   0  0  0  0  0  0  0  0  0  0  0  0
  150.8391  136.6921  155.4113 N   0  0  0  0  0  0  0  0  0  0  0  0
  150.0886  137.7235  154.7148 C   0  0  0  0  0  0  0  0  0  0  0  0
  150.6270  139.1421  154.9954 C   0  0  1  0  0  0  0  0  0  0  0  0
  150.4471  139.9603  153.8563 O   0  0  0  0  0  0  0  0  0  0  0  0
  149.9142  139.8253  156.1808 C   0  0  0  0  0  0  0  0  0  0  0  0
  150.6771  140.8719  156.8641 N   0  0  0  0  0  0  0  0  0  0  0  0
  151.4382  140.2943  157.9680 C   0  0  0  0  0  0  0  0  0  0  0  0
  149.8255  141.9703  157.3299 C   0  0  0  0  0  0  0  0  0  0  0  0
  150.5977  143.1148  157.9636 C   0  0  0  0  0  0  0  0  0  0  0  0
  150.1904  143.6378  159.2095 C   0  0  0  0  0  0  0  0  0  0  0  0
  150.9051  144.6984  159.7996 C   0  0  0  0  0  0  0  0  0  0  0  0
  152.0308  145.2377  159.1479 C   0  0  0  0  0  0  0  0  0  0  0  0
  152.4418  144.7164  157.9056 C   0  0  0  0  0  0  0  0  0  0  0  0
  151.7270  143.6564  157.3142 C   0  0  0  0  0  0  0  0  0  0  0  0
  150.5850  135.3244  155.5013 C   0  0  0  0  0  0  0  0  0  0  0  0
  146.5294  134.7275  153.6674 H   0  0  0  0  0  0  0  0  0  0  0  0
  146.8341  134.4969  155.3924 H   0  0  0  0  0  0  0  0  0  0  0  0
  147.2308  133.2101  154.2386 H   0  0  0  0  0  0  0  0  0  0  0  0
  148.6948  135.5552  153.5100 H   0  0  0  0  0  0  0  0  0  0  0  0
  150.8183  131.6951  156.3433 H   0  0  0  0  0  0  0  0  0  0  0  0
  152.4127  137.8534  156.2327 H   0  0  0  0  0  0  0  0  0  0  0  0
  150.0901  137.5107  153.6466 H   0  0  0  0  0  0  0  0  0  0  0  0
  149.0478  137.6500  155.0333 H   0  0  0  0  0  0  0  0  0  0  0  0
  151.7009  139.0947  155.1724 H   0  0  0  0  0  0  0  0  0  0  0  0
  149.9358  139.4846  153.2195 H   0  0  0  0  0  0  0  0  0  0  0  0
  148.9617  140.2362  155.8419 H   0  0  0  0  0  0  0  0  0  0  0  0
  149.6607  139.0476  156.9031 H   0  0  0  0  0  0  0  0  0  0  0  0
  152.0759  141.0402  158.4431 H   0  0  0  0  0  0  0  0  0  0  0  0
  152.0892  139.4944  157.6137 H   0  0  0  0  0  0  0  0  0  0  0  0
  150.7753  139.8795  158.7288 H   0  0  0  0  0  0  0  0  0  0  0  0
  149.2758  142.4060  156.4973 H   0  0  0  0  0  0  0  0  0  0  0  0
  149.0767  141.5951  158.0291 H   0  0  0  0  0  0  0  0  0  0  0  0
  149.3276  143.2270  159.7133 H   0  0  0  0  0  0  0  0  0  0  0  0
  150.5899  145.0981  160.7524 H   0  0  0  0  0  0  0  0  0  0  0  0
  152.5790  146.0506  159.6010 H   0  0  0  0  0  0  0  0  0  0  0  0
  153.3056  145.1297  157.4061 H   0  0  0  0  0  0  0  0  0  0  0  0
  152.0474  143.2629  156.3607 H   0  0  0  0  0  0  0  0  0  0  0  0
  1  2  1  0  0  0  0
  1 25  1  0  0  0  0
  1 26  1  0  0  0  0
  1 27  1  0  0  0  0
  2  3  1  0  0  0  0
  2 28  1  0  0  0  0
  3 24  1  0  0  0  0
  3  4  2  0  0  0  0
  4  5  1  0  0  0  0
  5  6  2  0  0  0  0
  5 29  1  0  0  0  0
  6  7  1  0  0  0  0
  7 24  2  0  0  0  0
  7  8  1  0  0  0  0
  8  9  2  0  0  0  0
  9 10  1  0  0  0  0
  9 30  1  0  0  0  0
 10 11  1  0  0  0  0
 10 24  1  0  0  0  0
 11 12  1  0  0  0  0
 11 31  1  0  0  0  0
 11 32  1  0  0  0  0
 12 13  1  0  0  0  0
 12 14  1  0  0  0  0
 12 33  1  0  0  0  0
 13 34  1  0  0  0  0
 14 15  1  0  0  0  0
 14 35  1  0  0  0  0
 14 36  1  0  0  0  0
 15 16  1  0  0  0  0
 15 17  1  0  0  0  0
 16 37  1  0  0  0  0
 16 38  1  0  0  0  0
 16 39  1  0  0  0  0
 17 18  1  0  0  0  0
 17 40  1  0  0  0  0
 17 41  1  0  0  0  0
 18 23  1  0  0  0  0
 18 19  2  0  0  0  0
 19 20  1  0  0  0  0
 19 42  1  0  0  0  0
 20 21  2  0  0  0  0
 20 43  1  0  0  0  0
 21 22  1  0  0  0  0
 21 44  1  0  0  0  0
 22 23  2  0  0  0  0
 22 45  1  0  0  0  0
 23 46  1  0  0  0  0
M  END
> <s_m_source_file>
AV-unprocessed.smi

> <i_m_source_file_index>
787

> <i_lp_mmshare_version>
43012

> <i_f3d_flags>
0

> <s_epik_input>
bjFbY0hdbmMoW05IXVtDSDNdKWMoYzEyKW4oW2NIXW4yKVtDSDJdW0NASF0oW09IXSlbQ0gyXU4oW0NIM10pW0NIMl1jM1tjSF1bY0hdW2NIXVtjSF1bY0hdMw==

> <s_epik_cmdline>
J2VwaWtfcHl0aG9uJywgJy1waCcsICc3LjAnLCAnLXRuJywgJzgnLCAnLW1hJywgJzIwMCcsICctbWV0YWxfYmluZGluZycsICctaW1hZScsICc8aW5maWxlLm1hZT4nLCAnLW9tYWUnLCAnPG91dGZpbGUubWFlPic=

> <r_lp_tautomer_probability>
0.999987

> <r_epik_Ionization_Penalty>
1.52367

> <r_epik_Ionization_Penalty_Charging>
0

> <r_epik_Ionization_Penalty_Neutral>
1.52367

> <r_epik_State_Penalty>
1.60995

> <r_epik_Charging_Adjusted_Penalty>
1.60995

> <i_epik_Tot_Q>
0

> <i_epik_Tot_abs_Q>
0

> <r_epik_Metal_State_Penalty>
1.60969

> <b_epik_Metal_Only>
0

> <s_lp_Force_Field>
OPLS_2005

> <r_lp_Energy>
19.785

> <b_lp_Chiralities_Consistent>
1

> <s_lp_Variant>
AV-unprocessed.smi:787-6

> <Gold.Version>
5.8.1

> <Gold.Id.Protein>
6NUR|6NUR_protein|mol2

> <Gold.PLP.Fitness>
45.9372

> <Gold.PLP.PLP>
-41.2766

> <Gold.PLP.part.hbond>
-4.0831

> <Gold.PLP.part.metal>
0.0000

> <Gold.PLP.part.buried>
-5.2927

> <Gold.PLP.part.nonpolar>
-31.4734

> <Gold.PLP.part.repulsive>
0.0523

> <Gold.PLP.ligand.clash>
0.0000

> <Gold.PLP.ligand.torsion>
1.5807

> <Gold.PLP.Chemscore.Hbond>
2.3874

> <Gold.PLP.Chemscore.CHOScore>
0.0000

> <Gold.PLP.Chemscore.Metal>
0.0000

> <Gold.Chemscore.Hbonds>
donor molecule, donor type, donor heavy atom, donor atom, acceptor molecule, acceptor atom, score
      L1  H     2    28       P1  7948  1.00
      L1  H    13    34       P1  7957  0.37
      P1  H  7989  7998       L1    13  0.98
      P1  H 10752 10763       L1     8  0.03

> <Gold.PLP.Chemscore.Internal.Correction>
0.6599

> <Gold.Rescore>
     Score         DG    S(hbond)    S(metal)    S(lipo)     H(rot)  DE(clash)    DE(int)     intcor
     15.26     -16.83       2.42        0.00      95.81       3.11       0.06       1.51       ----

> <Gold.Chemscore.Fitness>
15.2605

> <Gold.Chemscore.DG>
-16.8327

> <Gold.Chemscore.ZeroCoef>
-5.4800

> <Gold.Chemscore.Hbond>
2.4246

> <Gold.Chemscore.Metal>
0.0000

> <Gold.Chemscore.Lipo>
95.8092

> <Gold.Chemscore.Internal_Hbond>
0.0000

> <Gold.Chemscore.DEClash>
0.0581

> <Gold.Chemscore.DEInternal>
1.5141

> <Gold.Chemscore.Rot>
3.1075

> <Gold.Chemscore.Internal.Correction>
   9.000000E+99

> <Gold.Chemscore.Hbonds>
donor molecule, donor type, donor heavy atom, donor atom, acceptor molecule, acceptor atom, score
      L1  H     2    28       P1  7948  0.95
      L1  H    13    34       P1  7957  0.37
      P1  H  7989  7998       L1    13  0.82

> <Gold.Chemscore.Hbond.Weighted>
-8.0982

> <Gold.Chemscore.Metal.Weighted>
-0.0000

> <Gold.Chemscore.Lipo.Weighted>
-11.2097

> <Gold.Chemscore.Internal_Hbond.Weighted>
0.0000

> <Gold.Chemscore.DEClash.Weighted>
0.0581

> <Gold.Chemscore.DEInternal.Weighted>
1.5141

> <Gold.Chemscore.Rot.Weighted>
7.9551

> <Gold.Chemscore.Internal.Correction.Weighted>
   9.000000E+99

> <Gold.Protein.RotatedTorsions>
[ 6907 6896 6895 6894 ] final  -57.28 input  -60.11 | X-H torsion
[ 7974 7965 7964 7962 ] final  -15.85 input  175.53 | X-H torsion
[ 8008 7997 7996 7995 ] final -173.83 input   59.86 | X-H torsion
[ 10167 10162 10161 10158 ] final  179.22 input  -65.29 | X-H torsion
[ 10718 10713 10712 10709 ] final   86.22 input   66.30 | X-H torsion
[ 10763 10752 10751 10750 ] final  164.64 input  -60.55 | X-H torsion
[ 11005 11000 10999 10996 ] final  169.83 input  -57.11 | X-H torsion

> <Gold.Protein.ActiveResidues>
 VAL166  LYS551  ARG553  GLY616  TRP617  ASP618  TYR619  PRO620  LYS621  CYS622 
 ASP623  PHE694  ASN695  SER759  ASP760  ASP761  ALA762  ILE779  LEU786  VAL792 
 PHE793  MET794  SER795  GLU796  ALA797  LYS798  CYS799  TRP800  GLU811  SER814 

> <Gold.Protein.RotatedAtoms>
  150.8099  134.7247  159.6678 H   0  0  0  0  0  0  0  0  0  0  0  0  # atno 6907 bound_to 6896
  152.4219  134.5936  159.9991 H   0  0  0  0  0  0  0  0  0  0  0  0  # atno 6908 bound_to 6896
  151.6149  133.3307  159.3111 H   0  0  0  0  0  0  0  0  0  0  0  0  # atno 6909 bound_to 6896
  146.2014  140.3552  142.8422 H   0  0  0  0  0  0  0  0  0  0  0  0  # atno 7974 bound_to 7965
  155.9624  140.1147  157.0884 H   0  0  0  0  0  0  0  0  0  0  0  0  # atno 8008 bound_to 7997
  154.4135  140.1179  156.5263 H   0  0  0  0  0  0  0  0  0  0  0  0  # atno 8009 bound_to 7997
  155.6703  140.3473  155.4818 H   0  0  0  0  0  0  0  0  0  0  0  0  # atno 8010 bound_to 7997
  139.5327  144.2587  152.0725 H   0  0  0  0  0  0  0  0  0  0  0  0  # atno 10167 bound_to 10162
  157.6926  131.0207  150.2940 H   0  0  0  0  0  0  0  0  0  0  0  0  # atno 10718 bound_to 10713
  154.3120  135.2757  155.2561 H   0  0  0  0  0  0  0  0  0  0  0  0  # atno 10763 bound_to 10752
  154.4952  135.5823  153.6492 H   0  0  0  0  0  0  0  0  0  0  0  0  # atno 10764 bound_to 10752
  152.9887  135.6144  154.3298 H   0  0  0  0  0  0  0  0  0  0  0  0  # atno 10765 bound_to 10752
  140.3019  134.7588  157.3922 H   0  0  0  0  0  0  0  0  0  0  0  0  # atno 11005 bound_to 11000
  144.8692  140.7248  143.6058 LP  0  0  0  0  0  0  0  0  0  0  0  0  # atno 17320 bound_to 7965
  145.3471  139.1716  143.4454 LP  0  0  0  0  0  0  0  0  0  0  0  0  # atno 17321 bound_to 7965
  140.2053  144.4617  150.6412 LP  0  0  0  0  0  0  0  0  0  0  0  0  # atno 17342 bound_to 10162
  140.6515  143.2226  151.6066 LP  0  0  0  0  0  0  0  0  0  0  0  0  # atno 17343 bound_to 10162
  156.3466  130.3824  149.7364 LP  0  0  0  0  0  0  0  0  0  0  0  0  # atno 17370 bound_to 10713
  156.4855  130.8061  151.3073 LP  0  0  0  0  0  0  0  0  0  0  0  0  # atno 17371 bound_to 10713
  140.1102  134.5356  155.8273 LP  0  0  0  0  0  0  0  0  0  0  0  0  # atno 17394 bound_to 11000
  141.2126  133.6722  156.6674 LP  0  0  0  0  0  0  0  0  0  0  0  0  # atno 17395 bound_to 11000

$$$$
