AV-unprocessed.smi:2055|AV-procd|sdf|8336|dock1
  -GOLD-   2272011 03D 1   1.00000     0.00000
 Structure written by MMmdl.
 44 45  0  0  0  0  0  0  0  0  2 V2000
  149.8483  133.0737  154.7070 C   0  0  0  0  0  0  0  0  0  0  0  0
  148.7485  134.1315  154.8848 C   0  0  2  0  0  0  0  0  0  0  0  0
  147.4409  133.7402  154.1682 C   0  0  0  0  0  0  0  0  0  0  0  0
  147.6311  133.7351  152.7695 O   0  0  0  0  0  0  0  0  0  0  0  0
  149.2393  135.4158  154.3924 N   0  0  0  0  0  0  0  0  0  0  0  0
  150.2139  136.1416  154.9584 C   0  0  0  0  0  0  0  0  0  0  0  0
  150.8043  135.8232  155.9904 O   0  0  0  0  0  0  0  0  0  0  0  0
  150.4786  137.2532  154.2577 N   0  0  0  0  0  0  0  0  0  0  0  0
  151.4769  138.2535  154.6266 C   0  0  0  0  0  0  0  0  0  0  0  0
  150.9182  139.5995  155.0759 C   0  0  0  0  0  0  0  0  0  0  0  0
  149.8405  140.1684  154.3660 C   0  0  0  0  0  0  0  0  0  0  0  0
  149.3253  141.4113  154.7774 C   0  0  0  0  0  0  0  0  0  0  0  0
  149.8656  142.0437  155.8404 N   0  3  0  0  0  0  0  0  0  0  0  0
  150.9038  141.5552  156.5619 C   0  0  0  0  0  0  0  0  0  0  0  0
  151.3634  142.3138  157.6613 N   0  0  0  0  0  0  0  0  0  0  0  0
  152.3081  141.6913  158.5846 C   0  0  0  0  0  0  0  0  0  0  0  0
  152.4376  142.5266  159.8694 C   0  0  0  0  0  0  0  0  0  0  0  0
  152.7793  143.8673  159.5376 O   0  0  0  0  0  0  0  0  0  0  0  0
  151.7691  144.4890  158.7515 C   0  0  0  0  0  0  0  0  0  0  0  0
  151.6079  143.7352  157.4205 C   0  0  0  0  0  0  0  0  0  0  0  0
  151.4573  140.3074  156.1769 C   0  0  0  0  0  0  0  0  0  0  0  0
  149.5375  132.1096  155.1099 H   0  0  0  0  0  0  0  0  0  0  0  0
  150.7615  133.3650  155.2268 H   0  0  0  0  0  0  0  0  0  0  0  0
  150.0950  132.9293  153.6546 H   0  0  0  0  0  0  0  0  0  0  0  0
  148.5490  134.2335  155.9535 H   0  0  0  0  0  0  0  0  0  0  0  0
  147.1229  132.7385  154.4583 H   0  0  0  0  0  0  0  0  0  0  0  0
  146.6304  134.4223  154.4269 H   0  0  0  0  0  0  0  0  0  0  0  0
  148.0209  134.5578  152.5161 H   0  0  0  0  0  0  0  0  0  0  0  0
  148.8130  135.7676  153.5475 H   0  0  0  0  0  0  0  0  0  0  0  0
  149.9414  137.4299  153.4211 H   0  0  0  0  0  0  0  0  0  0  0  0
  152.0785  137.8466  155.4393 H   0  0  0  0  0  0  0  0  0  0  0  0
  152.1557  138.4043  153.7854 H   0  0  0  0  0  0  0  0  0  0  0  0
  149.4093  139.6573  153.5174 H   0  0  0  0  0  0  0  0  0  0  0  0
  148.5000  141.9141  154.2946 H   0  0  0  0  0  0  0  0  0  0  0  0
  151.9736  140.6887  158.8524 H   0  0  0  0  0  0  0  0  0  0  0  0
  153.2795  141.5977  158.0974 H   0  0  0  0  0  0  0  0  0  0  0  0
  151.5084  142.5073  160.4415 H   0  0  0  0  0  0  0  0  0  0  0  0
  153.2138  142.1098  160.5113 H   0  0  0  0  0  0  0  0  0  0  0  0
  150.8269  144.5128  159.3017 H   0  0  0  0  0  0  0  0  0  0  0  0
  152.0529  145.5247  158.5636 H   0  0  0  0  0  0  0  0  0  0  0  0
  152.5129  143.8390  156.8203 H   0  0  0  0  0  0  0  0  0  0  0  0
  150.7957  144.1928  156.8561 H   0  0  0  0  0  0  0  0  0  0  0  0
  152.2937  139.8862  156.7129 H   0  0  0  0  0  0  0  0  0  0  0  0
  149.4650  142.9396  156.1191 H   0  0  0  0  0  0  0  0  0  0  0  0
  1  2  1  0  0  0  0
  1 22  1  0  0  0  0
  1 23  1  0  0  0  0
  1 24  1  0  0  0  0
  2  3  1  0  0  0  0
  2  5  1  0  0  0  0
  2 25  1  0  0  0  0
  3  4  1  0  0  0  0
  3 26  1  0  0  0  0
  3 27  1  0  0  0  0
  4 28  1  0  0  0  0
  5  6  1  0  0  0  0
  5 29  1  0  0  0  0
  6  7  2  0  0  0  0
  6  8  1  0  0  0  0
  8  9  1  0  0  0  0
  8 30  1  0  0  0  0
  9 10  1  0  0  0  0
  9 31  1  0  0  0  0
  9 32  1  0  0  0  0
 10 21  1  0  0  0  0
 10 11  2  0  0  0  0
 11 12  1  0  0  0  0
 11 33  1  0  0  0  0
 12 13  2  0  0  0  0
 12 34  1  0  0  0  0
 13 14  1  0  0  0  0
 13 44  1  0  0  0  0
 14 15  1  0  0  0  0
 14 21  2  0  0  0  0
 15 20  1  0  0  0  0
 15 16  1  0  0  0  0
 16 17  1  0  0  0  0
 16 35  1  0  0  0  0
 16 36  1  0  0  0  0
 17 18  1  0  0  0  0
 17 37  1  0  0  0  0
 17 38  1  0  0  0  0
 18 19  1  0  0  0  0
 19 20  1  0  0  0  0
 19 39  1  0  0  0  0
 19 40  1  0  0  0  0
 20 41  1  0  0  0  0
 20 42  1  0  0  0  0
 21 43  1  0  0  0  0
M  CHG  1  13   1
M  END
> <s_m_source_file>
AV-unprocessed.smi

> <i_m_source_file_index>
2055

> <i_lp_mmshare_version>
43012

> <i_f3d_flags>
0

> <s_epik_input>
W09IXVtDSDJdW0NAQEhdKFtDSDNdKVtOSF1DKD1PKVtOSF1bQ0gyXWMxW2NIXVtjSF1uYyhbY0hdMSlOMltDSDJdW0NIMl1PW0NIMl1bQ0gyXTI=

> <s_epik_cmdline>
J2VwaWtfcHl0aG9uJywgJy1waCcsICc3LjAnLCAnLXRuJywgJzgnLCAnLW1hJywgJzIwMCcsICctbWV0YWxfYmluZGluZycsICctaW1hZScsICc8aW5maWxlLm1hZT4nLCAnLW9tYWUnLCAnPG91dGZpbGUubWFlPic=

> <r_lp_tautomer_probability>
0.999994

> <r_epik_Ionization_Penalty>
2.3082

> <r_epik_Ionization_Penalty_Charging>
2.30816

> <r_epik_Ionization_Penalty_Neutral>
3.71771e-05

> <r_epik_State_Penalty>
2.45942

> <r_epik_Charging_Adjusted_Penalty>
4.76758

> <i_epik_Tot_Q>
1

> <i_epik_Tot_abs_Q>
1

> <r_epik_Metal_State_Penalty>
2.47143

> <b_epik_Metal_Only>
0

> <s_lp_Force_Field>
OPLS_2005

> <r_lp_Energy>
15.7879

> <b_lp_Chiralities_Consistent>
1

> <s_lp_Variant>
AV-unprocessed.smi:2055-3

> <Gold.Version>
5.8.1

> <Gold.Id.Protein>
6NUR|6NUR_protein|mol2

> <Gold.PLP.Fitness>
56.0146

> <Gold.PLP.PLP>
-43.1902

> <Gold.PLP.part.hbond>
-4.7851

> <Gold.PLP.part.metal>
0.0000

> <Gold.PLP.part.buried>
-3.8431

> <Gold.PLP.part.nonpolar>
-35.4496

> <Gold.PLP.part.repulsive>
0.3206

> <Gold.PLP.ligand.clash>
0.0000

> <Gold.PLP.ligand.torsion>
0.6281

> <Gold.PLP.Chemscore.Hbond>
4.5117

> <Gold.PLP.Chemscore.CHOScore>
0.0000

> <Gold.PLP.Chemscore.Metal>
0.0000

> <Gold.Chemscore.Hbonds>
donor molecule, donor type, donor heavy atom, donor atom, acceptor molecule, acceptor atom, score
      L1  H     4    28       P1  7948  1.00
      L1  H     5    29       P1  7948  0.96
      L1  H     8    30       P1  7948  0.50
      L1  H    13    44       P1  8028  1.98

> <Gold.PLP.Chemscore.Internal.Correction>
0.5456

> <Gold.Rescore>
     Score         DG    S(hbond)    S(metal)    S(lipo)     H(rot)  DE(clash)    DE(int)     intcor
     18.57     -19.85       3.02        0.00      97.04       2.76       0.52       0.76       ----

> <Gold.Chemscore.Fitness>
18.5705

> <Gold.Chemscore.DG>
-19.8494

> <Gold.Chemscore.ZeroCoef>
-5.4800

> <Gold.Chemscore.Hbond>
3.0211

> <Gold.Chemscore.Metal>
0.0000

> <Gold.Chemscore.Lipo>
97.0426

> <Gold.Chemscore.Internal_Hbond>
0.0000

> <Gold.Chemscore.DEClash>
0.5186

> <Gold.Chemscore.DEInternal>
0.7603

> <Gold.Chemscore.Rot>
2.7636

> <Gold.Chemscore.Internal.Correction>
   9.000000E+99

> <Gold.Chemscore.Hbonds>
donor molecule, donor type, donor heavy atom, donor atom, acceptor molecule, acceptor atom, score
      L1  H     4    28       P1  7948  0.49
      L1  H     5    29       P1  7948  0.89
      L1  H     8    30       P1  7948  0.22
      L1  H    13    44       P1  8028  0.94

> <Gold.Chemscore.Hbond.Weighted>
-10.0903

> <Gold.Chemscore.Metal.Weighted>
-0.0000

> <Gold.Chemscore.Lipo.Weighted>
-11.3540

> <Gold.Chemscore.Internal_Hbond.Weighted>
0.0000

> <Gold.Chemscore.DEClash.Weighted>
0.5186

> <Gold.Chemscore.DEInternal.Weighted>
0.7603

> <Gold.Chemscore.Rot.Weighted>
7.0749

> <Gold.Chemscore.Internal.Correction.Weighted>
   9.000000E+99

> <Gold.Protein.RotatedTorsions>
[ 6907 6896 6895 6894 ] final   99.23 input  -60.11 | X-H torsion
[ 7974 7965 7964 7962 ] final  128.19 input  175.53 | X-H torsion
[ 8008 7997 7996 7995 ] final   -3.36 input   59.86 | X-H torsion
[ 10167 10162 10161 10158 ] final   17.30 input  -65.29 | X-H torsion
[ 10718 10713 10712 10709 ] final  -82.20 input   66.30 | X-H torsion
[ 10763 10752 10751 10750 ] final  150.21 input  -60.55 | X-H torsion
[ 11005 11000 10999 10996 ] final  -25.21 input  -57.11 | X-H torsion

> <Gold.Protein.ActiveResidues>
 VAL166  LYS551  ARG553  GLY616  TRP617  ASP618  TYR619  PRO620  LYS621  CYS622 
 ASP623  PHE694  ASN695  SER759  ASP760  ASP761  ALA762  ILE779  LEU786  VAL792 
 PHE793  MET794  SER795  GLU796  ALA797  LYS798  CYS799  TRP800  GLU811  SER814 

> <Gold.Protein.RotatedAtoms>
  152.5396  134.0460  159.8088 H   0  0  0  0  0  0  0  0  0  0  0  0  # atno 6907 bound_to 6896
  151.0609  133.5537  159.2641 H   0  0  0  0  0  0  0  0  0  0  0  0  # atno 6908 bound_to 6896
  151.2437  135.0606  159.9088 H   0  0  0  0  0  0  0  0  0  0  0  0  # atno 6909 bound_to 6896
  145.0423  139.3953  143.5096 H   0  0  0  0  0  0  0  0  0  0  0  0  # atno 7974 bound_to 7965
  154.6257  140.2511  155.7494 H   0  0  0  0  0  0  0  0  0  0  0  0  # atno 8008 bound_to 7997
  156.2452  140.2917  156.0506 H   0  0  0  0  0  0  0  0  0  0  0  0  # atno 8009 bound_to 7997
  155.1825  140.0389  157.2875 H   0  0  0  0  0  0  0  0  0  0  0  0  # atno 8010 bound_to 7997
  140.5736  143.9115  150.6732 H   0  0  0  0  0  0  0  0  0  0  0  0  # atno 10167 bound_to 10162
  156.0037  130.4627  150.4068 H   0  0  0  0  0  0  0  0  0  0  0  0  # atno 10718 bound_to 10713
  154.0837  135.2857  155.3285 H   0  0  0  0  0  0  0  0  0  0  0  0  # atno 10763 bound_to 10752
  154.6667  135.5315  153.8089 H   0  0  0  0  0  0  0  0  0  0  0  0  # atno 10764 bound_to 10752
  153.0439  135.6547  154.1010 H   0  0  0  0  0  0  0  0  0  0  0  0  # atno 10765 bound_to 10752
  140.8917  133.7584  156.0429 H   0  0  0  0  0  0  0  0  0  0  0  0  # atno 11005 bound_to 11000
  146.3510  140.0030  142.8674 LP  0  0  0  0  0  0  0  0  0  0  0  0  # atno 17320 bound_to 7965
  145.1632  140.9683  143.4365 LP  0  0  0  0  0  0  0  0  0  0  0  0  # atno 17321 bound_to 7965
  140.2597  143.3533  152.1334 LP  0  0  0  0  0  0  0  0  0  0  0  0  # atno 17342 bound_to 10162
  139.5130  144.6926  151.5718 LP  0  0  0  0  0  0  0  0  0  0  0  0  # atno 17343 bound_to 10162
  157.2133  131.0465  151.2587 LP  0  0  0  0  0  0  0  0  0  0  0  0  # atno 17370 bound_to 10713
  157.3868  130.7260  149.6669 LP  0  0  0  0  0  0  0  0  0  0  0  0  # atno 17371 bound_to 10713
  140.8339  134.3146  157.5339 LP  0  0  0  0  0  0  0  0  0  0  0  0  # atno 17394 bound_to 11000
  139.8730  134.9378  156.3699 LP  0  0  0  0  0  0  0  0  0  0  0  0  # atno 17395 bound_to 11000

$$$$
