AV-unprocessed.smi:3004|AV-procd|sdf|11442|dock8
  -GOLD-   2272016373D 1   1.00000     0.00000
 Structure written by MMmdl.
 47 48  0  0  0  0  0  0  0  0  2 V2000
  151.6769  141.1640  158.2475 C   0  0  0  0  0  0  0  0  0  0  0  0
  150.8848  140.9223  156.9969 C   0  0  0  0  0  0  0  0  0  0  0  0
  150.1334  141.8597  156.2344 C   0  0  0  0  0  0  0  0  0  0  0  0
  149.6153  141.1219  155.2075 C   0  0  0  0  0  0  0  0  0  0  0  0
  148.7382  141.5357  154.0718 C   0  0  0  0  0  0  0  0  0  0  0  0
  150.0576  139.8225  155.3843 N   0  0  0  0  0  0  0  0  0  0  0  0
  149.8024  138.6465  154.5680 C   0  0  0  0  0  0  0  0  0  0  0  0
  149.0763  137.5657  155.3699 C   0  0  0  0  0  0  0  0  0  0  0  0
  148.8681  137.7258  156.5726 O   0  0  0  0  0  0  0  0  0  0  0  0
  148.6969  136.4691  154.6946 N   0  0  0  0  0  0  0  0  0  0  0  0
  147.9724  135.3422  155.2697 C   0  0  0  0  0  0  0  0  0  0  0  0
  146.5013  135.3153  154.8122 C   0  0  0  0  0  0  0  0  0  0  0  0
  146.3819  135.0020  153.3605 N   0  3  1  0  0  0  0  0  0  0  0  0
  146.3066  133.5283  153.1460 C   0  0  0  0  0  0  0  0  0  0  0  0
  146.3144  133.1567  151.6582 C   0  0  0  0  0  0  0  0  0  0  0  0
  145.1496  133.8363  150.9401 C   0  0  0  0  0  0  0  0  0  0  0  0
  145.2433  135.3489  151.1509 C   0  0  0  0  0  0  0  0  0  0  0  0
  145.2869  135.7385  152.6467 C   0  0  2  0  0  0  0  0  0  0  0  0
  145.4384  137.2736  152.7315 C   0  0  0  0  0  0  0  0  0  0  0  0
  150.8369  139.7049  156.4819 N   0  0  0  0  0  0  0  0  0  0  0  0
  151.5739  142.1954  158.5856 H   0  0  0  0  0  0  0  0  0  0  0  0
  152.7376  140.9730  158.0833 H   0  0  0  0  0  0  0  0  0  0  0  0
  151.3416  140.5152  159.0569 H   0  0  0  0  0  0  0  0  0  0  0  0
  149.9953  142.9157  156.4144 H   0  0  0  0  0  0  0  0  0  0  0  0
  148.5230  142.6035  154.1156 H   0  0  0  0  0  0  0  0  0  0  0  0
  147.7881  141.0023  154.1002 H   0  0  0  0  0  0  0  0  0  0  0  0
  149.2163  141.3296  153.1142 H   0  0  0  0  0  0  0  0  0  0  0  0
  149.2093  138.9305  153.6969 H   0  0  0  0  0  0  0  0  0  0  0  0
  150.7497  138.2596  154.1909 H   0  0  0  0  0  0  0  0  0  0  0  0
  148.9029  136.4281  153.7062 H   0  0  0  0  0  0  0  0  0  0  0  0
  148.4716  134.4094  155.0013 H   0  0  0  0  0  0  0  0  0  0  0  0
  148.0408  135.4284  156.3535 H   0  0  0  0  0  0  0  0  0  0  0  0
  145.9287  134.5950  155.3985 H   0  0  0  0  0  0  0  0  0  0  0  0
  146.0678  136.2822  155.0478 H   0  0  0  0  0  0  0  0  0  0  0  0
  147.1466  133.0333  153.6324 H   0  0  0  0  0  0  0  0  0  0  0  0
  145.4015  133.1388  153.6153 H   0  0  0  0  0  0  0  0  0  0  0  0
  147.2600  133.4561  151.2042 H   0  0  0  0  0  0  0  0  0  0  0  0
  146.2422  132.0749  151.5427 H   0  0  0  0  0  0  0  0  0  0  0  0
  145.1716  133.6009  149.8755 H   0  0  0  0  0  0  0  0  0  0  0  0
  144.2002  133.4628  151.3261 H   0  0  0  0  0  0  0  0  0  0  0  0
  146.1359  135.7241  150.6476 H   0  0  0  0  0  0  0  0  0  0  0  0
  144.3942  135.8305  150.6641 H   0  0  0  0  0  0  0  0  0  0  0  0
  144.3367  135.4568  153.1036 H   0  0  0  0  0  0  0  0  0  0  0  0
  144.7400  137.7696  152.0567 H   0  0  0  0  0  0  0  0  0  0  0  0
  146.4431  137.5900  152.4485 H   0  0  0  0  0  0  0  0  0  0  0  0
  145.2231  137.6718  153.7218 H   0  0  0  0  0  0  0  0  0  0  0  0
  147.2414  135.3162  152.9327 H   0  0  0  0  0  0  0  0  0  0  0  0
  1  2  1  0  0  0  0
  1 21  1  0  0  0  0
  1 22  1  0  0  0  0
  1 23  1  0  0  0  0
  2 20  2  0  0  0  0
  2  3  1  0  0  0  0
  3  4  2  0  0  0  0
  3 24  1  0  0  0  0
  4  5  1  0  0  0  0
  4  6  1  0  0  0  0
  5 25  1  0  0  0  0
  5 26  1  0  0  0  0
  5 27  1  0  0  0  0
  6  7  1  0  0  0  0
  6 20  1  0  0  0  0
  7  8  1  0  0  0  0
  7 28  1  0  0  0  0
  7 29  1  0  0  0  0
  8  9  2  0  0  0  0
  8 10  1  0  0  0  0
 10 11  1  0  0  0  0
 10 30  1  0  0  0  0
 11 12  1  0  0  0  0
 11 31  1  0  0  0  0
 11 32  1  0  0  0  0
 12 13  1  0  0  0  0
 12 33  1  0  0  0  0
 12 34  1  0  0  0  0
 13 18  1  0  0  0  0
 13 14  1  0  0  0  0
 13 47  1  0  0  0  0
 14 15  1  0  0  0  0
 14 35  1  0  0  0  0
 14 36  1  0  0  0  0
 15 16  1  0  0  0  0
 15 37  1  0  0  0  0
 15 38  1  0  0  0  0
 16 17  1  0  0  0  0
 16 39  1  0  0  0  0
 16 40  1  0  0  0  0
 17 18  1  0  0  0  0
 17 41  1  0  0  0  0
 17 42  1  0  0  0  0
 18 19  1  0  0  0  0
 18 43  1  0  0  0  0
 19 44  1  0  0  0  0
 19 45  1  0  0  0  0
 19 46  1  0  0  0  0
M  CHG  1  13   1
M  END
> <s_m_source_file>
AV-unprocessed.smi

> <i_m_source_file_index>
3004

> <i_lp_mmshare_version>
43012

> <i_f3d_flags>
0

> <s_epik_input>
W0NIM11jMVtjSF1jKFtDSDNdKW4objEpW0NIMl1DKD1PKVtOSF1bQ0gyXVtDSDJdTjJbQ0gyXVtDSDJdW0NIMl1bQ0gyXVtDQEhdMltDSDNd

> <s_epik_cmdline>
J2VwaWtfcHl0aG9uJywgJy1waCcsICc3LjAnLCAnLXRuJywgJzgnLCAnLW1hJywgJzIwMCcsICctbWV0YWxfYmluZGluZycsICctaW1hZScsICc8aW5maWxlLm1hZT4nLCAnLW9tYWUnLCAnPG91dGZpbGUubWFlPic=

> <r_lp_tautomer_probability>
1

> <r_epik_Ionization_Penalty>
0.00303644

> <r_epik_Ionization_Penalty_Charging>
0.00284254

> <r_epik_Ionization_Penalty_Neutral>
0.000193908

> <r_epik_State_Penalty>
-0

> <r_epik_Charging_Adjusted_Penalty>
0.00284254

> <i_epik_Tot_Q>
1

> <i_epik_Tot_abs_Q>
1

> <r_epik_Metal_State_Penalty>
-0

> <b_epik_Metal_Only>
0

> <s_lp_Force_Field>
OPLS_2005

> <r_lp_Energy>
17.2859

> <b_lp_Chiralities_Consistent>
1

> <s_lp_Variant>
AV-unprocessed.smi:3004-4

> <Gold.Version>
5.8.1

> <Gold.Id.Protein>
6NUR|6NUR_protein|mol2

> <Gold.PLP.Fitness>
41.3064

> <Gold.PLP.PLP>
-33.3554

> <Gold.PLP.part.hbond>
-2.0000

> <Gold.PLP.part.metal>
0.0000

> <Gold.PLP.part.buried>
-2.7547

> <Gold.PLP.part.nonpolar>
-28.1373

> <Gold.PLP.part.repulsive>
0.0268

> <Gold.PLP.ligand.clash>
0.0000

> <Gold.PLP.ligand.torsion>
0.5432

> <Gold.PLP.Chemscore.Hbond>
3.0000

> <Gold.PLP.Chemscore.CHOScore>
0.0000

> <Gold.PLP.Chemscore.Metal>
0.0000

> <Gold.Chemscore.Hbonds>
donor molecule, donor type, donor heavy atom, donor atom, acceptor molecule, acceptor atom, score
      L1  H    10    30       P1  7948  1.00
      L1  H    13    47       P1  7948  1.14

> <Gold.PLP.Chemscore.Internal.Correction>
0.0375

> <Gold.Rescore>
     Score         DG    S(hbond)    S(metal)    S(lipo)     H(rot)  DE(clash)    DE(int)     intcor
     15.14     -17.14       1.95        0.00      80.30       1.67       0.02       1.98       ----

> <Gold.Chemscore.Fitness>
15.1375

> <Gold.Chemscore.DG>
-17.1396

> <Gold.Chemscore.ZeroCoef>
-5.4800

> <Gold.Chemscore.Hbond>
1.9545

> <Gold.Chemscore.Metal>
0.0000

> <Gold.Chemscore.Lipo>
80.3048

> <Gold.Chemscore.Internal_Hbond>
0.0000

> <Gold.Chemscore.DEClash>
0.0247

> <Gold.Chemscore.DEInternal>
1.9773

> <Gold.Chemscore.Rot>
1.6657

> <Gold.Chemscore.Internal.Correction>
   9.000000E+99

> <Gold.Chemscore.Hbonds>
donor molecule, donor type, donor heavy atom, donor atom, acceptor molecule, acceptor atom, score
      L1  H    10    30       P1  7948  1.00
      L1  H    13    47       P1  7948  0.58

> <Gold.Chemscore.Hbond.Weighted>
-6.5280

> <Gold.Chemscore.Metal.Weighted>
-0.0000

> <Gold.Chemscore.Lipo.Weighted>
-9.3957

> <Gold.Chemscore.Internal_Hbond.Weighted>
0.0000

> <Gold.Chemscore.DEClash.Weighted>
0.0247

> <Gold.Chemscore.DEInternal.Weighted>
1.9773

> <Gold.Chemscore.Rot.Weighted>
4.2641

> <Gold.Chemscore.Internal.Correction.Weighted>
   9.000000E+99

> <Gold.Protein.RotatedTorsions>
[ 6907 6896 6895 6894 ] final  -50.76 input  -60.11 | X-H torsion
[ 7974 7965 7964 7962 ] final  172.83 input  175.53 | X-H torsion
[ 8008 7997 7996 7995 ] final   12.89 input   59.86 | X-H torsion
[ 10167 10162 10161 10158 ] final  178.23 input  -65.29 | X-H torsion
[ 10718 10713 10712 10709 ] final  -54.37 input   66.30 | X-H torsion
[ 10763 10752 10751 10750 ] final  -29.23 input  -60.55 | X-H torsion
[ 11005 11000 10999 10996 ] final  -14.83 input  -57.11 | X-H torsion

> <Gold.Protein.ActiveResidues>
 VAL166  LYS551  ARG553  GLY616  TRP617  ASP618  TYR619  PRO620  LYS621  CYS622 
 ASP623  PHE694  ASN695  SER759  ASP760  ASP761  ALA762  ILE779  LEU786  VAL792 
 PHE793  MET794  SER795  GLU796  ALA797  LYS798  CYS799  TRP800  GLU811  SER814 

> <Gold.Protein.RotatedAtoms>
  150.8676  134.8043  159.7130 H   0  0  0  0  0  0  0  0  0  0  0  0  # atno 6907 bound_to 6896
  152.4692  134.4998  159.9731 H   0  0  0  0  0  0  0  0  0  0  0  0  # atno 6908 bound_to 6896
  151.5092  133.3450  159.2917 H   0  0  0  0  0  0  0  0  0  0  0  0  # atno 6909 bound_to 6896
  144.7258  139.9557  143.6433 H   0  0  0  0  0  0  0  0  0  0  0  0  # atno 7974 bound_to 7965
  154.8269  140.2893  155.5749 H   0  0  0  0  0  0  0  0  0  0  0  0  # atno 8008 bound_to 7997
  156.3002  140.2539  156.3117 H   0  0  0  0  0  0  0  0  0  0  0  0  # atno 8009 bound_to 7997
  154.9275  140.0384  157.2020 H   0  0  0  0  0  0  0  0  0  0  0  0  # atno 8010 bound_to 7997
  139.5285  144.2704  152.0632 H   0  0  0  0  0  0  0  0  0  0  0  0  # atno 10167 bound_to 10162
  156.1456  130.4153  150.0030 H   0  0  0  0  0  0  0  0  0  0  0  0  # atno 10718 bound_to 10713
  153.7613  135.6919  153.4925 H   0  0  0  0  0  0  0  0  0  0  0  0  # atno 10763 bound_to 10752
  153.1937  135.4462  155.0179 H   0  0  0  0  0  0  0  0  0  0  0  0  # atno 10764 bound_to 10752
  154.8152  135.3395  154.7128 H   0  0  0  0  0  0  0  0  0  0  0  0  # atno 10765 bound_to 10752
  140.7905  133.8292  155.9375 H   0  0  0  0  0  0  0  0  0  0  0  0  # atno 11005 bound_to 11000
  146.0677  139.3667  143.0542 LP  0  0  0  0  0  0  0  0  0  0  0  0  # atno 17320 bound_to 7965
  145.8009  140.9771  143.0999 LP  0  0  0  0  0  0  0  0  0  0  0  0  # atno 17321 bound_to 7965
  140.2164  144.4511  150.6362 LP  0  0  0  0  0  0  0  0  0  0  0  0  # atno 17342 bound_to 10162
  140.6447  143.2211  151.6212 LP  0  0  0  0  0  0  0  0  0  0  0  0  # atno 17343 bound_to 10162
  156.7902  130.9253  151.3646 LP  0  0  0  0  0  0  0  0  0  0  0  0  # atno 17370 bound_to 10713
  157.6614  130.8969  149.9837 LP  0  0  0  0  0  0  0  0  0  0  0  0  # atno 17371 bound_to 10713
  140.9394  134.1920  157.4808 LP  0  0  0  0  0  0  0  0  0  0  0  0  # atno 17394 bound_to 11000
  139.8732  134.9866  156.5330 LP  0  0  0  0  0  0  0  0  0  0  0  0  # atno 17395 bound_to 11000

$$$$
