AV-unprocessed.smi:1591|AV-procd|sdf|6397|dock3
  -GOLD-   22720 7 33D 1   1.00000     0.00000
 Structure written by MMmdl.
 52 55  0  0  0  0  0  0  0  0  1 V2000
  147.2070  142.0516  154.1230 C   0  0  0  0  0  0  0  0  0  0  0  0
  146.8017  140.6188  153.7448 C   0  0  0  0  0  0  0  0  0  0  0  0
  147.9952  139.7142  153.3489 C   0  0  2  0  0  0  0  0  0  0  0  0
  147.4754  138.4358  152.8573 N   0  0  0  0  0  0  0  0  0  0  0  0
  146.3657  137.8111  153.2812 C   0  0  0  0  0  0  0  0  0  0  0  0
  145.6731  138.2079  154.2179 O   0  0  0  0  0  0  0  0  0  0  0  0
  145.9652  136.5538  152.5050 C   0  0  0  0  0  0  0  0  0  0  0  0
  144.6067  136.1379  152.8766 N   0  0  0  0  0  0  0  0  0  0  0  0
  143.5411  137.0021  152.6664 C   0  0  0  0  0  0  0  0  0  0  0  0
  142.2667  136.7177  153.0236 C   0  0  0  0  0  0  0  0  0  0  0  0
  141.9470  135.4485  153.6677 C   0  0  0  0  0  0  0  0  0  0  0  0
  140.8258  135.1005  154.0311 O   0  0  0  0  0  0  0  0  0  0  0  0
  143.0445  134.6057  153.8618 N   0  0  0  0  0  0  0  0  0  0  0  0
  144.3607  134.8933  153.4966 C   0  0  0  0  0  0  0  0  0  0  0  0
  145.2551  134.0796  153.7230 O   0  0  0  0  0  0  0  0  0  0  0  0
  149.0626  139.4767  154.4724 C   0  0  0  0  0  0  0  0  0  0  0  0
  149.8324  140.7801  154.8366 C   0  0  0  0  0  0  0  0  0  0  0  0
  150.8583  140.5130  155.9600 C   0  0  1  0  0  0  0  0  0  0  0  0
  150.1285  140.0100  157.2223 C   0  0  0  0  0  0  0  0  0  0  0  0
  149.3912  138.6970  156.8897 C   0  0  2  0  0  0  0  0  0  0  0  0
  150.4019  137.6304  156.4266 C   0  0  0  0  0  0  0  0  0  0  0  0
  151.1279  138.1416  155.1674 C   0  0  2  0  0  0  0  0  0  0  0  0
  151.8754  139.4511  155.4935 C   0  0  0  0  0  0  0  0  0  0  0  0
  150.1027  138.4011  154.0429 C   0  0  0  0  0  0  0  0  0  0  0  0
  148.3658  138.9578  155.7682 C   0  0  0  0  0  0  0  0  0  0  0  0
  142.8726  133.7164  154.3079 H   0  0  0  0  0  0  0  0  0  0  0  0
  146.3410  142.6188  154.4642 H   0  0  0  0  0  0  0  0  0  0  0  0
  147.6354  142.5887  153.2765 H   0  0  0  0  0  0  0  0  0  0  0  0
  147.9417  142.0523  154.9285 H   0  0  0  0  0  0  0  0  0  0  0  0
  146.2810  140.1987  154.6036 H   0  0  0  0  0  0  0  0  0  0  0  0
  146.0730  140.6641  152.9359 H   0  0  0  0  0  0  0  0  0  0  0  0
  148.5039  140.2288  152.5317 H   0  0  0  0  0  0  0  0  0  0  0  0
  147.9750  138.0201  152.0849 H   0  0  0  0  0  0  0  0  0  0  0  0
  146.0208  136.7380  151.4303 H   0  0  0  0  0  0  0  0  0  0  0  0
  146.6948  135.7653  152.6970 H   0  0  0  0  0  0  0  0  0  0  0  0
  143.7339  137.9581  152.1997 H   0  0  0  0  0  0  0  0  0  0  0  0
  141.4806  137.4345  152.8349 H   0  0  0  0  0  0  0  0  0  0  0  0
  150.3530  141.1754  153.9646 H   0  0  0  0  0  0  0  0  0  0  0  0
  149.1421  141.5602  155.1596 H   0  0  0  0  0  0  0  0  0  0  0  0
  151.3852  141.4387  156.1939 H   0  0  0  0  0  0  0  0  0  0  0  0
  150.8402  139.8493  158.0331 H   0  0  0  0  0  0  0  0  0  0  0  0
  149.4216  140.7618  157.5761 H   0  0  0  0  0  0  0  0  0  0  0  0
  148.8711  138.3398  157.7791 H   0  0  0  0  0  0  0  0  0  0  0  0
  151.1204  137.4192  157.2196 H   0  0  0  0  0  0  0  0  0  0  0  0
  149.8904  136.6908  156.2137 H   0  0  0  0  0  0  0  0  0  0  0  0
  151.8450  137.3900  154.8355 H   0  0  0  0  0  0  0  0  0  0  0  0
  152.4183  139.8062  154.6165 H   0  0  0  0  0  0  0  0  0  0  0  0
  152.6223  139.2765  156.2690 H   0  0  0  0  0  0  0  0  0  0  0  0
  149.5979  137.4714  153.7769 H   0  0  0  0  0  0  0  0  0  0  0  0
  150.6501  138.7182  153.1563 H   0  0  0  0  0  0  0  0  0  0  0  0
  147.6357  139.6781  156.1371 H   0  0  0  0  0  0  0  0  0  0  0  0
  147.8083  138.0443  155.5566 H   0  0  0  0  0  0  0  0  0  0  0  0
  1  2  1  0  0  0  0
  1 27  1  0  0  0  0
  1 28  1  0  0  0  0
  1 29  1  0  0  0  0
  2  3  1  0  0  0  0
  2 30  1  0  0  0  0
  2 31  1  0  0  0  0
  3  4  1  0  0  0  0
  3 16  1  0  0  0  0
  3 32  1  0  0  0  0
  4  5  1  0  0  0  0
  4 33  1  0  0  0  0
  5  6  2  0  0  0  0
  5  7  1  0  0  0  0
  7  8  1  0  0  0  0
  7 34  1  0  0  0  0
  7 35  1  0  0  0  0
  8 14  1  0  0  0  0
  8  9  1  0  0  0  0
  9 10  2  0  0  0  0
  9 36  1  0  0  0  0
 10 11  1  0  0  0  0
 10 37  1  0  0  0  0
 11 12  2  0  0  0  0
 11 13  1  0  0  0  0
 13 26  1  0  0  0  0
 13 14  1  0  0  0  0
 14 15  2  0  0  0  0
 16 24  1  0  0  0  0
 16 25  1  0  0  0  0
 16 17  1  0  0  0  0
 17 18  1  0  0  0  0
 17 38  1  0  0  0  0
 17 39  1  0  0  0  0
 18 23  1  0  0  0  0
 18 19  1  0  0  0  0
 18 40  1  0  0  0  0
 19 20  1  0  0  0  0
 19 41  1  0  0  0  0
 19 42  1  0  0  0  0
 20 21  1  0  0  0  0
 20 25  1  0  0  0  0
 20 43  1  0  0  0  0
 21 22  1  0  0  0  0
 21 44  1  0  0  0  0
 21 45  1  0  0  0  0
 22 23  1  0  0  0  0
 22 24  1  0  0  0  0
 22 46  1  0  0  0  0
 23 47  1  0  0  0  0
 23 48  1  0  0  0  0
 24 49  1  0  0  0  0
 24 50  1  0  0  0  0
 25 51  1  0  0  0  0
 25 52  1  0  0  0  0
M  END
> <s_m_source_file>
AV-unprocessed.smi

> <i_m_source_file_index>
1591

> <i_lp_mmshare_version>
43012

> <i_f3d_flags>
0

> <s_epik_input>
W0NIMl0xW0NASF0oW0NIMl0yKVtDSDJdW0NASF0oW0NIMl0zKVtDSDJdW0NAQEhdMVtDSDJdQzIzW0NASF0oW0NIMl1bQ0gzXSlbTkhdQyg9TylbQ0gyXW40W2NIXVtjSF1jKD1PKVtuSF1jND1P

> <s_epik_cmdline>
J2VwaWtfcHl0aG9uJywgJy1waCcsICc3LjAnLCAnLXRuJywgJzgnLCAnLW1hJywgJzIwMCcsICctbWV0YWxfYmluZGluZycsICctaW1hZScsICc8aW5maWxlLm1hZT4nLCAnLW9tYWUnLCAnPG91dGZpbGUubWFlPic=

> <r_lp_tautomer_probability>
0.999537

> <r_epik_Ionization_Penalty>
0.00297067

> <r_epik_Ionization_Penalty_Charging>
0.00297065

> <r_epik_Ionization_Penalty_Neutral>
1.95363e-08

> <r_epik_State_Penalty>
0.00208437

> <r_epik_Charging_Adjusted_Penalty>
0.00505502

> <i_epik_Tot_Q>
0

> <i_epik_Tot_abs_Q>
0

> <r_epik_Metal_State_Penalty>
0.36072

> <b_epik_Metal_Only>
0

> <s_lp_Force_Field>
OPLS_2005

> <r_lp_Energy>
39.079

> <b_lp_Chiralities_Consistent>
1

> <s_lp_Variant>
AV-unprocessed.smi:1591-1

> <Gold.Version>
5.8.1

> <Gold.Id.Protein>
6NUR|6NUR_protein|mol2

> <Gold.PLP.Fitness>
47.7998

> <Gold.PLP.PLP>
-36.4988

> <Gold.PLP.part.hbond>
-4.0569

> <Gold.PLP.part.metal>
0.0000

> <Gold.PLP.part.buried>
-0.9449

> <Gold.PLP.part.nonpolar>
-32.5077

> <Gold.PLP.part.repulsive>
0.4202

> <Gold.PLP.ligand.clash>
1.6697

> <Gold.PLP.ligand.torsion>
0.6287

> <Gold.PLP.Chemscore.Hbond>
2.6552

> <Gold.PLP.Chemscore.CHOScore>
2.0000

> <Gold.PLP.Chemscore.Metal>
0.0000

> <Gold.Chemscore.Hbonds>
donor molecule, donor type, donor heavy atom, donor atom, acceptor molecule, acceptor atom, score
      L1  H     4    33       P1  7948  0.69
      L1  H    13    26       P1 10957  1.00
      P1  H 11000 11005       L1    12  1.00
      L1  C     9    36       P1 10171  1.00
      L1  C     9    36       P1 10175  1.00

> <Gold.PLP.Chemscore.Internal.Correction>
0.2625

> <Gold.Rescore>
     Score         DG    S(hbond)    S(metal)    S(lipo)     H(rot)  DE(clash)    DE(int)     intcor
     14.03     -18.64       2.78        0.00      77.81       2.04       0.32       4.30       ----

> <Gold.Chemscore.Fitness>
14.0271

> <Gold.Chemscore.DG>
-18.6413

> <Gold.Chemscore.ZeroCoef>
-5.4800

> <Gold.Chemscore.Hbond>
2.7791

> <Gold.Chemscore.Metal>
0.0000

> <Gold.Chemscore.Lipo>
77.8096

> <Gold.Chemscore.Internal_Hbond>
0.0000

> <Gold.Chemscore.DEClash>
0.3158

> <Gold.Chemscore.DEInternal>
4.2984

> <Gold.Chemscore.Rot>
2.0409

> <Gold.Chemscore.Internal.Correction>
   9.000000E+99

> <Gold.Chemscore.Hbonds>
donor molecule, donor type, donor heavy atom, donor atom, acceptor molecule, acceptor atom, score
      L1  H     4    33       P1  7948  0.64
      L1  H    13    26       P1 10957  0.94
      P1  H 11000 11005       L1    12  0.98

> <Gold.Chemscore.Hbond.Weighted>
-9.2822

> <Gold.Chemscore.Metal.Weighted>
-0.0000

> <Gold.Chemscore.Lipo.Weighted>
-9.1037

> <Gold.Chemscore.Internal_Hbond.Weighted>
0.0000

> <Gold.Chemscore.DEClash.Weighted>
0.3158

> <Gold.Chemscore.DEInternal.Weighted>
4.2984

> <Gold.Chemscore.Rot.Weighted>
5.2246

> <Gold.Chemscore.Internal.Correction.Weighted>
   9.000000E+99

> <Gold.Protein.RotatedTorsions>
[ 6907 6896 6895 6894 ] final  136.83 input  -60.11 | X-H torsion
[ 7974 7965 7964 7962 ] final  -32.08 input  175.53 | X-H torsion
[ 8008 7997 7996 7995 ] final -156.43 input   59.86 | X-H torsion
[ 10167 10162 10161 10158 ] final  -84.15 input  -65.29 | X-H torsion
[ 10718 10713 10712 10709 ] final   58.45 input   66.30 | X-H torsion
[ 10763 10752 10751 10750 ] final -106.26 input  -60.55 | X-H torsion
[ 11005 11000 10999 10996 ] final   22.00 input  -57.11 | X-H torsion

> <Gold.Protein.ActiveResidues>
 VAL166  LYS551  ARG553  GLY616  TRP617  ASP618  TYR619  PRO620  LYS621  CYS622 
 ASP623  PHE694  ASN695  SER759  ASP760  ASP761  ALA762  ILE779  LEU786  VAL792 
 PHE793  MET794  SER795  GLU796  ALA797  LYS798  CYS799  TRP800  GLU811  SER814 

> <Gold.Protein.RotatedAtoms>
  152.2849  133.5505  159.5520 H   0  0  0  0  0  0  0  0  0  0  0  0  # atno 6907 bound_to 6896
  150.7211  134.0511  159.3807 H   0  0  0  0  0  0  0  0  0  0  0  0  # atno 6908 bound_to 6896
  151.8420  135.0587  160.0500 H   0  0  0  0  0  0  0  0  0  0  0  0  # atno 6909 bound_to 6896
  146.1017  140.5748  142.8818 H   0  0  0  0  0  0  0  0  0  0  0  0  # atno 7974 bound_to 7965
  155.7171  140.0785  157.2346 H   0  0  0  0  0  0  0  0  0  0  0  0  # atno 8008 bound_to 7997
  154.4050  140.1619  156.2415 H   0  0  0  0  0  0  0  0  0  0  0  0  # atno 8009 bound_to 7997
  155.9230  140.3396  155.6191 H   0  0  0  0  0  0  0  0  0  0  0  0  # atno 8010 bound_to 7997
  140.4159  143.2603  151.8955 H   0  0  0  0  0  0  0  0  0  0  0  0  # atno 10167 bound_to 10162
  157.5597  130.8826  149.9091 H   0  0  0  0  0  0  0  0  0  0  0  0  # atno 10718 bound_to 10713
  154.8001  135.4718  154.0254 H   0  0  0  0  0  0  0  0  0  0  0  0  # atno 10763 bound_to 10752
  153.1767  135.6834  153.8541 H   0  0  0  0  0  0  0  0  0  0  0  0  # atno 10764 bound_to 10752
  153.8105  135.3217  155.3378 H   0  0  0  0  0  0  0  0  0  0  0  0  # atno 10765 bound_to 10752
  140.3854  134.1876  155.7663 H   0  0  0  0  0  0  0  0  0  0  0  0  # atno 11005 bound_to 11000
  144.7438  140.5014  143.6850 LP  0  0  0  0  0  0  0  0  0  0  0  0  # atno 17320 bound_to 7965
  145.5840  139.1491  143.3219 LP  0  0  0  0  0  0  0  0  0  0  0  0  # atno 17321 bound_to 7965
  139.4782  144.5488  151.8417 LP  0  0  0  0  0  0  0  0  0  0  0  0  # atno 17342 bound_to 10162
  140.4587  144.1753  150.5904 LP  0  0  0  0  0  0  0  0  0  0  0  0  # atno 17343 bound_to 10162
  156.0651  130.3693  150.0896 LP  0  0  0  0  0  0  0  0  0  0  0  0  # atno 17370 bound_to 10713
  156.9061  130.9636  151.3569 LP  0  0  0  0  0  0  0  0  0  0  0  0  # atno 17371 bound_to 10713
  141.1909  133.8206  157.0900 LP  0  0  0  0  0  0  0  0  0  0  0  0  # atno 17394 bound_to 11000
  140.0447  134.9836  157.1026 LP  0  0  0  0  0  0  0  0  0  0  0  0  # atno 17395 bound_to 11000

$$$$
