AV-unprocessed.smi:2580|AV-procd|sdf|10130|dock10
  -GOLD-   2272014143D 1   1.00000     0.00000
 Structure written by MMmdl.
 29 30  0  0  0  0  0  0  0  0  1 V2000
  149.1894  140.4398  154.6594 C   0  0  0  0  0  0  0  0  0  0  0  0
  150.2907  139.7834  155.5072 C   0  0  1  0  0  0  0  0  0  0  0  0
  151.0341  138.6788  154.7841 C   0  0  0  0  0  0  0  0  0  0  0  0
  152.3042  138.5525  155.6175 C   0  0  0  0  0  0  0  0  0  0  0  0
  152.5701  139.8589  156.1178 O   0  0  0  0  0  0  0  0  0  0  0  0
  151.4486  140.7167  155.8979 C   0  0  2  0  0  0  0  0  0  0  0  0
  151.1992  141.5850  157.1412 C   0  0  0  0  0  0  0  0  0  0  0  0
  150.1734  142.2611  157.2237 O   0  0  0  0  0  0  0  0  0  0  0  0
  152.1650  141.5534  158.0788 N   0  0  0  0  0  0  0  0  0  0  0  0
  152.2212  142.2402  159.3225 C   0  0  0  0  0  0  0  0  0  0  0  0
  152.3896  141.6060  160.5105 N   0  0  0  0  0  0  0  0  0  0  0  0
  152.4323  142.3296  161.6483 C   0  0  0  0  0  0  0  0  0  0  0  0
  152.3094  143.7301  161.6737 C   0  0  0  0  0  0  0  0  0  0  0  0
  152.1334  144.4010  160.4509 C   0  0  0  0  0  0  0  0  0  0  0  0
  152.0882  143.6509  159.2590 C   0  0  0  0  0  0  0  0  0  0  0  0
  151.8720  144.4745  157.7527 Cl  0  0  0  0  0  0  0  0  0  0  0  0
  149.5960  140.8739  153.7456 H   0  0  0  0  0  0  0  0  0  0  0  0
  148.6847  141.2349  155.2078 H   0  0  0  0  0  0  0  0  0  0  0  0
  148.4336  139.7086  154.3722 H   0  0  0  0  0  0  0  0  0  0  0  0
  149.8412  139.3623  156.4087 H   0  0  0  0  0  0  0  0  0  0  0  0
  150.4697  137.7476  154.7267 H   0  0  0  0  0  0  0  0  0  0  0  0
  151.2852  138.9891  153.7686 H   0  0  0  0  0  0  0  0  0  0  0  0
  152.1384  137.8852  156.4640 H   0  0  0  0  0  0  0  0  0  0  0  0
  153.1451  138.1669  155.0409 H   0  0  0  0  0  0  0  0  0  0  0  0
  151.6962  141.3696  155.0596 H   0  0  0  0  0  0  0  0  0  0  0  0
  152.9520  140.9520  157.8810 H   0  0  0  0  0  0  0  0  0  0  0  0
  152.5677  141.7750  162.5650 H   0  0  0  0  0  0  0  0  0  0  0  0
  152.3486  144.2741  162.6058 H   0  0  0  0  0  0  0  0  0  0  0  0
  152.0344  145.4764  160.4278 H   0  0  0  0  0  0  0  0  0  0  0  0
  1  2  1  0  0  0  0
  1 17  1  0  0  0  0
  1 18  1  0  0  0  0
  1 19  1  0  0  0  0
  2  6  1  0  0  0  0
  2  3  1  0  0  0  0
  2 20  1  0  0  0  0
  3  4  1  0  0  0  0
  3 21  1  0  0  0  0
  3 22  1  0  0  0  0
  4  5  1  0  0  0  0
  4 23  1  0  0  0  0
  4 24  1  0  0  0  0
  5  6  1  0  0  0  0
  6  7  1  0  0  0  0
  6 25  1  0  0  0  0
  7  8  2  0  0  0  0
  7  9  1  0  0  0  0
  9 10  1  0  0  0  0
  9 26  1  0  0  0  0
 10 15  1  0  0  0  0
 10 11  2  0  0  0  0
 11 12  1  0  0  0  0
 12 13  2  0  0  0  0
 12 27  1  0  0  0  0
 13 14  1  0  0  0  0
 13 28  1  0  0  0  0
 14 15  2  0  0  0  0
 14 29  1  0  0  0  0
 15 16  1  0  0  0  0
M  END
> <s_m_source_file>
AV-unprocessed.smi

> <i_m_source_file_index>
2580

> <i_lp_mmshare_version>
43012

> <i_f3d_flags>
0

> <s_epik_input>
W0NIM11bQ0BASF0xW0NIMl1bQ0gyXU9bQ0BIXTFDKD1PKVtOSF1jMm5bY0hdW2NIXVtjSF1jMkNs

> <s_epik_cmdline>
J2VwaWtfcHl0aG9uJywgJy1waCcsICc3LjAnLCAnLXRuJywgJzgnLCAnLW1hJywgJzIwMCcsICctbWV0YWxfYmluZGluZycsICctaW1hZScsICc8aW5maWxlLm1hZT4nLCAnLW9tYWUnLCAnPG91dGZpbGUubWFlPic=

> <r_lp_tautomer_probability>
1

> <r_epik_Ionization_Penalty>
4.32497e-05

> <r_epik_Ionization_Penalty_Charging>
0

> <r_epik_Ionization_Penalty_Neutral>
4.32497e-05

> <r_epik_State_Penalty>
-0

> <r_epik_Charging_Adjusted_Penalty>
0

> <i_epik_Tot_Q>
0

> <i_epik_Tot_abs_Q>
0

> <r_epik_Metal_State_Penalty>
-0

> <b_epik_Metal_Only>
0

> <s_lp_Force_Field>
OPLS_2005

> <r_lp_Energy>
21.1194

> <b_lp_Chiralities_Consistent>
1

> <s_lp_Variant>
AV-unprocessed.smi:2580-4

> <Gold.Version>
5.8.1

> <Gold.Id.Protein>
6NUR|6NUR_protein|mol2

> <Gold.PLP.Fitness>
40.2682

> <Gold.PLP.PLP>
-38.6345

> <Gold.PLP.part.hbond>
-1.0000

> <Gold.PLP.part.metal>
0.0000

> <Gold.PLP.part.buried>
-3.3386

> <Gold.PLP.part.nonpolar>
-33.2175

> <Gold.PLP.part.repulsive>
0.2171

> <Gold.PLP.ligand.clash>
0.0000

> <Gold.PLP.ligand.torsion>
0.6840

> <Gold.PLP.Chemscore.Hbond>
1.0000

> <Gold.PLP.Chemscore.CHOScore>
0.0000

> <Gold.PLP.Chemscore.Metal>
0.0000

> <Gold.Chemscore.Hbonds>
donor molecule, donor type, donor heavy atom, donor atom, acceptor molecule, acceptor atom, score
      P1  H  7997  8010       L1     5  1.00

> <Gold.PLP.Chemscore.Internal.Correction>
0.0017

> <Gold.Rescore>
     Score         DG    S(hbond)    S(metal)    S(lipo)     H(rot)  DE(clash)    DE(int)     intcor
     14.57     -17.22       0.96        0.00      94.85       1.00       0.01       2.63       ----

> <Gold.Chemscore.Fitness>
14.5714

> <Gold.Chemscore.DG>
-17.2154

> <Gold.Chemscore.ZeroCoef>
-5.4800

> <Gold.Chemscore.Hbond>
0.9576

> <Gold.Chemscore.Metal>
0.0000

> <Gold.Chemscore.Lipo>
94.8455

> <Gold.Chemscore.Internal_Hbond>
0.0000

> <Gold.Chemscore.DEClash>
0.0132

> <Gold.Chemscore.DEInternal>
2.6308

> <Gold.Chemscore.Rot>
1.0000

> <Gold.Chemscore.Internal.Correction>
   9.000000E+99

> <Gold.Chemscore.Hbonds>
donor molecule, donor type, donor heavy atom, donor atom, acceptor molecule, acceptor atom, score
      P1  H  7997  8010       L1     5  0.74

> <Gold.Chemscore.Hbond.Weighted>
-3.1985

> <Gold.Chemscore.Metal.Weighted>
-0.0000

> <Gold.Chemscore.Lipo.Weighted>
-11.0969

> <Gold.Chemscore.Internal_Hbond.Weighted>
0.0000

> <Gold.Chemscore.DEClash.Weighted>
0.0132

> <Gold.Chemscore.DEInternal.Weighted>
2.6308

> <Gold.Chemscore.Rot.Weighted>
2.5600

> <Gold.Chemscore.Internal.Correction.Weighted>
   9.000000E+99

> <Gold.Protein.RotatedTorsions>
[ 6907 6896 6895 6894 ] final   66.29 input  -60.11 | X-H torsion
[ 7974 7965 7964 7962 ] final -139.36 input  175.53 | X-H torsion
[ 8008 7997 7996 7995 ] final   90.39 input   59.86 | X-H torsion
[ 10167 10162 10161 10158 ] final  149.62 input  -65.29 | X-H torsion
[ 10718 10713 10712 10709 ] final   58.08 input   66.30 | X-H torsion
[ 10763 10752 10751 10750 ] final  100.48 input  -60.55 | X-H torsion
[ 11005 11000 10999 10996 ] final   24.23 input  -57.11 | X-H torsion

> <Gold.Protein.ActiveResidues>
 VAL166  LYS551  ARG553  GLY616  TRP617  ASP618  TYR619  PRO620  LYS621  CYS622 
 ASP623  PHE694  ASN695  SER759  ASP760  ASP761  ALA762  ILE779  LEU786  VAL792 
 PHE793  MET794  SER795  GLU796  ALA797  LYS798  CYS799  TRP800  GLU811  SER814 

> <Gold.Protein.RotatedAtoms>
  152.4470  134.5474  159.9856 H   0  0  0  0  0  0  0  0  0  0  0  0  # atno 6907 bound_to 6896
  151.5556  133.3405  159.2969 H   0  0  0  0  0  0  0  0  0  0  0  0  # atno 6908 bound_to 6896
  150.8389  134.7705  159.6979 H   0  0  0  0  0  0  0  0  0  0  0  0  # atno 6909 bound_to 6896
  144.8683  140.6328  143.5283 H   0  0  0  0  0  0  0  0  0  0  0  0  # atno 7974 bound_to 7965
  156.0113  140.3350  155.6944 H   0  0  0  0  0  0  0  0  0  0  0  0  # atno 8008 bound_to 7997
  155.6153  140.0669  157.2712 H   0  0  0  0  0  0  0  0  0  0  0  0  # atno 8009 bound_to 7997
  154.4282  140.1786  156.1303 H   0  0  0  0  0  0  0  0  0  0  0  0  # atno 8010 bound_to 7997
  139.4859  144.5587  151.7270 H   0  0  0  0  0  0  0  0  0  0  0  0  # atno 10167 bound_to 10162
  157.5567  130.8805  149.9047 H   0  0  0  0  0  0  0  0  0  0  0  0  # atno 10718 bound_to 10713
  153.3145  135.4077  155.1365 H   0  0  0  0  0  0  0  0  0  0  0  0  # atno 10763 bound_to 10752
  154.8585  135.3572  154.5678 H   0  0  0  0  0  0  0  0  0  0  0  0  # atno 10764 bound_to 10752
  153.6109  135.7068  153.5406 H   0  0  0  0  0  0  0  0  0  0  0  0  # atno 10765 bound_to 10752
  140.3610  134.2126  155.7672 H   0  0  0  0  0  0  0  0  0  0  0  0  # atno 11005 bound_to 11000
  145.4178  139.1569  143.4090 LP  0  0  0  0  0  0  0  0  0  0  0  0  # atno 17320 bound_to 7965
  146.2912  140.4286  142.8739 LP  0  0  0  0  0  0  0  0  0  0  0  0  # atno 17321 bound_to 7965
  140.5153  144.0962  150.6006 LP  0  0  0  0  0  0  0  0  0  0  0  0  # atno 17342 bound_to 10162
  140.3902  143.2756  152.0069 LP  0  0  0  0  0  0  0  0  0  0  0  0  # atno 17343 bound_to 10162
  156.0625  130.3697  150.0951 LP  0  0  0  0  0  0  0  0  0  0  0  0  # atno 17370 bound_to 10713
  156.9119  130.9654  151.3562 LP  0  0  0  0  0  0  0  0  0  0  0  0  # atno 17371 bound_to 10713
  141.1984  133.8036  157.0584 LP  0  0  0  0  0  0  0  0  0  0  0  0  # atno 17394 bound_to 11000
  140.0627  134.9746  157.1332 LP  0  0  0  0  0  0  0  0  0  0  0  0  # atno 17395 bound_to 11000

$$$$
