AV-unprocessed.smi:2004|AV-procd|sdf|8124|dock2
  -GOLD-   2272010363D 1   1.00000     0.00000
 Structure written by MMmdl.
 40 42  0  0  0  0  0  0  0  0  2 V2000
  149.9906  138.2455  157.4100 O   0  0  0  0  0  0  0  0  0  0  0  0
  150.4592  138.7436  158.6478 C   0  0  1  0  0  0  0  0  0  0  0  0
  150.8215  137.5527  159.5476 C   0  0  0  0  0  0  0  0  0  0  0  0
  149.7942  136.5795  159.4559 O   0  0  0  0  0  0  0  0  0  0  0  0
  148.5395  137.0598  159.9108 C   0  0  0  0  0  0  0  0  0  0  0  0
  147.8366  136.0466  160.7933 C   0  0  0  0  0  0  0  0  0  0  0  0
  147.4755  136.3888  162.1136 C   0  0  0  0  0  0  0  0  0  0  0  0
  146.8366  135.4443  162.9407 C   0  0  0  0  0  0  0  0  0  0  0  0
  146.5606  134.1526  162.4525 C   0  0  0  0  0  0  0  0  0  0  0  0
  146.9255  133.8049  161.1375 C   0  0  0  0  0  0  0  0  0  0  0  0
  147.5650  134.7488  160.3102 C   0  0  0  0  0  0  0  0  0  0  0  0
  151.6715  139.6596  158.3879 C   0  0  0  0  0  0  0  0  0  0  0  0
  151.2833  141.0291  158.0258 N   0  0  0  0  0  0  0  0  0  0  0  0
  150.4546  141.4729  157.0422 C   0  0  0  0  0  0  0  0  0  0  0  0
  150.4140  142.8321  157.1212 N   0  3  0  0  0  0  0  0  0  0  0  0
  151.2289  143.2625  158.1708 C   0  0  0  0  0  0  0  0  0  0  0  0
  151.5098  144.5409  158.6435 C   0  0  0  0  0  0  0  0  0  0  0  0
  152.3887  144.6305  159.7431 C   0  0  0  0  0  0  0  0  0  0  0  0
  152.9520  143.4783  160.3297 C   0  0  0  0  0  0  0  0  0  0  0  0
  152.6609  142.1871  159.8422 C   0  0  0  0  0  0  0  0  0  0  0  0
  151.7910  142.1082  158.7556 C   0  0  0  0  0  0  0  0  0  0  0  0
  149.0657  138.0681  157.4923 H   0  0  0  0  0  0  0  0  0  0  0  0
  149.6643  139.3244  159.1170 H   0  0  0  0  0  0  0  0  0  0  0  0
  151.7937  137.1358  159.2789 H   0  0  0  0  0  0  0  0  0  0  0  0
  150.8868  137.8828  160.5856 H   0  0  0  0  0  0  0  0  0  0  0  0
  148.6812  137.9910  160.4619 H   0  0  0  0  0  0  0  0  0  0  0  0
  147.8938  137.2804  159.0598 H   0  0  0  0  0  0  0  0  0  0  0  0
  147.6876  137.3768  162.4953 H   0  0  0  0  0  0  0  0  0  0  0  0
  146.5595  135.7104  163.9502 H   0  0  0  0  0  0  0  0  0  0  0  0
  146.0713  133.4281  163.0868 H   0  0  0  0  0  0  0  0  0  0  0  0
  146.7163  132.8137  160.7635 H   0  0  0  0  0  0  0  0  0  0  0  0
  147.8442  134.4721  159.3039 H   0  0  0  0  0  0  0  0  0  0  0  0
  152.3226  139.7075  159.2618 H   0  0  0  0  0  0  0  0  0  0  0  0
  152.2775  139.2643  157.5712 H   0  0  0  0  0  0  0  0  0  0  0  0
  149.9214  140.8571  156.3322 H   0  0  0  0  0  0  0  0  0  0  0  0
  151.0794  145.4252  158.1967 H   0  0  0  0  0  0  0  0  0  0  0  0
  152.6361  145.6024  160.1451 H   0  0  0  0  0  0  0  0  0  0  0  0
  153.6208  143.5867  161.1712 H   0  0  0  0  0  0  0  0  0  0  0  0
  153.0948  141.3098  160.2984 H   0  0  0  0  0  0  0  0  0  0  0  0
  149.8671  143.4190  156.5045 H   0  0  0  0  0  0  0  0  0  0  0  0
  1  2  1  0  0  0  0
  1 22  1  0  0  0  0
  2  3  1  0  0  0  0
  2 12  1  0  0  0  0
  2 23  1  0  0  0  0
  3  4  1  0  0  0  0
  3 24  1  0  0  0  0
  3 25  1  0  0  0  0
  4  5  1  0  0  0  0
  5  6  1  0  0  0  0
  5 26  1  0  0  0  0
  5 27  1  0  0  0  0
  6 11  1  0  0  0  0
  6  7  2  0  0  0  0
  7  8  1  0  0  0  0
  7 28  1  0  0  0  0
  8  9  2  0  0  0  0
  8 29  1  0  0  0  0
  9 10  1  0  0  0  0
  9 30  1  0  0  0  0
 10 11  2  0  0  0  0
 10 31  1  0  0  0  0
 11 32  1  0  0  0  0
 12 13  1  0  0  0  0
 12 33  1  0  0  0  0
 12 34  1  0  0  0  0
 13 21  1  0  0  0  0
 13 14  1  0  0  0  0
 14 15  2  0  0  0  0
 14 35  1  0  0  0  0
 15 16  1  0  0  0  0
 15 40  1  0  0  0  0
 16 21  2  0  0  0  0
 16 17  1  0  0  0  0
 17 18  2  0  0  0  0
 17 36  1  0  0  0  0
 18 19  1  0  0  0  0
 18 37  1  0  0  0  0
 19 20  2  0  0  0  0
 19 38  1  0  0  0  0
 20 21  1  0  0  0  0
 20 39  1  0  0  0  0
M  CHG  1  15   1
M  END
> <s_m_source_file>
AV-unprocessed.smi

> <i_m_source_file_index>
2004

> <i_lp_mmshare_version>
43012

> <i_f3d_flags>
0

> <s_epik_input>
W2NIXTFbY0hdW2NIXVtjSF1jKGMxMiluKFtjSF1uMilbQ0gyXVtDQEhdKFtPSF0pW0NIMl1PW0NIMl1jM1tjSF1bY0hdW2NIXVtjSF1bY0hdMw==

> <s_epik_cmdline>
J2VwaWtfcHl0aG9uJywgJy1waCcsICc3LjAnLCAnLXRuJywgJzgnLCAnLW1hJywgJzIwMCcsICctbWV0YWxfYmluZGluZycsICctaW1hZScsICc8aW5maWxlLm1hZT4nLCAnLW9tYWUnLCAnPG91dGZpbGUubWFlPic=

> <r_epik_Ionization_Penalty>
1.28975

> <r_epik_Ionization_Penalty_Charging>
1.28975

> <r_epik_Ionization_Penalty_Neutral>
1.07667e-06

> <r_epik_State_Penalty>
1.36276

> <r_epik_Charging_Adjusted_Penalty>
2.65251

> <i_epik_Tot_Q>
1

> <i_epik_Tot_abs_Q>
1

> <r_epik_Metal_State_Penalty>
5.39298

> <b_epik_Metal_Only>
0

> <s_lp_Force_Field>
OPLS_2005

> <r_lp_Energy>
18.9764

> <b_lp_Chiralities_Consistent>
1

> <s_lp_Variant>
AV-unprocessed.smi:2004-4

> <Gold.Version>
5.8.1

> <Gold.Id.Protein>
6NUR|6NUR_protein|mol2

> <Gold.PLP.Fitness>
59.8826

> <Gold.PLP.PLP>
-52.2265

> <Gold.PLP.part.hbond>
-2.0000

> <Gold.PLP.part.metal>
0.0000

> <Gold.PLP.part.buried>
-5.3150

> <Gold.PLP.part.nonpolar>
-44.7599

> <Gold.PLP.part.repulsive>
0.0476

> <Gold.PLP.ligand.clash>
0.0000

> <Gold.PLP.ligand.torsion>
0.7161

> <Gold.PLP.Chemscore.Hbond>
3.0000

> <Gold.PLP.Chemscore.CHOScore>
0.0000

> <Gold.PLP.Chemscore.Metal>
0.0000

> <Gold.Chemscore.Hbonds>
donor molecule, donor type, donor heavy atom, donor atom, acceptor molecule, acceptor atom, score
      L1  H    15    40       P1  8028  2.00
      P1  H  6896  6909       L1     4  0.96

> <Gold.PLP.Chemscore.Internal.Correction>
0.0882

> <Gold.Rescore>
     Score         DG    S(hbond)    S(metal)    S(lipo)     H(rot)  DE(clash)    DE(int)     intcor
     20.65     -21.69       1.88        0.00     137.97       2.43       0.21       0.83       ----

> <Gold.Chemscore.Fitness>
20.6455

> <Gold.Chemscore.DG>
-21.6858

> <Gold.Chemscore.ZeroCoef>
-5.4800

> <Gold.Chemscore.Hbond>
1.8790

> <Gold.Chemscore.Metal>
0.0000

> <Gold.Chemscore.Lipo>
137.9710

> <Gold.Chemscore.Internal_Hbond>
0.0000

> <Gold.Chemscore.DEClash>
0.2139

> <Gold.Chemscore.DEInternal>
0.8264

> <Gold.Chemscore.Rot>
2.4269

> <Gold.Chemscore.Internal.Correction>
   9.000000E+99

> <Gold.Chemscore.Hbonds>
donor molecule, donor type, donor heavy atom, donor atom, acceptor molecule, acceptor atom, score
      L1  H    15    40       P1  8028  1.00
      P1  H  6896  6909       L1     4  0.40

> <Gold.Chemscore.Hbond.Weighted>
-6.2759

> <Gold.Chemscore.Metal.Weighted>
-0.0000

> <Gold.Chemscore.Lipo.Weighted>
-16.1426

> <Gold.Chemscore.Internal_Hbond.Weighted>
0.0000

> <Gold.Chemscore.DEClash.Weighted>
0.2139

> <Gold.Chemscore.DEInternal.Weighted>
0.8264

> <Gold.Chemscore.Rot.Weighted>
6.2127

> <Gold.Chemscore.Internal.Correction.Weighted>
   9.000000E+99

> <Gold.Protein.RotatedTorsions>
[ 6907 6896 6895 6894 ] final   63.42 input  -60.11 | X-H torsion
[ 7974 7965 7964 7962 ] final -145.23 input  175.53 | X-H torsion
[ 8008 7997 7996 7995 ] final   32.91 input   59.86 | X-H torsion
[ 10167 10162 10161 10158 ] final   59.67 input  -65.29 | X-H torsion
[ 10718 10713 10712 10709 ] final  154.70 input   66.30 | X-H torsion
[ 10763 10752 10751 10750 ] final  141.27 input  -60.55 | X-H torsion
[ 11005 11000 10999 10996 ] final  131.80 input  -57.11 | X-H torsion

> <Gold.Protein.ActiveResidues>
 VAL166  LYS551  ARG553  GLY616  TRP617  ASP618  TYR619  PRO620  LYS621  CYS622 
 ASP623  PHE694  ASN695  SER759  ASP760  ASP761  ALA762  ILE779  LEU786  VAL792 
 PHE793  MET794  SER795  GLU796  ALA797  LYS798  CYS799  TRP800  GLU811  SER814 

> <Gold.Protein.RotatedAtoms>
  152.4252  134.5882  159.9966 H   0  0  0  0  0  0  0  0  0  0  0  0  # atno 6907 bound_to 6896
  151.6021  133.3350  159.3057 H   0  0  0  0  0  0  0  0  0  0  0  0  # atno 6908 bound_to 6896
  150.8141  134.7350  159.6779 H   0  0  0  0  0  0  0  0  0  0  0  0  # atno 6909 bound_to 6896
  144.8242  140.5609  143.5558 H   0  0  0  0  0  0  0  0  0  0  0  0  # atno 7974 bound_to 7965
  155.1301  140.3256  155.4476 H   0  0  0  0  0  0  0  0  0  0  0  0  # atno 8008 bound_to 7997
  156.2637  140.2012  156.6369 H   0  0  0  0  0  0  0  0  0  0  0  0  # atno 8009 bound_to 7997
  154.6619  140.0546  157.0058 H   0  0  0  0  0  0  0  0  0  0  0  0  # atno 8010 bound_to 7997
  140.1739  144.4249  150.6648 H   0  0  0  0  0  0  0  0  0  0  0  0  # atno 10167 bound_to 10162
  157.2281  131.0733  151.1870 H   0  0  0  0  0  0  0  0  0  0  0  0  # atno 10718 bound_to 10713
  153.9364  135.2984  155.3444 H   0  0  0  0  0  0  0  0  0  0  0  0  # atno 10763 bound_to 10752
  154.7500  135.4985  153.9275 H   0  0  0  0  0  0  0  0  0  0  0  0  # atno 10764 bound_to 10752
  153.1065  135.6748  153.9683 H   0  0  0  0  0  0  0  0  0  0  0  0  # atno 10765 bound_to 10752
  139.9752  134.9565  156.9491 H   0  0  0  0  0  0  0  0  0  0  0  0  # atno 11005 bound_to 11000
  145.5038  139.1482  143.3642 LP  0  0  0  0  0  0  0  0  0  0  0  0  # atno 17320 bound_to 7965
  146.2547  140.5178  142.8878 LP  0  0  0  0  0  0  0  0  0  0  0  0  # atno 17321 bound_to 7965
  140.6564  143.2239  151.5959 LP  0  0  0  0  0  0  0  0  0  0  0  0  # atno 17342 bound_to 10162
  139.5325  144.2874  152.1180 LP  0  0  0  0  0  0  0  0  0  0  0  0  # atno 17343 bound_to 10162
  157.3507  130.7080  149.6439 LP  0  0  0  0  0  0  0  0  0  0  0  0  # atno 17370 bound_to 10713
  155.9677  130.4253  150.4649 LP  0  0  0  0  0  0  0  0  0  0  0  0  # atno 17371 bound_to 10713
  140.5210  134.0908  155.7292 LP  0  0  0  0  0  0  0  0  0  0  0  0  # atno 17394 bound_to 11000
  141.1429  133.9106  157.2283 LP  0  0  0  0  0  0  0  0  0  0  0  0  # atno 17395 bound_to 11000

$$$$
