AV-unprocessed.smi:3338|AV-procd|sdf|12871|dock9
  -GOLD-   2272019273D 1   1.00000     0.00000
 Structure written by MMmdl.
 44 45  0  0  0  0  0  0  0  0  2 V2000
  146.7519  133.2115  151.5136 C   0  0  0  0  0  0  0  0  0  0  0  0
  145.5028  133.7889  152.2024 C   0  0  2  0  0  0  0  0  0  0  0  0
  144.5550  134.5022  151.2207 C   0  0  0  0  0  0  0  0  0  0  0  0
  145.1225  135.8611  150.7870 C   0  0  0  0  0  0  0  0  0  0  0  0
  145.4809  136.7246  152.0066 C   0  0  0  0  0  0  0  0  0  0  0  0
  146.4260  136.0143  152.9063 N   0  3  1  0  0  0  0  0  0  0  0  0
  146.9113  136.8789  154.0109 C   0  0  0  0  0  0  0  0  0  0  0  0
  147.1277  138.3361  153.5587 C   0  0  0  0  0  0  0  0  0  0  0  0
  148.5387  138.7018  153.5813 N   0  0  0  0  0  0  0  0  0  0  0  0
  149.3840  138.4430  154.5919 C   0  0  0  0  0  0  0  0  0  0  0  0
  149.0442  137.8331  155.6067 O   0  0  0  0  0  0  0  0  0  0  0  0
  150.8266  138.9478  154.4202 C   0  0  2  0  0  0  0  0  0  0  0  0
  151.8640  137.8073  154.3980 C   0  0  0  0  0  0  0  0  0  0  0  0
  151.1429  139.9481  155.4332 N   0  0  0  0  0  0  0  0  0  0  0  0
  152.1111  139.8863  156.4148 C   0  0  0  0  0  0  0  0  0  0  0  0
  152.0636  141.0587  157.1130 C   0  0  0  0  0  0  0  0  0  0  0  0
  151.0245  141.7906  156.4741 C   0  0  0  0  0  0  0  0  0  0  0  0
  150.4800  141.1277  155.4673 N   0  0  0  0  0  0  0  0  0  0  0  0
  145.8635  134.7199  153.3786 C   0  0  0  0  0  0  0  0  0  0  0  0
  147.3816  133.9923  151.0871 H   0  0  0  0  0  0  0  0  0  0  0  0
  146.4750  132.5317  150.7073 H   0  0  0  0  0  0  0  0  0  0  0  0
  147.3618  132.6483  152.2205 H   0  0  0  0  0  0  0  0  0  0  0  0
  144.9602  132.9372  152.6149 H   0  0  0  0  0  0  0  0  0  0  0  0
  144.3619  133.8760  150.3488 H   0  0  0  0  0  0  0  0  0  0  0  0
  143.5894  134.6581  151.7036 H   0  0  0  0  0  0  0  0  0  0  0  0
  146.0070  135.7153  150.1663 H   0  0  0  0  0  0  0  0  0  0  0  0
  144.3963  136.3836  150.1636 H   0  0  0  0  0  0  0  0  0  0  0  0
  145.9286  137.6571  151.6601 H   0  0  0  0  0  0  0  0  0  0  0  0
  144.5791  136.9918  152.5599 H   0  0  0  0  0  0  0  0  0  0  0  0
  146.1724  136.8757  154.8133 H   0  0  0  0  0  0  0  0  0  0  0  0
  147.8261  136.4627  154.4357 H   0  0  0  0  0  0  0  0  0  0  0  0
  146.7718  138.4853  152.5401 H   0  0  0  0  0  0  0  0  0  0  0  0
  146.5580  139.0208  154.1895 H   0  0  0  0  0  0  0  0  0  0  0  0
  148.8944  139.2098  152.7842 H   0  0  0  0  0  0  0  0  0  0  0  0
  150.8758  139.4456  153.4502 H   0  0  0  0  0  0  0  0  0  0  0  0
  151.6570  137.1023  153.5921 H   0  0  0  0  0  0  0  0  0  0  0  0
  151.8764  137.2468  155.3337 H   0  0  0  0  0  0  0  0  0  0  0  0
  152.8685  138.1996  154.2372 H   0  0  0  0  0  0  0  0  0  0  0  0
  152.7474  139.0218  156.5341 H   0  0  0  0  0  0  0  0  0  0  0  0
  152.6787  141.3504  157.9513 H   0  0  0  0  0  0  0  0  0  0  0  0
  150.6545  142.7780  156.7080 H   0  0  0  0  0  0  0  0  0  0  0  0
  144.9722  134.9188  153.9761 H   0  0  0  0  0  0  0  0  0  0  0  0
  146.5673  134.2112  154.0366 H   0  0  0  0  0  0  0  0  0  0  0  0
  147.2346  135.7958  152.3418 H   0  0  0  0  0  0  0  0  0  0  0  0
  1  2  1  0  0  0  0
  1 20  1  0  0  0  0
  1 21  1  0  0  0  0
  1 22  1  0  0  0  0
  2 19  1  0  0  0  0
  2  3  1  0  0  0  0
  2 23  1  0  0  0  0
  3  4  1  0  0  0  0
  3 24  1  0  0  0  0
  3 25  1  0  0  0  0
  4  5  1  0  0  0  0
  4 26  1  0  0  0  0
  4 27  1  0  0  0  0
  5  6  1  0  0  0  0
  5 28  1  0  0  0  0
  5 29  1  0  0  0  0
  6  7  1  0  0  0  0
  6 19  1  0  0  0  0
  6 44  1  0  0  0  0
  7  8  1  0  0  0  0
  7 30  1  0  0  0  0
  7 31  1  0  0  0  0
  8  9  1  0  0  0  0
  8 32  1  0  0  0  0
  8 33  1  0  0  0  0
  9 10  1  0  0  0  0
  9 34  1  0  0  0  0
 10 11  2  0  0  0  0
 10 12  1  0  0  0  0
 12 13  1  0  0  0  0
 12 14  1  0  0  0  0
 12 35  1  0  0  0  0
 13 36  1  0  0  0  0
 13 37  1  0  0  0  0
 13 38  1  0  0  0  0
 14 18  1  0  0  0  0
 14 15  1  0  0  0  0
 15 16  2  0  0  0  0
 15 39  1  0  0  0  0
 16 17  1  0  0  0  0
 16 40  1  0  0  0  0
 17 18  2  0  0  0  0
 17 41  1  0  0  0  0
 19 42  1  0  0  0  0
 19 43  1  0  0  0  0
M  CHG  1   6   1
M  END
> <s_m_source_file>
AV-unprocessed.smi

> <i_m_source_file_index>
3338

> <i_lp_mmshare_version>
43012

> <i_f3d_flags>
0

> <s_epik_input>
W0NIM11bQ0BASF0xW0NIMl1bQ0gyXVtDSDJdTihbQ0gyXTEpW0NIMl1bQ0gyXVtOSF1DKD1PKVtDQEhdKFtDSDNdKW4yW2NIXVtjSF1bY0hdbjI=

> <s_epik_cmdline>
J2VwaWtfcHl0aG9uJywgJy1waCcsICc3LjAnLCAnLXRuJywgJzgnLCAnLW1hJywgJzIwMCcsICctbWV0YWxfYmluZGluZycsICctaW1hZScsICc8aW5maWxlLm1hZT4nLCAnLW9tYWUnLCAnPG91dGZpbGUubWFlPic=

> <r_lp_tautomer_probability>
1

> <r_epik_Ionization_Penalty>
0.00225707

> <r_epik_Ionization_Penalty_Charging>
0.00223709

> <r_epik_Ionization_Penalty_Neutral>
1.99775e-05

> <r_epik_State_Penalty>
0.00153978

> <r_epik_Charging_Adjusted_Penalty>
0.00377687

> <i_epik_Tot_Q>
1

> <i_epik_Tot_abs_Q>
1

> <r_epik_Metal_State_Penalty>
-0

> <b_epik_Metal_Only>
0

> <s_lp_Force_Field>
OPLS_2005

> <r_lp_Energy>
22.4515

> <b_lp_Chiralities_Consistent>
1

> <s_lp_Variant>
AV-unprocessed.smi:3338-3

> <Gold.Version>
5.8.1

> <Gold.Id.Protein>
6NUR|6NUR_protein|mol2

> <Gold.PLP.Fitness>
43.3122

> <Gold.PLP.PLP>
-32.6440

> <Gold.PLP.part.hbond>
-2.7112

> <Gold.PLP.part.metal>
0.0000

> <Gold.PLP.part.buried>
-2.3108

> <Gold.PLP.part.nonpolar>
-27.9530

> <Gold.PLP.part.repulsive>
0.1746

> <Gold.PLP.ligand.clash>
0.0000

> <Gold.PLP.ligand.torsion>
0.7412

> <Gold.PLP.Chemscore.Hbond>
3.0000

> <Gold.PLP.Chemscore.CHOScore>
1.0000

> <Gold.PLP.Chemscore.Metal>
0.0000

> <Gold.Chemscore.Hbonds>
donor molecule, donor type, donor heavy atom, donor atom, acceptor molecule, acceptor atom, score
      L1  H     6    44       P1  7948  1.95
      L1  H     9    34       P1  7957  1.00
      L1  C    17    41       P1  8028  0.27

> <Gold.PLP.Chemscore.Internal.Correction>
0.1506

> <Gold.Rescore>
     Score         DG    S(hbond)    S(metal)    S(lipo)     H(rot)  DE(clash)    DE(int)     intcor
     13.69     -16.46       1.94        0.00      76.99       1.76       0.78       1.99       ----

> <Gold.Chemscore.Fitness>
13.6887

> <Gold.Chemscore.DG>
-16.4598

> <Gold.Chemscore.ZeroCoef>
-5.4800

> <Gold.Chemscore.Hbond>
1.9371

> <Gold.Chemscore.Metal>
0.0000

> <Gold.Chemscore.Lipo>
76.9905

> <Gold.Chemscore.Internal_Hbond>
0.0000

> <Gold.Chemscore.DEClash>
0.7789

> <Gold.Chemscore.DEInternal>
1.9922

> <Gold.Chemscore.Rot>
1.7570

> <Gold.Chemscore.Internal.Correction>
   9.000000E+99

> <Gold.Chemscore.Hbonds>
donor molecule, donor type, donor heavy atom, donor atom, acceptor molecule, acceptor atom, score
      L1  H     6    44       P1  7948  0.93
      L1  H     9    34       P1  7957  0.99

> <Gold.Chemscore.Hbond.Weighted>
-6.4698

> <Gold.Chemscore.Metal.Weighted>
-0.0000

> <Gold.Chemscore.Lipo.Weighted>
-9.0079

> <Gold.Chemscore.Internal_Hbond.Weighted>
0.0000

> <Gold.Chemscore.DEClash.Weighted>
0.7789

> <Gold.Chemscore.DEInternal.Weighted>
1.9922

> <Gold.Chemscore.Rot.Weighted>
4.4979

> <Gold.Chemscore.Internal.Correction.Weighted>
   9.000000E+99

> <Gold.Protein.RotatedTorsions>
[ 6907 6896 6895 6894 ] final  120.09 input  -60.11 | X-H torsion
[ 7974 7965 7964 7962 ] final  -48.87 input  175.53 | X-H torsion
[ 8008 7997 7996 7995 ] final -122.27 input   59.86 | X-H torsion
[ 10167 10162 10161 10158 ] final  152.20 input  -65.29 | X-H torsion
[ 10718 10713 10712 10709 ] final  177.84 input   66.30 | X-H torsion
[ 10763 10752 10751 10750 ] final  173.27 input  -60.55 | X-H torsion
[ 11005 11000 10999 10996 ] final  -10.43 input  -57.11 | X-H torsion

> <Gold.Protein.ActiveResidues>
 VAL166  LYS551  ARG553  GLY616  TRP617  ASP618  TYR619  PRO620  LYS621  CYS622 
 ASP623  PHE694  ASN695  SER759  ASP760  ASP761  ALA762  ILE779  LEU786  VAL792 
 PHE793  MET794  SER795  GLU796  ALA797  LYS798  CYS799  TRP800  GLU811  SER814 

> <Gold.Protein.RotatedAtoms>
  152.4424  133.7472  159.6673 H   0  0  0  0  0  0  0  0  0  0  0  0  # atno 6907 bound_to 6896
  150.8317  133.8070  159.3102 H   0  0  0  0  0  0  0  0  0  0  0  0  # atno 6908 bound_to 6896
  151.5722  135.1064  160.0049 H   0  0  0  0  0  0  0  0  0  0  0  0  # atno 6909 bound_to 6896
  145.9465  140.7612  142.9526 H   0  0  0  0  0  0  0  0  0  0  0  0  # atno 7974 bound_to 7965
  155.1616  140.0406  157.2843 H   0  0  0  0  0  0  0  0  0  0  0  0  # atno 8008 bound_to 7997
  154.6332  140.2529  155.7381 H   0  0  0  0  0  0  0  0  0  0  0  0  # atno 8009 bound_to 7997
  156.2495  140.2871  156.0694 H   0  0  0  0  0  0  0  0  0  0  0  0  # atno 8010 bound_to 7997
  139.4834  144.5378  151.7616 H   0  0  0  0  0  0  0  0  0  0  0  0  # atno 10167 bound_to 10162
  156.8995  130.9874  151.3038 H   0  0  0  0  0  0  0  0  0  0  0  0  # atno 10718 bound_to 10713
  154.4377  135.2761  155.1869 H   0  0  0  0  0  0  0  0  0  0  0  0  # atno 10763 bound_to 10752
  154.3748  135.6100  153.5763 H   0  0  0  0  0  0  0  0  0  0  0  0  # atno 10764 bound_to 10752
  152.9839  135.5866  154.4699 H   0  0  0  0  0  0  0  0  0  0  0  0  # atno 10765 bound_to 10752
  140.7447  133.8642  155.8996 H   0  0  0  0  0  0  0  0  0  0  0  0  # atno 11005 bound_to 11000
  144.6788  140.2366  143.7349 LP  0  0  0  0  0  0  0  0  0  0  0  0  # atno 17320 bound_to 7965
  145.8229  139.2051  143.1928 LP  0  0  0  0  0  0  0  0  0  0  0  0  # atno 17321 bound_to 7965
  140.4913  144.1306  150.5951 LP  0  0  0  0  0  0  0  0  0  0  0  0  # atno 17342 bound_to 10162
  140.4168  143.2630  151.9765 LP  0  0  0  0  0  0  0  0  0  0  0  0  # atno 17343 bound_to 10162
  157.6035  130.8530  149.8839 LP  0  0  0  0  0  0  0  0  0  0  0  0  # atno 17370 bound_to 10713
  156.0589  130.3703  150.1027 LP  0  0  0  0  0  0  0  0  0  0  0  0  # atno 17371 bound_to 10713
  140.9805  134.1411  157.4498 LP  0  0  0  0  0  0  0  0  0  0  0  0  # atno 17394 bound_to 11000
  139.8799  135.0009  156.6036 LP  0  0  0  0  0  0  0  0  0  0  0  0  # atno 17395 bound_to 11000

$$$$
