AV-unprocessed.smi:1703|AV-procd|sdf|6872|dock7
  -GOLD-   22720 8 73D 1   1.00000     0.00000
 Structure written by MMmdl.
 49 51  0  0  0  0  0  0  0  0  2 V2000
  154.8347  133.8693  158.5965 C   0  0  0  0  0  0  0  0  0  0  0  0
  154.5466  135.3739  158.5646 C   0  0  1  0  0  0  0  0  0  0  0  0
  153.6320  135.7638  157.3898 C   0  0  0  0  0  0  0  0  0  0  0  0
  153.2949  137.1820  157.4059 N   0  0  0  0  0  0  0  0  0  0  0  0
  152.4627  137.5318  156.2533 C   0  0  0  0  0  0  0  0  0  0  0  0
  152.1597  139.0337  156.0848 C   0  0  1  0  0  0  0  0  0  0  0  0
  151.6951  139.2493  154.7670 O   0  0  0  0  0  0  0  0  0  0  0  0
  151.0946  139.5105  157.0913 C   0  0  0  0  0  0  0  0  0  0  0  0
  150.9650  140.9769  157.1376 N   0  0  0  0  0  0  0  0  0  0  0  0
  150.1688  141.8123  156.4088 C   0  0  0  0  0  0  0  0  0  0  0  0
  149.1909  141.4272  155.3476 C   0  0  0  0  0  0  0  0  0  0  0  0
  149.2136  142.3115  154.2490 O   0  0  0  0  0  0  0  0  0  0  0  0
  150.4199  143.0824  156.8341 N   0  3  0  0  0  0  0  0  0  0  0  0
  151.3828  143.0620  157.8433 C   0  0  0  0  0  0  0  0  0  0  0  0
  151.9542  144.0973  158.5768 C   0  0  0  0  0  0  0  0  0  0  0  0
  152.9121  143.7330  159.5455 C   0  0  0  0  0  0  0  0  0  0  0  0
  153.2666  142.3846  159.7557 C   0  0  0  0  0  0  0  0  0  0  0  0
  152.6817  141.3441  159.0043 C   0  0  0  0  0  0  0  0  0  0  0  0
  151.7369  141.7122  158.0461 C   0  0  0  0  0  0  0  0  0  0  0  0
  152.6564  137.5010  158.6824 C   0  0  0  0  0  0  0  0  0  0  0  0
  153.5168  137.0981  159.8970 C   0  0  2  0  0  0  0  0  0  0  0  0
  154.7214  138.0274  160.1247 C   0  0  0  0  0  0  0  0  0  0  0  0
  153.9148  135.7303  159.7926 O   0  0  0  0  0  0  0  0  0  0  0  0
  155.3286  133.5446  157.6803 H   0  0  0  0  0  0  0  0  0  0  0  0
  153.9149  133.2936  158.7036 H   0  0  0  0  0  0  0  0  0  0  0  0
  155.4862  133.6154  159.4330 H   0  0  0  0  0  0  0  0  0  0  0  0
  155.4963  135.9027  158.4782 H   0  0  0  0  0  0  0  0  0  0  0  0
  154.1307  135.5145  156.4524 H   0  0  0  0  0  0  0  0  0  0  0  0
  152.7189  135.1672  157.4242 H   0  0  0  0  0  0  0  0  0  0  0  0
  152.9476  137.1840  155.3399 H   0  0  0  0  0  0  0  0  0  0  0  0
  151.5231  136.9805  156.3147 H   0  0  0  0  0  0  0  0  0  0  0  0
  153.0593  139.6286  156.2320 H   0  0  0  0  0  0  0  0  0  0  0  0
  151.3327  138.4375  154.4449 H   0  0  0  0  0  0  0  0  0  0  0  0
  150.1218  139.0669  156.8790 H   0  0  0  0  0  0  0  0  0  0  0  0
  151.3598  139.1780  158.0950 H   0  0  0  0  0  0  0  0  0  0  0  0
  149.4177  140.4205  154.9951 H   0  0  0  0  0  0  0  0  0  0  0  0
  148.1848  141.3990  155.7660 H   0  0  0  0  0  0  0  0  0  0  0  0
  149.2117  143.1985  154.5760 H   0  0  0  0  0  0  0  0  0  0  0  0
  151.6814  145.1306  158.4199 H   0  0  0  0  0  0  0  0  0  0  0  0
  153.3823  144.5024  160.1407 H   0  0  0  0  0  0  0  0  0  0  0  0
  154.0014  142.1419  160.5097 H   0  0  0  0  0  0  0  0  0  0  0  0
  152.9566  140.3147  159.1800 H   0  0  0  0  0  0  0  0  0  0  0  0
  152.4358  138.5651  158.7503 H   0  0  0  0  0  0  0  0  0  0  0  0
  151.6976  136.9840  158.7451 H   0  0  0  0  0  0  0  0  0  0  0  0
  152.8909  137.1665  160.7872 H   0  0  0  0  0  0  0  0  0  0  0  0
  154.3913  139.0476  160.3213 H   0  0  0  0  0  0  0  0  0  0  0  0
  155.3827  138.0611  159.2593 H   0  0  0  0  0  0  0  0  0  0  0  0
  155.3088  137.6997  160.9825 H   0  0  0  0  0  0  0  0  0  0  0  0
  149.9596  143.9027  156.4610 H   0  0  0  0  0  0  0  0  0  0  0  0
  1  2  1  0  0  0  0
  1 24  1  0  0  0  0
  1 25  1  0  0  0  0
  1 26  1  0  0  0  0
  2 23  1  0  0  0  0
  2  3  1  0  0  0  0
  2 27  1  0  0  0  0
  3  4  1  0  0  0  0
  3 28  1  0  0  0  0
  3 29  1  0  0  0  0
  4  5  1  0  0  0  0
  4 20  1  0  0  0  0
  5  6  1  0  0  0  0
  5 30  1  0  0  0  0
  5 31  1  0  0  0  0
  6  7  1  0  0  0  0
  6  8  1  0  0  0  0
  6 32  1  0  0  0  0
  7 33  1  0  0  0  0
  8  9  1  0  0  0  0
  8 34  1  0  0  0  0
  8 35  1  0  0  0  0
  9 19  1  0  0  0  0
  9 10  1  0  0  0  0
 10 11  1  0  0  0  0
 10 13  2  0  0  0  0
 11 12  1  0  0  0  0
 11 36  1  0  0  0  0
 11 37  1  0  0  0  0
 12 38  1  0  0  0  0
 13 14  1  0  0  0  0
 13 49  1  0  0  0  0
 14 19  2  0  0  0  0
 14 15  1  0  0  0  0
 15 16  2  0  0  0  0
 15 39  1  0  0  0  0
 16 17  1  0  0  0  0
 16 40  1  0  0  0  0
 17 18  2  0  0  0  0
 17 41  1  0  0  0  0
 18 19  1  0  0  0  0
 18 42  1  0  0  0  0
 20 21  1  0  0  0  0
 20 43  1  0  0  0  0
 20 44  1  0  0  0  0
 21 22  1  0  0  0  0
 21 23  1  0  0  0  0
 21 45  1  0  0  0  0
 22 46  1  0  0  0  0
 22 47  1  0  0  0  0
 22 48  1  0  0  0  0
M  CHG  1  13   1
M  END
> <s_m_source_file>
AV-unprocessed.smi

> <i_m_source_file_index>
1703

> <i_lp_mmshare_version>
43012

> <i_f3d_flags>
0

> <s_epik_input>
W0NIM11bQ0BASF0xW0NIMl1OKFtDSDJdW0NASF0oTzEpW0NIM10pW0NIMl1bQ0BIXShbT0hdKVtDSDJdbihjKG4yKVtDSDJdW09IXSljKGMyMylbY0hdW2NIXVtjSF1bY0hdMw==

> <s_epik_cmdline>
J2VwaWtfcHl0aG9uJywgJy1waCcsICc3LjAnLCAnLXRuJywgJzgnLCAnLW1hJywgJzIwMCcsICctbWV0YWxfYmluZGluZycsICctaW1hZScsICc8aW5maWxlLm1hZT4nLCAnLW9tYWUnLCAnPG91dGZpbGUubWFlPic=

> <r_epik_Ionization_Penalty>
1.7682

> <r_epik_Ionization_Penalty_Charging>
1.55298

> <r_epik_Ionization_Penalty_Neutral>
0.215215

> <r_epik_State_Penalty>
1.83821

> <r_epik_Charging_Adjusted_Penalty>
3.39119

> <i_epik_Tot_Q>
1

> <i_epik_Tot_abs_Q>
1

> <r_epik_Metal_State_Penalty>
5.89206

> <b_epik_Metal_Only>
0

> <s_lp_Force_Field>
OPLS_2005

> <r_lp_Energy>
35.5587

> <b_lp_Chiralities_Consistent>
1

> <s_lp_Variant>
AV-unprocessed.smi:1703-20

> <Gold.Version>
5.8.1

> <Gold.Id.Protein>
6NUR|6NUR_protein|mol2

> <Gold.PLP.Fitness>
52.8999

> <Gold.PLP.PLP>
-39.1071

> <Gold.PLP.part.hbond>
-5.1124

> <Gold.PLP.part.metal>
0.0000

> <Gold.PLP.part.buried>
-2.8799

> <Gold.PLP.part.nonpolar>
-30.8680

> <Gold.PLP.part.repulsive>
0.0352

> <Gold.PLP.ligand.clash>
0.0000

> <Gold.PLP.ligand.torsion>
0.8415

> <Gold.PLP.Chemscore.Hbond>
5.1485

> <Gold.PLP.Chemscore.CHOScore>
0.0000

> <Gold.PLP.Chemscore.Metal>
0.0000

> <Gold.Chemscore.Hbonds>
donor molecule, donor type, donor heavy atom, donor atom, acceptor molecule, acceptor atom, score
      L1  H    12    38       P1  8028  1.00
      L1  H    13    49       P1  8028  2.00
      P1  H  6896  6907       L1    23  1.00
      P1  H  7989  7998       L1     7  0.96
      P1  H  8011  8017       L1    12  0.21

> <Gold.PLP.Chemscore.Internal.Correction>
0.0304

> <Gold.Rescore>
     Score         DG    S(hbond)    S(metal)    S(lipo)     H(rot)  DE(clash)    DE(int)     intcor
     20.23     -23.35       3.72        0.00     111.21       2.96       1.23       1.89       ----

> <Gold.Chemscore.Fitness>
20.2291

> <Gold.Chemscore.DG>
-23.3516

> <Gold.Chemscore.ZeroCoef>
-5.4800

> <Gold.Chemscore.Hbond>
3.7205

> <Gold.Chemscore.Metal>
0.0000

> <Gold.Chemscore.Lipo>
111.2052

> <Gold.Chemscore.Internal_Hbond>
0.0000

> <Gold.Chemscore.DEClash>
1.2284

> <Gold.Chemscore.DEInternal>
1.8941

> <Gold.Chemscore.Rot>
2.9555

> <Gold.Chemscore.Internal.Correction>
   9.000000E+99

> <Gold.Chemscore.Hbonds>
donor molecule, donor type, donor heavy atom, donor atom, acceptor molecule, acceptor atom, score
      L1  H    12    38       P1  8028  1.00
      L1  H    13    49       P1  8028  0.95
      P1  H  6896  6907       L1    23  0.45
      P1  H  7989  7998       L1     7  0.84
      P1  H  8011  8017       L1    12  0.11

> <Gold.Chemscore.Hbond.Weighted>
-12.4266

> <Gold.Chemscore.Metal.Weighted>
-0.0000

> <Gold.Chemscore.Lipo.Weighted>
-13.0110

> <Gold.Chemscore.Internal_Hbond.Weighted>
0.0000

> <Gold.Chemscore.DEClash.Weighted>
1.2284

> <Gold.Chemscore.DEInternal.Weighted>
1.8941

> <Gold.Chemscore.Rot.Weighted>
7.5660

> <Gold.Chemscore.Internal.Correction.Weighted>
   9.000000E+99

> <Gold.Protein.RotatedTorsions>
[ 6907 6896 6895 6894 ] final   62.11 input  -60.11 | X-H torsion
[ 7974 7965 7964 7962 ] final -120.57 input  175.53 | X-H torsion
[ 8008 7997 7996 7995 ] final  -69.85 input   59.86 | X-H torsion
[ 10167 10162 10161 10158 ] final  -56.99 input  -65.29 | X-H torsion
[ 10718 10713 10712 10709 ] final  -79.01 input   66.30 | X-H torsion
[ 10763 10752 10751 10750 ] final  -17.74 input  -60.55 | X-H torsion
[ 11005 11000 10999 10996 ] final -134.66 input  -57.11 | X-H torsion

> <Gold.Protein.ActiveResidues>
 VAL166  LYS551  ARG553  GLY616  TRP617  ASP618  TYR619  PRO620  LYS621  CYS622 
 ASP623  PHE694  ASN695  SER759  ASP760  ASP761  ALA762  ILE779  LEU786  VAL792 
 PHE793  MET794  SER795  GLU796  ALA797  LYS798  CYS799  TRP800  GLU811  SER814 

> <Gold.Protein.RotatedAtoms>
  152.4145  134.6066  160.0014 H   0  0  0  0  0  0  0  0  0  0  0  0  # atno 6907 bound_to 6896
  151.6233  133.3332  159.3101 H   0  0  0  0  0  0  0  0  0  0  0  0  # atno 6908 bound_to 6896
  150.8034  134.7183  159.6688 H   0  0  0  0  0  0  0  0  0  0  0  0  # atno 6909 bound_to 6896
  145.0499  140.8210  143.4216 H   0  0  0  0  0  0  0  0  0  0  0  0  # atno 7974 bound_to 7965
  154.4969  140.0845  156.7715 H   0  0  0  0  0  0  0  0  0  0  0  0  # atno 8008 bound_to 7997
  155.4095  140.3441  155.4244 H   0  0  0  0  0  0  0  0  0  0  0  0  # atno 8009 bound_to 7997
  156.1405  140.1528  156.8915 H   0  0  0  0  0  0  0  0  0  0  0  0  # atno 8010 bound_to 7997
  140.6285  143.2448  151.5303 H   0  0  0  0  0  0  0  0  0  0  0  0  # atno 10167 bound_to 10162
  156.0103  130.4534  150.3583 H   0  0  0  0  0  0  0  0  0  0  0  0  # atno 10718 bound_to 10713
  153.5785  135.7005  153.5473 H   0  0  0  0  0  0  0  0  0  0  0  0  # atno 10763 bound_to 10752
  153.3281  135.4055  155.1473 H   0  0  0  0  0  0  0  0  0  0  0  0  # atno 10764 bound_to 10752
  154.8621  135.3712  154.5312 H   0  0  0  0  0  0  0  0  0  0  0  0  # atno 10765 bound_to 10752
  140.8970  134.1739  157.4488 H   0  0  0  0  0  0  0  0  0  0  0  0  # atno 11005 bound_to 11000
  145.1541  139.2497  143.5425 LP  0  0  0  0  0  0  0  0  0  0  0  0  # atno 17320 bound_to 7965
  146.3517  140.1251  142.8599 LP  0  0  0  0  0  0  0  0  0  0  0  0  # atno 17321 bound_to 7965
  139.5502  144.2416  152.1516 LP  0  0  0  0  0  0  0  0  0  0  0  0  # atno 17342 bound_to 10162
  140.1654  144.4987  150.6609 LP  0  0  0  0  0  0  0  0  0  0  0  0  # atno 17343 bound_to 10162
  157.1673  131.0360  151.2812 LP  0  0  0  0  0  0  0  0  0  0  0  0  # atno 17370 bound_to 10713
  157.4259  130.7463  149.6951 LP  0  0  0  0  0  0  0  0  0  0  0  0  # atno 17371 bound_to 10713
  139.8737  134.9882  156.5403 LP  0  0  0  0  0  0  0  0  0  0  0  0  # atno 17394 bound_to 11000
  140.8277  133.8304  155.8954 LP  0  0  0  0  0  0  0  0  0  0  0  0  # atno 17395 bound_to 11000

$$$$
