AV-unprocessed.smi:3343|AV-procd|sdf|12892|dock5
  -GOLD-   2272019303D 1   1.00000     0.00000
 Structure written by MMmdl.
 42 43  0  0  0  0  0  0  0  0  2 V2000
  150.2205  135.1781  156.1713 C   0  0  0  0  0  0  0  0  0  0  0  0
  149.6540  136.0200  155.0133 C   0  0  1  0  0  0  0  0  0  0  0  0
  148.2071  136.4680  155.2638 C   0  0  0  0  0  0  0  0  0  0  0  0
  147.7127  136.3920  156.3897 O   0  0  0  0  0  0  0  0  0  0  0  0
  147.5475  136.9644  154.2055 N   0  0  0  0  0  0  0  0  0  0  0  0
  146.2051  137.5288  154.2509 C   0  0  0  0  0  0  0  0  0  0  0  0
  145.2484  136.7211  153.3542 C   0  0  0  0  0  0  0  0  0  0  0  0
  144.3684  135.8405  154.1257 N   0  0  0  0  0  0  0  0  0  0  0  0
  143.0897  135.5222  153.4790 C   0  0  0  0  0  0  0  0  0  0  0  0
  143.2688  134.6182  152.2407 C   0  0  0  0  0  0  0  0  0  0  0  0
  143.9700  133.3667  152.6106 N   0  3  0  0  0  0  0  0  0  0  0  0
  144.1207  132.4378  151.4704 C   0  0  0  0  0  0  0  0  0  0  0  0
  145.2577  133.6661  153.2790 C   0  0  0  0  0  0  0  0  0  0  0  0
  145.0324  134.5877  154.4973 C   0  0  0  0  0  0  0  0  0  0  0  0
  150.4876  137.1845  154.7489 N   0  0  0  0  0  0  0  0  0  0  0  0
  150.1690  138.4735  154.5983 C   0  0  0  0  0  0  0  0  0  0  0  0
  151.2048  139.2550  154.3279 N   0  0  0  0  0  0  0  0  0  0  0  0
  152.2006  138.3198  154.3238 C   0  0  0  0  0  0  0  0  0  0  0  0
  151.8240  137.0636  154.5635 N   0  0  0  0  0  0  0  0  0  0  0  0
  149.5975  134.3041  156.3648 H   0  0  0  0  0  0  0  0  0  0  0  0
  150.2874  135.7499  157.0975 H   0  0  0  0  0  0  0  0  0  0  0  0
  151.2223  134.8187  155.9340 H   0  0  0  0  0  0  0  0  0  0  0  0
  149.6592  135.3910  154.1206 H   0  0  0  0  0  0  0  0  0  0  0  0
  148.0257  136.9899  153.3162 H   0  0  0  0  0  0  0  0  0  0  0  0
  145.8590  137.5057  155.2848 H   0  0  0  0  0  0  0  0  0  0  0  0
  146.2483  138.5781  153.9578 H   0  0  0  0  0  0  0  0  0  0  0  0
  144.6747  137.3892  152.7132 H   0  0  0  0  0  0  0  0  0  0  0  0
  145.8530  136.1043  152.6876 H   0  0  0  0  0  0  0  0  0  0  0  0
  142.4565  135.0133  154.2070 H   0  0  0  0  0  0  0  0  0  0  0  0
  142.5562  136.4325  153.2094 H   0  0  0  0  0  0  0  0  0  0  0  0
  142.2886  134.3704  151.8325 H   0  0  0  0  0  0  0  0  0  0  0  0
  143.8105  135.1361  151.4483 H   0  0  0  0  0  0  0  0  0  0  0  0
  144.7403  132.8764  150.6871 H   0  0  0  0  0  0  0  0  0  0  0  0
  143.1481  132.1942  151.0420 H   0  0  0  0  0  0  0  0  0  0  0  0
  144.5858  131.5056  151.7928 H   0  0  0  0  0  0  0  0  0  0  0  0
  145.7127  132.7330  153.6131 H   0  0  0  0  0  0  0  0  0  0  0  0
  145.9547  134.1141  152.5693 H   0  0  0  0  0  0  0  0  0  0  0  0
  145.9814  134.8052  154.9891 H   0  0  0  0  0  0  0  0  0  0  0  0
  144.4174  134.0724  155.2362 H   0  0  0  0  0  0  0  0  0  0  0  0
  149.1581  138.8457  154.6808 H   0  0  0  0  0  0  0  0  0  0  0  0
  153.2334  138.5719  154.1328 H   0  0  0  0  0  0  0  0  0  0  0  0
  143.3906  132.9009  153.2944 H   0  0  0  0  0  0  0  0  0  0  0  0
  1  2  1  0  0  0  0
  1 20  1  0  0  0  0
  1 21  1  0  0  0  0
  1 22  1  0  0  0  0
  2  3  1  0  0  0  0
  2 15  1  0  0  0  0
  2 23  1  0  0  0  0
  3  4  2  0  0  0  0
  3  5  1  0  0  0  0
  5  6  1  0  0  0  0
  5 24  1  0  0  0  0
  6  7  1  0  0  0  0
  6 25  1  0  0  0  0
  6 26  1  0  0  0  0
  7  8  1  0  0  0  0
  7 27  1  0  0  0  0
  7 28  1  0  0  0  0
  8 14  1  0  0  0  0
  8  9  1  0  0  0  0
  9 10  1  0  0  0  0
  9 29  1  0  0  0  0
  9 30  1  0  0  0  0
 10 11  1  0  0  0  0
 10 31  1  0  0  0  0
 10 32  1  0  0  0  0
 11 12  1  0  0  0  0
 11 13  1  0  0  0  0
 11 42  1  0  0  0  0
 12 33  1  0  0  0  0
 12 34  1  0  0  0  0
 12 35  1  0  0  0  0
 13 14  1  0  0  0  0
 13 36  1  0  0  0  0
 13 37  1  0  0  0  0
 14 38  1  0  0  0  0
 14 39  1  0  0  0  0
 15 19  1  0  0  0  0
 15 16  1  0  0  0  0
 16 17  2  0  0  0  0
 16 40  1  0  0  0  0
 17 18  1  0  0  0  0
 18 19  2  0  0  0  0
 18 41  1  0  0  0  0
M  CHG  1  11   1
M  END
> <s_m_source_file>
AV-unprocessed.smi

> <i_m_source_file_index>
3343

> <i_lp_mmshare_version>
43012

> <i_f3d_flags>
0

> <s_epik_input>
bjFbY0hdbltjSF1uMVtDQEhdKFtDSDNdKUMoPU8pW05IXVtDSDJdW0NIMl1OMltDSDJdW0NIMl1OKFtDSDNdKVtDSDJdW0NIMl0y

> <s_epik_cmdline>
J2VwaWtfcHl0aG9uJywgJy1waCcsICc3LjAnLCAnLXRuJywgJzgnLCAnLW1hJywgJzIwMCcsICctbWV0YWxfYmluZGluZycsICctaW1hZScsICc8aW5maWxlLm1hZT4nLCAnLW9tYWUnLCAnPG91dGZpbGUubWFlPic=

> <r_lp_tautomer_probability>
1

> <r_epik_Ionization_Penalty>
0.0359277

> <r_epik_Ionization_Penalty_Charging>
0.0358005

> <r_epik_Ionization_Penalty_Neutral>
0.000127293

> <r_epik_State_Penalty>
0.0476325

> <r_epik_Charging_Adjusted_Penalty>
0.0834329

> <i_epik_Tot_Q>
1

> <i_epik_Tot_abs_Q>
1

> <r_epik_Metal_State_Penalty>
0.0476323

> <b_epik_Metal_Only>
0

> <s_lp_Force_Field>
OPLS_2005

> <r_lp_Energy>
19.669

> <b_lp_Chiralities_Consistent>
1

> <s_lp_Variant>
AV-unprocessed.smi:3343-2

> <Gold.Version>
5.8.1

> <Gold.Id.Protein>
6NUR|6NUR_protein|mol2

> <Gold.PLP.Fitness>
37.3983

> <Gold.PLP.PLP>
-24.1772

> <Gold.PLP.part.hbond>
-3.9924

> <Gold.PLP.part.metal>
0.0000

> <Gold.PLP.part.buried>
-5.0418

> <Gold.PLP.part.nonpolar>
-15.1275

> <Gold.PLP.part.repulsive>
0.3021

> <Gold.PLP.ligand.clash>
0.0000

> <Gold.PLP.ligand.torsion>
0.9395

> <Gold.PLP.Chemscore.Hbond>
5.0000

> <Gold.PLP.Chemscore.CHOScore>
0.0000

> <Gold.PLP.Chemscore.Metal>
0.0000

> <Gold.Chemscore.Hbonds>
donor molecule, donor type, donor heavy atom, donor atom, acceptor molecule, acceptor atom, score
      L1  H     5    24       P1  7948  1.00
      L1  H    11    42       P1 10957  2.00
      P1  H  7989  7998       L1    17  1.00
      P1  H 10752 10763       L1    19  1.00

> <Gold.PLP.Chemscore.Internal.Correction>
0.1001

> <Gold.Rescore>
     Score         DG    S(hbond)    S(metal)    S(lipo)     H(rot)  DE(clash)    DE(int)     intcor
     14.08     -15.25       3.79        0.00      32.81       2.63       0.05       1.12       ----

> <Gold.Chemscore.Fitness>
14.0819

> <Gold.Chemscore.DG>
-15.2523

> <Gold.Chemscore.ZeroCoef>
-5.4800

> <Gold.Chemscore.Hbond>
3.7905

> <Gold.Chemscore.Metal>
0.0000

> <Gold.Chemscore.Lipo>
32.8135

> <Gold.Chemscore.Internal_Hbond>
0.0000

> <Gold.Chemscore.DEClash>
0.0469

> <Gold.Chemscore.DEInternal>
1.1235

> <Gold.Chemscore.Rot>
2.6278

> <Gold.Chemscore.Internal.Correction>
   9.000000E+99

> <Gold.Chemscore.Hbonds>
donor molecule, donor type, donor heavy atom, donor atom, acceptor molecule, acceptor atom, score
      L1  H     5    24       P1  7948  0.98
      L1  H    11    42       P1 10957  0.63
      P1  H  7989  7998       L1    17  0.88
      P1  H 10752 10763       L1    19  0.96

> <Gold.Chemscore.Hbond.Weighted>
-12.6602

> <Gold.Chemscore.Metal.Weighted>
-0.0000

> <Gold.Chemscore.Lipo.Weighted>
-3.8392

> <Gold.Chemscore.Internal_Hbond.Weighted>
0.0000

> <Gold.Chemscore.DEClash.Weighted>
0.0469

> <Gold.Chemscore.DEInternal.Weighted>
1.1235

> <Gold.Chemscore.Rot.Weighted>
6.7271

> <Gold.Chemscore.Internal.Correction.Weighted>
   9.000000E+99

> <Gold.Protein.RotatedTorsions>
[ 6907 6896 6895 6894 ] final   59.71 input  -60.11 | X-H torsion
[ 7974 7965 7964 7962 ] final -164.48 input  175.53 | X-H torsion
[ 8008 7997 7996 7995 ] final  100.39 input   59.86 | X-H torsion
[ 10167 10162 10161 10158 ] final  127.70 input  -65.29 | X-H torsion
[ 10718 10713 10712 10709 ] final  120.77 input   66.30 | X-H torsion
[ 10763 10752 10751 10750 ] final   48.34 input  -60.55 | X-H torsion
[ 11005 11000 10999 10996 ] final    1.76 input  -57.11 | X-H torsion

> <Gold.Protein.ActiveResidues>
 VAL166  LYS551  ARG553  GLY616  TRP617  ASP618  TYR619  PRO620  LYS621  CYS622 
 ASP623  PHE694  ASN695  SER759  ASP760  ASP761  ALA762  ILE779  LEU786  VAL792 
 PHE793  MET794  SER795  GLU796  ALA797  LYS798  CYS799  TRP800  GLU811  SER814 

> <Gold.Protein.RotatedAtoms>
  152.3939  134.6396  160.0096 H   0  0  0  0  0  0  0  0  0  0  0  0  # atno 6907 bound_to 6896
  151.6622  133.3311  159.3184 H   0  0  0  0  0  0  0  0  0  0  0  0  # atno 6908 bound_to 6896
  150.7850  134.6871  159.6521 H   0  0  0  0  0  0  0  0  0  0  0  0  # atno 6909 bound_to 6896
  144.7296  140.2955  143.6213 H   0  0  0  0  0  0  0  0  0  0  0  0  # atno 7974 bound_to 7965
  156.1199  140.3214  155.8193 H   0  0  0  0  0  0  0  0  0  0  0  0  # atno 8008 bound_to 7997
  155.4523  140.0533  157.3017 H   0  0  0  0  0  0  0  0  0  0  0  0  # atno 8009 bound_to 7997
  154.4820  140.2057  155.9756 H   0  0  0  0  0  0  0  0  0  0  0  0  # atno 8010 bound_to 7997
  139.5564  144.6852  151.4169 H   0  0  0  0  0  0  0  0  0  0  0  0  # atno 10167 bound_to 10162
  157.5867  131.1069  150.8081 H   0  0  0  0  0  0  0  0  0  0  0  0  # atno 10718 bound_to 10713
  152.9792  135.5947  154.3910 H   0  0  0  0  0  0  0  0  0  0  0  0  # atno 10763 bound_to 10752
  154.3565  135.2767  155.2345 H   0  0  0  0  0  0  0  0  0  0  0  0  # atno 10764 bound_to 10752
  154.4361  135.6024  153.6154 H   0  0  0  0  0  0  0  0  0  0  0  0  # atno 10765 bound_to 10752
  140.6118  133.9741  155.8181 H   0  0  0  0  0  0  0  0  0  0  0  0  # atno 11005 bound_to 11000
  145.7812  139.1892  143.2156 LP  0  0  0  0  0  0  0  0  0  0  0  0  # atno 17320 bound_to 7965
  146.0832  140.7740  142.9631 LP  0  0  0  0  0  0  0  0  0  0  0  0  # atno 17321 bound_to 7965
  140.6838  143.8021  150.7157 LP  0  0  0  0  0  0  0  0  0  0  0  0  # atno 17342 bound_to 10162
  140.1482  143.4380  152.2148 LP  0  0  0  0  0  0  0  0  0  0  0  0  # atno 17343 bound_to 10162
  156.8513  130.5081  149.5311 LP  0  0  0  0  0  0  0  0  0  0  0  0  # atno 17370 bound_to 10713
  156.0917  130.5901  150.9743 LP  0  0  0  0  0  0  0  0  0  0  0  0  # atno 17371 bound_to 10713
  141.0803  134.0073  157.3396 LP  0  0  0  0  0  0  0  0  0  0  0  0  # atno 17394 bound_to 11000
  139.9189  135.0199  156.7988 LP  0  0  0  0  0  0  0  0  0  0  0  0  # atno 17395 bound_to 11000

$$$$
