AV-unprocessed.smi:2060|AV-procd|sdf|8355|dock3
  -GOLD-   2272011 23D 1   1.00000     0.00000
 Structure written by MMmdl.
 45 46  0  0  0  0  0  0  0  0  1 V2000
  146.4871  140.1205  157.2120 C   0  0  0  0  0  0  0  0  0  0  0  0
  146.4543  140.7665  155.8148 C   0  0  0  0  0  0  0  0  0  0  0  0
  147.3052  140.0504  154.7179 C   0  0  2  0  0  0  0  0  0  0  0  0
  147.1796  140.9135  153.4332 C   0  0  0  0  0  0  0  0  0  0  0  0
  146.6735  138.6507  154.4271 C   0  0  0  0  0  0  0  0  0  0  0  0
  145.2875  138.7097  153.9614 N   0  0  0  0  0  0  0  0  0  0  0  0
  144.2940  137.8997  154.3563 C   0  0  0  0  0  0  0  0  0  0  0  0
  144.4370  136.9970  155.1816 O   0  0  0  0  0  0  0  0  0  0  0  0
  143.1397  138.2102  153.7423 N   0  0  0  0  0  0  0  0  0  0  0  0
  141.8795  137.5796  153.9016 C   0  0  0  0  0  0  0  0  0  0  0  0
  140.7246  138.0833  153.2461 C   0  0  0  0  0  0  0  0  0  0  0  0
  139.7434  137.2191  153.6432 C   0  0  0  0  0  0  0  0  0  0  0  0
  138.2855  137.1350  153.3454 C   0  0  0  0  0  0  0  0  0  0  0  0
  140.2562  136.2678  154.4702 O   0  0  0  0  0  0  0  0  0  0  0  0
  141.6262  136.5050  154.6329 N   0  0  0  0  0  0  0  0  0  0  0  0
  148.7313  139.9420  155.1385 N   0  0  0  0  0  0  0  0  0  0  0  0
  149.4046  141.2171  155.4126 C   0  0  0  0  0  0  0  0  0  0  0  0
  150.8204  141.0110  155.9784 C   0  0  0  0  0  0  0  0  0  0  0  0
  151.5883  140.2217  155.0778 O   0  0  0  0  0  0  0  0  0  0  0  0
  150.9969  138.9522  154.8278 C   0  0  0  0  0  0  0  0  0  0  0  0
  149.5852  139.1448  154.2491 C   0  0  0  0  0  0  0  0  0  0  0  0
  145.8660  140.6862  157.9066 H   0  0  0  0  0  0  0  0  0  0  0  0
  147.4951  140.0980  157.6246 H   0  0  0  0  0  0  0  0  0  0  0  0
  146.1072  139.0989  157.1970 H   0  0  0  0  0  0  0  0  0  0  0  0
  145.4170  140.8531  155.4914 H   0  0  0  0  0  0  0  0  0  0  0  0
  146.7881  141.7978  155.9305 H   0  0  0  0  0  0  0  0  0  0  0  0
  146.1485  141.2081  153.2358 H   0  0  0  0  0  0  0  0  0  0  0  0
  147.5208  140.3777  152.5473 H   0  0  0  0  0  0  0  0  0  0  0  0
  147.7660  141.8298  153.5046 H   0  0  0  0  0  0  0  0  0  0  0  0
  147.2286  138.1382  153.6424 H   0  0  0  0  0  0  0  0  0  0  0  0
  146.7394  138.0044  155.3025 H   0  0  0  0  0  0  0  0  0  0  0  0
  145.0724  139.4252  153.2826 H   0  0  0  0  0  0  0  0  0  0  0  0
  143.1646  138.9798  153.0898 H   0  0  0  0  0  0  0  0  0  0  0  0
  140.6284  138.9371  152.5919 H   0  0  0  0  0  0  0  0  0  0  0  0
  137.8926  138.1083  153.0507 H   0  0  0  0  0  0  0  0  0  0  0  0
  137.7279  136.7979  154.2196 H   0  0  0  0  0  0  0  0  0  0  0  0
  138.0979  136.4336  152.5323 H   0  0  0  0  0  0  0  0  0  0  0  0
  149.4761  141.8117  154.5021 H   0  0  0  0  0  0  0  0  0  0  0  0
  148.8428  141.8080  156.1339 H   0  0  0  0  0  0  0  0  0  0  0  0
  151.3154  141.9718  156.1196 H   0  0  0  0  0  0  0  0  0  0  0  0
  150.7789  140.5253  156.9545 H   0  0  0  0  0  0  0  0  0  0  0  0
  151.6220  138.4004  154.1257 H   0  0  0  0  0  0  0  0  0  0  0  0
  150.9597  138.3703  155.7502 H   0  0  0  0  0  0  0  0  0  0  0  0
  149.1585  138.1589  154.0755 H   0  0  0  0  0  0  0  0  0  0  0  0
  149.6730  139.6273  153.2757 H   0  0  0  0  0  0  0  0  0  0  0  0
  1  2  1  0  0  0  0
  1 22  1  0  0  0  0
  1 23  1  0  0  0  0
  1 24  1  0  0  0  0
  2  3  1  0  0  0  0
  2 25  1  0  0  0  0
  2 26  1  0  0  0  0
  3  4  1  0  0  0  0
  3  5  1  0  0  0  0
  3 16  1  0  0  0  0
  4 27  1  0  0  0  0
  4 28  1  0  0  0  0
  4 29  1  0  0  0  0
  5  6  1  0  0  0  0
  5 30  1  0  0  0  0
  5 31  1  0  0  0  0
  6  7  1  0  0  0  0
  6 32  1  0  0  0  0
  7  8  2  0  0  0  0
  7  9  1  0  0  0  0
  9 10  1  0  0  0  0
  9 33  1  0  0  0  0
 10 15  2  0  0  0  0
 10 11  1  0  0  0  0
 11 12  2  0  0  0  0
 11 34  1  0  0  0  0
 12 13  1  0  0  0  0
 12 14  1  0  0  0  0
 13 35  1  0  0  0  0
 13 36  1  0  0  0  0
 13 37  1  0  0  0  0
 14 15  1  0  0  0  0
 16 21  1  0  0  0  0
 16 17  1  0  0  0  0
 17 18  1  0  0  0  0
 17 38  1  0  0  0  0
 17 39  1  0  0  0  0
 18 19  1  0  0  0  0
 18 40  1  0  0  0  0
 18 41  1  0  0  0  0
 19 20  1  0  0  0  0
 20 21  1  0  0  0  0
 20 42  1  0  0  0  0
 20 43  1  0  0  0  0
 21 44  1  0  0  0  0
 21 45  1  0  0  0  0
M  END
> <s_m_source_file>
AV-unprocessed.smi

> <i_m_source_file_index>
2060

> <i_lp_mmshare_version>
43012

> <i_f3d_flags>
0

> <s_epik_input>
W0NIMl0xW0NIMl1PW0NIMl1bQ0gyXU4xW0NAQF0oW0NIM10pKFtDSDJdW0NIM10pW0NIMl1bTkhdQyg9TylbTkhdYzJbY0hdYyhbQ0gzXSlvbjI=

> <s_epik_cmdline>
J2VwaWtfcHl0aG9uJywgJy1waCcsICc3LjAnLCAnLXRuJywgJzgnLCAnLW1hJywgJzIwMCcsICctbWV0YWxfYmluZGluZycsICctaW1hZScsICc8aW5maWxlLm1hZT4nLCAnLW9tYWUnLCAnPG91dGZpbGUubWFlPic=

> <r_epik_Ionization_Penalty>
0.289127

> <r_epik_Ionization_Penalty_Charging>
0

> <r_epik_Ionization_Penalty_Neutral>
0.289127

> <r_epik_State_Penalty>
0.282056

> <r_epik_Charging_Adjusted_Penalty>
0.282056

> <i_epik_Tot_Q>
0

> <i_epik_Tot_abs_Q>
0

> <r_epik_Metal_State_Penalty>
0.284526

> <b_epik_Metal_Only>
0

> <s_lp_Force_Field>
OPLS_2005

> <r_lp_Energy>
40.1787

> <b_lp_Chiralities_Consistent>
1

> <s_lp_Variant>
AV-unprocessed.smi:2060-2

> <Gold.Version>
5.8.1

> <Gold.Id.Protein>
6NUR|6NUR_protein|mol2

> <Gold.PLP.Fitness>
42.8325

> <Gold.PLP.PLP>
-31.1733

> <Gold.PLP.part.hbond>
-4.4235

> <Gold.PLP.part.metal>
0.0000

> <Gold.PLP.part.buried>
-6.1946

> <Gold.PLP.part.nonpolar>
-21.7903

> <Gold.PLP.part.repulsive>
0.1728

> <Gold.PLP.ligand.clash>
0.0000

> <Gold.PLP.ligand.torsion>
0.1994

> <Gold.PLP.Chemscore.Hbond>
3.9840

> <Gold.PLP.Chemscore.CHOScore>
0.0000

> <Gold.PLP.Chemscore.Metal>
0.0000

> <Gold.Chemscore.Hbonds>
donor molecule, donor type, donor heavy atom, donor atom, acceptor molecule, acceptor atom, score
      L1  H     6    32       P1 10175  0.91
      L1  H     9    33       P1 10175  1.00
      P1  H  7989  7998       L1    19  0.98
      P1  H 11000 11005       L1    14  0.60

> <Gold.PLP.Chemscore.Internal.Correction>
0.1060

> <Gold.Rescore>
     Score         DG    S(hbond)    S(metal)    S(lipo)     H(rot)  DE(clash)    DE(int)     intcor
     16.69     -18.15       2.88        0.00      63.60       1.71       0.03       1.43       ----

> <Gold.Chemscore.Fitness>
16.6926

> <Gold.Chemscore.DG>
-18.1505

> <Gold.Chemscore.ZeroCoef>
-5.4800

> <Gold.Chemscore.Hbond>
2.8795

> <Gold.Chemscore.Metal>
0.0000

> <Gold.Chemscore.Lipo>
63.6021

> <Gold.Chemscore.Internal_Hbond>
0.0000

> <Gold.Chemscore.DEClash>
0.0256

> <Gold.Chemscore.DEInternal>
1.4323

> <Gold.Chemscore.Rot>
1.7143

> <Gold.Chemscore.Internal.Correction>
   9.000000E+99

> <Gold.Chemscore.Hbonds>
donor molecule, donor type, donor heavy atom, donor atom, acceptor molecule, acceptor atom, score
      L1  H     6    32       P1 10175  0.88
      L1  H     9    33       P1 10175  0.99
      P1  H  7989  7998       L1    19  0.28
      P1  H 11000 11005       L1    14  0.14

> <Gold.Chemscore.Hbond.Weighted>
-9.6176

> <Gold.Chemscore.Metal.Weighted>
-0.0000

> <Gold.Chemscore.Lipo.Weighted>
-7.4414

> <Gold.Chemscore.Internal_Hbond.Weighted>
0.0000

> <Gold.Chemscore.DEClash.Weighted>
0.0256

> <Gold.Chemscore.DEInternal.Weighted>
1.4323

> <Gold.Chemscore.Rot.Weighted>
4.3885

> <Gold.Chemscore.Internal.Correction.Weighted>
   9.000000E+99

> <Gold.Protein.RotatedTorsions>
[ 6907 6896 6895 6894 ] final  -42.87 input  -60.11 | X-H torsion
[ 7974 7965 7964 7962 ] final -177.33 input  175.53 | X-H torsion
[ 8008 7997 7996 7995 ] final  -95.01 input   59.86 | X-H torsion
[ 10167 10162 10161 10158 ] final  -22.40 input  -65.29 | X-H torsion
[ 10718 10713 10712 10709 ] final   90.65 input   66.30 | X-H torsion
[ 10763 10752 10751 10750 ] final -167.65 input  -60.55 | X-H torsion
[ 11005 11000 10999 10996 ] final   73.06 input  -57.11 | X-H torsion

> <Gold.Protein.ActiveResidues>
 VAL166  LYS551  ARG553  GLY616  TRP617  ASP618  TYR619  PRO620  LYS621  CYS622 
 ASP623  PHE694  ASN695  SER759  ASP760  ASP761  ALA762  ILE779  LEU786  VAL792 
 PHE793  MET794  SER795  GLU796  ALA797  LYS798  CYS799  TRP800  GLU811  SER814 

> <Gold.Protein.RotatedAtoms>
  150.9504  134.8904  159.7667 H   0  0  0  0  0  0  0  0  0  0  0  0  # atno 6907 bound_to 6896
  152.5117  134.3815  159.9363 H   0  0  0  0  0  0  0  0  0  0  0  0  # atno 6908 bound_to 6896
  151.3831  133.3774  159.2747 H   0  0  0  0  0  0  0  0  0  0  0  0  # atno 6909 bound_to 6896
  144.7127  140.1036  143.6415 H   0  0  0  0  0  0  0  0  0  0  0  0  # atno 7974 bound_to 7965
  154.7558  140.0484  157.0932 H   0  0  0  0  0  0  0  0  0  0  0  0  # atno 8008 bound_to 7997
  154.9999  140.3123  155.4852 H   0  0  0  0  0  0  0  0  0  0  0  0  # atno 8009 bound_to 7997
  156.2894  140.2203  156.5109 H   0  0  0  0  0  0  0  0  0  0  0  0  # atno 8010 bound_to 7997
  140.7286  143.4538  151.0478 H   0  0  0  0  0  0  0  0  0  0  0  0  # atno 10167 bound_to 10162
  157.6959  131.0378  150.3610 H   0  0  0  0  0  0  0  0  0  0  0  0  # atno 10718 bound_to 10713
  154.6710  135.2939  154.9742 H   0  0  0  0  0  0  0  0  0  0  0  0  # atno 10763 bound_to 10752
  154.0769  135.6610  153.4836 H   0  0  0  0  0  0  0  0  0  0  0  0  # atno 10764 bound_to 10752
  153.0486  135.5188  154.7706 H   0  0  0  0  0  0  0  0  0  0  0  0  # atno 10765 bound_to 10752
  139.9459  134.7314  156.0981 H   0  0  0  0  0  0  0  0  0  0  0  0  # atno 11005 bound_to 11000
  145.9516  139.2738  143.1209 LP  0  0  0  0  0  0  0  0  0  0  0  0  # atno 17320 bound_to 7965
  145.9317  140.9044  143.0353 LP  0  0  0  0  0  0  0  0  0  0  0  0  # atno 17321 bound_to 7965
  139.8216  143.7812  152.3177 LP  0  0  0  0  0  0  0  0  0  0  0  0  # atno 17342 bound_to 10162
  139.7896  144.7415  150.9973 LP  0  0  0  0  0  0  0  0  0  0  0  0  # atno 17343 bound_to 10162
  156.4046  130.3922  149.6935 LP  0  0  0  0  0  0  0  0  0  0  0  0  # atno 17370 bound_to 10713
  156.4240  130.7782  151.2801 LP  0  0  0  0  0  0  0  0  0  0  0  0  # atno 17371 bound_to 10713
  141.1109  133.6644  156.2976 LP  0  0  0  0  0  0  0  0  0  0  0  0  # atno 17394 bound_to 11000
  140.5837  134.5720  157.5485 LP  0  0  0  0  0  0  0  0  0  0  0  0  # atno 17395 bound_to 11000

$$$$
