AV-unprocessed.smi:345|AV-procd|sdf|2391|dock2
  -GOLD-   2262022323D 1   1.00000     0.00000
 Structure written by MMmdl.
 34 36  0  0  0  0  0  0  0  0  1 V2000
  147.0429  139.0641  152.9108 C   0  0  0  0  0  0  0  0  0  0  0  0
  148.0990  139.7248  153.7288 C   0  0  0  0  0  0  0  0  0  0  0  0
  148.1940  140.9608  154.3042 C   0  0  0  0  0  0  0  0  0  0  0  0
  149.4616  140.9197  154.9431 C   0  0  0  0  0  0  0  0  0  0  0  0
  149.9422  142.0333  155.6782 N   0  0  0  0  0  0  0  0  0  0  0  0
  150.8747  142.0356  156.6459 C   0  0  0  0  0  0  0  0  0  0  0  0
  151.4950  141.0452  157.0337 O   0  0  0  0  0  0  0  0  0  0  0  0
  151.0503  143.2671  157.1479 N   0  0  0  0  0  0  0  0  0  0  0  0
  151.9667  143.6246  158.2259 C   0  0  0  0  0  0  0  0  0  0  0  0
  151.7852  142.7530  159.4588 C   0  0  0  0  0  0  0  0  0  0  0  0
  152.8650  142.6432  160.5098 C   0  0  0  0  0  0  0  0  0  0  0  0
  152.5431  141.4573  159.6305 C   0  0  0  0  0  0  0  0  0  0  0  0
  151.8397  145.0910  158.5983 C   0  0  0  0  0  0  0  0  0  0  0  0
  152.1755  145.5759  159.9883 C   0  0  0  0  0  0  0  0  0  0  0  0
  150.7406  145.5815  159.5112 C   0  0  0  0  0  0  0  0  0  0  0  0
  150.0872  139.7659  154.7681 N   0  0  0  0  0  0  0  0  0  0  0  0
  149.2169  138.9941  153.9891 O   0  0  0  0  0  0  0  0  0  0  0  0
  146.2267  139.7543  152.6966 H   0  0  0  0  0  0  0  0  0  0  0  0
  146.6281  138.2050  153.4382 H   0  0  0  0  0  0  0  0  0  0  0  0
  147.4496  138.7150  151.9616 H   0  0  0  0  0  0  0  0  0  0  0  0
  147.4696  141.7612  154.2747 H   0  0  0  0  0  0  0  0  0  0  0  0
  149.5171  142.9210  155.4557 H   0  0  0  0  0  0  0  0  0  0  0  0
  150.4990  144.0186  156.7600 H   0  0  0  0  0  0  0  0  0  0  0  0
  152.9869  143.4771  157.8648 H   0  0  0  0  0  0  0  0  0  0  0  0
  150.7653  142.7541  159.8397 H   0  0  0  0  0  0  0  0  0  0  0  0
  153.8087  143.1535  160.3294 H   0  0  0  0  0  0  0  0  0  0  0  0
  152.5500  142.5993  161.5502 H   0  0  0  0  0  0  0  0  0  0  0  0
  152.0119  140.6229  160.0834 H   0  0  0  0  0  0  0  0  0  0  0  0
  153.2737  141.1873  158.8708 H   0  0  0  0  0  0  0  0  0  0  0  0
  152.1093  145.7665  157.7881 H   0  0  0  0  0  0  0  0  0  0  0  0
  152.4530  144.8323  160.7328 H   0  0  0  0  0  0  0  0  0  0  0  0
  152.6793  146.5361  160.0775 H   0  0  0  0  0  0  0  0  0  0  0  0
  150.2897  146.5442  159.2794 H   0  0  0  0  0  0  0  0  0  0  0  0
  150.0690  144.8449  159.9472 H   0  0  0  0  0  0  0  0  0  0  0  0
  1  2  1  0  0  0  0
  1 18  1  0  0  0  0
  1 19  1  0  0  0  0
  1 20  1  0  0  0  0
  2 17  1  0  0  0  0
  2  3  2  0  0  0  0
  3  4  1  0  0  0  0
  3 21  1  0  0  0  0
  4  5  1  0  0  0  0
  4 16  2  0  0  0  0
  5  6  1  0  0  0  0
  5 22  1  0  0  0  0
  6  7  2  0  0  0  0
  6  8  1  0  0  0  0
  8  9  1  0  0  0  0
  8 23  1  0  0  0  0
  9 10  1  0  0  0  0
  9 13  1  0  0  0  0
  9 24  1  0  0  0  0
 10 12  1  0  0  0  0
 10 11  1  0  0  0  0
 10 25  1  0  0  0  0
 11 12  1  0  0  0  0
 11 26  1  0  0  0  0
 11 27  1  0  0  0  0
 12 28  1  0  0  0  0
 12 29  1  0  0  0  0
 13 15  1  0  0  0  0
 13 14  1  0  0  0  0
 13 30  1  0  0  0  0
 14 15  1  0  0  0  0
 14 31  1  0  0  0  0
 14 32  1  0  0  0  0
 15 33  1  0  0  0  0
 15 34  1  0  0  0  0
 16 17  1  0  0  0  0
M  END
> <s_m_source_file>
AV-unprocessed.smi

> <i_m_source_file_index>
345

> <i_lp_mmshare_version>
43012

> <i_f3d_flags>
0

> <s_epik_input>
W0NIM11jMVtjSF1jKG5vMSlbTkhdQyg9TylbTkhdW0NIXShbQ0hdMltDSDJdW0NIMl0yKVtDSF0zW0NIMl1bQ0gyXTM=

> <s_epik_cmdline>
J2VwaWtfcHl0aG9uJywgJy1waCcsICc3LjAnLCAnLXRuJywgJzgnLCAnLW1hJywgJzIwMCcsICctbWV0YWxfYmluZGluZycsICctaW1hZScsICc8aW5maWxlLm1hZT4nLCAnLW9tYWUnLCAnPG91dGZpbGUubWFlPic=

> <r_lp_tautomer_probability>
1

> <r_epik_Ionization_Penalty>
2.39082e-05

> <r_epik_Ionization_Penalty_Charging>
0

> <r_epik_Ionization_Penalty_Neutral>
2.39082e-05

> <r_epik_State_Penalty>
-0

> <r_epik_Charging_Adjusted_Penalty>
0

> <i_epik_Tot_Q>
0

> <i_epik_Tot_abs_Q>
0

> <r_epik_Metal_State_Penalty>
-0

> <b_epik_Metal_Only>
0

> <s_lp_Force_Field>
OPLS_2005

> <r_lp_Energy>
21.3823

> <b_lp_Chiralities_Consistent>
1

> <s_lp_Variant>
AV-unprocessed.smi:345-1

> <Gold.Version>
5.8.1

> <Gold.Id.Protein>
6NUR|6NUR_protein|mol2

> <Gold.PLP.Fitness>
47.9085

> <Gold.PLP.PLP>
-39.2358

> <Gold.PLP.part.hbond>
-3.0000

> <Gold.PLP.part.metal>
0.0000

> <Gold.PLP.part.buried>
-3.8237

> <Gold.PLP.part.nonpolar>
-34.4626

> <Gold.PLP.part.repulsive>
2.5556

> <Gold.PLP.ligand.clash>
0.0000

> <Gold.PLP.ligand.torsion>
1.2190

> <Gold.PLP.Chemscore.Hbond>
3.0000

> <Gold.PLP.Chemscore.CHOScore>
0.0000

> <Gold.PLP.Chemscore.Metal>
0.0000

> <Gold.Chemscore.Hbonds>
donor molecule, donor type, donor heavy atom, donor atom, acceptor molecule, acceptor atom, score
      L1  H     5    22       P1  8028  1.00
      L1  H     8    23       P1  8028  0.94
      P1  H  7989  7998       L1    16  0.15

> <Gold.PLP.Chemscore.Internal.Correction>
2.1107

> <Gold.Rescore>
     Score         DG    S(hbond)    S(metal)    S(lipo)     H(rot)  DE(clash)    DE(int)     intcor
     16.35     -21.92       2.65        0.00      95.87       1.42       2.16       3.41       ----

> <Gold.Chemscore.Fitness>
16.3493

> <Gold.Chemscore.DG>
-21.9208

> <Gold.Chemscore.ZeroCoef>
-5.4800

> <Gold.Chemscore.Hbond>
2.6513

> <Gold.Chemscore.Metal>
0.0000

> <Gold.Chemscore.Lipo>
95.8660

> <Gold.Chemscore.Internal_Hbond>
0.0000

> <Gold.Chemscore.DEClash>
2.1583

> <Gold.Chemscore.DEInternal>
3.4132

> <Gold.Chemscore.Rot>
1.4183

> <Gold.Chemscore.Internal.Correction>
   9.000000E+99

> <Gold.Chemscore.Hbonds>
donor molecule, donor type, donor heavy atom, donor atom, acceptor molecule, acceptor atom, score
      L1  H     5    22       P1  8028  0.99
      L1  H     8    23       P1  8028  0.87

> <Gold.Chemscore.Hbond.Weighted>
-8.8553

> <Gold.Chemscore.Metal.Weighted>
-0.0000

> <Gold.Chemscore.Lipo.Weighted>
-11.2163

> <Gold.Chemscore.Internal_Hbond.Weighted>
0.0000

> <Gold.Chemscore.DEClash.Weighted>
2.1583

> <Gold.Chemscore.DEInternal.Weighted>
3.4132

> <Gold.Chemscore.Rot.Weighted>
3.6308

> <Gold.Chemscore.Internal.Correction.Weighted>
   9.000000E+99

> <Gold.Protein.RotatedTorsions>
[ 6907 6896 6895 6894 ] final   42.19 input  -60.11 | X-H torsion
[ 7974 7965 7964 7962 ] final -100.50 input  175.53 | X-H torsion
[ 8008 7997 7996 7995 ] final  -90.94 input   59.86 | X-H torsion
[ 10167 10162 10161 10158 ] final   13.76 input  -65.29 | X-H torsion
[ 10718 10713 10712 10709 ] final  164.24 input   66.30 | X-H torsion
[ 10763 10752 10751 10750 ] final   94.37 input  -60.55 | X-H torsion
[ 11005 11000 10999 10996 ] final   15.45 input  -57.11 | X-H torsion

> <Gold.Protein.ActiveResidues>
 VAL166  LYS551  ARG553  GLY616  TRP617  ASP618  TYR619  PRO620  LYS621  CYS622 
 ASP623  PHE694  ASN695  SER759  ASP760  ASP761  ALA762  ILE779  LEU786  VAL792 
 PHE793  MET794  SER795  GLU796  ALA797  LYS798  CYS799  TRP800  GLU811  SER814 

> <Gold.Protein.RotatedAtoms>
  152.2048  134.8555  160.0503 H   0  0  0  0  0  0  0  0  0  0  0  0  # atno 6907 bound_to 6896
  151.9396  133.3629  159.3968 H   0  0  0  0  0  0  0  0  0  0  0  0  # atno 6908 bound_to 6896
  150.6962  134.4378  159.5322 H   0  0  0  0  0  0  0  0  0  0  0  0  # atno 6909 bound_to 6896
  145.2937  140.9359  143.2863 H   0  0  0  0  0  0  0  0  0  0  0  0  # atno 7974 bound_to 7965
  154.7046  140.0525  157.0491 H   0  0  0  0  0  0  0  0  0  0  0  0  # atno 8008 bound_to 7997
  155.0637  140.3192  155.4633 H   0  0  0  0  0  0  0  0  0  0  0  0  # atno 8009 bound_to 7997
  156.2771  140.2094  156.5765 H   0  0  0  0  0  0  0  0  0  0  0  0  # atno 8010 bound_to 7997
  140.5981  143.8661  150.6938 H   0  0  0  0  0  0  0  0  0  0  0  0  # atno 10167 bound_to 10162
  157.0972  131.0433  151.2513 H   0  0  0  0  0  0  0  0  0  0  0  0  # atno 10718 bound_to 10713
  153.2408  135.4292  155.0696 H   0  0  0  0  0  0  0  0  0  0  0  0  # atno 10763 bound_to 10752
  154.8340  135.3402  154.6651 H   0  0  0  0  0  0  0  0  0  0  0  0  # atno 10764 bound_to 10752
  153.7075  135.7025  153.5103 H   0  0  0  0  0  0  0  0  0  0  0  0  # atno 10765 bound_to 10752
  140.4582  134.1155  155.7712 H   0  0  0  0  0  0  0  0  0  0  0  0  # atno 11005 bound_to 11000
  144.9151  139.4480  143.6568 LP  0  0  0  0  0  0  0  0  0  0  0  0  # atno 17320 bound_to 7965
  146.3176  139.7980  142.8971 LP  0  0  0  0  0  0  0  0  0  0  0  0  # atno 17321 bound_to 7965
  140.2200  143.3816  152.1650 LP  0  0  0  0  0  0  0  0  0  0  0  0  # atno 17342 bound_to 10162
  139.5272  144.7116  151.5187 LP  0  0  0  0  0  0  0  0  0  0  0  0  # atno 17343 bound_to 10162
  157.4671  130.7687  149.7289 LP  0  0  0  0  0  0  0  0  0  0  0  0  # atno 17370 bound_to 10713
  155.9883  130.3960  150.3126 LP  0  0  0  0  0  0  0  0  0  0  0  0  # atno 17371 bound_to 10713
  141.1633  133.8750  157.1785 LP  0  0  0  0  0  0  0  0  0  0  0  0  # atno 17394 bound_to 11000
  139.9963  135.0045  157.0089 LP  0  0  0  0  0  0  0  0  0  0  0  0  # atno 17395 bound_to 11000

$$$$
