AV-unprocessed.smi:1371|AV-procd|sdf|5581|dock5
  -GOLD-   22720 5183D 1   1.00000     0.00000
 Structure written by MMmdl.
 31 31  0  0  0  0  0  0  0  0  1 V2000
  153.3529  143.5626  159.2106 C   0  0  0  0  0  0  0  0  0  0  0  0
  152.4936  144.6984  158.6433 C   0  0  0  0  0  0  0  0  0  0  0  0
  151.8996  145.5650  159.7659 C   0  0  0  0  0  0  0  0  0  0  0  0
  151.4620  144.0936  157.8747 O   0  0  0  0  0  0  0  0  0  0  0  0
  150.5893  143.2477  158.6103 C   0  0  0  0  0  0  0  0  0  0  0  0
  149.8353  142.3424  157.6320 C   0  0  0  0  0  0  0  0  0  0  0  0
  150.7152  142.1913  156.0470 S   0  0  0  0  0  0  0  0  0  0  0  0
  149.5815  141.2357  155.0520 C   0  0  0  0  0  0  0  0  0  0  0  0
  148.3251  141.6778  154.9374 N   0  0  0  0  0  0  0  0  0  0  0  0
  147.4913  140.9371  154.1771 C   0  0  0  0  0  0  0  0  0  0  0  0
  146.1787  141.3835  154.0446 N   0  0  0  0  0  0  0  0  0  0  0  0
  147.9214  139.7559  153.5371 C   0  0  0  0  0  0  0  0  0  0  0  0
  149.2698  139.3933  153.7379 C   0  0  0  0  0  0  0  0  0  0  0  0
  149.7943  138.2448  153.1505 N   0  0  0  0  0  0  0  0  0  0  0  0
  150.1008  140.1369  154.4991 N   0  0  0  0  0  0  0  0  0  0  0  0
  154.1865  143.9533  159.7946 H   0  0  0  0  0  0  0  0  0  0  0  0
  153.7680  142.9506  158.4094 H   0  0  0  0  0  0  0  0  0  0  0  0
  152.7672  142.9100  159.8588 H   0  0  0  0  0  0  0  0  0  0  0  0
  153.1261  145.3127  158.0003 H   0  0  0  0  0  0  0  0  0  0  0  0
  152.6863  145.9653  160.4059 H   0  0  0  0  0  0  0  0  0  0  0  0
  151.2234  144.9847  160.3942 H   0  0  0  0  0  0  0  0  0  0  0  0
  151.3431  146.4149  159.3723 H   0  0  0  0  0  0  0  0  0  0  0  0
  151.1400  142.6397  159.3279 H   0  0  0  0  0  0  0  0  0  0  0  0
  149.8758  143.8517  159.1719 H   0  0  0  0  0  0  0  0  0  0  0  0
  149.7198  141.3492  158.0668 H   0  0  0  0  0  0  0  0  0  0  0  0
  148.8354  142.7409  157.4572 H   0  0  0  0  0  0  0  0  0  0  0  0
  145.8581  142.2272  154.4972 H   0  0  0  0  0  0  0  0  0  0  0  0
  145.5064  140.8780  153.4861 H   0  0  0  0  0  0  0  0  0  0  0  0
  147.2554  139.1620  152.9280 H   0  0  0  0  0  0  0  0  0  0  0  0
  149.2300  137.6427  152.5686 H   0  0  0  0  0  0  0  0  0  0  0  0
  150.7659  137.9939  153.2658 H   0  0  0  0  0  0  0  0  0  0  0  0
  1  2  1  0  0  0  0
  1 16  1  0  0  0  0
  1 17  1  0  0  0  0
  1 18  1  0  0  0  0
  2  3  1  0  0  0  0
  2  4  1  0  0  0  0
  2 19  1  0  0  0  0
  3 20  1  0  0  0  0
  3 21  1  0  0  0  0
  3 22  1  0  0  0  0
  4  5  1  0  0  0  0
  5  6  1  0  0  0  0
  5 23  1  0  0  0  0
  5 24  1  0  0  0  0
  6  7  1  0  0  0  0
  6 25  1  0  0  0  0
  6 26  1  0  0  0  0
  7  8  1  0  0  0  0
  8 15  1  0  0  0  0
  8  9  2  0  0  0  0
  9 10  1  0  0  0  0
 10 11  1  0  0  0  0
 10 12  2  0  0  0  0
 11 27  1  0  0  0  0
 11 28  1  0  0  0  0
 12 13  1  0  0  0  0
 12 29  1  0  0  0  0
 13 14  1  0  0  0  0
 13 15  2  0  0  0  0
 14 30  1  0  0  0  0
 14 31  1  0  0  0  0
M  END
> <s_m_source_file>
AV-unprocessed.smi

> <i_m_source_file_index>
1371

> <i_lp_mmshare_version>
43012

> <i_f3d_flags>
0

> <s_epik_input>
W0NIM11bQ0hdKFtDSDNdKU9bQ0gyXVtDSDJdU2MxbmMoW05IMl0pW2NIXWMobjEpW05IMl0=

> <s_epik_cmdline>
J2VwaWtfcHl0aG9uJywgJy1waCcsICc3LjAnLCAnLXRuJywgJzgnLCAnLW1hJywgJzIwMCcsICctbWV0YWxfYmluZGluZycsICctaW1hZScsICc8aW5maWxlLm1hZT4nLCAnLW9tYWUnLCAnPG91dGZpbGUubWFlPic=

> <r_lp_tautomer_probability>
1

> <r_epik_Ionization_Penalty>
0.00548925

> <r_epik_Ionization_Penalty_Charging>
0

> <r_epik_Ionization_Penalty_Neutral>
0.00548925

> <r_epik_State_Penalty>
0.0040157

> <r_epik_Charging_Adjusted_Penalty>
0.0040157

> <i_epik_Tot_Q>
0

> <i_epik_Tot_abs_Q>
0

> <r_epik_Metal_State_Penalty>
-0

> <b_epik_Metal_Only>
0

> <s_lp_Force_Field>
OPLS_2005

> <r_lp_Energy>
-2.92027

> <b_lp_Chiralities_Consistent>
1

> <s_lp_Variant>
AV-unprocessed.smi:1371-1

> <Gold.Version>
5.8.1

> <Gold.Id.Protein>
6NUR|6NUR_protein|mol2

> <Gold.PLP.Fitness>
37.8436

> <Gold.PLP.PLP>
-30.1929

> <Gold.PLP.part.hbond>
-4.3983

> <Gold.PLP.part.metal>
0.0000

> <Gold.PLP.part.buried>
0.7161

> <Gold.PLP.part.nonpolar>
-26.7603

> <Gold.PLP.part.repulsive>
0.4668

> <Gold.PLP.ligand.clash>
0.0000

> <Gold.PLP.ligand.torsion>
0.3884

> <Gold.PLP.Chemscore.Hbond>
2.7963

> <Gold.PLP.Chemscore.CHOScore>
0.0000

> <Gold.PLP.Chemscore.Metal>
0.0000

> <Gold.Chemscore.Hbonds>
donor molecule, donor type, donor heavy atom, donor atom, acceptor molecule, acceptor atom, score
      L1  H    11    28       P1 10175  0.80
      L1  H    14    30       P1  7948  1.00
      P1  H  7989  7998       L1    15  1.00

> <Gold.PLP.Chemscore.Internal.Correction>
0.0388

> <Gold.Rescore>
     Score         DG    S(hbond)    S(metal)    S(lipo)     H(rot)  DE(clash)    DE(int)     intcor
     12.12     -13.50       1.89        0.00      68.71       2.47       0.94       0.44       ----

> <Gold.Chemscore.Fitness>
12.1231

> <Gold.Chemscore.DG>
-13.5038

> <Gold.Chemscore.ZeroCoef>
-5.4800

> <Gold.Chemscore.Hbond>
1.8893

> <Gold.Chemscore.Metal>
0.0000

> <Gold.Chemscore.Lipo>
68.7084

> <Gold.Chemscore.Internal_Hbond>
0.0000

> <Gold.Chemscore.DEClash>
0.9387

> <Gold.Chemscore.DEInternal>
0.4419

> <Gold.Chemscore.Rot>
2.4708

> <Gold.Chemscore.Internal.Correction>
   9.000000E+99

> <Gold.Chemscore.Hbonds>
donor molecule, donor type, donor heavy atom, donor atom, acceptor molecule, acceptor atom, score
      L1  H    11    28       P1 10175  0.58
      L1  H    14    30       P1  7948  0.86
      P1  H  7989  7998       L1    15  0.28

> <Gold.Chemscore.Hbond.Weighted>
-6.3102

> <Gold.Chemscore.Metal.Weighted>
-0.0000

> <Gold.Chemscore.Lipo.Weighted>
-8.0389

> <Gold.Chemscore.Internal_Hbond.Weighted>
0.0000

> <Gold.Chemscore.DEClash.Weighted>
0.9387

> <Gold.Chemscore.DEInternal.Weighted>
0.4419

> <Gold.Chemscore.Rot.Weighted>
6.3253

> <Gold.Chemscore.Internal.Correction.Weighted>
   9.000000E+99

> <Gold.Protein.RotatedTorsions>
[ 6907 6896 6895 6894 ] final  130.72 input  -60.11 | X-H torsion
[ 7974 7965 7964 7962 ] final   -9.56 input  175.53 | X-H torsion
[ 8008 7997 7996 7995 ] final  -37.78 input   59.86 | X-H torsion
[ 10167 10162 10161 10158 ] final  169.83 input  -65.29 | X-H torsion
[ 10718 10713 10712 10709 ] final  125.63 input   66.30 | X-H torsion
[ 10763 10752 10751 10750 ] final    4.91 input  -60.55 | X-H torsion
[ 11005 11000 10999 10996 ] final   -7.43 input  -57.11 | X-H torsion

> <Gold.Protein.ActiveResidues>
 VAL166  LYS551  ARG553  GLY616  TRP617  ASP618  TYR619  PRO620  LYS621  CYS622 
 ASP623  PHE694  ASN695  SER759  ASP760  ASP761  ALA762  ILE779  LEU786  VAL792 
 PHE793  MET794  SER795  GLU796  ALA797  LYS798  CYS799  TRP800  GLU811  SER814 

> <Gold.Protein.RotatedAtoms>
  152.3498  133.6166  159.5936 H   0  0  0  0  0  0  0  0  0  0  0  0  # atno 6907 bound_to 6896
  150.7531  133.9592  159.3519 H   0  0  0  0  0  0  0  0  0  0  0  0  # atno 6908 bound_to 6896
  151.7445  135.0847  160.0372 H   0  0  0  0  0  0  0  0  0  0  0  0  # atno 6909 bound_to 6896
  146.2248  140.2634  142.8353 H   0  0  0  0  0  0  0  0  0  0  0  0  # atno 7974 bound_to 7965
  154.4047  140.1595  156.2592 H   0  0  0  0  0  0  0  0  0  0  0  0  # atno 8008 bound_to 7997
  155.9051  140.3431  155.6034 H   0  0  0  0  0  0  0  0  0  0  0  0  # atno 8009 bound_to 7997
  155.7402  140.0791  157.2240 H   0  0  0  0  0  0  0  0  0  0  0  0  # atno 8010 bound_to 7997
  139.5002  144.3663  151.9772 H   0  0  0  0  0  0  0  0  0  0  0  0  # atno 10167 bound_to 10162
  157.5487  131.1095  150.8739 H   0  0  0  0  0  0  0  0  0  0  0  0  # atno 10718 bound_to 10713
  153.2656  135.6927  153.7533 H   0  0  0  0  0  0  0  0  0  0  0  0  # atno 10763 bound_to 10752
  153.6575  135.3366  155.3118 H   0  0  0  0  0  0  0  0  0  0  0  0  # atno 10764 bound_to 10752
  154.8446  135.4469  154.1662 H   0  0  0  0  0  0  0  0  0  0  0  0  # atno 10765 bound_to 10752
  140.7127  133.8895  155.8762 H   0  0  0  0  0  0  0  0  0  0  0  0  # atno 11005 bound_to 11000
  144.9322  140.7987  143.5682 LP  0  0  0  0  0  0  0  0  0  0  0  0  # atno 17320 bound_to 7965
  145.2579  139.2004  143.4908 LP  0  0  0  0  0  0  0  0  0  0  0  0  # atno 17321 bound_to 7965
  140.3099  144.3550  150.6037 LP  0  0  0  0  0  0  0  0  0  0  0  0  # atno 17342 bound_to 10162
  140.5807  143.2173  151.7433 LP  0  0  0  0  0  0  0  0  0  0  0  0  # atno 17343 bound_to 10162
  156.9271  130.5336  149.5279 LP  0  0  0  0  0  0  0  0  0  0  0  0  # atno 17370 bound_to 10713
  156.0557  130.5619  150.9087 LP  0  0  0  0  0  0  0  0  0  0  0  0  # atno 17371 bound_to 10713
  141.0071  134.1071  157.4259 LP  0  0  0  0  0  0  0  0  0  0  0  0  # atno 17394 bound_to 11000
  139.8867  135.0084  156.6518 LP  0  0  0  0  0  0  0  0  0  0  0  0  # atno 17395 bound_to 11000

$$$$
